14
Properties=species:S:1:pos:R:3:Z:I:1 energy=-78.05543859664063 field_type=dipole dipole="0.000000 0.000000 0.000000" charge=0
C	0.989160	0.000100	0.000000	6
C	2.324920	-0.000170	-0.000000	6
H	0.429410	0.930140	0.000000	1
H	0.429070	-0.929850	0.000000	1
H	2.885000	0.929800	-0.000000	1
H	2.884670	-0.930200	0.000000	1
Es	2.373829	0.077279	-0.000561	99
Es	0.665152	0.542590	-0.000685	99
Es	0.577664	-0.587264	-0.000762	99
Es	2.653742	0.540965	-0.001199	99
Es	1.657059	-0.000058	-0.015318	99
Es	2.718760	-0.619712	-0.000179	99
Es	0.953070	0.046974	-0.000191	99
Es	1.657039	-0.001040	0.018894	99
