11
Properties=species:S:1:pos:R:3:Z:I:1 energy=-76.8419822209366 field_type=dipole dipole="0.000000 0.000000 0.000000" charge=0
C	0.994950	0.000000	0.000000	6
C	2.195210	0.000000	0.000000	6
H	-0.070710	0.000000	0.000000	1
H	3.260870	0.000000	0.000000	1
Es	1.595077	0.000003	0.000090	99
Es	1.595080	-0.002766	0.000088	99
Es	2.195460	-0.000008	-0.000004	99
Es	2.891897	-0.000227	-0.000146	99
Es	0.298264	-0.000169	-0.000129	99
Es	1.595085	0.003173	0.000074	99
Es	0.994697	-0.000005	0.000027	99
