22
Properties=species:S:1:pos:R:3:Z:I:1 energy=-154.11054858582781 field_type=dipole dipole="0.000000 0.000000 0.000000" charge=0
C	0.982700	-0.001790	0.004550	6
O	2.403300	0.023630	0.000000	8
C	2.901470	1.354260	-0.004550	6
H	0.656500	-1.045550	0.003120	1
H	0.587590	0.488860	-0.890200	1
H	0.593620	0.484720	0.904440	1
H	3.994240	1.313340	-0.003120	1
H	2.570850	1.890490	0.890200	1
H	2.572750	1.883420	-0.904440	1
Es	0.793915	0.223700	-0.049800	99
Es	2.488123	0.019806	-0.102334	99
Es	1.772485	0.058012	-0.021775	99
Es	2.753340	1.426822	-0.209565	99
Es	3.093873	1.436814	0.202727	99
Es	3.154334	1.378154	0.053298	99
Es	0.717197	-0.529098	0.003264	99
Es	0.940374	0.136586	-0.111781	99
Es	2.375009	-0.004761	0.099147	99
Es	1.001489	0.133021	0.261351	99
Es	2.578702	0.608174	-0.008920	99
Es	2.430296	0.075858	-0.058221	99
Es	2.755514	1.553333	-0.057391	99
