10
Properties=species:S:1:pos:R:3:Z:I:1 energy=-92.89859122931641 field_type=dipole dipole="0.000000 0.000000 0.000000" charge=0
N	-0.580000	0.000000	0.000000	7
C	0.580000	0.000000	0.000000	6
H	1.645000	0.000000	0.000000	1
Es	-0.954996	-0.000063	-0.000246	99
Es	-0.579522	-0.000000	0.000000	99
Es	-0.048081	0.002982	-0.002441	99
Es	-0.022357	-0.000241	0.006312	99
Es	-0.048080	-0.002757	-0.003367	99
Es	1.260937	0.000084	-0.000247	99
Es	0.580353	-0.000005	-0.000009	99
