14
Properties=species:S:1:pos:R:3:Z:I:1 energy=-187.68919801895967 field_type=dipole dipole="0.000000 0.000000 0.000000" charge=0
O	-1.157569	0.000000	0.000000	8
O	1.157569	0.000000	0.000000	8
C	0.000000	0.000000	0.000000	6
Es	-0.000012	-0.000015	-0.000000	99
Es	-0.941515	-0.001782	0.003191	99
Es	1.157114	0.000005	-0.000004	99
Es	0.940541	-0.001422	0.000129	99
Es	0.636269	0.002570	-0.005397	99
Es	1.455816	-0.001591	0.001772	99
Es	-1.455776	0.000599	0.002940	99
Es	0.940520	0.000309	0.003415	99
Es	-0.636310	0.006743	-0.002111	99
Es	-1.156085	0.000251	-0.000776	99
Es	-0.940562	-0.005667	-0.003159	99
