8
Properties=species:S:1:pos:R:3:Z:I:1 energy=-76.05178507034637 field_type=dipole dipole="0.000000 0.000000 0.000000" charge=0
O	-1.456530	-0.037361	0.331785	8
H	-0.525630	-0.087661	0.053785	1
H	-1.894230	-0.730961	-0.176215	1
Es	-1.538578	0.154599	0.478120	99
Es	-1.053467	-0.013906	0.177671	99
Es	-1.456411	-0.068872	0.317704	99
Es	-1.372943	-0.189550	0.347972	99
Es	-1.711498	-0.293969	0.099674	99
