10
Properties=species:S:1:pos:R:3:Z:I:1 energy=-40.208984335754764 field_type=dipole dipole="0.000000 0.000000 0.000000" charge=0
C	0.998260	-0.002460	-0.004360	6
H	2.090210	-0.002430	0.004140	1
H	0.633790	1.026860	0.004140	1
H	0.627040	-0.527730	0.878110	1
H	0.641360	-0.507470	-0.905400	1
Es	1.736610	-0.002410	0.001445	99
Es	0.747284	-0.357598	0.592391	99
Es	0.998260	-0.002460	-0.004361	99
Es	0.751841	0.693576	0.001445	99
Es	0.756970	-0.343893	-0.613540	99
10
Properties=species:S:1:pos:R:3:Z:I:1 energy=-40.208984335754764 field_type=dipole dipole="0.000000 0.000000 0.000000" charge=0
C	0.998260	-0.002460	-0.004360	6
H	2.090210	-0.002430	0.004140	1
H	0.633790	1.026860	0.004140	1
H	0.627040	-0.527730	0.878110	1
H	0.641360	-0.507470	-0.905400	1
Es	0.998259	-0.002461	-0.004360	99
Es	1.736621	-0.002402	0.001449	99
Es	0.751846	0.693555	0.001448	99
Es	0.756961	-0.343890	-0.613547	99
Es	0.747279	-0.357588	0.592390	99
10
Properties=species:S:1:pos:R:3:Z:I:1 energy=-40.208984335754764 field_type=dipole dipole="0.000000 0.000000 0.000000" charge=0
C	0.998260	-0.002460	-0.004360	6
H	2.090210	-0.002430	0.004140	1
H	0.633790	1.026860	0.004140	1
H	0.627040	-0.527730	0.878110	1
H	0.641360	-0.507470	-0.905400	1
Es	0.998259	-0.002461	-0.004359	99
Es	0.747282	-0.357589	0.592389	99
Es	0.751849	0.693553	0.001446	99
Es	0.756966	-0.343888	-0.613543	99
Es	1.736609	-0.002402	0.001447	99
10
Properties=species:S:1:pos:R:3:Z:I:1 energy=-40.208984335754764 field_type=dipole dipole="0.000000 0.000000 0.000000" charge=0
C	0.998260	-0.002460	-0.004360	6
H	2.090210	-0.002430	0.004140	1
H	0.633790	1.026860	0.004140	1
H	0.627040	-0.527730	0.878110	1
H	0.641360	-0.507470	-0.905400	1
Es	0.751851	0.693543	0.001446	99
Es	1.736603	-0.002402	0.001447	99
Es	0.756969	-0.343882	-0.613533	99
Es	0.747285	-0.357584	0.592380	99
Es	0.998258	-0.002460	-0.004361	99
10
Properties=species:S:1:pos:R:3:Z:I:1 energy=-40.208984335754764 field_type=dipole dipole="0.000000 0.000000 0.000000" charge=0
C	0.998260	-0.002460	-0.004360	6
H	2.090210	-0.002430	0.004140	1
H	0.633790	1.026860	0.004140	1
H	0.627040	-0.527730	0.878110	1
H	0.641360	-0.507470	-0.905400	1
Es	0.998258	-0.002463	-0.004357	99
Es	0.747287	-0.357577	0.592363	99
Es	0.756973	-0.343873	-0.613515	99
Es	1.736596	-0.002405	0.001444	99
Es	0.751851	0.693532	0.001444	99
10
Properties=species:S:1:pos:R:3:Z:I:1 energy=-40.208984335754764 field_type=dipole dipole="0.000000 0.000000 0.000000" charge=0
C	0.998260	-0.002460	-0.004360	6
H	2.090210	-0.002430	0.004140	1
H	0.633790	1.026860	0.004140	1
H	0.627040	-0.527730	0.878110	1
H	0.641360	-0.507470	-0.905400	1
Es	0.751863	0.693518	0.001451	99
Es	0.756977	-0.343865	-0.613507	99
Es	0.998254	-0.002462	-0.004358	99
Es	0.747299	-0.357569	0.592348	99
Es	1.736573	-0.002408	0.001446	99
10
Properties=species:S:1:pos:R:3:Z:I:1 energy=-40.208984335754764 field_type=dipole dipole="0.000000 0.000000 0.000000" charge=0
C	0.998260	-0.002460	-0.004360	6
H	2.090210	-0.002430	0.004140	1
H	0.633790	1.026860	0.004140	1
H	0.627040	-0.527730	0.878110	1
H	0.641360	-0.507470	-0.905400	1
Es	0.998257	-0.002465	-0.004353	99
Es	1.736546	-0.002403	0.001448	99
Es	0.756985	-0.343860	-0.613491	99
Es	0.751869	0.693494	0.001448	99
Es	0.747308	-0.357552	0.592329	99
10
Properties=species:S:1:pos:R:3:Z:I:1 energy=-40.208984335754764 field_type=dipole dipole="0.000000 0.000000 0.000000" charge=0
C	0.998260	-0.002460	-0.004360	6
H	2.090210	-0.002430	0.004140	1
H	0.633790	1.026860	0.004140	1
H	0.627040	-0.527730	0.878110	1
H	0.641360	-0.507470	-0.905400	1
Es	0.998255	-0.002447	-0.004360	99
Es	0.751883	0.693459	0.001445	99
Es	0.747314	-0.357548	0.592317	99
Es	1.736516	-0.002404	0.001446	99
Es	0.756997	-0.343847	-0.613468	99
10
Properties=species:S:1:pos:R:3:Z:I:1 energy=-40.208984335754764 field_type=dipole dipole="0.000000 0.000000 0.000000" charge=0
C	0.998260	-0.002460	-0.004360	6
H	2.090210	-0.002430	0.004140	1
H	0.633790	1.026860	0.004140	1
H	0.627040	-0.527730	0.878110	1
H	0.641360	-0.507470	-0.905400	1
Es	0.747331	-0.357525	0.592276	99
Es	0.751886	0.693450	0.001446	99
Es	1.736479	-0.002406	0.001446	99
Es	0.757008	-0.343834	-0.613441	99
Es	0.998262	-0.002472	-0.004347	99
10
Properties=species:S:1:pos:R:3:Z:I:1 energy=-40.208984335754764 field_type=dipole dipole="0.000000 0.000000 0.000000" charge=0
C	0.998260	-0.002460	-0.004360	6
H	2.090210	-0.002430	0.004140	1
H	0.633790	1.026860	0.004140	1
H	0.627040	-0.527730	0.878110	1
H	0.641360	-0.507470	-0.905400	1
Es	0.998248	-0.002476	-0.004333	99
Es	0.757013	-0.343817	-0.613418	99
Es	0.747345	-0.357497	0.592238	99
Es	0.751900	0.693406	0.001446	99
Es	1.736460	-0.002401	0.001446	99
