22
Properties=species:S:1:pos:R:3:Z:I:1 energy=-154.1275256478238 field_type=dipole dipole="0.000000 0.000000 0.000000" charge=0
C	1.005480	-0.000680	0.004310	6
C	2.520130	0.001580	0.001240	6
O	3.004400	1.336610	0.011740	8
H	0.617530	-1.022410	0.011110	1
H	0.616690	0.518480	-0.877370	1
H	0.622110	0.530030	0.881350	1
H	2.912170	-0.507140	-0.885470	1
H	2.905990	-0.508360	0.889530	1
H	2.665730	1.777070	-0.785890	1
Es	0.773573	0.345515	-0.021621	99
Es	3.184951	1.237154	0.070574	99
Es	0.866781	0.242002	-0.016419	99
Es	2.555671	-0.098663	-0.126650	99
Es	2.972221	1.559237	-0.246690	99
Es	2.910457	1.144034	0.023496	99
Es	1.641372	0.113993	0.105796	99
Es	0.817390	-0.685126	-0.000625	99
Es	2.961572	1.372644	-0.063439	99
Es	2.752007	-0.021698	0.225656	99
Es	1.299576	-0.050481	-0.028963	99
Es	2.525428	0.668610	0.035840	99
Es	2.632467	0.011734	-0.145158	99
