21
Properties=species:S:1:pos:R:3:Z:I:1 energy=-117.08875130023084 field_type=dipole dipole="0.000000 0.000000 0.000000" charge=0
C	-0.026670	0.866370	-0.056930	6
C	-0.735540	-0.458480	-0.057100	6
C	0.762830	-0.408160	0.042620	6
H	0.016420	1.420700	-0.987120	1
H	-0.106360	1.485880	0.829050	1
H	-1.172120	-0.801350	-0.987490	1
H	-1.295280	-0.736100	0.828540	1
H	1.217890	-0.651750	0.995630	1
H	1.340680	-0.717160	-0.820750	1
Es	0.893491	-0.491763	-0.005009	99
Es	0.446570	0.184910	0.007335	99
Es	0.116819	0.599369	-0.050163	99
Es	-0.097994	1.167477	-0.107393	99
Es	0.610489	-0.095258	0.157960	99
Es	-0.510127	-0.480586	0.177429	99
Es	-0.732010	-0.695463	-0.126982	99
Es	-0.671268	0.144922	-0.219106	99
Es	1.079552	-0.527620	-0.021152	99
Es	-0.669443	-0.438431	-0.104049	99
Es	-0.396645	-0.397391	0.015553	99
Es	-0.066936	1.029148	-0.009689	99
