24
Properties=species:S:1:pos:R:3:Z:I:1 energy=-118.29557835777564 field_type=dipole dipole="0.000000 0.000000 0.000000" charge=0
C	0.989980	-0.013360	0.004120	6
C	2.508920	0.016510	0.008260	6
C	3.041640	1.439360	0.006470	6
H	0.630900	-1.047410	0.000510	1
H	0.589740	0.488380	-0.882730	1
H	0.585400	0.483540	0.891770	1
H	2.886770	-0.515450	-0.871820	1
H	2.881590	-0.511460	0.892940	1
H	2.711400	1.980780	-0.885940	1
H	4.136060	1.434740	0.015210	1
H	2.697030	1.988820	0.888500	1
Es	2.612110	0.087411	-0.002927	99
Es	2.585575	-0.189385	-0.315421	99
Es	2.855348	1.609783	0.088950	99
Es	2.840359	0.855946	0.073338	99
Es	2.564237	-0.182521	0.264236	99
Es	2.842773	1.320045	-0.009512	99
Es	1.189565	0.044581	0.080870	99
Es	2.948954	1.632593	-0.109695	99
Es	1.414130	-0.091713	0.009875	99
Es	0.754527	-0.471631	0.052573	99
Es	3.653066	1.426937	0.045720	99
Es	0.973407	0.160811	-0.001828	99
Es	0.941321	0.283666	-0.095440	99
