35
Properties=species:S:1:pos:R:3:Z:I:1 energy=-247.81054597820992 field_type=dipole dipole="0.000000 0.000000 0.000000" charge=0
C	0.918026	-2.591733	0.253345	6
C	0.104806	-1.722743	0.254435	6
C	-0.881864	-0.668403	0.255755	6
C	-0.087734	0.597797	0.365905	6
C	0.412706	1.308357	-0.867145	6
N	-0.691924	1.856397	-0.086815	7
H	1.644586	-3.371463	0.251085	1
H	-1.557504	-0.758963	1.112525	1
H	-1.488904	-0.692403	-0.655845	1
H	0.490606	0.662117	1.281205	1
H	0.153866	0.909917	-1.841264	1
H	1.358506	1.833207	-0.814144	1
H	-0.375174	2.637917	0.490955	1
Es	-1.315241	-0.729669	0.744741	99
Es	0.612121	-2.086359	0.291180	99
Es	-0.336749	0.853235	0.369796	99
Es	0.303914	0.910102	-0.483731	99
Es	-0.614530	-0.860372	0.303360	99
Es	0.941523	-2.856081	0.228046	99
Es	0.721257	1.496186	-0.806737	99
Es	-0.022515	0.704221	0.081693	99
Es	-0.223383	0.450305	0.182503	99
Es	0.456927	-2.139257	0.360518	99
Es	0.342602	1.304490	-0.962088	99
Es	0.827588	-2.582356	0.226761	99
Es	-0.530622	-1.027836	0.283067	99
Es	-0.757388	-0.271611	0.056362	99
Es	-0.524543	1.920989	-0.100099	99
Es	0.100538	0.987809	-0.029106	99
Es	0.133605	-1.723698	0.175473	99
Es	-0.862215	1.953522	-0.080932	99
Es	-0.112612	1.783614	-0.527736	99
Es	-0.624532	2.014564	-0.151015	99
Es	-0.414007	0.156317	0.018481	99
Es	0.848974	-2.418276	0.150348	99
