35
Properties=species:S:1:pos:R:3:Z:I:1 energy=-247.90090330081085 field_type=dipole dipole="0.000000 0.000000 0.000000" charge=0
C	-2.146907	-0.494126	0.293082	6
C	-0.660777	-0.511206	0.456202	6
C	0.157453	0.432304	-0.038098	6
C	1.653553	0.426724	0.121562	6
C	2.319213	0.419154	-1.189588	6
N	2.857343	0.421604	-2.219618	7
H	-2.473897	-1.396006	-0.233278	1
H	-2.491507	0.376294	-0.274068	1
H	-2.628867	-0.474476	1.275281	1
H	-0.252467	-1.354766	1.009552	1
H	-0.265557	1.272374	-0.588078	1
H	1.982833	-0.439576	0.706682	1
H	1.949583	1.321704	0.680372	1
Es	-0.460638	-0.127085	0.525323	99
Es	2.866141	0.544030	-2.184522	99
Es	1.714557	0.496169	0.224393	99
Es	-2.363995	-0.542622	0.631664	99
Es	3.050306	0.457146	-2.257612	99
Es	-0.569084	-0.861847	0.742542	99
Es	1.854953	0.378209	0.447176	99
Es	-0.579595	-0.448029	0.484505	99
Es	-0.204404	-0.037019	-0.137412	99
Es	-2.210674	-0.441037	0.369730	99
Es	-2.134310	-0.447781	0.297254	99
Es	1.841905	0.530427	-0.478891	99
Es	0.767053	0.343932	0.072009	99
Es	1.692459	0.361139	-0.081058	99
Es	2.427418	0.382032	-1.312841	99
Es	-0.069006	0.833037	-0.293718	99
Es	0.538575	0.334838	0.016286	99
Es	2.458930	0.303521	-1.687549	99
Es	2.675739	0.488354	-1.854840	99
Es	2.558688	0.433718	-1.687345	99
Es	-1.327494	-0.538280	0.230923	99
Es	-2.377282	-0.469037	-0.016630	99
