42
Properties=species:S:1:pos:R:3:Z:I:1 energy=-339.91353974088753 field_type=dipole dipole="0.000000 0.000000 0.000000" charge=0
C	-2.272622	-1.446942	-0.436986	6
C	-0.814932	-1.140782	-0.211306	6
O	0.022828	-2.044922	-0.155406	8
C	-0.439402	0.334478	-0.163286	6
N	0.916058	0.475098	0.377574	7
N	1.467058	1.707168	0.279544	7
C	2.685858	1.761668	0.706324	6
H	-2.552452	-1.148852	-1.450216	1
H	-2.881682	-0.910402	0.294694	1
H	-2.447832	-2.519272	-0.314926	1
H	-1.148172	0.864678	0.479954	1
H	-0.498062	0.727838	-1.183236	1
H	1.502988	-0.272862	-0.012096	1
H	3.229358	2.718538	0.672054	1
H	3.231008	0.894568	1.117314	1
Es	1.465153	1.749602	0.263665	99
Es	-2.469024	-1.238772	-0.452600	99
Es	-0.505088	0.423949	-0.204415	99
Es	1.138686	1.094208	0.269491	99
Es	1.694155	1.869473	0.168938	99
Es	-0.711499	0.545846	-0.091081	99
Es	-0.406824	-1.602518	-0.329580	99
Es	2.974355	2.332651	0.702709	99
Es	-0.793906	-1.098476	-0.214569	99
Es	0.929358	0.512017	0.401854	99
Es	1.245082	0.046748	0.336233	99
Es	3.033103	1.324851	0.892494	99
Es	-2.496209	-1.262790	-0.501175	99
Es	0.244384	0.469482	0.099072	99
Es	0.201475	-2.098621	-0.143789	99
Es	-0.810760	-0.834733	-0.241520	99
Es	1.837180	1.767513	0.459013	99
Es	2.519857	1.666139	0.679037	99
Es	2.095720	1.709387	0.615166	99
Es	0.044608	-1.963625	-0.148538	99
Es	-0.556697	0.519851	-0.312576	99
Es	-1.291678	-0.936199	-0.292760	99
Es	0.960971	0.461762	0.371221	99
Es	-2.533145	-1.887728	-0.469909	99
Es	-2.280382	-1.496846	-0.433159	99
Es	-0.019071	-2.222640	-0.109842	99
Es	-0.233268	-1.778784	-0.077123	99
