16
Properties=species:S:1:pos:R:3:Z:I:1 energy=-52.82795185517763 field_type=dipole dipole="0.000000 0.000000 0.000000" charge=0
B	0.884079	-0.000000	-0.000000	5
B	-0.884079	-0.000000	-0.000000	5
H	1.462760	-0.000000	1.039232	1
H	-1.462760	0.000000	-1.039232	1
H	1.462760	-0.000000	-1.039232	1
H	-1.462760	-0.000000	1.039232	1
H	-0.000000	-0.975240	0.000000	1
H	-0.000000	0.975240	0.000000	1
Es	-1.260850	0.022574	0.594054	99
Es	-0.885078	-0.005142	-0.001659	99
Es	-1.215488	-0.002517	-0.607151	99
Es	1.290611	0.016135	-0.767892	99
Es	-0.055849	0.402582	0.001145	99
Es	0.893547	-0.000065	0.019814	99
Es	-0.060492	-0.431194	0.001719	99
Es	1.293599	-0.002374	0.759970	99
