32
Properties=species:S:1:pos:R:3:Z:I:1 energy=-698.1300910274539 field_type=dipole dipole="0.000000 0.000000 0.000000" charge=0
S	0.000200	-0.000200	-0.118100	16
O	1.274400	0.035500	0.897500	8
O	-1.276500	-0.032600	0.894900	8
O	-0.033600	1.257700	-0.839100	8
O	0.035400	-1.260400	-0.835100	8
H	1.211100	0.691200	1.631200	1
H	-1.214800	-0.685900	1.630700	1
Es	0.063222	0.282634	-0.170714	99
Es	-0.414453	-0.031182	0.484978	99
Es	-0.009383	-0.063439	0.001536	99
Es	-0.216847	0.113012	-0.095421	99
Es	0.151314	-0.023743	-0.369940	99
Es	0.811143	0.063891	0.475177	99
Es	-0.015919	0.073126	-0.079153	99
Es	-0.080564	0.301799	-0.122513	99
Es	-0.055482	0.014697	-0.265943	99
Es	-0.026593	0.174890	0.052397	99
Es	0.102184	0.248644	-0.051452	99
Es	-0.225991	-0.059157	0.237473	99
Es	0.542957	0.159667	0.181740	99
Es	0.079241	0.055967	0.026019	99
Es	-0.373406	-0.330892	0.073436	99
Es	-0.035230	-0.165322	-0.339361	99
Es	0.252347	0.037560	0.013784	99
Es	-0.085594	0.129701	-0.037962	99
Es	0.248338	-0.184391	-0.230132	99
Es	-0.423559	-0.234902	0.383356	99
Es	0.106483	0.169599	0.402612	99
Es	-0.127531	-0.359652	-0.160433	99
Es	-0.109558	0.059058	0.133895	99
Es	-0.139337	-0.301019	0.212089	99
Es	-0.018777	-0.129626	-0.165223	99
