10
Properties=species:S:1:pos:R:3:Z:I:1 energy=-40.20898433529598 field_type=dipole dipole="0.000000 0.000000 0.000000" charge=0
C	0.000128	0.000186	0.000314	6
H	1.092078	0.000216	0.008814	1
H	-0.364342	1.029506	0.008814	1
H	-0.371092	-0.525084	0.882784	1
H	-0.356772	-0.504824	-0.900726	1
Es	0.000128	0.000186	0.000313	99
Es	0.738491	0.000308	0.006155	99
Es	-0.250838	-0.354992	0.597029	99
Es	-0.246325	0.696163	0.006190	99
Es	-0.241150	-0.341221	-0.608938	99
