17
Properties=species:S:1:pos:R:3:Z:I:1 energy=-79.25137147271576 field_type=dipole dipole="0.000000 0.000000 0.000000" charge=0
C	-0.755960	0.002046	-0.003488	6
C	0.755960	-0.002024	0.003502	6
H	-1.137650	1.027396	0.001272	1
H	-1.145890	-0.514744	0.878523	1
H	-1.137630	-0.503424	-0.895657	1
H	1.137650	0.507096	0.893533	1
H	1.145890	0.511086	-0.880657	1
H	1.137630	-1.027434	0.002972	1
Es	0.000048	-0.000050	-0.000015	99
Es	0.755928	-0.002024	0.003502	99
Es	-1.014209	0.704098	-0.000190	99
Es	-1.019888	-0.351777	0.600422	99
Es	1.014265	-0.704127	0.003170	99
Es	-0.755928	0.002046	-0.003488	99
Es	-1.014313	-0.344031	-0.614309	99
Es	1.019857	0.349281	-0.601901	99
Es	1.014240	0.346634	0.612840	99
