17
Properties=species:S:1:pos:R:3:Z:I:1 energy=-79.25137147263807 field_type=dipole dipole="0.000000 0.000000 0.000000" charge=0
C	1.004040	-0.002950	-0.006400	6
C	2.515960	-0.007020	0.000590	6
H	0.622350	1.022400	-0.001640	1
H	0.614110	-0.519740	0.875610	1
H	0.622370	-0.508420	-0.898570	1
H	2.897650	0.502100	0.890620	1
H	2.905890	0.506090	-0.883570	1
H	2.897630	-1.032430	0.000060	1
Es	2.775574	0.340739	0.608566	99
Es	2.775538	-0.707431	0.000178	99
Es	2.515927	-0.007020	0.000589	99
Es	1.760018	-0.004961	-0.002896	99
Es	1.004072	-0.002950	-0.006400	99
Es	0.738819	-0.355918	0.596078	99
Es	2.781169	0.343478	-0.603330	99
Es	0.744419	0.697411	-0.003171	99
Es	0.744464	-0.348263	-0.615792	99
17
Properties=species:S:1:pos:R:3:Z:I:1 energy=-79.25137147263807 field_type=dipole dipole="0.000000 0.000000 0.000000" charge=0
C	1.004040	-0.002950	-0.006400	6
C	2.515960	-0.007020	0.000590	6
H	0.622350	1.022400	-0.001640	1
H	0.614110	-0.519740	0.875610	1
H	0.622370	-0.508420	-0.898570	1
H	2.897650	0.502100	0.890620	1
H	2.905890	0.506090	-0.883570	1
H	2.897630	-1.032430	0.000060	1
Es	2.515928	-0.007020	0.000590	99
Es	1.004072	-0.002950	-0.006400	99
Es	0.744698	-0.348388	-0.616084	99
Es	2.780926	0.343653	-0.603639	99
Es	2.775289	-0.707745	0.000161	99
Es	0.744678	0.697757	-0.003151	99
Es	0.739015	-0.356099	0.596338	99
Es	2.775383	0.340874	0.608836	99
Es	1.760010	-0.004997	-0.002830	99
17
Properties=species:S:1:pos:R:3:Z:I:1 energy=-79.25137147263807 field_type=dipole dipole="0.000000 0.000000 0.000000" charge=0
C	1.004040	-0.002950	-0.006400	6
C	2.515960	-0.007020	0.000590	6
H	0.622350	1.022400	-0.001640	1
H	0.614110	-0.519740	0.875610	1
H	0.622370	-0.508420	-0.898570	1
H	2.897650	0.502100	0.890620	1
H	2.905890	0.506090	-0.883570	1
H	2.897630	-1.032430	0.000060	1
Es	1.004072	-0.002950	-0.006400	99
Es	0.744778	-0.348544	-0.616242	99
Es	2.775168	0.340958	0.609014	99
Es	0.744878	0.698008	-0.003153	99
Es	2.515928	-0.007020	0.000590	99
Es	2.775159	-0.707940	0.000190	99
Es	2.780794	0.343806	-0.603848	99
Es	0.739277	-0.356178	0.596606	99
Es	1.759945	-0.005057	-0.002936	99
17
Properties=species:S:1:pos:R:3:Z:I:1 energy=-79.25137147263807 field_type=dipole dipole="0.000000 0.000000 0.000000" charge=0
C	1.004040	-0.002950	-0.006400	6
C	2.515960	-0.007020	0.000590	6
H	0.622350	1.022400	-0.001640	1
H	0.614110	-0.519740	0.875610	1
H	0.622370	-0.508420	-0.898570	1
H	2.897650	0.502100	0.890620	1
H	2.905890	0.506090	-0.883570	1
H	2.897630	-1.032430	0.000060	1
Es	0.745044	0.698210	-0.003153	99
Es	0.739362	-0.356302	0.596746	99
Es	1.759957	-0.005058	-0.002890	99
Es	2.774986	-0.708144	0.000208	99
Es	0.744987	-0.348612	-0.616452	99
Es	2.780664	0.343895	-0.604031	99
Es	2.775001	0.341066	0.609202	99
Es	2.515928	-0.007020	0.000590	99
Es	1.004073	-0.002950	-0.006399	99
17
Properties=species:S:1:pos:R:3:Z:I:1 energy=-79.25137147263807 field_type=dipole dipole="0.000000 0.000000 0.000000" charge=0
C	1.004040	-0.002950	-0.006400	6
C	2.515960	-0.007020	0.000590	6
H	0.622350	1.022400	-0.001640	1
H	0.614110	-0.519740	0.875610	1
H	0.622370	-0.508420	-0.898570	1
H	2.897650	0.502100	0.890620	1
H	2.905890	0.506090	-0.883570	1
H	2.897630	-1.032430	0.000060	1
Es	2.780543	0.343941	-0.604128	99
Es	0.745164	-0.348681	-0.616483	99
Es	0.745038	0.698368	-0.003194	99
Es	1.004073	-0.002950	-0.006400	99
Es	2.774872	0.341180	0.609389	99
Es	0.739502	-0.356448	0.596875	99
Es	2.774845	-0.708318	0.000179	99
Es	2.515928	-0.007020	0.000590	99
Es	1.760035	-0.004986	-0.003006	99
17
Properties=species:S:1:pos:R:3:Z:I:1 energy=-79.25137147263807 field_type=dipole dipole="0.000000 0.000000 0.000000" charge=0
C	1.004040	-0.002950	-0.006400	6
C	2.515960	-0.007020	0.000590	6
H	0.622350	1.022400	-0.001640	1
H	0.614110	-0.519740	0.875610	1
H	0.622370	-0.508420	-0.898570	1
H	2.897650	0.502100	0.890620	1
H	2.905890	0.506090	-0.883570	1
H	2.897630	-1.032430	0.000060	1
Es	1.759997	-0.004976	-0.003029	99
Es	0.745173	-0.348738	-0.616634	99
Es	2.774719	-0.708464	0.000210	99
Es	2.780497	0.343972	-0.604214	99
Es	2.515928	-0.007020	0.000590	99
Es	0.745207	0.698497	-0.003126	99
Es	2.774783	0.341233	0.609457	99
Es	0.739623	-0.356468	0.596967	99
Es	1.004072	-0.002950	-0.006400	99
17
Properties=species:S:1:pos:R:3:Z:I:1 energy=-79.25137147263807 field_type=dipole dipole="0.000000 0.000000 0.000000" charge=0
C	1.004040	-0.002950	-0.006400	6
C	2.515960	-0.007020	0.000590	6
H	0.622350	1.022400	-0.001640	1
H	0.614110	-0.519740	0.875610	1
H	0.622370	-0.508420	-0.898570	1
H	2.897650	0.502100	0.890620	1
H	2.905890	0.506090	-0.883570	1
H	2.897630	-1.032430	0.000060	1
Es	0.745300	0.698551	-0.003162	99
Es	2.515928	-0.007020	0.000590	99
Es	2.774710	-0.708559	0.000213	99
Es	1.760005	-0.005003	-0.002941	99
Es	1.004072	-0.002950	-0.006400	99
Es	2.774700	0.341336	0.609520	99
Es	0.745314	-0.348767	-0.616756	99
Es	0.739635	-0.356529	0.597075	99
Es	2.780337	0.344026	-0.604317	99
17
Properties=species:S:1:pos:R:3:Z:I:1 energy=-79.25137147263807 field_type=dipole dipole="0.000000 0.000000 0.000000" charge=0
C	1.004040	-0.002950	-0.006400	6
C	2.515960	-0.007020	0.000590	6
H	0.622350	1.022400	-0.001640	1
H	0.614110	-0.519740	0.875610	1
H	0.622370	-0.508420	-0.898570	1
H	2.897650	0.502100	0.890620	1
H	2.905890	0.506090	-0.883570	1
H	2.897630	-1.032430	0.000060	1
Es	2.515928	-0.007020	0.000590	99
Es	2.774633	-0.708620	0.000174	99
Es	0.739732	-0.356552	0.597157	99
Es	0.745383	-0.348846	-0.616873	99
Es	2.780272	0.344077	-0.604376	99
Es	2.774673	0.341341	0.609595	99
Es	1.759926	-0.004977	-0.002901	99
Es	0.745382	0.698632	-0.003144	99
Es	1.004072	-0.002950	-0.006400	99
17
Properties=species:S:1:pos:R:3:Z:I:1 energy=-79.25137147263807 field_type=dipole dipole="0.000000 0.000000 0.000000" charge=0
C	1.004040	-0.002950	-0.006400	6
C	2.515960	-0.007020	0.000590	6
H	0.622350	1.022400	-0.001640	1
H	0.614110	-0.519740	0.875610	1
H	0.622370	-0.508420	-0.898570	1
H	2.897650	0.502100	0.890620	1
H	2.905890	0.506090	-0.883570	1
H	2.897630	-1.032430	0.000060	1
Es	2.515929	-0.007020	0.000590	99
Es	2.774563	-0.708682	0.000176	99
Es	1.759910	-0.004983	-0.002864	99
Es	1.004073	-0.002950	-0.006400	99
Es	2.774602	0.341317	0.609649	99
Es	2.780246	0.344156	-0.604451	99
Es	0.739792	-0.356605	0.597184	99
Es	0.745422	0.698732	-0.003132	99
Es	0.745464	-0.348881	-0.616930	99
17
Properties=species:S:1:pos:R:3:Z:I:1 energy=-79.25137147263807 field_type=dipole dipole="0.000000 0.000000 0.000000" charge=0
C	1.004040	-0.002950	-0.006400	6
C	2.515960	-0.007020	0.000590	6
H	0.622350	1.022400	-0.001640	1
H	0.614110	-0.519740	0.875610	1
H	0.622370	-0.508420	-0.898570	1
H	2.897650	0.502100	0.890620	1
H	2.905890	0.506090	-0.883570	1
H	2.897630	-1.032430	0.000060	1
Es	2.774523	0.341414	0.609645	99
Es	0.745473	-0.348854	-0.617023	99
Es	1.004072	-0.002950	-0.006400	99
Es	0.739844	-0.356659	0.597291	99
Es	2.515928	-0.007020	0.000590	99
Es	2.780184	0.344154	-0.604452	99
Es	1.759896	-0.004924	-0.002941	99
Es	0.745533	0.698750	-0.003099	99
Es	2.774547	-0.708825	0.000211	99
17
Properties=species:S:1:pos:R:3:Z:I:1 energy=-79.25137147263807 field_type=dipole dipole="0.000000 0.000000 0.000000" charge=0
C	1.004040	-0.002950	-0.006400	6
C	2.515960	-0.007020	0.000590	6
H	0.622350	1.022400	-0.001640	1
H	0.614110	-0.519740	0.875610	1
H	0.622370	-0.508420	-0.898570	1
H	2.897650	0.502100	0.890620	1
H	2.905890	0.506090	-0.883570	1
H	2.897630	-1.032430	0.000060	1
Es	2.515927	-0.007020	0.000590	99
Es	1.759998	-0.005027	-0.002850	99
Es	0.745536	0.698826	-0.003173	99
Es	0.739861	-0.356628	0.597312	99
Es	1.004073	-0.002950	-0.006400	99
Es	2.774489	-0.708815	0.000182	99
Es	2.780059	0.344186	-0.604582	99
Es	0.745519	-0.348928	-0.616981	99
Es	2.774538	0.341440	0.609724	99
17
Properties=species:S:1:pos:R:3:Z:I:1 energy=-79.25137147263807 field_type=dipole dipole="0.000000 0.000000 0.000000" charge=0
C	1.004040	-0.002950	-0.006400	6
C	2.515960	-0.007020	0.000590	6
H	0.622350	1.022400	-0.001640	1
H	0.614110	-0.519740	0.875610	1
H	0.622370	-0.508420	-0.898570	1
H	2.897650	0.502100	0.890620	1
H	2.905890	0.506090	-0.883570	1
H	2.897630	-1.032430	0.000060	1
Es	2.774454	-0.708882	0.000204	99
Es	0.739929	-0.356651	0.597326	99
Es	1.004072	-0.002950	-0.006400	99
Es	2.515925	-0.007020	0.000590	99
Es	0.745563	0.698846	-0.003116	99
Es	1.759990	-0.004971	-0.002883	99
Es	0.745540	-0.348958	-0.617070	99
Es	2.774427	0.341422	0.609756	99
Es	2.780100	0.344249	-0.604586	99
17
Properties=species:S:1:pos:R:3:Z:I:1 energy=-79.25137147263807 field_type=dipole dipole="0.000000 0.000000 0.000000" charge=0
C	1.004040	-0.002950	-0.006400	6
C	2.515960	-0.007020	0.000590	6
H	0.622350	1.022400	-0.001640	1
H	0.614110	-0.519740	0.875610	1
H	0.622370	-0.508420	-0.898570	1
H	2.897650	0.502100	0.890620	1
H	2.905890	0.506090	-0.883570	1
H	2.897630	-1.032430	0.000060	1
Es	0.739917	-0.356700	0.597377	99
Es	1.760035	-0.004991	-0.002930	99
Es	2.774387	-0.708904	0.000152	99
Es	2.515927	-0.007020	0.000590	99
Es	0.745575	0.698902	-0.003182	99
Es	2.774451	0.341497	0.609859	99
Es	1.004072	-0.002950	-0.006399	99
Es	0.745617	-0.348951	-0.617032	99
Es	2.780018	0.344203	-0.604612	99
17
Properties=species:S:1:pos:R:3:Z:I:1 energy=-79.25137147263807 field_type=dipole dipole="0.000000 0.000000 0.000000" charge=0
C	1.004040	-0.002950	-0.006400	6
C	2.515960	-0.007020	0.000590	6
H	0.622350	1.022400	-0.001640	1
H	0.614110	-0.519740	0.875610	1
H	0.622370	-0.508420	-0.898570	1
H	2.897650	0.502100	0.890620	1
H	2.905890	0.506090	-0.883570	1
H	2.897630	-1.032430	0.000060	1
Es	0.745655	0.698927	-0.003107	99
Es	2.774414	-0.708993	0.000165	99
Es	1.004072	-0.002950	-0.006400	99
Es	0.745591	-0.348964	-0.617132	99
Es	0.739965	-0.356694	0.597383	99
Es	2.780025	0.344348	-0.604614	99
Es	2.515926	-0.007021	0.000590	99
Es	2.774343	0.341422	0.609809	99
Es	1.760008	-0.004989	-0.002873	99
17
Properties=species:S:1:pos:R:3:Z:I:1 energy=-79.25137147263807 field_type=dipole dipole="0.000000 0.000000 0.000000" charge=0
C	1.004040	-0.002950	-0.006400	6
C	2.515960	-0.007020	0.000590	6
H	0.622350	1.022400	-0.001640	1
H	0.614110	-0.519740	0.875610	1
H	0.622370	-0.508420	-0.898570	1
H	2.897650	0.502100	0.890620	1
H	2.905890	0.506090	-0.883570	1
H	2.897630	-1.032430	0.000060	1
Es	0.745644	0.698974	-0.003150	99
Es	2.515928	-0.007020	0.000590	99
Es	2.779991	0.344274	-0.604680	99
Es	0.740004	-0.356717	0.597424	99
Es	1.004073	-0.002950	-0.006400	99
Es	1.759995	-0.004990	-0.002902	99
Es	2.774358	0.341499	0.609877	99
Es	2.774349	-0.708975	0.000187	99
Es	0.745658	-0.349008	-0.617125	99
17
Properties=species:S:1:pos:R:3:Z:I:1 energy=-79.25137147263807 field_type=dipole dipole="0.000000 0.000000 0.000000" charge=0
C	1.004040	-0.002950	-0.006400	6
C	2.515960	-0.007020	0.000590	6
H	0.622350	1.022400	-0.001640	1
H	0.614110	-0.519740	0.875610	1
H	0.622370	-0.508420	-0.898570	1
H	2.897650	0.502100	0.890620	1
H	2.905890	0.506090	-0.883570	1
H	2.897630	-1.032430	0.000060	1
Es	1.004072	-0.002950	-0.006400	99
Es	0.745653	-0.349023	-0.617151	99
Es	1.760013	-0.004994	-0.002896	99
Es	2.515928	-0.007020	0.000590	99
Es	2.774371	0.341518	0.609916	99
Es	0.745683	0.698980	-0.003153	99
Es	2.779934	0.344278	-0.604723	99
Es	0.740036	-0.356715	0.597474	99
Es	2.774310	-0.708988	0.000165	99
17
Properties=species:S:1:pos:R:3:Z:I:1 energy=-79.25137147263807 field_type=dipole dipole="0.000000 0.000000 0.000000" charge=0
C	1.004040	-0.002950	-0.006400	6
C	2.515960	-0.007020	0.000590	6
H	0.622350	1.022400	-0.001640	1
H	0.614110	-0.519740	0.875610	1
H	0.622370	-0.508420	-0.898570	1
H	2.897650	0.502100	0.890620	1
H	2.905890	0.506090	-0.883570	1
H	2.897630	-1.032430	0.000060	1
Es	2.774328	0.341544	0.609950	99
Es	1.759979	-0.004982	-0.002907	99
Es	0.745704	0.699031	-0.003133	99
Es	1.004072	-0.002950	-0.006400	99
Es	0.745687	-0.349073	-0.617198	99
Es	2.515928	-0.007020	0.000590	99
Es	2.779918	0.344287	-0.604722	99
Es	2.774290	-0.709033	0.000159	99
Es	0.740093	-0.356718	0.597483	99
17
Properties=species:S:1:pos:R:3:Z:I:1 energy=-79.25137147263807 field_type=dipole dipole="0.000000 0.000000 0.000000" charge=0
C	1.004040	-0.002950	-0.006400	6
C	2.515960	-0.007020	0.000590	6
H	0.622350	1.022400	-0.001640	1
H	0.614110	-0.519740	0.875610	1
H	0.622370	-0.508420	-0.898570	1
H	2.897650	0.502100	0.890620	1
H	2.905890	0.506090	-0.883570	1
H	2.897630	-1.032430	0.000060	1
Es	0.745710	-0.349015	-0.617227	99
Es	2.515928	-0.007020	0.000590	99
Es	0.740037	-0.356745	0.597546	99
Es	1.759981	-0.004934	-0.002925	99
Es	2.774303	0.341587	0.609910	99
Es	1.004070	-0.002950	-0.006400	99
Es	2.774338	-0.709109	0.000156	99
Es	2.779879	0.344292	-0.604667	99
Es	0.745755	0.698979	-0.003162	99
17
Properties=species:S:1:pos:R:3:Z:I:1 energy=-79.25137147263807 field_type=dipole dipole="0.000000 0.000000 0.000000" charge=0
C	1.004040	-0.002950	-0.006400	6
C	2.515960	-0.007020	0.000590	6
H	0.622350	1.022400	-0.001640	1
H	0.614110	-0.519740	0.875610	1
H	0.622370	-0.508420	-0.898570	1
H	2.897650	0.502100	0.890620	1
H	2.905890	0.506090	-0.883570	1
H	2.897630	-1.032430	0.000060	1
Es	2.515928	-0.007020	0.000590	99
Es	2.774247	-0.709067	0.000152	99
Es	1.760022	-0.004990	-0.002895	99
Es	1.004073	-0.002950	-0.006400	99
Es	0.745722	0.699066	-0.003178	99
Es	0.740069	-0.356793	0.597532	99
Es	0.745779	-0.349039	-0.617198	99
Es	2.774301	0.341565	0.609995	99
Es	2.779860	0.344313	-0.604777	99
17
Properties=species:S:1:pos:R:3:Z:I:1 energy=-79.25137147263807 field_type=dipole dipole="0.000000 0.000000 0.000000" charge=0
C	1.004040	-0.002950	-0.006400	6
C	2.515960	-0.007020	0.000590	6
H	0.622350	1.022400	-0.001640	1
H	0.614110	-0.519740	0.875610	1
H	0.622370	-0.508420	-0.898570	1
H	2.897650	0.502100	0.890620	1
H	2.905890	0.506090	-0.883570	1
H	2.897630	-1.032430	0.000060	1
Es	0.745725	0.699073	-0.003124	99
Es	0.740132	-0.356774	0.597516	99
Es	2.774242	-0.709076	0.000190	99
Es	2.774280	0.341552	0.609966	99
Es	1.760009	-0.004980	-0.002918	99
Es	0.745716	-0.349059	-0.617211	99
Es	2.515928	-0.007020	0.000590	99
Es	1.004072	-0.002950	-0.006400	99
Es	2.779895	0.344319	-0.604788	99
17
Properties=species:S:1:pos:R:3:Z:I:1 energy=-79.25137147271576 field_type=dipole dipole="0.000000 0.000000 0.000000" charge=0
C	-0.755960	0.002046	-0.003488	6
C	0.755960	-0.002024	0.003502	6
H	-1.137650	1.027396	0.001272	1
H	-1.145890	-0.514744	0.878523	1
H	-1.137630	-0.503424	-0.895657	1
H	1.137650	0.507096	0.893533	1
H	1.145890	0.511086	-0.880657	1
H	1.137630	-1.027434	0.002972	1
Es	1.021208	0.348496	-0.600431	99
Es	1.015546	0.345705	0.611454	99
Es	0.755930	-0.002024	0.003501	99
Es	1.015527	-0.702444	0.003123	99
Es	-1.021227	-0.350964	0.598987	99
Es	-1.015457	-0.343247	-0.612895	99
Es	-0.000020	0.000047	0.000066	99
Es	-0.755927	0.002046	-0.003487	99
Es	-1.015579	0.702434	-0.000286	99
17
Properties=species:S:1:pos:R:3:Z:I:1 energy=-79.25137147271576 field_type=dipole dipole="0.000000 0.000000 0.000000" charge=0
C	-0.755960	0.002046	-0.003488	6
C	0.755960	-0.002024	0.003502	6
H	-1.137650	1.027396	0.001272	1
H	-1.145890	-0.514744	0.878523	1
H	-1.137630	-0.503424	-0.895657	1
H	1.137650	0.507096	0.893533	1
H	1.145890	0.511086	-0.880657	1
H	1.137630	-1.027434	0.002972	1
Es	1.015346	-0.702773	0.003102	99
Es	1.015290	0.345844	0.611716	99
Es	-1.015328	0.702733	-0.000275	99
Es	0.755931	-0.002023	0.003501	99
Es	-1.015300	-0.343423	-0.613162	99
Es	1.020951	0.348722	-0.600710	99
Es	-1.020963	-0.351090	0.599305	99
Es	0.000001	0.000014	0.000044	99
Es	-0.755928	0.002046	-0.003488	99
17
Properties=species:S:1:pos:R:3:Z:I:1 energy=-79.25137147271576 field_type=dipole dipole="0.000000 0.000000 0.000000" charge=0
C	-0.755960	0.002046	-0.003488	6
C	0.755960	-0.002024	0.003502	6
H	-1.137650	1.027396	0.001272	1
H	-1.145890	-0.514744	0.878523	1
H	-1.137630	-0.503424	-0.895657	1
H	1.137650	0.507096	0.893533	1
H	1.145890	0.511086	-0.880657	1
H	1.137630	-1.027434	0.002972	1
Es	1.015139	-0.702990	0.003119	99
Es	1.015143	0.345995	0.611940	99
Es	-0.000026	-0.000019	0.000017	99
Es	-1.015118	-0.343519	-0.613360	99
Es	0.755928	-0.002024	0.003502	99
Es	-0.755928	0.002046	-0.003488	99
Es	1.020787	0.348783	-0.600938	99
Es	-1.020779	-0.351243	0.599487	99
Es	-1.015146	0.703020	-0.000248	99
17
Properties=species:S:1:pos:R:3:Z:I:1 energy=-79.25137147271576 field_type=dipole dipole="0.000000 0.000000 0.000000" charge=0
C	-0.755960	0.002046	-0.003488	6
C	0.755960	-0.002024	0.003502	6
H	-1.137650	1.027396	0.001272	1
H	-1.145890	-0.514744	0.878523	1
H	-1.137630	-0.503424	-0.895657	1
H	1.137650	0.507096	0.893533	1
H	1.145890	0.511086	-0.880657	1
H	1.137630	-1.027434	0.002972	1
Es	1.015016	0.346032	0.612113	99
Es	-1.020661	-0.351315	0.599650	99
Es	0.755928	-0.002024	0.003502	99
Es	1.020630	0.348936	-0.601016	99
Es	-0.755927	0.002046	-0.003488	99
Es	-1.014957	0.703213	-0.000244	99
Es	-0.000095	-0.000058	0.000039	99
Es	1.015049	-0.703168	0.003024	99
Es	-1.014985	-0.343612	-0.613549	99
17
Properties=species:S:1:pos:R:3:Z:I:1 energy=-79.25137147271576 field_type=dipole dipole="0.000000 0.000000 0.000000" charge=0
C	-0.755960	0.002046	-0.003488	6
C	0.755960	-0.002024	0.003502	6
H	-1.137650	1.027396	0.001272	1
H	-1.145890	-0.514744	0.878523	1
H	-1.137630	-0.503424	-0.895657	1
H	1.137650	0.507096	0.893533	1
H	1.145890	0.511086	-0.880657	1
H	1.137630	-1.027434	0.002972	1
Es	-1.014892	-0.343636	-0.613701	99
Es	0.755927	-0.002023	0.003501	99
Es	0.000051	-0.000086	0.000076	99
Es	-0.755929	0.002046	-0.003488	99
Es	1.014895	0.346205	0.612246	99
Es	-1.020581	-0.351400	0.599755	99
Es	-1.014820	0.703330	-0.000209	99
Es	1.020464	0.348948	-0.601253	99
Es	1.014886	-0.703334	0.003104	99
17
Properties=species:S:1:pos:R:3:Z:I:1 energy=-79.25137147271576 field_type=dipole dipole="0.000000 0.000000 0.000000" charge=0
C	-0.755960	0.002046	-0.003488	6
C	0.755960	-0.002024	0.003502	6
H	-1.137650	1.027396	0.001272	1
H	-1.145890	-0.514744	0.878523	1
H	-1.137630	-0.503424	-0.895657	1
H	1.137650	0.507096	0.893533	1
H	1.145890	0.511086	-0.880657	1
H	1.137630	-1.027434	0.002972	1
Es	0.000027	0.000040	-0.000017	99
Es	1.014784	-0.703504	0.003070	99
Es	1.014810	0.346255	0.612342	99
Es	1.020379	0.349005	-0.601293	99
Es	0.755929	-0.002024	0.003502	99
Es	-0.755927	0.002046	-0.003487	99
Es	-1.014771	-0.343683	-0.613765	99
Es	-1.014778	0.703425	-0.000235	99
Es	-1.020453	-0.351510	0.599915	99
17
Properties=species:S:1:pos:R:3:Z:I:1 energy=-79.25137147271576 field_type=dipole dipole="0.000000 0.000000 0.000000" charge=0
C	-0.755960	0.002046	-0.003488	6
C	0.755960	-0.002024	0.003502	6
H	-1.137650	1.027396	0.001272	1
H	-1.145890	-0.514744	0.878523	1
H	-1.137630	-0.503424	-0.895657	1
H	1.137650	0.507096	0.893533	1
H	1.145890	0.511086	-0.880657	1
H	1.137630	-1.027434	0.002972	1
Es	-1.014717	-0.343783	-0.613845	99
Es	-0.755928	0.002046	-0.003488	99
Es	-1.020365	-0.351503	0.599990	99
Es	1.014693	-0.703598	0.003127	99
Es	1.020361	0.349030	-0.601382	99
Es	-1.014666	0.703559	-0.000247	99
Es	1.014688	0.346319	0.612421	99
Es	0.000006	0.000004	-0.000046	99
Es	0.755928	-0.002024	0.003502	99
17
Properties=species:S:1:pos:R:3:Z:I:1 energy=-79.25137147271576 field_type=dipole dipole="0.000000 0.000000 0.000000" charge=0
C	-0.755960	0.002046	-0.003488	6
C	0.755960	-0.002024	0.003502	6
H	-1.137650	1.027396	0.001272	1
H	-1.145890	-0.514744	0.878523	1
H	-1.137630	-0.503424	-0.895657	1
H	1.137650	0.507096	0.893533	1
H	1.145890	0.511086	-0.880657	1
H	1.137630	-1.027434	0.002972	1
Es	-1.014646	-0.343861	-0.613933	99
Es	1.014639	0.346279	0.612492	99
Es	-1.020271	-0.351526	0.600046	99
Es	0.755928	-0.002024	0.003502	99
Es	0.000017	0.000039	0.000040	99
Es	-0.755927	0.002046	-0.003488	99
Es	-1.014641	0.703617	-0.000236	99
Es	1.020279	0.349148	-0.601471	99
Es	1.014622	-0.703668	0.003080	99
17
Properties=species:S:1:pos:R:3:Z:I:1 energy=-79.25137147271576 field_type=dipole dipole="0.000000 0.000000 0.000000" charge=0
C	-0.755960	0.002046	-0.003488	6
C	0.755960	-0.002024	0.003502	6
H	-1.137650	1.027396	0.001272	1
H	-1.145890	-0.514744	0.878523	1
H	-1.137630	-0.503424	-0.895657	1
H	1.137650	0.507096	0.893533	1
H	1.145890	0.511086	-0.880657	1
H	1.137630	-1.027434	0.002972	1
Es	-0.755928	0.002046	-0.003488	99
Es	-1.014571	-0.343857	-0.613955	99
Es	1.020205	0.349103	-0.601522	99
Es	1.014572	-0.703732	0.003103	99
Es	-1.020225	-0.351605	0.600142	99
Es	0.000006	0.000016	-0.000050	99
Es	1.014588	0.346399	0.612564	99
Es	-1.014575	0.703703	-0.000264	99
Es	0.755927	-0.002024	0.003502	99
17
Properties=species:S:1:pos:R:3:Z:I:1 energy=-79.25137147271576 field_type=dipole dipole="0.000000 0.000000 0.000000" charge=0
C	-0.755960	0.002046	-0.003488	6
C	0.755960	-0.002024	0.003502	6
H	-1.137650	1.027396	0.001272	1
H	-1.145890	-0.514744	0.878523	1
H	-1.137630	-0.503424	-0.895657	1
H	1.137650	0.507096	0.893533	1
H	1.145890	0.511086	-0.880657	1
H	1.137630	-1.027434	0.002972	1
Es	-1.014501	-0.343892	-0.614009	99
Es	-1.014522	0.703760	-0.000282	99
Es	-1.020187	-0.351635	0.600204	99
Es	0.755928	-0.002024	0.003502	99
Es	-0.755927	0.002045	-0.003486	99
Es	1.014572	0.346413	0.612622	99
Es	-0.000020	0.000025	-0.000022	99
Es	1.014525	-0.703788	0.003061	99
Es	1.020133	0.349144	-0.601558	99
17
Properties=species:S:1:pos:R:3:Z:I:1 energy=-79.25137147271576 field_type=dipole dipole="0.000000 0.000000 0.000000" charge=0
C	-0.755960	0.002046	-0.003488	6
C	0.755960	-0.002024	0.003502	6
H	-1.137650	1.027396	0.001272	1
H	-1.145890	-0.514744	0.878523	1
H	-1.137630	-0.503424	-0.895657	1
H	1.137650	0.507096	0.893533	1
H	1.145890	0.511086	-0.880657	1
H	1.137630	-1.027434	0.002972	1
Es	0.000108	-0.000005	0.000027	99
Es	-0.755928	0.002046	-0.003488	99
Es	-1.014531	0.703838	-0.000281	99
Es	-1.020128	-0.351602	0.600177	99
Es	-1.014475	-0.343980	-0.614018	99
Es	1.014441	-0.703846	0.003101	99
Es	0.755928	-0.002024	0.003502	99
Es	1.014460	0.346395	0.612682	99
Es	1.020125	0.349229	-0.601669	99
17
Properties=species:S:1:pos:R:3:Z:I:1 energy=-79.25137147271576 field_type=dipole dipole="0.000000 0.000000 0.000000" charge=0
C	-0.755960	0.002046	-0.003488	6
C	0.755960	-0.002024	0.003502	6
H	-1.137650	1.027396	0.001272	1
H	-1.145890	-0.514744	0.878523	1
H	-1.137630	-0.503424	-0.895657	1
H	1.137650	0.507096	0.893533	1
H	1.145890	0.511086	-0.880657	1
H	1.137630	-1.027434	0.002972	1
Es	1.014452	0.346464	0.612672	99
Es	-1.020117	-0.351683	0.600284	99
Es	1.020062	0.349210	-0.601634	99
Es	-0.755928	0.002046	-0.003488	99
Es	-0.000012	0.000043	-0.000009	99
Es	0.755928	-0.002024	0.003502	99
Es	1.014469	-0.703909	0.003092	99
Es	-1.014427	0.703828	-0.000257	99
Es	-1.014428	-0.343926	-0.614131	99
17
Properties=species:S:1:pos:R:3:Z:I:1 energy=-79.25137147271576 field_type=dipole dipole="0.000000 0.000000 0.000000" charge=0
C	-0.755960	0.002046	-0.003488	6
C	0.755960	-0.002024	0.003502	6
H	-1.137650	1.027396	0.001272	1
H	-1.145890	-0.514744	0.878523	1
H	-1.137630	-0.503424	-0.895657	1
H	1.137650	0.507096	0.893533	1
H	1.145890	0.511086	-0.880657	1
H	1.137630	-1.027434	0.002972	1
Es	1.014439	-0.703942	0.003106	99
Es	-1.014424	0.703865	-0.000212	99
Es	1.014438	0.346540	0.612705	99
Es	-1.020064	-0.351760	0.600297	99
Es	-0.755927	0.002046	-0.003487	99
Es	1.019989	0.349185	-0.601692	99
Es	-1.014388	-0.343908	-0.614167	99
Es	0.000011	0.000045	-0.000021	99
Es	0.755926	-0.002024	0.003502	99
17
Properties=species:S:1:pos:R:3:Z:I:1 energy=-79.25137147271576 field_type=dipole dipole="0.000000 0.000000 0.000000" charge=0
C	-0.755960	0.002046	-0.003488	6
C	0.755960	-0.002024	0.003502	6
H	-1.137650	1.027396	0.001272	1
H	-1.145890	-0.514744	0.878523	1
H	-1.137630	-0.503424	-0.895657	1
H	1.137650	0.507096	0.893533	1
H	1.145890	0.511086	-0.880657	1
H	1.137630	-1.027434	0.002972	1
Es	1.014372	-0.703914	0.003080	99
Es	0.000011	-0.000042	-0.000005	99
Es	-1.014371	0.703942	-0.000211	99
Es	1.014343	0.346439	0.612811	99
Es	-0.755927	0.002046	-0.003487	99
Es	1.020054	0.349291	-0.601740	99
Es	-1.014380	-0.343988	-0.614206	99
Es	0.755927	-0.002024	0.003502	99
Es	-1.020029	-0.351701	0.600289	99
17
Properties=species:S:1:pos:R:3:Z:I:1 energy=-79.25137147271576 field_type=dipole dipole="0.000000 0.000000 0.000000" charge=0
C	-0.755960	0.002046	-0.003488	6
C	0.755960	-0.002024	0.003502	6
H	-1.137650	1.027396	0.001272	1
H	-1.145890	-0.514744	0.878523	1
H	-1.137630	-0.503424	-0.895657	1
H	1.137650	0.507096	0.893533	1
H	1.145890	0.511086	-0.880657	1
H	1.137630	-1.027434	0.002972	1
Es	1.014296	-0.703883	0.003142	99
Es	-0.000003	-0.000040	0.000048	99
Es	-1.019917	-0.351709	0.600260	99
Es	0.755928	-0.002025	0.003502	99
Es	1.014348	0.346426	0.612820	99
Es	-1.014365	-0.344065	-0.614212	99
Es	-0.755928	0.002046	-0.003487	99
Es	1.020059	0.349292	-0.601867	99
Es	-1.014418	0.704009	-0.000173	99
17
Properties=species:S:1:pos:R:3:Z:I:1 energy=-79.25137147271576 field_type=dipole dipole="0.000000 0.000000 0.000000" charge=0
C	-0.755960	0.002046	-0.003488	6
C	0.755960	-0.002024	0.003502	6
H	-1.137650	1.027396	0.001272	1
H	-1.145890	-0.514744	0.878523	1
H	-1.137630	-0.503424	-0.895657	1
H	1.137650	0.507096	0.893533	1
H	1.145890	0.511086	-0.880657	1
H	1.137630	-1.027434	0.002972	1
Es	-0.755928	0.002046	-0.003488	99
Es	1.014255	-0.704039	0.003108	99
Es	-1.014345	0.704013	-0.000258	99
Es	-0.000023	0.000089	-0.000023	99
Es	1.014389	0.346540	0.612807	99
Es	-1.019987	-0.351787	0.600374	99
Es	0.755928	-0.002024	0.003502	99
Es	-1.014276	-0.343994	-0.614213	99
Es	1.019987	0.349204	-0.601778	99
17
Properties=species:S:1:pos:R:3:Z:I:1 energy=-79.25137147271576 field_type=dipole dipole="0.000000 0.000000 0.000000" charge=0
C	-0.755960	0.002046	-0.003488	6
C	0.755960	-0.002024	0.003502	6
H	-1.137650	1.027396	0.001272	1
H	-1.145890	-0.514744	0.878523	1
H	-1.137630	-0.503424	-0.895657	1
H	1.137650	0.507096	0.893533	1
H	1.145890	0.511086	-0.880657	1
H	1.137630	-1.027434	0.002972	1
Es	0.755928	-0.002024	0.003502	99
Es	-0.000012	0.000010	0.000012	99
Es	1.019937	0.349290	-0.601806	99
Es	-1.014268	-0.344038	-0.614235	99
Es	-0.755927	0.002046	-0.003488	99
Es	1.014305	-0.704039	0.003093	99
Es	1.014320	0.346526	0.612831	99
Es	-1.014334	0.704043	-0.000251	99
Es	-1.019950	-0.351766	0.600375	99
17
Properties=species:S:1:pos:R:3:Z:I:1 energy=-79.25137147271576 field_type=dipole dipole="0.000000 0.000000 0.000000" charge=0
C	-0.755960	0.002046	-0.003488	6
C	0.755960	-0.002024	0.003502	6
H	-1.137650	1.027396	0.001272	1
H	-1.145890	-0.514744	0.878523	1
H	-1.137630	-0.503424	-0.895657	1
H	1.137650	0.507096	0.893533	1
H	1.145890	0.511086	-0.880657	1
H	1.137630	-1.027434	0.002972	1
Es	0.755927	-0.002025	0.003503	99
Es	-1.014292	0.704042	-0.000251	99
Es	0.000063	-0.000030	0.000010	99
Es	-1.014280	-0.344053	-0.614267	99
Es	1.019934	0.349365	-0.601827	99
Es	-1.019956	-0.351739	0.600387	99
Es	-0.755927	0.002046	-0.003487	99
Es	1.014249	0.346494	0.612900	99
Es	1.014281	-0.704050	0.003065	99
17
Properties=species:S:1:pos:R:3:Z:I:1 energy=-79.25137147271576 field_type=dipole dipole="0.000000 0.000000 0.000000" charge=0
C	-0.755960	0.002046	-0.003488	6
C	0.755960	-0.002024	0.003502	6
H	-1.137650	1.027396	0.001272	1
H	-1.145890	-0.514744	0.878523	1
H	-1.137630	-0.503424	-0.895657	1
H	1.137650	0.507096	0.893533	1
H	1.145890	0.511086	-0.880657	1
H	1.137630	-1.027434	0.002972	1
Es	-1.019943	-0.351765	0.600428	99
Es	-1.014277	-0.344031	-0.614294	99
Es	-1.014242	0.704052	-0.000241	99
Es	1.014281	0.346555	0.612863	99
Es	1.014200	-0.704078	0.003157	99
Es	1.019961	0.349264	-0.601885	99
Es	0.000020	0.000030	-0.000011	99
Es	0.755927	-0.002024	0.003502	99
Es	-0.755928	0.002046	-0.003488	99
17
Properties=species:S:1:pos:R:3:Z:I:1 energy=-79.25137147271576 field_type=dipole dipole="0.000000 0.000000 0.000000" charge=0
C	-0.755960	0.002046	-0.003488	6
C	0.755960	-0.002024	0.003502	6
H	-1.137650	1.027396	0.001272	1
H	-1.145890	-0.514744	0.878523	1
H	-1.137630	-0.503424	-0.895657	1
H	1.137650	0.507096	0.893533	1
H	1.145890	0.511086	-0.880657	1
H	1.137630	-1.027434	0.002972	1
Es	-1.019916	-0.351746	0.600488	99
Es	-1.014276	-0.344056	-0.614382	99
Es	-1.014186	0.704020	-0.000226	99
Es	1.019866	0.349355	-0.601832	99
Es	0.000015	0.000061	0.000020	99
Es	1.014201	0.346584	0.612823	99
Es	1.014295	-0.704189	0.003128	99
Es	0.755928	-0.002025	0.003502	99
Es	-0.755927	0.002046	-0.003488	99
