14
Properties=species:S:1:pos:R:3:Z:I:1 energy=-78.05543859522867 field_type=dipole dipole="0.000000 0.000000 0.000000" charge=0
C	-0.667878	0.000130	0.000000	6
C	0.667882	-0.000140	-0.000000	6
H	-1.227628	0.930170	0.000000	1
H	-1.227968	-0.929820	0.000000	1
H	1.227962	0.929830	-0.000000	1
H	1.227632	-0.930170	0.000000	1
Es	-1.053517	0.625705	-0.000029	99
Es	0.667983	-0.000141	-0.000000	99
Es	1.053792	0.625374	0.000037	99
Es	1.053529	-0.625768	-0.000031	99
Es	0.000001	0.000053	-0.319743	99
Es	-1.053802	-0.625387	-0.000030	99
Es	0.000006	0.000009	0.319794	99
Es	-0.667979	0.000130	0.000001	99
14
Properties=species:S:1:pos:R:3:Z:I:1 energy=-78.05543859522867 field_type=dipole dipole="0.000000 0.000000 0.000000" charge=0
C	-0.667878	0.000130	0.000000	6
C	0.667882	-0.000140	-0.000000	6
H	-1.227628	0.930170	0.000000	1
H	-1.227968	-0.929820	0.000000	1
H	1.227962	0.929830	-0.000000	1
H	1.227632	-0.930170	0.000000	1
Es	-1.053863	-0.624609	-0.000009	99
Es	-1.053599	0.624957	-0.000015	99
Es	1.053619	-0.625000	-0.000046	99
Es	-0.667978	0.000130	0.000000	99
Es	0.000002	0.000023	-0.322099	99
Es	0.000003	-0.000021	0.322143	99
Es	1.053843	0.624635	0.000028	99
Es	0.667982	-0.000141	-0.000002	99
14
Properties=species:S:1:pos:R:3:Z:I:1 energy=-78.05543859522867 field_type=dipole dipole="0.000000 0.000000 0.000000" charge=0
C	-0.667878	0.000130	0.000000	6
C	0.667882	-0.000140	-0.000000	6
H	-1.227628	0.930170	0.000000	1
H	-1.227968	-0.929820	0.000000	1
H	1.227962	0.929830	-0.000000	1
H	1.227632	-0.930170	0.000000	1
Es	0.000001	-0.000010	0.323697	99
Es	-1.053651	0.624463	-0.000048	99
Es	-1.053867	-0.624148	-0.000041	99
Es	1.053661	-0.624426	0.000007	99
Es	-0.000002	-0.000018	-0.323622	99
Es	0.667985	-0.000140	0.000001	99
Es	1.053862	0.624123	0.000002	99
Es	-0.667978	0.000130	0.000004	99
14
Properties=species:S:1:pos:R:3:Z:I:1 energy=-78.05543859522867 field_type=dipole dipole="0.000000 0.000000 0.000000" charge=0
C	-0.667878	0.000130	0.000000	6
C	0.667882	-0.000140	-0.000000	6
H	-1.227628	0.930170	0.000000	1
H	-1.227968	-0.929820	0.000000	1
H	1.227962	0.929830	-0.000000	1
H	1.227632	-0.930170	0.000000	1
Es	1.053636	-0.624071	0.000018	99
Es	0.000002	-0.000008	-0.324822	99
Es	-1.053881	-0.623724	-0.000017	99
Es	-1.053663	0.624078	-0.000023	99
Es	1.053911	0.623707	0.000003	99
Es	0.667984	-0.000142	0.000000	99
Es	-0.667981	0.000128	0.000000	99
Es	0.000003	0.000007	0.324841	99
14
Properties=species:S:1:pos:R:3:Z:I:1 energy=-78.05543859522867 field_type=dipole dipole="0.000000 0.000000 0.000000" charge=0
C	-0.667878	0.000130	0.000000	6
C	0.667882	-0.000140	-0.000000	6
H	-1.227628	0.930170	0.000000	1
H	-1.227968	-0.929820	0.000000	1
H	1.227962	0.929830	-0.000000	1
H	1.227632	-0.930170	0.000000	1
Es	0.000002	-0.000032	0.325560	99
Es	-1.053606	0.623792	0.000021	99
Es	1.053836	0.623498	0.000023	99
Es	1.053718	-0.623769	-0.000025	99
Es	0.000002	-0.000035	-0.325654	99
Es	-0.667981	0.000128	0.000003	99
Es	0.667985	-0.000140	-0.000001	99
Es	-1.053945	-0.623465	0.000073	99
14
Properties=species:S:1:pos:R:3:Z:I:1 energy=-78.05543859522867 field_type=dipole dipole="0.000000 0.000000 0.000000" charge=0
C	-0.667878	0.000130	0.000000	6
C	0.667882	-0.000140	-0.000000	6
H	-1.227628	0.930170	0.000000	1
H	-1.227968	-0.929820	0.000000	1
H	1.227962	0.929830	-0.000000	1
H	1.227632	-0.930170	0.000000	1
Es	1.053666	-0.623609	0.000081	99
Es	1.053890	0.623234	-0.000003	99
Es	0.667985	-0.000141	0.000001	99
Es	0.000002	-0.000000	-0.326269	99
Es	-1.053634	0.623587	0.000039	99
Es	-1.053918	-0.623282	0.000038	99
Es	0.000002	0.000057	0.326116	99
Es	-0.667981	0.000129	-0.000003	99
14
Properties=species:S:1:pos:R:3:Z:I:1 energy=-78.05543859522867 field_type=dipole dipole="0.000000 0.000000 0.000000" charge=0
C	-0.667878	0.000130	0.000000	6
C	0.667882	-0.000140	-0.000000	6
H	-1.227628	0.930170	0.000000	1
H	-1.227968	-0.929820	0.000000	1
H	1.227962	0.929830	-0.000000	1
H	1.227632	-0.930170	0.000000	1
Es	1.053521	-0.623450	0.000039	99
Es	-0.667981	0.000130	-0.000004	99
Es	0.667987	-0.000140	-0.000002	99
Es	-1.053769	0.623442	-0.000012	99
Es	-1.053781	-0.623084	0.000028	99
Es	1.054031	0.623088	0.000023	99
Es	0.000002	0.000014	0.326626	99
Es	0.000002	-0.000025	-0.326698	99
14
Properties=species:S:1:pos:R:3:Z:I:1 energy=-78.05543859522867 field_type=dipole dipole="0.000000 0.000000 0.000000" charge=0
C	-0.667878	0.000130	0.000000	6
C	0.667882	-0.000140	-0.000000	6
H	-1.227628	0.930170	0.000000	1
H	-1.227968	-0.929820	0.000000	1
H	1.227962	0.929830	-0.000000	1
H	1.227632	-0.930170	0.000000	1
Es	1.053895	0.622915	-0.000004	99
Es	-0.667981	0.000131	0.000000	99
Es	0.000003	0.000018	-0.327079	99
Es	1.053654	-0.623272	-0.000020	99
Es	-1.053934	-0.622945	-0.000047	99
Es	0.000002	-0.000024	0.327157	99
Es	0.667985	-0.000140	-0.000004	99
Es	-1.053612	0.623294	-0.000003	99
14
Properties=species:S:1:pos:R:3:Z:I:1 energy=-78.05543859522867 field_type=dipole dipole="0.000000 0.000000 0.000000" charge=0
C	-0.667878	0.000130	0.000000	6
C	0.667882	-0.000140	-0.000000	6
H	-1.227628	0.930170	0.000000	1
H	-1.227968	-0.929820	0.000000	1
H	1.227962	0.929830	-0.000000	1
H	1.227632	-0.930170	0.000000	1
Es	1.056614	-0.622949	0.000011	99
Es	-0.667982	0.000130	0.000001	99
Es	-1.050740	0.622965	0.000005	99
Es	-1.056802	-0.622627	0.000018	99
Es	0.000002	-0.000022	-0.327322	99
Es	0.667986	-0.000138	0.000001	99
Es	1.050933	0.622641	0.000024	99
Es	0.000002	-0.000023	0.327262	99
14
Properties=species:S:1:pos:R:3:Z:I:1 energy=-78.05543859522867 field_type=dipole dipole="0.000000 0.000000 0.000000" charge=0
C	-0.667878	0.000130	0.000000	6
C	0.667882	-0.000140	-0.000000	6
H	-1.227628	0.930170	0.000000	1
H	-1.227968	-0.929820	0.000000	1
H	1.227962	0.929830	-0.000000	1
H	1.227632	-0.930170	0.000000	1
Es	0.000002	-0.000097	-0.325852	99
Es	0.667985	-0.000139	0.000000	99
Es	-0.667981	0.000129	0.000001	99
Es	-1.043453	0.620676	-0.000001	99
Es	1.043691	0.620325	-0.000003	99
Es	1.063865	-0.620605	0.000019	99
Es	0.000002	-0.000076	0.325820	99
Es	-1.064100	-0.620237	0.000017	99
14
Properties=species:S:1:pos:R:3:Z:I:1 energy=-78.05543859522867 field_type=dipole dipole="0.000000 0.000000 0.000000" charge=0
C	-0.667878	0.000130	0.000000	6
C	0.667882	-0.000140	-0.000000	6
H	-1.227628	0.930170	0.000000	1
H	-1.227968	-0.929820	0.000000	1
H	1.227962	0.929830	-0.000000	1
H	1.227632	-0.930170	0.000000	1
Es	1.067451	0.618271	0.000007	99
Es	0.000002	0.000099	-0.323577	99
Es	0.000002	0.000092	0.323534	99
Es	-1.040396	-0.618438	0.000011	99
Es	0.667985	-0.000140	-0.000002	99
Es	-1.067149	0.618665	0.000009	99
Es	1.040097	-0.618705	0.000017	99
Es	-0.667981	0.000131	0.000001	99
14
Properties=species:S:1:pos:R:3:Z:I:1 energy=-78.05543859522867 field_type=dipole dipole="0.000000 0.000000 0.000000" charge=0
C	-0.667878	0.000130	0.000000	6
C	0.667882	-0.000140	-0.000000	6
H	-1.227628	0.930170	0.000000	1
H	-1.227968	-0.929820	0.000000	1
H	1.227962	0.929830	-0.000000	1
H	1.227632	-0.930170	0.000000	1
Es	1.070486	-0.615577	0.000025	99
Es	0.000002	-0.000089	0.309890	99
Es	0.000001	-0.000242	-0.309899	99
Es	1.037066	0.615393	-0.000024	99
Es	-0.667982	0.000131	0.000000	99
Es	-1.070746	-0.615220	0.000022	99
Es	-1.036801	0.615718	-0.000016	99
Es	0.667986	-0.000139	0.000001	99
14
Properties=species:S:1:pos:R:3:Z:I:1 energy=-78.05543859522867 field_type=dipole dipole="0.000000 0.000000 0.000000" charge=0
C	-0.667878	0.000130	0.000000	6
C	0.667882	-0.000140	-0.000000	6
H	-1.227628	0.930170	0.000000	1
H	-1.227968	-0.929820	0.000000	1
H	1.227962	0.929830	-0.000000	1
H	1.227632	-0.930170	0.000000	1
Es	1.034913	0.613137	0.000021	99
Es	1.072639	-0.613306	0.000010	99
Es	0.667985	-0.000140	0.000001	99
Es	-1.072781	-0.613066	-0.000003	99
Es	-1.034767	0.613543	-0.000002	99
Es	-0.667981	0.000130	0.000001	99
Es	0.000002	-0.000096	-0.300715	99
Es	0.000002	-0.000226	0.300688	99
14
Properties=species:S:1:pos:R:3:Z:I:1 energy=-78.05543859522867 field_type=dipole dipole="0.000000 0.000000 0.000000" charge=0
C	-0.667878	0.000130	0.000000	6
C	0.667882	-0.000140	-0.000000	6
H	-1.227628	0.930170	0.000000	1
H	-1.227968	-0.929820	0.000000	1
H	1.227962	0.929830	-0.000000	1
H	1.227632	-0.930170	0.000000	1
Es	-1.074184	0.611543	-0.000004	99
Es	1.074426	0.611139	-0.000013	99
Es	-1.033362	-0.611371	-0.000018	99
Es	1.033125	-0.611650	-0.000019	99
Es	0.000002	0.000099	-0.293448	99
Es	-0.667981	0.000131	-0.000002	99
Es	0.667985	-0.000139	0.000000	99
Es	0.000001	0.000223	0.293504	99
14
Properties=species:S:1:pos:R:3:Z:I:1 energy=-78.05543859522867 field_type=dipole dipole="0.000000 0.000000 0.000000" charge=0
C	-0.667878	0.000130	0.000000	6
C	0.667882	-0.000140	-0.000000	6
H	-1.227628	0.930170	0.000000	1
H	-1.227968	-0.929820	0.000000	1
H	1.227962	0.929830	-0.000000	1
H	1.227632	-0.930170	0.000000	1
Es	-1.075683	-0.609586	-0.000018	99
Es	-0.667981	0.000130	-0.000001	99
Es	0.000002	-0.000083	-0.285917	99
Es	-1.031865	0.610026	0.000003	99
Es	1.031899	0.609516	-0.000009	99
Es	0.667985	-0.000140	0.000000	99
Es	1.075652	-0.609652	-0.000002	99
Es	0.000002	-0.000235	0.285945	99
14
Properties=species:S:1:pos:R:3:Z:I:1 energy=-78.05543859522867 field_type=dipole dipole="0.000000 0.000000 0.000000" charge=0
C	-0.667878	0.000130	0.000000	6
C	0.667882	-0.000140	-0.000000	6
H	-1.227628	0.930170	0.000000	1
H	-1.227968	-0.929820	0.000000	1
H	1.227962	0.929830	-0.000000	1
H	1.227632	-0.930170	0.000000	1
Es	0.000002	0.000279	-0.279102	99
Es	0.667985	-0.000140	0.000001	99
Es	-1.076614	0.608341	-0.000013	99
Es	1.076840	0.607996	0.000022	99
Es	-1.030933	-0.608187	-0.000025	99
Es	0.000002	0.000054	0.279155	99
Es	-0.667982	0.000127	0.000000	99
Es	1.030712	-0.608494	-0.000037	99
14
Properties=species:S:1:pos:R:3:Z:I:1 energy=-78.05543859522867 field_type=dipole dipole="0.000000 0.000000 0.000000" charge=0
C	-0.667878	0.000130	0.000000	6
C	0.667882	-0.000140	-0.000000	6
H	-1.227628	0.930170	0.000000	1
H	-1.227968	-0.929820	0.000000	1
H	1.227962	0.929830	-0.000000	1
H	1.227632	-0.930170	0.000000	1
Es	0.667985	-0.000140	0.000000	99
Es	-0.667982	0.000132	0.000002	99
Es	-1.030033	-0.606960	0.000027	99
Es	0.000002	0.000304	0.273889	99
Es	-1.077514	0.607095	-0.000016	99
Es	1.029864	-0.607320	0.000045	99
Es	1.077688	0.606821	-0.000023	99
Es	0.000002	0.000042	-0.273925	99
14
Properties=species:S:1:pos:R:3:Z:I:1 energy=-78.05543859522867 field_type=dipole dipole="0.000000 0.000000 0.000000" charge=0
C	-0.667878	0.000130	0.000000	6
C	0.667882	-0.000140	-0.000000	6
H	-1.227628	0.930170	0.000000	1
H	-1.227968	-0.929820	0.000000	1
H	1.227962	0.929830	-0.000000	1
H	1.227632	-0.930170	0.000000	1
Es	-1.078296	0.605964	0.000009	99
Es	-0.667981	0.000130	0.000001	99
Es	1.029002	-0.606102	0.000019	99
Es	1.078549	0.605568	-0.000013	99
Es	0.000002	0.000079	-0.268320	99
Es	0.000002	0.000296	0.268325	99
Es	-1.029252	-0.605818	-0.000021	99
Es	0.667985	-0.000141	-0.000001	99
14
Properties=species:S:1:pos:R:3:Z:I:1 energy=-78.05543859522867 field_type=dipole dipole="0.000000 0.000000 0.000000" charge=0
C	-0.667878	0.000130	0.000000	6
C	0.667882	-0.000140	-0.000000	6
H	-1.227628	0.930170	0.000000	1
H	-1.227968	-0.929820	0.000000	1
H	1.227962	0.929830	-0.000000	1
H	1.227632	-0.930170	0.000000	1
Es	-1.079134	-0.604695	-0.000029	99
Es	0.667985	-0.000140	-0.000000	99
Es	1.078975	-0.604930	-0.000013	99
Es	-1.028414	0.605208	0.000016	99
Es	-0.667981	0.000130	0.000000	99
Es	0.000002	-0.000333	-0.263871	99
Es	0.000002	-0.000101	0.263916	99
Es	1.028576	0.604837	-0.000019	99
14
Properties=species:S:1:pos:R:3:Z:I:1 energy=-78.05543859522867 field_type=dipole dipole="0.000000 0.000000 0.000000" charge=0
C	-0.667878	0.000130	0.000000	6
C	0.667882	-0.000140	-0.000000	6
H	-1.227628	0.930170	0.000000	1
H	-1.227968	-0.929820	0.000000	1
H	1.227962	0.929830	-0.000000	1
H	1.227632	-0.930170	0.000000	1
Es	-0.667981	0.000130	0.000001	99
Es	-1.079503	0.604114	0.000012	99
Es	0.000002	0.000067	0.259653	99
Es	0.000002	0.000331	-0.259680	99
Es	1.027776	-0.604236	-0.000006	99
Es	1.079775	0.603685	0.000018	99
Es	-1.028045	-0.603974	-0.000001	99
Es	0.667985	-0.000141	0.000003	99
14
Properties=species:S:1:pos:R:3:Z:I:1 energy=-78.05543859522854 field_type=dipole dipole="0.000000 0.000000 0.000000" charge=0
C	-0.667878	0.000130	0.000000	6
C	0.667882	-0.000140	-0.000000	6
H	-1.227628	0.930170	0.000000	1
H	-1.227968	-0.929820	0.000000	1
H	1.227962	0.929830	-0.000000	1
H	1.227632	-0.930170	0.000000	1
Es	-0.000018	-0.000511	-0.319212	99
Es	1.053799	-0.625611	-0.000345	99
Es	1.053488	0.625652	0.000130	99
Es	-1.053978	-0.625295	0.000271	99
Es	-1.053312	0.625844	-0.000866	99
Es	0.667974	-0.000146	-0.000014	99
Es	0.000022	-0.000088	0.320040	99
Es	-0.667963	0.000131	-0.000004	99
14
Properties=species:S:1:pos:R:3:Z:I:1 energy=-78.05543859522854 field_type=dipole dipole="0.000000 0.000000 0.000000" charge=0
C	-0.667878	0.000130	0.000000	6
C	0.667882	-0.000140	-0.000000	6
H	-1.227628	0.930170	0.000000	1
H	-1.227968	-0.929820	0.000000	1
H	1.227962	0.929830	-0.000000	1
H	1.227632	-0.930170	0.000000	1
Es	1.052530	-0.622991	-0.000131	99
Es	-0.000011	-0.000020	-0.327498	99
Es	-1.055259	0.623130	0.000160	99
Es	0.667984	-0.000139	-0.000008	99
Es	0.000002	-0.000442	0.327196	99
Es	-1.052271	-0.622658	-0.000033	99
Es	-0.667976	0.000126	0.000041	99
Es	1.055012	0.622971	0.000273	99
14
Properties=species:S:1:pos:R:3:Z:I:1 energy=-78.05543859522854 field_type=dipole dipole="0.000000 0.000000 0.000000" charge=0
C	-0.667878	0.000130	0.000000	6
C	0.667882	-0.000140	-0.000000	6
H	-1.227628	0.930170	0.000000	1
H	-1.227968	-0.929820	0.000000	1
H	1.227962	0.929830	-0.000000	1
H	1.227632	-0.930170	0.000000	1
Es	0.667987	-0.000140	0.000019	99
Es	1.077830	0.606716	-0.000072	99
Es	-0.668000	0.000128	0.000012	99
Es	-1.077473	0.606993	-0.000023	99
Es	1.029715	-0.607091	-0.000129	99
Es	-0.000001	-0.000018	0.272798	99
Es	0.000002	0.000150	-0.272548	99
Es	-1.030047	-0.606761	-0.000058	99
14
Properties=species:S:1:pos:R:3:Z:I:1 energy=-78.05543859522854 field_type=dipole dipole="0.000000 0.000000 0.000000" charge=0
C	-0.667878	0.000130	0.000000	6
C	0.667882	-0.000140	-0.000000	6
H	-1.227628	0.930170	0.000000	1
H	-1.227968	-0.929820	0.000000	1
H	1.227962	0.929830	-0.000000	1
H	1.227632	-0.930170	0.000000	1
Es	-1.025993	-0.600785	-0.000209	99
Es	-0.668034	0.000169	-0.000000	99
Es	1.025788	-0.601120	-0.000272	99
Es	0.000002	0.000452	0.245403	99
Es	0.668015	-0.000120	-0.000002	99
Es	0.000003	0.000186	-0.244505	99
Es	1.081730	0.600498	-0.000217	99
Es	-1.081498	0.600696	-0.000198	99
14
Properties=species:S:1:pos:R:3:Z:I:1 energy=-78.05543859522854 field_type=dipole dipole="0.000000 0.000000 0.000000" charge=0
C	-0.667878	0.000130	0.000000	6
C	0.667882	-0.000140	-0.000000	6
H	-1.227628	0.930170	0.000000	1
H	-1.227968	-0.929820	0.000000	1
H	1.227962	0.929830	-0.000000	1
H	1.227632	-0.930170	0.000000	1
Es	-1.082484	0.599325	0.000221	99
Es	-1.025032	-0.598420	0.000024	99
Es	0.667998	-0.000162	-0.000001	99
Es	0.000003	0.000075	-0.225061	99
Es	1.023059	-0.596400	0.000037	99
Es	1.084475	0.595242	0.000134	99
Es	0.000004	0.000183	0.224642	99
Es	-0.668012	0.000134	0.000003	99
14
Properties=species:S:1:pos:R:3:Z:I:1 energy=-78.05543859522854 field_type=dipole dipole="0.000000 0.000000 0.000000" charge=0
C	-0.667878	0.000130	0.000000	6
C	0.667882	-0.000140	-0.000000	6
H	-1.227628	0.930170	0.000000	1
H	-1.227968	-0.929820	0.000000	1
H	1.227962	0.929830	-0.000000	1
H	1.227632	-0.930170	0.000000	1
Es	0.667985	-0.000139	0.000000	99
Es	-0.667982	0.000125	-0.000000	99
Es	-1.084761	0.594876	0.000133	99
Es	1.084312	0.595976	-0.000177	99
Es	0.000002	0.000010	-0.216164	99
Es	1.023240	-0.596314	0.000192	99
Es	-1.022784	-0.595110	-0.000029	99
Es	-0.000000	0.000552	0.216045	99
14
Properties=species:S:1:pos:R:3:Z:I:1 energy=-78.05543859522854 field_type=dipole dipole="0.000000 0.000000 0.000000" charge=0
C	-0.667878	0.000130	0.000000	6
C	0.667882	-0.000140	-0.000000	6
H	-1.227628	0.930170	0.000000	1
H	-1.227968	-0.929820	0.000000	1
H	1.227962	0.929830	-0.000000	1
H	1.227632	-0.930170	0.000000	1
Es	0.000002	0.000039	0.208297	99
Es	-1.085090	0.594271	0.000003	99
Es	0.667985	-0.000140	0.000000	99
Es	-1.022449	-0.594223	-0.000048	99
Es	1.085222	0.594116	-0.000052	99
Es	-0.667992	0.000106	0.000000	99
Es	1.022332	-0.594702	-0.000047	99
Es	0.000002	0.000510	-0.208154	99
14
Properties=species:S:1:pos:R:3:Z:I:1 energy=-78.05543859522854 field_type=dipole dipole="0.000000 0.000000 0.000000" charge=0
C	-0.667878	0.000130	0.000000	6
C	0.667882	-0.000140	-0.000000	6
H	-1.227628	0.930170	0.000000	1
H	-1.227968	-0.929820	0.000000	1
H	1.227962	0.929830	-0.000000	1
H	1.227632	-0.930170	0.000000	1
Es	0.667986	-0.000137	-0.000001	99
Es	-1.022062	-0.593396	0.000019	99
Es	-1.085488	0.593619	0.000122	99
Es	0.000002	0.000042	0.202799	99
Es	1.085869	0.592906	0.000045	99
Es	1.021683	-0.593478	0.000102	99
Es	-0.667981	0.000130	-0.000001	99
Es	0.000002	0.000290	-0.203086	99
14
Properties=species:S:1:pos:R:3:Z:I:1 energy=-78.05543859522854 field_type=dipole dipole="0.000000 0.000000 0.000000" charge=0
C	-0.667878	0.000130	0.000000	6
C	0.667882	-0.000140	-0.000000	6
H	-1.227628	0.930170	0.000000	1
H	-1.227968	-0.929820	0.000000	1
H	1.227962	0.929830	-0.000000	1
H	1.227632	-0.930170	0.000000	1
Es	0.668051	-0.000111	-0.000018	99
Es	-1.086409	-0.591830	0.000063	99
Es	0.000000	-0.000446	-0.198800	99
Es	1.021783	0.592923	-0.000013	99
Es	-0.668002	0.000136	0.000000	99
Es	0.000002	-0.000062	0.198719	99
Es	1.085700	-0.593314	-0.000015	99
Es	-1.021113	0.592679	0.000063	99
14
Properties=species:S:1:pos:R:3:Z:I:1 energy=-78.05543859522854 field_type=dipole dipole="0.000000 0.000000 0.000000" charge=0
C	-0.667878	0.000130	0.000000	6
C	0.667882	-0.000140	-0.000000	6
H	-1.227628	0.930170	0.000000	1
H	-1.227968	-0.929820	0.000000	1
H	1.227962	0.929830	-0.000000	1
H	1.227632	-0.930170	0.000000	1
Es	-0.667997	0.000137	0.000001	99
Es	-1.086199	-0.592307	-0.000029	99
Es	-1.021333	0.592872	-0.000041	99
Es	1.086467	-0.591599	0.000077	99
Es	0.000002	-0.000027	0.195176	99
Es	1.021071	0.591873	-0.000150	99
Es	0.000007	-0.000810	-0.195035	99
Es	0.667994	-0.000164	-0.000000	99
14
Properties=species:S:1:pos:R:3:Z:I:1 energy=-78.05543859522854 field_type=dipole dipole="0.000000 0.000000 0.000000" charge=0
C	-0.667878	0.000130	0.000000	6
C	0.667882	-0.000140	-0.000000	6
H	-1.227628	0.930170	0.000000	1
H	-1.227968	-0.929820	0.000000	1
H	1.227962	0.929830	-0.000000	1
H	1.227632	-0.930170	0.000000	1
Es	0.000002	-0.000023	0.192854	99
Es	1.086894	0.590692	0.000015	99
Es	-1.021441	-0.592146	-0.000107	99
Es	-1.086108	0.592478	0.000051	99
Es	0.000005	0.000490	-0.192725	99
Es	0.668061	-0.000103	0.000003	99
Es	1.020581	-0.591541	-0.000092	99
Es	-0.667981	0.000129	0.000000	99
14
Properties=species:S:1:pos:R:3:Z:I:1 energy=-78.05543859522854 field_type=dipole dipole="0.000000 0.000000 0.000000" charge=0
C	-0.667878	0.000130	0.000000	6
C	0.667882	-0.000140	-0.000000	6
H	-1.227628	0.930170	0.000000	1
H	-1.227968	-0.929820	0.000000	1
H	1.227962	0.929830	-0.000000	1
H	1.227632	-0.930170	0.000000	1
Es	0.000002	-0.000597	0.189304	99
Es	-1.020674	0.591521	0.000205	99
Es	-0.667981	0.000129	-0.000000	99
Es	1.086575	-0.591479	-0.000035	99
Es	-1.086874	-0.590886	0.000102	99
Es	0.667985	-0.000140	0.000001	99
Es	0.000002	0.000073	-0.189864	99
Es	1.020977	0.591355	0.000288	99
14
Properties=species:S:1:pos:R:3:Z:I:1 energy=-78.05543859522854 field_type=dipole dipole="0.000000 0.000000 0.000000" charge=0
C	-0.667878	0.000130	0.000000	6
C	0.667882	-0.000140	-0.000000	6
H	-1.227628	0.930170	0.000000	1
H	-1.227968	-0.929820	0.000000	1
H	1.227962	0.929830	-0.000000	1
H	1.227632	-0.930170	0.000000	1
Es	-0.000001	-0.000486	-0.187818	99
Es	-0.667988	0.000142	0.000000	99
Es	0.668064	-0.000104	0.000000	99
Es	0.000002	-0.000007	0.188171	99
Es	-1.020336	0.590986	-0.000123	99
Es	1.086502	-0.591633	-0.000095	99
Es	1.020972	0.591236	-0.000100	99
Es	-1.087204	-0.590157	-0.000035	99
14
Properties=species:S:1:pos:R:3:Z:I:1 energy=-78.05543859522854 field_type=dipole dipole="0.000000 0.000000 0.000000" charge=0
C	-0.667878	0.000130	0.000000	6
C	0.667882	-0.000140	-0.000000	6
H	-1.227628	0.930170	0.000000	1
H	-1.227968	-0.929820	0.000000	1
H	1.227962	0.929830	-0.000000	1
H	1.227632	-0.930170	0.000000	1
Es	1.005693	0.564416	-0.000588	99
Es	0.000006	-0.000005	-0.002668	99
Es	-0.674127	0.009956	-0.000001	99
Es	-1.072706	-0.604138	-0.000545	99
Es	0.670227	0.001773	-0.000014	99
Es	-0.001815	0.001002	0.003994	99
Es	-1.019731	0.587186	-0.000115	99
Es	1.092464	-0.560214	-0.000064	99
14
Properties=species:S:1:pos:R:3:Z:I:1 energy=-78.05543859522854 field_type=dipole dipole="0.000000 0.000000 0.000000" charge=0
C	-0.667878	0.000130	0.000000	6
C	0.667882	-0.000140	-0.000000	6
H	-1.227628	0.930170	0.000000	1
H	-1.227968	-0.929820	0.000000	1
H	1.227962	0.929830	-0.000000	1
H	1.227632	-0.930170	0.000000	1
Es	0.000002	-0.000012	0.185590	99
Es	1.020578	-0.591172	-0.000091	99
Es	-1.087116	0.589985	-0.000007	99
Es	-0.668109	0.000232	0.000000	99
Es	-1.020303	-0.590189	-0.000097	99
Es	0.668012	-0.000185	-0.000000	99
Es	-0.000000	0.000480	-0.185394	99
Es	1.086949	0.590836	-0.000001	99
14
Properties=species:S:1:pos:R:3:Z:I:1 energy=-78.05543859522854 field_type=dipole dipole="0.000000 0.000000 0.000000" charge=0
C	-0.667878	0.000130	0.000000	6
C	0.667882	-0.000140	-0.000000	6
H	-1.227628	0.930170	0.000000	1
H	-1.227968	-0.929820	0.000000	1
H	1.227962	0.929830	-0.000000	1
H	1.227632	-0.930170	0.000000	1
Es	1.020058	-0.590401	-0.000028	99
Es	0.000002	0.000045	0.184036	99
Es	-1.020657	-0.590686	0.000024	99
Es	-0.667982	0.000126	0.000000	99
Es	0.000004	0.000468	-0.183997	99
Es	-1.086890	0.590890	-0.000044	99
Es	1.087458	0.589641	0.000008	99
Es	0.668019	-0.000107	0.000001	99
14
Properties=species:S:1:pos:R:3:Z:I:1 energy=-78.05543859522854 field_type=dipole dipole="0.000000 0.000000 0.000000" charge=0
C	-0.667878	0.000130	0.000000	6
C	0.667882	-0.000140	-0.000000	6
H	-1.227628	0.930170	0.000000	1
H	-1.227968	-0.929820	0.000000	1
H	1.227962	0.929830	-0.000000	1
H	1.227632	-0.930170	0.000000	1
Es	-1.086413	0.592030	0.000041	99
Es	-1.021118	-0.591268	0.000085	99
Es	0.000003	0.000070	0.183167	99
Es	1.088104	0.588217	0.000090	99
Es	0.000008	0.000424	-0.183486	99
Es	0.667998	-0.000163	-0.000000	99
Es	1.019425	-0.589441	0.000102	99
Es	-0.667996	0.000107	-0.000000	99
14
Properties=species:S:1:pos:R:3:Z:I:1 energy=-78.05543859522854 field_type=dipole dipole="0.000000 0.000000 0.000000" charge=0
C	-0.667878	0.000130	0.000000	6
C	0.667882	-0.000140	-0.000000	6
H	-1.227628	0.930170	0.000000	1
H	-1.227968	-0.929820	0.000000	1
H	1.227962	0.929830	-0.000000	1
H	1.227632	-0.930170	0.000000	1
Es	1.086535	0.591867	0.000050	99
Es	-0.000005	0.000435	0.182009	99
Es	0.000002	-0.000010	-0.182374	99
Es	-0.667982	0.000128	-0.000000	99
Es	-1.019481	-0.588752	0.000051	99
Es	-1.088059	0.588061	0.000087	99
Es	0.667985	-0.000139	-0.000000	99
Es	1.021015	-0.591614	0.000177	99
14
Properties=species:S:1:pos:R:3:Z:I:1 energy=-78.05543859522854 field_type=dipole dipole="0.000000 0.000000 0.000000" charge=0
C	-0.667878	0.000130	0.000000	6
C	0.667882	-0.000140	-0.000000	6
H	-1.227628	0.930170	0.000000	1
H	-1.227968	-0.929820	0.000000	1
H	1.227962	0.929830	-0.000000	1
H	1.227632	-0.930170	0.000000	1
Es	-0.667981	0.000130	0.000000	99
Es	-1.020442	-0.590109	0.000402	99
Es	-1.087106	0.590386	0.000059	99
Es	0.000000	0.000083	0.180856	99
Es	1.019942	-0.589983	0.000033	99
Es	1.087610	0.589324	0.000366	99
Es	0.000003	0.000284	-0.181717	99
Es	0.667985	-0.000140	0.000000	99
14
Properties=species:S:1:pos:R:3:Z:I:1 energy=-78.05543859522854 field_type=dipole dipole="0.000000 0.000000 0.000000" charge=0
C	-0.667878	0.000130	0.000000	6
C	0.667882	-0.000140	-0.000000	6
H	-1.227628	0.930170	0.000000	1
H	-1.227968	-0.929820	0.000000	1
H	1.227962	0.929830	-0.000000	1
H	1.227632	-0.930170	0.000000	1
Es	0.000001	0.000028	-0.180524	99
Es	-1.086682	-0.591569	-0.000030	99
Es	1.019372	0.588569	0.000103	99
Es	0.667985	-0.000140	0.000000	99
Es	-1.020864	0.591293	0.000139	99
Es	-0.667981	0.000130	0.000001	99
Es	1.088169	-0.587883	0.000002	99
Es	0.000010	-0.000452	0.180309	99
