18
Properties=species:S:1:pos:R:3:Z:I:1 energy=-116.69223825269317 field_type=dipole dipole="0.000000 0.000000 0.000000" charge=0
C	-0.937096	-0.001873	-0.008259	6
C	0.506904	-0.001873	-0.008259	6
C	1.697064	-0.001873	-0.008259	6
H	-1.338716	1.016307	0.027041	1
H	-1.317546	-0.509873	0.884841	1
H	-1.374056	-0.498943	-0.878849	1
H	2.763444	-0.001873	-0.008259	1
Es	-0.191435	-0.006194	-0.019958	99
Es	1.112002	0.077566	-0.331145	99
Es	-1.109921	-0.268741	0.424138	99
Es	-1.124966	0.518906	-0.002557	99
Es	0.506595	-0.001845	-0.008217	99
Es	-0.936984	-0.001878	-0.008260	99
Es	1.106696	0.201884	0.282295	99
Es	-1.312982	-0.239080	-0.398520	99
Es	2.393506	-0.009352	-0.020744	99
Es	1.113591	-0.283936	0.027141	99
Es	1.697318	-0.001896	-0.008299	99
