30
Properties=species:S:1:pos:R:3:Z:I:1 energy=-173.3166637784496 field_type=dipole dipole="0.000000 0.000000 0.000000" charge=0
C	-1.300289	-0.239857	0.420012	6
N	0.161661	-0.232907	0.416952	7
C	0.673681	-0.956407	-0.745708	6
C	0.666212	1.139203	0.427842	6
H	-1.685889	0.265693	1.312772	1
H	-1.680459	-1.267307	0.453232	1
H	-1.719949	0.254393	-0.464148	1
H	0.330842	-1.997367	-0.733098	1
H	1.769141	-0.987287	-0.728378	1
H	0.356761	-0.500697	-1.691238	1
H	0.315932	1.671343	1.319712	1
H	0.350892	1.704843	-0.456908	1
H	1.761461	1.146353	0.468952	1
Es	0.161429	-0.232562	0.416344	99
Es	-0.480111	-0.220031	0.389688	99
Es	0.451256	-0.636823	-1.399088	99
Es	1.420966	-0.969205	-0.734823	99
Es	0.432215	-1.663777	-0.737958	99
Es	-1.586838	0.103925	-0.195006	99
Es	0.419623	1.501457	1.033418	99
Es	0.371745	-0.529389	-0.112686	99
Es	1.413442	1.140522	0.448403	99
Es	0.444985	1.527596	-0.187585	99
Es	-1.559980	0.112032	1.026220	99
Es	-1.556275	-0.941979	0.435310	99
Es	-1.300167	-0.239857	0.420013	99
Es	0.368498	0.374927	0.393375	99
Es	0.272786	-0.393292	0.704140	99
Es	0.666170	1.139090	0.427844	99
Es	0.673637	-0.956347	-0.745610	99
30
Properties=species:S:1:pos:R:3:Z:I:1 energy=-173.3166637784496 field_type=dipole dipole="0.000000 0.000000 0.000000" charge=0
C	-1.300289	-0.239857	0.420012	6
N	0.161661	-0.232907	0.416952	7
C	0.673681	-0.956407	-0.745708	6
C	0.666212	1.139203	0.427842	6
H	-1.685889	0.265693	1.312772	1
H	-1.680459	-1.267307	0.453232	1
H	-1.719949	0.254393	-0.464148	1
H	0.330842	-1.997367	-0.733098	1
H	1.769141	-0.987287	-0.728378	1
H	0.356761	-0.500697	-1.691238	1
H	0.315932	1.671343	1.319712	1
H	0.350892	1.704843	-0.456908	1
H	1.761461	1.146353	0.468952	1
Es	0.376167	-0.535819	-0.110736	99
Es	0.214376	-0.309187	0.553506	99
Es	1.420275	-0.969754	-0.734044	99
Es	-1.559444	0.111142	1.026156	99
Es	0.432831	-1.663311	-0.737312	99
Es	0.214181	-0.308636	0.552391	99
Es	0.444734	1.528505	-0.188726	99
Es	0.420222	1.500677	1.033380	99
Es	-0.483102	-0.223658	0.396343	99
Es	0.451044	-0.636292	-1.400539	99
Es	0.673638	-0.956348	-0.745613	99
Es	1.412741	1.140244	0.449207	99
Es	-1.300169	-0.239858	0.420012	99
Es	0.666172	1.139094	0.427842	99
Es	-1.555766	-0.941488	0.436095	99
Es	0.373089	0.376440	0.400159	99
Es	-1.587607	0.104538	-0.196124	99
30
Properties=species:S:1:pos:R:3:Z:I:1 energy=-173.3166637784496 field_type=dipole dipole="0.000000 0.000000 0.000000" charge=0
C	-1.300289	-0.239857	0.420012	6
N	0.161661	-0.232907	0.416952	7
C	0.673681	-0.956407	-0.745708	6
C	0.666212	1.139203	0.427842	6
H	-1.685889	0.265693	1.312772	1
H	-1.680459	-1.267307	0.453232	1
H	-1.719949	0.254393	-0.464148	1
H	0.330842	-1.997367	-0.733098	1
H	1.769141	-0.987287	-0.728378	1
H	0.356761	-0.500697	-1.691238	1
H	0.315932	1.671343	1.319712	1
H	0.350892	1.704843	-0.456908	1
H	1.761461	1.146353	0.468952	1
Es	0.273946	-0.394882	0.706718	99
Es	-1.559853	0.111621	1.026266	99
Es	-1.556008	-0.941781	0.435511	99
Es	0.432354	-1.663569	-0.737745	99
Es	0.370823	-0.528138	-0.113263	99
Es	0.444857	1.528042	-0.188035	99
Es	1.413165	1.140418	0.448747	99
Es	0.367646	0.374600	0.392433	99
Es	-1.300171	-0.239857	0.420013	99
Es	0.666171	1.139089	0.427842	99
Es	-1.587126	0.104187	-0.195448	99
Es	0.161446	-0.232599	0.416394	99
Es	0.673640	-0.956348	-0.745611	99
Es	0.419908	1.501080	1.033384	99
Es	1.420765	-0.969472	-0.734475	99
Es	-0.479422	-0.219496	0.388900	99
Es	0.451239	-0.636606	-1.399632	99
30
Properties=species:S:1:pos:R:3:Z:I:1 energy=-173.3166637784496 field_type=dipole dipole="0.000000 0.000000 0.000000" charge=0
C	-1.300289	-0.239857	0.420012	6
N	0.161661	-0.232907	0.416952	7
C	0.673681	-0.956407	-0.745708	6
C	0.666212	1.139203	0.427842	6
H	-1.685889	0.265693	1.312772	1
H	-1.680459	-1.267307	0.453232	1
H	-1.719949	0.254393	-0.464148	1
H	0.330842	-1.997367	-0.733098	1
H	1.769141	-0.987287	-0.728378	1
H	0.356761	-0.500697	-1.691238	1
H	0.315932	1.671343	1.319712	1
H	0.350892	1.704843	-0.456908	1
H	1.761461	1.146353	0.468952	1
Es	-1.559795	0.111573	1.026211	99
Es	-0.479138	-0.219362	0.388407	99
Es	0.161441	-0.232594	0.416378	99
Es	1.413135	1.140380	0.448762	99
Es	-1.556019	-0.941750	0.435595	99
Es	0.666173	1.139095	0.427843	99
Es	0.432399	-1.663531	-0.737681	99
Es	0.673640	-0.956349	-0.745613	99
Es	-1.587159	0.104243	-0.195529	99
Es	0.451220	-0.636588	-1.399746	99
Es	0.444842	1.528077	-0.188097	99
Es	0.367141	0.374475	0.391667	99
Es	-1.300170	-0.239857	0.420013	99
Es	0.370880	-0.528169	-0.113175	99
Es	0.419902	1.501039	1.033441	99
Es	0.274163	-0.394886	0.707931	99
Es	1.420726	-0.969506	-0.734408	99
30
Properties=species:S:1:pos:R:3:Z:I:1 energy=-173.3166637784496 field_type=dipole dipole="0.000000 0.000000 0.000000" charge=0
C	-1.300289	-0.239857	0.420012	6
N	0.161661	-0.232907	0.416952	7
C	0.673681	-0.956407	-0.745708	6
C	0.666212	1.139203	0.427842	6
H	-1.685889	0.265693	1.312772	1
H	-1.680459	-1.267307	0.453232	1
H	-1.719949	0.254393	-0.464148	1
H	0.330842	-1.997367	-0.733098	1
H	1.769141	-0.987287	-0.728378	1
H	0.356761	-0.500697	-1.691238	1
H	0.315932	1.671343	1.319712	1
H	0.350892	1.704843	-0.456908	1
H	1.761461	1.146353	0.468952	1
Es	-1.587299	0.104416	-0.195574	99
Es	0.673640	-0.956349	-0.745613	99
Es	0.274455	-0.395426	0.708071	99
Es	0.419954	1.501011	1.033417	99
Es	-1.555877	-0.941750	0.435545	99
Es	0.432456	-1.663476	-0.737595	99
Es	0.666172	1.139091	0.427842	99
Es	-0.479217	-0.219178	0.388365	99
Es	-1.300171	-0.239857	0.420013	99
Es	1.413093	1.140377	0.448805	99
Es	0.451228	-0.636538	-1.399928	99
Es	0.370561	-0.527702	-0.113232	99
Es	-1.559743	0.111326	1.026291	99
Es	0.161429	-0.232569	0.416340	99
Es	0.367258	0.374392	0.391734	99
Es	1.420621	-0.969596	-0.734320	99
Es	0.444823	1.528117	-0.188163	99
30
Properties=species:S:1:pos:R:3:Z:I:1 energy=-173.3166637784496 field_type=dipole dipole="0.000000 0.000000 0.000000" charge=0
C	-1.300289	-0.239857	0.420012	6
N	0.161661	-0.232907	0.416952	7
C	0.673681	-0.956407	-0.745708	6
C	0.666212	1.139203	0.427842	6
H	-1.685889	0.265693	1.312772	1
H	-1.680459	-1.267307	0.453232	1
H	-1.719949	0.254393	-0.464148	1
H	0.330842	-1.997367	-0.733098	1
H	1.769141	-0.987287	-0.728378	1
H	0.356761	-0.500697	-1.691238	1
H	0.315932	1.671343	1.319712	1
H	0.350892	1.704843	-0.456908	1
H	1.761461	1.146353	0.468952	1
Es	1.413026	1.140335	0.449025	99
Es	0.419951	1.500892	1.033352	99
Es	-0.479218	-0.219047	0.388279	99
Es	0.673639	-0.956347	-0.745610	99
Es	0.451244	-0.636440	-1.399959	99
Es	-1.555918	-0.941734	0.435727	99
Es	0.432425	-1.663520	-0.737582	99
Es	-1.587284	0.104264	-0.195662	99
Es	0.367056	0.374157	0.391521	99
Es	0.370483	-0.527444	-0.113442	99
Es	-1.300169	-0.239857	0.420013	99
Es	1.420553	-0.969623	-0.734300	99
Es	0.161470	-0.232618	0.416456	99
Es	0.274759	-0.395603	0.708406	99
Es	-1.559706	0.111514	1.026220	99
Es	0.666172	1.139089	0.427842	99
Es	0.444897	1.528270	-0.188287	99
30
Properties=species:S:1:pos:R:3:Z:I:1 energy=-173.3166637784496 field_type=dipole dipole="0.000000 0.000000 0.000000" charge=0
C	-1.300289	-0.239857	0.420012	6
N	0.161661	-0.232907	0.416952	7
C	0.673681	-0.956407	-0.745708	6
C	0.666212	1.139203	0.427842	6
H	-1.685889	0.265693	1.312772	1
H	-1.680459	-1.267307	0.453232	1
H	-1.719949	0.254393	-0.464148	1
H	0.330842	-1.997367	-0.733098	1
H	1.769141	-0.987287	-0.728378	1
H	0.356761	-0.500697	-1.691238	1
H	0.315932	1.671343	1.319712	1
H	0.350892	1.704843	-0.456908	1
H	1.761461	1.146353	0.468952	1
Es	0.420019	1.500914	1.033369	99
Es	0.161458	-0.232608	0.416401	99
Es	1.420547	-0.969570	-0.734245	99
Es	0.666172	1.139093	0.427842	99
Es	1.413016	1.140324	0.448952	99
Es	-1.555893	-0.941667	0.435779	99
Es	0.274830	-0.395720	0.708863	99
Es	0.673640	-0.956348	-0.745612	99
Es	0.366978	0.374250	0.391262	99
Es	0.451194	-0.636500	-1.400054	99
Es	-0.479051	-0.219066	0.388100	99
Es	0.444823	1.528244	-0.188316	99
Es	-1.587352	0.104331	-0.195739	99
Es	-1.300169	-0.239857	0.420013	99
Es	-1.559653	0.111432	1.026230	99
Es	0.370281	-0.527470	-0.113333	99
Es	0.432542	-1.663493	-0.737514	99
30
Properties=species:S:1:pos:R:3:Z:I:1 energy=-173.3166637784496 field_type=dipole dipole="0.000000 0.000000 0.000000" charge=0
C	-1.300289	-0.239857	0.420012	6
N	0.161661	-0.232907	0.416952	7
C	0.673681	-0.956407	-0.745708	6
C	0.666212	1.139203	0.427842	6
H	-1.685889	0.265693	1.312772	1
H	-1.680459	-1.267307	0.453232	1
H	-1.719949	0.254393	-0.464148	1
H	0.330842	-1.997367	-0.733098	1
H	1.769141	-0.987287	-0.728378	1
H	0.356761	-0.500697	-1.691238	1
H	0.315932	1.671343	1.319712	1
H	0.350892	1.704843	-0.456908	1
H	1.761461	1.146353	0.468952	1
Es	0.444799	1.528288	-0.188382	99
Es	-1.559618	0.111327	1.026208	99
Es	0.451145	-0.636489	-1.400075	99
Es	0.367166	0.374298	0.391425	99
Es	-1.300171	-0.239856	0.420014	99
Es	-0.478968	-0.218961	0.388030	99
Es	0.666171	1.139091	0.427841	99
Es	0.161428	-0.232560	0.416320	99
Es	0.420006	1.500844	1.033415	99
Es	0.370249	-0.527442	-0.113307	99
Es	-1.555867	-0.941657	0.435796	99
Es	0.432599	-1.663452	-0.737516	99
Es	1.412984	1.140309	0.448994	99
Es	1.420536	-0.969580	-0.734264	99
Es	0.673642	-0.956352	-0.745616	99
Es	0.274696	-0.395931	0.708889	99
Es	-1.587415	0.104411	-0.195771	99
30
Properties=species:S:1:pos:R:3:Z:I:1 energy=-173.3166637784496 field_type=dipole dipole="0.000000 0.000000 0.000000" charge=0
C	-1.300289	-0.239857	0.420012	6
N	0.161661	-0.232907	0.416952	7
C	0.673681	-0.956407	-0.745708	6
C	0.666212	1.139203	0.427842	6
H	-1.685889	0.265693	1.312772	1
H	-1.680459	-1.267307	0.453232	1
H	-1.719949	0.254393	-0.464148	1
H	0.330842	-1.997367	-0.733098	1
H	1.769141	-0.987287	-0.728378	1
H	0.356761	-0.500697	-1.691238	1
H	0.315932	1.671343	1.319712	1
H	0.350892	1.704843	-0.456908	1
H	1.761461	1.146353	0.468952	1
Es	0.444795	1.528320	-0.188385	99
Es	1.412958	1.140269	0.448963	99
Es	0.451154	-0.636461	-1.400136	99
Es	-1.587362	0.104433	-0.195776	99
Es	0.370306	-0.527089	-0.113487	99
Es	0.366797	0.374184	0.391493	99
Es	0.274801	-0.396253	0.709338	99
Es	1.420531	-0.969622	-0.734208	99
Es	-1.559554	0.111393	1.026158	99
Es	-0.478849	-0.218963	0.387644	99
Es	0.673640	-0.956349	-0.745613	99
Es	-1.555966	-0.941668	0.435852	99
Es	0.432587	-1.663423	-0.737492	99
Es	-1.300171	-0.239856	0.420014	99
Es	0.420103	1.500868	1.033403	99
Es	0.666172	1.139092	0.427842	99
Es	0.161439	-0.232584	0.416390	99
30
Properties=species:S:1:pos:R:3:Z:I:1 energy=-173.3166637784496 field_type=dipole dipole="0.000000 0.000000 0.000000" charge=0
C	-1.300289	-0.239857	0.420012	6
N	0.161661	-0.232907	0.416952	7
C	0.673681	-0.956407	-0.745708	6
C	0.666212	1.139203	0.427842	6
H	-1.685889	0.265693	1.312772	1
H	-1.680459	-1.267307	0.453232	1
H	-1.719949	0.254393	-0.464148	1
H	0.330842	-1.997367	-0.733098	1
H	1.769141	-0.987287	-0.728378	1
H	0.356761	-0.500697	-1.691238	1
H	0.315932	1.671343	1.319712	1
H	0.350892	1.704843	-0.456908	1
H	1.761461	1.146353	0.468952	1
Es	-1.555829	-0.941640	0.435775	99
Es	-0.478888	-0.219027	0.388181	99
Es	1.412952	1.140299	0.449012	99
Es	0.451189	-0.636436	-1.400147	99
Es	-1.559647	0.111294	1.026234	99
Es	0.275402	-0.396078	0.709439	99
Es	0.366636	0.374157	0.390871	99
Es	0.369958	-0.527094	-0.113456	99
Es	0.432531	-1.663406	-0.737501	99
Es	0.444814	1.528342	-0.188389	99
Es	0.673639	-0.956350	-0.745613	99
Es	-1.587409	0.104416	-0.195791	99
Es	0.420084	1.500845	1.033368	99
Es	0.161435	-0.232576	0.416372	99
Es	1.420510	-0.969691	-0.734209	99
Es	-1.300170	-0.239857	0.420013	99
Es	0.666172	1.139091	0.427841	99
30
Properties=species:S:1:pos:R:3:Z:I:1 energy=-173.3166637784496 field_type=dipole dipole="0.000000 0.000000 0.000000" charge=0
C	-1.300289	-0.239857	0.420012	6
N	0.161661	-0.232907	0.416952	7
C	0.673681	-0.956407	-0.745708	6
C	0.666212	1.139203	0.427842	6
H	-1.685889	0.265693	1.312772	1
H	-1.680459	-1.267307	0.453232	1
H	-1.719949	0.254393	-0.464148	1
H	0.330842	-1.997367	-0.733098	1
H	1.769141	-0.987287	-0.728378	1
H	0.356761	-0.500697	-1.691238	1
H	0.315932	1.671343	1.319712	1
H	0.350892	1.704843	-0.456908	1
H	1.761461	1.146353	0.468952	1
Es	0.275156	-0.396181	0.709646	99
Es	1.420507	-0.969600	-0.734230	99
Es	0.444832	1.528363	-0.188446	99
Es	0.366754	0.374159	0.390917	99
Es	-1.587447	0.104421	-0.195816	99
Es	0.673640	-0.956349	-0.745612	99
Es	0.420105	1.500835	1.033410	99
Es	-1.300168	-0.239857	0.420012	99
Es	1.412898	1.140261	0.449031	99
Es	0.370085	-0.527190	-0.113280	99
Es	0.451092	-0.636470	-1.400169	99
Es	-1.559611	0.111291	1.026275	99
Es	0.161412	-0.232552	0.416331	99
Es	0.666170	1.139089	0.427842	99
Es	-1.555831	-0.941586	0.435791	99
Es	-0.478856	-0.218922	0.387744	99
Es	0.432642	-1.663424	-0.737447	99
30
Properties=species:S:1:pos:R:3:Z:I:1 energy=-173.3166637784496 field_type=dipole dipole="0.000000 0.000000 0.000000" charge=0
C	-1.300289	-0.239857	0.420012	6
N	0.161661	-0.232907	0.416952	7
C	0.673681	-0.956407	-0.745708	6
C	0.666212	1.139203	0.427842	6
H	-1.685889	0.265693	1.312772	1
H	-1.680459	-1.267307	0.453232	1
H	-1.719949	0.254393	-0.464148	1
H	0.330842	-1.997367	-0.733098	1
H	1.769141	-0.987287	-0.728378	1
H	0.356761	-0.500697	-1.691238	1
H	0.315932	1.671343	1.319712	1
H	0.350892	1.704843	-0.456908	1
H	1.761461	1.146353	0.468952	1
Es	0.444835	1.528348	-0.188452	99
Es	-0.478772	-0.218816	0.387642	99
Es	0.666171	1.139092	0.427843	99
Es	-1.555851	-0.941620	0.435866	99
Es	0.161443	-0.232579	0.416380	99
Es	0.673641	-0.956351	-0.745615	99
Es	0.432603	-1.663408	-0.737467	99
Es	0.420084	1.500847	1.033351	99
Es	-1.300167	-0.239856	0.420013	99
Es	1.420475	-0.969664	-0.734209	99
Es	-1.559583	0.111317	1.026202	99
Es	0.366608	0.374074	0.391038	99
Es	-1.587435	0.104418	-0.195853	99
Es	0.369999	-0.526844	-0.113479	99
Es	0.451160	-0.636452	-1.400188	99
Es	1.412947	1.140249	0.449060	99
Es	0.275223	-0.396467	0.709867	99
30
Properties=species:S:1:pos:R:3:Z:I:1 energy=-173.3166637784496 field_type=dipole dipole="0.000000 0.000000 0.000000" charge=0
C	-1.300289	-0.239857	0.420012	6
N	0.161661	-0.232907	0.416952	7
C	0.673681	-0.956407	-0.745708	6
C	0.666212	1.139203	0.427842	6
H	-1.685889	0.265693	1.312772	1
H	-1.680459	-1.267307	0.453232	1
H	-1.719949	0.254393	-0.464148	1
H	0.330842	-1.997367	-0.733098	1
H	1.769141	-0.987287	-0.728378	1
H	0.356761	-0.500697	-1.691238	1
H	0.315932	1.671343	1.319712	1
H	0.350892	1.704843	-0.456908	1
H	1.761461	1.146353	0.468952	1
Es	1.420455	-0.969642	-0.734170	99
Es	-1.300167	-0.239857	0.420012	99
Es	0.444787	1.528347	-0.188447	99
Es	0.666170	1.139092	0.427843	99
Es	1.412936	1.140259	0.449018	99
Es	-0.478708	-0.218724	0.387609	99
Es	-1.555808	-0.941611	0.435819	99
Es	0.275083	-0.396557	0.709776	99
Es	0.432680	-1.663390	-0.737420	99
Es	-1.559588	0.111211	1.026230	99
Es	0.161431	-0.232587	0.416367	99
Es	0.420099	1.500821	1.033397	99
Es	0.451113	-0.636447	-1.400265	99
Es	0.369961	-0.526899	-0.113515	99
Es	0.673640	-0.956349	-0.745613	99
Es	-1.587494	0.104487	-0.195840	99
Es	0.366792	0.374136	0.391196	99
30
Properties=species:S:1:pos:R:3:Z:I:1 energy=-173.3166637784496 field_type=dipole dipole="0.000000 0.000000 0.000000" charge=0
C	-1.300289	-0.239857	0.420012	6
N	0.161661	-0.232907	0.416952	7
C	0.673681	-0.956407	-0.745708	6
C	0.666212	1.139203	0.427842	6
H	-1.685889	0.265693	1.312772	1
H	-1.680459	-1.267307	0.453232	1
H	-1.719949	0.254393	-0.464148	1
H	0.330842	-1.997367	-0.733098	1
H	1.769141	-0.987287	-0.728378	1
H	0.356761	-0.500697	-1.691238	1
H	0.315932	1.671343	1.319712	1
H	0.350892	1.704843	-0.456908	1
H	1.761461	1.146353	0.468952	1
Es	-1.300167	-0.239857	0.420012	99
Es	1.420456	-0.969784	-0.734127	99
Es	0.420085	1.500769	1.033407	99
Es	0.444811	1.528409	-0.188473	99
Es	-1.555772	-0.941598	0.435816	99
Es	0.161449	-0.232598	0.416397	99
Es	1.412893	1.140269	0.449080	99
Es	-1.587488	0.104439	-0.195860	99
Es	-1.559599	0.111247	1.026276	99
Es	0.451205	-0.636392	-1.400272	99
Es	0.369917	-0.526637	-0.113503	99
Es	0.666172	1.139089	0.427842	99
Es	0.275225	-0.396724	0.709723	99
Es	0.673641	-0.956349	-0.745614	99
Es	-0.478810	-0.218801	0.387571	99
Es	0.366816	0.374149	0.391166	99
Es	0.432546	-1.663341	-0.737444	99
30
Properties=species:S:1:pos:R:3:Z:I:1 energy=-173.3166637784496 field_type=dipole dipole="0.000000 0.000000 0.000000" charge=0
C	-1.300289	-0.239857	0.420012	6
N	0.161661	-0.232907	0.416952	7
C	0.673681	-0.956407	-0.745708	6
C	0.666212	1.139203	0.427842	6
H	-1.685889	0.265693	1.312772	1
H	-1.680459	-1.267307	0.453232	1
H	-1.719949	0.254393	-0.464148	1
H	0.330842	-1.997367	-0.733098	1
H	1.769141	-0.987287	-0.728378	1
H	0.356761	-0.500697	-1.691238	1
H	0.315932	1.671343	1.319712	1
H	0.350892	1.704843	-0.456908	1
H	1.761461	1.146353	0.468952	1
Es	0.666172	1.139092	0.427842	99
Es	-1.555757	-0.941598	0.435930	99
Es	0.369908	-0.526886	-0.113415	99
Es	-0.478732	-0.218735	0.387682	99
Es	0.161423	-0.232574	0.416378	99
Es	0.275271	-0.396532	0.709819	99
Es	0.673641	-0.956351	-0.745615	99
Es	0.432680	-1.663346	-0.737454	99
Es	1.420430	-0.969707	-0.734178	99
Es	0.366718	0.374110	0.391013	99
Es	0.451124	-0.636421	-1.400284	99
Es	-1.587585	0.104460	-0.195899	99
Es	1.412855	1.140247	0.449070	99
Es	0.420137	1.500782	1.033415	99
Es	-1.559547	0.111183	1.026183	99
Es	0.444812	1.528421	-0.188500	99
Es	-1.300168	-0.239856	0.420012	99
30
Properties=species:S:1:pos:R:3:Z:I:1 energy=-173.3166637784496 field_type=dipole dipole="0.000000 0.000000 0.000000" charge=0
C	-1.300289	-0.239857	0.420012	6
N	0.161661	-0.232907	0.416952	7
C	0.673681	-0.956407	-0.745708	6
C	0.666212	1.139203	0.427842	6
H	-1.685889	0.265693	1.312772	1
H	-1.680459	-1.267307	0.453232	1
H	-1.719949	0.254393	-0.464148	1
H	0.330842	-1.997367	-0.733098	1
H	1.769141	-0.987287	-0.728378	1
H	0.356761	-0.500697	-1.691238	1
H	0.315932	1.671343	1.319712	1
H	0.350892	1.704843	-0.456908	1
H	1.761461	1.146353	0.468952	1
Es	-1.587502	0.104416	-0.195985	99
Es	0.420176	1.500754	1.033424	99
Es	0.366474	0.374110	0.390588	99
Es	0.161425	-0.232592	0.416386	99
Es	0.673640	-0.956346	-0.745611	99
Es	1.412838	1.140258	0.449054	99
Es	0.666171	1.139091	0.427842	99
Es	0.370009	-0.527137	-0.113338	99
Es	-1.300169	-0.239857	0.420013	99
Es	-1.559527	0.111308	1.026192	99
Es	-0.478782	-0.218965	0.387685	99
Es	0.432716	-1.663389	-0.737394	99
Es	1.420471	-0.969604	-0.734153	99
Es	-1.555796	-0.941587	0.435983	99
Es	0.451064	-0.636443	-1.400282	99
Es	0.444766	1.528446	-0.188518	99
Es	0.275408	-0.396175	0.710113	99
30
Properties=species:S:1:pos:R:3:Z:I:1 energy=-173.3166637784496 field_type=dipole dipole="0.000000 0.000000 0.000000" charge=0
C	-1.300289	-0.239857	0.420012	6
N	0.161661	-0.232907	0.416952	7
C	0.673681	-0.956407	-0.745708	6
C	0.666212	1.139203	0.427842	6
H	-1.685889	0.265693	1.312772	1
H	-1.680459	-1.267307	0.453232	1
H	-1.719949	0.254393	-0.464148	1
H	0.330842	-1.997367	-0.733098	1
H	1.769141	-0.987287	-0.728378	1
H	0.356761	-0.500697	-1.691238	1
H	0.315932	1.671343	1.319712	1
H	0.350892	1.704843	-0.456908	1
H	1.761461	1.146353	0.468952	1
Es	-0.478848	-0.218782	0.387631	99
Es	1.420371	-0.969689	-0.734115	99
Es	0.666172	1.139093	0.427843	99
Es	0.420199	1.500735	1.033442	99
Es	0.451132	-0.636401	-1.400357	99
Es	0.369978	-0.526872	-0.113399	99
Es	-1.555776	-0.941555	0.435951	99
Es	0.432720	-1.663376	-0.737393	99
Es	0.275296	-0.396485	0.709924	99
Es	-1.559553	0.111249	1.026203	99
Es	-1.587526	0.104421	-0.195966	99
Es	0.444742	1.528473	-0.188543	99
Es	0.673640	-0.956350	-0.745613	99
Es	0.161440	-0.232576	0.416367	99
Es	-1.300170	-0.239857	0.420013	99
Es	0.366745	0.374013	0.390959	99
Es	1.412820	1.140248	0.449052	99
30
Properties=species:S:1:pos:R:3:Z:I:1 energy=-173.3166637784496 field_type=dipole dipole="0.000000 0.000000 0.000000" charge=0
C	-1.300289	-0.239857	0.420012	6
N	0.161661	-0.232907	0.416952	7
C	0.673681	-0.956407	-0.745708	6
C	0.666212	1.139203	0.427842	6
H	-1.685889	0.265693	1.312772	1
H	-1.680459	-1.267307	0.453232	1
H	-1.719949	0.254393	-0.464148	1
H	0.330842	-1.997367	-0.733098	1
H	1.769141	-0.987287	-0.728378	1
H	0.356761	-0.500697	-1.691238	1
H	0.315932	1.671343	1.319712	1
H	0.350892	1.704843	-0.456908	1
H	1.761461	1.146353	0.468952	1
Es	0.673640	-0.956349	-0.745612	99
Es	0.275318	-0.396812	0.710210	99
Es	0.366626	0.373991	0.390974	99
Es	-0.478541	-0.218681	0.387463	99
Es	0.161426	-0.232588	0.416389	99
Es	-1.300171	-0.239857	0.420013	99
Es	0.444851	1.528442	-0.188561	99
Es	0.666171	1.139091	0.427842	99
Es	-1.587529	0.104421	-0.195937	99
Es	0.432677	-1.663267	-0.737433	99
Es	1.412823	1.140286	0.449169	99
Es	1.420439	-0.969782	-0.734114	99
Es	0.451175	-0.636473	-1.400345	99
Es	-1.559552	0.111258	1.026151	99
Es	0.369712	-0.526641	-0.113496	99
Es	-1.555837	-0.941540	0.435974	99
Es	0.420151	1.500790	1.033308	99
30
Properties=species:S:1:pos:R:3:Z:I:1 energy=-173.3166637784496 field_type=dipole dipole="0.000000 0.000000 0.000000" charge=0
C	-1.300289	-0.239857	0.420012	6
N	0.161661	-0.232907	0.416952	7
C	0.673681	-0.956407	-0.745708	6
C	0.666212	1.139203	0.427842	6
H	-1.685889	0.265693	1.312772	1
H	-1.680459	-1.267307	0.453232	1
H	-1.719949	0.254393	-0.464148	1
H	0.330842	-1.997367	-0.733098	1
H	1.769141	-0.987287	-0.728378	1
H	0.356761	-0.500697	-1.691238	1
H	0.315932	1.671343	1.319712	1
H	0.350892	1.704843	-0.456908	1
H	1.761461	1.146353	0.468952	1
Es	1.420370	-0.969749	-0.734124	99
Es	-0.478731	-0.218796	0.387553	99
Es	-1.587558	0.104519	-0.195975	99
Es	0.451163	-0.636396	-1.400355	99
Es	0.673640	-0.956349	-0.745612	99
Es	0.432659	-1.663360	-0.737389	99
Es	0.666171	1.139091	0.427842	99
Es	0.444745	1.528516	-0.188589	99
Es	0.366628	0.374074	0.391083	99
Es	0.370045	-0.526791	-0.113476	99
Es	-1.555774	-0.941551	0.435933	99
Es	0.420198	1.500678	1.033359	99
Es	0.161418	-0.232579	0.416350	99
Es	-1.300170	-0.239857	0.420013	99
Es	-1.559522	0.111162	1.026204	99
Es	0.275248	-0.396549	0.710028	99
Es	1.412851	1.140224	0.449156	99
30
Properties=species:S:1:pos:R:3:Z:I:1 energy=-173.3166637784496 field_type=dipole dipole="0.000000 0.000000 0.000000" charge=0
C	-1.300289	-0.239857	0.420012	6
N	0.161661	-0.232907	0.416952	7
C	0.673681	-0.956407	-0.745708	6
C	0.666212	1.139203	0.427842	6
H	-1.685889	0.265693	1.312772	1
H	-1.680459	-1.267307	0.453232	1
H	-1.719949	0.254393	-0.464148	1
H	0.330842	-1.997367	-0.733098	1
H	1.769141	-0.987287	-0.728378	1
H	0.356761	-0.500697	-1.691238	1
H	0.315932	1.671343	1.319712	1
H	0.350892	1.704843	-0.456908	1
H	1.761461	1.146353	0.468952	1
Es	0.366502	0.374021	0.390786	99
Es	0.275455	-0.396611	0.710246	99
Es	-1.555777	-0.941562	0.435936	99
Es	1.420413	-0.969651	-0.734148	99
Es	0.451090	-0.636466	-1.400347	99
Es	0.161429	-0.232581	0.416380	99
Es	-0.478699	-0.218763	0.387570	99
Es	-1.587532	0.104474	-0.195963	99
Es	0.673640	-0.956348	-0.745611	99
Es	-1.559532	0.111214	1.026213	99
Es	0.444712	1.528514	-0.188523	99
Es	0.420278	1.500710	1.033413	99
Es	0.369819	-0.526757	-0.113476	99
Es	0.666172	1.139090	0.427842	99
Es	-1.300169	-0.239858	0.420012	99
Es	1.412832	1.140226	0.449040	99
Es	0.432747	-1.663364	-0.737372	99
30
Properties=species:S:1:pos:R:3:Z:I:1 energy=-173.3166637784496 field_type=dipole dipole="0.000000 0.000000 0.000000" charge=0
C	-1.300289	-0.239857	0.420012	6
N	0.161661	-0.232907	0.416952	7
C	0.673681	-0.956407	-0.745708	6
C	0.666212	1.139203	0.427842	6
H	-1.685889	0.265693	1.312772	1
H	-1.680459	-1.267307	0.453232	1
H	-1.719949	0.254393	-0.464148	1
H	0.330842	-1.997367	-0.733098	1
H	1.769141	-0.987287	-0.728378	1
H	0.356761	-0.500697	-1.691238	1
H	0.315932	1.671343	1.319712	1
H	0.350892	1.704843	-0.456908	1
H	1.761461	1.146353	0.468952	1
Es	0.673640	-0.956349	-0.745612	99
Es	0.161440	-0.232582	0.416398	99
Es	0.275390	-0.396836	0.710273	99
Es	0.432550	-1.663343	-0.737348	99
Es	1.412899	1.140218	0.449095	99
Es	-0.478640	-0.218672	0.387470	99
Es	0.451187	-0.636391	-1.400356	99
Es	0.420123	1.500744	1.033404	99
Es	-1.587521	0.104512	-0.195941	99
Es	-1.555809	-0.941616	0.435938	99
Es	-1.559481	0.111238	1.026205	99
Es	-1.300170	-0.239857	0.420013	99
Es	0.666171	1.139090	0.427843	99
Es	0.444740	1.528410	-0.188574	99
Es	0.369829	-0.526566	-0.113714	99
Es	1.420438	-0.969783	-0.734068	99
Es	0.366592	0.374071	0.390972	99
30
Properties=species:S:1:pos:R:3:Z:I:1 energy=-173.3166637784496 field_type=dipole dipole="0.000000 0.000000 0.000000" charge=0
C	-1.300289	-0.239857	0.420012	6
N	0.161661	-0.232907	0.416952	7
C	0.673681	-0.956407	-0.745708	6
C	0.666212	1.139203	0.427842	6
H	-1.685889	0.265693	1.312772	1
H	-1.680459	-1.267307	0.453232	1
H	-1.719949	0.254393	-0.464148	1
H	0.330842	-1.997367	-0.733098	1
H	1.769141	-0.987287	-0.728378	1
H	0.356761	-0.500697	-1.691238	1
H	0.315932	1.671343	1.319712	1
H	0.350892	1.704843	-0.456908	1
H	1.761461	1.146353	0.468952	1
Es	-0.478548	-0.218728	0.387431	99
Es	1.420432	-0.969700	-0.734146	99
Es	0.366412	0.373979	0.390812	99
Es	0.420206	1.500697	1.033444	99
Es	0.451167	-0.636315	-1.400237	99
Es	0.666171	1.139086	0.427837	99
Es	0.275435	-0.396833	0.710488	99
Es	-1.555792	-0.941523	0.435885	99
Es	-1.300168	-0.239857	0.420012	99
Es	0.161437	-0.232584	0.416374	99
Es	0.369930	-0.526568	-0.113588	99
Es	0.444788	1.528536	-0.188542	99
Es	-1.587469	0.104473	-0.195981	99
Es	0.673640	-0.956349	-0.745613	99
Es	0.432563	-1.663428	-0.737462	99
Es	1.412799	1.140214	0.449096	99
Es	-1.559623	0.111190	1.026189	99
30
Properties=species:S:1:pos:R:3:Z:I:1 energy=-173.3166637784496 field_type=dipole dipole="0.000000 0.000000 0.000000" charge=0
C	-1.300289	-0.239857	0.420012	6
N	0.161661	-0.232907	0.416952	7
C	0.673681	-0.956407	-0.745708	6
C	0.666212	1.139203	0.427842	6
H	-1.685889	0.265693	1.312772	1
H	-1.680459	-1.267307	0.453232	1
H	-1.719949	0.254393	-0.464148	1
H	0.330842	-1.997367	-0.733098	1
H	1.769141	-0.987287	-0.728378	1
H	0.356761	-0.500697	-1.691238	1
H	0.315932	1.671343	1.319712	1
H	0.350892	1.704843	-0.456908	1
H	1.761461	1.146353	0.468952	1
Es	0.369718	-0.526659	-0.113432	99
Es	0.666170	1.139092	0.427843	99
Es	-0.478657	-0.218714	0.387341	99
Es	0.161425	-0.232589	0.416388	99
Es	0.432686	-1.663322	-0.737434	99
Es	0.451170	-0.636360	-1.400373	99
Es	0.366677	0.374053	0.390826	99
Es	1.412811	1.140227	0.449135	99
Es	0.673641	-0.956348	-0.745612	99
Es	0.420144	1.500729	1.033421	99
Es	0.275405	-0.396869	0.710328	99
Es	-1.559494	0.111290	1.026193	99
Es	0.444800	1.528464	-0.188595	99
Es	-1.587533	0.104433	-0.195989	99
Es	-1.300171	-0.239857	0.420012	99
Es	-1.555818	-0.941542	0.436005	99
Es	1.420407	-0.969737	-0.734057	99
30
Properties=species:S:1:pos:R:3:Z:I:1 energy=-173.3166637784496 field_type=dipole dipole="0.000000 0.000000 0.000000" charge=0
C	-1.300289	-0.239857	0.420012	6
N	0.161661	-0.232907	0.416952	7
C	0.673681	-0.956407	-0.745708	6
C	0.666212	1.139203	0.427842	6
H	-1.685889	0.265693	1.312772	1
H	-1.680459	-1.267307	0.453232	1
H	-1.719949	0.254393	-0.464148	1
H	0.330842	-1.997367	-0.733098	1
H	1.769141	-0.987287	-0.728378	1
H	0.356761	-0.500697	-1.691238	1
H	0.315932	1.671343	1.319712	1
H	0.350892	1.704843	-0.456908	1
H	1.761461	1.146353	0.468952	1
Es	-1.300171	-0.239857	0.420013	99
Es	0.420160	1.500721	1.033403	99
Es	0.366571	0.374062	0.390815	99
Es	-1.587528	0.104523	-0.195995	99
Es	-1.555803	-0.941497	0.435926	99
Es	0.451131	-0.636376	-1.400309	99
Es	-1.559539	0.111167	1.026209	99
Es	0.666171	1.139091	0.427842	99
Es	0.444761	1.528462	-0.188577	99
Es	0.432678	-1.663388	-0.737422	99
Es	0.673639	-0.956348	-0.745612	99
Es	1.420419	-0.969668	-0.734118	99
Es	0.275465	-0.396933	0.710408	99
Es	0.161440	-0.232568	0.416367	99
Es	1.412839	1.140246	0.449114	99
Es	-0.478547	-0.218758	0.387486	99
Es	0.369696	-0.526588	-0.113553	99
30
Properties=species:S:1:pos:R:3:Z:I:1 energy=-173.3166637784496 field_type=dipole dipole="0.000000 0.000000 0.000000" charge=0
C	-1.300289	-0.239857	0.420012	6
N	0.161661	-0.232907	0.416952	7
C	0.673681	-0.956407	-0.745708	6
C	0.666212	1.139203	0.427842	6
H	-1.685889	0.265693	1.312772	1
H	-1.680459	-1.267307	0.453232	1
H	-1.719949	0.254393	-0.464148	1
H	0.330842	-1.997367	-0.733098	1
H	1.769141	-0.987287	-0.728378	1
H	0.356761	-0.500697	-1.691238	1
H	0.315932	1.671343	1.319712	1
H	0.350892	1.704843	-0.456908	1
H	1.761461	1.146353	0.468952	1
Es	-1.555792	-0.941527	0.435937	99
Es	0.369699	-0.526496	-0.113583	99
Es	0.432698	-1.663368	-0.737387	99
Es	0.444739	1.528484	-0.188620	99
Es	0.275396	-0.396968	0.710361	99
Es	0.451136	-0.636409	-1.400360	99
Es	1.412822	1.140235	0.449130	99
Es	-0.478633	-0.218710	0.387355	99
Es	-1.300169	-0.239857	0.420013	99
Es	0.161448	-0.232599	0.416350	99
Es	0.420185	1.500704	1.033393	99
Es	-1.559490	0.111196	1.026240	99
Es	-1.587547	0.104513	-0.195978	99
Es	0.366664	0.374025	0.390999	99
Es	0.666171	1.139091	0.427842	99
Es	0.673639	-0.956347	-0.745611	99
Es	1.420415	-0.969676	-0.734082	99
30
Properties=species:S:1:pos:R:3:Z:I:1 energy=-173.3166637784496 field_type=dipole dipole="0.000000 0.000000 0.000000" charge=0
C	-1.300289	-0.239857	0.420012	6
N	0.161661	-0.232907	0.416952	7
C	0.673681	-0.956407	-0.745708	6
C	0.666212	1.139203	0.427842	6
H	-1.685889	0.265693	1.312772	1
H	-1.680459	-1.267307	0.453232	1
H	-1.719949	0.254393	-0.464148	1
H	0.330842	-1.997367	-0.733098	1
H	1.769141	-0.987287	-0.728378	1
H	0.356761	-0.500697	-1.691238	1
H	0.315932	1.671343	1.319712	1
H	0.350892	1.704843	-0.456908	1
H	1.761461	1.146353	0.468952	1
Es	0.369759	-0.526684	-0.113484	99
Es	0.673640	-0.956349	-0.745612	99
Es	0.444788	1.528512	-0.188583	99
Es	1.412842	1.140241	0.449176	99
Es	0.366539	0.374052	0.390802	99
Es	0.451080	-0.636381	-1.400415	99
Es	-0.478652	-0.218811	0.387489	99
Es	-1.555776	-0.941516	0.435870	99
Es	0.432716	-1.663281	-0.737364	99
Es	-1.587571	0.104641	-0.195975	99
Es	-1.559455	0.111084	1.026294	99
Es	0.161420	-0.232574	0.416358	99
Es	0.420173	1.500695	1.033346	99
Es	0.666172	1.139091	0.427843	99
Es	-1.300171	-0.239858	0.420012	99
Es	0.275471	-0.396812	0.710333	99
Es	1.420406	-0.969762	-0.734093	99
30
Properties=species:S:1:pos:R:3:Z:I:1 energy=-173.3166637784496 field_type=dipole dipole="0.000000 0.000000 0.000000" charge=0
C	-1.300289	-0.239857	0.420012	6
N	0.161661	-0.232907	0.416952	7
C	0.673681	-0.956407	-0.745708	6
C	0.666212	1.139203	0.427842	6
H	-1.685889	0.265693	1.312772	1
H	-1.680459	-1.267307	0.453232	1
H	-1.719949	0.254393	-0.464148	1
H	0.330842	-1.997367	-0.733098	1
H	1.769141	-0.987287	-0.728378	1
H	0.356761	-0.500697	-1.691238	1
H	0.315932	1.671343	1.319712	1
H	0.350892	1.704843	-0.456908	1
H	1.761461	1.146353	0.468952	1
Es	0.444807	1.528495	-0.188550	99
Es	-1.555791	-0.941593	0.435910	99
Es	-1.300169	-0.239857	0.420013	99
Es	0.666171	1.139092	0.427843	99
Es	0.432667	-1.663376	-0.737426	99
Es	0.161431	-0.232583	0.416364	99
Es	1.412855	1.140252	0.449174	99
Es	0.369828	-0.526689	-0.113491	99
Es	0.673639	-0.956349	-0.745611	99
Es	-1.587542	0.104568	-0.195957	99
Es	0.366275	0.373803	0.390448	99
Es	0.420158	1.500714	1.033333	99
Es	-1.559500	0.111146	1.026199	99
Es	-0.478605	-0.218596	0.387376	99
Es	1.420384	-0.969715	-0.734125	99
Es	0.275620	-0.396660	0.710826	99
Es	0.451155	-0.636364	-1.400326	99
30
Properties=species:S:1:pos:R:3:Z:I:1 energy=-173.3166637784496 field_type=dipole dipole="0.000000 0.000000 0.000000" charge=0
C	-1.300289	-0.239857	0.420012	6
N	0.161661	-0.232907	0.416952	7
C	0.673681	-0.956407	-0.745708	6
C	0.666212	1.139203	0.427842	6
H	-1.685889	0.265693	1.312772	1
H	-1.680459	-1.267307	0.453232	1
H	-1.719949	0.254393	-0.464148	1
H	0.330842	-1.997367	-0.733098	1
H	1.769141	-0.987287	-0.728378	1
H	0.356761	-0.500697	-1.691238	1
H	0.315932	1.671343	1.319712	1
H	0.350892	1.704843	-0.456908	1
H	1.761461	1.146353	0.468952	1
Es	0.275496	-0.397076	0.710701	99
Es	-1.587575	0.104506	-0.195997	99
Es	0.369659	-0.526498	-0.113577	99
Es	-0.478462	-0.218537	0.387294	99
Es	-1.300169	-0.239857	0.420013	99
Es	0.161443	-0.232574	0.416383	99
Es	0.451096	-0.636381	-1.400386	99
Es	-1.559530	0.111148	1.026190	99
Es	1.412821	1.140247	0.449093	99
Es	0.666172	1.139093	0.427842	99
Es	0.366495	0.373929	0.390682	99
Es	1.420383	-0.969689	-0.734106	99
Es	0.444801	1.528461	-0.188542	99
Es	0.673640	-0.956349	-0.745612	99
Es	0.420160	1.500751	1.033420	99
Es	-1.555765	-0.941517	0.435962	99
Es	0.432715	-1.663365	-0.737359	99
30
Properties=species:S:1:pos:R:3:Z:I:1 energy=-173.3166637784496 field_type=dipole dipole="0.000000 0.000000 0.000000" charge=0
C	-1.300289	-0.239857	0.420012	6
N	0.161661	-0.232907	0.416952	7
C	0.673681	-0.956407	-0.745708	6
C	0.666212	1.139203	0.427842	6
H	-1.685889	0.265693	1.312772	1
H	-1.680459	-1.267307	0.453232	1
H	-1.719949	0.254393	-0.464148	1
H	0.330842	-1.997367	-0.733098	1
H	1.769141	-0.987287	-0.728378	1
H	0.356761	-0.500697	-1.691238	1
H	0.315932	1.671343	1.319712	1
H	0.350892	1.704843	-0.456908	1
H	1.761461	1.146353	0.468952	1
Es	0.275529	-0.396978	0.710607	99
Es	-1.559500	0.111290	1.026152	99
Es	0.366435	0.374114	0.390717	99
Es	-1.300170	-0.239857	0.420013	99
Es	0.673640	-0.956349	-0.745613	99
Es	0.444795	1.528476	-0.188615	99
Es	0.666171	1.139093	0.427841	99
Es	-1.555788	-0.941506	0.436088	99
Es	-1.587553	0.104404	-0.196084	99
Es	0.451147	-0.636366	-1.400351	99
Es	0.420064	1.500668	1.033323	99
Es	0.161436	-0.232593	0.416384	99
Es	-0.478440	-0.218778	0.387395	99
Es	0.369639	-0.526533	-0.113605	99
Es	1.420446	-0.969754	-0.734073	99
Es	0.432649	-1.663303	-0.737429	99
Es	1.412881	1.140262	0.449250	99
30
Properties=species:S:1:pos:R:3:Z:I:1 energy=-173.3166637784496 field_type=dipole dipole="0.000000 0.000000 0.000000" charge=0
C	-1.300289	-0.239857	0.420012	6
N	0.161661	-0.232907	0.416952	7
C	0.673681	-0.956407	-0.745708	6
C	0.666212	1.139203	0.427842	6
H	-1.685889	0.265693	1.312772	1
H	-1.680459	-1.267307	0.453232	1
H	-1.719949	0.254393	-0.464148	1
H	0.330842	-1.997367	-0.733098	1
H	1.769141	-0.987287	-0.728378	1
H	0.356761	-0.500697	-1.691238	1
H	0.315932	1.671343	1.319712	1
H	0.350892	1.704843	-0.456908	1
H	1.761461	1.146353	0.468952	1
Es	0.432721	-1.663337	-0.737357	99
Es	0.369690	-0.526517	-0.113576	99
Es	-1.587580	0.104493	-0.196023	99
Es	-1.300169	-0.239857	0.420013	99
Es	0.451106	-0.636378	-1.400410	99
Es	0.444751	1.528520	-0.188606	99
Es	0.275569	-0.396947	0.710545	99
Es	1.420369	-0.969723	-0.734087	99
Es	-0.478565	-0.218660	0.387399	99
Es	0.666172	1.139091	0.427841	99
Es	-1.555750	-0.941514	0.435976	99
Es	0.673640	-0.956349	-0.745612	99
Es	1.412835	1.140221	0.449151	99
Es	0.420184	1.500675	1.033390	99
Es	0.161436	-0.232593	0.416397	99
Es	0.366483	0.373994	0.390741	99
Es	-1.559511	0.111169	1.026217	99
