32
Properties=species:S:1:pos:R:3:Z:I:1 energy=-247.0296545774341 field_type=dipole dipole="0.000000 0.000000 0.000000" charge=0
C	-1.541176	-0.802447	0.055447	6
N	-0.086017	-0.731357	-0.005583	7
C	0.364984	0.661593	0.102117	6
C	1.877973	0.685103	0.081017	6
O	2.535663	1.287533	-0.763653	8
H	-1.858296	-1.846397	-0.028813	1
H	-2.005007	-0.242067	-0.762773	1
H	-1.915956	-0.419877	1.010167	1
H	0.220593	-1.105717	-0.906412	1
H	0.043234	1.109813	1.048057	1
H	-0.010527	1.266113	-0.730433	1
H	2.374533	0.137703	0.900858	1
Es	0.365010	0.661452	0.102138	99
Es	-1.541032	-0.802436	0.055440	99
Es	0.107534	1.075592	-0.462703	99
Es	-0.718870	-0.741134	0.004881	99
Es	0.088922	-0.937211	-0.560681	99
Es	-1.860192	-0.410637	-0.507269	99
Es	1.121519	0.671235	0.090016	99
Es	2.847839	1.263937	-0.721883	99
Es	2.535484	1.287377	-0.763435	99
Es	-1.755765	-1.511436	-0.006445	99
Es	1.877965	0.685127	0.080992	99
Es	2.353466	1.431787	-0.975214	99
Es	2.291821	1.269900	-0.312015	99
Es	-0.086270	-0.730972	-0.006055	99
Es	0.104171	-0.107445	0.025307	99
Es	2.298804	0.861231	-0.597645	99
Es	2.205503	0.307640	0.643158	99
Es	0.063181	-0.921027	0.259005	99
Es	0.155076	0.959191	0.742680	99
Es	-1.790309	-0.534066	0.704376	99
32
Properties=species:S:1:pos:R:3:Z:I:1 energy=-247.0296545774341 field_type=dipole dipole="0.000000 0.000000 0.000000" charge=0
C	-1.541176	-0.802447	0.055447	6
N	-0.086017	-0.731357	-0.005583	7
C	0.364984	0.661593	0.102117	6
C	1.877973	0.685103	0.081017	6
O	2.535663	1.287533	-0.763653	8
H	-1.858296	-1.846397	-0.028813	1
H	-2.005007	-0.242067	-0.762773	1
H	-1.915956	-0.419877	1.010167	1
H	0.220593	-1.105717	-0.906412	1
H	0.043234	1.109813	1.048057	1
H	-0.010527	1.266113	-0.730433	1
H	2.374533	0.137703	0.900858	1
Es	1.120728	0.670418	0.090344	99
Es	-0.719751	-0.748238	0.015153	99
Es	0.155489	0.960087	0.743156	99
Es	0.086072	-0.936279	-0.562426	99
Es	0.070278	-0.915564	0.253445	99
Es	-1.790355	-0.534317	0.705041	99
Es	2.297206	0.859707	-0.598918	99
Es	2.535438	1.287358	-0.763416	99
Es	2.366283	1.439536	-0.986428	99
Es	1.877961	0.685119	0.080993	99
Es	0.365010	0.661448	0.102139	99
Es	2.292191	1.273353	-0.310621	99
Es	2.836017	1.254567	-0.711240	99
Es	-1.541031	-0.802437	0.055441	99
Es	2.205216	0.307586	0.643067	99
Es	0.108453	1.075323	-0.463776	99
Es	0.100495	-0.106614	0.022700	99
Es	-0.086250	-0.730969	-0.006066	99
Es	-1.860371	-0.410862	-0.507341	99
Es	-1.755222	-1.511119	-0.006597	99
32
Properties=species:S:1:pos:R:3:Z:I:1 energy=-247.0296545774341 field_type=dipole dipole="0.000000 0.000000 0.000000" charge=0
C	-1.541176	-0.802447	0.055447	6
N	-0.086017	-0.731357	-0.005583	7
C	0.364984	0.661593	0.102117	6
C	1.877973	0.685103	0.081017	6
O	2.535663	1.287533	-0.763653	8
H	-1.858296	-1.846397	-0.028813	1
H	-2.005007	-0.242067	-0.762773	1
H	-1.915956	-0.419877	1.010167	1
H	0.220593	-1.105717	-0.906412	1
H	0.043234	1.109813	1.048057	1
H	-0.010527	1.266113	-0.730433	1
H	2.374533	0.137703	0.900858	1
Es	0.074381	-0.907520	0.243656	99
Es	1.877960	0.685117	0.080993	99
Es	-1.755071	-1.510097	-0.006546	99
Es	2.431330	1.461090	-1.016766	99
Es	-1.541029	-0.802436	0.055442	99
Es	2.785651	1.227147	-0.672413	99
Es	2.535357	1.287385	-0.763450	99
Es	2.205376	0.307747	0.642720	99
Es	0.365011	0.661450	0.102135	99
Es	2.290362	0.863082	-0.602953	99
Es	-1.790705	-0.535071	0.705141	99
Es	0.155259	0.959833	0.742105	99
Es	0.108004	1.074956	-0.463446	99
Es	1.121727	0.670261	0.090584	99
Es	-0.086201	-0.730970	-0.006061	99
Es	0.085406	-0.935153	-0.562245	99
Es	-1.861037	-0.411237	-0.507057	99
Es	0.098408	-0.106878	0.021327	99
Es	2.284608	1.275817	-0.315022	99
Es	-0.720941	-0.756420	0.026504	99
32
Properties=species:S:1:pos:R:3:Z:I:1 energy=-247.0296545774341 field_type=dipole dipole="0.000000 0.000000 0.000000" charge=0
C	-1.541176	-0.802447	0.055447	6
N	-0.086017	-0.731357	-0.005583	7
C	0.364984	0.661593	0.102117	6
C	1.877973	0.685103	0.081017	6
O	2.535663	1.287533	-0.763653	8
H	-1.858296	-1.846397	-0.028813	1
H	-2.005007	-0.242067	-0.762773	1
H	-1.915956	-0.419877	1.010167	1
H	0.220593	-1.105717	-0.906412	1
H	0.043234	1.109813	1.048057	1
H	-0.010527	1.266113	-0.730433	1
H	2.374533	0.137703	0.900858	1
Es	2.337147	1.340647	-0.847258	99
Es	-0.717619	-0.746217	0.012489	99
Es	0.078870	-0.928340	-0.562543	99
Es	0.365010	0.661450	0.102136	99
Es	2.535784	1.287094	-0.763024	99
Es	-1.862031	-0.409308	-0.509938	99
Es	-1.789624	-0.537108	0.705567	99
Es	0.093254	-0.108679	0.016680	99
Es	0.157322	0.958278	0.742054	99
Es	0.081736	-0.923763	0.264989	99
Es	-1.753432	-1.508802	-0.005479	99
Es	-0.086222	-0.730953	-0.006040	99
Es	2.319106	0.854967	-0.589237	99
Es	2.205033	0.306887	0.644048	99
Es	2.822670	1.363807	-0.868492	99
Es	-1.541032	-0.802437	0.055441	99
Es	1.119425	0.669468	0.092242	99
Es	2.311653	1.268181	-0.303135	99
Es	1.877960	0.685120	0.080996	99
Es	0.108847	1.077814	-0.466847	99
32
Properties=species:S:1:pos:R:3:Z:I:1 energy=-247.0296545774341 field_type=dipole dipole="0.000000 0.000000 0.000000" charge=0
C	-1.541176	-0.802447	0.055447	6
N	-0.086017	-0.731357	-0.005583	7
C	0.364984	0.661593	0.102117	6
C	1.877973	0.685103	0.081017	6
O	2.535663	1.287533	-0.763653	8
H	-1.858296	-1.846397	-0.028813	1
H	-2.005007	-0.242067	-0.762773	1
H	-1.915956	-0.419877	1.010167	1
H	0.220593	-1.105717	-0.906412	1
H	0.043234	1.109813	1.048057	1
H	-0.010527	1.266113	-0.730433	1
H	2.374533	0.137703	0.900858	1
Es	0.077836	-0.926582	-0.561034	99
Es	2.313023	1.266974	-0.302587	99
Es	0.092064	-0.109435	0.014846	99
Es	0.365011	0.661454	0.102137	99
Es	2.359236	1.319516	-0.816291	99
Es	2.321397	0.855319	-0.588832	99
Es	-1.541031	-0.802437	0.055442	99
Es	2.205347	0.306867	0.643981	99
Es	-0.086222	-0.730967	-0.006039	99
Es	1.877960	0.685117	0.080994	99
Es	-1.863085	-0.409345	-0.510188	99
Es	2.796964	1.385767	-0.900315	99
Es	0.157231	0.957321	0.741049	99
Es	-1.752983	-1.507387	-0.005226	99
Es	1.120571	0.669481	0.092453	99
Es	-0.718282	-0.746370	0.012534	99
Es	-1.789818	-0.538319	0.705508	99
Es	2.535795	1.287100	-0.763032	99
Es	0.085166	-0.923979	0.265788	99
Es	0.107675	1.078010	-0.466540	99
32
Properties=species:S:1:pos:R:3:Z:I:1 energy=-247.0296545774341 field_type=dipole dipole="0.000000 0.000000 0.000000" charge=0
C	-1.541176	-0.802447	0.055447	6
N	-0.086017	-0.731357	-0.005583	7
C	0.364984	0.661593	0.102117	6
C	1.877973	0.685103	0.081017	6
O	2.535663	1.287533	-0.763653	8
H	-1.858296	-1.846397	-0.028813	1
H	-2.005007	-0.242067	-0.762773	1
H	-1.915956	-0.419877	1.010167	1
H	0.220593	-1.105717	-0.906412	1
H	0.043234	1.109813	1.048057	1
H	-0.010527	1.266113	-0.730433	1
H	2.374533	0.137703	0.900858	1
Es	2.687295	1.216798	-0.657469	99
Es	0.105893	1.075348	-0.463169	99
Es	-1.753594	-1.506240	-0.006475	99
Es	0.083270	-0.908430	0.244321	99
Es	1.877960	0.685117	0.080994	99
Es	2.535264	1.287383	-0.763449	99
Es	0.365011	0.661452	0.102136	99
Es	2.288085	0.868142	-0.606493	99
Es	-0.086234	-0.730988	-0.006028	99
Es	1.123958	0.670381	0.091412	99
Es	0.094087	-0.108680	0.018216	99
Es	0.156016	0.957956	0.738609	99
Es	2.205835	0.307621	0.642604	99
Es	-1.541029	-0.802441	0.055441	99
Es	2.540657	1.467206	-1.023478	99
Es	2.276076	1.274918	-0.319647	99
Es	0.081487	-0.929395	-0.560192	99
Es	-0.721512	-0.758527	0.029556	99
Es	-1.791411	-0.538682	0.705649	99
Es	-1.863256	-0.410835	-0.507890	99
32
Properties=species:S:1:pos:R:3:Z:I:1 energy=-247.0296545774341 field_type=dipole dipole="0.000000 0.000000 0.000000" charge=0
C	-1.541176	-0.802447	0.055447	6
N	-0.086017	-0.731357	-0.005583	7
C	0.364984	0.661593	0.102117	6
C	1.877973	0.685103	0.081017	6
O	2.535663	1.287533	-0.763653	8
H	-1.858296	-1.846397	-0.028813	1
H	-2.005007	-0.242067	-0.762773	1
H	-1.915956	-0.419877	1.010167	1
H	0.220593	-1.105717	-0.906412	1
H	0.043234	1.109813	1.048057	1
H	-0.010527	1.266113	-0.730433	1
H	2.374533	0.137703	0.900858	1
Es	0.156709	0.957651	0.737513	99
Es	-1.863694	-0.410690	-0.508022	99
Es	-1.752899	-1.505065	-0.006927	99
Es	0.085538	-0.908606	0.245287	99
Es	0.080366	-0.928622	-0.559324	99
Es	2.555997	1.466256	-1.021342	99
Es	2.205921	0.307644	0.642631	99
Es	2.535349	1.287379	-0.763444	99
Es	0.365011	0.661452	0.102135	99
Es	-1.541032	-0.802437	0.055442	99
Es	1.877960	0.685116	0.080993	99
Es	-0.086234	-0.730988	-0.006029	99
Es	2.274743	1.273804	-0.319200	99
Es	2.289328	0.869009	-0.607188	99
Es	1.124112	0.670199	0.091771	99
Es	-1.791803	-0.539961	0.706150	99
Es	-0.721522	-0.758635	0.029849	99
Es	0.105618	1.075668	-0.463329	99
Es	0.092474	-0.109061	0.017072	99
Es	2.671914	1.217990	-0.659390	99
32
Properties=species:S:1:pos:R:3:Z:I:1 energy=-247.0296545774341 field_type=dipole dipole="0.000000 0.000000 0.000000" charge=0
C	-1.541176	-0.802447	0.055447	6
N	-0.086017	-0.731357	-0.005583	7
C	0.364984	0.661593	0.102117	6
C	1.877973	0.685103	0.081017	6
O	2.535663	1.287533	-0.763653	8
H	-1.858296	-1.846397	-0.028813	1
H	-2.005007	-0.242067	-0.762773	1
H	-1.915956	-0.419877	1.010167	1
H	0.220593	-1.105717	-0.906412	1
H	0.043234	1.109813	1.048057	1
H	-0.010527	1.266113	-0.730433	1
H	2.374533	0.137703	0.900858	1
Es	0.157880	0.956241	0.737928	99
Es	-0.719821	-0.747700	0.014363	99
Es	2.307527	1.266207	-0.302885	99
Es	-1.790783	-0.541305	0.706037	99
Es	-0.086209	-0.730990	-0.006034	99
Es	0.075912	-0.923347	-0.558403	99
Es	2.318253	0.857440	-0.591118	99
Es	2.753064	1.412411	-0.939467	99
Es	0.365011	0.661453	0.102136	99
Es	-1.541032	-0.802437	0.055441	99
Es	0.089239	-0.111103	0.013552	99
Es	-1.864573	-0.409289	-0.510180	99
Es	1.877960	0.685117	0.080994	99
Es	-1.751834	-1.504131	-0.005908	99
Es	2.205750	0.306903	0.643761	99
Es	2.535781	1.287151	-0.763104	99
Es	1.122446	0.669468	0.093027	99
Es	0.105975	1.078068	-0.465937	99
Es	2.412008	1.291357	-0.774303	99
Es	0.091303	-0.923411	0.264748	99
32
Properties=species:S:1:pos:R:3:Z:I:1 energy=-247.0296545774341 field_type=dipole dipole="0.000000 0.000000 0.000000" charge=0
C	-1.541176	-0.802447	0.055447	6
N	-0.086017	-0.731357	-0.005583	7
C	0.364984	0.661593	0.102117	6
C	1.877973	0.685103	0.081017	6
O	2.535663	1.287533	-0.763653	8
H	-1.858296	-1.846397	-0.028813	1
H	-2.005007	-0.242067	-0.762773	1
H	-1.915956	-0.419877	1.010167	1
H	0.220593	-1.105717	-0.906412	1
H	0.043234	1.109813	1.048057	1
H	-0.010527	1.266113	-0.730433	1
H	2.374533	0.137703	0.900858	1
Es	-1.751079	-1.502564	-0.006715	99
Es	2.743349	1.416907	-0.946556	99
Es	1.877960	0.685116	0.080994	99
Es	2.535897	1.287062	-0.762972	99
Es	2.205829	0.306946	0.643703	99
Es	-0.720125	-0.748009	0.015065	99
Es	0.105653	1.078051	-0.465817	99
Es	0.365011	0.661452	0.102135	99
Es	0.158495	0.956197	0.736813	99
Es	-1.541030	-0.802436	0.055442	99
Es	0.087974	-0.112270	0.015124	99
Es	2.315862	0.855028	-0.587221	99
Es	0.092353	-0.923078	0.264165	99
Es	0.075944	-0.922129	-0.559172	99
Es	-0.086215	-0.731002	-0.006008	99
Es	1.122760	0.669336	0.093088	99
Es	-1.864774	-0.409379	-0.510182	99
Es	2.425446	1.285625	-0.766407	99
Es	-1.791569	-0.542720	0.706832	99
Es	2.306115	1.269970	-0.307663	99
32
Properties=species:S:1:pos:R:3:Z:I:1 energy=-247.0296545774341 field_type=dipole dipole="0.000000 0.000000 0.000000" charge=0
C	-1.541176	-0.802447	0.055447	6
N	-0.086017	-0.731357	-0.005583	7
C	0.364984	0.661593	0.102117	6
C	1.877973	0.685103	0.081017	6
O	2.535663	1.287533	-0.763653	8
H	-1.858296	-1.846397	-0.028813	1
H	-2.005007	-0.242067	-0.762773	1
H	-1.915956	-0.419877	1.010167	1
H	0.220593	-1.105717	-0.906412	1
H	0.043234	1.109813	1.048057	1
H	-0.010527	1.266113	-0.730433	1
H	2.374533	0.137703	0.900858	1
Es	2.644578	1.221777	-0.665702	99
Es	1.124202	0.670004	0.092112	99
Es	2.205989	0.307510	0.642719	99
Es	-1.751662	-1.502795	-0.007777	99
Es	-1.864215	-0.410435	-0.508407	99
Es	0.077898	-0.927056	-0.557178	99
Es	0.365011	0.661454	0.102136	99
Es	-1.792605	-0.542240	0.707136	99
Es	0.105315	1.076057	-0.463650	99
Es	0.089666	-0.109022	0.016754	99
Es	2.535190	1.287401	-0.763482	99
Es	2.269099	1.264711	-0.315236	99
Es	0.088937	-0.909345	0.245433	99
Es	2.297283	0.876200	-0.609955	99
Es	-0.086211	-0.730999	-0.006054	99
Es	-1.541030	-0.802438	0.055442	99
Es	1.877960	0.685118	0.080994	99
Es	-0.721438	-0.759666	0.030952	99
Es	0.158791	0.957414	0.734566	99
Es	2.581100	1.464456	-1.016155	99
