31
Properties=species:S:1:pos:R:3:Z:I:1 energy=-551.3487263662054 field_type=dipole dipole="0.000000 0.000000 0.000000" charge=0
S	-0.560830	-1.666903	0.023457	16
C	-1.346230	-0.145823	0.007157	6
C	-0.449370	0.899427	-0.009703	6
C	0.901650	0.444647	-0.009213	6
C	0.983750	-0.930433	0.007997	6
H	-2.426330	-0.093123	0.010727	1
H	-0.748140	1.940607	-0.021803	1
H	1.769630	1.092967	-0.020893	1
H	1.875870	-1.541363	0.012277	1
Es	0.259890	-1.316939	-0.000552	99
Es	0.901428	-0.236533	-0.314430	99
Es	0.241925	0.715811	-0.009239	99
Es	0.901859	0.444682	-0.009209	99
Es	-0.853631	0.364139	0.310849	99
Es	-2.065016	-0.122168	0.007675	99
Es	1.571355	-1.346876	0.011410	99
Es	-0.558973	-1.670432	0.025258	99
Es	-1.006314	-0.895059	0.002131	99
Es	-0.707111	-2.105399	-0.154781	99
Es	0.907458	-0.229093	0.308208	99
Es	-1.346844	-0.145969	0.007164	99
Es	-0.623242	-1.755096	0.080655	99
Es	-0.493556	-1.704333	-0.007557	99
Es	-0.648397	1.599926	-0.019385	99
Es	-0.611713	-1.645595	-0.067419	99
Es	-0.870222	0.359712	-0.304529	99
Es	-0.515696	-1.557637	0.091066	99
Es	-0.503952	-1.502754	0.228050	99
Es	0.983581	-0.930545	0.008052	99
Es	-0.449438	0.899303	-0.009860	99
Es	1.482547	0.882302	-0.016100	99
31
Properties=species:S:1:pos:R:3:Z:I:1 energy=-551.3487263662054 field_type=dipole dipole="0.000000 0.000000 0.000000" charge=0
S	-0.560830	-1.666903	0.023457	16
C	-1.346230	-0.145823	0.007157	6
C	-0.449370	0.899427	-0.009703	6
C	0.901650	0.444647	-0.009213	6
C	0.983750	-0.930433	0.007997	6
H	-2.426330	-0.093123	0.010727	1
H	-0.748140	1.940607	-0.021803	1
H	1.769630	1.092967	-0.020893	1
H	1.875870	-1.541363	0.012277	1
Es	-0.474583	-1.656618	0.020817	99
Es	0.983441	-0.929723	0.007935	99
Es	0.901804	-0.234895	-0.303825	99
Es	-1.346590	-0.145866	0.007184	99
Es	-0.857512	0.357880	-0.306318	99
Es	-0.542049	-1.669160	0.099458	99
Es	-0.542863	-1.508779	-0.037517	99
Es	1.484862	0.886105	-0.016014	99
Es	-2.065055	-0.120738	0.008852	99
Es	0.258845	-1.319841	0.020976	99
Es	-0.646991	1.603076	-0.016729	99
Es	0.901714	0.444698	-0.009253	99
Es	-0.575302	-1.533142	-0.021588	99
Es	-0.449742	0.899006	-0.009236	99
Es	0.902872	-0.225950	0.302629	99
Es	-0.551513	-1.673399	0.009258	99
Es	0.238193	0.707815	-0.010263	99
Es	-1.003620	-0.893578	0.030359	99
Es	-0.720965	-2.140361	0.052095	99
Es	-0.855543	0.367731	0.303121	99
Es	-0.615950	-1.768291	0.025278	99
Es	1.572482	-1.344522	0.010239	99
31
Properties=species:S:1:pos:R:3:Z:I:1 energy=-551.3487263662054 field_type=dipole dipole="0.000000 0.000000 0.000000" charge=0
S	-0.560830	-1.666903	0.023457	16
C	-1.346230	-0.145823	0.007157	6
C	-0.449370	0.899427	-0.009703	6
C	0.901650	0.444647	-0.009213	6
C	0.983750	-0.930433	0.007997	6
H	-2.426330	-0.093123	0.010727	1
H	-0.748140	1.940607	-0.021803	1
H	1.769630	1.092967	-0.020893	1
H	1.875870	-1.541363	0.012277	1
Es	-0.560335	-1.636779	0.047768	99
Es	-0.721182	-2.143782	0.019760	99
Es	0.899743	-0.221305	0.300277	99
Es	-0.449401	0.899453	-0.009701	99
Es	-1.001624	-0.894704	0.017849	99
Es	-0.647949	1.604483	-0.017584	99
Es	1.572694	-1.344049	0.011427	99
Es	-2.064919	-0.120341	0.010196	99
Es	-0.590858	-1.583143	-0.062323	99
Es	0.901463	-0.233309	-0.302810	99
Es	0.983618	-0.930606	0.007991	99
Es	-0.866587	0.361199	-0.299191	99
Es	-0.508036	-1.528890	0.033299	99
Es	-0.508641	-1.736717	0.055519	99
Es	1.485301	0.887082	-0.017460	99
Es	-0.486362	-1.612991	0.019717	99
Es	0.257487	-1.319317	0.012653	99
Es	0.238303	0.705775	-0.010069	99
Es	-0.645308	-1.711191	0.054318	99
Es	-0.846794	0.363365	0.297895	99
Es	0.901509	0.443252	-0.009276	99
Es	-1.346187	-0.146039	0.007204	99
31
Properties=species:S:1:pos:R:3:Z:I:1 energy=-551.3487263662054 field_type=dipole dipole="0.000000 0.000000 0.000000" charge=0
S	-0.560830	-1.666903	0.023457	16
C	-1.346230	-0.145823	0.007157	6
C	-0.449370	0.899427	-0.009703	6
C	0.901650	0.444647	-0.009213	6
C	0.983750	-0.930433	0.007997	6
H	-2.426330	-0.093123	0.010727	1
H	-0.748140	1.940607	-0.021803	1
H	1.769630	1.092967	-0.020893	1
H	1.875870	-1.541363	0.012277	1
Es	-0.555972	-1.669624	0.034746	99
Es	-0.514622	-1.543895	0.002097	99
Es	-0.449280	0.899411	-0.009647	99
Es	-0.496141	-1.478416	0.016464	99
Es	-0.718629	-2.143601	0.031781	99
Es	1.572629	-1.343617	0.012749	99
Es	-1.346207	-0.146025	0.007165	99
Es	0.881511	-0.223786	-0.290082	99
Es	-0.870832	0.371285	0.288739	99
Es	0.901507	0.444790	-0.009206	99
Es	0.257167	-1.318985	0.018609	99
Es	-0.655983	-1.704708	0.072904	99
Es	-0.568942	-1.668837	0.022557	99
Es	0.918980	-0.232730	0.284512	99
Es	-2.066204	-0.119723	0.007721	99
Es	-1.000592	-0.894500	0.015118	99
Es	-0.839945	0.352740	-0.291095	99
Es	0.983697	-0.930668	0.008005	99
Es	-0.511259	-1.745250	-0.014187	99
Es	0.236462	0.706631	-0.007828	99
Es	-0.647399	1.604927	-0.017420	99
Es	1.485990	0.886028	-0.016245	99
31
Properties=species:S:1:pos:R:3:Z:I:1 energy=-551.3487263662054 field_type=dipole dipole="0.000000 0.000000 0.000000" charge=0
S	-0.560830	-1.666903	0.023457	16
C	-1.346230	-0.145823	0.007157	6
C	-0.449370	0.899427	-0.009703	6
C	0.901650	0.444647	-0.009213	6
C	0.983750	-0.930433	0.007997	6
H	-2.426330	-0.093123	0.010727	1
H	-0.748140	1.940607	-0.021803	1
H	1.769630	1.092967	-0.020893	1
H	1.875870	-1.541363	0.012277	1
Es	-0.451219	-1.630093	0.076010	99
Es	-0.545733	-1.734604	-0.017229	99
Es	0.931112	-0.236428	0.263997	99
Es	-0.449278	0.899356	-0.009681	99
Es	-0.835766	0.353015	-0.287895	99
Es	1.571737	-1.343872	0.011729	99
Es	-0.573110	-1.612414	-0.057918	99
Es	0.901164	0.444050	-0.009452	99
Es	-0.875881	0.371333	0.282730	99
Es	1.484902	0.887597	-0.018018	99
Es	-0.495220	-1.478726	0.033104	99
Es	-0.615626	-1.648114	0.025494	99
Es	0.869063	-0.217107	-0.270544	99
Es	0.237976	0.704701	-0.002819	99
Es	-2.065175	-0.119710	0.010799	99
Es	-0.647316	1.604737	-0.019035	99
Es	0.983757	-0.930644	0.008012	99
Es	-0.720182	-2.143996	0.023825	99
Es	-1.000717	-0.894573	0.018969	99
Es	-0.618327	-1.708816	0.083895	99
Es	0.255945	-1.318242	0.014446	99
Es	-1.346169	-0.146002	0.007038	99
31
Properties=species:S:1:pos:R:3:Z:I:1 energy=-551.3487263662054 field_type=dipole dipole="0.000000 0.000000 0.000000" charge=0
S	-0.560830	-1.666903	0.023457	16
C	-1.346230	-0.145823	0.007157	6
C	-0.449370	0.899427	-0.009703	6
C	0.901650	0.444647	-0.009213	6
C	0.983750	-0.930433	0.007997	6
H	-2.426330	-0.093123	0.010727	1
H	-0.748140	1.940607	-0.021803	1
H	1.769630	1.092967	-0.020893	1
H	1.875870	-1.541363	0.012277	1
Es	-0.576535	-1.556464	-0.002383	99
Es	-0.449330	0.899422	-0.009739	99
Es	0.983570	-0.930449	0.008153	99
Es	0.237701	0.703899	-0.010400	99
Es	-0.721661	-2.144781	0.017831	99
Es	-0.517389	-1.573653	0.064766	99
Es	-1.001023	-0.895879	0.005408	99
Es	-0.548548	-1.582612	-0.015515	99
Es	-0.646299	1.605220	-0.017997	99
Es	-0.896339	0.376544	0.227089	99
Es	-1.346203	-0.146040	0.007165	99
Es	-0.482653	-1.729962	0.012453	99
Es	-0.634076	-1.721148	0.076841	99
Es	0.901633	0.444657	-0.009236	99
Es	-0.810356	0.348658	-0.230172	99
Es	1.485692	0.887666	-0.016592	99
Es	-2.064363	-0.119336	0.007302	99
Es	1.571593	-1.343679	0.014249	99
Es	0.907980	-0.234088	-0.299712	99
Es	0.891246	-0.221051	0.297988	99
Es	0.255496	-1.318114	0.025922	99
Es	-0.544199	-1.647364	0.014036	99
31
Properties=species:S:1:pos:R:3:Z:I:1 energy=-551.3487263662054 field_type=dipole dipole="0.000000 0.000000 0.000000" charge=0
S	-0.560830	-1.666903	0.023457	16
C	-1.346230	-0.145823	0.007157	6
C	-0.449370	0.899427	-0.009703	6
C	0.901650	0.444647	-0.009213	6
C	0.983750	-0.930433	0.007997	6
H	-2.426330	-0.093123	0.010727	1
H	-0.748140	1.940607	-0.021803	1
H	1.769630	1.092967	-0.020893	1
H	1.875870	-1.541363	0.012277	1
Es	-1.346223	-0.146036	0.007176	99
Es	-0.448216	0.899062	-0.009684	99
Es	-0.722382	-2.143172	0.022371	99
Es	1.486757	0.887351	-0.016762	99
Es	0.235973	0.701438	-0.012550	99
Es	-0.610032	-1.553522	0.003772	99
Es	-0.820677	0.352287	-0.254711	99
Es	-1.000537	-0.895030	0.011444	99
Es	1.572908	-1.344408	0.010171	99
Es	-0.645695	1.605884	-0.018165	99
Es	0.983606	-0.930579	0.007988	99
Es	-0.453374	-1.680532	-0.015887	99
Es	-0.559432	-1.665634	0.023750	99
Es	-0.888214	0.374973	0.253572	99
Es	-0.604070	-1.721461	-0.026726	99
Es	0.886505	-0.226253	-0.290765	99
Es	-0.574866	-1.714119	0.138985	99
Es	-0.496783	-1.479116	0.018275	99
Es	0.901639	0.444501	-0.008992	99
Es	-2.065782	-0.119630	0.008035	99
Es	0.254287	-1.316271	0.022773	99
Es	0.910546	-0.228286	0.293389	99
31
Properties=species:S:1:pos:R:3:Z:I:1 energy=-551.3487263662054 field_type=dipole dipole="0.000000 0.000000 0.000000" charge=0
S	-0.560830	-1.666903	0.023457	16
C	-1.346230	-0.145823	0.007157	6
C	-0.449370	0.899427	-0.009703	6
C	0.901650	0.444647	-0.009213	6
C	0.983750	-0.930433	0.007997	6
H	-2.426330	-0.093123	0.010727	1
H	-0.748140	1.940607	-0.021803	1
H	1.769630	1.092967	-0.020893	1
H	1.875870	-1.541363	0.012277	1
Es	-0.430849	-1.706112	0.034836	99
Es	-0.604354	-1.728922	0.012559	99
Es	-2.060188	-0.123226	0.008276	99
Es	-0.612051	-1.603060	0.072704	99
Es	1.485393	0.887791	-0.016233	99
Es	0.901455	0.444048	-0.008802	99
Es	-1.346095	-0.145947	0.007129	99
Es	-0.636822	1.602264	-0.018817	99
Es	0.961221	-0.254652	0.017401	99
Es	-0.722106	-2.144156	0.043994	99
Es	0.226130	0.708708	-0.003021	99
Es	0.255249	-1.319093	0.023366	99
Es	0.983599	-0.930588	0.008025	99
Es	1.572364	-1.343569	0.011756	99
Es	-0.448899	0.899212	-0.009671	99
Es	-0.856392	0.365443	0.323035	99
Es	0.837832	-0.196664	-0.028586	99
Es	-0.566046	-1.613481	-0.000197	99
Es	-0.523675	-1.494727	-0.012648	99
Es	-0.855621	0.357795	-0.322807	99
Es	-1.004450	-0.893249	0.016942	99
Es	-0.559756	-1.666370	0.008218	99
31
Properties=species:S:1:pos:R:3:Z:I:1 energy=-551.3487263662054 field_type=dipole dipole="0.000000 0.000000 0.000000" charge=0
S	-0.560830	-1.666903	0.023457	16
C	-1.346230	-0.145823	0.007157	6
C	-0.449370	0.899427	-0.009703	6
C	0.901650	0.444647	-0.009213	6
C	0.983750	-0.930433	0.007997	6
H	-2.426330	-0.093123	0.010727	1
H	-0.748140	1.940607	-0.021803	1
H	1.769630	1.092967	-0.020893	1
H	1.875870	-1.541363	0.012277	1
Es	0.897215	-0.223468	0.302681	99
Es	-0.902870	0.377480	0.197950	99
Es	-0.647332	1.604800	-0.018559	99
Es	-1.000236	-0.896119	0.002804	99
Es	0.902843	-0.235709	-0.302734	99
Es	-0.721005	-2.145752	0.036417	99
Es	-0.803527	0.350092	-0.210688	99
Es	-0.504905	-1.699505	0.001650	99
Es	-2.065649	-0.120089	0.009945	99
Es	0.256117	-1.316610	0.026013	99
Es	1.571003	-1.344431	0.011052	99
Es	0.983601	-0.930580	0.007959	99
Es	-0.660070	-1.749684	0.045118	99
Es	0.237531	0.706302	-0.000289	99
Es	0.901646	0.444666	-0.009240	99
Es	1.485317	0.886991	-0.018534	99
Es	-0.538919	-1.529299	0.040146	99
Es	-0.564797	-1.648237	-0.038256	99
Es	-0.521833	-1.679032	0.031296	99
Es	-0.449502	0.899098	-0.009497	99
Es	-0.512492	-1.503438	0.055108	99
Es	-1.346199	-0.146029	0.007119	99
31
Properties=species:S:1:pos:R:3:Z:I:1 energy=-551.3487263662054 field_type=dipole dipole="0.000000 0.000000 0.000000" charge=0
S	-0.560830	-1.666903	0.023457	16
C	-1.346230	-0.145823	0.007157	6
C	-0.449370	0.899427	-0.009703	6
C	0.901650	0.444647	-0.009213	6
C	0.983750	-0.930433	0.007997	6
H	-2.426330	-0.093123	0.010727	1
H	-0.748140	1.940607	-0.021803	1
H	1.769630	1.092967	-0.020893	1
H	1.875870	-1.541363	0.012277	1
Es	1.571929	-1.343811	0.010099	99
Es	0.983669	-0.930390	0.007992	99
Es	0.901810	-0.234777	-0.299455	99
Es	-0.638691	-1.750697	-0.000666	99
Es	-0.543996	-1.655885	0.006357	99
Es	-0.721440	-2.145500	0.051418	99
Es	-0.596907	-1.551347	0.034804	99
Es	-2.064127	-0.119771	0.009431	99
Es	-0.646254	1.605137	-0.017111	99
Es	0.255092	-1.317738	0.009945	99
Es	-1.346284	-0.146014	0.007154	99
Es	-0.509968	-1.498318	0.018693	99
Es	-0.899588	0.370691	-0.223216	99
Es	-0.455733	-1.691261	0.019977	99
Es	-0.449297	0.899434	-0.009706	99
Es	-0.557737	-1.664016	0.031600	99
Es	0.894625	-0.222060	0.299537	99
Es	-0.806691	0.357102	0.223921	99
Es	0.901649	0.444667	-0.009190	99
Es	0.237693	0.704753	-0.011099	99
Es	1.486401	0.886948	-0.018482	99
Es	-1.000219	-0.895699	0.025453	99
31
Properties=species:S:1:pos:R:3:Z:I:1 energy=-551.3487263662054 field_type=dipole dipole="0.000000 0.000000 0.000000" charge=0
S	-0.560830	-1.666903	0.023457	16
C	-1.346230	-0.145823	0.007157	6
C	-0.449370	0.899427	-0.009703	6
C	0.901650	0.444647	-0.009213	6
C	0.983750	-0.930433	0.007997	6
H	-2.426330	-0.093123	0.010727	1
H	-0.748140	1.940607	-0.021803	1
H	1.769630	1.092967	-0.020893	1
H	1.875870	-1.541363	0.012277	1
Es	1.572189	-1.343688	0.013225	99
Es	-1.346177	-0.146074	0.007137	99
Es	0.983573	-0.930352	0.007840	99
Es	-0.552963	-1.773655	0.023694	99
Es	-0.478963	-1.590748	-0.025081	99
Es	-0.449339	0.899425	-0.009739	99
Es	0.254991	-1.318001	0.028725	99
Es	0.901640	0.444598	-0.009253	99
Es	-0.857874	0.369276	0.296271	99
Es	-0.498550	-1.484624	0.015204	99
Es	-0.597450	-1.662049	-0.024088	99
Es	0.940880	-0.249405	-0.214803	99
Es	-0.567244	-1.667604	0.090460	99
Es	-1.000920	-0.895948	0.005316	99
Es	0.857382	-0.205380	0.211004	99
Es	-0.646007	1.605803	-0.018656	99
Es	-0.851162	0.356178	-0.301468	99
Es	-0.718826	-2.145272	0.033502	99
Es	-2.064443	-0.118985	0.007645	99
Es	1.486194	0.887250	-0.017180	99
Es	-0.607857	-1.632467	0.051627	99
Es	0.236865	0.703170	-0.003925	99
31
Properties=species:S:1:pos:R:3:Z:I:1 energy=-551.3487263662054 field_type=dipole dipole="0.000000 0.000000 0.000000" charge=0
S	-0.560830	-1.666903	0.023457	16
C	-1.346230	-0.145823	0.007157	6
C	-0.449370	0.899427	-0.009703	6
C	0.901650	0.444647	-0.009213	6
C	0.983750	-0.930433	0.007997	6
H	-2.426330	-0.093123	0.010727	1
H	-0.748140	1.940607	-0.021803	1
H	1.769630	1.092967	-0.020893	1
H	1.875870	-1.541363	0.012277	1
Es	-0.722040	-2.145610	0.022716	99
Es	0.983611	-0.930584	0.008006	99
Es	-1.346194	-0.146045	0.007153	99
Es	0.853603	-0.205599	0.208148	99
Es	-1.000934	-0.895643	0.008221	99
Es	0.255632	-1.318533	0.021734	99
Es	-0.532177	-1.575871	-0.036787	99
Es	-0.540246	-1.670775	0.034903	99
Es	-2.064616	-0.118956	0.005884	99
Es	-0.539563	-1.512589	0.016023	99
Es	-0.532894	-1.602893	0.085228	99
Es	-0.863085	0.370403	0.295671	99
Es	-0.646617	-1.764951	0.033019	99
Es	-0.646213	1.605681	-0.017965	99
Es	1.572061	-1.343251	0.015736	99
Es	-0.845296	0.355264	-0.295612	99
Es	1.485949	0.887504	-0.016070	99
Es	0.901626	0.444662	-0.009231	99
Es	-0.507971	-1.684401	0.013596	99
Es	0.236480	0.703034	-0.013949	99
Es	0.944170	-0.248834	-0.209253	99
Es	-0.449348	0.899432	-0.009710	99
31
Properties=species:S:1:pos:R:3:Z:I:1 energy=-551.3487263662054 field_type=dipole dipole="0.000000 0.000000 0.000000" charge=0
S	-0.560830	-1.666903	0.023457	16
C	-1.346230	-0.145823	0.007157	6
C	-0.449370	0.899427	-0.009703	6
C	0.901650	0.444647	-0.009213	6
C	0.983750	-0.930433	0.007997	6
H	-2.426330	-0.093123	0.010727	1
H	-0.748140	1.940607	-0.021803	1
H	1.769630	1.092967	-0.020893	1
H	1.875870	-1.541363	0.012277	1
Es	-0.557078	-1.696627	-0.009086	99
Es	0.983609	-0.930585	0.008004	99
Es	-0.903991	0.372916	-0.209066	99
Es	-1.346212	-0.146027	0.007166	99
Es	-2.064482	-0.119577	0.011747	99
Es	-0.528717	-1.506113	0.019620	99
Es	-0.534216	-1.657461	0.021903	99
Es	0.901650	0.444670	-0.009215	99
Es	-0.464682	-1.550475	0.016008	99
Es	0.236108	0.702920	-0.010334	99
Es	-0.569849	-1.670209	0.000100	99
Es	-0.722411	-2.145471	0.029228	99
Es	-0.999635	-0.895039	0.018459	99
Es	-0.644312	-1.730997	0.093631	99
Es	0.886210	-0.228258	-0.297932	99
Es	-0.804685	0.356298	0.208709	99
Es	0.254947	-1.318190	0.007924	99
Es	1.572050	-1.343819	0.009409	99
Es	-0.449088	0.899388	-0.009698	99
Es	1.485748	0.887665	-0.016955	99
Es	0.911776	-0.228976	0.293508	99
Es	-0.646801	1.605415	-0.015672	99
31
Properties=species:S:1:pos:R:3:Z:I:1 energy=-551.3487263662054 field_type=dipole dipole="0.000000 0.000000 0.000000" charge=0
S	-0.560830	-1.666903	0.023457	16
C	-1.346230	-0.145823	0.007157	6
C	-0.449370	0.899427	-0.009703	6
C	0.901650	0.444647	-0.009213	6
C	0.983750	-0.930433	0.007997	6
H	-2.426330	-0.093123	0.010727	1
H	-0.748140	1.940607	-0.021803	1
H	1.769630	1.092967	-0.020893	1
H	1.875870	-1.541363	0.012277	1
Es	-0.482578	-1.725163	0.057244	99
Es	1.571128	-1.343879	0.008746	99
Es	0.237549	0.705033	-0.010453	99
Es	-0.894685	0.370399	-0.242210	99
Es	0.901649	0.444669	-0.009205	99
Es	-0.449355	0.899443	-0.009713	99
Es	0.866308	-0.220197	-0.263349	99
Es	-0.551955	-1.533075	0.063475	99
Es	-0.529252	-1.665879	0.019065	99
Es	-0.660864	-1.733163	0.003744	99
Es	0.983613	-0.930585	0.008003	99
Es	-0.544707	-1.645963	-0.034908	99
Es	0.254633	-1.318773	-0.003103	99
Es	-0.646150	1.605343	-0.017635	99
Es	-1.346213	-0.146028	0.007158	99
Es	1.485807	0.887536	-0.018499	99
Es	-1.000576	-0.895349	0.029458	99
Es	0.932587	-0.239134	0.260215	99
Es	-0.535973	-1.505573	0.032537	99
Es	-0.722320	-2.145592	0.032276	99
Es	-2.064010	-0.119942	0.012650	99
Es	-0.808702	0.357319	0.241964	99
31
Properties=species:S:1:pos:R:3:Z:I:1 energy=-551.3487263662054 field_type=dipole dipole="0.000000 0.000000 0.000000" charge=0
S	-0.560830	-1.666903	0.023457	16
C	-1.346230	-0.145823	0.007157	6
C	-0.449370	0.899427	-0.009703	6
C	0.901650	0.444647	-0.009213	6
C	0.983750	-0.930433	0.007997	6
H	-2.426330	-0.093123	0.010727	1
H	-0.748140	1.940607	-0.021803	1
H	1.769630	1.092967	-0.020893	1
H	1.875870	-1.541363	0.012277	1
Es	-0.892736	0.369539	-0.248494	99
Es	-0.500633	-1.628470	0.090814	99
Es	-0.568347	-1.679490	0.039240	99
Es	-1.346233	-0.146038	0.007150	99
Es	-0.528560	-1.671350	0.015814	99
Es	-2.063145	-0.119551	0.009408	99
Es	1.570872	-1.343220	0.011154	99
Es	-0.658772	-1.677065	0.060543	99
Es	-0.449346	0.899438	-0.009719	99
Es	-0.490090	-1.566417	0.016292	99
Es	0.255181	-1.318751	0.014130	99
Es	0.983610	-0.930579	0.007991	99
Es	0.239368	0.702340	-0.016880	99
Es	1.484787	0.888810	-0.017164	99
Es	-0.813203	0.358009	0.250104	99
Es	0.939846	-0.248471	-0.224718	99
Es	0.854233	-0.205881	0.227690	99
Es	-0.721525	-2.143494	0.017693	99
Es	-0.552372	-1.593507	-0.070648	99
Es	-0.645245	1.605820	-0.018056	99
Es	-1.000808	-0.895798	0.014335	99
Es	0.899053	0.445574	-0.009219	99
31
Properties=species:S:1:pos:R:3:Z:I:1 energy=-551.3487263662054 field_type=dipole dipole="0.000000 0.000000 0.000000" charge=0
S	-0.560830	-1.666903	0.023457	16
C	-1.346230	-0.145823	0.007157	6
C	-0.449370	0.899427	-0.009703	6
C	0.901650	0.444647	-0.009213	6
C	0.983750	-0.930433	0.007997	6
H	-2.426330	-0.093123	0.010727	1
H	-0.748140	1.940607	-0.021803	1
H	1.769630	1.092967	-0.020893	1
H	1.875870	-1.541363	0.012277	1
Es	-0.999963	-0.896313	0.001092	99
Es	0.855254	-0.206879	0.217588	99
Es	-0.825585	0.353330	-0.272135	99
Es	-0.721705	-2.146532	0.028769	99
Es	1.485244	0.888521	-0.015931	99
Es	-0.879862	0.373402	0.271228	99
Es	0.236659	0.702934	-0.012106	99
Es	0.983613	-0.930585	0.008000	99
Es	-0.511264	-1.578614	0.046576	99
Es	-1.346212	-0.146027	0.007160	99
Es	-0.449355	0.899443	-0.009693	99
Es	1.571380	-1.343014	0.014279	99
Es	0.254547	-1.318197	0.025202	99
Es	-0.601052	-1.698981	-0.032882	99
Es	-0.543413	-1.701611	0.061838	99
Es	-0.646165	1.606007	-0.018895	99
Es	-0.477365	-1.547445	0.040636	99
Es	-0.608936	-1.618194	0.007788	99
Es	0.941394	-0.248846	-0.219501	99
Es	-2.063854	-0.119087	0.006796	99
Es	-0.558882	-1.666625	0.020890	99
Es	0.901460	0.444760	-0.009240	99
31
Properties=species:S:1:pos:R:3:Z:I:1 energy=-551.3487263662054 field_type=dipole dipole="0.000000 0.000000 0.000000" charge=0
S	-0.560830	-1.666903	0.023457	16
C	-1.346230	-0.145823	0.007157	6
C	-0.449370	0.899427	-0.009703	6
C	0.901650	0.444647	-0.009213	6
C	0.983750	-0.930433	0.007997	6
H	-2.426330	-0.093123	0.010727	1
H	-0.748140	1.940607	-0.021803	1
H	1.769630	1.092967	-0.020893	1
H	1.875870	-1.541363	0.012277	1
Es	0.236837	0.704717	-0.013118	99
Es	0.852197	-0.203841	0.214215	99
Es	-1.346224	-0.146042	0.007150	99
Es	0.983452	-0.930940	0.008193	99
Es	1.485865	0.887198	-0.016257	99
Es	0.943016	-0.249271	-0.210521	99
Es	-0.490635	-1.499479	0.010045	99
Es	-1.000593	-0.895781	0.002250	99
Es	1.571366	-1.343202	0.012536	99
Es	-0.625637	-1.689232	-0.045706	99
Es	-0.646264	1.605535	-0.017855	99
Es	-0.882332	0.373960	0.269417	99
Es	-0.558303	-1.634430	0.090659	99
Es	0.901640	0.444598	-0.009215	99
Es	-0.449354	0.899440	-0.009685	99
Es	-0.721915	-2.145624	0.029347	99
Es	-2.063948	-0.119620	0.006602	99
Es	-0.825311	0.351547	-0.273743	99
Es	-0.479915	-1.627121	-0.002832	99
Es	0.255486	-1.318744	0.030498	99
Es	-0.567200	-1.735694	0.068413	99
Es	-0.576290	-1.626528	0.017065	99
31
Properties=species:S:1:pos:R:3:Z:I:1 energy=-551.3487263662054 field_type=dipole dipole="0.000000 0.000000 0.000000" charge=0
S	-0.560830	-1.666903	0.023457	16
C	-1.346230	-0.145823	0.007157	6
C	-0.449370	0.899427	-0.009703	6
C	0.901650	0.444647	-0.009213	6
C	0.983750	-0.930433	0.007997	6
H	-2.426330	-0.093123	0.010727	1
H	-0.748140	1.940607	-0.021803	1
H	1.769630	1.092967	-0.020893	1
H	1.875870	-1.541363	0.012277	1
Es	-1.346211	-0.146028	0.007161	99
Es	-0.512096	-1.631497	0.063201	99
Es	-0.919740	0.379287	0.005675	99
Es	0.236295	0.703467	-0.009996	99
Es	0.837269	-0.177049	-0.247769	99
Es	-2.064066	-0.121558	0.010374	99
Es	-0.773041	0.306459	-0.008132	99
Es	-0.502159	-1.530221	0.020864	99
Es	-0.994161	-0.896678	0.022663	99
Es	0.983609	-0.930585	0.007996	99
Es	-0.711400	-2.123338	0.030720	99
Es	-0.449355	0.899444	-0.009704	99
Es	0.901649	0.444670	-0.009215	99
Es	0.254952	-1.316752	0.010789	99
Es	-0.605836	-1.793821	0.021521	99
Es	-0.646600	1.604497	-0.018479	99
Es	1.570346	-1.341883	0.009821	99
Es	0.925071	-0.226832	0.249164	99
Es	-0.554998	-1.668628	0.017327	99
Es	-0.518928	-1.544617	0.009684	99
Es	1.472144	0.864419	-0.019292	99
Es	-0.586807	-1.651309	0.003085	99
31
Properties=species:S:1:pos:R:3:Z:I:1 energy=-551.3487263662054 field_type=dipole dipole="0.000000 0.000000 0.000000" charge=0
S	-0.560830	-1.666903	0.023457	16
C	-1.346230	-0.145823	0.007157	6
C	-0.449370	0.899427	-0.009703	6
C	0.901650	0.444647	-0.009213	6
C	0.983750	-0.930433	0.007997	6
H	-2.426330	-0.093123	0.010727	1
H	-0.748140	1.940607	-0.021803	1
H	1.769630	1.092967	-0.020893	1
H	1.875870	-1.541363	0.012277	1
Es	-0.903613	0.377506	0.017444	99
Es	-0.704835	-2.116173	0.032645	99
Es	-2.047022	-0.120747	0.013968	99
Es	1.486539	0.872816	-0.017766	99
Es	-0.784064	0.317865	-0.022382	99
Es	0.240651	0.762285	-0.013123	99
Es	0.275389	-1.292801	0.037553	99
Es	-1.338605	-0.152474	0.005788	99
Es	-0.456508	0.919263	-0.010346	99
Es	-0.496820	-1.532651	0.010468	99
Es	0.956754	-0.254350	-0.010511	99
Es	-0.534787	-1.631953	0.008547	99
Es	-0.509081	-1.636554	0.046880	99
Es	-0.585354	-1.826095	0.043944	99
Es	-0.621362	-1.559504	0.010656	99
Es	-1.008015	-0.892750	0.014360	99
Es	-0.553051	-1.664770	-0.002357	99
Es	1.564250	-1.353367	0.006704	99
Es	0.886802	0.376035	-0.012065	99
Es	0.830862	-0.094999	0.013247	99
Es	-0.660128	1.548147	-0.014722	99
Es	0.957933	-0.943280	0.008524	99
31
Properties=species:S:1:pos:R:3:Z:I:1 energy=-551.3487263662054 field_type=dipole dipole="0.000000 0.000000 0.000000" charge=0
S	-0.560830	-1.666903	0.023457	16
C	-1.346230	-0.145823	0.007157	6
C	-0.449370	0.899427	-0.009703	6
C	0.901650	0.444647	-0.009213	6
C	0.983750	-0.930433	0.007997	6
H	-2.426330	-0.093123	0.010727	1
H	-0.748140	1.940607	-0.021803	1
H	1.769630	1.092967	-0.020893	1
H	1.875870	-1.541363	0.012277	1
Es	-1.346210	-0.146032	0.007161	99
Es	1.485196	0.888274	-0.017833	99
Es	0.236345	0.703257	-0.009987	99
Es	1.571176	-1.343497	0.009464	99
Es	-1.000945	-0.895549	0.022341	99
Es	-0.558398	-1.666462	0.018590	99
Es	-0.720901	-2.146032	0.034226	99
Es	-2.064010	-0.118984	0.012407	99
Es	-0.496758	-1.483636	0.022383	99
Es	0.850976	-0.210937	-0.202091	99
Es	-0.864004	0.369019	0.294653	99
Es	-0.599676	-1.595995	0.079244	99
Es	-0.844121	0.358855	-0.299476	99
Es	-0.438343	-1.648476	0.028893	99
Es	0.901645	0.444644	-0.009152	99
Es	-0.448760	0.899210	-0.009740	99
Es	-0.564872	-1.649672	0.000162	99
Es	0.983611	-0.930579	0.007986	99
Es	-0.645630	1.605558	-0.018351	99
Es	0.255102	-1.318172	0.012629	99
Es	-0.642076	-1.767828	-0.017414	99
Es	0.946587	-0.245518	0.201363	99
