31
Properties=species:S:1:pos:R:3:Z:I:1 energy=-551.348726366172 field_type=dipole dipole="0.000000 0.000000 0.000000" charge=0
S	-0.517510	-1.270120	-0.002790	16
C	-1.302910	0.250960	-0.019090	6
C	-0.406050	1.296210	-0.035950	6
C	0.944970	0.841430	-0.035460	6
C	1.027070	-0.533650	-0.018250	6
H	-2.383010	0.303660	-0.015520	1
H	-0.704820	2.337390	-0.048050	1
H	1.812950	1.489750	-0.047140	1
H	1.919190	-1.144580	-0.013970	1
Es	1.526056	1.280733	-0.043393	99
Es	-0.595549	-1.315140	-0.080452	99
Es	0.946228	0.161105	-0.337236	99
Es	-0.815915	0.763117	0.282862	99
Es	-0.517478	-1.270050	-0.002810	99
Es	-1.302893	0.250762	-0.019086	99
Es	-0.500363	-1.154449	-0.025081	99
Es	0.294662	-0.915767	-0.010442	99
Es	-0.558175	-1.280465	0.105057	99
Es	-0.602929	1.997426	-0.044124	99
Es	-0.406036	1.296223	-0.035951	99
Es	-0.567508	-1.418343	-0.422347	99
Es	-0.818343	0.755138	-0.337950	99
Es	-0.414661	-1.327523	-0.010646	99
Es	-2.022736	0.274453	-0.016596	99
Es	0.944967	0.841447	-0.035460	99
Es	0.283453	1.110338	-0.036189	99
Es	1.614608	-0.950068	-0.015275	99
Es	-0.563589	-1.406883	0.420290	99
Es	1.026937	-0.533796	-0.018250	99
Es	0.948668	0.169087	0.283538	99
Es	-0.950427	-0.496672	-0.010433	99
31
Properties=species:S:1:pos:R:3:Z:I:1 energy=-551.348726366172 field_type=dipole dipole="0.000000 0.000000 0.000000" charge=0
S	-0.517510	-1.270120	-0.002790	16
C	-1.302910	0.250960	-0.019090	6
C	-0.406050	1.296210	-0.035950	6
C	0.944970	0.841430	-0.035460	6
C	1.027070	-0.533650	-0.018250	6
H	-2.383010	0.303660	-0.015520	1
H	-0.704820	2.337390	-0.048050	1
H	1.812950	1.489750	-0.047140	1
H	1.919190	-1.144580	-0.013970	1
Es	-0.414155	-1.337438	-0.004260	99
Es	1.026933	-0.533801	-0.018237	99
Es	0.302239	-0.921756	-0.010909	99
Es	-0.813666	0.763115	0.278860	99
Es	-0.517453	-1.270142	-0.001309	99
Es	0.946799	0.170448	0.279344	99
Es	-1.302893	0.250753	-0.019088	99
Es	-0.628923	-1.333509	0.007231	99
Es	-0.518520	-1.269805	-0.021906	99
Es	0.944968	0.841452	-0.035456	99
Es	-0.603399	1.999838	-0.044224	99
Es	-0.678458	-1.747311	0.002435	99
Es	1.614948	-0.948831	-0.015171	99
Es	-0.507479	-1.137986	0.004530	99
Es	0.282034	1.106501	-0.036521	99
Es	0.944964	0.162483	-0.332871	99
Es	-2.022211	0.275657	-0.016652	99
Es	-0.452109	-1.076199	-0.000520	99
Es	-0.960034	-0.496866	-0.012219	99
Es	-0.816449	0.755467	-0.333657	99
Es	-0.406036	1.296225	-0.035938	99
Es	1.527877	1.282376	-0.043439	99
31
Properties=species:S:1:pos:R:3:Z:I:1 energy=-551.348726366172 field_type=dipole dipole="0.000000 0.000000 0.000000" charge=0
S	-0.517510	-1.270120	-0.002790	16
C	-1.302910	0.250960	-0.019090	6
C	-0.406050	1.296210	-0.035950	6
C	0.944970	0.841430	-0.035460	6
C	1.027070	-0.533650	-0.018250	6
H	-2.383010	0.303660	-0.015520	1
H	-0.704820	2.337390	-0.048050	1
H	1.812950	1.489750	-0.047140	1
H	1.919190	-1.144580	-0.013970	1
Es	-2.022306	0.276586	-0.016520	99
Es	0.943606	0.163572	-0.329697	99
Es	1.615525	-0.948143	-0.015324	99
Es	-0.678568	-1.747976	0.004731	99
Es	1.026933	-0.533802	-0.018248	99
Es	-0.406031	1.296223	-0.035952	99
Es	-0.517678	-1.270052	-0.008614	99
Es	-1.302893	0.250756	-0.019088	99
Es	1.528836	1.282853	-0.043405	99
Es	-0.812372	0.763363	0.275250	99
Es	0.944968	0.841452	-0.035463	99
Es	-0.452710	-1.078121	-0.008265	99
Es	-0.624846	-1.343332	-0.001114	99
Es	0.281251	1.104141	-0.036127	99
Es	-0.603770	2.000895	-0.044270	99
Es	-0.517418	-1.270070	-0.003819	99
Es	-0.814826	0.755533	-0.330349	99
Es	-0.412487	-1.328904	-0.001453	99
Es	0.300855	-0.921416	-0.009905	99
Es	-0.958755	-0.497511	-0.010527	99
Es	0.945898	0.171272	0.276014	99
Es	-0.514234	-1.136646	0.002170	99
31
Properties=species:S:1:pos:R:3:Z:I:1 energy=-551.348726366172 field_type=dipole dipole="0.000000 0.000000 0.000000" charge=0
S	-0.517510	-1.270120	-0.002790	16
C	-1.302910	0.250960	-0.019090	6
C	-0.406050	1.296210	-0.035950	6
C	0.944970	0.841430	-0.035460	6
C	1.027070	-0.533650	-0.018250	6
H	-2.383010	0.303660	-0.015520	1
H	-0.704820	2.337390	-0.048050	1
H	1.812950	1.489750	-0.047140	1
H	1.919190	-1.144580	-0.013970	1
Es	-0.520046	-1.134587	-0.002434	99
Es	-0.453748	-1.079735	-0.009012	99
Es	-0.678756	-1.748283	0.004337	99
Es	-0.517447	-1.270141	-0.002985	99
Es	-0.604243	2.001404	-0.044069	99
Es	-2.022525	0.277385	-0.016574	99
Es	0.942654	0.164194	-0.326928	99
Es	-0.813014	0.755512	-0.327509	99
Es	-0.958033	-0.497794	-0.010430	99
Es	1.026932	-0.533803	-0.018249	99
Es	-0.406035	1.296227	-0.035951	99
Es	0.300039	-0.921373	-0.010548	99
Es	-0.615028	-1.359868	-0.004032	99
Es	1.529479	1.283082	-0.043351	99
Es	1.616179	-0.947611	-0.015383	99
Es	0.944968	0.841455	-0.035456	99
Es	-0.416329	-1.313498	0.006884	99
Es	-0.812344	0.763619	0.272395	99
Es	0.945542	0.171688	0.273145	99
Es	-1.302893	0.250756	-0.019086	99
Es	-0.517126	-1.270285	-0.008607	99
Es	0.280751	1.102328	-0.036131	99
31
Properties=species:S:1:pos:R:3:Z:I:1 energy=-551.348726366172 field_type=dipole dipole="0.000000 0.000000 0.000000" charge=0
S	-0.517510	-1.270120	-0.002790	16
C	-1.302910	0.250960	-0.019090	6
C	-0.406050	1.296210	-0.035950	6
C	0.944970	0.841430	-0.035460	6
C	1.027070	-0.533650	-0.018250	6
H	-2.383010	0.303660	-0.015520	1
H	-0.704820	2.337390	-0.048050	1
H	1.812950	1.489750	-0.047140	1
H	1.919190	-1.144580	-0.013970	1
Es	-2.022383	0.277814	-0.016592	99
Es	-0.957615	-0.498151	-0.009775	99
Es	-0.517478	-1.270180	-0.006288	99
Es	0.299523	-0.921326	-0.010532	99
Es	0.955707	0.167717	0.267147	99
Es	0.931800	0.169719	-0.321128	99
Es	1.616303	-0.947169	-0.015584	99
Es	0.944969	0.841452	-0.035463	99
Es	-0.453416	-1.079846	-0.006265	99
Es	1.529710	1.283409	-0.043515	99
Es	-0.632950	-1.263657	-0.003129	99
Es	-0.604149	2.001798	-0.044194	99
Es	-0.469348	-1.391508	0.001339	99
Es	1.026932	-0.533803	-0.018247	99
Es	-0.819917	0.765270	0.268310	99
Es	-0.406035	1.296227	-0.035949	99
Es	-0.678357	-1.748709	0.003351	99
Es	-1.302892	0.250754	-0.019091	99
Es	-0.449938	-1.153418	-0.002644	99
Es	0.280261	1.101113	-0.035442	99
Es	-0.804171	0.753298	-0.323587	99
Es	-0.517578	-1.270132	-0.002698	99
31
Properties=species:S:1:pos:R:3:Z:I:1 energy=-551.348726366172 field_type=dipole dipole="0.000000 0.000000 0.000000" charge=0
S	-0.517510	-1.270120	-0.002790	16
C	-1.302910	0.250960	-0.019090	6
C	-0.406050	1.296210	-0.035950	6
C	0.944970	0.841430	-0.035460	6
C	1.027070	-0.533650	-0.018250	6
H	-2.383010	0.303660	-0.015520	1
H	-0.704820	2.337390	-0.048050	1
H	1.812950	1.489750	-0.047140	1
H	1.919190	-1.144580	-0.013970	1
Es	-0.827980	0.759471	-0.318667	99
Es	-0.957558	-0.498320	-0.012587	99
Es	-0.406035	1.296227	-0.035943	99
Es	-0.453299	-1.080406	-0.006176	99
Es	-1.302892	0.250755	-0.019088	99
Es	0.299388	-0.921363	-0.009906	99
Es	0.944969	0.841452	-0.035458	99
Es	1.529404	1.283844	-0.043263	99
Es	0.963769	0.155871	-0.307485	99
Es	1.615932	-0.947137	-0.014874	99
Es	-0.795379	0.759683	0.264216	99
Es	-0.606549	-1.184465	-0.007323	99
Es	-0.397599	-1.224553	-0.000726	99
Es	0.280194	1.100885	-0.037598	99
Es	-0.517499	-1.270096	-0.002506	99
Es	1.026932	-0.533802	-0.018244	99
Es	-0.547893	-1.399773	-0.000522	99
Es	0.922908	0.181705	0.254504	99
Es	-0.678604	-1.748797	0.005076	99
Es	-0.603731	2.001957	-0.044163	99
Es	-0.517512	-1.270094	-0.002525	99
Es	-2.021987	0.277629	-0.016717	99
31
Properties=species:S:1:pos:R:3:Z:I:1 energy=-551.348726366172 field_type=dipole dipole="0.000000 0.000000 0.000000" charge=0
S	-0.517510	-1.270120	-0.002790	16
C	-1.302910	0.250960	-0.019090	6
C	-0.406050	1.296210	-0.035950	6
C	0.944970	0.841430	-0.035460	6
C	1.027070	-0.533650	-0.018250	6
H	-2.383010	0.303660	-0.015520	1
H	-0.704820	2.337390	-0.048050	1
H	1.812950	1.489750	-0.047140	1
H	1.919190	-1.144580	-0.013970	1
Es	-0.838982	0.762655	-0.301776	99
Es	-0.429178	-1.352038	-0.000288	99
Es	0.926024	0.180493	0.259938	99
Es	-0.487340	-1.137812	-0.001772	99
Es	0.960346	0.157049	-0.313000	99
Es	-0.517501	-1.270112	-0.003121	99
Es	-0.406035	1.296227	-0.035948	99
Es	1.529278	1.284010	-0.043385	99
Es	1.615784	-0.947059	-0.015406	99
Es	0.299281	-0.921464	-0.012337	99
Es	-0.603563	2.002010	-0.043982	99
Es	1.026932	-0.533802	-0.018249	99
Es	-0.784007	0.756749	0.247647	99
Es	-0.957458	-0.498327	-0.010357	99
Es	0.944969	0.841453	-0.035457	99
Es	-0.678674	-1.748843	0.005387	99
Es	-0.453740	-1.081060	-0.008362	99
Es	-0.635157	-1.318457	-0.002680	99
Es	-1.302892	0.250755	-0.019088	99
Es	-2.021806	0.277584	-0.016108	99
Es	-0.517532	-1.270143	-0.003740	99
Es	0.280226	1.100807	-0.037891	99
31
Properties=species:S:1:pos:R:3:Z:I:1 energy=-551.348726366172 field_type=dipole dipole="0.000000 0.000000 0.000000" charge=0
S	-0.517510	-1.270120	-0.002790	16
C	-1.302910	0.250960	-0.019090	6
C	-0.406050	1.296210	-0.035950	6
C	0.944970	0.841430	-0.035460	6
C	1.027070	-0.533650	-0.018250	6
H	-2.383010	0.303660	-0.015520	1
H	-0.704820	2.337390	-0.048050	1
H	1.812950	1.489750	-0.047140	1
H	1.919190	-1.144580	-0.013970	1
Es	-0.528983	-1.266379	-0.015124	99
Es	-0.406035	1.296227	-0.035951	99
Es	0.280347	1.101104	-0.037901	99
Es	1.616412	-0.947335	-0.015031	99
Es	1.529693	1.283307	-0.043354	99
Es	-0.453358	-1.079642	-0.006473	99
Es	-0.546481	-1.402800	-0.003726	99
Es	0.299598	-0.921242	-0.011331	99
Es	0.921820	0.182060	0.250143	99
Es	-0.678532	-1.748568	0.005510	99
Es	0.944969	0.841453	-0.035461	99
Es	1.026931	-0.533803	-0.018248	99
Es	-0.604284	2.001681	-0.044142	99
Es	-0.838571	0.762298	-0.302220	99
Es	-0.957621	-0.498073	-0.011496	99
Es	-0.518904	-1.269686	-0.001154	99
Es	-0.461936	-1.144464	-0.003544	99
Es	-2.022509	0.277755	-0.016299	99
Es	0.965905	0.154836	-0.303144	99
Es	-0.530715	-1.265626	0.010107	99
Es	-0.785876	0.756816	0.247951	99
Es	-1.302892	0.250755	-0.019087	99
31
Properties=species:S:1:pos:R:3:Z:I:1 energy=-551.348726366172 field_type=dipole dipole="0.000000 0.000000 0.000000" charge=0
S	-0.517510	-1.270120	-0.002790	16
C	-1.302910	0.250960	-0.019090	6
C	-0.406050	1.296210	-0.035950	6
C	0.944970	0.841430	-0.035460	6
C	1.027070	-0.533650	-0.018250	6
H	-2.383010	0.303660	-0.015520	1
H	-0.704820	2.337390	-0.048050	1
H	1.812950	1.489750	-0.047140	1
H	1.919190	-1.144580	-0.013970	1
Es	0.968222	0.153982	-0.298549	99
Es	-0.783926	0.756586	0.245413	99
Es	1.026932	-0.533802	-0.018248	99
Es	-0.406035	1.296226	-0.035956	99
Es	-0.957552	-0.498202	-0.012096	99
Es	-0.453398	-1.080100	-0.005732	99
Es	0.944969	0.841453	-0.035460	99
Es	-0.474974	-1.285043	-0.035825	99
Es	-1.302892	0.250755	-0.019084	99
Es	0.299463	-0.921354	-0.010837	99
Es	-0.490243	-1.279040	0.019122	99
Es	1.616116	-0.947186	-0.014799	99
Es	0.918920	0.183298	0.245510	99
Es	1.529535	1.283605	-0.043267	99
Es	-0.594386	-1.381447	0.003500	99
Es	-2.022196	0.277662	-0.016423	99
Es	-0.510067	-1.133340	-0.000285	99
Es	-0.517204	-1.270169	-0.000706	99
Es	0.280258	1.100944	-0.037931	99
Es	-0.678721	-1.748653	0.005542	99
Es	-0.603963	2.001818	-0.044079	99
Es	-0.839881	0.762679	-0.299786	99
31
Properties=species:S:1:pos:R:3:Z:I:1 energy=-551.348726366172 field_type=dipole dipole="0.000000 0.000000 0.000000" charge=0
S	-0.517510	-1.270120	-0.002790	16
C	-1.302910	0.250960	-0.019090	6
C	-0.406050	1.296210	-0.035950	6
C	0.944970	0.841430	-0.035460	6
C	1.027070	-0.533650	-0.018250	6
H	-2.383010	0.303660	-0.015520	1
H	-0.704820	2.337390	-0.048050	1
H	1.812950	1.489750	-0.047140	1
H	1.919190	-1.144580	-0.013970	1
Es	-0.781914	0.756179	0.243594	99
Es	-1.302892	0.250755	-0.019088	99
Es	-0.603407	2.002100	-0.044016	99
Es	-0.840639	0.762963	-0.297914	99
Es	0.299209	-0.921486	-0.011513	99
Es	1.529203	1.284200	-0.043220	99
Es	-0.504826	-1.402744	0.001421	99
Es	-0.517505	-1.270080	-0.002108	99
Es	-0.957399	-0.498442	-0.011746	99
Es	-0.620379	-1.235731	-0.002978	99
Es	0.967916	0.154147	-0.299188	99
Es	0.944969	0.841453	-0.035463	99
Es	1.615665	-0.946942	-0.015049	99
Es	-0.406035	1.296227	-0.035951	99
Es	-0.453631	-1.080827	-0.005389	99
Es	-0.678443	-1.749025	0.005371	99
Es	0.280137	1.100533	-0.037844	99
Es	-2.021730	0.277620	-0.016305	99
Es	-0.517526	-1.270126	-0.003755	99
Es	1.026931	-0.533803	-0.018248	99
Es	0.918310	0.183933	0.246025	99
Es	-0.427039	-1.170231	-0.006612	99
