29
Properties=species:S:1:pos:R:3:Z:I:1 energy=-192.79363481734634 field_type=dipole dipole="0.000000 0.000000 0.000000" charge=0
C	-1.861959	-0.535585	0.005443	6
C	-0.369839	-0.500255	0.015153	6
C	0.333931	0.640924	-0.008037	6
C	1.739931	0.640924	-0.008037	6
C	2.930091	0.640924	-0.008037	6
H	-2.209119	-1.571025	-0.064937	1
H	-2.262309	0.008395	-0.856757	1
H	-2.267409	-0.106835	0.925713	1
H	0.146071	-1.457355	0.038663	1
H	-0.174489	1.600594	-0.031167	1
H	3.995100	0.639295	-0.007997	1
Es	-2.095260	-1.237856	-0.041732	99
Es	0.031305	0.093357	-0.316311	99
Es	2.333234	0.453872	0.295899	99
Es	-1.861906	-0.535587	0.005443	99
Es	1.057796	0.647773	-0.007382	99
Es	2.930338	0.640917	-0.008037	99
Es	1.739688	0.640929	-0.008037	99
Es	-2.120934	-0.163937	-0.572053	99
Es	-2.122555	-0.242679	0.622733	99
Es	3.626174	0.639995	-0.007987	99
Es	0.028800	0.108597	0.322579	99
Es	0.003957	1.287730	-0.023921	99
Es	2.342770	0.999486	-0.005664	99
Es	2.332614	0.458667	-0.314256	99
Es	-0.369920	-0.500321	0.015156	99
Es	-1.113893	-0.516392	0.010297	99
Es	0.334078	0.641005	-0.008016	99
Es	-0.026706	-1.148319	0.031515	99
29
Properties=species:S:1:pos:R:3:Z:I:1 energy=-192.79363481734634 field_type=dipole dipole="0.000000 0.000000 0.000000" charge=0
C	-1.861959	-0.535585	0.005443	6
C	-0.369839	-0.500255	0.015153	6
C	0.333931	0.640924	-0.008037	6
C	1.739931	0.640924	-0.008037	6
C	2.930091	0.640924	-0.008037	6
H	-2.209119	-1.571025	-0.064937	1
H	-2.262309	0.008395	-0.856757	1
H	-2.267409	-0.106835	0.925713	1
H	0.146071	-1.457355	0.038663	1
H	-0.174489	1.600594	-0.031167	1
H	3.995100	0.639295	-0.007997	1
Es	2.930349	0.640931	-0.008027	99
Es	-2.121279	-0.165238	-0.566187	99
Es	-1.861905	-0.535582	0.005443	99
Es	0.028375	0.108359	0.319287	99
Es	-1.111882	-0.514673	0.010687	99
Es	1.060399	0.644180	-0.007157	99
Es	-2.122807	-0.243324	0.616516	99
Es	0.003642	1.283982	-0.023912	99
Es	0.334083	0.641010	-0.008043	99
Es	-2.099785	-1.238637	-0.041694	99
Es	2.333338	0.806093	0.290941	99
Es	-0.026775	-1.144921	0.031469	99
Es	1.739674	0.640924	-0.008036	99
Es	-0.369923	-0.500321	0.015157	99
Es	2.334026	0.826281	-0.298447	99
Es	0.031174	0.093511	-0.313027	99
Es	2.340873	0.279168	-0.016565	99
Es	3.628000	0.645496	-0.008178	99
29
Properties=species:S:1:pos:R:3:Z:I:1 energy=-192.79363481734634 field_type=dipole dipole="0.000000 0.000000 0.000000" charge=0
C	-1.861959	-0.535585	0.005443	6
C	-0.369839	-0.500255	0.015153	6
C	0.333931	0.640924	-0.008037	6
C	1.739931	0.640924	-0.008037	6
C	2.930091	0.640924	-0.008037	6
H	-2.209119	-1.571025	-0.064937	1
H	-2.262309	0.008395	-0.856757	1
H	-2.267409	-0.106835	0.925713	1
H	0.146071	-1.457355	0.038663	1
H	-0.174489	1.600594	-0.031167	1
H	3.995100	0.639295	-0.007997	1
Es	0.334081	0.641007	-0.008030	99
Es	2.332740	0.493052	0.292446	99
Es	-0.369923	-0.500323	0.015155	99
Es	-2.103807	-1.238995	-0.040924	99
Es	-2.121422	-0.243992	0.610997	99
Es	0.028012	0.108764	0.317986	99
Es	-1.861905	-0.535587	0.005443	99
Es	0.031201	0.093748	-0.311600	99
Es	-0.027397	-1.142228	0.031798	99
Es	-2.120911	-0.166272	-0.561505	99
Es	-1.110937	-0.513509	0.010859	99
Es	2.930352	0.640925	-0.008036	99
Es	0.004110	1.281024	-0.024294	99
Es	3.628574	0.647106	-0.008240	99
Es	1.061700	0.642595	-0.007180	99
Es	2.334494	0.419938	-0.272848	99
Es	1.739675	0.640915	-0.008045	99
Es	2.340943	0.999072	-0.043755	99
29
Properties=species:S:1:pos:R:3:Z:I:1 energy=-192.79363481734634 field_type=dipole dipole="0.000000 0.000000 0.000000" charge=0
C	-1.861959	-0.535585	0.005443	6
C	-0.369839	-0.500255	0.015153	6
C	0.333931	0.640924	-0.008037	6
C	1.739931	0.640924	-0.008037	6
C	2.930091	0.640924	-0.008037	6
H	-2.209119	-1.571025	-0.064937	1
H	-2.262309	0.008395	-0.856757	1
H	-2.267409	-0.106835	0.925713	1
H	0.146071	-1.457355	0.038663	1
H	-0.174489	1.600594	-0.031167	1
H	3.995100	0.639295	-0.007997	1
Es	-0.028608	-1.139610	0.031110	99
Es	0.030723	0.094055	-0.311814	99
Es	0.334085	0.641009	-0.008019	99
Es	0.028397	0.108475	0.317925	99
Es	2.340582	0.992372	0.068075	99
Es	-2.107848	-1.238721	-0.041359	99
Es	0.005212	1.278299	-0.023293	99
Es	-0.369925	-0.500327	0.015155	99
Es	2.336951	0.364951	0.213384	99
Es	1.739671	0.640909	-0.008035	99
Es	-1.110476	-0.512853	0.010346	99
Es	2.330655	0.554292	-0.304930	99
Es	2.930357	0.640922	-0.008038	99
Es	1.062421	0.642428	-0.007261	99
Es	-2.120671	-0.243707	0.606855	99
Es	-2.118747	-0.168324	-0.556426	99
Es	3.628706	0.648653	-0.008890	99
Es	-1.861905	-0.535584	0.005440	99
29
Properties=species:S:1:pos:R:3:Z:I:1 energy=-192.79363481734634 field_type=dipole dipole="0.000000 0.000000 0.000000" charge=0
C	-1.861959	-0.535585	0.005443	6
C	-0.369839	-0.500255	0.015153	6
C	0.333931	0.640924	-0.008037	6
C	1.739931	0.640924	-0.008037	6
C	2.930091	0.640924	-0.008037	6
H	-2.209119	-1.571025	-0.064937	1
H	-2.262309	0.008395	-0.856757	1
H	-2.267409	-0.106835	0.925713	1
H	0.146071	-1.457355	0.038663	1
H	-0.174489	1.600594	-0.031167	1
H	3.995100	0.639295	-0.007997	1
Es	0.007132	1.275271	-0.023716	99
Es	0.031144	0.093928	-0.313139	99
Es	2.340266	0.982882	0.100151	99
Es	0.334087	0.641012	-0.008034	99
Es	3.628776	0.649412	-0.008889	99
Es	1.062778	0.642956	-0.007447	99
Es	2.930356	0.640934	-0.008035	99
Es	-1.110281	-0.513033	0.010390	99
Es	0.028060	0.108322	0.319589	99
Es	2.329871	0.603391	-0.287907	99
Es	-2.117132	-0.169637	-0.552962	99
Es	2.338084	0.324889	0.164278	99
Es	-0.030693	-1.136427	0.031220	99
Es	-1.861910	-0.535583	0.005441	99
Es	-2.119306	-0.243831	0.603078	99
Es	-0.369926	-0.500322	0.015157	99
Es	1.739670	0.640912	-0.008040	99
Es	-2.111394	-1.237837	-0.040909	99
29
Properties=species:S:1:pos:R:3:Z:I:1 energy=-192.79363481734634 field_type=dipole dipole="0.000000 0.000000 0.000000" charge=0
C	-1.861959	-0.535585	0.005443	6
C	-0.369839	-0.500255	0.015153	6
C	0.333931	0.640924	-0.008037	6
C	1.739931	0.640924	-0.008037	6
C	2.930091	0.640924	-0.008037	6
H	-2.209119	-1.571025	-0.064937	1
H	-2.262309	0.008395	-0.856757	1
H	-2.267409	-0.106835	0.925713	1
H	0.146071	-1.457355	0.038663	1
H	-0.174489	1.600594	-0.031167	1
H	3.995100	0.639295	-0.007997	1
Es	-2.117441	-0.168610	-0.550623	99
Es	0.009107	1.272653	-0.025258	99
Es	-0.032679	-1.133639	0.032288	99
Es	3.628870	0.649430	-0.008247	99
Es	0.032701	0.093425	-0.314356	99
Es	-1.861905	-0.535584	0.005439	99
Es	1.739669	0.640910	-0.008035	99
Es	0.334086	0.641009	-0.008022	99
Es	-0.369926	-0.500321	0.015157	99
Es	-2.114891	-0.246556	0.596762	99
Es	1.062970	0.643167	-0.007396	99
Es	2.330011	0.610874	0.254608	99
Es	2.930356	0.640939	-0.008036	99
Es	2.337782	0.316004	-0.163882	99
Es	0.026455	0.108633	0.321230	99
Es	-1.110151	-0.513049	0.010958	99
Es	-2.115850	-1.236356	-0.037398	99
Es	2.340417	0.984311	-0.114961	99
29
Properties=species:S:1:pos:R:3:Z:I:1 energy=-192.79363481734634 field_type=dipole dipole="0.000000 0.000000 0.000000" charge=0
C	-1.861959	-0.535585	0.005443	6
C	-0.369839	-0.500255	0.015153	6
C	0.333931	0.640924	-0.008037	6
C	1.739931	0.640924	-0.008037	6
C	2.930091	0.640924	-0.008037	6
H	-2.209119	-1.571025	-0.064937	1
H	-2.262309	0.008395	-0.856757	1
H	-2.267409	-0.106835	0.925713	1
H	0.146071	-1.457355	0.038663	1
H	-0.174489	1.600594	-0.031167	1
H	3.995100	0.639295	-0.007997	1
Es	-1.110072	-0.513226	0.010747	99
Es	1.063033	0.643611	-0.007361	99
Es	0.032449	0.092877	-0.317023	99
Es	1.739668	0.640909	-0.008036	99
Es	0.011549	1.269757	-0.024822	99
Es	-2.119863	-1.234251	-0.037079	99
Es	-2.113335	-0.246990	0.593167	99
Es	2.340431	0.982935	-0.118783	99
Es	-0.369926	-0.500321	0.015155	99
Es	0.027003	0.108373	0.323864	99
Es	-2.115194	-0.170161	-0.547130	99
Es	2.338028	0.301138	-0.135377	99
Es	-1.861905	-0.535584	0.005439	99
Es	0.334087	0.641010	-0.008030	99
Es	2.329758	0.627041	0.229954	99
Es	2.930357	0.640937	-0.008039	99
Es	3.628963	0.649187	-0.008278	99
Es	-0.035449	-1.130003	0.031857	99
29
Properties=species:S:1:pos:R:3:Z:I:1 energy=-192.79363481734634 field_type=dipole dipole="0.000000 0.000000 0.000000" charge=0
C	-1.861959	-0.535585	0.005443	6
C	-0.369839	-0.500255	0.015153	6
C	0.333931	0.640924	-0.008037	6
C	1.739931	0.640924	-0.008037	6
C	2.930091	0.640924	-0.008037	6
H	-2.209119	-1.571025	-0.064937	1
H	-2.262309	0.008395	-0.856757	1
H	-2.267409	-0.106835	0.925713	1
H	0.146071	-1.457355	0.038663	1
H	-0.174489	1.600594	-0.031167	1
H	3.995100	0.639295	-0.007997	1
Es	1.063050	0.643901	-0.007256	99
Es	2.329631	0.630630	0.208722	99
Es	0.013465	1.267472	-0.024449	99
Es	-1.110021	-0.513362	0.010523	99
Es	-2.112590	-0.172275	-0.543402	99
Es	2.338061	0.295137	-0.120413	99
Es	-2.124303	-1.231271	-0.036553	99
Es	0.033919	0.093305	-0.318873	99
Es	0.334087	0.641012	-0.008041	99
Es	-0.369926	-0.500321	0.015158	99
Es	1.739668	0.640910	-0.008036	99
Es	-1.861906	-0.535588	0.005443	99
Es	-2.111643	-0.247649	0.589017	99
Es	3.629043	0.648841	-0.008245	99
Es	2.340542	0.985275	-0.112505	99
Es	0.025796	0.107082	0.325280	99
Es	2.930357	0.640934	-0.008037	99
Es	-0.037649	-1.126794	0.031892	99
29
Properties=species:S:1:pos:R:3:Z:I:1 energy=-192.79363481734634 field_type=dipole dipole="0.000000 0.000000 0.000000" charge=0
C	-1.861959	-0.535585	0.005443	6
C	-0.369839	-0.500255	0.015153	6
C	0.333931	0.640924	-0.008037	6
C	1.739931	0.640924	-0.008037	6
C	2.930091	0.640924	-0.008037	6
H	-2.209119	-1.571025	-0.064937	1
H	-2.262309	0.008395	-0.856757	1
H	-2.267409	-0.106835	0.925713	1
H	0.146071	-1.457355	0.038663	1
H	-0.174489	1.600594	-0.031167	1
H	3.995100	0.639295	-0.007997	1
Es	-0.040226	-1.122846	0.031686	99
Es	2.329480	0.633265	0.178154	99
Es	2.930357	0.640936	-0.008034	99
Es	0.026681	0.107197	0.328197	99
Es	-2.127575	-1.228492	-0.036165	99
Es	3.629132	0.648354	-0.008368	99
Es	-1.109973	-0.513566	0.010533	99
Es	-1.861906	-0.535584	0.005447	99
Es	2.338099	0.288589	-0.101150	99
Es	-0.369927	-0.500321	0.015156	99
Es	2.340660	0.989128	-0.101023	99
Es	-2.110363	-0.248378	0.585932	99
Es	-2.110711	-0.173949	-0.540676	99
Es	1.739668	0.640910	-0.008035	99
Es	1.063033	0.644294	-0.007388	99
Es	0.015726	1.264663	-0.024441	99
Es	0.334088	0.641012	-0.008037	99
Es	0.033339	0.092024	-0.321563	99
29
Properties=species:S:1:pos:R:3:Z:I:1 energy=-192.79363481734634 field_type=dipole dipole="0.000000 0.000000 0.000000" charge=0
C	-1.861959	-0.535585	0.005443	6
C	-0.369839	-0.500255	0.015153	6
C	0.333931	0.640924	-0.008037	6
C	1.739931	0.640924	-0.008037	6
C	2.930091	0.640924	-0.008037	6
H	-2.209119	-1.571025	-0.064937	1
H	-2.262309	0.008395	-0.856757	1
H	-2.267409	-0.106835	0.925713	1
H	0.146071	-1.457355	0.038663	1
H	-0.174489	1.600594	-0.031167	1
H	3.995100	0.639295	-0.007997	1
Es	0.017389	1.262583	-0.024406	99
Es	2.329372	0.633605	0.151524	99
Es	-2.108841	-0.249518	0.582604	99
Es	2.340756	0.992597	-0.088866	99
Es	1.063037	0.644363	-0.007344	99
Es	-0.042113	-1.119757	0.031601	99
Es	-2.131035	-1.225199	-0.035686	99
Es	-0.369927	-0.500321	0.015148	99
Es	-2.108851	-0.175787	-0.537692	99
Es	1.739668	0.640909	-0.008035	99
Es	0.026340	0.106524	0.329896	99
Es	0.033900	0.091698	-0.323241	99
Es	0.334088	0.641011	-0.008037	99
Es	2.930357	0.640936	-0.008035	99
Es	3.629202	0.647918	-0.008372	99
Es	2.338107	0.284831	-0.086662	99
Es	-1.109963	-0.513572	0.010384	99
Es	-1.861905	-0.535584	0.005443	99
29
Properties=species:S:1:pos:R:3:Z:I:1 energy=-192.79363481734634 field_type=dipole dipole="0.000000 0.000000 0.000000" charge=0
C	-1.861959	-0.535585	0.005443	6
C	-0.369839	-0.500255	0.015153	6
C	0.333931	0.640924	-0.008037	6
C	1.739931	0.640924	-0.008037	6
C	2.930091	0.640924	-0.008037	6
H	-2.209119	-1.571025	-0.064937	1
H	-2.262309	0.008395	-0.856757	1
H	-2.267409	-0.106835	0.925713	1
H	0.146071	-1.457355	0.038663	1
H	-0.174489	1.600594	-0.031167	1
H	3.995100	0.639295	-0.007997	1
Es	3.629266	0.647487	-0.008239	99
Es	1.063041	0.644420	-0.007198	99
Es	0.334087	0.641010	-0.008039	99
Es	2.340818	0.994345	-0.081570	99
Es	2.930356	0.640941	-0.008028	99
Es	-1.861907	-0.535580	0.005433	99
Es	-2.107249	-0.251091	0.579107	99
Es	0.024094	0.104653	0.329416	99
Es	-2.106742	-0.178028	-0.534077	99
Es	1.739667	0.640913	-0.008037	99
Es	-0.043177	-1.117856	0.031659	99
Es	-1.109950	-0.513642	0.010474	99
Es	2.329323	0.633508	0.136686	99
Es	0.036384	0.092830	-0.322872	99
Es	-0.369927	-0.500326	0.015154	99
Es	-2.134792	-1.221116	-0.035973	99
Es	0.018205	1.261498	-0.024539	99
Es	2.338082	0.283271	-0.079131	99
29
Properties=species:S:1:pos:R:3:Z:I:1 energy=-192.79363481734634 field_type=dipole dipole="0.000000 0.000000 0.000000" charge=0
C	-1.861959	-0.535585	0.005443	6
C	-0.369839	-0.500255	0.015153	6
C	0.333931	0.640924	-0.008037	6
C	1.739931	0.640924	-0.008037	6
C	2.930091	0.640924	-0.008037	6
H	-2.209119	-1.571025	-0.064937	1
H	-2.262309	0.008395	-0.856757	1
H	-2.267409	-0.106835	0.925713	1
H	0.146071	-1.457355	0.038663	1
H	-0.174489	1.600594	-0.031167	1
H	3.995100	0.639295	-0.007997	1
Es	-0.045049	-1.114462	0.031538	99
Es	-2.105879	-0.179097	-0.533218	99
Es	2.340910	0.998602	-0.059929	99
Es	-1.109922	-0.513800	0.010446	99
Es	-1.861907	-0.535588	0.005443	99
Es	0.334088	0.641011	-0.008037	99
Es	0.019312	1.260073	-0.025100	99
Es	-2.105868	-0.252412	0.575606	99
Es	3.629308	0.647177	-0.008492	99
Es	2.329217	0.631947	0.100178	99
Es	2.930357	0.640935	-0.008040	99
Es	0.034753	0.089800	-0.325166	99
Es	-2.137100	-1.218290	-0.033175	99
Es	2.338092	0.280606	-0.064214	99
Es	1.739668	0.640907	-0.008037	99
Es	0.026476	0.105812	0.332611	99
Es	1.063051	0.644339	-0.007343	99
Es	-0.369927	-0.500322	0.015156	99
29
Properties=species:S:1:pos:R:3:Z:I:1 energy=-192.79363481734634 field_type=dipole dipole="0.000000 0.000000 0.000000" charge=0
C	-1.861959	-0.535585	0.005443	6
C	-0.369839	-0.500255	0.015153	6
C	0.333931	0.640924	-0.008037	6
C	1.739931	0.640924	-0.008037	6
C	2.930091	0.640924	-0.008037	6
H	-2.209119	-1.571025	-0.064937	1
H	-2.262309	0.008395	-0.856757	1
H	-2.267409	-0.106835	0.925713	1
H	0.146071	-1.457355	0.038663	1
H	-0.174489	1.600594	-0.031167	1
H	3.995100	0.639295	-0.007997	1
Es	2.338159	0.278765	0.034388	99
Es	2.329070	0.630712	-0.074290	99
Es	-1.861906	-0.535584	0.005447	99
Es	-2.138467	-1.216463	-0.036350	99
Es	2.340994	1.001641	0.015932	99
Es	-2.103179	-0.182616	-0.530248	99
Es	1.063028	0.644552	-0.007176	99
Es	0.037132	0.091653	-0.325593	99
Es	-0.046499	-1.111542	0.031380	99
Es	0.020401	1.258571	-0.024192	99
Es	0.024456	0.102580	0.332034	99
Es	-2.107230	-0.250509	0.575743	99
Es	-1.109920	-0.513898	0.010393	99
Es	-0.369928	-0.500321	0.015153	99
Es	2.930358	0.640931	-0.008040	99
Es	0.334089	0.641012	-0.008042	99
Es	1.739667	0.640912	-0.008038	99
Es	3.629354	0.646843	-0.008276	99
29
Properties=species:S:1:pos:R:3:Z:I:1 energy=-192.79363481734634 field_type=dipole dipole="0.000000 0.000000 0.000000" charge=0
C	-1.861959	-0.535585	0.005443	6
C	-0.369839	-0.500255	0.015153	6
C	0.333931	0.640924	-0.008037	6
C	1.739931	0.640924	-0.008037	6
C	2.930091	0.640924	-0.008037	6
H	-2.209119	-1.571025	-0.064937	1
H	-2.262309	0.008395	-0.856757	1
H	-2.267409	-0.106835	0.925713	1
H	0.146071	-1.457355	0.038663	1
H	-0.174489	1.600594	-0.031167	1
H	3.995100	0.639295	-0.007997	1
Es	1.063033	0.644507	-0.007309	99
Es	2.930357	0.640936	-0.008041	99
Es	-2.101371	-0.185243	-0.526654	99
Es	-0.369926	-0.500319	0.015155	99
Es	0.019886	1.259401	-0.024301	99
Es	0.037493	0.091202	-0.325015	99
Es	0.024869	0.101791	0.331809	99
Es	-0.046764	-1.111098	0.031278	99
Es	-1.109922	-0.513750	0.010378	99
Es	2.338173	0.278605	0.032617	99
Es	0.334088	0.641008	-0.008046	99
Es	-1.861905	-0.535584	0.005443	99
Es	1.739668	0.640906	-0.008033	99
Es	2.329073	0.630924	-0.073299	99
Es	-2.142246	-1.211304	-0.035569	99
Es	3.629377	0.646652	-0.008312	99
Es	-2.105284	-0.252980	0.571390	99
Es	2.340981	1.001585	0.016736	99
29
Properties=species:S:1:pos:R:3:Z:I:1 energy=-192.79363481734634 field_type=dipole dipole="0.000000 0.000000 0.000000" charge=0
C	-1.861959	-0.535585	0.005443	6
C	-0.369839	-0.500255	0.015153	6
C	0.333931	0.640924	-0.008037	6
C	1.739931	0.640924	-0.008037	6
C	2.930091	0.640924	-0.008037	6
H	-2.209119	-1.571025	-0.064937	1
H	-2.262309	0.008395	-0.856757	1
H	-2.267409	-0.106835	0.925713	1
H	0.146071	-1.457355	0.038663	1
H	-0.174489	1.600594	-0.031167	1
H	3.995100	0.639295	-0.007997	1
Es	0.020310	1.258799	-0.024222	99
Es	-0.369927	-0.500317	0.015161	99
Es	0.024193	0.100893	0.331442	99
Es	-2.144074	-1.208625	-0.034246	99
Es	-2.103835	-0.254946	0.568927	99
Es	1.739667	0.640911	-0.008035	99
Es	-0.047538	-1.109557	0.031576	99
Es	2.338136	0.276871	0.009949	99
Es	-1.861905	-0.535587	0.005443	99
Es	2.329059	0.631922	-0.036205	99
Es	3.629402	0.646446	-0.008294	99
Es	-2.101013	-0.185793	-0.525484	99
Es	2.930358	0.640933	-0.008038	99
Es	-1.109928	-0.513671	0.010310	99
Es	0.334088	0.641016	-0.008036	99
Es	1.063037	0.644523	-0.007204	99
Es	0.038524	0.091072	-0.325112	99
Es	2.341028	1.002348	0.002296	99
29
Properties=species:S:1:pos:R:3:Z:I:1 energy=-192.79363481734634 field_type=dipole dipole="0.000000 0.000000 0.000000" charge=0
C	-1.861959	-0.535585	0.005443	6
C	-0.369839	-0.500255	0.015153	6
C	0.333931	0.640924	-0.008037	6
C	1.739931	0.640924	-0.008037	6
C	2.930091	0.640924	-0.008037	6
H	-2.209119	-1.571025	-0.064937	1
H	-2.262309	0.008395	-0.856757	1
H	-2.267409	-0.106835	0.925713	1
H	0.146071	-1.457355	0.038663	1
H	-0.174489	1.600594	-0.031167	1
H	3.995100	0.639295	-0.007997	1
Es	2.338156	0.276473	-0.015336	99
Es	-0.369928	-0.500319	0.015152	99
Es	0.023722	0.099765	0.330540	99
Es	0.334089	0.641010	-0.008033	99
Es	3.629424	0.646271	-0.008155	99
Es	0.039319	0.091718	-0.323885	99
Es	1.063035	0.644533	-0.007111	99
Es	2.930357	0.640934	-0.008045	99
Es	1.739667	0.640916	-0.008038	99
Es	-1.109922	-0.513714	0.010345	99
Es	-0.047640	-1.109366	0.031263	99
Es	-1.861905	-0.535583	0.005443	99
Es	-2.102700	-0.256656	0.565732	99
Es	-2.146828	-1.204330	-0.033993	99
Es	2.340990	1.002286	-0.022416	99
Es	-2.099409	-0.188284	-0.522649	99
Es	2.329078	0.632375	0.013754	99
Es	0.020075	1.259211	-0.024345	99
