29
Properties=species:S:1:pos:R:3:Z:I:1 energy=-194.10965291280272 field_type=dipole dipole="0.000000 0.000000 0.000000" charge=0
C	-1.861959	-0.535585	0.005443	6
C	-0.369839	-0.500255	0.015153	6
C	0.333931	0.640924	-0.008037	6
C	1.739931	0.640924	-0.008037	6
C	2.930091	0.640924	-0.008037	6
H	-2.209119	-1.571025	-0.064937	1
H	-2.262309	0.008395	-0.856757	1
H	-2.267409	-0.106835	0.925713	1
H	0.146071	-1.457355	0.038663	1
H	-0.174489	1.600594	-0.031167	1
H	3.995100	0.639295	-0.007997	1
Es	-2.112550	-0.245211	0.613512	99
Es	-2.111918	-0.167865	-0.563849	99
Es	0.036039	0.105177	0.312975	99
Es	2.318366	0.433084	0.275566	99
Es	0.334059	0.640985	-0.008043	99
Es	1.053974	0.648249	-0.007159	99
Es	1.739688	0.640928	-0.008055	99
Es	-0.029869	-1.141634	0.031390	99
Es	2.341431	0.992060	0.018615	99
Es	-0.369923	-0.500300	0.015160	99
Es	2.930320	0.640914	-0.008042	99
Es	-1.861898	-0.535584	0.005443	99
Es	0.038804	0.090604	-0.306491	99
Es	-1.117445	-0.515012	0.010236	99
Es	3.623295	0.639675	-0.008067	99
Es	0.009598	1.279449	-0.023722	99
Es	-2.092218	-1.227843	-0.040946	99
Es	2.312756	0.479032	-0.318093	99
29
Properties=species:S:1:pos:R:3:Z:I:1 energy=-194.10965291280272 field_type=dipole dipole="0.000000 0.000000 0.000000" charge=0
C	-1.861959	-0.535585	0.005443	6
C	-0.369839	-0.500255	0.015153	6
C	0.333931	0.640924	-0.008037	6
C	1.739931	0.640924	-0.008037	6
C	2.930091	0.640924	-0.008037	6
H	-2.209119	-1.571025	-0.064937	1
H	-2.262309	0.008395	-0.856757	1
H	-2.267409	-0.106835	0.925713	1
H	0.146071	-1.457355	0.038663	1
H	-0.174489	1.600594	-0.031167	1
H	3.995100	0.639295	-0.007997	1
Es	2.930347	0.640939	-0.008036	99
Es	1.739663	0.640904	-0.008034	99
Es	3.626166	0.648893	-0.008123	99
Es	-2.099416	-0.252447	0.577372	99
Es	0.040465	0.090705	-0.306472	99
Es	1.059826	0.644233	-0.007382	99
Es	0.018051	1.260058	-0.024455	99
Es	-2.121989	-1.222059	-0.033522	99
Es	-1.112807	-0.511380	0.010808	99
Es	0.334069	0.640994	-0.008012	99
Es	-1.861898	-0.535583	0.005443	99
Es	-2.106040	-0.173919	-0.535380	99
Es	-0.039150	-1.122376	0.031885	99
Es	2.297913	0.617401	0.165161	99
Es	2.335099	0.298202	-0.111067	99
Es	-0.369931	-0.500300	0.015161	99
Es	2.339318	0.987603	-0.078106	99
Es	0.032821	0.104842	0.313190	99
29
Properties=species:S:1:pos:R:3:Z:I:1 energy=-194.10965291280272 field_type=dipole dipole="0.000000 0.000000 0.000000" charge=0
C	-1.861959	-0.535585	0.005443	6
C	-0.369839	-0.500255	0.015153	6
C	0.333931	0.640924	-0.008037	6
C	1.739931	0.640924	-0.008037	6
C	2.930091	0.640924	-0.008037	6
H	-2.209119	-1.571025	-0.064937	1
H	-2.262309	0.008395	-0.856757	1
H	-2.267409	-0.106835	0.925713	1
H	0.146071	-1.457355	0.038663	1
H	-0.174489	1.600594	-0.031167	1
H	3.995100	0.639295	-0.007997	1
Es	1.059900	0.644732	-0.006806	99
Es	0.077769	0.115186	-0.157074	99
Es	1.739662	0.640905	-0.008034	99
Es	2.298222	0.604896	0.143772	99
Es	2.333936	0.305396	-0.129224	99
Es	-2.151562	-1.187362	-0.025048	99
Es	0.037068	1.233374	-0.026076	99
Es	-2.080539	-0.274645	0.542799	99
Es	2.340207	0.992745	-0.038345	99
Es	-0.047573	-1.108940	0.032954	99
Es	-2.095800	-0.184634	-0.509280	99
Es	2.930348	0.640937	-0.008036	99
Es	-0.369933	-0.500298	0.015156	99
Es	-1.861898	-0.535580	0.005442	99
Es	0.334070	0.640994	-0.008029	99
Es	-1.112636	-0.512325	0.010452	99
Es	3.626458	0.647116	-0.007732	99
Es	-0.015192	0.094213	0.163540	99
29
Properties=species:S:1:pos:R:3:Z:I:1 energy=-194.10965291280272 field_type=dipole dipole="0.000000 0.000000 0.000000" charge=0
C	-1.861959	-0.535585	0.005443	6
C	-0.369839	-0.500255	0.015153	6
C	0.333931	0.640924	-0.008037	6
C	1.739931	0.640924	-0.008037	6
C	2.930091	0.640924	-0.008037	6
H	-2.209119	-1.571025	-0.064937	1
H	-2.262309	0.008395	-0.856757	1
H	-2.267409	-0.106835	0.925713	1
H	0.146071	-1.457355	0.038663	1
H	-0.174489	1.600594	-0.031167	1
H	3.995100	0.639295	-0.007997	1
Es	-1.112603	-0.512571	0.010140	99
Es	2.930348	0.640934	-0.008037	99
Es	0.046655	1.213477	-0.024646	99
Es	-2.165715	-1.159745	-0.029163	99
Es	3.626560	0.646264	-0.008032	99
Es	-2.082544	-0.207050	-0.493192	99
Es	2.340242	0.994246	-0.005753	99
Es	1.059906	0.644669	-0.007048	99
Es	-0.369930	-0.500297	0.015149	99
Es	0.081064	0.119759	-0.094082	99
Es	-0.048887	-1.106773	0.032648	99
Es	-1.861903	-0.535570	0.005427	99
Es	2.295306	0.624545	0.006203	99
Es	-0.026790	0.107605	0.099778	99
Es	-2.079753	-0.278942	0.531288	99
Es	2.336818	0.284258	-0.024187	99
Es	0.334070	0.640998	-0.008033	99
Es	1.739662	0.640904	-0.008031	99
29
Properties=species:S:1:pos:R:3:Z:I:1 energy=-194.10965291280272 field_type=dipole dipole="0.000000 0.000000 0.000000" charge=0
C	-1.861959	-0.535585	0.005443	6
C	-0.369839	-0.500255	0.015153	6
C	0.333931	0.640924	-0.008037	6
C	1.739931	0.640924	-0.008037	6
C	2.930091	0.640924	-0.008037	6
H	-2.209119	-1.571025	-0.064937	1
H	-2.262309	0.008395	-0.856757	1
H	-2.267409	-0.106835	0.925713	1
H	0.146071	-1.457355	0.038663	1
H	-0.174489	1.600594	-0.031167	1
H	3.995100	0.639295	-0.007997	1
Es	-2.176862	-1.133089	-0.021169	99
Es	-2.073301	-0.223251	-0.480572	99
Es	-0.369934	-0.500299	0.015157	99
Es	2.340233	0.994143	-0.018699	99
Es	-2.077874	-0.289236	0.510886	99
Es	2.295435	0.623814	0.032497	99
Es	-1.112598	-0.512563	0.010134	99
Es	-1.861900	-0.535578	0.005436	99
Es	0.082398	0.123269	-0.021793	99
Es	1.059912	0.644580	-0.007349	99
Es	2.336709	0.284990	-0.037528	99
Es	0.334070	0.640995	-0.008052	99
Es	0.047584	1.211570	-0.022530	99
Es	1.739661	0.640910	-0.008036	99
Es	-0.029930	0.108027	0.027422	99
Es	2.930348	0.640938	-0.008037	99
Es	3.626579	0.646081	-0.008332	99
Es	-0.048024	-1.108591	0.030993	99
29
Properties=species:S:1:pos:R:3:Z:I:1 energy=-194.10965291280272 field_type=dipole dipole="0.000000 0.000000 0.000000" charge=0
C	-1.861959	-0.535585	0.005443	6
C	-0.369839	-0.500255	0.015153	6
C	0.333931	0.640924	-0.008037	6
C	1.739931	0.640924	-0.008037	6
C	2.930091	0.640924	-0.008037	6
H	-2.209119	-1.571025	-0.064937	1
H	-2.262309	0.008395	-0.856757	1
H	-2.267409	-0.106835	0.925713	1
H	0.146071	-1.457355	0.038663	1
H	-0.174489	1.600594	-0.031167	1
H	3.995100	0.639295	-0.007997	1
Es	1.739662	0.640906	-0.008036	99
Es	-1.112596	-0.512571	0.010372	99
Es	3.626592	0.645966	-0.008195	99
Es	0.048316	1.209725	-0.022450	99
Es	-0.369933	-0.500300	0.015152	99
Es	0.334067	0.640993	-0.008027	99
Es	2.336844	0.284129	-0.022651	99
Es	-0.030852	0.109637	0.011218	99
Es	-2.182628	-1.117348	-0.019504	99
Es	-1.861900	-0.535577	0.005431	99
Es	1.059899	0.644731	-0.007325	99
Es	-0.047860	-1.108859	0.030739	99
Es	0.082432	0.123729	-0.005439	99
Es	2.340253	0.994222	-0.014942	99
Es	2.295278	0.624615	0.013835	99
Es	2.930348	0.640937	-0.008039	99
Es	-2.079338	-0.293050	0.495149	99
Es	-2.066075	-0.235174	-0.466859	99
29
Properties=species:S:1:pos:R:3:Z:I:1 energy=-194.10965291280272 field_type=dipole dipole="0.000000 0.000000 0.000000" charge=0
C	-1.861959	-0.535585	0.005443	6
C	-0.369839	-0.500255	0.015153	6
C	0.333931	0.640924	-0.008037	6
C	1.739931	0.640924	-0.008037	6
C	2.930091	0.640924	-0.008037	6
H	-2.209119	-1.571025	-0.064937	1
H	-2.262309	0.008395	-0.856757	1
H	-2.267409	-0.106835	0.925713	1
H	0.146071	-1.457355	0.038663	1
H	-0.174489	1.600594	-0.031167	1
H	3.995100	0.639295	-0.007997	1
Es	-0.027773	0.102900	0.040269	99
Es	2.340162	0.994297	-0.000362	99
Es	-1.861913	-0.535556	0.005413	99
Es	-0.046836	-1.110588	0.030632	99
Es	1.739663	0.640897	-0.008035	99
Es	2.336675	0.285209	-0.040653	99
Es	1.059916	0.644626	-0.007412	99
Es	2.930348	0.640934	-0.008042	99
Es	-0.369930	-0.500313	0.015161	99
Es	3.626521	0.646396	-0.009734	99
Es	2.295527	0.623540	0.017212	99
Es	0.082202	0.123102	-0.034456	99
Es	-2.191840	-1.089388	-0.019563	99
Es	-1.112695	-0.511786	0.008805	99
Es	0.334070	0.640994	-0.008040	99
Es	-2.077287	-0.237824	-0.453732	99
Es	0.044451	1.218733	-0.021611	99
Es	-2.058754	-0.319465	0.484577	99
