29
Properties=species:S:1:pos:R:3:Z:I:1 energy=-194.10965291280272 field_type=dipole dipole="0.000000 0.000000 0.000000" charge=0
C	-1.861959	-0.535585	0.005443	6
C	-0.369839	-0.500255	0.015153	6
C	0.333931	0.640924	-0.008037	6
C	1.739931	0.640924	-0.008037	6
C	2.930091	0.640924	-0.008037	6
H	-2.209119	-1.571025	-0.064937	1
H	-2.262309	0.008395	-0.856757	1
H	-2.267409	-0.106835	0.925713	1
H	0.146071	-1.457355	0.038663	1
H	-0.174489	1.600594	-0.031167	1
H	3.995100	0.639295	-0.007997	1
Es	-1.117474	-0.514986	0.010118	99
Es	0.009616	1.279479	-0.023878	99
Es	2.315258	0.449147	-0.301850	99
Es	0.038725	0.090643	-0.306222	99
Es	0.334062	0.640990	-0.008053	99
Es	-1.861899	-0.535584	0.005442	99
Es	-2.111953	-0.167853	-0.563782	99
Es	2.315561	0.462032	0.293687	99
Es	2.930319	0.640935	-0.008035	99
Es	0.036002	0.105228	0.312991	99
Es	1.054041	0.648136	-0.007349	99
Es	-0.029841	-1.141651	0.031337	99
Es	3.623286	0.639603	-0.008067	99
Es	-0.369919	-0.500294	0.015155	99
Es	2.341739	0.993037	-0.015616	99
Es	-2.112524	-0.245249	0.613606	99
Es	1.739700	0.640935	-0.008040	99
Es	-2.092191	-1.227838	-0.041015	99
29
Properties=species:S:1:pos:R:3:Z:I:1 energy=-194.10965291280272 field_type=dipole dipole="0.000000 0.000000 0.000000" charge=0
C	-1.861959	-0.535585	0.005443	6
C	-0.369839	-0.500255	0.015153	6
C	0.333931	0.640924	-0.008037	6
C	1.739931	0.640924	-0.008037	6
C	2.930091	0.640924	-0.008037	6
H	-2.209119	-1.571025	-0.064937	1
H	-2.262309	0.008395	-0.856757	1
H	-2.267409	-0.106835	0.925713	1
H	0.146071	-1.457355	0.038663	1
H	-0.174489	1.600594	-0.031167	1
H	3.995100	0.639295	-0.007997	1
Es	2.315867	0.449421	-0.283802	99
Es	0.009311	1.273342	-0.023842	99
Es	-0.369927	-0.500302	0.015153	99
Es	2.930340	0.640935	-0.008039	99
Es	0.038253	0.091339	-0.300752	99
Es	3.625738	0.645566	-0.008292	99
Es	-2.112237	-0.170239	-0.553823	99
Es	2.340232	0.993333	-0.016109	99
Es	0.334065	0.640992	-0.008047	99
Es	-2.111929	-0.246463	0.602600	99
Es	0.035285	0.105474	0.307427	99
Es	-1.114006	-0.512279	0.010618	99
Es	1.057945	0.643506	-0.007256	99
Es	-0.030074	-1.136387	0.031317	99
Es	1.739670	0.640914	-0.008036	99
Es	-2.100308	-1.228454	-0.040300	99
Es	2.316183	0.461596	0.276169	99
Es	-1.861900	-0.535584	0.005444	99
29
Properties=species:S:1:pos:R:3:Z:I:1 energy=-194.10965291280272 field_type=dipole dipole="0.000000 0.000000 0.000000" charge=0
C	-1.861959	-0.535585	0.005443	6
C	-0.369839	-0.500255	0.015153	6
C	0.333931	0.640924	-0.008037	6
C	1.739931	0.640924	-0.008037	6
C	2.930091	0.640924	-0.008037	6
H	-2.209119	-1.571025	-0.064937	1
H	-2.262309	0.008395	-0.856757	1
H	-2.267409	-0.106835	0.925713	1
H	0.146071	-1.457355	0.038663	1
H	-0.174489	1.600594	-0.031167	1
H	3.995100	0.639295	-0.007997	1
Es	-2.109151	-1.227901	-0.037350	99
Es	0.034363	0.105587	0.306741	99
Es	-2.105996	-0.249571	0.590918	99
Es	1.059400	0.642659	-0.007407	99
Es	-1.861900	-0.535583	0.005443	99
Es	2.930347	0.640942	-0.008037	99
Es	0.334068	0.640998	-0.008044	99
Es	0.039116	0.091379	-0.299779	99
Es	3.626097	0.647903	-0.008128	99
Es	2.339633	0.991259	-0.059526	99
Es	-1.113099	-0.510716	0.011049	99
Es	-0.032073	-1.131807	0.031951	99
Es	-0.369931	-0.500303	0.015161	99
Es	2.324748	0.378533	-0.231867	99
Es	2.307812	0.534482	0.267321	99
Es	1.739666	0.640913	-0.008031	99
Es	-2.111500	-0.170588	-0.545320	99
Es	0.010906	1.268523	-0.024667	99
29
Properties=species:S:1:pos:R:3:Z:I:1 energy=-194.10965291280272 field_type=dipole dipole="0.000000 0.000000 0.000000" charge=0
C	-1.861959	-0.535585	0.005443	6
C	-0.369839	-0.500255	0.015153	6
C	0.333931	0.640924	-0.008037	6
C	1.739931	0.640924	-0.008037	6
C	2.930091	0.640924	-0.008037	6
H	-2.209119	-1.571025	-0.064937	1
H	-2.262309	0.008395	-0.856757	1
H	-2.267409	-0.106835	0.925713	1
H	0.146071	-1.457355	0.038663	1
H	-0.174489	1.600594	-0.031167	1
H	3.995100	0.639295	-0.007997	1
Es	-2.118430	-1.223958	-0.039582	99
Es	1.059785	0.644078	-0.007092	99
Es	2.930347	0.640937	-0.008050	99
Es	0.334069	0.640993	-0.008014	99
Es	2.335217	0.303321	0.111041	99
Es	1.739662	0.640906	-0.008036	99
Es	2.297865	0.610081	-0.185489	99
Es	0.039031	0.091617	-0.306136	99
Es	0.033987	0.104374	0.312625	99
Es	0.017378	1.261088	-0.023209	99
Es	-0.369932	-0.500302	0.015154	99
Es	2.339242	0.989863	0.050822	99
Es	3.626142	0.648907	-0.008873	99
Es	-0.038190	-1.123784	0.030876	99
Es	-1.112842	-0.511401	0.009931	99
Es	-2.102359	-0.178559	-0.535318	99
Es	-1.861898	-0.535583	0.005442	99
Es	-2.106567	-0.245870	0.584336	99
29
Properties=species:S:1:pos:R:3:Z:I:1 energy=-194.10965291280272 field_type=dipole dipole="0.000000 0.000000 0.000000" charge=0
C	-1.861959	-0.535585	0.005443	6
C	-0.369839	-0.500255	0.015153	6
C	0.333931	0.640924	-0.008037	6
C	1.739931	0.640924	-0.008037	6
C	2.930091	0.640924	-0.008037	6
H	-2.209119	-1.571025	-0.064937	1
H	-2.262309	0.008395	-0.856757	1
H	-2.267409	-0.106835	0.925713	1
H	0.146071	-1.457355	0.038663	1
H	-0.174489	1.600594	-0.031167	1
H	3.995100	0.639295	-0.007997	1
Es	-2.099016	-0.180507	-0.525875	99
Es	-0.044359	-1.114708	0.031484	99
Es	1.059878	0.644569	-0.007272	99
Es	2.340078	0.994012	-0.031072	99
Es	0.022637	1.254903	-0.024175	99
Es	0.334070	0.640998	-0.008030	99
Es	2.295344	0.625271	0.040670	99
Es	-1.112739	-0.511565	0.010223	99
Es	-1.861898	-0.535584	0.005443	99
Es	-0.369932	-0.500302	0.015159	99
Es	-2.095844	-0.254519	0.567837	99
Es	0.032358	0.103324	0.317886	99
Es	0.041510	0.089781	-0.311105	99
Es	2.336937	0.283759	-0.033453	99
Es	1.739663	0.640897	-0.008035	99
Es	2.930347	0.640943	-0.008036	99
Es	-2.132798	-1.212962	-0.032850	99
Es	3.626270	0.648401	-0.008367	99
29
Properties=species:S:1:pos:R:3:Z:I:1 energy=-194.10965291280272 field_type=dipole dipole="0.000000 0.000000 0.000000" charge=0
C	-1.861959	-0.535585	0.005443	6
C	-0.369839	-0.500255	0.015153	6
C	0.333931	0.640924	-0.008037	6
C	1.739931	0.640924	-0.008037	6
C	2.930091	0.640924	-0.008037	6
H	-2.209119	-1.571025	-0.064937	1
H	-2.262309	0.008395	-0.856757	1
H	-2.267409	-0.106835	0.925713	1
H	0.146071	-1.457355	0.038663	1
H	-0.174489	1.600594	-0.031167	1
H	3.995100	0.639295	-0.007997	1
Es	-1.112703	-0.511676	0.009972	99
Es	0.054230	0.112813	0.295062	99
Es	0.026318	1.250460	-0.022165	99
Es	-0.047261	-1.109815	0.029731	99
Es	1.739663	0.640904	-0.008024	99
Es	-1.861901	-0.535580	0.005452	99
Es	0.018838	0.080037	-0.287886	99
Es	1.059892	0.644637	-0.007782	99
Es	2.930347	0.640944	-0.008037	99
Es	2.295212	0.624730	-0.015364	99
Es	2.337033	0.284180	0.017821	99
Es	-2.097242	-0.251843	0.548629	99
Es	-0.369933	-0.500301	0.015157	99
Es	2.340116	0.994141	-0.026161	99
Es	0.334069	0.640996	-0.008048	99
Es	3.626370	0.647698	-0.009040	99
Es	-2.084567	-0.199218	-0.511063	99
Es	-2.145972	-1.196397	-0.027822	99
29
Properties=species:S:1:pos:R:3:Z:I:1 energy=-194.10965291280272 field_type=dipole dipole="0.000000 0.000000 0.000000" charge=0
C	-1.861959	-0.535585	0.005443	6
C	-0.369839	-0.500255	0.015153	6
C	0.333931	0.640924	-0.008037	6
C	1.739931	0.640924	-0.008037	6
C	2.930091	0.640924	-0.008037	6
H	-2.209119	-1.571025	-0.064937	1
H	-2.262309	0.008395	-0.856757	1
H	-2.267409	-0.106835	0.925713	1
H	0.146071	-1.457355	0.038663	1
H	-0.174489	1.600594	-0.031167	1
H	3.995100	0.639295	-0.007997	1
Es	-1.861898	-0.535578	0.005438	99
Es	-0.004342	0.091875	0.226696	99
Es	-2.150409	-1.189307	-0.030095	99
Es	3.626443	0.647225	-0.007590	99
Es	1.059887	0.644794	-0.006711	99
Es	1.739662	0.640904	-0.008042	99
Es	-2.084207	-0.269519	0.547895	99
Es	-0.049138	-1.106052	0.032715	99
Es	0.034032	1.238785	-0.025674	99
Es	2.295826	0.621197	0.056575	99
Es	0.071539	0.109131	-0.220540	99
Es	2.336288	0.287673	-0.062178	99
Es	-2.093270	-0.187904	-0.509606	99
Es	-0.369933	-0.500303	0.015159	99
Es	2.340252	0.994157	-0.018169	99
Es	0.334069	0.640992	-0.008038	99
Es	-1.112641	-0.512302	0.010631	99
Es	2.930348	0.640942	-0.008037	99
29
Properties=species:S:1:pos:R:3:Z:I:1 energy=-194.10965291280272 field_type=dipole dipole="0.000000 0.000000 0.000000" charge=0
C	-1.861959	-0.535585	0.005443	6
C	-0.369839	-0.500255	0.015153	6
C	0.333931	0.640924	-0.008037	6
C	1.739931	0.640924	-0.008037	6
C	2.930091	0.640924	-0.008037	6
H	-2.209119	-1.571025	-0.064937	1
H	-2.262309	0.008395	-0.856757	1
H	-2.267409	-0.106835	0.925713	1
H	0.146071	-1.457355	0.038663	1
H	-0.174489	1.600594	-0.031167	1
H	3.995100	0.639295	-0.007997	1
Es	-0.369932	-0.500308	0.015155	99
Es	3.626487	0.646882	-0.007732	99
Es	2.340003	0.993069	0.019657	99
Es	1.059891	0.644804	-0.006739	99
Es	-1.112617	-0.512486	0.010384	99
Es	2.336955	0.284736	0.020393	99
Es	1.739662	0.640902	-0.008037	99
Es	0.076309	0.114106	-0.174094	99
Es	2.295417	0.625153	-0.063762	99
Es	-1.861906	-0.535571	0.005435	99
Es	0.334068	0.641007	-0.008028	99
Es	0.039710	1.228396	-0.025574	99
Es	-0.014463	0.096830	0.180376	99
Es	-2.086553	-0.198239	-0.502974	99
Es	-2.086527	-0.266707	0.546816	99
Es	-0.049480	-1.105526	0.032588	99
Es	2.930348	0.640939	-0.008036	99
Es	-2.154863	-1.181280	-0.035398	99
29
Properties=species:S:1:pos:R:3:Z:I:1 energy=-194.10965291280272 field_type=dipole dipole="0.000000 0.000000 0.000000" charge=0
C	-1.861959	-0.535585	0.005443	6
C	-0.369839	-0.500255	0.015153	6
C	0.333931	0.640924	-0.008037	6
C	1.739931	0.640924	-0.008037	6
C	2.930091	0.640924	-0.008037	6
H	-2.209119	-1.571025	-0.064937	1
H	-2.262309	0.008395	-0.856757	1
H	-2.267409	-0.106835	0.925713	1
H	0.146071	-1.457355	0.038663	1
H	-0.174489	1.600594	-0.031167	1
H	3.995100	0.639295	-0.007997	1
Es	2.930347	0.640944	-0.008043	99
Es	-2.159553	-1.172402	-0.034848	99
Es	3.626525	0.646577	-0.007887	99
Es	-0.049235	-1.106040	0.032545	99
Es	-0.020464	0.100215	0.140322	99
Es	-1.112617	-0.512482	0.010449	99
Es	1.059891	0.644814	-0.006854	99
Es	0.042731	1.222284	-0.024678	99
Es	2.339990	0.992730	0.022540	99
Es	0.079035	0.117424	-0.134748	99
Es	0.334069	0.641005	-0.008041	99
Es	-0.369933	-0.500298	0.015159	99
Es	2.295559	0.624140	-0.079559	99
Es	-2.085765	-0.268764	0.540975	99
Es	-1.861898	-0.535581	0.005442	99
Es	2.336822	0.286123	0.033352	99
Es	1.739662	0.640905	-0.008039	99
Es	-2.082659	-0.204883	-0.497659	99
29
Properties=species:S:1:pos:R:3:Z:I:1 energy=-194.10965291280272 field_type=dipole dipole="0.000000 0.000000 0.000000" charge=0
C	-1.861959	-0.535585	0.005443	6
C	-0.369839	-0.500255	0.015153	6
C	0.333931	0.640924	-0.008037	6
C	1.739931	0.640924	-0.008037	6
C	2.930091	0.640924	-0.008037	6
H	-2.209119	-1.571025	-0.064937	1
H	-2.262309	0.008395	-0.856757	1
H	-2.267409	-0.106835	0.925713	1
H	0.146071	-1.457355	0.038663	1
H	-0.174489	1.600594	-0.031167	1
H	3.995100	0.639295	-0.007997	1
Es	-2.085892	-0.200686	-0.498306	99
Es	-0.027040	0.103786	0.067067	99
Es	0.044983	1.217372	-0.024062	99
Es	-2.163976	-1.163644	-0.022419	99
Es	1.739662	0.640901	-0.008038	99
Es	2.930348	0.640942	-0.008037	99
Es	-0.047858	-1.108693	0.032244	99
Es	-1.112601	-0.512632	0.010311	99
Es	2.340192	0.992827	-0.037945	99
Es	0.081969	0.121511	-0.061380	99
Es	-2.078131	-0.281422	0.529602	99
Es	-0.369933	-0.500302	0.015151	99
Es	2.296865	0.615219	0.110535	99
Es	1.059904	0.644727	-0.007233	99
Es	3.626541	0.646433	-0.008185	99
Es	0.334069	0.640990	-0.008006	99
Es	2.335312	0.294977	-0.096307	99
Es	-1.861905	-0.535598	0.005438	99
29
Properties=species:S:1:pos:R:3:Z:I:1 energy=-194.10965291280272 field_type=dipole dipole="0.000000 0.000000 0.000000" charge=0
C	-1.861959	-0.535585	0.005443	6
C	-0.369839	-0.500255	0.015153	6
C	0.333931	0.640924	-0.008037	6
C	1.739931	0.640924	-0.008037	6
C	2.930091	0.640924	-0.008037	6
H	-2.209119	-1.571025	-0.064937	1
H	-2.262309	0.008395	-0.856757	1
H	-2.267409	-0.106835	0.925713	1
H	0.146071	-1.457355	0.038663	1
H	-0.174489	1.600594	-0.031167	1
H	3.995100	0.639295	-0.007997	1
Es	-0.049076	-1.106456	0.032096	99
Es	0.334071	0.640995	-0.008036	99
Es	-1.112589	-0.512727	0.010340	99
Es	2.295213	0.624883	-0.007411	99
Es	1.059900	0.644740	-0.007123	99
Es	2.340253	0.994217	-0.006395	99
Es	2.930346	0.640950	-0.008037	99
Es	-1.861898	-0.535583	0.005441	99
Es	1.739662	0.640908	-0.008042	99
Es	3.626567	0.646208	-0.008070	99
Es	-0.027502	0.107475	0.085184	99
Es	0.081390	0.120867	-0.080109	99
Es	-2.080664	-0.209846	-0.491861	99
Es	0.047233	1.212188	-0.023455	99
Es	-2.166388	-1.158180	-0.030245	99
Es	-0.369934	-0.500298	0.015156	99
Es	2.336905	0.283903	-0.009958	99
Es	-2.080981	-0.277536	0.530954	99
29
Properties=species:S:1:pos:R:3:Z:I:1 energy=-194.10965291280272 field_type=dipole dipole="0.000000 0.000000 0.000000" charge=0
C	-1.861959	-0.535585	0.005443	6
C	-0.369839	-0.500255	0.015153	6
C	0.333931	0.640924	-0.008037	6
C	1.739931	0.640924	-0.008037	6
C	2.930091	0.640924	-0.008037	6
H	-2.209119	-1.571025	-0.064937	1
H	-2.262309	0.008395	-0.856757	1
H	-2.267409	-0.106835	0.925713	1
H	0.146071	-1.457355	0.038663	1
H	-0.174489	1.600594	-0.031167	1
H	3.995100	0.639295	-0.007997	1
Es	0.082029	0.122108	-0.053129	99
Es	1.739662	0.640912	-0.008029	99
Es	-2.079147	-0.213396	-0.488354	99
Es	-2.171340	-1.146929	-0.024260	99
Es	-1.112599	-0.512601	0.010221	99
Es	-0.047928	-1.108669	0.031525	99
Es	2.295573	0.623095	0.045698	99
Es	-0.369934	-0.500298	0.015158	99
Es	-0.029420	0.108754	0.058738	99
Es	0.334070	0.640995	-0.008019	99
Es	2.336514	0.286009	-0.047284	99
Es	1.059908	0.644662	-0.007141	99
Es	2.930347	0.640947	-0.008034	99
Es	-1.861898	-0.535584	0.005445	99
Es	2.340287	0.993858	-0.022196	99
Es	-2.077542	-0.285309	0.521589	99
Es	3.626571	0.646171	-0.008249	99
Es	0.047354	1.211983	-0.023249	99
29
Properties=species:S:1:pos:R:3:Z:I:1 energy=-194.10965291280272 field_type=dipole dipole="0.000000 0.000000 0.000000" charge=0
C	-1.861959	-0.535585	0.005443	6
C	-0.369839	-0.500255	0.015153	6
C	0.333931	0.640924	-0.008037	6
C	1.739931	0.640924	-0.008037	6
C	2.930091	0.640924	-0.008037	6
H	-2.209119	-1.571025	-0.064937	1
H	-2.262309	0.008395	-0.856757	1
H	-2.267409	-0.106835	0.925713	1
H	0.146071	-1.457355	0.038663	1
H	-0.174489	1.600594	-0.031167	1
H	3.995100	0.639295	-0.007997	1
Es	-0.369933	-0.500297	0.015155	99
Es	0.046707	1.213515	-0.022799	99
Es	2.340243	0.993922	-0.023697	99
Es	-0.048334	-1.107954	0.031486	99
Es	-1.861899	-0.535583	0.005443	99
Es	-2.174903	-1.138120	-0.023016	99
Es	-1.112602	-0.512553	0.010140	99
Es	2.930348	0.640938	-0.008038	99
Es	-2.075902	-0.219352	-0.483656	99
Es	2.336576	0.285778	-0.045529	99
Es	-2.077228	-0.288143	0.515753	99
Es	0.082324	0.122823	-0.033893	99
Es	3.626580	0.646073	-0.008365	99
Es	1.739662	0.640904	-0.008036	99
Es	0.334070	0.640993	-0.008023	99
Es	2.295554	0.623295	0.045500	99
Es	1.059897	0.644775	-0.007161	99
Es	-0.028652	0.105694	0.039166	99
29
Properties=species:S:1:pos:R:3:Z:I:1 energy=-194.10965291280272 field_type=dipole dipole="0.000000 0.000000 0.000000" charge=0
C	-1.861959	-0.535585	0.005443	6
C	-0.369839	-0.500255	0.015153	6
C	0.333931	0.640924	-0.008037	6
C	1.739931	0.640924	-0.008037	6
C	2.930091	0.640924	-0.008037	6
H	-2.209119	-1.571025	-0.064937	1
H	-2.262309	0.008395	-0.856757	1
H	-2.267409	-0.106835	0.925713	1
H	0.146071	-1.457355	0.038663	1
H	-0.174489	1.600594	-0.031167	1
H	3.995100	0.639295	-0.007997	1
Es	-2.072913	-0.224238	-0.479548	99
Es	3.626589	0.645976	-0.008421	99
Es	2.930348	0.640941	-0.008040	99
Es	2.340245	0.994335	-0.009083	99
Es	-2.078473	-0.287719	0.512403	99
Es	0.334070	0.641000	-0.008039	99
Es	0.047933	1.210650	-0.022501	99
Es	-1.112600	-0.512566	0.010042	99
Es	-1.861898	-0.535582	0.005443	99
Es	2.295248	0.624728	0.002736	99
Es	-2.176655	-1.133586	-0.023576	99
Es	-0.369933	-0.500298	0.015157	99
Es	2.336870	0.284020	-0.017467	99
Es	0.082405	0.123241	-0.022124	99
Es	-0.030094	0.108536	0.027520	99
Es	1.739663	0.640898	-0.008041	99
Es	-0.048207	-1.108252	0.031208	99
Es	1.059910	0.644623	-0.007238	99
29
Properties=species:S:1:pos:R:3:Z:I:1 energy=-194.10965291280272 field_type=dipole dipole="0.000000 0.000000 0.000000" charge=0
C	-1.861959	-0.535585	0.005443	6
C	-0.369839	-0.500255	0.015153	6
C	0.333931	0.640924	-0.008037	6
C	1.739931	0.640924	-0.008037	6
C	2.930091	0.640924	-0.008037	6
H	-2.209119	-1.571025	-0.064937	1
H	-2.262309	0.008395	-0.856757	1
H	-2.267409	-0.106835	0.925713	1
H	0.146071	-1.457355	0.038663	1
H	-0.174489	1.600594	-0.031167	1
H	3.995100	0.639295	-0.007997	1
Es	0.082401	0.123235	-0.022316	99
Es	1.739662	0.640904	-0.008036	99
Es	0.048162	1.210052	-0.022616	99
Es	-0.030094	0.108714	0.027997	99
Es	-2.068505	-0.231017	-0.472221	99
Es	-1.861901	-0.535571	0.005429	99
Es	-0.369934	-0.500298	0.015155	99
Es	-2.081313	-0.285186	0.507031	99
Es	1.059902	0.644711	-0.007274	99
Es	2.295234	0.624363	-0.036248	99
Es	-0.048427	-1.107913	0.031024	99
Es	-2.178223	-1.129357	-0.025718	99
Es	2.930348	0.640937	-0.008036	99
Es	-1.112604	-0.512479	0.010090	99
Es	2.336917	0.284503	0.012819	99
Es	0.334070	0.640993	-0.008048	99
Es	2.340217	0.994152	-0.000295	99
Es	3.626593	0.645963	-0.008306	99
29
Properties=species:S:1:pos:R:3:Z:I:1 energy=-194.10965291280272 field_type=dipole dipole="0.000000 0.000000 0.000000" charge=0
C	-1.861959	-0.535585	0.005443	6
C	-0.369839	-0.500255	0.015153	6
C	0.333931	0.640924	-0.008037	6
C	1.739931	0.640924	-0.008037	6
C	2.930091	0.640924	-0.008037	6
H	-2.209119	-1.571025	-0.064937	1
H	-2.262309	0.008395	-0.856757	1
H	-2.267409	-0.106835	0.925713	1
H	0.146071	-1.457355	0.038663	1
H	-0.174489	1.600594	-0.031167	1
H	3.995100	0.639295	-0.007997	1
Es	-2.067989	-0.231846	-0.471170	99
Es	2.930348	0.640937	-0.008036	99
Es	-1.861898	-0.535586	0.005438	99
Es	0.048325	1.209680	-0.022378	99
Es	-2.079463	-0.290635	0.500774	99
Es	1.739662	0.640905	-0.008036	99
Es	2.340232	0.994319	-0.007356	99
Es	2.295234	0.624794	-0.002300	99
Es	-2.180592	-1.123038	-0.020469	99
Es	-1.112594	-0.512622	0.010075	99
Es	0.334070	0.640995	-0.008034	99
Es	-0.030698	0.109513	0.016496	99
Es	1.059901	0.644707	-0.007304	99
Es	2.336902	0.283919	-0.014082	99
Es	0.082437	0.123572	-0.011029	99
Es	3.626596	0.645925	-0.008272	99
Es	-0.369934	-0.500299	0.015154	99
Es	-0.048032	-1.108531	0.030959	99
29
Properties=species:S:1:pos:R:3:Z:I:1 energy=-194.10965291280272 field_type=dipole dipole="0.000000 0.000000 0.000000" charge=0
C	-1.861959	-0.535585	0.005443	6
C	-0.369839	-0.500255	0.015153	6
C	0.333931	0.640924	-0.008037	6
C	1.739931	0.640924	-0.008037	6
C	2.930091	0.640924	-0.008037	6
H	-2.209119	-1.571025	-0.064937	1
H	-2.262309	0.008395	-0.856757	1
H	-2.267409	-0.106835	0.925713	1
H	0.146071	-1.457355	0.038663	1
H	-0.174489	1.600594	-0.031167	1
H	3.995100	0.639295	-0.007997	1
Es	1.059900	0.644721	-0.007159	99
Es	-0.048275	-1.108200	0.031036	99
Es	2.295437	0.623829	0.033435	99
Es	-0.029794	0.107309	0.011616	99
Es	2.340215	0.994183	-0.019652	99
Es	0.047674	1.211288	-0.022460	99
Es	-2.066165	-0.234382	-0.467572	99
Es	-2.182721	-1.117097	-0.017127	99
Es	-2.079152	-0.294134	0.493294	99
Es	-1.112610	-0.512409	0.010496	99
Es	2.336714	0.285035	-0.037552	99
Es	0.334070	0.640993	-0.008048	99
Es	0.082437	0.123697	-0.006306	99
Es	1.739662	0.640910	-0.008038	99
Es	-1.861898	-0.535583	0.005442	99
Es	3.626598	0.645913	-0.008094	99
Es	2.930348	0.640935	-0.008038	99
Es	-0.369934	-0.500299	0.015155	99
29
Properties=species:S:1:pos:R:3:Z:I:1 energy=-194.10965291280272 field_type=dipole dipole="0.000000 0.000000 0.000000" charge=0
C	-1.861959	-0.535585	0.005443	6
C	-0.369839	-0.500255	0.015153	6
C	0.333931	0.640924	-0.008037	6
C	1.739931	0.640924	-0.008037	6
C	2.930091	0.640924	-0.008037	6
H	-2.209119	-1.571025	-0.064937	1
H	-2.262309	0.008395	-0.856757	1
H	-2.267409	-0.106835	0.925713	1
H	0.146071	-1.457355	0.038663	1
H	-0.174489	1.600594	-0.031167	1
H	3.995100	0.639295	-0.007997	1
Es	2.930348	0.640937	-0.008039	99
Es	3.626599	0.645896	-0.008120	99
Es	-0.048359	-1.108037	0.030749	99
Es	2.295201	0.624864	-0.002009	99
Es	-1.112608	-0.512407	0.010292	99
Es	-1.861898	-0.535584	0.005443	99
Es	-2.064458	-0.238073	-0.462746	99
Es	0.334070	0.640995	-0.008038	99
Es	2.336948	0.283831	-0.008912	99
Es	0.048531	1.209268	-0.022311	99
Es	2.340220	0.994341	-0.012804	99
Es	1.059912	0.644577	-0.007377	99
Es	-0.369933	-0.500296	0.015158	99
Es	-2.080323	-0.292042	0.492934	99
Es	1.739662	0.640904	-0.008036	99
Es	-2.183255	-1.115527	-0.021395	99
Es	-0.030582	0.109383	0.012934	99
Es	0.082433	0.123680	-0.007297	99
29
Properties=species:S:1:pos:R:3:Z:I:1 energy=-194.10965291280272 field_type=dipole dipole="0.000000 0.000000 0.000000" charge=0
C	-1.861959	-0.535585	0.005443	6
C	-0.369839	-0.500255	0.015153	6
C	0.333931	0.640924	-0.008037	6
C	1.739931	0.640924	-0.008037	6
C	2.930091	0.640924	-0.008037	6
H	-2.209119	-1.571025	-0.064937	1
H	-2.262309	0.008395	-0.856757	1
H	-2.267409	-0.106835	0.925713	1
H	0.146071	-1.457355	0.038663	1
H	-0.174489	1.600594	-0.031167	1
H	3.995100	0.639295	-0.007997	1
Es	-2.059350	-0.316010	0.488141	99
Es	-2.189238	-1.097631	-0.021399	99
Es	-2.079329	-0.232877	-0.455710	99
Es	2.930348	0.640938	-0.008040	99
Es	1.059905	0.644750	-0.007390	99
Es	0.082078	0.122929	-0.041352	99
Es	-0.046634	-1.110992	0.030533	99
Es	2.295566	0.622939	0.029822	99
Es	1.739662	0.640906	-0.008031	99
Es	0.045656	1.215930	-0.021752	99
Es	2.340275	0.994211	-0.007616	99
Es	2.336525	0.285854	-0.046085	99
Es	3.626536	0.646293	-0.009613	99
Es	-1.112686	-0.511832	0.008964	99
Es	-0.029043	0.106188	0.047435	99
Es	0.334067	0.640992	-0.008082	99
Es	-0.369932	-0.500297	0.015157	99
Es	-1.861898	-0.535580	0.005448	99
29
Properties=species:S:1:pos:R:3:Z:I:1 energy=-194.10965291280272 field_type=dipole dipole="0.000000 0.000000 0.000000" charge=0
C	-1.861959	-0.535585	0.005443	6
C	-0.369839	-0.500255	0.015153	6
C	0.333931	0.640924	-0.008037	6
C	1.739931	0.640924	-0.008037	6
C	2.930091	0.640924	-0.008037	6
H	-2.209119	-1.571025	-0.064937	1
H	-2.262309	0.008395	-0.856757	1
H	-2.267409	-0.106835	0.925713	1
H	0.146071	-1.457355	0.038663	1
H	-0.174489	1.600594	-0.031167	1
H	3.995100	0.639295	-0.007997	1
Es	-2.061383	-0.319785	0.486328	99
Es	3.626512	0.646537	-0.009423	99
Es	1.739663	0.640898	-0.008027	99
Es	-2.073134	-0.242752	-0.456156	99
Es	2.340268	0.994263	-0.008561	99
Es	-1.861912	-0.535560	0.005488	99
Es	-0.027742	0.101812	0.030991	99
Es	2.336588	0.285465	-0.042858	99
Es	-0.045763	-1.112468	0.030090	99
Es	0.082307	0.123315	-0.024492	99
Es	2.930347	0.640946	-0.008043	99
Es	1.059920	0.644620	-0.007267	99
Es	-2.193336	-1.084515	-0.019446	99
Es	0.334070	0.640999	-0.008033	99
Es	2.295508	0.623295	0.027552	99
Es	-0.369933	-0.500299	0.015161	99
Es	0.043252	1.221360	-0.021938	99
Es	-1.112725	-0.511421	0.009065	99
29
Properties=species:S:1:pos:R:3:Z:I:1 energy=-194.10965291280272 field_type=dipole dipole="0.000000 0.000000 0.000000" charge=0
C	-1.861959	-0.535585	0.005443	6
C	-0.369839	-0.500255	0.015153	6
C	0.333931	0.640924	-0.008037	6
C	1.739931	0.640924	-0.008037	6
C	2.930091	0.640924	-0.008037	6
H	-2.209119	-1.571025	-0.064937	1
H	-2.262309	0.008395	-0.856757	1
H	-2.267409	-0.106835	0.925713	1
H	0.146071	-1.457355	0.038663	1
H	-0.174489	1.600594	-0.031167	1
H	3.995100	0.639295	-0.007997	1
Es	-0.047664	-1.109137	0.031232	99
Es	0.334070	0.640993	-0.008054	99
Es	-2.084746	-0.227631	-0.444981	99
Es	1.059918	0.644660	-0.007266	99
Es	-0.029523	0.109601	0.067490	99
Es	0.081734	0.122100	-0.061206	99
Es	-1.112671	-0.512079	0.008675	99
Es	-2.188539	-1.099818	-0.019823	99
Es	2.930348	0.640939	-0.008045	99
Es	-0.369931	-0.500310	0.015158	99
Es	1.739663	0.640900	-0.008032	99
Es	0.047503	1.211556	-0.022662	99
Es	2.336208	0.288168	-0.063673	99
Es	-2.054653	-0.318760	0.476233	99
Es	2.340239	0.994272	-0.007263	99
Es	-1.861898	-0.535580	0.005439	99
Es	3.626536	0.646243	-0.009831	99
Es	2.295916	0.620595	0.047039	99
29
Properties=species:S:1:pos:R:3:Z:I:1 energy=-194.10965291280272 field_type=dipole dipole="0.000000 0.000000 0.000000" charge=0
C	-1.861959	-0.535585	0.005443	6
C	-0.369839	-0.500255	0.015153	6
C	0.333931	0.640924	-0.008037	6
C	1.739931	0.640924	-0.008037	6
C	2.930091	0.640924	-0.008037	6
H	-2.209119	-1.571025	-0.064937	1
H	-2.262309	0.008395	-0.856757	1
H	-2.267409	-0.106835	0.925713	1
H	0.146071	-1.457355	0.038663	1
H	-0.174489	1.600594	-0.031167	1
H	3.995100	0.639295	-0.007997	1
Es	2.340206	0.994190	-0.000928	99
Es	1.739662	0.640903	-0.008030	99
Es	-1.112679	-0.512020	0.008628	99
Es	0.081978	0.122721	-0.048020	99
Es	-1.861906	-0.535561	0.005413	99
Es	-2.055399	-0.319815	0.477867	99
Es	0.046857	1.213144	-0.021767	99
Es	3.626520	0.646340	-0.009987	99
Es	1.059917	0.644617	-0.007455	99
Es	-2.081840	-0.233470	-0.445871	99
Es	2.295600	0.623034	0.022696	99
Es	-0.369934	-0.500297	0.015163	99
Es	-2.190669	-1.093104	-0.020358	99
Es	2.930347	0.640946	-0.008044	99
Es	0.334069	0.641006	-0.008037	99
Es	-0.029498	0.108089	0.053783	99
Es	2.336564	0.285758	-0.045572	99
Es	-0.047288	-1.109771	0.030949	99
29
Properties=species:S:1:pos:R:3:Z:I:1 energy=-194.10965291280272 field_type=dipole dipole="0.000000 0.000000 0.000000" charge=0
C	-1.861959	-0.535585	0.005443	6
C	-0.369839	-0.500255	0.015153	6
C	0.333931	0.640924	-0.008037	6
C	1.739931	0.640924	-0.008037	6
C	2.930091	0.640924	-0.008037	6
H	-2.209119	-1.571025	-0.064937	1
H	-2.262309	0.008395	-0.856757	1
H	-2.267409	-0.106835	0.925713	1
H	0.146071	-1.457355	0.038663	1
H	-0.174489	1.600594	-0.031167	1
H	3.995100	0.639295	-0.007997	1
Es	-1.112675	-0.512031	0.008766	99
Es	0.334069	0.640992	-0.008066	99
Es	0.081672	0.122012	-0.064181	99
Es	2.336320	0.287288	-0.057686	99
Es	1.059907	0.644757	-0.007402	99
Es	-1.861900	-0.535583	0.005443	99
Es	-0.047981	-1.108497	0.031560	99
Es	-2.053445	-0.319953	0.471879	99
Es	2.930347	0.640946	-0.008046	99
Es	1.739662	0.640905	-0.008037	99
Es	0.047407	1.211735	-0.022406	99
Es	-0.369933	-0.500298	0.015169	99
Es	-2.190153	-1.094699	-0.021762	99
Es	2.340270	0.994224	-0.009667	99
Es	-0.029041	0.108831	0.069962	99
Es	2.295774	0.621504	0.043481	99
Es	-2.084329	-0.231652	-0.438677	99
Es	3.626535	0.646228	-0.009898	99
