51
Properties=species:S:1:pos:R:3:Z:I:1 energy=-290.45390370797065 field_type=dipole dipole="0.000000 0.000000 0.000000" charge=0
C	-1.419487	-1.651173	-1.332540	6
C	-0.131987	-1.450173	-0.545050	6
C	0.312753	0.026217	-0.431580	6
C	-0.764137	0.943137	0.189600	6
C	-1.157567	0.592907	1.618790	6
N	1.584093	0.042027	0.317030	7
C	2.247943	1.339087	0.302220	6
H	-1.600727	-2.720063	-1.486330	1
H	-1.359977	-1.172983	-2.315070	1
H	-2.284857	-1.247383	-0.798960	1
H	0.658343	-2.022833	-1.048660	1
H	-0.248767	-1.898063	0.449410	1
H	0.507563	0.383177	-1.452400	1
H	-1.663647	0.928907	-0.436880	1
H	-0.422057	1.984667	0.166590	1
H	-1.605627	-0.402873	1.678940	1
H	-1.898257	1.310547	1.986130	1
H	-0.297057	0.628387	2.293030	1
H	2.216753	-0.648233	-0.088320	1
H	1.697633	2.083397	0.884680	1
H	2.394333	1.709117	-0.717240	1
H	3.234743	1.242197	0.766610	1
Es	-0.522842	1.652220	0.174315	99
Es	-1.463322	-0.086618	1.655016	99
Es	1.520914	-0.051620	0.645518	99
Es	1.872361	0.622372	0.284419	99
Es	-0.214740	-1.748140	0.129274	99
Es	-0.764136	0.943100	0.189595	99
Es	-1.665052	1.084273	1.864511	99
Es	-1.376234	0.924828	-0.242486	99
Es	2.344221	1.598893	-0.405027	99
Es	-1.377286	-1.323248	-2.001871	99
Es	2.245753	1.335060	0.302107	99
Es	-0.574857	0.618568	2.075217	99
Es	1.865594	1.846575	0.693669	99
Es	0.418521	-1.837156	-0.893631	99
Es	-1.419496	-1.651116	-1.332448	99
Es	-1.157597	0.592911	1.618760	99
Es	1.966140	-0.363826	0.047139	99
Es	0.442171	0.278848	-1.144752	99
Es	-0.221059	0.478008	-0.105848	99
Es	1.578948	0.041151	0.318566	99
Es	2.923554	1.270158	0.615126	99
Es	0.074709	-0.713920	-0.482822	99
Es	-0.781635	-1.537514	-0.942405	99
Es	-2.009716	-1.372599	-0.967851	99
Es	-1.539429	-2.378719	-1.437770	99
Es	0.313014	0.026226	-0.431214	99
Es	-0.954682	0.757950	0.905543	99
Es	1.050616	0.055914	-0.026576	99
Es	-0.132586	-1.451807	-0.541284	99
51
Properties=species:S:1:pos:R:3:Z:I:1 energy=-290.45390370797065 field_type=dipole dipole="0.000000 0.000000 0.000000" charge=0
C	-1.419487	-1.651173	-1.332540	6
C	-0.131987	-1.450173	-0.545050	6
C	0.312753	0.026217	-0.431580	6
C	-0.764137	0.943137	0.189600	6
C	-1.157567	0.592907	1.618790	6
N	1.584093	0.042027	0.317030	7
C	2.247943	1.339087	0.302220	6
H	-1.600727	-2.720063	-1.486330	1
H	-1.359977	-1.172983	-2.315070	1
H	-2.284857	-1.247383	-0.798960	1
H	0.658343	-2.022833	-1.048660	1
H	-0.248767	-1.898063	0.449410	1
H	0.507563	0.383177	-1.452400	1
H	-1.663647	0.928907	-0.436880	1
H	-0.422057	1.984667	0.166590	1
H	-1.605627	-0.402873	1.678940	1
H	-1.898257	1.310547	1.986130	1
H	-0.297057	0.628387	2.293030	1
H	2.216753	-0.648233	-0.088320	1
H	1.697633	2.083397	0.884680	1
H	2.394333	1.709117	-0.717240	1
H	3.234743	1.242197	0.766610	1
Es	-0.764108	0.943078	0.189625	99
Es	0.442377	0.278584	-1.145559	99
Es	-0.574926	0.615027	2.073197	99
Es	2.247885	1.338985	0.302239	99
Es	-1.541793	-2.378253	-1.438760	99
Es	-1.375926	0.925205	-0.241254	99
Es	-0.131446	-1.450837	-0.544946	99
Es	0.076746	-0.711251	-0.484829	99
Es	1.867517	1.844917	0.694026	99
Es	1.509537	-0.047233	0.647291	99
Es	-1.419481	-1.650427	-1.334029	99
Es	-1.158553	0.593761	1.619115	99
Es	2.341933	1.600385	-0.405498	99
Es	-0.954464	0.756961	0.905294	99
Es	-0.783454	-1.543900	-0.943209	99
Es	1.869855	0.614524	0.283575	99
Es	0.417047	-1.837491	-0.891038	99
Es	2.924031	1.271288	0.614192	99
Es	0.312913	0.026140	-0.431415	99
Es	-2.007389	-1.371900	-0.965852	99
Es	-0.519779	1.653319	0.172654	99
Es	1.056450	0.059685	-0.032062	99
Es	-1.662963	1.086369	1.866046	99
Es	-0.225831	0.475421	-0.105216	99
Es	1.967857	-0.369209	0.050179	99
Es	-0.215698	-1.748524	0.132795	99
Es	-1.374777	-1.320217	-2.001186	99
Es	1.582932	0.040911	0.321767	99
Es	-1.464647	-0.084546	1.655647	99
51
Properties=species:S:1:pos:R:3:Z:I:1 energy=-290.45390370797065 field_type=dipole dipole="0.000000 0.000000 0.000000" charge=0
C	-1.419487	-1.651173	-1.332540	6
C	-0.131987	-1.450173	-0.545050	6
C	0.312753	0.026217	-0.431580	6
C	-0.764137	0.943137	0.189600	6
C	-1.157567	0.592907	1.618790	6
N	1.584093	0.042027	0.317030	7
C	2.247943	1.339087	0.302220	6
H	-1.600727	-2.720063	-1.486330	1
H	-1.359977	-1.172983	-2.315070	1
H	-2.284857	-1.247383	-0.798960	1
H	0.658343	-2.022833	-1.048660	1
H	-0.248767	-1.898063	0.449410	1
H	0.507563	0.383177	-1.452400	1
H	-1.663647	0.928907	-0.436880	1
H	-0.422057	1.984667	0.166590	1
H	-1.605627	-0.402873	1.678940	1
H	-1.898257	1.310547	1.986130	1
H	-0.297057	0.628387	2.293030	1
H	2.216753	-0.648233	-0.088320	1
H	1.697633	2.083397	0.884680	1
H	2.394333	1.709117	-0.717240	1
H	3.234743	1.242197	0.766610	1
Es	2.343387	1.598729	-0.406219	99
Es	-0.783916	-1.540040	-0.943407	99
Es	-1.669056	1.084619	1.864356	99
Es	2.247904	1.339129	0.302246	99
Es	0.444381	0.275815	-1.141125	99
Es	-1.419974	-1.650782	-1.332151	99
Es	2.924109	1.269849	0.615887	99
Es	1.865611	1.845471	0.693091	99
Es	-1.157511	0.592817	1.618764	99
Es	0.313384	0.027527	-0.434411	99
Es	-0.764117	0.943081	0.189753	99
Es	-1.541286	-2.382060	-1.434736	99
Es	-0.213871	-1.751696	0.134243	99
Es	-1.460718	-0.083694	1.652977	99
Es	-1.375963	0.928115	-0.242870	99
Es	-0.518152	1.650871	0.173636	99
Es	-2.003384	-1.373149	-0.967742	99
Es	-1.377891	-1.319369	-2.004535	99
Es	-0.132029	-1.450146	-0.545064	99
Es	0.416221	-1.835415	-0.893137	99
Es	1.579617	0.037139	0.338904	99
Es	0.074157	-0.709265	-0.484858	99
Es	1.547168	-0.049904	0.637536	99
Es	1.859461	0.618440	0.266393	99
Es	-0.225827	0.477873	-0.105910	99
Es	-0.955905	0.757708	0.906886	99
Es	-0.573705	0.616556	2.076197	99
Es	1.955887	-0.354742	0.024310	99
Es	1.043864	0.047295	0.003777	99
51
Properties=species:S:1:pos:R:3:Z:I:1 energy=-290.45390370797065 field_type=dipole dipole="0.000000 0.000000 0.000000" charge=0
C	-1.419487	-1.651173	-1.332540	6
C	-0.131987	-1.450173	-0.545050	6
C	0.312753	0.026217	-0.431580	6
C	-0.764137	0.943137	0.189600	6
C	-1.157567	0.592907	1.618790	6
N	1.584093	0.042027	0.317030	7
C	2.247943	1.339087	0.302220	6
H	-1.600727	-2.720063	-1.486330	1
H	-1.359977	-1.172983	-2.315070	1
H	-2.284857	-1.247383	-0.798960	1
H	0.658343	-2.022833	-1.048660	1
H	-0.248767	-1.898063	0.449410	1
H	0.507563	0.383177	-1.452400	1
H	-1.663647	0.928907	-0.436880	1
H	-0.422057	1.984667	0.166590	1
H	-1.605627	-0.402873	1.678940	1
H	-1.898257	1.310547	1.986130	1
H	-0.297057	0.628387	2.293030	1
H	2.216753	-0.648233	-0.088320	1
H	1.697633	2.083397	0.884680	1
H	2.394333	1.709117	-0.717240	1
H	3.234743	1.242197	0.766610	1
Es	0.414775	-1.833780	-0.894589	99
Es	0.312870	0.026501	-0.431897	99
Es	2.251164	1.336737	0.304161	99
Es	2.344514	1.600282	-0.407953	99
Es	1.033312	0.053714	-0.017642	99
Es	1.547955	-0.012078	0.533599	99
Es	1.565458	0.015351	0.420529	99
Es	-0.224522	0.478829	-0.104326	99
Es	-1.460304	-0.084278	1.656955	99
Es	-0.577074	0.619161	2.075418	99
Es	2.917803	1.271518	0.615043	99
Es	-0.147523	-1.452236	-0.554398	99
Es	-0.522797	1.651923	0.171622	99
Es	-2.005334	-1.375211	-0.967603	99
Es	1.872157	0.616169	0.280421	99
Es	-1.540414	-2.379269	-1.435341	99
Es	0.443359	0.279022	-1.146710	99
Es	-0.766252	-1.536460	-0.932585	99
Es	-1.665945	1.081687	1.865178	99
Es	1.968400	-0.371774	0.053165	99
Es	-1.419477	-1.651158	-1.332540	99
Es	-0.953985	0.757945	0.904846	99
Es	-0.764123	0.942520	0.189479	99
Es	-1.377062	-1.318482	-2.006115	99
Es	0.076878	-0.711885	-0.482927	99
Es	-0.215442	-1.754213	0.135994	99
Es	-1.158476	0.592408	1.619036	99
Es	1.865734	1.843286	0.693788	99
Es	-1.373805	0.924543	-0.241815	99
51
Properties=species:S:1:pos:R:3:Z:I:1 energy=-290.45390370797065 field_type=dipole dipole="0.000000 0.000000 0.000000" charge=0
C	-1.419487	-1.651173	-1.332540	6
C	-0.131987	-1.450173	-0.545050	6
C	0.312753	0.026217	-0.431580	6
C	-0.764137	0.943137	0.189600	6
C	-1.157567	0.592907	1.618790	6
N	1.584093	0.042027	0.317030	7
C	2.247943	1.339087	0.302220	6
H	-1.600727	-2.720063	-1.486330	1
H	-1.359977	-1.172983	-2.315070	1
H	-2.284857	-1.247383	-0.798960	1
H	0.658343	-2.022833	-1.048660	1
H	-0.248767	-1.898063	0.449410	1
H	0.507563	0.383177	-1.452400	1
H	-1.663647	0.928907	-0.436880	1
H	-0.422057	1.984667	0.166590	1
H	-1.605627	-0.402873	1.678940	1
H	-1.898257	1.310547	1.986130	1
H	-0.297057	0.628387	2.293030	1
H	2.216753	-0.648233	-0.088320	1
H	1.697633	2.083397	0.884680	1
H	2.394333	1.709117	-0.717240	1
H	3.234743	1.242197	0.766610	1
Es	1.868527	1.845845	0.692958	99
Es	-1.159699	0.595137	1.619579	99
Es	-0.782646	-1.538455	-0.942639	99
Es	1.969429	-0.375230	0.059479	99
Es	-0.764022	0.943108	0.189591	99
Es	1.867231	0.613356	0.276560	99
Es	-0.956463	0.754728	0.907769	99
Es	-1.538133	-2.378067	-1.438105	99
Es	-0.220614	0.478017	-0.108774	99
Es	0.075688	-0.711965	-0.483419	99
Es	2.343805	1.599256	-0.406443	99
Es	-1.366999	0.922142	-0.234716	99
Es	-1.663008	1.083087	1.862264	99
Es	1.515614	-0.034790	0.640024	99
Es	-0.530509	1.656618	0.169562	99
Es	2.923058	1.270092	0.615449	99
Es	-1.419474	-1.651204	-1.332461	99
Es	1.582777	0.040538	0.324778	99
Es	-1.378957	-1.320103	-2.003292	99
Es	-0.214125	-1.750718	0.133308	99
Es	-2.008512	-1.376737	-0.967559	99
Es	0.442981	0.280004	-1.146108	99
Es	-0.132059	-1.450147	-0.545109	99
Es	1.048981	0.054279	-0.029849	99
Es	-1.463042	-0.086618	1.656140	99
Es	0.417346	-1.835497	-0.892009	99
Es	-0.576053	0.618940	2.075106	99
Es	0.312821	0.026149	-0.431438	99
Es	2.247905	1.339006	0.302145	99
51
Properties=species:S:1:pos:R:3:Z:I:1 energy=-290.45390370797065 field_type=dipole dipole="0.000000 0.000000 0.000000" charge=0
C	-1.419487	-1.651173	-1.332540	6
C	-0.131987	-1.450173	-0.545050	6
C	0.312753	0.026217	-0.431580	6
C	-0.764137	0.943137	0.189600	6
C	-1.157567	0.592907	1.618790	6
N	1.584093	0.042027	0.317030	7
C	2.247943	1.339087	0.302220	6
H	-1.600727	-2.720063	-1.486330	1
H	-1.359977	-1.172983	-2.315070	1
H	-2.284857	-1.247383	-0.798960	1
H	0.658343	-2.022833	-1.048660	1
H	-0.248767	-1.898063	0.449410	1
H	0.507563	0.383177	-1.452400	1
H	-1.663647	0.928907	-0.436880	1
H	-0.422057	1.984667	0.166590	1
H	-1.605627	-0.402873	1.678940	1
H	-1.898257	1.310547	1.986130	1
H	-0.297057	0.628387	2.293030	1
H	2.216753	-0.648233	-0.088320	1
H	1.697633	2.083397	0.884680	1
H	2.394333	1.709117	-0.717240	1
H	3.234743	1.242197	0.766610	1
Es	-1.421676	-1.650530	-1.331345	99
Es	-0.575760	0.618517	2.074424	99
Es	-0.965197	0.756596	0.905370	99
Es	1.536658	-0.016568	0.544247	99
Es	-0.213959	-1.752567	0.136521	99
Es	-1.366437	0.930779	-0.245128	99
Es	2.921011	1.270845	0.616155	99
Es	-0.522585	1.647081	0.174667	99
Es	1.569137	0.019293	0.413132	99
Es	2.247666	1.338529	0.302263	99
Es	-1.664849	1.082195	1.866900	99
Es	0.444063	0.278879	-1.147327	99
Es	1.869417	0.615249	0.281853	99
Es	-1.461774	-0.085815	1.656659	99
Es	1.039733	0.054563	-0.022534	99
Es	-1.538958	-2.379744	-1.435706	99
Es	2.344499	1.599594	-0.408763	99
Es	0.078194	-0.712260	-0.484126	99
Es	-2.004889	-1.374738	-0.967971	99
Es	-1.374967	-1.319070	-2.004941	99
Es	1.866270	1.844537	0.694076	99
Es	0.312030	0.026622	-0.430947	99
Es	-1.157491	0.592935	1.618697	99
Es	-0.764394	0.943212	0.189692	99
Es	1.970404	-0.372348	0.053587	99
Es	0.414988	-1.833797	-0.892504	99
Es	-0.222178	0.479395	-0.104704	99
Es	-0.131974	-1.449959	-0.545067	99
Es	-0.785136	-1.540651	-0.944387	99
