51
Properties=species:S:1:pos:R:3:Z:I:1 energy=-290.453903707971 field_type=dipole dipole="0.000000 0.000000 0.000000" charge=0
C	-1.419487	-1.651173	-1.332540	6
C	-0.131987	-1.450173	-0.545050	6
C	0.312753	0.026217	-0.431580	6
C	-0.764137	0.943137	0.189600	6
C	-1.157567	0.592907	1.618790	6
N	1.584093	0.042027	0.317030	7
C	2.247943	1.339087	0.302220	6
H	-1.600727	-2.720063	-1.486330	1
H	-1.359977	-1.172983	-2.315070	1
H	-2.284857	-1.247383	-0.798960	1
H	0.658343	-2.022833	-1.048660	1
H	-0.248767	-1.898063	0.449410	1
H	0.507563	0.383177	-1.452400	1
H	-1.663647	0.928907	-0.436880	1
H	-0.422057	1.984667	0.166590	1
H	-1.605627	-0.402873	1.678940	1
H	-1.898257	1.310547	1.986130	1
H	-0.297057	0.628387	2.293030	1
H	2.216753	-0.648233	-0.088320	1
H	1.697633	2.083397	0.884680	1
H	2.394333	1.709117	-0.717240	1
H	3.234743	1.242197	0.766610	1
Es	-1.157570	0.592916	1.618752	99
Es	-1.375430	0.924791	-0.242588	99
Es	1.519523	-0.049777	0.651987	99
Es	0.443038	0.278315	-1.145049	99
Es	1.584212	0.042215	0.316402	99
Es	-0.223521	0.479156	-0.104875	99
Es	0.076061	-0.711423	-0.483241	99
Es	1.868770	0.616259	0.280660	99
Es	2.247888	1.338974	0.302221	99
Es	2.344261	1.598998	-0.405255	99
Es	-0.214688	-1.751143	0.132913	99
Es	1.866301	1.846797	0.693614	99
Es	-1.665106	1.084953	1.865360	99
Es	-1.376789	-1.321439	-2.002671	99
Es	1.966792	-0.364982	0.046951	99
Es	-0.954522	0.757229	0.905621	99
Es	-1.540565	-2.380434	-1.437222	99
Es	-1.419463	-1.651166	-1.332527	99
Es	0.312839	0.026201	-0.431475	99
Es	-1.462914	-0.088124	1.655570	99
Es	-0.576112	0.618856	2.073943	99
Es	0.417207	-1.836474	-0.893177	99
Es	1.046781	0.054711	-0.026632	99
Es	-0.132016	-1.450153	-0.545086	99
Es	-0.764119	0.943107	0.189617	99
Es	-2.007732	-1.372173	-0.967703	99
Es	-0.782666	-1.539439	-0.942449	99
Es	2.923309	1.270616	0.614761	99
Es	-0.521924	1.653407	0.174370	99
51
Properties=species:S:1:pos:R:3:Z:I:1 energy=-290.453903707971 field_type=dipole dipole="0.000000 0.000000 0.000000" charge=0
C	-1.419487	-1.651173	-1.332540	6
C	-0.131987	-1.450173	-0.545050	6
C	0.312753	0.026217	-0.431580	6
C	-0.764137	0.943137	0.189600	6
C	-1.157567	0.592907	1.618790	6
N	1.584093	0.042027	0.317030	7
C	2.247943	1.339087	0.302220	6
H	-1.600727	-2.720063	-1.486330	1
H	-1.359977	-1.172983	-2.315070	1
H	-2.284857	-1.247383	-0.798960	1
H	0.658343	-2.022833	-1.048660	1
H	-0.248767	-1.898063	0.449410	1
H	0.507563	0.383177	-1.452400	1
H	-1.663647	0.928907	-0.436880	1
H	-0.422057	1.984667	0.166590	1
H	-1.605627	-0.402873	1.678940	1
H	-1.898257	1.310547	1.986130	1
H	-0.297057	0.628387	2.293030	1
H	2.216753	-0.648233	-0.088320	1
H	1.697633	2.083397	0.884680	1
H	2.394333	1.709117	-0.717240	1
H	3.234743	1.242197	0.766610	1
Es	-0.214838	-1.751152	0.133202	99
Es	0.417258	-1.836514	-0.893409	99
Es	-0.576361	0.618559	2.073765	99
Es	0.443132	0.278281	-1.145217	99
Es	-0.132016	-1.450151	-0.545087	99
Es	0.312839	0.026201	-0.431475	99
Es	1.967101	-0.365491	0.047334	99
Es	-1.157572	0.592916	1.618751	99
Es	-1.375371	0.924951	-0.242450	99
Es	-0.954312	0.757300	0.905672	99
Es	-0.522090	1.653214	0.174226	99
Es	-1.376704	-1.321285	-2.003146	99
Es	-1.665537	1.085135	1.865711	99
Es	0.075987	-0.711325	-0.483382	99
Es	-1.419464	-1.651170	-1.332528	99
Es	2.344222	1.599017	-0.405526	99
Es	-0.223491	0.479054	-0.104927	99
Es	-0.782673	-1.539516	-0.942384	99
Es	-1.540386	-2.380255	-1.436936	99
Es	-0.764118	0.943106	0.189617	99
Es	2.247888	1.338973	0.302222	99
Es	1.866179	1.846683	0.693771	99
Es	2.923233	1.270541	0.614787	99
Es	-1.462473	-0.087902	1.655519	99
Es	-2.007702	-1.372318	-0.967428	99
Es	1.868666	0.615752	0.279412	99
Es	1.584168	0.042205	0.316528	99
Es	1.518819	-0.048785	0.653295	99
Es	1.047464	0.054751	-0.027124	99
51
Properties=species:S:1:pos:R:3:Z:I:1 energy=-290.453903707971 field_type=dipole dipole="0.000000 0.000000 0.000000" charge=0
C	-1.419487	-1.651173	-1.332540	6
C	-0.131987	-1.450173	-0.545050	6
C	0.312753	0.026217	-0.431580	6
C	-0.764137	0.943137	0.189600	6
C	-1.157567	0.592907	1.618790	6
N	1.584093	0.042027	0.317030	7
C	2.247943	1.339087	0.302220	6
H	-1.600727	-2.720063	-1.486330	1
H	-1.359977	-1.172983	-2.315070	1
H	-2.284857	-1.247383	-0.798960	1
H	0.658343	-2.022833	-1.048660	1
H	-0.248767	-1.898063	0.449410	1
H	0.507563	0.383177	-1.452400	1
H	-1.663647	0.928907	-0.436880	1
H	-0.422057	1.984667	0.166590	1
H	-1.605627	-0.402873	1.678940	1
H	-1.898257	1.310547	1.986130	1
H	-0.297057	0.628387	2.293030	1
H	2.216753	-0.648233	-0.088320	1
H	1.697633	2.083397	0.884680	1
H	2.394333	1.709117	-0.717240	1
H	3.234743	1.242197	0.766610	1
Es	1.967408	-0.366457	0.048141	99
Es	-0.764119	0.943107	0.189617	99
Es	1.868838	0.615582	0.279155	99
Es	-0.576353	0.618358	2.073678	99
Es	-0.132017	-1.450150	-0.545088	99
Es	1.866070	1.846563	0.693822	99
Es	-1.665598	1.085268	1.865848	99
Es	-1.419464	-1.651170	-1.332528	99
Es	-1.157573	0.592916	1.618753	99
Es	-0.522272	1.653199	0.174236	99
Es	0.076038	-0.711327	-0.483431	99
Es	2.344236	1.599033	-0.405726	99
Es	-0.954376	0.757192	0.905675	99
Es	2.247891	1.338977	0.302222	99
Es	0.417072	-1.836370	-0.893575	99
Es	-1.462438	-0.087747	1.655498	99
Es	-1.540320	-2.380386	-1.436846	99
Es	-1.376563	-1.320931	-2.003352	99
Es	2.923191	1.270445	0.614912	99
Es	-0.782914	-1.539485	-0.942322	99
Es	-0.223371	0.479042	-0.105053	99
Es	-2.007515	-1.372461	-0.967353	99
Es	1.047758	0.054956	-0.027561	99
Es	0.312837	0.026201	-0.431478	99
Es	0.443173	0.278275	-1.145298	99
Es	-0.214812	-1.751373	0.133454	99
Es	1.584201	0.042201	0.316428	99
Es	-1.375240	0.925060	-0.242295	99
Es	1.518079	-0.047745	0.653258	99
51
Properties=species:S:1:pos:R:3:Z:I:1 energy=-290.453903707971 field_type=dipole dipole="0.000000 0.000000 0.000000" charge=0
C	-1.419487	-1.651173	-1.332540	6
C	-0.131987	-1.450173	-0.545050	6
C	0.312753	0.026217	-0.431580	6
C	-0.764137	0.943137	0.189600	6
C	-1.157567	0.592907	1.618790	6
N	1.584093	0.042027	0.317030	7
C	2.247943	1.339087	0.302220	6
H	-1.600727	-2.720063	-1.486330	1
H	-1.359977	-1.172983	-2.315070	1
H	-2.284857	-1.247383	-0.798960	1
H	0.658343	-2.022833	-1.048660	1
H	-0.248767	-1.898063	0.449410	1
H	0.507563	0.383177	-1.452400	1
H	-1.663647	0.928907	-0.436880	1
H	-0.422057	1.984667	0.166590	1
H	-1.605627	-0.402873	1.678940	1
H	-1.898257	1.310547	1.986130	1
H	-0.297057	0.628387	2.293030	1
H	2.216753	-0.648233	-0.088320	1
H	1.697633	2.083397	0.884680	1
H	2.394333	1.709117	-0.717240	1
H	3.234743	1.242197	0.766610	1
Es	1.517104	-0.047162	0.652840	99
Es	2.343992	1.599042	-0.405688	99
Es	-0.522387	1.653142	0.174212	99
Es	1.584197	0.042224	0.316465	99
Es	-0.954492	0.757108	0.905730	99
Es	-1.419468	-1.651170	-1.332529	99
Es	-0.576337	0.618387	2.073600	99
Es	-1.462138	-0.087681	1.655507	99
Es	-1.157573	0.592916	1.618753	99
Es	1.865995	1.846474	0.693820	99
Es	1.967745	-0.367207	0.049019	99
Es	-1.540361	-2.380378	-1.436628	99
Es	-1.375139	0.925120	-0.242270	99
Es	0.312837	0.026199	-0.431480	99
Es	0.443172	0.278289	-1.145384	99
Es	-0.132016	-1.450151	-0.545088	99
Es	-1.665904	1.085327	1.865888	99
Es	1.868990	0.615507	0.279372	99
Es	-0.214962	-1.751353	0.133587	99
Es	-0.223287	0.478945	-0.105015	99
Es	1.048313	0.055192	-0.028285	99
Es	0.075993	-0.711303	-0.483478	99
Es	2.923433	1.270436	0.614881	99
Es	0.417167	-1.836365	-0.893570	99
Es	-0.764119	0.943109	0.189617	99
Es	-1.376603	-1.320755	-2.003641	99
Es	-0.782920	-1.539561	-0.942475	99
Es	-2.007270	-1.372530	-0.967189	99
Es	2.247886	1.338973	0.302220	99
51
Properties=species:S:1:pos:R:3:Z:I:1 energy=-290.453903707971 field_type=dipole dipole="0.000000 0.000000 0.000000" charge=0
C	-1.419487	-1.651173	-1.332540	6
C	-0.131987	-1.450173	-0.545050	6
C	0.312753	0.026217	-0.431580	6
C	-0.764137	0.943137	0.189600	6
C	-1.157567	0.592907	1.618790	6
N	1.584093	0.042027	0.317030	7
C	2.247943	1.339087	0.302220	6
H	-1.600727	-2.720063	-1.486330	1
H	-1.359977	-1.172983	-2.315070	1
H	-2.284857	-1.247383	-0.798960	1
H	0.658343	-2.022833	-1.048660	1
H	-0.248767	-1.898063	0.449410	1
H	0.507563	0.383177	-1.452400	1
H	-1.663647	0.928907	-0.436880	1
H	-0.422057	1.984667	0.166590	1
H	-1.605627	-0.402873	1.678940	1
H	-1.898257	1.310547	1.986130	1
H	-0.297057	0.628387	2.293030	1
H	2.216753	-0.648233	-0.088320	1
H	1.697633	2.083397	0.884680	1
H	2.394333	1.709117	-0.717240	1
H	3.234743	1.242197	0.766610	1
Es	1.048100	0.055085	-0.028266	99
Es	1.967997	-0.368048	0.049874	99
Es	-0.522455	1.653198	0.174120	99
Es	-0.576250	0.618253	2.073568	99
Es	-0.954491	0.757096	0.905860	99
Es	0.443235	0.278255	-1.145419	99
Es	-1.376660	-1.320614	-2.003834	99
Es	2.343896	1.599092	-0.405788	99
Es	-0.764119	0.943107	0.189618	99
Es	0.075986	-0.711259	-0.483456	99
Es	0.417086	-1.836331	-0.893607	99
Es	-0.782925	-1.539490	-0.942441	99
Es	1.584187	0.042199	0.316540	99
Es	-1.666036	1.085430	1.865939	99
Es	-1.375112	0.925056	-0.242190	99
Es	-0.215015	-1.751472	0.133660	99
Es	2.923497	1.270478	0.614986	99
Es	1.517141	-0.045660	0.653052	99
Es	2.247889	1.338972	0.302222	99
Es	-1.540327	-2.380442	-1.436457	99
Es	-1.419465	-1.651170	-1.332528	99
Es	-0.132016	-1.450150	-0.545087	99
Es	-0.223267	0.478998	-0.105036	99
Es	-2.007095	-1.372671	-0.967191	99
Es	-1.462074	-0.087590	1.655380	99
Es	1.868958	0.615033	0.278213	99
Es	0.312838	0.026202	-0.431479	99
Es	1.865913	1.846304	0.693788	99
Es	-1.157572	0.592916	1.618751	99
51
Properties=species:S:1:pos:R:3:Z:I:1 energy=-290.453903707971 field_type=dipole dipole="0.000000 0.000000 0.000000" charge=0
C	-1.419487	-1.651173	-1.332540	6
C	-0.131987	-1.450173	-0.545050	6
C	0.312753	0.026217	-0.431580	6
C	-0.764137	0.943137	0.189600	6
C	-1.157567	0.592907	1.618790	6
N	1.584093	0.042027	0.317030	7
C	2.247943	1.339087	0.302220	6
H	-1.600727	-2.720063	-1.486330	1
H	-1.359977	-1.172983	-2.315070	1
H	-2.284857	-1.247383	-0.798960	1
H	0.658343	-2.022833	-1.048660	1
H	-0.248767	-1.898063	0.449410	1
H	0.507563	0.383177	-1.452400	1
H	-1.663647	0.928907	-0.436880	1
H	-0.422057	1.984667	0.166590	1
H	-1.605627	-0.402873	1.678940	1
H	-1.898257	1.310547	1.986130	1
H	-0.297057	0.628387	2.293030	1
H	2.216753	-0.648233	-0.088320	1
H	1.697633	2.083397	0.884680	1
H	2.394333	1.709117	-0.717240	1
H	3.234743	1.242197	0.766610	1
Es	-0.522370	1.653081	0.174223	99
Es	-0.215041	-1.751602	0.133780	99
Es	-0.954570	0.756942	0.905920	99
Es	2.247888	1.338972	0.302222	99
Es	-1.157573	0.592916	1.618752	99
Es	-2.006839	-1.372730	-0.967087	99
Es	-1.376661	-1.320350	-2.003962	99
Es	-0.576260	0.618336	2.073407	99
Es	-0.132016	-1.450151	-0.545087	99
Es	1.584201	0.042219	0.316431	99
Es	2.343754	1.599106	-0.405895	99
Es	1.516947	-0.044764	0.652954	99
Es	1.868978	0.614921	0.277858	99
Es	-1.419464	-1.651170	-1.332529	99
Es	-0.782952	-1.539593	-0.942471	99
Es	-1.540407	-2.380528	-1.436389	99
Es	1.048114	0.054996	-0.028276	99
Es	-1.461843	-0.087647	1.655429	99
Es	0.312840	0.026201	-0.431476	99
Es	-0.764119	0.943108	0.189617	99
Es	2.923584	1.270420	0.614987	99
Es	-0.223295	0.478998	-0.105060	99
Es	0.443276	0.278324	-1.145372	99
Es	-1.666231	1.085506	1.865996	99
Es	1.968224	-0.368730	0.050561	99
Es	-1.375123	0.925223	-0.242283	99
Es	0.417005	-1.836255	-0.893671	99
Es	1.865892	1.846209	0.693838	99
Es	0.075907	-0.711185	-0.483626	99
51
Properties=species:S:1:pos:R:3:Z:I:1 energy=-290.453903707971 field_type=dipole dipole="0.000000 0.000000 0.000000" charge=0
C	-1.419487	-1.651173	-1.332540	6
C	-0.131987	-1.450173	-0.545050	6
C	0.312753	0.026217	-0.431580	6
C	-0.764137	0.943137	0.189600	6
C	-1.157567	0.592907	1.618790	6
N	1.584093	0.042027	0.317030	7
C	2.247943	1.339087	0.302220	6
H	-1.600727	-2.720063	-1.486330	1
H	-1.359977	-1.172983	-2.315070	1
H	-2.284857	-1.247383	-0.798960	1
H	0.658343	-2.022833	-1.048660	1
H	-0.248767	-1.898063	0.449410	1
H	0.507563	0.383177	-1.452400	1
H	-1.663647	0.928907	-0.436880	1
H	-0.422057	1.984667	0.166590	1
H	-1.605627	-0.402873	1.678940	1
H	-1.898257	1.310547	1.986130	1
H	-0.297057	0.628387	2.293030	1
H	2.216753	-0.648233	-0.088320	1
H	1.697633	2.083397	0.884680	1
H	2.394333	1.709117	-0.717240	1
H	3.234743	1.242197	0.766610	1
Es	0.075879	-0.711137	-0.483582	99
Es	2.343755	1.599133	-0.405912	99
Es	1.869051	0.614756	0.276960	99
Es	0.416962	-1.836129	-0.893720	99
Es	-1.419464	-1.651171	-1.332528	99
Es	-1.666213	1.085588	1.865965	99
Es	2.247886	1.338973	0.302221	99
Es	-0.132016	-1.450150	-0.545086	99
Es	2.923649	1.270483	0.615208	99
Es	1.968298	-0.369590	0.051440	99
Es	-1.540375	-2.380632	-1.436288	99
Es	1.865801	1.846072	0.693658	99
Es	-2.006679	-1.372796	-0.967017	99
Es	-1.376707	-1.320211	-2.004059	99
Es	-0.522497	1.653037	0.174312	99
Es	-0.576236	0.618188	2.073479	99
Es	-0.764120	0.943107	0.189616	99
Es	-1.157573	0.592916	1.618750	99
Es	1.048459	0.054941	-0.028414	99
Es	-0.223084	0.478859	-0.104995	99
Es	1.516500	-0.043624	0.653023	99
Es	-0.954690	0.757065	0.905938	99
Es	0.443256	0.278285	-1.145493	99
Es	1.584179	0.042190	0.316500	99
Es	-1.375027	0.925292	-0.242314	99
Es	-1.461952	-0.087611	1.655264	99
Es	-0.783086	-1.539597	-0.942544	99
Es	-0.214948	-1.751668	0.133886	99
Es	0.312838	0.026201	-0.431476	99
51
Properties=species:S:1:pos:R:3:Z:I:1 energy=-290.453903707971 field_type=dipole dipole="0.000000 0.000000 0.000000" charge=0
C	-1.419487	-1.651173	-1.332540	6
C	-0.131987	-1.450173	-0.545050	6
C	0.312753	0.026217	-0.431580	6
C	-0.764137	0.943137	0.189600	6
C	-1.157567	0.592907	1.618790	6
N	1.584093	0.042027	0.317030	7
C	2.247943	1.339087	0.302220	6
H	-1.600727	-2.720063	-1.486330	1
H	-1.359977	-1.172983	-2.315070	1
H	-2.284857	-1.247383	-0.798960	1
H	0.658343	-2.022833	-1.048660	1
H	-0.248767	-1.898063	0.449410	1
H	0.507563	0.383177	-1.452400	1
H	-1.663647	0.928907	-0.436880	1
H	-0.422057	1.984667	0.166590	1
H	-1.605627	-0.402873	1.678940	1
H	-1.898257	1.310547	1.986130	1
H	-0.297057	0.628387	2.293030	1
H	2.216753	-0.648233	-0.088320	1
H	1.697633	2.083397	0.884680	1
H	2.394333	1.709117	-0.717240	1
H	3.234743	1.242197	0.766610	1
Es	-1.157573	0.592916	1.618751	99
Es	-1.461851	-0.087511	1.655290	99
Es	0.443316	0.278394	-1.145503	99
Es	0.312838	0.026200	-0.431476	99
Es	-2.006541	-1.372925	-0.967040	99
Es	-1.540343	-2.380680	-1.436161	99
Es	1.584226	0.042227	0.316433	99
Es	1.968495	-0.370030	0.051872	99
Es	-0.522614	1.653043	0.174172	99
Es	-1.375071	0.925222	-0.242158	99
Es	1.865808	1.846023	0.693776	99
Es	-0.764119	0.943107	0.189617	99
Es	1.048340	0.054942	-0.028482	99
Es	0.075829	-0.711155	-0.483664	99
Es	-1.666331	1.085617	1.865961	99
Es	-1.376697	-1.320055	-2.004220	99
Es	-0.214992	-1.751738	0.133975	99
Es	-0.576215	0.618166	2.073476	99
Es	-0.954558	0.757037	0.905992	99
Es	2.343649	1.599167	-0.405949	99
Es	2.247887	1.338972	0.302221	99
Es	-0.783173	-1.539544	-0.942515	99
Es	2.923691	1.270422	0.615125	99
Es	0.416885	-1.836102	-0.893720	99
Es	1.869118	0.614768	0.277174	99
Es	1.516297	-0.043269	0.652525	99
Es	-1.419464	-1.651170	-1.332528	99
Es	-0.222973	0.478880	-0.105064	99
Es	-0.132016	-1.450152	-0.545087	99
51
Properties=species:S:1:pos:R:3:Z:I:1 energy=-290.453903707971 field_type=dipole dipole="0.000000 0.000000 0.000000" charge=0
C	-1.419487	-1.651173	-1.332540	6
C	-0.131987	-1.450173	-0.545050	6
C	0.312753	0.026217	-0.431580	6
C	-0.764137	0.943137	0.189600	6
C	-1.157567	0.592907	1.618790	6
N	1.584093	0.042027	0.317030	7
C	2.247943	1.339087	0.302220	6
H	-1.600727	-2.720063	-1.486330	1
H	-1.359977	-1.172983	-2.315070	1
H	-2.284857	-1.247383	-0.798960	1
H	0.658343	-2.022833	-1.048660	1
H	-0.248767	-1.898063	0.449410	1
H	0.507563	0.383177	-1.452400	1
H	-1.663647	0.928907	-0.436880	1
H	-0.422057	1.984667	0.166590	1
H	-1.605627	-0.402873	1.678940	1
H	-1.898257	1.310547	1.986130	1
H	-0.297057	0.628387	2.293030	1
H	2.216753	-0.648233	-0.088320	1
H	1.697633	2.083397	0.884680	1
H	2.394333	1.709117	-0.717240	1
H	3.234743	1.242197	0.766610	1
Es	-0.782994	-1.539698	-0.942634	99
Es	-1.376757	-1.319939	-2.004249	99
Es	1.968729	-0.370524	0.052556	99
Es	2.923704	1.270457	0.615148	99
Es	-0.215114	-1.751781	0.134001	99
Es	-2.006325	-1.372859	-0.966904	99
Es	1.869034	0.614322	0.276808	99
Es	-0.954655	0.756948	0.905978	99
Es	0.443230	0.278514	-1.145619	99
Es	-1.666327	1.085770	1.866037	99
Es	-1.157571	0.592916	1.618751	99
Es	-1.375083	0.925309	-0.242191	99
Es	-0.132013	-1.450153	-0.545090	99
Es	-1.540524	-2.380694	-1.436154	99
Es	-1.461889	-0.087414	1.655255	99
Es	2.343587	1.599238	-0.406000	99
Es	1.865865	1.845937	0.693763	99
Es	0.312839	0.026201	-0.431475	99
Es	1.516220	-0.042403	0.652504	99
Es	1.584215	0.042222	0.316407	99
Es	0.416823	-1.836156	-0.893684	99
Es	-0.576129	0.618008	2.073385	99
Es	2.247888	1.338973	0.302222	99
Es	-0.522514	1.653034	0.174232	99
Es	-0.222960	0.478676	-0.104903	99
Es	1.048257	0.054969	-0.028776	99
Es	0.075898	-0.711035	-0.483664	99
Es	-0.764120	0.943107	0.189619	99
Es	-1.419464	-1.651171	-1.332528	99
51
Properties=species:S:1:pos:R:3:Z:I:1 energy=-290.453903707971 field_type=dipole dipole="0.000000 0.000000 0.000000" charge=0
C	-1.419487	-1.651173	-1.332540	6
C	-0.131987	-1.450173	-0.545050	6
C	0.312753	0.026217	-0.431580	6
C	-0.764137	0.943137	0.189600	6
C	-1.157567	0.592907	1.618790	6
N	1.584093	0.042027	0.317030	7
C	2.247943	1.339087	0.302220	6
H	-1.600727	-2.720063	-1.486330	1
H	-1.359977	-1.172983	-2.315070	1
H	-2.284857	-1.247383	-0.798960	1
H	0.658343	-2.022833	-1.048660	1
H	-0.248767	-1.898063	0.449410	1
H	0.507563	0.383177	-1.452400	1
H	-1.663647	0.928907	-0.436880	1
H	-0.422057	1.984667	0.166590	1
H	-1.605627	-0.402873	1.678940	1
H	-1.898257	1.310547	1.986130	1
H	-0.297057	0.628387	2.293030	1
H	2.216753	-0.648233	-0.088320	1
H	1.697633	2.083397	0.884680	1
H	2.394333	1.709117	-0.717240	1
H	3.234743	1.242197	0.766610	1
Es	-1.461793	-0.087586	1.655393	99
Es	2.923857	1.270466	0.615262	99
Es	-1.157573	0.592914	1.618753	99
Es	2.247888	1.338974	0.302222	99
Es	1.048673	0.054990	-0.029023	99
Es	-1.666345	1.085942	1.866099	99
Es	-0.954551	0.756864	0.906016	99
Es	0.312838	0.026201	-0.431475	99
Es	-0.222946	0.478847	-0.105005	99
Es	-0.764118	0.943109	0.189618	99
Es	-1.540465	-2.380788	-1.435943	99
Es	1.515632	-0.041893	0.652452	99
Es	-0.132016	-1.450151	-0.545087	99
Es	1.968869	-0.371016	0.053128	99
Es	-0.783244	-1.539628	-0.942528	99
Es	-0.522597	1.652960	0.174278	99
Es	-1.375155	0.925323	-0.242204	99
Es	-2.006155	-1.373042	-0.967034	99
Es	0.443326	0.278403	-1.145563	99
Es	-1.419465	-1.651170	-1.332528	99
Es	0.075810	-0.711047	-0.483729	99
Es	1.869140	0.614361	0.276554	99
Es	2.343476	1.599211	-0.406018	99
Es	1.584234	0.042237	0.316414	99
Es	1.865711	1.845824	0.693681	99
Es	-1.376809	-1.319819	-2.004442	99
Es	-0.214922	-1.751851	0.134095	99
Es	-0.576253	0.618104	2.073139	99
Es	0.416800	-1.835966	-0.893729	99
