44
Properties=species:S:1:pos:R:3:Z:I:1 energy=-307.9400044294447 field_type=dipole dipole="0.000000 0.000000 0.000000" charge=0
C	-0.695465	-1.879164	0.441798	6
C	0.374155	-1.182523	-0.388862	6
C	0.113975	0.319696	-0.569992	6
C	0.184455	1.079646	0.731518	6
C	-0.817795	1.817996	1.226908	6
C	1.136255	0.951966	-1.503582	6
O	2.146425	0.391627	-1.922212	8
H	-0.498495	-2.955324	0.481188	1
H	-1.688525	-1.732353	0.005478	1
H	-0.710825	-1.506484	1.470498	1
H	0.415875	-1.663284	-1.374712	1
H	1.354615	-1.349804	0.075778	1
H	-0.864015	0.455236	-1.048602	1
H	1.114805	1.010087	1.295158	1
H	-1.769825	1.915686	0.713518	1
H	-0.707675	2.337846	2.174428	1
H	0.912055	1.989146	-1.808302	1
Es	1.906142	0.680265	-1.571740	99
Es	1.136266	0.951944	-1.503571	99
Es	-0.168702	-1.518171	0.031508	99
Es	0.970483	1.662854	-1.703521	99
Es	-1.373553	-1.774302	0.140733	99
Es	-0.542696	0.422246	-0.896082	99
Es	-0.559130	-2.610703	0.465429	99
Es	0.626105	0.633473	-1.031729	99
Es	0.374100	-1.182464	-0.388839	99
Es	0.152872	0.704119	0.070340	99
Es	-0.817869	1.818036	1.226946	99
Es	-0.695445	-1.879148	0.441773	99
Es	-1.463352	1.886044	0.880134	99
Es	2.170549	0.099573	-1.813497	99
Es	0.184525	1.079570	0.731433	99
Es	1.036058	-1.286266	-0.065561	99
Es	2.146162	0.391821	-1.922122	99
Es	2.320652	0.572101	-2.110534	99
Es	-0.430877	1.194469	1.128967	99
Es	-0.749518	2.171593	1.866320	99
Es	0.393542	-1.501560	-1.060567	99
Es	1.652043	0.511847	-1.967392	99
Es	-0.204350	1.715134	0.817490	99
Es	0.114032	0.319745	-0.569981	99
Es	0.818200	1.024375	1.101211	99
Es	-0.704804	-1.622927	1.139399	99
Es	0.244924	-0.408564	-0.469405	99
44
Properties=species:S:1:pos:R:3:Z:I:1 energy=-307.9400044294447 field_type=dipole dipole="0.000000 0.000000 0.000000" charge=0
C	-0.695465	-1.879164	0.441798	6
C	0.374155	-1.182523	-0.388862	6
C	0.113975	0.319696	-0.569992	6
C	0.184455	1.079646	0.731518	6
C	-0.817795	1.817996	1.226908	6
C	1.136255	0.951966	-1.503582	6
O	2.146425	0.391627	-1.922212	8
H	-0.498495	-2.955324	0.481188	1
H	-1.688525	-1.732353	0.005478	1
H	-0.710825	-1.506484	1.470498	1
H	0.415875	-1.663284	-1.374712	1
H	1.354615	-1.349804	0.075778	1
H	-0.864015	0.455236	-1.048602	1
H	1.114805	1.010087	1.295158	1
H	-1.769825	1.915686	0.713518	1
H	-0.707675	2.337846	2.174428	1
H	0.912055	1.989146	-1.808302	1
Es	0.627778	0.635545	-1.032207	99
Es	0.971145	1.662968	-1.702871	99
Es	0.816691	1.025888	1.098713	99
Es	-0.543064	0.422624	-0.892962	99
Es	0.114032	0.319745	-0.569983	99
Es	1.900438	0.669677	-1.558109	99
Es	0.374101	-1.182462	-0.388839	99
Es	2.341475	0.150488	-1.953928	99
Es	-1.463987	1.886211	0.882778	99
Es	2.152162	0.541306	-1.987054	99
Es	0.393803	-1.500735	-1.058963	99
Es	-0.817868	1.818049	1.226941	99
Es	-0.703612	-1.623668	1.135792	99
Es	0.184530	1.079570	0.731428	99
Es	1.654768	0.501362	-1.965626	99
Es	-0.433600	1.189243	1.132162	99
Es	2.146011	0.391615	-1.921938	99
Es	0.155434	0.703691	0.068427	99
Es	-0.558890	-2.612872	0.466608	99
Es	-0.169233	-1.518403	0.032500	99
Es	-0.695445	-1.879149	0.441774	99
Es	-1.374840	-1.772210	0.142667	99
Es	-0.201885	1.720476	0.815194	99
Es	-0.750789	2.168393	1.864634	99
Es	1.036108	-1.286660	-0.067041	99
Es	1.136261	0.951945	-1.503561	99
Es	0.244834	-0.407535	-0.469392	99
44
Properties=species:S:1:pos:R:3:Z:I:1 energy=-307.9400044294447 field_type=dipole dipole="0.000000 0.000000 0.000000" charge=0
C	-0.695465	-1.879164	0.441798	6
C	0.374155	-1.182523	-0.388862	6
C	0.113975	0.319696	-0.569992	6
C	0.184455	1.079646	0.731518	6
C	-0.817795	1.817996	1.226908	6
C	1.136255	0.951966	-1.503582	6
O	2.146425	0.391627	-1.922212	8
H	-0.498495	-2.955324	0.481188	1
H	-1.688525	-1.732353	0.005478	1
H	-0.710825	-1.506484	1.470498	1
H	0.415875	-1.663284	-1.374712	1
H	1.354615	-1.349804	0.075778	1
H	-0.864015	0.455236	-1.048602	1
H	1.114805	1.010087	1.295158	1
H	-1.769825	1.915686	0.713518	1
H	-0.707675	2.337846	2.174428	1
H	0.912055	1.989146	-1.808302	1
Es	0.161319	0.700408	0.065227	99
Es	2.141579	0.393052	-1.919647	99
Es	-0.434625	1.187718	1.132510	99
Es	0.374101	-1.182465	-0.388842	99
Es	-0.748775	2.166208	1.862005	99
Es	-0.699239	-1.626618	1.129909	99
Es	2.109172	0.446552	-1.920582	99
Es	0.244550	-0.407376	-0.469354	99
Es	-0.817867	1.818052	1.226946	99
Es	0.812966	1.026715	1.099144	99
Es	0.114032	0.319745	-0.569982	99
Es	-0.556528	-2.614868	0.465866	99
Es	0.393338	-1.500474	-1.058056	99
Es	-0.170597	-1.518439	0.033706	99
Es	-1.465760	1.889254	0.884630	99
Es	1.036547	-1.287203	-0.067543	99
Es	-0.201119	1.721734	0.815119	99
Es	2.383514	0.223673	-2.013252	99
Es	-0.695445	-1.879146	0.441774	99
Es	0.184527	1.079570	0.731426	99
Es	0.971117	1.663289	-1.702663	99
Es	0.627455	0.636535	-1.031514	99
Es	1.136264	0.951947	-1.503560	99
Es	-0.545408	0.424615	-0.889903	99
Es	1.857929	0.682811	-1.580774	99
Es	-1.378785	-1.767713	0.147454	99
Es	1.702098	0.507528	-1.952901	99
44
Properties=species:S:1:pos:R:3:Z:I:1 energy=-307.9400044294447 field_type=dipole dipole="0.000000 0.000000 0.000000" charge=0
C	-0.695465	-1.879164	0.441798	6
C	0.374155	-1.182523	-0.388862	6
C	0.113975	0.319696	-0.569992	6
C	0.184455	1.079646	0.731518	6
C	-0.817795	1.817996	1.226908	6
C	1.136255	0.951966	-1.503582	6
O	2.146425	0.391627	-1.922212	8
H	-0.498495	-2.955324	0.481188	1
H	-1.688525	-1.732353	0.005478	1
H	-0.710825	-1.506484	1.470498	1
H	0.415875	-1.663284	-1.374712	1
H	1.354615	-1.349804	0.075778	1
H	-0.864015	0.455236	-1.048602	1
H	1.114805	1.010087	1.295158	1
H	-1.769825	1.915686	0.713518	1
H	-0.707675	2.337846	2.174428	1
H	0.912055	1.989146	-1.808302	1
Es	2.145340	0.391208	-1.921330	99
Es	-0.817868	1.818051	1.226942	99
Es	1.136262	0.951947	-1.503562	99
Es	0.627384	0.635609	-1.031239	99
Es	0.167732	0.698018	0.063981	99
Es	0.374106	-1.182463	-0.388838	99
Es	0.114032	0.319746	-0.569981	99
Es	-0.696503	-1.628522	1.127144	99
Es	-0.434252	1.189060	1.131592	99
Es	-0.552220	-2.614843	0.462732	99
Es	1.036185	-1.286533	-0.066342	99
Es	2.387191	0.235696	-2.023027	99
Es	0.243200	-0.406513	-0.468730	99
Es	-1.381170	-1.765127	0.150341	99
Es	-1.466776	1.889606	0.885129	99
Es	2.099874	0.432893	-1.909120	99
Es	-0.547679	0.425761	-0.888553	99
Es	-0.747893	2.165333	1.862042	99
Es	0.971146	1.663018	-1.702591	99
Es	1.812305	0.675344	-1.621778	99
Es	-0.201804	1.720126	0.815958	99
Es	-0.695446	-1.879148	0.441774	99
Es	0.393706	-1.500987	-1.059628	99
Es	0.184526	1.079574	0.731423	99
Es	-0.173634	-1.518432	0.035677	99
Es	0.809183	1.028722	1.099191	99
Es	1.749432	0.517959	-1.912066	99
44
Properties=species:S:1:pos:R:3:Z:I:1 energy=-307.9400044294447 field_type=dipole dipole="0.000000 0.000000 0.000000" charge=0
C	-0.695465	-1.879164	0.441798	6
C	0.374155	-1.182523	-0.388862	6
C	0.113975	0.319696	-0.569992	6
C	0.184455	1.079646	0.731518	6
C	-0.817795	1.817996	1.226908	6
C	1.136255	0.951966	-1.503582	6
O	2.146425	0.391627	-1.922212	8
H	-0.498495	-2.955324	0.481188	1
H	-1.688525	-1.732353	0.005478	1
H	-0.710825	-1.506484	1.470498	1
H	0.415875	-1.663284	-1.374712	1
H	1.354615	-1.349804	0.075778	1
H	-0.864015	0.455236	-1.048602	1
H	1.114805	1.010087	1.295158	1
H	-1.769825	1.915686	0.713518	1
H	-0.707675	2.337846	2.174428	1
H	0.912055	1.989146	-1.808302	1
Es	-0.202151	1.719319	0.816379	99
Es	0.241636	-0.405315	-0.468306	99
Es	-0.549857	0.427492	-0.885837	99
Es	2.388450	0.241956	-2.028764	99
Es	-0.180518	-1.519419	0.040526	99
Es	2.146097	0.391738	-1.922046	99
Es	-1.467380	1.889803	0.885643	99
Es	1.034246	-1.285057	-0.065011	99
Es	-0.695443	-1.879147	0.441772	99
Es	0.628392	0.634366	-1.031788	99
Es	-0.694913	-1.630372	1.124091	99
Es	0.395786	-1.502069	-1.061064	99
Es	-0.434121	1.189581	1.131206	99
Es	0.175240	0.694964	0.062759	99
Es	1.136264	0.951945	-1.503560	99
Es	-1.382581	-1.762988	0.153382	99
Es	-0.544876	-2.613533	0.457497	99
Es	2.096920	0.425740	-1.904341	99
Es	0.114032	0.319742	-0.569976	99
Es	0.184524	1.079571	0.731424	99
Es	1.793458	0.668648	-1.641388	99
Es	0.971083	1.662826	-1.702524	99
Es	-0.817868	1.818050	1.226943	99
Es	0.374105	-1.182468	-0.388840	99
Es	0.804080	1.030444	1.097808	99
Es	1.769145	0.524645	-1.890823	99
Es	-0.747392	2.164641	1.861980	99
44
Properties=species:S:1:pos:R:3:Z:I:1 energy=-307.9400044294447 field_type=dipole dipole="0.000000 0.000000 0.000000" charge=0
C	-0.695465	-1.879164	0.441798	6
C	0.374155	-1.182523	-0.388862	6
C	0.113975	0.319696	-0.569992	6
C	0.184455	1.079646	0.731518	6
C	-0.817795	1.817996	1.226908	6
C	1.136255	0.951966	-1.503582	6
O	2.146425	0.391627	-1.922212	8
H	-0.498495	-2.955324	0.481188	1
H	-1.688525	-1.732353	0.005478	1
H	-0.710825	-1.506484	1.470498	1
H	0.415875	-1.663284	-1.374712	1
H	1.354615	-1.349804	0.075778	1
H	-0.864015	0.455236	-1.048602	1
H	1.114805	1.010087	1.295158	1
H	-1.769825	1.915686	0.713518	1
H	-0.707675	2.337846	2.174428	1
H	0.912055	1.989146	-1.808302	1
Es	0.629278	0.633091	-1.032528	99
Es	0.398464	-1.503189	-1.062119	99
Es	0.181727	0.691803	0.059941	99
Es	2.146116	0.391833	-1.922096	99
Es	1.136263	0.951942	-1.503560	99
Es	-0.187764	-1.521832	0.045775	99
Es	-0.694527	-1.630948	1.123255	99
Es	0.374103	-1.182471	-0.388841	99
Es	-1.382906	-1.762407	0.154271	99
Es	-0.746783	2.163838	1.861320	99
Es	-0.695446	-1.879145	0.441774	99
Es	1.787815	0.665955	-1.647148	99
Es	-1.468035	1.890356	0.886533	99
Es	-0.551919	0.430157	-0.881263	99
Es	0.971434	1.662545	-1.702543	99
Es	0.799917	1.031369	1.096089	99
Es	1.774960	0.526869	-1.884247	99
Es	1.031677	-1.283555	-0.064122	99
Es	-0.817869	1.818050	1.226941	99
Es	-0.202348	1.718918	0.816488	99
Es	-0.434087	1.189750	1.131099	99
Es	2.388456	0.243003	-2.030122	99
Es	0.184523	1.079571	0.731423	99
Es	0.114031	0.319745	-0.569980	99
Es	-0.537958	-2.610636	0.452358	99
Es	0.240630	-0.404291	-0.467757	99
Es	2.096608	0.424783	-1.903799	99
44
Properties=species:S:1:pos:R:3:Z:I:1 energy=-307.9400044294447 field_type=dipole dipole="0.000000 0.000000 0.000000" charge=0
C	-0.695465	-1.879164	0.441798	6
C	0.374155	-1.182523	-0.388862	6
C	0.113975	0.319696	-0.569992	6
C	0.184455	1.079646	0.731518	6
C	-0.817795	1.817996	1.226908	6
C	1.136255	0.951966	-1.503582	6
O	2.146425	0.391627	-1.922212	8
H	-0.498495	-2.955324	0.481188	1
H	-1.688525	-1.732353	0.005478	1
H	-0.710825	-1.506484	1.470498	1
H	0.415875	-1.663284	-1.374712	1
H	1.354615	-1.349804	0.075778	1
H	-0.864015	0.455236	-1.048602	1
H	1.114805	1.010087	1.295158	1
H	-1.769825	1.915686	0.713518	1
H	-0.707675	2.337846	2.174428	1
H	0.912055	1.989146	-1.808302	1
Es	-0.202337	1.718906	0.816588	99
Es	1.136263	0.951942	-1.503561	99
Es	0.240283	-0.403670	-0.467686	99
Es	-1.383404	-1.761394	0.156234	99
Es	0.184521	1.079569	0.731421	99
Es	-0.747072	2.164038	1.861777	99
Es	-0.695446	-1.879145	0.441774	99
Es	-0.532526	-2.607396	0.448184	99
Es	0.399098	-1.503341	-1.062313	99
Es	-1.467819	1.889949	0.886190	99
Es	-0.693991	-1.631980	1.121375	99
Es	2.096379	0.423714	-1.903232	99
Es	1.773340	0.526008	-1.885832	99
Es	0.971545	1.662401	-1.702583	99
Es	0.114032	0.319744	-0.569979	99
Es	0.374104	-1.182469	-0.388841	99
Es	-0.817869	1.818049	1.226943	99
Es	-0.552844	0.432033	-0.877765	99
Es	2.146146	0.392274	-1.922303	99
Es	1.789409	0.666608	-1.645373	99
Es	-0.193756	-1.524737	0.050346	99
Es	0.186488	0.689563	0.058325	99
Es	-0.434100	1.189754	1.131003	99
Es	0.630000	0.632221	-1.033031	99
Es	0.796186	1.031847	1.094294	99
Es	1.031092	-1.283128	-0.064124	99
Es	2.388639	0.243744	-2.030690	99
