50
Properties=species:S:1:pos:R:3:Z:I:1 energy=-310.2915007462488 field_type=dipole dipole="0.000000 0.000000 0.000000" charge=0
C	-2.260888	-1.890297	0.315562	6
O	-0.936738	-1.421817	0.101302	8
C	-0.865628	0.003373	0.150692	6
C	0.585702	0.479403	-0.082308	6
C	1.514182	-0.092597	1.002002	6
C	1.083802	0.014343	-1.461148	6
C	0.623542	2.014763	-0.022098	6
H	-2.252328	-2.982277	0.265252	1
H	-2.932468	-1.509977	-0.460318	1
H	-2.618668	-1.588947	1.304962	1
H	-1.220698	0.345573	1.130622	1
H	-1.526548	0.421273	-0.618698	1
H	1.180282	0.203523	2.002782	1
H	2.540452	0.269453	0.873352	1
H	1.545092	-1.187257	0.970422	1
H	0.435431	0.389473	-2.261068	1
H	1.107062	-1.077997	-1.534398	1
H	2.098412	0.379403	-1.657218	1
H	-0.021688	2.456793	-0.789508	1
H	1.639322	2.392883	-0.182898	1
H	0.282372	2.380913	0.952702	1
Es	1.048701	0.191024	0.466224	99
Es	-0.936980	-1.421598	0.101365	99
Es	-0.770194	-1.523281	0.340741	99
Es	1.514173	-0.092573	1.001994	99
Es	0.180079	2.312886	-0.547550	99
Es	-2.260685	-1.890217	0.315530	99
Es	-2.726370	-1.622701	-0.214663	99
Es	-1.454882	-1.568456	0.186087	99
Es	0.388287	2.260853	0.645542	99
Es	0.636625	0.275631	-2.005703	99
Es	0.831275	0.245027	-0.777620	99
Es	1.101669	-0.722729	-1.508657	99
Es	-1.112985	0.242573	0.829856	99
Es	1.536461	-0.830931	0.978153	99
Es	-2.257022	-2.632483	0.281741	99
Es	1.777191	0.269746	-1.588910	99
Es	0.585683	0.479409	-0.082310	99
Es	1.281601	0.114780	1.685785	99
Es	-0.146581	0.233595	0.035109	99
Es	-0.942240	-0.880652	0.125091	99
Es	-0.865623	0.003141	0.150681	99
Es	0.623533	2.014753	-0.022097	99
Es	1.316221	2.266355	-0.131995	99
Es	-0.861137	-1.502270	-0.187558	99
Es	-1.324905	0.295103	-0.381911	99
Es	0.598044	1.256269	-0.050672	99
Es	1.083797	0.014366	-1.461136	99
Es	-2.511466	-1.676786	0.994526	99
Es	2.213489	0.161308	0.908710	99
50
Properties=species:S:1:pos:R:3:Z:I:1 energy=-310.2915007462488 field_type=dipole dipole="0.000000 0.000000 0.000000" charge=0
C	-2.260888	-1.890297	0.315562	6
O	-0.936738	-1.421817	0.101302	8
C	-0.865628	0.003373	0.150692	6
C	0.585702	0.479403	-0.082308	6
C	1.514182	-0.092597	1.002002	6
C	1.083802	0.014343	-1.461148	6
C	0.623542	2.014763	-0.022098	6
H	-2.252328	-2.982277	0.265252	1
H	-2.932468	-1.509977	-0.460318	1
H	-2.618668	-1.588947	1.304962	1
H	-1.220698	0.345573	1.130622	1
H	-1.526548	0.421273	-0.618698	1
H	1.180282	0.203523	2.002782	1
H	2.540452	0.269453	0.873352	1
H	1.545092	-1.187257	0.970422	1
H	0.435431	0.389473	-2.261068	1
H	1.107062	-1.077997	-1.534398	1
H	2.098412	0.379403	-1.657218	1
H	-0.021688	2.456793	-0.789508	1
H	1.639322	2.392883	-0.182898	1
H	0.282372	2.380913	0.952702	1
Es	0.831391	0.244951	-0.777477	99
Es	-1.112822	0.242603	0.829930	99
Es	1.316385	2.266472	-0.132214	99
Es	1.048712	0.191003	0.466214	99
Es	-1.324991	0.295120	-0.381816	99
Es	1.101621	-0.722704	-1.508667	99
Es	2.213449	0.161494	0.908762	99
Es	1.536494	-0.831173	0.978284	99
Es	-2.511455	-1.676735	0.994585	99
Es	-0.146763	0.233447	0.034877	99
Es	0.598010	1.256315	-0.050632	99
Es	0.585688	0.479412	-0.082305	99
Es	0.636618	0.275550	-2.005604	99
Es	0.623534	2.014753	-0.022097	99
Es	-2.257034	-2.632512	0.281689	99
Es	-2.726334	-1.622699	-0.214613	99
Es	-1.455299	-1.569200	0.185055	99
Es	0.179907	2.312790	-0.547317	99
Es	-0.936976	-1.421633	0.101336	99
Es	1.514173	-0.092572	1.001995	99
Es	-0.865623	0.003139	0.150681	99
Es	-0.942472	-0.880439	0.124450	99
Es	-0.859347	-1.502941	-0.186430	99
Es	1.281495	0.114945	1.685562	99
Es	1.083796	0.014367	-1.461135	99
Es	-2.260684	-1.890216	0.315529	99
Es	1.777293	0.269824	-1.588975	99
Es	0.388409	2.260851	0.645428	99
Es	-0.771414	-1.522071	0.341259	99
50
Properties=species:S:1:pos:R:3:Z:I:1 energy=-310.2915007462488 field_type=dipole dipole="0.000000 0.000000 0.000000" charge=0
C	-2.260888	-1.890297	0.315562	6
O	-0.936738	-1.421817	0.101302	8
C	-0.865628	0.003373	0.150692	6
C	0.585702	0.479403	-0.082308	6
C	1.514182	-0.092597	1.002002	6
C	1.083802	0.014343	-1.461148	6
C	0.623542	2.014763	-0.022098	6
H	-2.252328	-2.982277	0.265252	1
H	-2.932468	-1.509977	-0.460318	1
H	-2.618668	-1.588947	1.304962	1
H	-1.220698	0.345573	1.130622	1
H	-1.526548	0.421273	-0.618698	1
H	1.180282	0.203523	2.002782	1
H	2.540452	0.269453	0.873352	1
H	1.545092	-1.187257	0.970422	1
H	0.435431	0.389473	-2.261068	1
H	1.107062	-1.077997	-1.534398	1
H	2.098412	0.379403	-1.657218	1
H	-0.021688	2.456793	-0.789508	1
H	1.639322	2.392883	-0.182898	1
H	0.282372	2.380913	0.952702	1
Es	-2.260683	-1.890216	0.315529	99
Es	1.536423	-0.831053	0.978031	99
Es	-0.862177	-1.501611	-0.187336	99
Es	2.213596	0.161520	0.908867	99
Es	0.636626	0.275568	-2.005614	99
Es	0.831182	0.244800	-0.777668	99
Es	-2.257069	-2.632642	0.281710	99
Es	-1.113087	0.242518	0.829822	99
Es	0.598044	1.256260	-0.050646	99
Es	1.777373	0.269964	-1.588802	99
Es	-0.865623	0.003138	0.150678	99
Es	-0.769229	-1.523531	0.339141	99
Es	1.316324	2.266548	-0.132036	99
Es	-0.937003	-1.421589	0.101397	99
Es	1.514173	-0.092574	1.001996	99
Es	-2.726315	-1.622614	-0.214564	99
Es	0.180024	2.312795	-0.547408	99
Es	0.388256	2.260842	0.645372	99
Es	1.281340	0.114702	1.685634	99
Es	0.585687	0.479412	-0.082305	99
Es	-0.146515	0.233606	0.035050	99
Es	1.048827	0.191043	0.466330	99
Es	0.623534	2.014752	-0.022097	99
Es	-2.511414	-1.676678	0.994503	99
Es	-1.324900	0.295059	-0.381834	99
Es	-0.942056	-0.880350	0.125323	99
Es	-1.455038	-1.569181	0.187114	99
Es	1.083796	0.014367	-1.461136	99
Es	1.101663	-0.722712	-1.508697	99
50
Properties=species:S:1:pos:R:3:Z:I:1 energy=-310.2915007462488 field_type=dipole dipole="0.000000 0.000000 0.000000" charge=0
C	-2.260888	-1.890297	0.315562	6
O	-0.936738	-1.421817	0.101302	8
C	-0.865628	0.003373	0.150692	6
C	0.585702	0.479403	-0.082308	6
C	1.514182	-0.092597	1.002002	6
C	1.083802	0.014343	-1.461148	6
C	0.623542	2.014763	-0.022098	6
H	-2.252328	-2.982277	0.265252	1
H	-2.932468	-1.509977	-0.460318	1
H	-2.618668	-1.588947	1.304962	1
H	-1.220698	0.345573	1.130622	1
H	-1.526548	0.421273	-0.618698	1
H	1.180282	0.203523	2.002782	1
H	2.540452	0.269453	0.873352	1
H	1.545092	-1.187257	0.970422	1
H	0.435431	0.389473	-2.261068	1
H	1.107062	-1.077997	-1.534398	1
H	2.098412	0.379403	-1.657218	1
H	-0.021688	2.456793	-0.789508	1
H	1.639322	2.392883	-0.182898	1
H	0.282372	2.380913	0.952702	1
Es	1.048730	0.191000	0.466230	99
Es	1.101458	-0.722876	-1.508538	99
Es	-1.113138	0.242581	0.829728	99
Es	-0.936954	-1.421640	0.101364	99
Es	-0.865623	0.003138	0.150679	99
Es	1.083797	0.014366	-1.461136	99
Es	-2.511481	-1.676594	0.994431	99
Es	1.281462	0.114847	1.685506	99
Es	0.388149	2.260818	0.645235	99
Es	1.316432	2.266665	-0.131990	99
Es	1.514173	-0.092574	1.001992	99
Es	0.636696	0.275492	-2.005471	99
Es	-1.455002	-1.569215	0.186676	99
Es	0.585688	0.479413	-0.082306	99
Es	0.831336	0.245142	-0.777628	99
Es	1.777410	0.269905	-1.589015	99
Es	-0.768528	-1.524625	0.338828	99
Es	-0.942074	-0.880520	0.126419	99
Es	0.180029	2.312710	-0.547375	99
Es	1.536284	-0.831141	0.978200	99
Es	0.598155	1.256343	-0.050539	99
Es	2.213649	0.161456	0.908794	99
Es	-0.862925	-1.500308	-0.187558	99
Es	-0.146558	0.233593	0.034944	99
Es	0.623536	2.014753	-0.022097	99
Es	-2.260684	-1.890216	0.315530	99
Es	-2.257130	-2.632689	0.281746	99
Es	-1.324888	0.294968	-0.381754	99
Es	-2.726236	-1.622649	-0.214540	99
50
Properties=species:S:1:pos:R:3:Z:I:1 energy=-310.2915007462488 field_type=dipole dipole="0.000000 0.000000 0.000000" charge=0
C	-2.260888	-1.890297	0.315562	6
O	-0.936738	-1.421817	0.101302	8
C	-0.865628	0.003373	0.150692	6
C	0.585702	0.479403	-0.082308	6
C	1.514182	-0.092597	1.002002	6
C	1.083802	0.014343	-1.461148	6
C	0.623542	2.014763	-0.022098	6
H	-2.252328	-2.982277	0.265252	1
H	-2.932468	-1.509977	-0.460318	1
H	-2.618668	-1.588947	1.304962	1
H	-1.220698	0.345573	1.130622	1
H	-1.526548	0.421273	-0.618698	1
H	1.180282	0.203523	2.002782	1
H	2.540452	0.269453	0.873352	1
H	1.545092	-1.187257	0.970422	1
H	0.435431	0.389473	-2.261068	1
H	1.107062	-1.077997	-1.534398	1
H	2.098412	0.379403	-1.657218	1
H	-0.021688	2.456793	-0.789508	1
H	1.639322	2.392883	-0.182898	1
H	0.282372	2.380913	0.952702	1
Es	1.101525	-0.722924	-1.508581	99
Es	-0.865623	0.003142	0.150682	99
Es	1.316473	2.266697	-0.132104	99
Es	-0.859351	-1.502607	-0.187097	99
Es	-0.937040	-1.421598	0.101261	99
Es	1.536353	-0.831144	0.978178	99
Es	0.179946	2.312751	-0.547219	99
Es	0.598024	1.256313	-0.050618	99
Es	0.636640	0.275614	-2.005497	99
Es	1.083796	0.014366	-1.461136	99
Es	1.048708	0.191077	0.466225	99
Es	-2.726356	-1.622554	-0.214571	99
Es	0.623534	2.014753	-0.022097	99
Es	1.777315	0.269902	-1.588946	99
Es	2.213639	0.161543	0.908822	99
Es	-0.771753	-1.522320	0.339714	99
Es	-1.113195	0.242487	0.829640	99
Es	0.388270	2.260790	0.645214	99
Es	-2.257115	-2.632651	0.281766	99
Es	-2.511369	-1.676694	0.994433	99
Es	-1.324930	0.294982	-0.381769	99
Es	-0.146530	0.233568	0.035072	99
Es	0.831416	0.245107	-0.777550	99
Es	1.514173	-0.092573	1.001994	99
Es	0.585687	0.479412	-0.082305	99
Es	-2.260683	-1.890215	0.315530	99
Es	-1.455344	-1.569445	0.185850	99
Es	1.281508	0.114732	1.685471	99
Es	-0.941957	-0.880368	0.125993	99
50
Properties=species:S:1:pos:R:3:Z:I:1 energy=-310.2915007462488 field_type=dipole dipole="0.000000 0.000000 0.000000" charge=0
C	-2.260888	-1.890297	0.315562	6
O	-0.936738	-1.421817	0.101302	8
C	-0.865628	0.003373	0.150692	6
C	0.585702	0.479403	-0.082308	6
C	1.514182	-0.092597	1.002002	6
C	1.083802	0.014343	-1.461148	6
C	0.623542	2.014763	-0.022098	6
H	-2.252328	-2.982277	0.265252	1
H	-2.932468	-1.509977	-0.460318	1
H	-2.618668	-1.588947	1.304962	1
H	-1.220698	0.345573	1.130622	1
H	-1.526548	0.421273	-0.618698	1
H	1.180282	0.203523	2.002782	1
H	2.540452	0.269453	0.873352	1
H	1.545092	-1.187257	0.970422	1
H	0.435431	0.389473	-2.261068	1
H	1.107062	-1.077997	-1.534398	1
H	2.098412	0.379403	-1.657218	1
H	-0.021688	2.456793	-0.789508	1
H	1.639322	2.392883	-0.182898	1
H	0.282372	2.380913	0.952702	1
Es	1.083797	0.014369	-1.461135	99
Es	0.585687	0.479412	-0.082305	99
Es	1.536311	-0.831206	0.978265	99
Es	1.048651	0.190986	0.466285	99
Es	1.777364	0.269952	-1.588924	99
Es	-0.865624	0.003137	0.150683	99
Es	-0.860957	-1.501753	-0.186933	99
Es	0.831293	0.245075	-0.777535	99
Es	2.213635	0.161555	0.908705	99
Es	0.598082	1.256313	-0.050712	99
Es	0.388198	2.260801	0.645273	99
Es	-0.769917	-1.523268	0.340336	99
Es	1.316436	2.266704	-0.132090	99
Es	-1.113108	0.242563	0.829771	99
Es	-2.511398	-1.676627	0.994354	99
Es	1.281580	0.114845	1.685432	99
Es	-2.726282	-1.622559	-0.214470	99
Es	-0.937046	-1.421594	0.101317	99
Es	0.180046	2.312755	-0.547201	99
Es	1.101476	-0.722949	-1.508659	99
Es	0.636757	0.275600	-2.005431	99
Es	-0.942196	-0.880689	0.125190	99
Es	-2.260683	-1.890216	0.315529	99
Es	0.623533	2.014753	-0.022097	99
Es	-2.257172	-2.632760	0.281753	99
Es	1.514178	-0.092575	1.001997	99
Es	-1.324963	0.294930	-0.381671	99
Es	-1.455334	-1.568971	0.185795	99
Es	-0.146586	0.233561	0.034832	99
50
Properties=species:S:1:pos:R:3:Z:I:1 energy=-310.2915007462488 field_type=dipole dipole="0.000000 0.000000 0.000000" charge=0
C	-2.260888	-1.890297	0.315562	6
O	-0.936738	-1.421817	0.101302	8
C	-0.865628	0.003373	0.150692	6
C	0.585702	0.479403	-0.082308	6
C	1.514182	-0.092597	1.002002	6
C	1.083802	0.014343	-1.461148	6
C	0.623542	2.014763	-0.022098	6
H	-2.252328	-2.982277	0.265252	1
H	-2.932468	-1.509977	-0.460318	1
H	-2.618668	-1.588947	1.304962	1
H	-1.220698	0.345573	1.130622	1
H	-1.526548	0.421273	-0.618698	1
H	1.180282	0.203523	2.002782	1
H	2.540452	0.269453	0.873352	1
H	1.545092	-1.187257	0.970422	1
H	0.435431	0.389473	-2.261068	1
H	1.107062	-1.077997	-1.534398	1
H	2.098412	0.379403	-1.657218	1
H	-0.021688	2.456793	-0.789508	1
H	1.639322	2.392883	-0.182898	1
H	0.282372	2.380913	0.952702	1
Es	1.048779	0.191275	0.466399	99
Es	1.777362	0.270131	-1.588995	99
Es	0.636796	0.275427	-2.005344	99
Es	1.083799	0.014363	-1.461139	99
Es	1.316453	2.266673	-0.131931	99
Es	2.213773	0.161353	0.908727	99
Es	-1.324935	0.294962	-0.381662	99
Es	0.598044	1.256242	-0.050746	99
Es	-2.726274	-1.622517	-0.214425	99
Es	-0.936872	-1.421670	0.101328	99
Es	0.585689	0.479413	-0.082307	99
Es	0.623533	2.014753	-0.022095	99
Es	-1.454922	-1.569240	0.187123	99
Es	1.514174	-0.092574	1.001995	99
Es	0.388102	2.260780	0.645226	99
Es	-0.146523	0.233603	0.034974	99
Es	-0.863426	-1.500339	-0.187500	99
Es	-0.865623	0.003140	0.150684	99
Es	-2.511374	-1.676606	0.994356	99
Es	-1.113178	0.242505	0.829678	99
Es	1.281598	0.114870	1.685424	99
Es	1.536018	-0.831217	0.978185	99
Es	0.180126	2.312796	-0.547305	99
Es	-0.768074	-1.524513	0.338772	99
Es	-2.260686	-1.890217	0.315530	99
Es	-2.257201	-2.632800	0.281731	99
Es	-0.942195	-0.880537	0.125932	99
Es	1.101546	-0.723012	-1.508630	99
Es	0.831251	0.245103	-0.777630	99
50
Properties=species:S:1:pos:R:3:Z:I:1 energy=-310.2915007462488 field_type=dipole dipole="0.000000 0.000000 0.000000" charge=0
C	-2.260888	-1.890297	0.315562	6
O	-0.936738	-1.421817	0.101302	8
C	-0.865628	0.003373	0.150692	6
C	0.585702	0.479403	-0.082308	6
C	1.514182	-0.092597	1.002002	6
C	1.083802	0.014343	-1.461148	6
C	0.623542	2.014763	-0.022098	6
H	-2.252328	-2.982277	0.265252	1
H	-2.932468	-1.509977	-0.460318	1
H	-2.618668	-1.588947	1.304962	1
H	-1.220698	0.345573	1.130622	1
H	-1.526548	0.421273	-0.618698	1
H	1.180282	0.203523	2.002782	1
H	2.540452	0.269453	0.873352	1
H	1.545092	-1.187257	0.970422	1
H	0.435431	0.389473	-2.261068	1
H	1.107062	-1.077997	-1.534398	1
H	2.098412	0.379403	-1.657218	1
H	-0.021688	2.456793	-0.789508	1
H	1.639322	2.392883	-0.182898	1
H	0.282372	2.380913	0.952702	1
Es	-0.865624	0.003137	0.150681	99
Es	1.083797	0.014366	-1.461136	99
Es	0.388151	2.260782	0.645152	99
Es	-2.257184	-2.632905	0.281765	99
Es	-1.113230	0.242483	0.829657	99
Es	-0.862123	-1.501847	-0.187028	99
Es	-2.511430	-1.676521	0.994278	99
Es	0.623533	2.014752	-0.022096	99
Es	1.316543	2.266761	-0.132054	99
Es	-2.260685	-1.890216	0.315530	99
Es	0.598009	1.256245	-0.050665	99
Es	1.777378	0.269988	-1.588995	99
Es	-0.146528	0.233650	0.034996	99
Es	0.180035	2.312723	-0.547175	99
Es	1.281513	0.114783	1.685393	99
Es	0.636769	0.275574	-2.005340	99
Es	1.048680	0.191098	0.466332	99
Es	-2.726203	-1.622543	-0.214424	99
Es	0.585688	0.479412	-0.082305	99
Es	-0.937006	-1.421604	0.101331	99
Es	1.514174	-0.092574	1.001996	99
Es	-0.942428	-0.880494	0.124487	99
Es	2.213749	0.161553	0.908753	99
Es	1.101445	-0.722988	-1.508679	99
Es	0.831367	0.245082	-0.777570	99
Es	-0.768942	-1.523000	0.339620	99
Es	-1.454989	-1.569318	0.187277	99
Es	-1.324926	0.294937	-0.381651	99
Es	1.536227	-0.831173	0.978226	99
50
Properties=species:S:1:pos:R:3:Z:I:1 energy=-310.2915007462488 field_type=dipole dipole="0.000000 0.000000 0.000000" charge=0
C	-2.260888	-1.890297	0.315562	6
O	-0.936738	-1.421817	0.101302	8
C	-0.865628	0.003373	0.150692	6
C	0.585702	0.479403	-0.082308	6
C	1.514182	-0.092597	1.002002	6
C	1.083802	0.014343	-1.461148	6
C	0.623542	2.014763	-0.022098	6
H	-2.252328	-2.982277	0.265252	1
H	-2.932468	-1.509977	-0.460318	1
H	-2.618668	-1.588947	1.304962	1
H	-1.220698	0.345573	1.130622	1
H	-1.526548	0.421273	-0.618698	1
H	1.180282	0.203523	2.002782	1
H	2.540452	0.269453	0.873352	1
H	1.545092	-1.187257	0.970422	1
H	0.435431	0.389473	-2.261068	1
H	1.107062	-1.077997	-1.534398	1
H	2.098412	0.379403	-1.657218	1
H	-0.021688	2.456793	-0.789508	1
H	1.639322	2.392883	-0.182898	1
H	0.282372	2.380913	0.952702	1
Es	0.388151	2.260797	0.645217	99
Es	-2.726240	-1.622511	-0.214476	99
Es	-0.766027	-1.526067	0.336450	99
Es	0.623533	2.014753	-0.022097	99
Es	-0.866029	-1.498936	-0.188218	99
Es	1.316493	2.266728	-0.132065	99
Es	1.536227	-0.831229	0.978137	99
Es	-2.511413	-1.676587	0.994376	99
Es	0.180043	2.312716	-0.547212	99
Es	1.281484	0.114815	1.685451	99
Es	0.598103	1.256316	-0.050669	99
Es	0.585687	0.479412	-0.082305	99
Es	-0.865623	0.003140	0.150682	99
Es	-0.937033	-1.421581	0.101400	99
Es	1.514175	-0.092575	1.001998	99
Es	1.777385	0.269989	-1.588970	99
Es	-1.113206	0.242489	0.829608	99
Es	1.048766	0.191037	0.466350	99
Es	-2.260686	-1.890217	0.315530	99
Es	0.636758	0.275578	-2.005361	99
Es	2.213716	0.161609	0.908673	99
Es	-0.941614	-0.880526	0.127042	99
Es	0.831343	0.245120	-0.777551	99
Es	-1.454721	-1.569308	0.189019	99
Es	-1.324931	0.294950	-0.381641	99
Es	1.101443	-0.723004	-1.508642	99
Es	-0.146579	0.233612	0.035027	99
Es	1.083796	0.014367	-1.461136	99
Es	-2.257243	-2.632745	0.281737	99
50
Properties=species:S:1:pos:R:3:Z:I:1 energy=-310.2915007462488 field_type=dipole dipole="0.000000 0.000000 0.000000" charge=0
C	-2.260888	-1.890297	0.315562	6
O	-0.936738	-1.421817	0.101302	8
C	-0.865628	0.003373	0.150692	6
C	0.585702	0.479403	-0.082308	6
C	1.514182	-0.092597	1.002002	6
C	1.083802	0.014343	-1.461148	6
C	0.623542	2.014763	-0.022098	6
H	-2.252328	-2.982277	0.265252	1
H	-2.932468	-1.509977	-0.460318	1
H	-2.618668	-1.588947	1.304962	1
H	-1.220698	0.345573	1.130622	1
H	-1.526548	0.421273	-0.618698	1
H	1.180282	0.203523	2.002782	1
H	2.540452	0.269453	0.873352	1
H	1.545092	-1.187257	0.970422	1
H	0.435431	0.389473	-2.261068	1
H	1.107062	-1.077997	-1.534398	1
H	2.098412	0.379403	-1.657218	1
H	-0.021688	2.456793	-0.789508	1
H	1.639322	2.392883	-0.182898	1
H	0.282372	2.380913	0.952702	1
Es	1.777375	0.270019	-1.588940	99
Es	0.831401	0.245126	-0.777539	99
Es	0.636767	0.275518	-2.005412	99
Es	1.514174	-0.092573	1.001994	99
Es	-0.146425	0.233626	0.034879	99
Es	-1.324935	0.294882	-0.381607	99
Es	1.536144	-0.831236	0.978206	99
Es	1.083794	0.014363	-1.461136	99
Es	-0.865623	0.003139	0.150681	99
Es	0.585688	0.479413	-0.082306	99
Es	-0.862961	-1.500644	-0.187216	99
Es	1.316612	2.266699	-0.132178	99
Es	-2.257259	-2.632875	0.281718	99
Es	-1.113318	0.242463	0.829600	99
Es	1.048689	0.191052	0.466398	99
Es	1.281511	0.114876	1.685404	99
Es	1.101508	-0.722977	-1.508611	99
Es	-2.260685	-1.890216	0.315529	99
Es	-1.455081	-1.569231	0.186978	99
Es	0.597844	1.256385	-0.050650	99
Es	-2.726198	-1.622474	-0.214392	99
Es	0.388223	2.260789	0.645206	99
Es	-0.768338	-1.524354	0.338817	99
Es	0.623533	2.014754	-0.022097	99
Es	2.213751	0.161527	0.908683	99
Es	-0.937017	-1.421612	0.101387	99
Es	0.180020	2.312739	-0.547065	99
Es	-0.942024	-0.880479	0.125732	99
Es	-2.511409	-1.676555	0.994290	99
50
Properties=species:S:1:pos:R:3:Z:I:1 energy=-310.2915007462488 field_type=dipole dipole="0.000000 0.000000 0.000000" charge=0
C	-2.260888	-1.890297	0.315562	6
O	-0.936738	-1.421817	0.101302	8
C	-0.865628	0.003373	0.150692	6
C	0.585702	0.479403	-0.082308	6
C	1.514182	-0.092597	1.002002	6
C	1.083802	0.014343	-1.461148	6
C	0.623542	2.014763	-0.022098	6
H	-2.252328	-2.982277	0.265252	1
H	-2.932468	-1.509977	-0.460318	1
H	-2.618668	-1.588947	1.304962	1
H	-1.220698	0.345573	1.130622	1
H	-1.526548	0.421273	-0.618698	1
H	1.180282	0.203523	2.002782	1
H	2.540452	0.269453	0.873352	1
H	1.545092	-1.187257	0.970422	1
H	0.435431	0.389473	-2.261068	1
H	1.107062	-1.077997	-1.534398	1
H	2.098412	0.379403	-1.657218	1
H	-0.021688	2.456793	-0.789508	1
H	1.639322	2.392883	-0.182898	1
H	0.282372	2.380913	0.952702	1
Es	0.388196	2.260756	0.645171	99
Es	-0.937017	-1.421621	0.101408	99
Es	0.585688	0.479413	-0.082306	99
Es	-2.511391	-1.676540	0.994307	99
Es	0.598039	1.256296	-0.050656	99
Es	-0.861674	-1.501801	-0.186654	99
Es	1.083797	0.014362	-1.461132	99
Es	-0.941677	-0.880235	0.125141	99
Es	1.048734	0.191136	0.466323	99
Es	-2.257231	-2.632867	0.281747	99
Es	-0.865623	0.003144	0.150681	99
Es	1.514174	-0.092574	1.001995	99
Es	0.831380	0.245082	-0.777544	99
Es	0.179975	2.312728	-0.547161	99
Es	1.777372	0.270034	-1.588971	99
Es	2.213697	0.161544	0.908752	99
Es	-1.455344	-1.569157	0.186512	99
Es	-0.146473	0.233643	0.034975	99
Es	1.101505	-0.722982	-1.508654	99
Es	-2.726228	-1.622510	-0.214395	99
Es	-1.113221	0.242416	0.829582	99
Es	-1.325016	0.294936	-0.381594	99
Es	1.281519	0.114826	1.685401	99
Es	0.636740	0.275541	-2.005364	99
Es	1.316532	2.266764	-0.132083	99
Es	-0.769754	-1.523483	0.339257	99
Es	0.623534	2.014750	-0.022098	99
Es	1.536210	-0.831244	0.978186	99
Es	-2.260682	-1.890215	0.315529	99
50
Properties=species:S:1:pos:R:3:Z:I:1 energy=-310.2915007462488 field_type=dipole dipole="0.000000 0.000000 0.000000" charge=0
C	-2.260888	-1.890297	0.315562	6
O	-0.936738	-1.421817	0.101302	8
C	-0.865628	0.003373	0.150692	6
C	0.585702	0.479403	-0.082308	6
C	1.514182	-0.092597	1.002002	6
C	1.083802	0.014343	-1.461148	6
C	0.623542	2.014763	-0.022098	6
H	-2.252328	-2.982277	0.265252	1
H	-2.932468	-1.509977	-0.460318	1
H	-2.618668	-1.588947	1.304962	1
H	-1.220698	0.345573	1.130622	1
H	-1.526548	0.421273	-0.618698	1
H	1.180282	0.203523	2.002782	1
H	2.540452	0.269453	0.873352	1
H	1.545092	-1.187257	0.970422	1
H	0.435431	0.389473	-2.261068	1
H	1.107062	-1.077997	-1.534398	1
H	2.098412	0.379403	-1.657218	1
H	-0.021688	2.456793	-0.789508	1
H	1.639322	2.392883	-0.182898	1
H	0.282372	2.380913	0.952702	1
Es	-1.325003	0.294911	-0.381615	99
Es	1.048596	0.191242	0.466340	99
Es	0.180078	2.312689	-0.547187	99
Es	0.598138	1.256244	-0.050717	99
Es	0.636813	0.275698	-2.005286	99
Es	-0.770183	-1.523009	0.339796	99
Es	1.101289	-0.723083	-1.508667	99
Es	-0.936975	-1.421665	0.101378	99
Es	-1.113236	0.242452	0.829585	99
Es	0.388052	2.260752	0.645172	99
Es	-0.942049	-0.880457	0.125235	99
Es	1.777462	0.269960	-1.588916	99
Es	-0.146586	0.233662	0.034989	99
Es	1.083796	0.014366	-1.461135	99
Es	-2.511410	-1.676473	0.994256	99
Es	1.281639	0.114730	1.685402	99
Es	0.585687	0.479412	-0.082305	99
Es	-2.257265	-2.632898	0.281795	99
Es	-1.455244	-1.569234	0.186242	99
Es	-0.860973	-1.501975	-0.186938	99
Es	-2.726194	-1.622508	-0.214418	99
Es	0.831460	0.245096	-0.777637	99
Es	-2.260684	-1.890216	0.315530	99
Es	-0.865623	0.003138	0.150683	99
Es	0.623533	2.014753	-0.022096	99
Es	1.536250	-0.831250	0.978153	99
Es	2.213671	0.161563	0.908734	99
Es	1.514173	-0.092573	1.001994	99
Es	1.316550	2.266813	-0.132012	99
50
Properties=species:S:1:pos:R:3:Z:I:1 energy=-310.2915007462488 field_type=dipole dipole="0.000000 0.000000 0.000000" charge=0
C	-2.260888	-1.890297	0.315562	6
O	-0.936738	-1.421817	0.101302	8
C	-0.865628	0.003373	0.150692	6
C	0.585702	0.479403	-0.082308	6
C	1.514182	-0.092597	1.002002	6
C	1.083802	0.014343	-1.461148	6
C	0.623542	2.014763	-0.022098	6
H	-2.252328	-2.982277	0.265252	1
H	-2.932468	-1.509977	-0.460318	1
H	-2.618668	-1.588947	1.304962	1
H	-1.220698	0.345573	1.130622	1
H	-1.526548	0.421273	-0.618698	1
H	1.180282	0.203523	2.002782	1
H	2.540452	0.269453	0.873352	1
H	1.545092	-1.187257	0.970422	1
H	0.435431	0.389473	-2.261068	1
H	1.107062	-1.077997	-1.534398	1
H	2.098412	0.379403	-1.657218	1
H	-0.021688	2.456793	-0.789508	1
H	1.639322	2.392883	-0.182898	1
H	0.282372	2.380913	0.952702	1
Es	-0.865623	0.003142	0.150682	99
Es	0.636782	0.275561	-2.005351	99
Es	-0.771369	-1.522162	0.340478	99
Es	-0.937013	-1.421595	0.101469	99
Es	-1.325018	0.294904	-0.381589	99
Es	-2.726263	-1.622417	-0.214412	99
Es	1.101443	-0.723026	-1.508632	99
Es	-1.113219	0.242443	0.829579	99
Es	1.777406	0.270026	-1.588949	99
Es	-0.146507	0.233648	0.034966	99
Es	1.316562	2.266820	-0.132055	99
Es	2.213779	0.161625	0.908702	99
Es	-2.511332	-1.676520	0.994229	99
Es	0.598078	1.256325	-0.050694	99
Es	-2.257280	-2.632908	0.281816	99
Es	-0.859590	-1.503036	-0.186256	99
Es	0.585688	0.479412	-0.082305	99
Es	1.083797	0.014366	-1.461136	99
Es	-1.455388	-1.569304	0.185533	99
Es	0.623533	2.014753	-0.022097	99
Es	0.388130	2.260761	0.645114	99
Es	1.514174	-0.092572	1.001994	99
Es	1.281484	0.114821	1.685355	99
Es	1.536185	-0.831256	0.978200	99
Es	0.180024	2.312706	-0.547125	99
Es	1.048731	0.191030	0.466343	99
Es	-0.942061	-0.880271	0.124493	99
Es	0.831313	0.245082	-0.777526	99
Es	-2.260685	-1.890216	0.315530	99
50
Properties=species:S:1:pos:R:3:Z:I:1 energy=-310.2915007462488 field_type=dipole dipole="0.000000 0.000000 0.000000" charge=0
C	-2.260888	-1.890297	0.315562	6
O	-0.936738	-1.421817	0.101302	8
C	-0.865628	0.003373	0.150692	6
C	0.585702	0.479403	-0.082308	6
C	1.514182	-0.092597	1.002002	6
C	1.083802	0.014343	-1.461148	6
C	0.623542	2.014763	-0.022098	6
H	-2.252328	-2.982277	0.265252	1
H	-2.932468	-1.509977	-0.460318	1
H	-2.618668	-1.588947	1.304962	1
H	-1.220698	0.345573	1.130622	1
H	-1.526548	0.421273	-0.618698	1
H	1.180282	0.203523	2.002782	1
H	2.540452	0.269453	0.873352	1
H	1.545092	-1.187257	0.970422	1
H	0.435431	0.389473	-2.261068	1
H	1.107062	-1.077997	-1.534398	1
H	2.098412	0.379403	-1.657218	1
H	-0.021688	2.456793	-0.789508	1
H	1.639322	2.392883	-0.182898	1
H	0.282372	2.380913	0.952702	1
Es	0.180073	2.312672	-0.547050	99
Es	-1.455405	-1.568787	0.186504	99
Es	-1.113214	0.242400	0.829594	99
Es	1.316548	2.266817	-0.132156	99
Es	1.514173	-0.092574	1.001994	99
Es	1.536174	-0.831273	0.978158	99
Es	1.048714	0.191078	0.466365	99
Es	-1.325064	0.294913	-0.381579	99
Es	1.101267	-0.723014	-1.508678	99
Es	0.388128	2.260823	0.645178	99
Es	0.598004	1.256285	-0.050659	99
Es	1.777516	0.270007	-1.589163	99
Es	1.281549	0.114817	1.685393	99
Es	-0.146459	0.233660	0.034963	99
Es	-2.260687	-1.890218	0.315530	99
Es	-2.726109	-1.622428	-0.214311	99
Es	-2.257355	-2.632991	0.281716	99
Es	-0.937016	-1.421607	0.101368	99
Es	0.585687	0.479412	-0.082305	99
Es	-0.768339	-1.525141	0.338743	99
Es	-0.863225	-1.500235	-0.187160	99
Es	2.213730	0.161580	0.908684	99
Es	0.831390	0.245174	-0.777546	99
Es	0.636787	0.275514	-2.005138	99
Es	-0.865626	0.003135	0.150678	99
Es	1.083795	0.014367	-1.461135	99
Es	-0.941401	-0.880576	0.126217	99
Es	0.623533	2.014751	-0.022098	99
Es	-2.511410	-1.676419	0.994247	99
50
Properties=species:S:1:pos:R:3:Z:I:1 energy=-310.2915007462488 field_type=dipole dipole="0.000000 0.000000 0.000000" charge=0
C	-2.260888	-1.890297	0.315562	6
O	-0.936738	-1.421817	0.101302	8
C	-0.865628	0.003373	0.150692	6
C	0.585702	0.479403	-0.082308	6
C	1.514182	-0.092597	1.002002	6
C	1.083802	0.014343	-1.461148	6
C	0.623542	2.014763	-0.022098	6
H	-2.252328	-2.982277	0.265252	1
H	-2.932468	-1.509977	-0.460318	1
H	-2.618668	-1.588947	1.304962	1
H	-1.220698	0.345573	1.130622	1
H	-1.526548	0.421273	-0.618698	1
H	1.180282	0.203523	2.002782	1
H	2.540452	0.269453	0.873352	1
H	1.545092	-1.187257	0.970422	1
H	0.435431	0.389473	-2.261068	1
H	1.107062	-1.077997	-1.534398	1
H	2.098412	0.379403	-1.657218	1
H	-0.021688	2.456793	-0.789508	1
H	1.639322	2.392883	-0.182898	1
H	0.282372	2.380913	0.952702	1
Es	1.316579	2.266845	-0.132173	99
Es	-0.937044	-1.421586	0.101324	99
Es	-0.768474	-1.524078	0.339642	99
Es	1.536154	-0.831280	0.978177	99
Es	-0.942212	-0.880425	0.124891	99
Es	1.514173	-0.092574	1.001994	99
Es	0.388070	2.260875	0.645148	99
Es	-2.511449	-1.676372	0.994219	99
Es	1.281541	0.114855	1.685385	99
Es	-1.324982	0.294852	-0.381530	99
Es	0.636874	0.275648	-2.005228	99
Es	1.048715	0.191101	0.466389	99
Es	-2.260685	-1.890216	0.315530	99
Es	0.180080	2.312561	-0.547082	99
Es	-1.113311	0.242440	0.829593	99
Es	-2.257352	-2.632999	0.281762	99
Es	0.831386	0.245102	-0.777528	99
Es	-0.862524	-1.500993	-0.186508	99
Es	1.777405	0.270002	-1.588983	99
Es	1.101348	-0.723096	-1.508757	99
Es	0.598050	1.256282	-0.050614	99
Es	0.623533	2.014753	-0.022097	99
Es	0.585688	0.479412	-0.082305	99
Es	2.213745	0.161588	0.908645	99
Es	-0.865622	0.003138	0.150682	99
Es	-0.146478	0.233686	0.034939	99
Es	1.083797	0.014366	-1.461137	99
Es	-2.726082	-1.622485	-0.214333	99
Es	-1.455162	-1.569260	0.186307	99
50
Properties=species:S:1:pos:R:3:Z:I:1 energy=-310.2915007462488 field_type=dipole dipole="0.000000 0.000000 0.000000" charge=0
C	-2.260888	-1.890297	0.315562	6
O	-0.936738	-1.421817	0.101302	8
C	-0.865628	0.003373	0.150692	6
C	0.585702	0.479403	-0.082308	6
C	1.514182	-0.092597	1.002002	6
C	1.083802	0.014343	-1.461148	6
C	0.623542	2.014763	-0.022098	6
H	-2.252328	-2.982277	0.265252	1
H	-2.932468	-1.509977	-0.460318	1
H	-2.618668	-1.588947	1.304962	1
H	-1.220698	0.345573	1.130622	1
H	-1.526548	0.421273	-0.618698	1
H	1.180282	0.203523	2.002782	1
H	2.540452	0.269453	0.873352	1
H	1.545092	-1.187257	0.970422	1
H	0.435431	0.389473	-2.261068	1
H	1.107062	-1.077997	-1.534398	1
H	2.098412	0.379403	-1.657218	1
H	-0.021688	2.456793	-0.789508	1
H	1.639322	2.392883	-0.182898	1
H	0.282372	2.380913	0.952702	1
Es	1.281479	0.114806	1.685315	99
Es	0.598160	1.256304	-0.050673	99
Es	1.083799	0.014369	-1.461135	99
Es	-2.260685	-1.890216	0.315530	99
Es	1.316576	2.266848	-0.132007	99
Es	0.831264	0.245089	-0.777540	99
Es	0.180076	2.312656	-0.547168	99
Es	1.048714	0.191022	0.466343	99
Es	-0.769371	-1.523721	0.339223	99
Es	0.388031	2.260776	0.645104	99
Es	-1.455373	-1.569281	0.186422	99
Es	-0.861825	-1.501287	-0.186855	99
Es	-0.146479	0.233738	0.035028	99
Es	1.514174	-0.092572	1.001995	99
Es	0.623533	2.014753	-0.022097	99
Es	0.585690	0.479415	-0.082305	99
Es	-2.726187	-1.622477	-0.214361	99
Es	1.101507	-0.723071	-1.508650	99
Es	-1.113308	0.242400	0.829544	99
Es	-0.865623	0.003143	0.150682	99
Es	-2.257314	-2.633008	0.281874	99
Es	-0.937006	-1.421586	0.101342	99
Es	-1.325024	0.294875	-0.381595	99
Es	0.636812	0.275497	-2.005298	99
Es	1.536275	-0.831339	0.978176	99
Es	1.777368	0.270119	-1.588974	99
Es	-0.941833	-0.880448	0.125533	99
Es	2.213695	0.161714	0.908742	99
Es	-2.511364	-1.676374	0.994161	99
50
Properties=species:S:1:pos:R:3:Z:I:1 energy=-310.2915007462488 field_type=dipole dipole="0.000000 0.000000 0.000000" charge=0
C	-2.260888	-1.890297	0.315562	6
O	-0.936738	-1.421817	0.101302	8
C	-0.865628	0.003373	0.150692	6
C	0.585702	0.479403	-0.082308	6
C	1.514182	-0.092597	1.002002	6
C	1.083802	0.014343	-1.461148	6
C	0.623542	2.014763	-0.022098	6
H	-2.252328	-2.982277	0.265252	1
H	-2.932468	-1.509977	-0.460318	1
H	-2.618668	-1.588947	1.304962	1
H	-1.220698	0.345573	1.130622	1
H	-1.526548	0.421273	-0.618698	1
H	1.180282	0.203523	2.002782	1
H	2.540452	0.269453	0.873352	1
H	1.545092	-1.187257	0.970422	1
H	0.435431	0.389473	-2.261068	1
H	1.107062	-1.077997	-1.534398	1
H	2.098412	0.379403	-1.657218	1
H	-0.021688	2.456793	-0.789508	1
H	1.639322	2.392883	-0.182898	1
H	0.282372	2.380913	0.952702	1
Es	1.316644	2.266861	-0.132030	99
Es	2.213771	0.161615	0.908760	99
Es	1.514173	-0.092573	1.001995	99
Es	0.585687	0.479412	-0.082304	99
Es	-2.257369	-2.633012	0.281716	99
Es	0.831386	0.245162	-0.777507	99
Es	-2.260683	-1.890215	0.315529	99
Es	-0.146455	0.233757	0.034959	99
Es	-0.937094	-1.421620	0.101373	99
Es	1.281515	0.114801	1.685294	99
Es	-1.113264	0.242351	0.829520	99
Es	1.083797	0.014366	-1.461136	99
Es	0.388071	2.260671	0.645110	99
Es	-0.941944	-0.880329	0.126538	99
Es	-1.325113	0.294873	-0.381505	99
Es	0.623533	2.014753	-0.022096	99
Es	1.101414	-0.723032	-1.508634	99
Es	-0.862461	-1.500663	-0.187517	99
Es	-2.726224	-1.622310	-0.214260	99
Es	0.636785	0.275513	-2.005273	99
Es	1.536157	-0.831310	0.978189	99
Es	-0.865623	0.003138	0.150680	99
Es	-0.768931	-1.524389	0.338491	99
Es	0.180011	2.312699	-0.547097	99
Es	1.048749	0.191144	0.466363	99
Es	-2.511289	-1.676512	0.994207	99
Es	1.777410	0.270023	-1.589053	99
Es	-1.454946	-1.569352	0.186782	99
Es	0.598055	1.256323	-0.050739	99
50
Properties=species:S:1:pos:R:3:Z:I:1 energy=-310.2915007462488 field_type=dipole dipole="0.000000 0.000000 0.000000" charge=0
C	-2.260888	-1.890297	0.315562	6
O	-0.936738	-1.421817	0.101302	8
C	-0.865628	0.003373	0.150692	6
C	0.585702	0.479403	-0.082308	6
C	1.514182	-0.092597	1.002002	6
C	1.083802	0.014343	-1.461148	6
C	0.623542	2.014763	-0.022098	6
H	-2.252328	-2.982277	0.265252	1
H	-2.932468	-1.509977	-0.460318	1
H	-2.618668	-1.588947	1.304962	1
H	-1.220698	0.345573	1.130622	1
H	-1.526548	0.421273	-0.618698	1
H	1.180282	0.203523	2.002782	1
H	2.540452	0.269453	0.873352	1
H	1.545092	-1.187257	0.970422	1
H	0.435431	0.389473	-2.261068	1
H	1.107062	-1.077997	-1.534398	1
H	2.098412	0.379403	-1.657218	1
H	-0.021688	2.456793	-0.789508	1
H	1.639322	2.392883	-0.182898	1
H	0.282372	2.380913	0.952702	1
Es	2.213748	0.161741	0.908820	99
Es	-2.726184	-1.622325	-0.214255	99
Es	1.083797	0.014366	-1.461136	99
Es	1.281459	0.114756	1.685231	99
Es	-1.113348	0.242392	0.829527	99
Es	0.623533	2.014753	-0.022097	99
Es	-2.257387	-2.633042	0.281735	99
Es	0.597957	1.256299	-0.050616	99
Es	-0.861557	-1.501640	-0.187228	99
Es	-2.260685	-1.890216	0.315529	99
Es	0.388149	2.260796	0.645101	99
Es	-0.769499	-1.523215	0.339330	99
Es	-0.942304	-0.880421	0.125425	99
Es	-0.146405	0.233669	0.035047	99
Es	-2.511325	-1.676482	0.994162	99
Es	1.536261	-0.831341	0.978209	99
Es	-0.937016	-1.421577	0.101342	99
Es	0.585688	0.479413	-0.082305	99
Es	1.316621	2.266751	-0.132080	99
Es	-1.455028	-1.569451	0.186814	99
Es	1.514173	-0.092573	1.001995	99
Es	-0.865623	0.003138	0.150683	99
Es	0.636726	0.275626	-2.005298	99
Es	0.831459	0.245094	-0.777644	99
Es	1.777444	0.270013	-1.588957	99
Es	1.101377	-0.723070	-1.508599	99
Es	-1.325014	0.294863	-0.381566	99
Es	1.048691	0.191087	0.466280	99
Es	0.180054	2.312739	-0.547095	99
50
Properties=species:S:1:pos:R:3:Z:I:1 energy=-310.2915007462488 field_type=dipole dipole="0.000000 0.000000 0.000000" charge=0
C	-2.260888	-1.890297	0.315562	6
O	-0.936738	-1.421817	0.101302	8
C	-0.865628	0.003373	0.150692	6
C	0.585702	0.479403	-0.082308	6
C	1.514182	-0.092597	1.002002	6
C	1.083802	0.014343	-1.461148	6
C	0.623542	2.014763	-0.022098	6
H	-2.252328	-2.982277	0.265252	1
H	-2.932468	-1.509977	-0.460318	1
H	-2.618668	-1.588947	1.304962	1
H	-1.220698	0.345573	1.130622	1
H	-1.526548	0.421273	-0.618698	1
H	1.180282	0.203523	2.002782	1
H	2.540452	0.269453	0.873352	1
H	1.545092	-1.187257	0.970422	1
H	0.435431	0.389473	-2.261068	1
H	1.107062	-1.077997	-1.534398	1
H	2.098412	0.379403	-1.657218	1
H	-0.021688	2.456793	-0.789508	1
H	1.639322	2.392883	-0.182898	1
H	0.282372	2.380913	0.952702	1
Es	0.331985	0.228234	0.021625	99
Es	0.963990	1.388223	0.148932	99
Es	0.131110	0.167817	-0.613459	99
Es	0.894061	0.430359	0.340866	99
Es	1.584700	0.639807	0.084059	99
Es	0.894625	0.272232	-0.457010	99
Es	0.846927	0.886197	-0.086605	99
Es	0.887596	1.100822	0.043303	99
Es	0.794658	1.160938	0.305606	99
Es	0.819062	1.022213	-0.194015	99
Es	-0.302854	0.136243	0.199712	99
Es	-2.262406	-1.929589	0.396581	99
Es	0.452349	-0.807423	0.508663	99
Es	-1.614336	-1.620235	0.157463	99
Es	-1.163384	-1.423196	0.122543	99
Es	0.651121	0.826258	-0.505278	99
Es	-0.827860	-0.168905	0.159422	99
Es	-1.919470	-1.492604	0.451901	99
Es	1.023653	0.169678	-0.573940	99
Es	-1.903743	-1.633181	0.195249	99
Es	0.627025	0.486160	-0.181244	99
Es	-1.519976	-1.584246	0.445204	99
Es	-0.847688	-1.229963	-0.045786	99
Es	-0.193093	0.518504	-0.320003	99
Es	-0.467126	-0.698031	0.307153	99
Es	1.231688	0.599555	-0.016170	99
Es	0.802898	0.665780	-0.165428	99
Es	-2.038356	-1.965498	0.068895	99
Es	0.668603	0.125994	-0.711883	99
50
Properties=species:S:1:pos:R:3:Z:I:1 energy=-310.2915007462488 field_type=dipole dipole="0.000000 0.000000 0.000000" charge=0
C	-2.260888	-1.890297	0.315562	6
O	-0.936738	-1.421817	0.101302	8
C	-0.865628	0.003373	0.150692	6
C	0.585702	0.479403	-0.082308	6
C	1.514182	-0.092597	1.002002	6
C	1.083802	0.014343	-1.461148	6
C	0.623542	2.014763	-0.022098	6
H	-2.252328	-2.982277	0.265252	1
H	-2.932468	-1.509977	-0.460318	1
H	-2.618668	-1.588947	1.304962	1
H	-1.220698	0.345573	1.130622	1
H	-1.526548	0.421273	-0.618698	1
H	1.180282	0.203523	2.002782	1
H	2.540452	0.269453	0.873352	1
H	1.545092	-1.187257	0.970422	1
H	0.435431	0.389473	-2.261068	1
H	1.107062	-1.077997	-1.534398	1
H	2.098412	0.379403	-1.657218	1
H	-0.021688	2.456793	-0.789508	1
H	1.639322	2.392883	-0.182898	1
H	0.282372	2.380913	0.952702	1
Es	0.598188	1.256348	-0.050662	99
Es	1.083797	0.014366	-1.461135	99
Es	-2.260685	-1.890216	0.315529	99
Es	-2.511284	-1.676405	0.994085	99
Es	-0.937021	-1.421639	0.101355	99
Es	-1.455182	-1.569195	0.187714	99
Es	1.101405	-0.723075	-1.508593	99
Es	-1.113440	0.242412	0.829442	99
Es	0.585688	0.479413	-0.082305	99
Es	0.636703	0.275587	-2.005267	99
Es	-2.726177	-1.622270	-0.214236	99
Es	0.831411	0.245045	-0.777594	99
Es	-0.865622	0.003134	0.150680	99
Es	-0.941733	-0.880794	0.126311	99
Es	1.777451	0.270071	-1.588976	99
Es	0.179931	2.312706	-0.547125	99
Es	1.514172	-0.092574	1.001993	99
Es	1.281370	0.114996	1.685288	99
Es	0.623534	2.014753	-0.022097	99
Es	-2.257454	-2.633114	0.281800	99
Es	-0.768559	-1.524047	0.338273	99
Es	1.536330	-0.831415	0.978276	99
Es	2.213617	0.161720	0.908758	99
Es	0.388095	2.260633	0.645013	99
Es	-1.324980	0.294804	-0.381586	99
Es	-0.862831	-1.500733	-0.187927	99
Es	1.316619	2.266940	-0.131966	99
Es	-0.146410	0.233829	0.035038	99
Es	1.048830	0.190864	0.466269	99
