40
Properties=species:S:1:pos:R:3:Z:I:1 energy=-322.7491926177754 field_type=dipole dipole="0.000000 0.000000 0.000000" charge=0
C	-2.017716	-0.642618	0.024912	6
C	-0.545847	-0.834318	-0.302018	6
C	0.229834	0.426332	-0.093728	6
O	0.634343	0.662592	1.258692	8
C	1.682973	0.381921	0.313182	6
C	2.528594	1.501112	0.026492	6
N	3.221673	2.395521	-0.231418	7
H	-2.570527	-1.571779	-0.143888	1
H	-2.460647	0.138452	-0.601858	1
H	-2.151807	-0.348348	1.071072	1
H	-0.444396	-1.143678	-1.348278	1
H	-0.143027	-1.647188	0.313742	1
H	-0.133657	1.263662	-0.676168	1
H	2.170204	-0.581658	0.389262	1
Es	-0.013427	0.997854	-0.478889	99
Es	0.583158	0.401449	1.423208	99
Es	-0.263976	-1.378342	0.117568	99
Es	-2.312238	-0.109388	-0.405514	99
Es	-2.103476	-0.443775	0.731273	99
Es	-0.545847	-0.834259	-0.302015	99
Es	0.634425	0.662544	1.258379	99
Es	0.640031	0.967635	1.322657	99
Es	0.230010	0.426365	-0.093442	99
Es	3.221382	2.395147	-0.231314	99
Es	2.978123	1.841270	-0.375070	99
Es	-2.387189	-1.274120	-0.092068	99
Es	0.375524	0.599587	0.781305	99
Es	3.439556	2.678203	-0.313704	99
Es	-2.017663	-0.642621	0.024891	99
Es	2.130236	0.971369	0.167670	99
Es	-1.270573	-0.726683	-0.138875	99
Es	2.656717	2.170078	-0.104057	99
Es	2.528398	1.500854	0.026568	99
Es	1.125004	0.566187	0.956802	99
Es	3.069258	1.934728	0.141069	99
Es	-0.473054	-1.033321	-1.014516	99
Es	1.076246	0.374051	-0.111475	99
Es	-0.140167	-0.201391	-0.194043	99
Es	2.019266	-0.248711	0.368423	99
Es	1.682822	0.382142	0.313365	99
40
Properties=species:S:1:pos:R:3:Z:I:1 energy=-322.7491926177754 field_type=dipole dipole="0.000000 0.000000 0.000000" charge=0
C	-2.017716	-0.642618	0.024912	6
C	-0.545847	-0.834318	-0.302018	6
C	0.229834	0.426332	-0.093728	6
O	0.634343	0.662592	1.258692	8
C	1.682973	0.381921	0.313182	6
C	2.528594	1.501112	0.026492	6
N	3.221673	2.395521	-0.231418	7
H	-2.570527	-1.571779	-0.143888	1
H	-2.460647	0.138452	-0.601858	1
H	-2.151807	-0.348348	1.071072	1
H	-0.444396	-1.143678	-1.348278	1
H	-0.143027	-1.647188	0.313742	1
H	-0.133657	1.263662	-0.676168	1
H	2.170204	-0.581658	0.389262	1
Es	-1.270872	-0.726572	-0.139050	99
Es	1.133778	0.580337	0.955723	99
Es	0.230005	0.426368	-0.093438	99
Es	-2.017663	-0.642622	0.024891	99
Es	-0.139220	-0.199784	-0.194943	99
Es	2.815302	2.111347	0.138732	99
Es	-0.545848	-0.834259	-0.302014	99
Es	2.749543	2.034295	-0.372591	99
Es	3.221389	2.395154	-0.231314	99
Es	1.682829	0.382144	0.313375	99
Es	3.128646	1.803186	-0.106910	99
Es	-0.012313	0.996013	-0.475580	99
Es	-2.392145	-1.276679	-0.091659	99
Es	2.128634	0.975546	0.166943	99
Es	-2.310410	-0.111331	-0.400504	99
Es	-2.103347	-0.442145	0.725936	99
Es	2.015931	-0.243888	0.370171	99
Es	2.528376	1.500856	0.026563	99
Es	0.634380	0.662596	1.258532	99
Es	-0.472737	-1.034617	-1.009370	99
Es	0.371853	0.601086	0.780728	99
Es	0.584051	0.403432	1.435622	99
Es	1.077493	0.371162	-0.112355	99
Es	-0.265163	-1.376412	0.113333	99
Es	3.455557	2.672756	-0.310964	99
Es	0.634498	0.948885	1.308337	99
40
Properties=species:S:1:pos:R:3:Z:I:1 energy=-322.7491926177754 field_type=dipole dipole="0.000000 0.000000 0.000000" charge=0
C	-2.017716	-0.642618	0.024912	6
C	-0.545847	-0.834318	-0.302018	6
C	0.229834	0.426332	-0.093728	6
O	0.634343	0.662592	1.258692	8
C	1.682973	0.381921	0.313182	6
C	2.528594	1.501112	0.026492	6
N	3.221673	2.395521	-0.231418	7
H	-2.570527	-1.571779	-0.143888	1
H	-2.460647	0.138452	-0.601858	1
H	-2.151807	-0.348348	1.071072	1
H	-0.444396	-1.143678	-1.348278	1
H	-0.143027	-1.647188	0.313742	1
H	-0.133657	1.263662	-0.676168	1
H	2.170204	-0.581658	0.389262	1
Es	3.113948	1.869591	0.056141	99
Es	2.706532	2.158220	0.006636	99
Es	-0.545846	-0.834260	-0.302009	99
Es	3.221386	2.395151	-0.231313	99
Es	-0.265582	-1.375626	0.111685	99
Es	1.077704	0.370276	-0.112575	99
Es	1.682830	0.382145	0.313367	99
Es	0.634392	0.662506	1.258420	99
Es	1.137238	0.589593	0.957996	99
Es	-0.138738	-0.199281	-0.195560	99
Es	0.632171	0.937855	1.301936	99
Es	-2.017663	-0.642623	0.024891	99
Es	0.230008	0.426367	-0.093439	99
Es	2.873729	1.919027	-0.402935	99
Es	-0.011885	0.995107	-0.474338	99
Es	-1.270979	-0.726401	-0.139155	99
Es	0.582062	0.402502	1.440073	99
Es	-2.102877	-0.441781	0.723326	99
Es	3.456209	2.673675	-0.311924	99
Es	-2.309731	-0.112232	-0.398458	99
Es	-2.394036	-1.277594	-0.091027	99
Es	2.014378	-0.241352	0.370645	99
Es	2.128673	0.976500	0.166874	99
Es	-0.472939	-1.034817	-1.007053	99
Es	0.373200	0.603445	0.779425	99
Es	2.528363	1.500860	0.026567	99
40
Properties=species:S:1:pos:R:3:Z:I:1 energy=-322.7491926177754 field_type=dipole dipole="0.000000 0.000000 0.000000" charge=0
C	-2.017716	-0.642618	0.024912	6
C	-0.545847	-0.834318	-0.302018	6
C	0.229834	0.426332	-0.093728	6
O	0.634343	0.662592	1.258692	8
C	1.682973	0.381921	0.313182	6
C	2.528594	1.501112	0.026492	6
N	3.221673	2.395521	-0.231418	7
H	-2.570527	-1.571779	-0.143888	1
H	-2.460647	0.138452	-0.601858	1
H	-2.151807	-0.348348	1.071072	1
H	-0.444396	-1.143678	-1.348278	1
H	-0.143027	-1.647188	0.313742	1
H	-0.133657	1.263662	-0.676168	1
H	2.170204	-0.581658	0.389262	1
Es	1.078534	0.369985	-0.113216	99
Es	2.971691	2.009478	0.175937	99
Es	0.374952	0.602926	0.779931	99
Es	2.671376	2.129039	-0.242830	99
Es	3.221387	2.395150	-0.231314	99
Es	-2.308988	-0.113703	-0.396713	99
Es	-2.395335	-1.277750	-0.091045	99
Es	2.528358	1.500862	0.026570	99
Es	-2.102813	-0.441290	0.722212	99
Es	-0.265911	-1.374335	0.110199	99
Es	3.049023	1.810882	-0.270201	99
Es	0.634389	0.662552	1.258505	99
Es	-2.017665	-0.642622	0.024891	99
Es	0.581142	0.402234	1.441995	99
Es	2.128920	0.976501	0.165899	99
Es	1.682833	0.382144	0.313365	99
Es	-0.545849	-0.834258	-0.302014	99
Es	3.458750	2.671082	-0.314255	99
Es	-0.472988	-1.035175	-1.005953	99
Es	-0.138448	-0.199058	-0.195876	99
Es	0.230011	0.426368	-0.093436	99
Es	1.138442	0.595551	0.959317	99
Es	-0.011585	0.994109	-0.473158	99
Es	-1.271027	-0.726455	-0.139156	99
Es	0.629889	0.932424	1.297871	99
Es	2.013458	-0.239788	0.370669	99
