43
Properties=species:S:1:pos:R:3:Z:I:1 energy=-323.9781408157851 field_type=dipole dipole="0.000000 0.000000 0.000000" charge=0
C	-1.809649	-0.204872	0.442917	6
C	-0.293909	-0.084122	0.322587	6
C	0.189291	-0.724132	-0.956523	6
C	1.024891	-1.770002	-1.015182	6
C	0.130461	1.387058	0.312577	6
N	1.397401	1.625068	0.769848	7
O	-0.565609	2.310668	-0.095442	8
H	-2.166469	0.301918	1.347167	1
H	-2.115719	-1.255702	0.502617	1
H	-2.326389	0.248818	-0.411862	1
H	0.161291	-0.566682	1.196028	1
H	-0.177549	-0.290762	-1.887932	1
H	1.415751	-2.245432	-0.121543	1
H	1.327511	-2.181612	-1.974072	1
H	2.067911	0.877168	0.878888	1
H	1.740781	2.572618	0.689927	1
Es	-0.042401	-0.391224	-0.311944	99
Es	-0.255686	1.963843	-0.190600	99
Es	1.168704	1.610003	0.979546	99
Es	-1.809577	-0.204879	0.442921	99
Es	-2.041900	0.135866	1.058896	99
Es	0.872217	-1.052310	-0.989378	99
Es	-0.064155	-0.424710	-1.576399	99
Es	-2.148658	0.094579	-0.136672	99
Es	0.361143	-1.453741	-0.973033	99
Es	1.795434	1.179486	0.819140	99
Es	1.612127	2.175040	0.703239	99
Es	-1.035069	-0.139914	0.370100	99
Es	0.026432	-0.409128	0.911352	99
Es	-0.293893	-0.084068	0.322532	99
Es	1.293492	-2.092845	-0.408808	99
Es	-0.852183	2.218584	-0.183252	99
Es	-0.076535	0.649871	0.321648	99
Es	0.189222	-0.724032	-0.956469	99
Es	1.397242	1.624959	0.769126	99
Es	0.130608	1.387044	0.312643	99
Es	1.024947	-1.770074	-1.015179	99
Es	-2.006505	-0.922410	0.484030	99
Es	-0.565398	2.310412	-0.095316	99
Es	-0.408049	2.582427	-0.081574	99
Es	1.232910	-2.053332	-1.659248	99
Es	-0.418156	2.033101	0.271047	99
Es	0.951781	1.508868	0.455008	99
43
Properties=species:S:1:pos:R:3:Z:I:1 energy=-323.9781408157851 field_type=dipole dipole="0.000000 0.000000 0.000000" charge=0
C	-1.809649	-0.204872	0.442917	6
C	-0.293909	-0.084122	0.322587	6
C	0.189291	-0.724132	-0.956523	6
C	1.024891	-1.770002	-1.015182	6
C	0.130461	1.387058	0.312577	6
N	1.397401	1.625068	0.769848	7
O	-0.565609	2.310668	-0.095442	8
H	-2.166469	0.301918	1.347167	1
H	-2.115719	-1.255702	0.502617	1
H	-2.326389	0.248818	-0.411862	1
H	0.161291	-0.566682	1.196028	1
H	-0.177549	-0.290762	-1.887932	1
H	1.415751	-2.245432	-0.121543	1
H	1.327511	-2.181612	-1.974072	1
H	2.067911	0.877168	0.878888	1
H	1.740781	2.572618	0.689927	1
Es	-2.149170	0.094928	-0.137093	99
Es	0.189219	-0.724031	-0.956468	99
Es	1.397378	1.624998	0.769362	99
Es	-1.809575	-0.204878	0.442919	99
Es	1.024951	-1.770074	-1.015179	99
Es	0.130612	1.387040	0.312646	99
Es	-0.565424	2.310418	-0.095332	99
Es	0.026922	-0.409466	0.911630	99
Es	1.173889	1.610264	0.973618	99
Es	-0.042688	-0.391033	-0.312079	99
Es	-0.418382	2.033663	0.268758	99
Es	-0.409022	2.581408	-0.078126	99
Es	0.872079	-1.052347	-0.989588	99
Es	-1.035058	-0.139961	0.370186	99
Es	-0.076468	0.649601	0.321124	99
Es	1.294222	-2.092697	-0.408540	99
Es	0.360954	-1.454004	-0.973039	99
Es	-2.041525	0.135439	1.058733	99
Es	0.946369	1.509320	0.458367	99
Es	-0.293892	-0.084068	0.322534	99
Es	1.232988	-2.052903	-1.658859	99
Es	-0.064595	-0.424739	-1.576541	99
Es	-0.252956	1.963842	-0.192141	99
Es	-2.006434	-0.922093	0.484396	99
Es	1.796714	1.178008	0.820002	99
Es	1.610834	2.175342	0.704581	99
Es	-0.853847	2.219442	-0.182513	99
43
Properties=species:S:1:pos:R:3:Z:I:1 energy=-323.9781408157851 field_type=dipole dipole="0.000000 0.000000 0.000000" charge=0
C	-1.809649	-0.204872	0.442917	6
C	-0.293909	-0.084122	0.322587	6
C	0.189291	-0.724132	-0.956523	6
C	1.024891	-1.770002	-1.015182	6
C	0.130461	1.387058	0.312577	6
N	1.397401	1.625068	0.769848	7
O	-0.565609	2.310668	-0.095442	8
H	-2.166469	0.301918	1.347167	1
H	-2.115719	-1.255702	0.502617	1
H	-2.326389	0.248818	-0.411862	1
H	0.161291	-0.566682	1.196028	1
H	-0.177549	-0.290762	-1.887932	1
H	1.415751	-2.245432	-0.121543	1
H	1.327511	-2.181612	-1.974072	1
H	2.067911	0.877168	0.878888	1
H	1.740781	2.572618	0.689927	1
Es	-0.076348	0.649425	0.320697	99
Es	0.360768	-1.453927	-0.972925	99
Es	1.797523	1.176582	0.822172	99
Es	-2.041270	0.135062	1.058626	99
Es	-0.565349	2.310420	-0.095305	99
Es	-0.857179	2.225434	-0.181105	99
Es	1.294545	-2.092959	-0.408434	99
Es	0.027102	-0.409649	0.911924	99
Es	0.189220	-0.724034	-0.956472	99
Es	-1.809575	-0.204878	0.442922	99
Es	0.130610	1.387041	0.312648	99
Es	0.872511	-1.052282	-0.989633	99
Es	1.609915	2.175227	0.704019	99
Es	-0.405675	2.576468	-0.077182	99
Es	-2.006281	-0.921871	0.484636	99
Es	1.179366	1.611495	0.967825	99
Es	0.940826	1.509269	0.462468	99
Es	-0.293893	-0.084070	0.322531	99
Es	-1.035022	-0.139873	0.370220	99
Es	-0.042960	-0.391066	-0.312308	99
Es	-0.253945	1.962141	-0.194159	99
Es	1.232907	-2.052501	-1.658520	99
Es	-0.417614	2.034641	0.268690	99
Es	1.397419	1.625007	0.769331	99
Es	-2.149552	0.095220	-0.137455	99
Es	-0.064905	-0.424830	-1.576674	99
Es	1.024951	-1.770073	-1.015180	99
43
Properties=species:S:1:pos:R:3:Z:I:1 energy=-323.9781408157851 field_type=dipole dipole="0.000000 0.000000 0.000000" charge=0
C	-1.809649	-0.204872	0.442917	6
C	-0.293909	-0.084122	0.322587	6
C	0.189291	-0.724132	-0.956523	6
C	1.024891	-1.770002	-1.015182	6
C	0.130461	1.387058	0.312577	6
N	1.397401	1.625068	0.769848	7
O	-0.565609	2.310668	-0.095442	8
H	-2.166469	0.301918	1.347167	1
H	-2.115719	-1.255702	0.502617	1
H	-2.326389	0.248818	-0.411862	1
H	0.161291	-0.566682	1.196028	1
H	-0.177549	-0.290762	-1.887932	1
H	1.415751	-2.245432	-0.121543	1
H	1.327511	-2.181612	-1.974072	1
H	2.067911	0.877168	0.878888	1
H	1.740781	2.572618	0.689927	1
Es	-0.857681	2.226814	-0.183174	99
Es	-0.065026	-0.424863	-1.576860	99
Es	1.397398	1.625005	0.769352	99
Es	-2.040927	0.134747	1.058607	99
Es	-0.293893	-0.084070	0.322533	99
Es	0.872340	-1.052401	-0.989644	99
Es	-2.149874	0.095564	-0.137716	99
Es	0.936035	1.509355	0.465932	99
Es	-0.421461	2.037048	0.266383	99
Es	0.027446	-0.410025	0.912184	99
Es	1.232830	-2.052183	-1.658316	99
Es	-0.043270	-0.390743	-0.312530	99
Es	0.360834	-1.453950	-0.972940	99
Es	1.024949	-1.770075	-1.015179	99
Es	0.189220	-0.724031	-0.956469	99
Es	-0.249126	1.960350	-0.192816	99
Es	1.798085	1.175502	0.824034	99
Es	-2.006233	-0.921655	0.484804	99
Es	-1.809580	-0.204879	0.442920	99
Es	1.294933	-2.093037	-0.408217	99
Es	1.609016	2.175477	0.704676	99
Es	0.130611	1.387041	0.312645	99
Es	-1.034973	-0.139841	0.370227	99
Es	1.184348	1.611909	0.961712	99
Es	-0.076327	0.649113	0.320293	99
Es	-0.406223	2.574805	-0.073772	99
Es	-0.565357	2.310440	-0.095313	99
43
Properties=species:S:1:pos:R:3:Z:I:1 energy=-323.9781408157851 field_type=dipole dipole="0.000000 0.000000 0.000000" charge=0
C	-1.809649	-0.204872	0.442917	6
C	-0.293909	-0.084122	0.322587	6
C	0.189291	-0.724132	-0.956523	6
C	1.024891	-1.770002	-1.015182	6
C	0.130461	1.387058	0.312577	6
N	1.397401	1.625068	0.769848	7
O	-0.565609	2.310668	-0.095442	8
H	-2.166469	0.301918	1.347167	1
H	-2.115719	-1.255702	0.502617	1
H	-2.326389	0.248818	-0.411862	1
H	0.161291	-0.566682	1.196028	1
H	-0.177549	-0.290762	-1.887932	1
H	1.415751	-2.245432	-0.121543	1
H	1.327511	-2.181612	-1.974072	1
H	2.067911	0.877168	0.878888	1
H	1.740781	2.572618	0.689927	1
Es	-1.034896	-0.139940	0.370345	99
Es	1.608051	2.175990	0.706884	99
Es	1.798639	1.174988	0.825280	99
Es	0.130612	1.387040	0.312644	99
Es	-0.860885	2.232527	-0.181377	99
Es	1.397373	1.624981	0.769168	99
Es	-0.249895	1.960598	-0.196208	99
Es	0.872480	-1.052297	-0.989619	99
Es	-1.809578	-0.204879	0.442921	99
Es	1.295180	-2.093188	-0.408206	99
Es	-0.403740	2.570527	-0.070222	99
Es	-0.293893	-0.084070	0.322533	99
Es	1.232882	-2.051822	-1.658086	99
Es	0.027699	-0.410114	0.912316	99
Es	-2.006118	-0.921473	0.485061	99
Es	0.360570	-1.454207	-0.973004	99
Es	-0.065309	-0.424691	-1.576807	99
Es	1.183134	1.611000	0.959074	99
Es	-0.043269	-0.390835	-0.312594	99
Es	-0.076382	0.649154	0.319935	99
Es	-2.040812	0.134560	1.058446	99
Es	0.937582	1.509953	0.465239	99
Es	-0.419990	2.035651	0.264620	99
Es	0.189218	-0.724031	-0.956468	99
Es	-2.150108	0.095661	-0.138013	99
Es	1.024952	-1.770074	-1.015179	99
Es	-0.565403	2.310413	-0.095325	99
43
Properties=species:S:1:pos:R:3:Z:I:1 energy=-323.9781408157851 field_type=dipole dipole="0.000000 0.000000 0.000000" charge=0
C	-1.809649	-0.204872	0.442917	6
C	-0.293909	-0.084122	0.322587	6
C	0.189291	-0.724132	-0.956523	6
C	1.024891	-1.770002	-1.015182	6
C	0.130461	1.387058	0.312577	6
N	1.397401	1.625068	0.769848	7
O	-0.565609	2.310668	-0.095442	8
H	-2.166469	0.301918	1.347167	1
H	-2.115719	-1.255702	0.502617	1
H	-2.326389	0.248818	-0.411862	1
H	0.161291	-0.566682	1.196028	1
H	-0.177549	-0.290762	-1.887932	1
H	1.415751	-2.245432	-0.121543	1
H	1.327511	-2.181612	-1.974072	1
H	2.067911	0.877168	0.878888	1
H	1.740781	2.572618	0.689927	1
Es	1.295285	-2.093489	-0.408132	99
Es	-0.565296	2.310427	-0.095293	99
Es	-0.422476	2.037598	0.264333	99
Es	-2.040387	0.134329	1.058419	99
Es	0.929098	1.509868	0.471591	99
Es	-0.249257	1.957474	-0.196080	99
Es	-1.809578	-0.204879	0.442921	99
Es	-0.043572	-0.390586	-0.312718	99
Es	0.027888	-0.410560	0.912458	99
Es	0.130613	1.387040	0.312640	99
Es	-0.293893	-0.084069	0.322532	99
Es	-0.399838	2.563563	-0.068476	99
Es	0.360642	-1.454152	-0.972991	99
Es	-2.150324	0.096074	-0.138245	99
Es	1.397367	1.624998	0.769207	99
Es	-0.863120	2.240902	-0.182695	99
Es	1.607550	2.175784	0.706087	99
Es	-2.006091	-0.921422	0.485221	99
Es	0.189219	-0.724026	-0.956466	99
Es	-1.034935	-0.139849	0.370368	99
Es	-0.076121	0.648990	0.319594	99
Es	1.024949	-1.770077	-1.015179	99
Es	1.191642	1.611789	0.953817	99
Es	1.798884	1.174259	0.824885	99
Es	-0.065208	-0.424539	-1.577000	99
Es	0.872366	-1.052428	-0.989479	99
Es	1.232689	-2.051599	-1.657958	99
43
Properties=species:S:1:pos:R:3:Z:I:1 energy=-323.9781408157851 field_type=dipole dipole="0.000000 0.000000 0.000000" charge=0
C	-1.809649	-0.204872	0.442917	6
C	-0.293909	-0.084122	0.322587	6
C	0.189291	-0.724132	-0.956523	6
C	1.024891	-1.770002	-1.015182	6
C	0.130461	1.387058	0.312577	6
N	1.397401	1.625068	0.769848	7
O	-0.565609	2.310668	-0.095442	8
H	-2.166469	0.301918	1.347167	1
H	-2.115719	-1.255702	0.502617	1
H	-2.326389	0.248818	-0.411862	1
H	0.161291	-0.566682	1.196028	1
H	-0.177549	-0.290762	-1.887932	1
H	1.415751	-2.245432	-0.121543	1
H	1.327511	-2.181612	-1.974072	1
H	2.067911	0.877168	0.878888	1
H	1.740781	2.572618	0.689927	1
Es	0.872404	-1.052487	-0.989464	99
Es	-0.076138	0.648989	0.319414	99
Es	1.232520	-2.051444	-1.657830	99
Es	1.024950	-1.770077	-1.015185	99
Es	-2.040163	0.134080	1.058398	99
Es	0.189221	-0.724029	-0.956469	99
Es	-0.065158	-0.424369	-1.577023	99
Es	-1.034985	-0.139750	0.370468	99
Es	1.799145	1.173787	0.826151	99
Es	-2.150437	0.096416	-0.138408	99
Es	-2.005937	-0.921520	0.485249	99
Es	1.191764	1.611380	0.950856	99
Es	-0.043769	-0.390378	-0.312839	99
Es	-1.809578	-0.204879	0.442920	99
Es	1.295336	-2.093743	-0.408028	99
Es	0.130612	1.387040	0.312641	99
Es	-0.866585	2.248529	-0.184367	99
Es	0.929299	1.509937	0.472213	99
Es	-0.423439	2.038549	0.262426	99
Es	-0.565436	2.310339	-0.095322	99
Es	1.397429	1.625006	0.769341	99
Es	0.360628	-1.454133	-0.973036	99
Es	-0.397236	2.555983	-0.064793	99
Es	-0.293892	-0.084070	0.322532	99
Es	-0.247284	1.956830	-0.195935	99
Es	0.028087	-0.410893	0.912517	99
Es	1.606737	2.176328	0.706928	99
43
Properties=species:S:1:pos:R:3:Z:I:1 energy=-323.9781408157851 field_type=dipole dipole="0.000000 0.000000 0.000000" charge=0
C	-1.809649	-0.204872	0.442917	6
C	-0.293909	-0.084122	0.322587	6
C	0.189291	-0.724132	-0.956523	6
C	1.024891	-1.770002	-1.015182	6
C	0.130461	1.387058	0.312577	6
N	1.397401	1.625068	0.769848	7
O	-0.565609	2.310668	-0.095442	8
H	-2.166469	0.301918	1.347167	1
H	-2.115719	-1.255702	0.502617	1
H	-2.326389	0.248818	-0.411862	1
H	0.161291	-0.566682	1.196028	1
H	-0.177549	-0.290762	-1.887932	1
H	1.415751	-2.245432	-0.121543	1
H	1.327511	-2.181612	-1.974072	1
H	2.067911	0.877168	0.878888	1
H	1.740781	2.572618	0.689927	1
Es	-0.065106	-0.424147	-1.576985	99
Es	-0.390072	2.542401	-0.061485	99
Es	-1.809579	-0.204880	0.442921	99
Es	-0.075965	0.648940	0.319250	99
Es	1.799181	1.173228	0.826311	99
Es	-2.150662	0.096757	-0.138381	99
Es	1.605969	2.177379	0.709431	99
Es	1.194032	1.610332	0.946575	99
Es	-1.034882	-0.139693	0.370401	99
Es	1.024950	-1.770077	-1.015179	99
Es	-0.249700	1.953942	-0.197179	99
Es	0.130613	1.387042	0.312651	99
Es	0.360584	-1.454225	-0.973144	99
Es	0.189218	-0.724031	-0.956468	99
Es	1.397337	1.624967	0.769116	99
Es	1.232277	-2.051294	-1.657663	99
Es	0.872517	-1.052370	-0.989446	99
Es	-0.293894	-0.084069	0.322532	99
Es	-2.039755	0.133907	1.058222	99
Es	1.295351	-2.094099	-0.408072	99
Es	0.927650	1.510354	0.473925	99
Es	-0.565430	2.310352	-0.095323	99
Es	-0.424610	2.038403	0.261662	99
Es	-0.043868	-0.390366	-0.312831	99
Es	-0.870141	2.265368	-0.185464	99
Es	-2.006059	-0.921562	0.485429	99
Es	0.028137	-0.411138	0.912552	99
43
Properties=species:S:1:pos:R:3:Z:I:1 energy=-323.9781408157851 field_type=dipole dipole="0.000000 0.000000 0.000000" charge=0
C	-1.809649	-0.204872	0.442917	6
C	-0.293909	-0.084122	0.322587	6
C	0.189291	-0.724132	-0.956523	6
C	1.024891	-1.770002	-1.015182	6
C	0.130461	1.387058	0.312577	6
N	1.397401	1.625068	0.769848	7
O	-0.565609	2.310668	-0.095442	8
H	-2.166469	0.301918	1.347167	1
H	-2.115719	-1.255702	0.502617	1
H	-2.326389	0.248818	-0.411862	1
H	0.161291	-0.566682	1.196028	1
H	-0.177549	-0.290762	-1.887932	1
H	1.415751	-2.245432	-0.121543	1
H	1.327511	-2.181612	-1.974072	1
H	2.067911	0.877168	0.878888	1
H	1.740781	2.572618	0.689927	1
Es	1.024949	-1.770078	-1.015179	99
Es	0.189231	-0.724026	-0.956471	99
Es	-1.809577	-0.204878	0.442921	99
Es	-0.064789	-0.423953	-1.577002	99
Es	0.360467	-1.454422	-0.973227	99
Es	-0.565445	2.310420	-0.095344	99
Es	-2.150495	0.097083	-0.138284	99
Es	1.799077	1.172821	0.826795	99
Es	-0.382552	2.518483	-0.057603	99
Es	-1.034585	-0.140133	0.370365	99
Es	-0.076198	0.649433	0.319352	99
Es	-0.428417	2.041854	0.259009	99
Es	-2.039582	0.133883	1.058128	99
Es	1.605448	2.178225	0.710348	99
Es	-0.293894	-0.084069	0.322532	99
Es	-0.250669	1.947294	-0.194794	99
Es	-2.006219	-0.921854	0.485355	99
Es	0.028232	-0.411547	0.912381	99
Es	0.925720	1.510283	0.476071	99
Es	-0.044028	-0.389954	-0.312879	99
Es	-0.872823	2.292593	-0.188880	99
Es	1.295230	-2.094518	-0.408125	99
Es	1.196396	1.609881	0.942822	99
Es	0.872606	-1.052218	-0.989307	99
Es	0.130612	1.387039	0.312642	99
Es	1.232011	-2.051208	-1.657483	99
Es	1.397389	1.624986	0.769211	99
43
Properties=species:S:1:pos:R:3:Z:I:1 energy=-323.9781408157851 field_type=dipole dipole="0.000000 0.000000 0.000000" charge=0
C	-1.809649	-0.204872	0.442917	6
C	-0.293909	-0.084122	0.322587	6
C	0.189291	-0.724132	-0.956523	6
C	1.024891	-1.770002	-1.015182	6
C	0.130461	1.387058	0.312577	6
N	1.397401	1.625068	0.769848	7
O	-0.565609	2.310668	-0.095442	8
H	-2.166469	0.301918	1.347167	1
H	-2.115719	-1.255702	0.502617	1
H	-2.326389	0.248818	-0.411862	1
H	0.161291	-0.566682	1.196028	1
H	-0.177549	-0.290762	-1.887932	1
H	1.415751	-2.245432	-0.121543	1
H	1.327511	-2.181612	-1.974072	1
H	2.067911	0.877168	0.878888	1
H	1.740781	2.572618	0.689927	1
Es	1.397369	1.624968	0.769084	99
Es	-0.873352	2.307708	-0.189556	99
Es	-2.150604	0.097357	-0.138259	99
Es	-0.381598	2.504143	-0.055467	99
Es	0.360338	-1.454586	-0.973250	99
Es	-2.039340	0.133724	1.058053	99
Es	1.604964	2.178787	0.710846	99
Es	-0.428644	2.042250	0.258133	99
Es	-1.034754	-0.139799	0.370357	99
Es	0.922512	1.510189	0.479242	99
Es	-0.064725	-0.423751	-1.576885	99
Es	1.231740	-2.051197	-1.657340	99
Es	1.799045	1.172492	0.826660	99
Es	0.028167	-0.411606	0.912413	99
Es	-2.005983	-0.922256	0.485390	99
Es	0.189220	-0.724030	-0.956469	99
Es	0.130614	1.387038	0.312639	99
Es	1.199976	1.609677	0.939346	99
Es	-0.250928	1.946307	-0.195201	99
Es	-0.076080	0.649497	0.319128	99
Es	1.024950	-1.770079	-1.015181	99
Es	-0.565363	2.310399	-0.095309	99
Es	-0.293893	-0.084069	0.322533	99
Es	-0.043988	-0.390066	-0.312912	99
Es	-1.809579	-0.204878	0.442921	99
Es	1.295184	-2.094805	-0.408233	99
Es	0.872848	-1.051995	-0.989327	99
