43
Properties=species:S:1:pos:R:3:Z:I:1 energy=-323.9781408157851 field_type=dipole dipole="0.000000 0.000000 0.000000" charge=0
C	-1.809649	-0.204872	0.442917	6
C	-0.293909	-0.084122	0.322587	6
C	0.189291	-0.724132	-0.956523	6
C	1.024891	-1.770002	-1.015182	6
C	0.130461	1.387058	0.312577	6
N	1.397401	1.625068	0.769848	7
O	-0.565609	2.310668	-0.095442	8
H	-2.166469	0.301918	1.347167	1
H	-2.115719	-1.255702	0.502617	1
H	-2.326389	0.248818	-0.411862	1
H	0.161291	-0.566682	1.196028	1
H	-0.177549	-0.290762	-1.887932	1
H	1.415751	-2.245432	-0.121543	1
H	1.327511	-2.181612	-1.974072	1
H	2.067911	0.877168	0.878888	1
H	1.740781	2.572618	0.689927	1
Es	-0.254671	1.962836	-0.189988	99
Es	-0.293893	-0.084068	0.322531	99
Es	0.026485	-0.409136	0.911317	99
Es	-0.076562	0.649857	0.321638	99
Es	0.189202	-0.724047	-0.956461	99
Es	1.165346	1.609404	0.979585	99
Es	-2.041785	0.135851	1.058963	99
Es	-0.418182	2.034921	0.270646	99
Es	1.397397	1.625014	0.769428	99
Es	-0.565430	2.310396	-0.095332	99
Es	-0.064162	-0.424634	-1.576385	99
Es	-0.850949	2.215649	-0.181778	99
Es	-1.809575	-0.204881	0.442920	99
Es	-0.042388	-0.391244	-0.311957	99
Es	0.955007	1.509161	0.453106	99
Es	0.872194	-1.052312	-0.989380	99
Es	-2.148722	0.094633	-0.136634	99
Es	1.612102	2.175247	0.704079	99
Es	1.795458	1.179502	0.819823	99
Es	-1.035123	-0.139940	0.370072	99
Es	-2.006519	-0.922406	0.484025	99
Es	1.293385	-2.092819	-0.408785	99
Es	0.361116	-1.453767	-0.973118	99
Es	0.130606	1.387044	0.312650	99
Es	-0.410209	2.584600	-0.083218	99
Es	1.233019	-2.053365	-1.659208	99
Es	1.024949	-1.770076	-1.015181	99
43
Properties=species:S:1:pos:R:3:Z:I:1 energy=-323.9781408157851 field_type=dipole dipole="0.000000 0.000000 0.000000" charge=0
C	-1.809649	-0.204872	0.442917	6
C	-0.293909	-0.084122	0.322587	6
C	0.189291	-0.724132	-0.956523	6
C	1.024891	-1.770002	-1.015182	6
C	0.130461	1.387058	0.312577	6
N	1.397401	1.625068	0.769848	7
O	-0.565609	2.310668	-0.095442	8
H	-2.166469	0.301918	1.347167	1
H	-2.115719	-1.255702	0.502617	1
H	-2.326389	0.248818	-0.411862	1
H	0.161291	-0.566682	1.196028	1
H	-0.177549	-0.290762	-1.887932	1
H	1.415751	-2.245432	-0.121543	1
H	1.327511	-2.181612	-1.974072	1
H	2.067911	0.877168	0.878888	1
H	1.740781	2.572618	0.689927	1
Es	-2.006212	-0.921403	0.485024	99
Es	0.130616	1.387039	0.312630	99
Es	-0.043331	-0.390779	-0.312624	99
Es	-0.293893	-0.084069	0.322534	99
Es	-2.150171	0.095821	-0.137983	99
Es	0.189217	-0.724033	-0.956467	99
Es	1.186758	1.612498	0.958647	99
Es	1.608420	2.175117	0.704249	99
Es	-1.034882	-0.139903	0.370273	99
Es	-0.860222	2.231207	-0.180697	99
Es	0.933676	1.509598	0.468115	99
Es	-0.420207	2.036969	0.264828	99
Es	0.360790	-1.453949	-0.972938	99
Es	-0.249760	1.959526	-0.195601	99
Es	1.798471	1.174718	0.825272	99
Es	-0.076262	0.649032	0.319935	99
Es	-0.565411	2.310394	-0.095297	99
Es	-2.040651	0.134485	1.058511	99
Es	-0.404329	2.571601	-0.071716	99
Es	-0.065214	-0.424678	-1.576932	99
Es	0.872407	-1.052433	-0.989599	99
Es	0.027642	-0.410224	0.912351	99
Es	1.397427	1.625015	0.769412	99
Es	1.232701	-2.051846	-1.658142	99
Es	-1.809576	-0.204878	0.442921	99
Es	1.295147	-2.093323	-0.408169	99
Es	1.024942	-1.770081	-1.015179	99
43
Properties=species:S:1:pos:R:3:Z:I:1 energy=-323.9781408157851 field_type=dipole dipole="0.000000 0.000000 0.000000" charge=0
C	-1.809649	-0.204872	0.442917	6
C	-0.293909	-0.084122	0.322587	6
C	0.189291	-0.724132	-0.956523	6
C	1.024891	-1.770002	-1.015182	6
C	0.130461	1.387058	0.312577	6
N	1.397401	1.625068	0.769848	7
O	-0.565609	2.310668	-0.095442	8
H	-2.166469	0.301918	1.347167	1
H	-2.115719	-1.255702	0.502617	1
H	-2.326389	0.248818	-0.411862	1
H	0.161291	-0.566682	1.196028	1
H	-0.177549	-0.290762	-1.887932	1
H	1.415751	-2.245432	-0.121543	1
H	1.327511	-2.181612	-1.974072	1
H	2.067911	0.877168	0.878888	1
H	1.740781	2.572618	0.689927	1
Es	-0.565467	2.310304	-0.095327	99
Es	0.130614	1.387039	0.312637	99
Es	-0.293891	-0.084071	0.322532	99
Es	0.924614	1.509948	0.477462	99
Es	-0.873352	2.291876	-0.187505	99
Es	1.197785	1.609742	0.941598	99
Es	-0.251708	1.948952	-0.196545	99
Es	0.189217	-0.724024	-0.956466	99
Es	-0.064797	-0.423909	-1.576917	99
Es	-1.809576	-0.204879	0.442921	99
Es	1.231936	-2.051294	-1.657465	99
Es	-0.383054	2.518769	-0.058442	99
Es	1.024952	-1.770078	-1.015177	99
Es	-2.006156	-0.921900	0.485378	99
Es	-2.150490	0.097015	-0.138298	99
Es	-2.039626	0.133918	1.058118	99
Es	1.295281	-2.094453	-0.408119	99
Es	-0.426336	2.040750	0.260246	99
Es	-1.034643	-0.139897	0.370381	99
Es	1.605117	2.178689	0.710325	99
Es	0.872635	-1.052133	-0.989398	99
Es	-0.043961	-0.390143	-0.312910	99
Es	1.397364	1.624982	0.769209	99
Es	-0.076115	0.649285	0.319246	99
Es	1.799150	1.172850	0.826663	99
Es	0.028136	-0.411428	0.912479	99
Es	0.360468	-1.454492	-0.973270	99
43
Properties=species:S:1:pos:R:3:Z:I:1 energy=-323.9781408157851 field_type=dipole dipole="0.000000 0.000000 0.000000" charge=0
C	-1.809649	-0.204872	0.442917	6
C	-0.293909	-0.084122	0.322587	6
C	0.189291	-0.724132	-0.956523	6
C	1.024891	-1.770002	-1.015182	6
C	0.130461	1.387058	0.312577	6
N	1.397401	1.625068	0.769848	7
O	-0.565609	2.310668	-0.095442	8
H	-2.166469	0.301918	1.347167	1
H	-2.115719	-1.255702	0.502617	1
H	-2.326389	0.248818	-0.411862	1
H	0.161291	-0.566682	1.196028	1
H	-0.177549	-0.290762	-1.887932	1
H	1.415751	-2.245432	-0.121543	1
H	1.327511	-2.181612	-1.974072	1
H	2.067911	0.877168	0.878888	1
H	1.740781	2.572618	0.689927	1
Es	-1.809578	-0.204879	0.442921	99
Es	-2.006176	-0.922859	0.485438	99
Es	1.798588	1.171693	0.826346	99
Es	0.130615	1.387039	0.312635	99
Es	-0.255444	1.939400	-0.196510	99
Es	-0.565420	2.310379	-0.095321	99
Es	-0.857401	2.382081	-0.191401	99
Es	-0.293893	-0.084069	0.322531	99
Es	-2.039240	0.133846	1.057693	99
Es	-0.064510	-0.423590	-1.576615	99
Es	1.603755	2.181127	0.715140	99
Es	0.873425	-1.051497	-0.989500	99
Es	-2.150399	0.097522	-0.137973	99
Es	-0.387709	2.436693	-0.049161	99
Es	0.359934	-1.454979	-0.973200	99
Es	-1.034640	-0.139882	0.370341	99
Es	1.231318	-2.051419	-1.657074	99
Es	0.189219	-0.724030	-0.956467	99
Es	-0.433877	2.042341	0.255228	99
Es	0.905008	1.509819	0.495068	99
Es	-0.043997	-0.389859	-0.312792	99
Es	0.028125	-0.411818	0.912089	99
Es	1.397378	1.625054	0.769842	99
Es	1.218997	1.608612	0.918569	99
Es	-0.075930	0.649882	0.319148	99
Es	1.295000	-2.095107	-0.408437	99
Es	1.024945	-1.770082	-1.015179	99
43
Properties=species:S:1:pos:R:3:Z:I:1 energy=-323.9781408157851 field_type=dipole dipole="0.000000 0.000000 0.000000" charge=0
C	-1.809649	-0.204872	0.442917	6
C	-0.293909	-0.084122	0.322587	6
C	0.189291	-0.724132	-0.956523	6
C	1.024891	-1.770002	-1.015182	6
C	0.130461	1.387058	0.312577	6
N	1.397401	1.625068	0.769848	7
O	-0.565609	2.310668	-0.095442	8
H	-2.166469	0.301918	1.347167	1
H	-2.115719	-1.255702	0.502617	1
H	-2.326389	0.248818	-0.411862	1
H	0.161291	-0.566682	1.196028	1
H	-0.177549	-0.290762	-1.887932	1
H	1.415751	-2.245432	-0.121543	1
H	1.327511	-2.181612	-1.974072	1
H	2.067911	0.877168	0.878888	1
H	1.740781	2.572618	0.689927	1
Es	1.024949	-1.770078	-1.015179	99
Es	-0.044039	-0.389447	-0.312282	99
Es	-0.075060	0.648105	0.318433	99
Es	-2.039853	0.132631	1.057117	99
Es	0.873949	-1.051236	-0.990811	99
Es	0.358822	-1.455609	-0.971989	99
Es	1.244001	1.606925	0.880018	99
Es	0.130614	1.387039	0.312637	99
Es	1.601994	2.181960	0.728024	99
Es	1.297867	-2.092883	-0.408782	99
Es	-0.293894	-0.084069	0.322531	99
Es	-1.035021	-0.139982	0.370553	99
Es	-2.151770	0.097041	-0.137791	99
Es	0.189218	-0.724030	-0.956466	99
Es	0.882152	1.510179	0.517123	99
Es	-1.809578	-0.204879	0.442921	99
Es	-0.226587	1.966180	-0.197943	99
Es	-0.686231	2.579895	-0.158531	99
Es	-0.611866	2.190999	-0.088886	99
Es	-0.565364	2.310400	-0.095301	99
Es	1.232260	-2.050513	-1.656493	99
Es	0.029215	-0.411450	0.911581	99
Es	-0.067111	-0.425513	-1.576354	99
Es	1.799250	1.172740	0.831039	99
Es	-2.006815	-0.920369	0.485576	99
Es	1.397375	1.624968	0.769070	99
Es	-0.410382	2.062415	0.263540	99
43
Properties=species:S:1:pos:R:3:Z:I:1 energy=-323.9781408157851 field_type=dipole dipole="0.000000 0.000000 0.000000" charge=0
C	-1.809649	-0.204872	0.442917	6
C	-0.293909	-0.084122	0.322587	6
C	0.189291	-0.724132	-0.956523	6
C	1.024891	-1.770002	-1.015182	6
C	0.130461	1.387058	0.312577	6
N	1.397401	1.625068	0.769848	7
O	-0.565609	2.310668	-0.095442	8
H	-2.166469	0.301918	1.347167	1
H	-2.115719	-1.255702	0.502617	1
H	-2.326389	0.248818	-0.411862	1
H	0.161291	-0.566682	1.196028	1
H	-0.177549	-0.290762	-1.887932	1
H	1.415751	-2.245432	-0.121543	1
H	1.327511	-2.181612	-1.974072	1
H	2.067911	0.877168	0.878888	1
H	1.740781	2.572618	0.689927	1
Es	1.798393	1.171076	0.828885	99
Es	0.887081	1.509980	0.515505	99
Es	-0.565474	2.310304	-0.095324	99
Es	0.028679	-0.412314	0.911819	99
Es	-0.075766	0.649853	0.318672	99
Es	-1.034653	-0.139917	0.370369	99
Es	-0.249891	1.935964	-0.193409	99
Es	-0.426783	2.363599	-0.052899	99
Es	0.130613	1.387041	0.312635	99
Es	-0.434773	2.048412	0.250345	99
Es	0.873942	-1.051112	-0.989906	99
Es	1.024951	-1.770079	-1.015179	99
Es	-0.044208	-0.389317	-0.312645	99
Es	-0.293893	-0.084069	0.322532	99
Es	-0.823051	2.452657	-0.185438	99
Es	-2.150809	0.097936	-0.137858	99
Es	1.240279	1.606729	0.886982	99
Es	0.359280	-1.455500	-0.972804	99
Es	1.230959	-2.051080	-1.656560	99
Es	1.396939	1.624827	0.768559	99
Es	-2.038959	0.133344	1.057283	99
Es	-2.006307	-0.922796	0.485582	99
Es	-1.809578	-0.204878	0.442921	99
Es	-0.064998	-0.423719	-1.576422	99
Es	1.601089	2.183637	0.724908	99
Es	0.189219	-0.724030	-0.956468	99
Es	1.295816	-2.095129	-0.408727	99
43
Properties=species:S:1:pos:R:3:Z:I:1 energy=-323.9781408157851 field_type=dipole dipole="0.000000 0.000000 0.000000" charge=0
C	-1.809649	-0.204872	0.442917	6
C	-0.293909	-0.084122	0.322587	6
C	0.189291	-0.724132	-0.956523	6
C	1.024891	-1.770002	-1.015182	6
C	0.130461	1.387058	0.312577	6
N	1.397401	1.625068	0.769848	7
O	-0.565609	2.310668	-0.095442	8
H	-2.166469	0.301918	1.347167	1
H	-2.115719	-1.255702	0.502617	1
H	-2.326389	0.248818	-0.411862	1
H	0.161291	-0.566682	1.196028	1
H	-0.177549	-0.290762	-1.887932	1
H	1.415751	-2.245432	-0.121543	1
H	1.327511	-2.181612	-1.974072	1
H	2.067911	0.877168	0.878888	1
H	1.740781	2.572618	0.689927	1
Es	-0.044211	-0.389182	-0.312477	99
Es	-0.293892	-0.084070	0.322531	99
Es	-0.065398	-0.423943	-1.576387	99
Es	-2.006625	-0.922362	0.485759	99
Es	-0.075492	0.649668	0.318556	99
Es	0.028859	-0.412380	0.911659	99
Es	1.798626	1.171209	0.829511	99
Es	0.130614	1.387040	0.312633	99
Es	-1.809578	-0.204878	0.442920	99
Es	0.189218	-0.724031	-0.956467	99
Es	-0.247672	1.936994	-0.193670	99
Es	-0.805541	2.478014	-0.180841	99
Es	1.296258	-2.094976	-0.408724	99
Es	-1.034633	-0.140204	0.370335	99
Es	1.230908	-2.050932	-1.656186	99
Es	0.359068	-1.455616	-0.972685	99
Es	-0.449413	2.335723	-0.057634	99
Es	0.874229	-1.050933	-0.990238	99
Es	-2.151180	0.098149	-0.137798	99
Es	1.245782	1.605655	0.874502	99
Es	0.881987	1.510418	0.521382	99
Es	-0.565256	2.309577	-0.095128	99
Es	-2.038764	0.132993	1.056973	99
Es	1.024952	-1.770082	-1.015195	99
Es	1.599988	2.183992	0.729887	99
Es	1.397452	1.625030	0.769541	99
Es	-0.432192	2.050546	0.250599	99
43
Properties=species:S:1:pos:R:3:Z:I:1 energy=-323.9781408157851 field_type=dipole dipole="0.000000 0.000000 0.000000" charge=0
C	-1.809649	-0.204872	0.442917	6
C	-0.293909	-0.084122	0.322587	6
C	0.189291	-0.724132	-0.956523	6
C	1.024891	-1.770002	-1.015182	6
C	0.130461	1.387058	0.312577	6
N	1.397401	1.625068	0.769848	7
O	-0.565609	2.310668	-0.095442	8
H	-2.166469	0.301918	1.347167	1
H	-2.115719	-1.255702	0.502617	1
H	-2.326389	0.248818	-0.411862	1
H	0.161291	-0.566682	1.196028	1
H	-0.177549	-0.290762	-1.887932	1
H	1.415751	-2.245432	-0.121543	1
H	1.327511	-2.181612	-1.974072	1
H	2.067911	0.877168	0.878888	1
H	1.740781	2.572618	0.689927	1
Es	0.130615	1.387039	0.312632	99
Es	1.024952	-1.770077	-1.015185	99
Es	0.874053	-1.051090	-0.990196	99
Es	1.598987	2.184325	0.732585	99
Es	1.798568	1.170994	0.830357	99
Es	-2.038641	0.132624	1.057048	99
Es	-0.800098	2.485248	-0.179455	99
Es	-1.809577	-0.204878	0.442922	99
Es	1.296641	-2.095197	-0.408794	99
Es	-0.431717	2.052825	0.248921	99
Es	-0.457353	2.325974	-0.059065	99
Es	-1.034593	-0.139947	0.370456	99
Es	-0.065504	-0.423972	-1.576488	99
Es	0.359183	-1.455528	-0.972542	99
Es	-0.075483	0.649406	0.318384	99
Es	-0.293893	-0.084066	0.322531	99
Es	-2.006409	-0.922248	0.485670	99
Es	-0.565522	2.310251	-0.095325	99
Es	0.878589	1.510688	0.526714	99
Es	-2.151422	0.098413	-0.137875	99
Es	-0.245412	1.936668	-0.191547	99
Es	-0.044429	-0.388960	-0.312618	99
Es	1.397402	1.624980	0.769141	99
Es	1.250145	1.605217	0.865976	99
Es	0.029108	-0.412659	0.911737	99
Es	1.230685	-2.050579	-1.656159	99
Es	0.189219	-0.724030	-0.956467	99
43
Properties=species:S:1:pos:R:3:Z:I:1 energy=-323.9781408157851 field_type=dipole dipole="0.000000 0.000000 0.000000" charge=0
C	-1.809649	-0.204872	0.442917	6
C	-0.293909	-0.084122	0.322587	6
C	0.189291	-0.724132	-0.956523	6
C	1.024891	-1.770002	-1.015182	6
C	0.130461	1.387058	0.312577	6
N	1.397401	1.625068	0.769848	7
O	-0.565609	2.310668	-0.095442	8
H	-2.166469	0.301918	1.347167	1
H	-2.115719	-1.255702	0.502617	1
H	-2.326389	0.248818	-0.411862	1
H	0.161291	-0.566682	1.196028	1
H	-0.177549	-0.290762	-1.887932	1
H	1.415751	-2.245432	-0.121543	1
H	1.327511	-2.181612	-1.974072	1
H	2.067911	0.877168	0.878888	1
H	1.740781	2.572618	0.689927	1
Es	1.598336	2.184377	0.733720	99
Es	-0.044522	-0.388869	-0.312594	99
Es	-1.809580	-0.204876	0.442920	99
Es	0.189219	-0.724030	-0.956470	99
Es	1.252009	1.605018	0.862753	99
Es	1.230736	-2.050303	-1.656111	99
Es	-2.151676	0.098577	-0.137918	99
Es	-0.293893	-0.084069	0.322532	99
Es	1.296958	-2.095173	-0.408814	99
Es	-0.242851	1.933513	-0.186148	99
Es	1.397282	1.624928	0.768859	99
Es	-2.006560	-0.921948	0.485857	99
Es	0.873825	-1.051135	-0.990124	99
Es	0.130615	1.387039	0.312633	99
Es	-0.792181	2.494582	-0.178400	99
Es	0.029302	-0.412837	0.911737	99
Es	-0.430453	2.059394	0.245654	99
Es	-0.065660	-0.423933	-1.576489	99
Es	1.024952	-1.770077	-1.015179	99
Es	-1.034539	-0.140111	0.370406	99
Es	1.798832	1.171121	0.830398	99
Es	0.359182	-1.455677	-0.972586	99
Es	-0.565469	2.310286	-0.095328	99
Es	0.877198	1.510691	0.529042	99
Es	-0.469156	2.313237	-0.062194	99
Es	-2.038371	0.132467	1.056927	99
Es	-0.075439	0.649227	0.318274	99
43
Properties=species:S:1:pos:R:3:Z:I:1 energy=-323.9781408157851 field_type=dipole dipole="0.000000 0.000000 0.000000" charge=0
C	-1.809649	-0.204872	0.442917	6
C	-0.293909	-0.084122	0.322587	6
C	0.189291	-0.724132	-0.956523	6
C	1.024891	-1.770002	-1.015182	6
C	0.130461	1.387058	0.312577	6
N	1.397401	1.625068	0.769848	7
O	-0.565609	2.310668	-0.095442	8
H	-2.166469	0.301918	1.347167	1
H	-2.115719	-1.255702	0.502617	1
H	-2.326389	0.248818	-0.411862	1
H	0.161291	-0.566682	1.196028	1
H	-0.177549	-0.290762	-1.887932	1
H	1.415751	-2.245432	-0.121543	1
H	1.327511	-2.181612	-1.974072	1
H	2.067911	0.877168	0.878888	1
H	1.740781	2.572618	0.689927	1
Es	-2.038349	0.132210	1.056715	99
Es	-0.239162	1.934586	-0.183842	99
Es	1.297328	-2.095332	-0.408915	99
Es	-1.809578	-0.204879	0.442921	99
Es	-0.044739	-0.388572	-0.312533	99
Es	-0.065843	-0.424039	-1.576469	99
Es	0.029556	-0.413141	0.911637	99
Es	1.230665	-2.049907	-1.655797	99
Es	-0.481458	2.300877	-0.064135	99
Es	-0.293893	-0.084069	0.322532	99
Es	-0.430002	2.060856	0.242189	99
Es	0.130615	1.387039	0.312635	99
Es	-0.075311	0.649043	0.318105	99
Es	-2.006611	-0.921770	0.485930	99
Es	-2.151897	0.098673	-0.137881	99
Es	0.358935	-1.455743	-0.972562	99
Es	1.024950	-1.770079	-1.015179	99
Es	-1.034538	-0.139912	0.370442	99
Es	-0.565604	2.310063	-0.095325	99
Es	-0.783927	2.504647	-0.175194	99
Es	0.874036	-1.051110	-0.990242	99
Es	1.798993	1.171242	0.830562	99
Es	0.878440	1.510805	0.526678	99
Es	1.250890	1.604764	0.863072	99
Es	1.397406	1.624978	0.769115	99
Es	1.597975	2.184219	0.735366	99
Es	0.189217	-0.724031	-0.956468	99
