37
Properties=species:S:1:pos:R:3:Z:I:1 energy=-321.6001521534884 field_type=dipole dipole="0.000000 0.000000 0.000000" charge=0
C	-1.634282	0.494262	0.602234	6
C	-0.306722	0.487712	0.385314	6
C	0.474128	-0.789018	0.236244	6
C	0.961478	-0.997508	-1.183006	6
O	0.506388	-0.432738	-2.172146	8
C	0.407378	1.724362	0.329054	6
N	1.008978	2.716922	0.316294	7
H	-2.187282	1.423652	0.716744	1
H	-2.208512	-0.425208	0.657174	1
H	-0.118362	-1.668468	0.512374	1
H	1.351068	-0.767388	0.893734	1
H	1.745738	-1.766578	-1.294016	1
Es	-2.015860	-0.125262	0.640730	99
Es	0.474109	-0.788965	0.236200	99
Es	0.077150	-1.370715	0.401645	99
Es	-0.306517	0.487805	0.385285	99
Es	0.713949	-0.873567	-0.462358	99
Es	1.498051	-1.524572	-1.240936	99
Es	0.758371	2.234168	0.021076	99
Es	0.285087	-0.226954	-2.095392	99
Es	-2.005222	1.111987	0.679790	99
Es	0.500445	-0.817777	-1.831733	99
Es	-0.977001	0.520231	0.181197	99
Es	0.407210	1.724083	0.329053	99
Es	1.198025	3.031240	0.312519	99
Es	0.848021	-0.461767	-1.781395	99
Es	0.639593	-0.525862	-2.437677	99
Es	0.088030	-0.133833	0.305158	99
Es	0.961457	-0.997484	-1.182967	99
Es	1.008730	2.716511	0.316302	99
Es	-0.871807	0.502527	0.810345	99
Es	-1.634332	0.494258	0.602244	99
Es	0.487266	2.406135	0.442493	99
Es	0.941289	2.133340	0.506674	99
Es	0.506530	-0.432932	-2.171859	99
Es	0.075462	1.132335	0.347780	99
Es	1.059329	-0.771354	0.664784	99
37
Properties=species:S:1:pos:R:3:Z:I:1 energy=-321.6001521534884 field_type=dipole dipole="0.000000 0.000000 0.000000" charge=0
C	-1.634282	0.494262	0.602234	6
C	-0.306722	0.487712	0.385314	6
C	0.474128	-0.789018	0.236244	6
C	0.961478	-0.997508	-1.183006	6
O	0.506388	-0.432738	-2.172146	8
C	0.407378	1.724362	0.329054	6
N	1.008978	2.716922	0.316294	7
H	-2.187282	1.423652	0.716744	1
H	-2.208512	-0.425208	0.657174	1
H	-0.118362	-1.668468	0.512374	1
H	1.351068	-0.767388	0.893734	1
H	1.745738	-1.766578	-1.294016	1
Es	0.075979	-1.372081	0.401504	99
Es	-2.016661	-0.125951	0.640714	99
Es	0.474111	-0.788967	0.236201	99
Es	-0.871791	0.503062	0.809899	99
Es	1.201694	3.030417	0.310743	99
Es	0.407196	1.724072	0.329059	99
Es	-0.977076	0.519672	0.181465	99
Es	1.060136	-0.770462	0.664421	99
Es	0.713401	-0.873198	-0.461245	99
Es	0.498671	-0.820720	-1.832108	99
Es	0.074569	1.133513	0.348744	99
Es	-1.634331	0.494257	0.602248	99
Es	0.641093	-0.526800	-2.431121	99
Es	0.961453	-0.997488	-1.182968	99
Es	-0.306526	0.487807	0.385277	99
Es	-2.004521	1.111448	0.678753	99
Es	0.506532	-0.432918	-2.171835	99
Es	1.008733	2.716517	0.316301	99
Es	0.849602	-0.458000	-1.780489	99
Es	0.666815	2.287869	0.029094	99
Es	0.284076	-0.226482	-2.102445	99
Es	0.088277	-0.133765	0.305412	99
Es	0.536289	2.378667	0.525221	99
Es	0.981641	2.107474	0.416828	99
Es	1.498006	-1.524367	-1.240716	99
37
Properties=species:S:1:pos:R:3:Z:I:1 energy=-321.6001521534884 field_type=dipole dipole="0.000000 0.000000 0.000000" charge=0
C	-1.634282	0.494262	0.602234	6
C	-0.306722	0.487712	0.385314	6
C	0.474128	-0.789018	0.236244	6
C	0.961478	-0.997508	-1.183006	6
O	0.506388	-0.432738	-2.172146	8
C	0.407378	1.724362	0.329054	6
N	1.008978	2.716922	0.316294	7
H	-2.187282	1.423652	0.716744	1
H	-2.208512	-0.425208	0.657174	1
H	-0.118362	-1.668468	0.512374	1
H	1.351068	-0.767388	0.893734	1
H	1.745738	-1.766578	-1.294016	1
Es	1.498109	-1.524165	-1.240525	99
Es	-2.017301	-0.126391	0.640718	99
Es	0.639050	-0.525255	-2.428609	99
Es	0.075075	-1.373049	0.401560	99
Es	0.506498	-0.432897	-2.171854	99
Es	0.407198	1.724074	0.329064	99
Es	1.008732	2.716514	0.316301	99
Es	0.712840	-0.872835	-0.460485	99
Es	-1.634335	0.494256	0.602246	99
Es	0.961459	-0.997481	-1.182967	99
Es	0.495254	-0.823443	-1.832850	99
Es	1.060871	-0.769839	0.663821	99
Es	1.205623	3.029014	0.309795	99
Es	0.673013	2.296051	0.614461	99
Es	-0.977350	0.519026	0.181567	99
Es	0.852226	-0.458069	-1.781343	99
Es	-2.003931	1.110928	0.677884	99
Es	0.286888	-0.225134	-2.103238	99
Es	0.088561	-0.133577	0.305885	99
Es	0.074373	1.134288	0.349941	99
Es	0.979376	2.105763	0.237978	99
Es	0.474109	-0.788967	0.236199	99
Es	0.529169	2.373360	0.118642	99
Es	-0.871616	0.503595	0.809486	99
Es	-0.306522	0.487806	0.385281	99
37
Properties=species:S:1:pos:R:3:Z:I:1 energy=-321.6001521534884 field_type=dipole dipole="0.000000 0.000000 0.000000" charge=0
C	-1.634282	0.494262	0.602234	6
C	-0.306722	0.487712	0.385314	6
C	0.474128	-0.789018	0.236244	6
C	0.961478	-0.997508	-1.183006	6
O	0.506388	-0.432738	-2.172146	8
C	0.407378	1.724362	0.329054	6
N	1.008978	2.716922	0.316294	7
H	-2.187282	1.423652	0.716744	1
H	-2.208512	-0.425208	0.657174	1
H	-0.118362	-1.668468	0.512374	1
H	1.351068	-0.767388	0.893734	1
H	1.745738	-1.766578	-1.294016	1
Es	1.498047	-1.524033	-1.240369	99
Es	-1.634335	0.494256	0.602247	99
Es	-0.977306	0.518650	0.181317	99
Es	0.074296	-1.373597	0.401567	99
Es	0.490601	2.406299	0.441345	99
Es	-0.871948	0.503993	0.809380	99
Es	0.854164	-0.455455	-1.781398	99
Es	0.712071	-0.872775	-0.459876	99
Es	1.008733	2.716517	0.316302	99
Es	1.206296	3.029361	0.306654	99
Es	0.944806	2.128519	0.499586	99
Es	0.474110	-0.788967	0.236200	99
Es	0.494905	-0.826182	-1.834083	99
Es	0.747173	2.239020	0.033024	99
Es	0.407190	1.724078	0.329056	99
Es	-0.306520	0.487805	0.385302	99
Es	-2.017847	-0.126698	0.640815	99
Es	0.961453	-0.997490	-1.182964	99
Es	1.061610	-0.769372	0.663408	99
Es	0.285676	-0.224974	-2.107630	99
Es	0.088879	-0.133355	0.306355	99
Es	0.506586	-0.432952	-2.171865	99
Es	0.073236	1.135482	0.350155	99
Es	-2.003379	1.110391	0.677264	99
Es	0.638870	-0.524945	-2.422832	99
37
Properties=species:S:1:pos:R:3:Z:I:1 energy=-321.6001521534884 field_type=dipole dipole="0.000000 0.000000 0.000000" charge=0
C	-1.634282	0.494262	0.602234	6
C	-0.306722	0.487712	0.385314	6
C	0.474128	-0.789018	0.236244	6
C	0.961478	-0.997508	-1.183006	6
O	0.506388	-0.432738	-2.172146	8
C	0.407378	1.724362	0.329054	6
N	1.008978	2.716922	0.316294	7
H	-2.187282	1.423652	0.716744	1
H	-2.208512	-0.425208	0.657174	1
H	-0.118362	-1.668468	0.512374	1
H	1.351068	-0.767388	0.893734	1
H	1.745738	-1.766578	-1.294016	1
Es	0.088965	-0.133203	0.306612	99
Es	1.008731	2.716515	0.316302	99
Es	0.407171	1.724091	0.329065	99
Es	1.062022	-0.768874	0.663090	99
Es	-2.018294	-0.126898	0.641062	99
Es	0.588256	2.349205	0.565069	99
Es	0.073005	1.136025	0.351416	99
Es	0.855442	-0.453331	-1.780800	99
Es	0.493191	-0.828019	-1.834924	99
Es	0.285753	-0.224722	-2.112072	99
Es	-2.002879	1.110010	0.676998	99
Es	0.989541	2.099666	0.351305	99
Es	0.961452	-0.997485	-1.182970	99
Es	1.208309	3.028645	0.306371	99
Es	0.506525	-0.432907	-2.171861	99
Es	0.073760	-1.374239	0.401433	99
Es	1.498079	-1.523863	-1.240268	99
Es	-0.306522	0.487806	0.385295	99
Es	0.711758	-0.872736	-0.459158	99
Es	-0.977050	0.518311	0.180914	99
Es	-0.872247	0.504190	0.808947	99
Es	-1.634335	0.494256	0.602244	99
Es	0.474108	-0.788965	0.236200	99
Es	0.639360	-0.525331	-2.417979	99
Es	0.603266	2.325427	0.056667	99
37
Properties=species:S:1:pos:R:3:Z:I:1 energy=-321.6001521534884 field_type=dipole dipole="0.000000 0.000000 0.000000" charge=0
C	-1.634282	0.494262	0.602234	6
C	-0.306722	0.487712	0.385314	6
C	0.474128	-0.789018	0.236244	6
C	0.961478	-0.997508	-1.183006	6
O	0.506388	-0.432738	-2.172146	8
C	0.407378	1.724362	0.329054	6
N	1.008978	2.716922	0.316294	7
H	-2.187282	1.423652	0.716744	1
H	-2.208512	-0.425208	0.657174	1
H	-0.118362	-1.668468	0.512374	1
H	1.351068	-0.767388	0.893734	1
H	1.745738	-1.766578	-1.294016	1
Es	-0.306523	0.487801	0.385291	99
Es	0.711055	-0.872785	-0.458756	99
Es	-0.872014	0.504646	0.808770	99
Es	1.210906	3.027215	0.305705	99
Es	0.648123	2.312732	0.596431	99
Es	0.961452	-0.997485	-1.182970	99
Es	-2.002426	1.109633	0.676469	99
Es	0.506406	-0.432810	-2.171675	99
Es	0.546882	2.360884	0.097366	99
Es	0.072999	1.136422	0.352171	99
Es	1.062609	-0.768420	0.662722	99
Es	0.983757	2.101964	0.279077	99
Es	0.286400	-0.226017	-2.111152	99
Es	-1.634333	0.494257	0.602242	99
Es	0.073241	-1.374583	0.401507	99
Es	0.407188	1.724072	0.329071	99
Es	1.008732	2.716515	0.316301	99
Es	0.857445	-0.451798	-1.781781	99
Es	-0.977308	0.517884	0.181193	99
Es	1.497935	-1.523940	-1.240118	99
Es	0.637119	-0.523635	-2.417362	99
Es	-2.018737	-0.127046	0.641096	99
Es	0.493260	-0.829651	-1.835518	99
Es	0.474109	-0.788967	0.236200	99
Es	0.089089	-0.133310	0.306677	99
37
Properties=species:S:1:pos:R:3:Z:I:1 energy=-321.6001521534884 field_type=dipole dipole="0.000000 0.000000 0.000000" charge=0
C	-1.634282	0.494262	0.602234	6
C	-0.306722	0.487712	0.385314	6
C	0.474128	-0.789018	0.236244	6
C	0.961478	-0.997508	-1.183006	6
O	0.506388	-0.432738	-2.172146	8
C	0.407378	1.724362	0.329054	6
N	1.008978	2.716922	0.316294	7
H	-2.187282	1.423652	0.716744	1
H	-2.208512	-0.425208	0.657174	1
H	-0.118362	-1.668468	0.512374	1
H	1.351068	-0.767388	0.893734	1
H	1.745738	-1.766578	-1.294016	1
Es	-2.002046	1.109108	0.676391	99
Es	0.490469	-0.830673	-1.835514	99
Es	-0.306519	0.487806	0.385292	99
Es	1.498049	-1.523685	-1.240050	99
Es	1.062810	-0.768059	0.662573	99
Es	-0.872263	0.504914	0.808883	99
Es	0.072870	-1.374925	0.401422	99
Es	0.287287	-0.224403	-2.116528	99
Es	0.089046	-0.133342	0.306546	99
Es	0.463943	2.419007	0.301045	99
Es	1.008731	2.716513	0.316302	99
Es	1.212691	3.026088	0.301568	99
Es	0.474108	-0.788970	0.236199	99
Es	0.855852	2.175843	0.090301	99
Es	-0.977285	0.518064	0.180972	99
Es	0.407186	1.724071	0.329058	99
Es	0.857731	2.181587	0.586516	99
Es	0.858872	-0.450546	-1.781874	99
Es	-1.634335	0.494258	0.602248	99
Es	0.710931	-0.872703	-0.458438	99
Es	0.072914	1.136605	0.351231	99
Es	0.961453	-0.997488	-1.182968	99
Es	0.506502	-0.432884	-2.171889	99
Es	0.637419	-0.525423	-2.411563	99
Es	-2.019049	-0.127187	0.641232	99
37
Properties=species:S:1:pos:R:3:Z:I:1 energy=-321.6001521534884 field_type=dipole dipole="0.000000 0.000000 0.000000" charge=0
C	-1.634282	0.494262	0.602234	6
C	-0.306722	0.487712	0.385314	6
C	0.474128	-0.789018	0.236244	6
C	0.961478	-0.997508	-1.183006	6
O	0.506388	-0.432738	-2.172146	8
C	0.407378	1.724362	0.329054	6
N	1.008978	2.716922	0.316294	7
H	-2.187282	1.423652	0.716744	1
H	-2.208512	-0.425208	0.657174	1
H	-0.118362	-1.668468	0.512374	1
H	1.351068	-0.767388	0.893734	1
H	1.745738	-1.766578	-1.294016	1
Es	0.073059	1.136880	0.352446	99
Es	-2.019424	-0.127218	0.641343	99
Es	0.637176	-0.527555	-2.404892	99
Es	1.497859	-1.523804	-1.239973	99
Es	0.286798	-0.222394	-2.122240	99
Es	0.072298	-1.375251	0.401349	99
Es	-1.634336	0.494256	0.602243	99
Es	0.489593	-0.831195	-1.835329	99
Es	1.214804	3.024935	0.302953	99
Es	0.407182	1.724076	0.329083	99
Es	1.063310	-0.767775	0.662178	99
Es	-0.872235	0.505121	0.808897	99
Es	0.950157	2.121094	0.194586	99
Es	1.008729	2.716512	0.316301	99
Es	0.961454	-0.997491	-1.182973	99
Es	0.728324	2.262743	0.614879	99
Es	0.497011	2.393688	0.165586	99
Es	0.089233	-0.133053	0.306654	99
Es	0.506534	-0.432919	-2.171848	99
Es	-0.977252	0.517409	0.180994	99
Es	-0.306516	0.487807	0.385291	99
Es	0.710314	-0.872767	-0.457775	99
Es	0.474109	-0.788967	0.236199	99
Es	0.860846	-0.449433	-1.782887	99
Es	-2.001658	1.108876	0.675892	99
37
Properties=species:S:1:pos:R:3:Z:I:1 energy=-321.6001521534884 field_type=dipole dipole="0.000000 0.000000 0.000000" charge=0
C	-1.634282	0.494262	0.602234	6
C	-0.306722	0.487712	0.385314	6
C	0.474128	-0.789018	0.236244	6
C	0.961478	-0.997508	-1.183006	6
O	0.506388	-0.432738	-2.172146	8
C	0.407378	1.724362	0.329054	6
N	1.008978	2.716922	0.316294	7
H	-2.187282	1.423652	0.716744	1
H	-2.208512	-0.425208	0.657174	1
H	-0.118362	-1.668468	0.512374	1
H	1.351068	-0.767388	0.893734	1
H	1.745738	-1.766578	-1.294016	1
Es	0.071482	1.138332	0.352399	99
Es	0.862201	-0.448632	-1.783192	99
Es	-2.019824	-0.127222	0.641421	99
Es	0.488566	-0.832274	-1.836042	99
Es	-1.634336	0.494256	0.602246	99
Es	0.407172	1.724084	0.329066	99
Es	1.497945	-1.523583	-1.239840	99
Es	0.506465	-0.432868	-2.171826	99
Es	1.212626	3.026663	0.300555	99
Es	0.961447	-0.997487	-1.182975	99
Es	0.709967	-0.872702	-0.457532	99
Es	0.967278	2.112512	0.449270	99
Es	0.287415	-0.222477	-2.123553	99
Es	0.474109	-0.788965	0.236200	99
Es	1.008733	2.716516	0.316302	99
Es	0.689960	2.271979	0.039291	99
Es	-2.001233	1.108379	0.675558	99
Es	-0.872352	0.505454	0.808958	99
Es	0.071907	-1.375417	0.401308	99
Es	0.089347	-0.133091	0.307049	99
Es	0.636290	-0.527259	-2.402481	99
Es	-0.977214	0.517129	0.180657	99
Es	-0.306516	0.487806	0.385293	99
Es	0.522266	2.389883	0.488802	99
Es	1.063666	-0.767440	0.662024	99
37
Properties=species:S:1:pos:R:3:Z:I:1 energy=-321.6001521534884 field_type=dipole dipole="0.000000 0.000000 0.000000" charge=0
C	-1.634282	0.494262	0.602234	6
C	-0.306722	0.487712	0.385314	6
C	0.474128	-0.789018	0.236244	6
C	0.961478	-0.997508	-1.183006	6
O	0.506388	-0.432738	-2.172146	8
C	0.407378	1.724362	0.329054	6
N	1.008978	2.716922	0.316294	7
H	-2.187282	1.423652	0.716744	1
H	-2.208512	-0.425208	0.657174	1
H	-0.118362	-1.668468	0.512374	1
H	1.351068	-0.767388	0.893734	1
H	1.745738	-1.766578	-1.294016	1
Es	0.862994	-0.448348	-1.783387	99
Es	0.407182	1.724072	0.329075	99
Es	1.063931	-0.767303	0.661521	99
Es	0.287156	-0.222106	-2.124303	99
Es	0.072706	1.137534	0.352510	99
Es	1.217241	3.023309	0.299841	99
Es	-2.020048	-0.127298	0.641496	99
Es	0.773587	2.234327	0.612696	99
Es	-0.872313	0.505606	0.808834	99
Es	-0.306515	0.487806	0.385294	99
Es	0.089320	-0.132930	0.306954	99
Es	0.961447	-0.997486	-1.182977	99
Es	0.479318	2.406020	0.208348	99
Es	-2.000962	1.108252	0.675383	99
Es	0.709608	-0.872767	-0.457098	99
Es	-1.634336	0.494256	0.602246	99
Es	0.920881	2.138307	0.156777	99
Es	1.008730	2.716512	0.316300	99
Es	0.506531	-0.432887	-2.171839	99
Es	-0.977266	0.516946	0.181036	99
Es	0.635877	-0.526679	-2.400381	99
Es	0.474108	-0.788966	0.236200	99
Es	0.071780	-1.375763	0.401300	99
Es	1.497870	-1.523605	-1.239866	99
Es	0.488542	-0.833234	-1.837002	99
