37
Properties=species:S:1:pos:R:3:Z:I:1 energy=-321.6001521534884 field_type=dipole dipole="0.000000 0.000000 0.000000" charge=0
C	-1.634282	0.494262	0.602234	6
C	-0.306722	0.487712	0.385314	6
C	0.474128	-0.789018	0.236244	6
C	0.961478	-0.997508	-1.183006	6
O	0.506388	-0.432738	-2.172146	8
C	0.407378	1.724362	0.329054	6
N	1.008978	2.716922	0.316294	7
H	-2.187282	1.423652	0.716744	1
H	-2.208512	-0.425208	0.657174	1
H	-0.118362	-1.668468	0.512374	1
H	1.351068	-0.767388	0.893734	1
H	1.745738	-1.766578	-1.294016	1
Es	0.713890	-0.873560	-0.462318	99
Es	0.872895	2.174126	0.579352	99
Es	-0.976937	0.520257	0.181056	99
Es	-2.015839	-0.125282	0.640711	99
Es	0.847931	-0.460545	-1.780084	99
Es	1.498055	-1.524572	-1.240910	99
Es	0.500208	-0.817032	-1.831763	99
Es	0.077052	-1.370678	0.401501	99
Es	-2.005252	1.111940	0.679750	99
Es	1.008732	2.716514	0.316301	99
Es	0.506499	-0.432883	-2.171879	99
Es	0.474109	-0.788966	0.236198	99
Es	0.640711	-0.527268	-2.436652	99
Es	1.198548	3.030965	0.312720	99
Es	0.075474	1.132317	0.347608	99
Es	0.284365	-0.227525	-2.097674	99
Es	1.059385	-0.771464	0.664866	99
Es	0.407201	1.724064	0.329055	99
Es	0.961454	-0.997487	-1.182968	99
Es	0.088082	-0.133784	0.305302	99
Es	-1.634333	0.494253	0.602247	99
Es	0.847536	2.182505	0.051390	99
Es	-0.871927	0.502598	0.810345	99
Es	0.466054	2.417276	0.339533	99
Es	-0.306525	0.487804	0.385271	99
37
Properties=species:S:1:pos:R:3:Z:I:1 energy=-321.6001521534884 field_type=dipole dipole="0.000000 0.000000 0.000000" charge=0
C	-1.634282	0.494262	0.602234	6
C	-0.306722	0.487712	0.385314	6
C	0.474128	-0.789018	0.236244	6
C	0.961478	-0.997508	-1.183006	6
O	0.506388	-0.432738	-2.172146	8
C	0.407378	1.724362	0.329054	6
N	1.008978	2.716922	0.316294	7
H	-2.187282	1.423652	0.716744	1
H	-2.208512	-0.425208	0.657174	1
H	-0.118362	-1.668468	0.512374	1
H	1.351068	-0.767388	0.893734	1
H	1.745738	-1.766578	-1.294016	1
Es	-1.634335	0.494256	0.602242	99
Es	-2.018350	-0.126877	0.640933	99
Es	0.474107	-0.788962	0.236201	99
Es	1.498026	-1.523958	-1.240323	99
Es	-2.002860	1.110037	0.676798	99
Es	0.983739	2.102317	0.272285	99
Es	0.286070	-0.224593	-2.111248	99
Es	0.506532	-0.432913	-2.171873	99
Es	0.073407	1.135795	0.351366	99
Es	0.493294	-0.827967	-1.834717	99
Es	-0.306519	0.487805	0.385296	99
Es	1.209361	3.027927	0.306662	99
Es	-0.977326	0.518206	0.181441	99
Es	0.073777	-1.374248	0.401551	99
Es	0.711758	-0.872781	-0.459274	99
Es	0.088905	-0.133322	0.306399	99
Es	-0.871864	0.504295	0.809128	99
Es	0.544134	2.362810	0.100118	99
Es	0.961453	-0.997484	-1.182970	99
Es	0.651741	2.310186	0.600291	99
Es	0.638631	-0.525109	-2.418392	99
Es	0.855852	-0.453583	-1.781367	99
Es	0.407188	1.724076	0.329066	99
Es	1.008729	2.716511	0.316302	99
Es	1.061917	-0.768848	0.663044	99
37
Properties=species:S:1:pos:R:3:Z:I:1 energy=-321.6001521534884 field_type=dipole dipole="0.000000 0.000000 0.000000" charge=0
C	-1.634282	0.494262	0.602234	6
C	-0.306722	0.487712	0.385314	6
C	0.474128	-0.789018	0.236244	6
C	0.961478	-0.997508	-1.183006	6
O	0.506388	-0.432738	-2.172146	8
C	0.407378	1.724362	0.329054	6
N	1.008978	2.716922	0.316294	7
H	-2.187282	1.423652	0.716744	1
H	-2.208512	-0.425208	0.657174	1
H	-0.118362	-1.668468	0.512374	1
H	1.351068	-0.767388	0.893734	1
H	1.745738	-1.766578	-1.294016	1
Es	-0.872320	0.505443	0.809023	99
Es	-0.306515	0.487802	0.385303	99
Es	-1.634333	0.494257	0.602247	99
Es	0.089307	-0.132962	0.306865	99
Es	-2.019758	-0.127269	0.641431	99
Es	1.215284	3.024821	0.302672	99
Es	0.683109	2.291478	0.603244	99
Es	0.488492	-0.832310	-1.835406	99
Es	0.520976	2.377350	0.127331	99
Es	-2.001283	1.108391	0.675641	99
Es	0.474109	-0.788968	0.236200	99
Es	0.407180	1.724074	0.329076	99
Es	1.063481	-0.767509	0.661896	99
Es	0.071977	-1.375402	0.401529	99
Es	0.506631	-0.433003	-2.171901	99
Es	0.072711	1.137411	0.353062	99
Es	0.710020	-0.872857	-0.457653	99
Es	0.961456	-0.997475	-1.182977	99
Es	1.008733	2.716516	0.316301	99
Es	1.497849	-1.523666	-1.239874	99
Es	0.287301	-0.222286	-2.125548	99
Es	0.637155	-0.527895	-2.401160	99
Es	0.861495	-0.447932	-1.783091	99
Es	-0.977194	0.517248	0.180779	99
Es	0.971506	2.108318	0.243968	99
37
Properties=species:S:1:pos:R:3:Z:I:1 energy=-321.6001521534884 field_type=dipole dipole="0.000000 0.000000 0.000000" charge=0
C	-1.634282	0.494262	0.602234	6
C	-0.306722	0.487712	0.385314	6
C	0.474128	-0.789018	0.236244	6
C	0.961478	-0.997508	-1.183006	6
O	0.506388	-0.432738	-2.172146	8
C	0.407378	1.724362	0.329054	6
N	1.008978	2.716922	0.316294	7
H	-2.187282	1.423652	0.716744	1
H	-2.208512	-0.425208	0.657174	1
H	-0.118362	-1.668468	0.512374	1
H	1.351068	-0.767388	0.893734	1
H	1.745738	-1.766578	-1.294016	1
Es	0.407169	1.724079	0.329081	99
Es	1.008733	2.716515	0.316301	99
Es	0.474109	-0.788967	0.236200	99
Es	1.064739	-0.766623	0.660956	99
Es	-1.634339	0.494258	0.602243	99
Es	0.708509	-0.872961	-0.456580	99
Es	-2.000045	1.107040	0.674959	99
Es	-0.977259	0.516486	0.180024	99
Es	-0.306513	0.487809	0.385290	99
Es	0.532827	2.384068	0.499389	99
Es	1.215113	3.025310	0.297913	99
Es	-0.872450	0.506079	0.809486	99
Es	0.632397	-0.530664	-2.385146	99
Es	1.497813	-1.523327	-1.239624	99
Es	0.070785	-1.375881	0.401499	99
Es	0.970680	2.109689	0.434839	99
Es	0.506488	-0.432879	-2.171808	99
Es	0.484224	-0.834091	-1.836655	99
Es	0.674841	2.280815	0.044193	99
Es	0.070980	1.139491	0.353438	99
Es	0.961449	-0.997488	-1.182972	99
Es	0.289208	-0.218989	-2.135932	99
Es	0.869205	-0.446345	-1.787114	99
Es	-2.020840	-0.127192	0.641954	99
Es	0.089545	-0.132658	0.307024	99
37
Properties=species:S:1:pos:R:3:Z:I:1 energy=-321.6001521534884 field_type=dipole dipole="0.000000 0.000000 0.000000" charge=0
C	-1.634282	0.494262	0.602234	6
C	-0.306722	0.487712	0.385314	6
C	0.474128	-0.789018	0.236244	6
C	0.961478	-0.997508	-1.183006	6
O	0.506388	-0.432738	-2.172146	8
C	0.407378	1.724362	0.329054	6
N	1.008978	2.716922	0.316294	7
H	-2.187282	1.423652	0.716744	1
H	-2.208512	-0.425208	0.657174	1
H	-0.118362	-1.668468	0.512374	1
H	1.351068	-0.767388	0.893734	1
H	1.745738	-1.766578	-1.294016	1
Es	1.497550	-1.523338	-1.239545	99
Es	0.481803	-0.835618	-1.837532	99
Es	0.407182	1.724071	0.329069	99
Es	0.506818	-0.433181	-2.171896	99
Es	0.089577	-0.132372	0.306412	99
Es	-1.999418	1.106451	0.675268	99
Es	1.220908	3.020222	0.293991	99
Es	1.008734	2.716515	0.316302	99
Es	-0.306515	0.487806	0.385294	99
Es	0.627864	-0.528824	-2.382005	99
Es	0.474109	-0.788967	0.236200	99
Es	0.292215	-0.219826	-2.134739	99
Es	1.065130	-0.766126	0.660110	99
Es	0.865976	2.171581	0.117528	99
Es	0.873453	-0.445002	-1.790089	99
Es	0.465203	2.417139	0.274144	99
Es	-1.634336	0.494255	0.602239	99
Es	-0.976949	0.516614	0.180122	99
Es	0.070282	-1.376279	0.401726	99
Es	0.707735	-0.873307	-0.455987	99
Es	-2.021281	-0.127306	0.642327	99
Es	-0.872843	0.505960	0.809256	99
Es	0.840751	2.191619	0.590975	99
Es	0.961456	-0.997483	-1.182968	99
Es	0.071965	1.138971	0.352758	99
37
Properties=species:S:1:pos:R:3:Z:I:1 energy=-321.6001521534884 field_type=dipole dipole="0.000000 0.000000 0.000000" charge=0
C	-1.634282	0.494262	0.602234	6
C	-0.306722	0.487712	0.385314	6
C	0.474128	-0.789018	0.236244	6
C	0.961478	-0.997508	-1.183006	6
O	0.506388	-0.432738	-2.172146	8
C	0.407378	1.724362	0.329054	6
N	1.008978	2.716922	0.316294	7
H	-2.187282	1.423652	0.716744	1
H	-2.208512	-0.425208	0.657174	1
H	-0.118362	-1.668468	0.512374	1
H	1.351068	-0.767388	0.893734	1
H	1.745738	-1.766578	-1.294016	1
Es	1.065173	-0.765597	0.659850	99
Es	0.874077	-0.442835	-1.789648	99
Es	-0.976939	0.516698	0.179509	99
Es	0.474109	-0.788967	0.236200	99
Es	-0.306517	0.487802	0.385293	99
Es	0.071568	1.139593	0.352606	99
Es	0.462450	2.419758	0.311968	99
Es	0.707376	-0.873240	-0.456064	99
Es	-1.998670	1.105433	0.675469	99
Es	1.008732	2.716515	0.316301	99
Es	0.506499	-0.432842	-2.172194	99
Es	-0.872947	0.506042	0.809793	99
Es	0.879248	2.166944	0.566488	99
Es	0.629653	-0.532752	-2.373689	99
Es	1.221086	3.020142	0.292485	99
Es	-2.021843	-0.127216	0.642715	99
Es	1.497339	-1.523135	-1.239450	99
Es	0.089635	-0.132299	0.306241	99
Es	0.069696	-1.376328	0.402009	99
Es	0.477225	-0.834824	-1.836147	99
Es	0.961442	-0.997485	-1.182983	99
Es	0.407175	1.724072	0.329074	99
Es	0.830962	2.192941	0.105352	99
Es	-1.634337	0.494255	0.602245	99
Es	0.295175	-0.219098	-2.144466	99
37
Properties=species:S:1:pos:R:3:Z:I:1 energy=-321.6001521534884 field_type=dipole dipole="0.000000 0.000000 0.000000" charge=0
C	-1.634282	0.494262	0.602234	6
C	-0.306722	0.487712	0.385314	6
C	0.474128	-0.789018	0.236244	6
C	0.961478	-0.997508	-1.183006	6
O	0.506388	-0.432738	-2.172146	8
C	0.407378	1.724362	0.329054	6
N	1.008978	2.716922	0.316294	7
H	-2.187282	1.423652	0.716744	1
H	-2.208512	-0.425208	0.657174	1
H	-0.118362	-1.668468	0.512374	1
H	1.351068	-0.767388	0.893734	1
H	1.745738	-1.766578	-1.294016	1
Es	0.506467	-0.432846	-2.171975	99
Es	0.627503	-0.537104	-2.355802	99
Es	-2.022282	-0.127064	0.643161	99
Es	0.071881	1.140057	0.354755	99
Es	0.295241	-0.216771	-2.159972	99
Es	0.971892	2.107737	0.265662	99
Es	1.065518	-0.765157	0.659372	99
Es	0.878220	-0.441040	-1.793385	99
Es	1.222468	3.019646	0.295397	99
Es	-1.998106	1.104692	0.675087	99
Es	0.474107	-0.788966	0.236198	99
Es	0.475947	-0.833874	-1.834611	99
Es	1.497002	-1.523221	-1.239479	99
Es	-0.873013	0.506410	0.810139	99
Es	1.008732	2.716514	0.316301	99
Es	0.706570	-0.873744	-0.455782	99
Es	0.089578	-0.132057	0.306251	99
Es	0.069318	-1.376403	0.402253	99
Es	0.522464	2.375156	0.127876	99
Es	-1.634335	0.494255	0.602248	99
Es	0.407169	1.724081	0.329098	99
Es	0.961447	-0.997488	-1.182973	99
Es	0.676896	2.296804	0.584695	99
Es	-0.976798	0.516147	0.179161	99
Es	-0.306516	0.487808	0.385284	99
37
Properties=species:S:1:pos:R:3:Z:I:1 energy=-321.6001521534884 field_type=dipole dipole="0.000000 0.000000 0.000000" charge=0
C	-1.634282	0.494262	0.602234	6
C	-0.306722	0.487712	0.385314	6
C	0.474128	-0.789018	0.236244	6
C	0.961478	-0.997508	-1.183006	6
O	0.506388	-0.432738	-2.172146	8
C	0.407378	1.724362	0.329054	6
N	1.008978	2.716922	0.316294	7
H	-2.187282	1.423652	0.716744	1
H	-2.208512	-0.425208	0.657174	1
H	-0.118362	-1.668468	0.512374	1
H	1.351068	-0.767388	0.893734	1
H	1.745738	-1.766578	-1.294016	1
Es	1.223547	3.018617	0.294247	99
Es	0.297138	-0.216677	-2.163715	99
Es	0.881458	-0.440623	-1.796687	99
Es	0.511794	2.382107	0.142555	99
Es	0.624683	-0.537527	-2.349226	99
Es	0.692747	2.286817	0.588202	99
Es	0.706120	-0.873756	-0.455672	99
Es	-0.873313	0.506390	0.810080	99
Es	-1.997730	1.104346	0.675095	99
Es	0.474105	-0.833930	-1.834486	99
Es	0.072009	1.140106	0.354823	99
Es	0.965693	2.111741	0.248403	99
Es	0.068988	-1.376353	0.402410	99
Es	1.496818	-1.523219	-1.239344	99
Es	1.065761	-0.765012	0.659035	99
Es	0.474109	-0.788967	0.236200	99
Es	-0.976536	0.515958	0.178828	99
Es	0.089724	-0.131857	0.306469	99
Es	0.506340	-0.432744	-2.171555	99
Es	-0.306519	0.487807	0.385285	99
Es	0.407165	1.724079	0.329096	99
Es	0.961445	-0.997487	-1.182976	99
Es	1.008733	2.716510	0.316302	99
Es	-2.022572	-0.127006	0.643340	99
Es	-1.634337	0.494255	0.602248	99
37
Properties=species:S:1:pos:R:3:Z:I:1 energy=-321.6001521534884 field_type=dipole dipole="0.000000 0.000000 0.000000" charge=0
C	-1.634282	0.494262	0.602234	6
C	-0.306722	0.487712	0.385314	6
C	0.474128	-0.789018	0.236244	6
C	0.961478	-0.997508	-1.183006	6
O	0.506388	-0.432738	-2.172146	8
C	0.407378	1.724362	0.329054	6
N	1.008978	2.716922	0.316294	7
H	-2.187282	1.423652	0.716744	1
H	-2.208512	-0.425208	0.657174	1
H	-0.118362	-1.668468	0.512374	1
H	1.351068	-0.767388	0.893734	1
H	1.745738	-1.766578	-1.294016	1
Es	-1.634336	0.494255	0.602244	99
Es	1.224596	3.017610	0.293723	99
Es	-0.873375	0.506405	0.810210	99
Es	0.710548	2.275115	0.596029	99
Es	0.621241	-0.540342	-2.333424	99
Es	0.474107	-0.788966	0.236199	99
Es	0.089685	-0.131824	0.306251	99
Es	0.299105	-0.215690	-2.175995	99
Es	1.008737	2.716516	0.316303	99
Es	1.065674	-0.764962	0.659014	99
Es	0.502826	2.388582	0.158587	99
Es	0.506478	-0.432867	-2.171862	99
Es	0.068850	-1.376416	0.402351	99
Es	0.955875	2.117951	0.225157	99
Es	0.885473	-0.439999	-1.801761	99
Es	1.496712	-1.523182	-1.239481	99
Es	0.961444	-0.997494	-1.182972	99
Es	-0.976500	0.516075	0.178877	99
Es	-1.997501	1.104110	0.675125	99
Es	0.072068	1.140060	0.354563	99
Es	0.471598	-0.832370	-1.832377	99
Es	0.407167	1.724077	0.329091	99
Es	0.706151	-0.873920	-0.455690	99
Es	-0.306518	0.487806	0.385291	99
Es	-2.022738	-0.126956	0.643507	99
37
Properties=species:S:1:pos:R:3:Z:I:1 energy=-321.6001521534884 field_type=dipole dipole="0.000000 0.000000 0.000000" charge=0
C	-1.634282	0.494262	0.602234	6
C	-0.306722	0.487712	0.385314	6
C	0.474128	-0.789018	0.236244	6
C	0.961478	-0.997508	-1.183006	6
O	0.506388	-0.432738	-2.172146	8
C	0.407378	1.724362	0.329054	6
N	1.008978	2.716922	0.316294	7
H	-2.187282	1.423652	0.716744	1
H	-2.208512	-0.425208	0.657174	1
H	-0.118362	-1.668468	0.512374	1
H	1.351068	-0.767388	0.893734	1
H	1.745738	-1.766578	-1.294016	1
Es	0.506456	-0.432867	-2.171801	99
Es	-2.023027	-0.126887	0.643485	99
Es	0.299576	-0.219067	-2.153210	99
Es	0.462940	2.419404	0.317927	99
Es	0.884675	-0.439771	-1.799567	99
Es	0.705454	-0.873791	-0.455336	99
Es	0.474109	-0.788967	0.236200	99
Es	0.885682	2.162649	0.559110	99
Es	0.068478	-1.376409	0.402404	99
Es	0.620932	-0.534220	-2.354566	99
Es	1.066177	-0.764711	0.658501	99
Es	0.822831	2.198994	0.109300	99
Es	-0.873439	0.506138	0.810410	99
Es	0.089835	-0.131800	0.306038	99
Es	-1.997112	1.103528	0.675452	99
Es	0.407163	1.724079	0.329079	99
Es	-0.306511	0.487806	0.385302	99
Es	1.223355	3.017726	0.288717	99
Es	0.472497	-0.835450	-1.836233	99
Es	-0.976521	0.516422	0.178568	99
Es	1.008731	2.716500	0.316295	99
Es	-1.634337	0.494255	0.602244	99
Es	0.961440	-0.997490	-1.182980	99
Es	1.496658	-1.523010	-1.239383	99
Es	0.071323	1.140515	0.353000	99
