42
Properties=species:S:1:pos:R:3:Z:I:1 energy=-286.9225619934825 field_type=dipole dipole="0.000000 0.000000 0.000000" charge=0
C	-1.927290	0.418078	0.218987	6
C	-0.442970	0.386998	0.199437	6
C	0.396440	1.438878	0.220147	6
C	1.757180	0.962848	0.226567	6
C	1.757390	-0.378442	0.213327	6
C	0.349650	-0.894642	0.204097	6
N	0.118640	-1.706892	-0.974072	7
H	-2.305180	1.444118	0.275867	1
H	-2.308010	-0.128402	1.087348	1
H	-2.336560	-0.038992	-0.686893	1
H	0.121930	2.482678	0.238007	1
H	2.626430	1.602018	0.238007	1
H	2.633620	-1.008522	0.215567	1
H	0.152930	-1.471992	1.113977	1
H	0.264190	-1.121642	-1.795332	1
H	-0.858390	-1.986092	-0.995042	1
Es	0.349632	-0.894692	0.203980	99
Es	-0.083836	-0.263021	0.203220	99
Es	1.770812	0.288104	0.536773	99
Es	-0.443065	0.386915	0.199444	99
Es	-1.188210	0.397146	0.204463	99
Es	-0.021484	0.933222	0.527531	99
Es	-0.481317	-1.857438	-0.981878	99
Es	0.212071	-1.272931	0.817046	99
Es	-1.927249	0.418065	0.218981	99
Es	2.344474	-0.813873	0.214313	99
Es	2.343772	1.404172	0.234530	99
Es	1.757171	0.962964	0.226569	99
Es	1.097410	1.256609	0.224525	99
Es	-2.193848	0.103778	-0.393872	99
Es	-0.012154	0.935079	-0.116270	99
Es	0.201606	-1.329570	-0.460838	99
Es	0.212955	2.152237	0.230460	99
Es	1.068809	-0.669169	0.208686	99
Es	-2.175157	0.044242	0.804196	99
Es	0.396516	1.438955	0.220145	99
Es	1.769526	0.292779	-0.101796	99
Es	1.757362	-0.378541	0.213326	99
Es	-2.178096	1.112627	0.256318	99
Es	0.332524	-1.992339	-0.978476	99
Es	0.194874	-1.339546	-1.460534	99
Es	0.118263	-1.706388	-0.974048	99
42
Properties=species:S:1:pos:R:3:Z:I:1 energy=-286.9225619934825 field_type=dipole dipole="0.000000 0.000000 0.000000" charge=0
C	-1.927290	0.418078	0.218987	6
C	-0.442970	0.386998	0.199437	6
C	0.396440	1.438878	0.220147	6
C	1.757180	0.962848	0.226567	6
C	1.757390	-0.378442	0.213327	6
C	0.349650	-0.894642	0.204097	6
N	0.118640	-1.706892	-0.974072	7
H	-2.305180	1.444118	0.275867	1
H	-2.308010	-0.128402	1.087348	1
H	-2.336560	-0.038992	-0.686893	1
H	0.121930	2.482678	0.238007	1
H	2.626430	1.602018	0.238007	1
H	2.633620	-1.008522	0.215567	1
H	0.152930	-1.471992	1.113977	1
H	0.264190	-1.121642	-1.795332	1
H	-0.858390	-1.986092	-0.995042	1
Es	-0.011833	0.934450	-0.114835	99
Es	0.339157	-1.986183	-0.978401	99
Es	-1.927252	0.418062	0.218981	99
Es	0.198466	-1.328818	-0.462587	99
Es	-2.192646	0.103124	-0.391760	99
Es	1.769073	0.293609	-0.100257	99
Es	2.345352	1.406537	0.234137	99
Es	0.118289	-1.706408	-0.974060	99
Es	0.349632	-0.894692	0.203979	99
Es	-0.482508	-1.866104	-0.981451	99
Es	-0.083957	-0.264202	0.203253	99
Es	1.757363	-0.378538	0.213335	99
Es	-1.187961	0.395898	0.203723	99
Es	0.396515	1.438954	0.220142	99
Es	0.191796	-1.338602	-1.457845	99
Es	2.343752	-0.812293	0.214786	99
Es	-2.174386	0.043440	0.802885	99
Es	1.068731	-0.670554	0.208846	99
Es	-0.443067	0.386912	0.199434	99
Es	1.097104	1.253159	0.223740	99
Es	-0.020978	0.932755	0.526698	99
Es	0.211660	-1.272455	0.815820	99
Es	1.757170	0.962967	0.226567	99
Es	1.769993	0.288604	0.535597	99
Es	0.213267	2.154531	0.230100	99
Es	-2.179373	1.115229	0.255968	99
42
Properties=species:S:1:pos:R:3:Z:I:1 energy=-286.9225619934825 field_type=dipole dipole="0.000000 0.000000 0.000000" charge=0
C	-1.927290	0.418078	0.218987	6
C	-0.442970	0.386998	0.199437	6
C	0.396440	1.438878	0.220147	6
C	1.757180	0.962848	0.226567	6
C	1.757390	-0.378442	0.213327	6
C	0.349650	-0.894642	0.204097	6
N	0.118640	-1.706892	-0.974072	7
H	-2.305180	1.444118	0.275867	1
H	-2.308010	-0.128402	1.087348	1
H	-2.336560	-0.038992	-0.686893	1
H	0.121930	2.482678	0.238007	1
H	2.626430	1.602018	0.238007	1
H	2.633620	-1.008522	0.215567	1
H	0.152930	-1.471992	1.113977	1
H	0.264190	-1.121642	-1.795332	1
H	-0.858390	-1.986092	-0.995042	1
Es	1.096424	1.250427	0.223461	99
Es	1.069003	-0.671934	0.208896	99
Es	1.769759	0.288965	0.534738	99
Es	0.349631	-0.894693	0.203980	99
Es	2.343145	-0.810835	0.215093	99
Es	-1.927249	0.418064	0.218981	99
Es	0.214112	2.156085	0.229740	99
Es	2.345692	1.408263	0.234120	99
Es	-0.020612	0.932480	0.526066	99
Es	0.211577	-1.271865	0.814853	99
Es	0.396519	1.438963	0.220143	99
Es	-0.011596	0.934026	-0.113791	99
Es	-2.191358	0.103504	-0.390364	99
Es	-2.179605	1.117201	0.255825	99
Es	1.768743	0.294089	-0.099456	99
Es	0.343239	-1.978888	-0.978241	99
Es	0.196092	-1.327704	-0.463913	99
Es	-2.174480	0.042374	0.801738	99
Es	1.757172	0.962970	0.226568	99
Es	-0.084359	-0.265188	0.203250	99
Es	1.757363	-0.378539	0.213334	99
Es	-0.443067	0.386914	0.199440	99
Es	-1.188098	0.394899	0.203367	99
Es	0.118300	-1.706426	-0.974055	99
Es	-0.482561	-1.874933	-0.981305	99
Es	0.189574	-1.338830	-1.455675	99
42
Properties=species:S:1:pos:R:3:Z:I:1 energy=-286.9225619934825 field_type=dipole dipole="0.000000 0.000000 0.000000" charge=0
C	-1.927290	0.418078	0.218987	6
C	-0.442970	0.386998	0.199437	6
C	0.396440	1.438878	0.220147	6
C	1.757180	0.962848	0.226567	6
C	1.757390	-0.378442	0.213327	6
C	0.349650	-0.894642	0.204097	6
N	0.118640	-1.706892	-0.974072	7
H	-2.305180	1.444118	0.275867	1
H	-2.308010	-0.128402	1.087348	1
H	-2.336560	-0.038992	-0.686893	1
H	0.121930	2.482678	0.238007	1
H	2.626430	1.602018	0.238007	1
H	2.633620	-1.008522	0.215567	1
H	0.152930	-1.471992	1.113977	1
H	0.264190	-1.121642	-1.795332	1
H	-0.858390	-1.986092	-0.995042	1
Es	1.095995	1.248264	0.223226	99
Es	1.069456	-0.673120	0.208964	99
Es	-0.020817	0.932252	0.525302	99
Es	0.346809	-1.972633	-0.978430	99
Es	-1.188296	0.394000	0.203182	99
Es	2.345567	1.409617	0.234065	99
Es	0.349632	-0.894691	0.203978	99
Es	-2.174925	0.041229	0.800592	99
Es	0.118307	-1.706400	-0.974065	99
Es	0.211992	-1.270388	0.813590	99
Es	-1.927248	0.418066	0.218981	99
Es	0.193137	-1.329004	-0.465101	99
Es	-2.190087	0.104324	-0.389023	99
Es	-0.011088	0.933633	-0.113193	99
Es	1.757362	-0.378538	0.213338	99
Es	2.342712	-0.809618	0.215237	99
Es	-2.179493	1.118779	0.255703	99
Es	-0.443067	0.386914	0.199449	99
Es	1.768739	0.294573	-0.098662	99
Es	-0.085038	-0.266000	0.203418	99
Es	0.215033	2.157114	0.229717	99
Es	1.769356	0.289258	0.534241	99
Es	0.396520	1.438962	0.220141	99
Es	1.757173	0.962971	0.226570	99
Es	0.187139	-1.337495	-1.453320	99
Es	-0.481510	-1.882683	-0.981105	99
42
Properties=species:S:1:pos:R:3:Z:I:1 energy=-286.9225619934825 field_type=dipole dipole="0.000000 0.000000 0.000000" charge=0
C	-1.927290	0.418078	0.218987	6
C	-0.442970	0.386998	0.199437	6
C	0.396440	1.438878	0.220147	6
C	1.757180	0.962848	0.226567	6
C	1.757390	-0.378442	0.213327	6
C	0.349650	-0.894642	0.204097	6
N	0.118640	-1.706892	-0.974072	7
H	-2.305180	1.444118	0.275867	1
H	-2.308010	-0.128402	1.087348	1
H	-2.336560	-0.038992	-0.686893	1
H	0.121930	2.482678	0.238007	1
H	2.626430	1.602018	0.238007	1
H	2.633620	-1.008522	0.215567	1
H	0.152930	-1.471992	1.113977	1
H	0.264190	-1.121642	-1.795332	1
H	-0.858390	-1.986092	-0.995042	1
Es	-0.011247	0.933381	-0.112362	99
Es	-2.179107	1.120012	0.255456	99
Es	1.769230	0.289547	0.533645	99
Es	0.185381	-1.336699	-1.451208	99
Es	-2.176770	0.038510	0.799170	99
Es	-1.927250	0.418064	0.218981	99
Es	0.215904	2.157832	0.229593	99
Es	1.095583	1.246587	0.223063	99
Es	0.212969	-1.267649	0.812001	99
Es	0.190792	-1.331712	-0.464677	99
Es	-0.020500	0.932112	0.524703	99
Es	-2.187713	0.106951	-0.387215	99
Es	2.345314	1.410650	0.234037	99
Es	-0.085516	-0.266621	0.203402	99
Es	1.757359	-0.378537	0.213337	99
Es	-0.480271	-1.888765	-0.981139	99
Es	1.757173	0.962972	0.226566	99
Es	1.768420	0.294858	-0.097937	99
Es	1.069966	-0.674296	0.208834	99
Es	0.349633	-0.894689	0.203980	99
Es	2.342419	-0.808525	0.215532	99
Es	0.396520	1.438962	0.220140	99
Es	-1.188592	0.393206	0.202738	99
Es	-0.443065	0.386911	0.199440	99
Es	0.118307	-1.706420	-0.974066	99
Es	0.348422	-1.967255	-0.979219	99
42
Properties=species:S:1:pos:R:3:Z:I:1 energy=-286.9225619934825 field_type=dipole dipole="0.000000 0.000000 0.000000" charge=0
C	-1.927290	0.418078	0.218987	6
C	-0.442970	0.386998	0.199437	6
C	0.396440	1.438878	0.220147	6
C	1.757180	0.962848	0.226567	6
C	1.757390	-0.378442	0.213327	6
C	0.349650	-0.894642	0.204097	6
N	0.118640	-1.706892	-0.974072	7
H	-2.305180	1.444118	0.275867	1
H	-2.308010	-0.128402	1.087348	1
H	-2.336560	-0.038992	-0.686893	1
H	0.121930	2.482678	0.238007	1
H	2.626430	1.602018	0.238007	1
H	2.633620	-1.008522	0.215567	1
H	0.152930	-1.471992	1.113977	1
H	0.264190	-1.121642	-1.795332	1
H	-0.858390	-1.986092	-0.995042	1
Es	1.095314	1.245609	0.223166	99
Es	-0.443062	0.386912	0.199437	99
Es	-0.019941	0.931953	0.524517	99
Es	0.348945	-1.961766	-0.979486	99
Es	1.769109	0.289728	0.533598	99
Es	-1.188972	0.392891	0.202592	99
Es	1.757362	-0.378539	0.213336	99
Es	0.216645	2.158220	0.229633	99
Es	0.186357	-1.341449	-0.461523	99
Es	-0.011685	0.933253	-0.112086	99
Es	1.768367	0.295006	-0.097950	99
Es	-2.178752	1.120756	0.255429	99
Es	-1.927250	0.418064	0.218980	99
Es	2.341980	-0.807684	0.215610	99
Es	0.396522	1.438957	0.220143	99
Es	0.349633	-0.894689	0.203981	99
Es	0.184599	-1.332394	-1.449534	99
Es	0.215511	-1.261499	0.807454	99
Es	-0.085960	-0.266943	0.203412	99
Es	1.757173	0.962971	0.226563	99
Es	0.118303	-1.706400	-0.974053	99
Es	2.344932	1.411403	0.234115	99
Es	1.070383	-0.675305	0.208909	99
Es	-2.184044	0.111201	-0.384761	99
Es	-0.478243	-1.894906	-0.981341	99
Es	-2.179866	0.034037	0.796652	99
42
Properties=species:S:1:pos:R:3:Z:I:1 energy=-286.9225619934825 field_type=dipole dipole="0.000000 0.000000 0.000000" charge=0
C	-1.927290	0.418078	0.218987	6
C	-0.442970	0.386998	0.199437	6
C	0.396440	1.438878	0.220147	6
C	1.757180	0.962848	0.226567	6
C	1.757390	-0.378442	0.213327	6
C	0.349650	-0.894642	0.204097	6
N	0.118640	-1.706892	-0.974072	7
H	-2.305180	1.444118	0.275867	1
H	-2.308010	-0.128402	1.087348	1
H	-2.336560	-0.038992	-0.686893	1
H	0.121930	2.482678	0.238007	1
H	2.626430	1.602018	0.238007	1
H	2.633620	-1.008522	0.215567	1
H	0.152930	-1.471992	1.113977	1
H	0.264190	-1.121642	-1.795332	1
H	-0.858390	-1.986092	-0.995042	1
Es	0.217390	2.158467	0.229704	99
Es	0.347995	-1.958019	-0.979809	99
Es	-0.020571	0.932054	0.524789	99
Es	2.344514	1.411977	0.234282	99
Es	1.757173	0.962971	0.226562	99
Es	0.396519	1.438962	0.220141	99
Es	1.095044	1.245003	0.223460	99
Es	-0.476525	-1.898909	-0.981428	99
Es	-2.182623	0.030031	0.793695	99
Es	2.341528	-0.807102	0.215678	99
Es	1.757366	-0.378538	0.213335	99
Es	1.070613	-0.675737	0.208870	99
Es	0.349633	-0.894688	0.203982	99
Es	1.767914	0.295029	-0.098084	99
Es	-1.189515	0.392726	0.202549	99
Es	0.184595	-1.328110	-1.448252	99
Es	-2.178104	1.121275	0.255588	99
Es	-0.086193	-0.267395	0.203314	99
Es	-2.180869	0.114943	-0.382112	99
Es	0.183113	-1.351148	-0.456043	99
Es	1.769486	0.289900	0.533748	99
Es	-1.927251	0.418066	0.218981	99
Es	-0.010980	0.932938	-0.112571	99
Es	-0.443067	0.386911	0.199440	99
Es	0.118317	-1.706401	-0.974062	99
Es	0.217859	-1.255817	0.801036	99
42
Properties=species:S:1:pos:R:3:Z:I:1 energy=-286.9225619934825 field_type=dipole dipole="0.000000 0.000000 0.000000" charge=0
C	-1.927290	0.418078	0.218987	6
C	-0.442970	0.386998	0.199437	6
C	0.396440	1.438878	0.220147	6
C	1.757180	0.962848	0.226567	6
C	1.757390	-0.378442	0.213327	6
C	0.349650	-0.894642	0.204097	6
N	0.118640	-1.706892	-0.974072	7
H	-2.305180	1.444118	0.275867	1
H	-2.308010	-0.128402	1.087348	1
H	-2.336560	-0.038992	-0.686893	1
H	0.121930	2.482678	0.238007	1
H	2.626430	1.602018	0.238007	1
H	2.633620	-1.008522	0.215567	1
H	0.152930	-1.471992	1.113977	1
H	0.264190	-1.121642	-1.795332	1
H	-0.858390	-1.986092	-0.995042	1
Es	0.118273	-1.706376	-0.974070	99
Es	0.219588	-1.251724	0.794835	99
Es	0.346234	-1.955162	-0.980213	99
Es	0.185427	-1.322230	-1.445900	99
Es	-1.189746	0.392658	0.202422	99
Es	0.349633	-0.894689	0.203986	99
Es	-1.927249	0.418063	0.218981	99
Es	1.070740	-0.676198	0.208849	99
Es	-2.183196	0.029074	0.793046	99
Es	2.344207	1.412362	0.234361	99
Es	0.396520	1.438962	0.220140	99
Es	-2.180194	0.115793	-0.381455	99
Es	1.757361	-0.378537	0.213335	99
Es	2.341077	-0.806600	0.215296	99
Es	1.757173	0.962972	0.226567	99
Es	1.769826	0.289971	0.534148	99
Es	1.767407	0.295020	-0.098381	99
Es	0.180939	-1.361198	-0.451608	99
Es	-0.018309	0.931640	0.524570	99
Es	0.217919	2.158583	0.229945	99
Es	-0.086433	-0.267712	0.203154	99
Es	-0.013178	0.933261	-0.112168	99
Es	1.094989	1.244722	0.223401	99
Es	-0.443068	0.386913	0.199437	99
Es	-0.475144	-1.901766	-0.981544	99
Es	-2.177436	1.121585	0.255660	99
42
Properties=species:S:1:pos:R:3:Z:I:1 energy=-286.9225619934825 field_type=dipole dipole="0.000000 0.000000 0.000000" charge=0
C	-1.927290	0.418078	0.218987	6
C	-0.442970	0.386998	0.199437	6
C	0.396440	1.438878	0.220147	6
C	1.757180	0.962848	0.226567	6
C	1.757390	-0.378442	0.213327	6
C	0.349650	-0.894642	0.204097	6
N	0.118640	-1.706892	-0.974072	7
H	-2.305180	1.444118	0.275867	1
H	-2.308010	-0.128402	1.087348	1
H	-2.336560	-0.038992	-0.686893	1
H	0.121930	2.482678	0.238007	1
H	2.626430	1.602018	0.238007	1
H	2.633620	-1.008522	0.215567	1
H	0.152930	-1.471992	1.113977	1
H	0.264190	-1.121642	-1.795332	1
H	-0.858390	-1.986092	-0.995042	1
Es	0.118306	-1.706395	-0.974069	99
Es	0.220689	-1.249168	0.790101	99
Es	0.218262	2.158686	0.230003	99
Es	0.179155	-1.367012	-0.449087	99
Es	-0.019136	0.931741	0.525095	99
Es	1.757365	-0.378538	0.213329	99
Es	-0.086597	-0.267866	0.203131	99
Es	0.396520	1.438962	0.220141	99
Es	0.349634	-0.894689	0.203985	99
Es	-1.927250	0.418063	0.218980	99
Es	1.769927	0.290109	0.534230	99
Es	-2.183648	0.028151	0.792349	99
Es	0.344974	-1.951593	-0.980402	99
Es	-0.012159	0.932996	-0.112871	99
Es	1.757173	0.962971	0.226568	99
Es	1.094849	1.244541	0.223743	99
Es	-0.443066	0.386913	0.199437	99
Es	2.344012	1.412614	0.234501	99
Es	0.185351	-1.318756	-1.443550	99
Es	-2.179467	0.116512	-0.380898	99
Es	1.070796	-0.676486	0.208837	99
Es	-2.177016	1.121820	0.255745	99
Es	2.340818	-0.806329	0.215287	99
Es	-1.190115	0.392738	0.202440	99
Es	-0.473191	-1.905554	-0.981640	99
Es	1.767176	0.294956	-0.098591	99
42
Properties=species:S:1:pos:R:3:Z:I:1 energy=-286.9225619934825 field_type=dipole dipole="0.000000 0.000000 0.000000" charge=0
C	-1.927290	0.418078	0.218987	6
C	-0.442970	0.386998	0.199437	6
C	0.396440	1.438878	0.220147	6
C	1.757180	0.962848	0.226567	6
C	1.757390	-0.378442	0.213327	6
C	0.349650	-0.894642	0.204097	6
N	0.118640	-1.706892	-0.974072	7
H	-2.305180	1.444118	0.275867	1
H	-2.308010	-0.128402	1.087348	1
H	-2.336560	-0.038992	-0.686893	1
H	0.121930	2.482678	0.238007	1
H	2.626430	1.602018	0.238007	1
H	2.633620	-1.008522	0.215567	1
H	0.152930	-1.471992	1.113977	1
H	0.264190	-1.121642	-1.795332	1
H	-0.858390	-1.986092	-0.995042	1
Es	-2.176502	1.122026	0.255760	99
Es	-1.190371	0.392580	0.202404	99
Es	0.185111	-1.317057	-1.442215	99
Es	2.340527	-0.805969	0.215277	99
Es	0.349633	-0.894688	0.203983	99
Es	1.757366	-0.378540	0.213335	99
Es	0.178059	-1.370316	-0.446548	99
Es	1.070974	-0.676817	0.208794	99
Es	-1.927251	0.418062	0.218977	99
Es	-0.018432	0.931665	0.524954	99
Es	1.769432	0.290109	0.534736	99
Es	2.343700	1.412973	0.234597	99
Es	-2.178664	0.117415	-0.380099	99
Es	0.218710	2.158787	0.230096	99
Es	1.757173	0.962971	0.226568	99
Es	-2.184406	0.027192	0.791431	99
Es	1.767532	0.295004	-0.099113	99
Es	0.344386	-1.949803	-0.980695	99
Es	0.221385	-1.247373	0.786441	99
Es	1.094852	1.244184	0.223828	99
Es	0.396520	1.438961	0.220142	99
Es	-0.472092	-1.907504	-0.981605	99
Es	-0.443068	0.386913	0.199436	99
Es	0.118321	-1.706403	-0.974007	99
Es	-0.086678	-0.268029	0.203050	99
Es	-0.012859	0.933042	-0.112732	99
