42
Properties=species:S:1:pos:R:3:Z:I:1 energy=-286.92256199348236 field_type=dipole dipole="0.000000 0.000000 0.000000" charge=0
C	-1.927290	0.418078	0.218987	6
C	-0.442970	0.386998	0.199437	6
C	0.396440	1.438878	0.220147	6
C	1.757180	0.962848	0.226567	6
C	1.757390	-0.378442	0.213327	6
C	0.349650	-0.894642	0.204097	6
N	0.118640	-1.706892	-0.974072	7
H	-2.305180	1.444118	0.275867	1
H	-2.308010	-0.128402	1.087348	1
H	-2.336560	-0.038992	-0.686893	1
H	0.121930	2.482678	0.238007	1
H	2.626430	1.602018	0.238007	1
H	2.633620	-1.008522	0.215567	1
H	0.152930	-1.471992	1.113977	1
H	0.264190	-1.121642	-1.795332	1
H	-0.858390	-1.986092	-0.995042	1
Es	1.068794	-0.669124	0.208733	99
Es	-2.193920	0.103349	-0.393691	99
Es	-0.012131	0.934993	-0.116349	99
Es	2.343721	1.404255	0.234418	99
Es	-0.443064	0.386916	0.199442	99
Es	-0.481289	-1.857055	-0.981802	99
Es	0.349632	-0.894692	0.203983	99
Es	1.770701	0.288135	0.536951	99
Es	-1.188147	0.397393	0.204420	99
Es	-2.174892	0.044521	0.804300	99
Es	0.396517	1.438955	0.220139	99
Es	0.212966	2.152226	0.230494	99
Es	1.757363	-0.378538	0.213337	99
Es	0.332322	-1.992663	-0.978101	99
Es	-0.021549	0.933216	0.527405	99
Es	0.201616	-1.329242	-0.461096	99
Es	0.212107	-1.272959	0.817045	99
Es	0.195056	-1.339912	-1.460793	99
Es	-0.083858	-0.263094	0.203334	99
Es	0.118272	-1.706394	-0.974053	99
Es	1.769376	0.292814	-0.101808	99
Es	2.344601	-0.813850	0.214240	99
Es	1.097613	1.256539	0.224602	99
Es	-1.927249	0.418064	0.218981	99
Es	-2.178368	1.112562	0.256091	99
Es	1.757171	0.962968	0.226572	99
42
Properties=species:S:1:pos:R:3:Z:I:1 energy=-286.92256199348236 field_type=dipole dipole="0.000000 0.000000 0.000000" charge=0
C	-1.927290	0.418078	0.218987	6
C	-0.442970	0.386998	0.199437	6
C	0.396440	1.438878	0.220147	6
C	1.757180	0.962848	0.226567	6
C	1.757390	-0.378442	0.213327	6
C	0.349650	-0.894642	0.204097	6
N	0.118640	-1.706892	-0.974072	7
H	-2.305180	1.444118	0.275867	1
H	-2.308010	-0.128402	1.087348	1
H	-2.336560	-0.038992	-0.686893	1
H	0.121930	2.482678	0.238007	1
H	2.626430	1.602018	0.238007	1
H	2.633620	-1.008522	0.215567	1
H	0.152930	-1.471992	1.113977	1
H	0.264190	-1.121642	-1.795332	1
H	-0.858390	-1.986092	-0.995042	1
Es	2.345627	1.409053	0.234032	99
Es	1.757372	-0.378540	0.213337	99
Es	1.096152	1.249186	0.223428	99
Es	-2.190829	0.103604	-0.389620	99
Es	-0.443066	0.386917	0.199446	99
Es	0.194673	-1.328890	-0.464210	99
Es	1.069282	-0.672557	0.208839	99
Es	2.342921	-0.810176	0.215200	99
Es	0.188405	-1.337610	-1.454404	99
Es	0.211676	-1.271125	0.814222	99
Es	-1.188315	0.394335	0.203176	99
Es	-2.174490	0.042029	0.801279	99
Es	-0.482197	-1.878397	-0.981303	99
Es	1.769465	0.289131	0.534476	99
Es	0.345091	-1.976165	-0.978584	99
Es	0.396519	1.438961	0.220140	99
Es	-0.084611	-0.265600	0.203247	99
Es	-1.927249	0.418064	0.218981	99
Es	1.757173	0.962971	0.226566	99
Es	-0.020956	0.932446	0.525672	99
Es	0.349633	-0.894691	0.203977	99
Es	0.118307	-1.706425	-0.974055	99
Es	1.768848	0.294326	-0.098929	99
Es	0.214591	2.156668	0.229729	99
Es	-2.179559	1.118109	0.255629	99
Es	-0.011101	0.933763	-0.113477	99
42
Properties=species:S:1:pos:R:3:Z:I:1 energy=-286.92256199348236 field_type=dipole dipole="0.000000 0.000000 0.000000" charge=0
C	-1.927290	0.418078	0.218987	6
C	-0.442970	0.386998	0.199437	6
C	0.396440	1.438878	0.220147	6
C	1.757180	0.962848	0.226567	6
C	1.757390	-0.378442	0.213327	6
C	0.349650	-0.894642	0.204097	6
N	0.118640	-1.706892	-0.974072	7
H	-2.305180	1.444118	0.275867	1
H	-2.308010	-0.128402	1.087348	1
H	-2.336560	-0.038992	-0.686893	1
H	0.121930	2.482678	0.238007	1
H	2.626430	1.602018	0.238007	1
H	2.633620	-1.008522	0.215567	1
H	0.152930	-1.471992	1.113977	1
H	0.264190	-1.121642	-1.795332	1
H	-0.858390	-1.986092	-0.995042	1
Es	1.767972	0.294962	-0.097737	99
Es	1.095310	1.245580	0.223043	99
Es	1.757362	-0.378541	0.213335	99
Es	-1.927248	0.418063	0.218981	99
Es	-2.180234	0.033528	0.796360	99
Es	0.396521	1.438960	0.220140	99
Es	0.186440	-1.340123	-0.461659	99
Es	-0.019566	0.931899	0.524438	99
Es	0.215422	-1.261614	0.807571	99
Es	-2.178739	1.120729	0.255486	99
Es	-0.478106	-1.895141	-0.981281	99
Es	-0.085990	-0.267009	0.203383	99
Es	1.070367	-0.675208	0.209003	99
Es	0.349632	-0.894690	0.203976	99
Es	0.348814	-1.961544	-0.979085	99
Es	2.342042	-0.807706	0.215612	99
Es	0.184599	-1.333576	-1.449978	99
Es	-2.183698	0.111714	-0.384512	99
Es	-0.012023	0.933324	-0.111949	99
Es	2.344910	1.411421	0.234128	99
Es	1.769493	0.289742	0.533420	99
Es	-1.188986	0.392939	0.202548	99
Es	0.118321	-1.706426	-0.974060	99
Es	1.757173	0.962971	0.226561	99
Es	-0.443067	0.386913	0.199435	99
Es	0.216640	2.158218	0.229635	99
42
Properties=species:S:1:pos:R:3:Z:I:1 energy=-286.92256199348236 field_type=dipole dipole="0.000000 0.000000 0.000000" charge=0
C	-1.927290	0.418078	0.218987	6
C	-0.442970	0.386998	0.199437	6
C	0.396440	1.438878	0.220147	6
C	1.757180	0.962848	0.226567	6
C	1.757390	-0.378442	0.213327	6
C	0.349650	-0.894642	0.204097	6
N	0.118640	-1.706892	-0.974072	7
H	-2.305180	1.444118	0.275867	1
H	-2.308010	-0.128402	1.087348	1
H	-2.336560	-0.038992	-0.686893	1
H	0.121930	2.482678	0.238007	1
H	2.626430	1.602018	0.238007	1
H	2.633620	-1.008522	0.215567	1
H	0.152930	-1.471992	1.113977	1
H	0.264190	-1.121642	-1.795332	1
H	-0.858390	-1.986092	-0.995042	1
Es	2.340942	-0.806397	0.215574	99
Es	-0.086539	-0.267803	0.203176	99
Es	2.344049	1.412582	0.234359	99
Es	-0.474289	-1.903519	-0.981358	99
Es	-0.012785	0.933138	-0.112326	99
Es	1.768060	0.295063	-0.098672	99
Es	0.396520	1.438961	0.220138	99
Es	0.118316	-1.706403	-0.974004	99
Es	1.769084	0.289991	0.534429	99
Es	-2.177265	1.121741	0.255553	99
Es	-1.927249	0.418063	0.218980	99
Es	-0.018628	0.931686	0.524641	99
Es	-1.189901	0.392708	0.202474	99
Es	-0.443066	0.386912	0.199435	99
Es	0.345783	-1.953529	-0.980118	99
Es	1.094951	1.244443	0.223410	99
Es	0.180277	-1.361269	-0.448895	99
Es	0.349633	-0.894689	0.203987	99
Es	-2.178960	0.117123	-0.380099	99
Es	1.070824	-0.676455	0.208827	99
Es	1.757369	-0.378538	0.213346	99
Es	0.185017	-1.323349	-1.446546	99
Es	0.218151	2.158682	0.229846	99
Es	0.220149	-1.250365	0.792370	99
Es	1.757173	0.962971	0.226567	99
Es	-2.184256	0.027638	0.791699	99
42
Properties=species:S:1:pos:R:3:Z:I:1 energy=-286.92256199348236 field_type=dipole dipole="0.000000 0.000000 0.000000" charge=0
C	-1.927290	0.418078	0.218987	6
C	-0.442970	0.386998	0.199437	6
C	0.396440	1.438878	0.220147	6
C	1.757180	0.962848	0.226567	6
C	1.757390	-0.378442	0.213327	6
C	0.349650	-0.894642	0.204097	6
N	0.118640	-1.706892	-0.974072	7
H	-2.305180	1.444118	0.275867	1
H	-2.308010	-0.128402	1.087348	1
H	-2.336560	-0.038992	-0.686893	1
H	0.121930	2.482678	0.238007	1
H	2.626430	1.602018	0.238007	1
H	2.633620	-1.008522	0.215567	1
H	0.152930	-1.471992	1.113977	1
H	0.264190	-1.121642	-1.795332	1
H	-0.858390	-1.986092	-0.995042	1
Es	1.769134	0.290055	0.535238	99
Es	2.343485	1.413210	0.234582	99
Es	-0.018182	0.931637	0.524999	99
Es	-0.470693	-1.910027	-0.981778	99
Es	-0.086825	-0.268192	0.202974	99
Es	0.185703	-1.313342	-1.438980	99
Es	-0.013040	0.933094	-0.112804	99
Es	0.342678	-1.947220	-0.980855	99
Es	0.222101	-1.245876	0.783141	99
Es	-1.190493	0.392634	0.202433	99
Es	0.118306	-1.706413	-0.974056	99
Es	0.177140	-1.375632	-0.446072	99
Es	-2.176247	1.122150	0.255752	99
Es	1.757366	-0.378538	0.213334	99
Es	1.767811	0.295007	-0.099453	99
Es	0.396520	1.438961	0.220133	99
Es	1.070969	-0.676876	0.208709	99
Es	0.218951	2.158834	0.230160	99
Es	-2.179368	0.116455	-0.381065	99
Es	-1.927249	0.418064	0.218981	99
Es	1.757173	0.962971	0.226568	99
Es	-0.443066	0.386913	0.199436	99
Es	-2.183601	0.028067	0.792454	99
Es	1.094837	1.243993	0.223983	99
Es	0.349633	-0.894688	0.203985	99
Es	2.340316	-0.805856	0.214994	99
42
Properties=species:S:1:pos:R:3:Z:I:1 energy=-286.92256199348236 field_type=dipole dipole="0.000000 0.000000 0.000000" charge=0
C	-1.927290	0.418078	0.218987	6
C	-0.442970	0.386998	0.199437	6
C	0.396440	1.438878	0.220147	6
C	1.757180	0.962848	0.226567	6
C	1.757390	-0.378442	0.213327	6
C	0.349650	-0.894642	0.204097	6
N	0.118640	-1.706892	-0.974072	7
H	-2.305180	1.444118	0.275867	1
H	-2.308010	-0.128402	1.087348	1
H	-2.336560	-0.038992	-0.686893	1
H	0.121930	2.482678	0.238007	1
H	2.626430	1.602018	0.238007	1
H	2.633620	-1.008522	0.215567	1
H	0.152930	-1.471992	1.113977	1
H	0.264190	-1.121642	-1.795332	1
H	-0.858390	-1.986092	-0.995042	1
Es	-0.018658	0.931696	0.525693	99
Es	2.339718	-0.805273	0.214990	99
Es	1.767175	0.294956	-0.099885	99
Es	0.185687	-1.310287	-1.435927	99
Es	-1.927249	0.418064	0.218981	99
Es	1.757360	-0.378537	0.213332	99
Es	-0.087097	-0.268591	0.202998	99
Es	-2.175453	1.122473	0.255822	99
Es	0.219648	2.158944	0.230257	99
Es	-1.191019	0.392548	0.202476	99
Es	2.343105	1.413620	0.234725	99
Es	-0.443064	0.386912	0.199436	99
Es	-2.178785	0.116973	-0.380739	99
Es	0.223219	-1.243429	0.777082	99
Es	0.349633	-0.894689	0.203984	99
Es	0.341193	-1.944741	-0.981338	99
Es	0.118295	-1.706379	-0.974100	99
Es	0.175909	-1.381100	-0.442517	99
Es	1.071157	-0.677199	0.208604	99
Es	0.396520	1.438961	0.220142	99
Es	-2.183942	0.027351	0.791958	99
Es	-0.469064	-1.912620	-0.981773	99
Es	1.757173	0.962971	0.226569	99
Es	1.769718	0.290162	0.535395	99
Es	-0.012452	0.932892	-0.113553	99
Es	1.094632	1.243712	0.224181	99
