14
Properties=species:S:1:pos:R:3:Z:I:1 energy=-187.68919801779805 field_type=dipole dipole="0.000000 0.000000 0.000000" charge=0
O	-1.157569	0.000000	0.000000	8
O	1.157569	0.000000	0.000000	8
C	0.000000	0.000000	0.000000	6
Es	1.157095	-0.000025	-0.000031	99
Es	0.846051	-0.228271	0.142517	99
Es	-0.848125	-0.232305	-0.137034	99
Es	-1.433603	0.002054	0.000673	99
Es	1.433587	-0.001364	-0.001686	99
Es	-0.845874	-0.003231	0.268856	99
Es	0.848899	0.236736	0.127965	99
Es	-1.157094	-0.000016	0.000009	99
Es	-0.845479	0.233499	-0.132506	99
Es	0.844542	-0.007076	-0.268763	99
Es	0.000002	-0.000001	-0.000000	99
14
Properties=species:S:1:pos:R:3:Z:I:1 energy=-187.68919801779805 field_type=dipole dipole="0.000000 0.000000 0.000000" charge=0
O	-1.157569	0.000000	0.000000	8
O	1.157569	0.000000	0.000000	8
C	0.000000	0.000000	0.000000	6
Es	-1.157108	-0.000020	0.000014	99
Es	1.157108	-0.000009	-0.000007	99
Es	0.840995	0.240895	-0.065195	99
Es	-0.840136	0.244094	-0.055008	99
Es	1.451508	-0.000075	-0.000545	99
Es	0.841293	-0.062859	0.241765	99
Es	-0.841628	-0.073621	0.238522	99
Es	-0.839972	-0.170612	-0.183262	99
Es	-0.000001	-0.000002	0.000000	99
Es	0.839346	-0.177939	-0.176005	99
Es	-1.451405	0.000149	-0.000281	99
14
Properties=species:S:1:pos:R:3:Z:I:1 energy=-187.68919801779805 field_type=dipole dipole="0.000000 0.000000 0.000000" charge=0
O	-1.157569	0.000000	0.000000	8
O	1.157569	0.000000	0.000000	8
C	0.000000	0.000000	0.000000	6
Es	-0.658681	-0.055626	-0.116240	99
Es	-1.453055	-0.015298	-0.031147	99
Es	0.830301	-0.251570	-0.019407	99
Es	0.823391	0.167939	-0.189416	99
Es	-0.931344	0.109881	0.032446	99
Es	-1.157111	-0.000015	-0.000022	99
Es	1.157110	-0.000002	-0.000014	99
Es	0.866236	0.082678	0.211474	99
Es	1.453202	0.001078	-0.002423	99
Es	0.000002	-0.000007	0.000003	99
Es	-0.930050	-0.039058	0.114747	99
14
Properties=species:S:1:pos:R:3:Z:I:1 energy=-187.68919801779805 field_type=dipole dipole="0.000000 0.000000 0.000000" charge=0
O	-1.157569	0.000000	0.000000	8
O	1.157569	0.000000	0.000000	8
C	0.000000	0.000000	0.000000	6
Es	-0.667653	-0.142372	-0.047861	99
Es	1.452423	-0.021888	0.029461	99
Es	1.157112	-0.000016	0.000018	99
Es	-0.929609	0.084992	-0.062229	99
Es	0.000000	-0.000005	0.000000	99
Es	0.676896	-0.133711	0.101430	99
Es	-1.157112	-0.000022	-0.000002	99
Es	0.924385	0.124443	0.033282	99
Es	-0.922875	0.084938	0.130214	99
Es	0.919429	0.031210	-0.163840	99
Es	-1.452996	-0.027567	-0.020472	99
14
Properties=species:S:1:pos:R:3:Z:I:1 energy=-187.68919801779805 field_type=dipole dipole="0.000000 0.000000 0.000000" charge=0
O	-1.157569	0.000000	0.000000	8
O	1.157569	0.000000	0.000000	8
C	0.000000	0.000000	0.000000	6
Es	-0.657929	-0.127142	-0.002826	99
Es	1.157111	-0.000046	0.000017	99
Es	-0.000000	-0.000006	0.000009	99
Es	-0.934721	0.041253	-0.065997	99
Es	-1.453713	-0.029040	-0.008776	99
Es	0.933531	0.083809	0.016193	99
Es	1.453454	-0.014420	0.028634	99
Es	0.658935	-0.090526	0.093055	99
Es	-0.926779	0.114858	0.077382	99
Es	-1.157107	-0.000015	-0.000040	99
Es	0.927218	0.021275	-0.137650	99
14
Properties=species:S:1:pos:R:3:Z:I:1 energy=-187.68919801779805 field_type=dipole dipole="0.000000 0.000000 0.000000" charge=0
O	-1.157569	0.000000	0.000000	8
O	1.157569	0.000000	0.000000	8
C	0.000000	0.000000	0.000000	6
Es	0.647890	-0.094304	-0.011836	99
Es	-1.157113	-0.000013	-0.000019	99
Es	0.933808	0.093249	-0.047364	99
Es	-0.932300	-0.012097	0.113862	99
Es	-1.453845	-0.010183	-0.028044	99
Es	1.157114	-0.000022	-0.000003	99
Es	-0.933800	0.087585	0.006668	99
Es	1.454416	-0.024373	0.007072	99
Es	-0.000000	-0.000006	-0.000004	99
Es	-0.653194	-0.065223	-0.092697	99
Es	0.937025	0.025388	0.052364	99
14
Properties=species:S:1:pos:R:3:Z:I:1 energy=-187.68919801779805 field_type=dipole dipole="0.000000 0.000000 0.000000" charge=0
O	-1.157569	0.000000	0.000000	8
O	1.157569	0.000000	0.000000	8
C	0.000000	0.000000	0.000000	6
Es	1.454643	0.009953	0.021136	99
Es	-1.157117	0.000022	-0.000003	99
Es	-0.645783	0.086243	0.003901	99
Es	-0.000000	0.000008	0.000001	99
Es	-0.935984	-0.070677	0.054468	99
Es	1.157076	0.000090	-0.000030	99
Es	-1.454583	0.022917	-0.006936	99
Es	-0.936790	-0.038427	-0.051602	99
Es	0.936924	-0.063983	0.004487	99
Es	0.645780	0.058620	0.063395	99
Es	0.935833	-0.004767	-0.088817	99
14
Properties=species:S:1:pos:R:3:Z:I:1 energy=-187.68919801779805 field_type=dipole dipole="0.000000 0.000000 0.000000" charge=0
O	-1.157569	0.000000	0.000000	8
O	1.157569	0.000000	0.000000	8
C	0.000000	0.000000	0.000000	6
Es	-0.938913	0.021582	0.058934	99
Es	-0.000000	0.000002	-0.000002	99
Es	1.157112	0.000022	0.000023	99
Es	-1.454818	0.003470	-0.021489	99
Es	1.454882	0.019156	0.008788	99
Es	0.642464	0.070169	0.000764	99
Es	0.937660	-0.039174	0.040335	99
Es	-0.936612	-0.064377	0.022749	99
Es	0.938141	-0.050099	-0.049734	99
Es	-1.157114	0.000018	-0.000004	99
Es	-0.642801	0.039231	-0.060365	99
14
Properties=species:S:1:pos:R:3:Z:I:1 energy=-187.68919801779805 field_type=dipole dipole="0.000000 0.000000 0.000000" charge=0
O	-1.157569	0.000000	0.000000	8
O	1.157569	0.000000	0.000000	8
C	0.000000	0.000000	0.000000	6
Es	-1.455471	0.004351	-0.012272	99
Es	1.157114	0.000015	-0.000026	99
Es	-1.157102	-0.000045	0.000001	99
Es	-0.940631	-0.014445	0.005094	99
Es	-0.938166	0.018642	0.052581	99
Es	0.938333	0.063639	-0.007858	99
Es	-0.638889	-0.008373	-0.045450	99
Es	-0.000001	-0.000002	-0.000003	99
Es	1.455077	-0.017658	-0.006339	99
Es	0.641021	-0.051650	-0.033802	99
Es	0.938716	0.005526	0.048076	99
14
Properties=species:S:1:pos:R:3:Z:I:1 energy=-187.68919801779805 field_type=dipole dipole="0.000000 0.000000 0.000000" charge=0
O	-1.157569	0.000000	0.000000	8
O	1.157569	0.000000	0.000000	8
C	0.000000	0.000000	0.000000	6
Es	-1.455474	-0.012734	-0.002441	99
Es	0.940094	0.020216	-0.005542	99
Es	0.638574	-0.028805	-0.032443	99
Es	-1.157113	0.000026	-0.000005	99
Es	-0.938847	0.050182	-0.012496	99
Es	1.157109	0.000044	-0.000011	99
Es	0.938868	0.012755	0.047106	99
Es	-0.639310	-0.045840	-0.019098	99
Es	-0.939518	0.008305	0.034097	99
Es	1.455616	-0.004143	-0.009167	99
Es	-0.000000	-0.000005	0.000001	99
