33
Properties=species:S:1:pos:R:3:Z:I:1 energy=-230.7558690016106 field_type=dipole dipole="0.000000 0.000000 0.000000" charge=0
C	-1.213100	-0.688400	0.000000	6
C	-1.202800	0.706400	0.000100	6
C	-0.010300	-1.394800	0.000000	6
C	0.010400	1.394800	-0.000100	6
C	1.202800	-0.706300	0.000000	6
C	1.213100	0.688400	0.000000	6
H	-2.157700	-1.224400	0.000000	1
H	-2.139300	1.256400	0.000100	1
H	-0.018400	-2.480900	-0.000100	1
H	0.018400	2.480800	0.000000	1
H	2.139400	-1.256300	0.000100	1
H	2.157700	1.224500	0.000000	1
Es	-1.841493	1.078970	0.000116	99
Es	0.604549	-1.065004	0.000078	99
Es	-1.224452	0.009108	0.000003	99
Es	-1.202825	0.706416	0.000103	99
Es	0.010397	1.394828	-0.000098	99
Es	-0.013709	-2.134240	-0.000025	99
Es	1.075056	-0.008217	0.287545	99
Es	1.202826	-0.706313	-0.000000	99
Es	1.839383	-1.082569	0.000051	99
Es	0.017967	2.134159	-0.000165	99
Es	1.213125	0.688412	-0.000011	99
Es	-1.857266	-1.051478	-0.000041	99
Es	1.855165	1.055201	-0.000024	99
Es	-0.530711	0.935512	-0.287471	99
Es	-0.010302	-1.394829	-0.000000	99
Es	-1.213124	-0.688413	-0.000004	99
Es	0.620153	1.055953	0.000051	99
Es	-0.544818	-0.927400	0.287460	99
Es	1.075684	-0.008094	-0.287590	99
Es	-0.530546	0.935229	0.287562	99
Es	-0.544688	-0.926887	-0.287498	99
33
Properties=species:S:1:pos:R:3:Z:I:1 energy=-230.7558690016106 field_type=dipole dipole="0.000000 0.000000 0.000000" charge=0
C	-1.213100	-0.688400	0.000000	6
C	-1.202800	0.706400	0.000100	6
C	-0.010300	-1.394800	0.000000	6
C	0.010400	1.394800	-0.000100	6
C	1.202800	-0.706300	0.000000	6
C	1.213100	0.688400	0.000000	6
H	-2.157700	-1.224400	0.000000	1
H	-2.139300	1.256400	0.000100	1
H	-0.018400	-2.480900	-0.000100	1
H	0.018400	2.480800	0.000000	1
H	2.139400	-1.256300	0.000100	1
H	2.157700	1.224500	0.000000	1
Es	0.010400	1.394831	-0.000104	99
Es	1.213128	0.688415	-0.000002	99
Es	-1.858073	-1.054405	-0.000093	99
Es	-0.010300	-1.394831	-0.000001	99
Es	1.202827	-0.706316	-0.000001	99
Es	-0.654651	-0.684630	-0.000659	99
Es	-0.265604	0.909282	-0.000129	99
Es	-1.842254	1.081938	0.000159	99
Es	-1.202828	0.706416	0.000100	99
Es	0.598730	-1.054901	-0.000243	99
Es	-1.212983	0.009021	-0.000174	99
Es	0.614306	1.045888	-0.000277	99
Es	0.015861	2.136337	-0.000002	99
Es	-1.213128	-0.688416	0.000002	99
Es	1.842286	-1.081850	0.000054	99
Es	1.858042	1.054480	-0.000047	99
Es	-0.015835	-2.136386	-0.000005	99
Es	0.920316	-0.224599	-0.000788	99
Es	-0.614164	-1.045852	0.000997	99
Es	-0.598632	1.054925	0.000247	99
Es	1.212925	-0.009007	0.001008	99
33
Properties=species:S:1:pos:R:3:Z:I:1 energy=-230.7558690016106 field_type=dipole dipole="0.000000 0.000000 0.000000" charge=0
C	-1.213100	-0.688400	0.000000	6
C	-1.202800	0.706400	0.000100	6
C	-0.010300	-1.394800	0.000000	6
C	0.010400	1.394800	-0.000100	6
C	1.202800	-0.706300	0.000000	6
C	1.213100	0.688400	0.000000	6
H	-2.157700	-1.224400	0.000000	1
H	-2.139300	1.256400	0.000100	1
H	-0.018400	-2.480900	-0.000100	1
H	0.018400	2.480800	0.000000	1
H	2.139400	-1.256300	0.000100	1
H	2.157700	1.224500	0.000000	1
Es	1.858068	1.054440	0.000006	99
Es	-0.614226	-1.045890	0.000111	99
Es	-1.212932	0.009025	0.000057	99
Es	-0.598688	1.054944	-0.000076	99
Es	-1.202827	0.706416	0.000101	99
Es	0.032023	0.946729	0.000069	99
Es	1.202828	-0.706316	0.000000	99
Es	-1.842239	1.081940	0.000107	99
Es	0.614274	1.045913	-0.000116	99
Es	1.842299	-1.081842	0.000036	99
Es	0.010401	1.394822	-0.000055	99
Es	1.212915	-0.008985	0.000051	99
Es	0.803967	-0.501066	0.000007	99
Es	0.598720	-1.054890	-0.000047	99
Es	-0.015809	-2.136383	-0.000070	99
Es	-1.858062	-1.054409	0.000027	99
Es	0.015891	2.136327	-0.000077	99
Es	-1.213126	-0.688415	-0.000018	99
Es	-0.010300	-1.394832	0.000000	99
Es	1.213128	0.688416	0.000000	99
Es	-0.835932	-0.445601	-0.000073	99
33
Properties=species:S:1:pos:R:3:Z:I:1 energy=-230.7558690016106 field_type=dipole dipole="0.000000 0.000000 0.000000" charge=0
C	-1.213100	-0.688400	0.000000	6
C	-1.202800	0.706400	0.000100	6
C	-0.010300	-1.394800	0.000000	6
C	0.010400	1.394800	-0.000100	6
C	1.202800	-0.706300	0.000000	6
C	1.213100	0.688400	0.000000	6
H	-2.157700	-1.224400	0.000000	1
H	-2.139300	1.256400	0.000100	1
H	-0.018400	-2.480900	-0.000100	1
H	0.018400	2.480800	0.000000	1
H	2.139400	-1.256300	0.000100	1
H	2.157700	1.224500	0.000000	1
Es	1.213128	0.688416	-0.000002	99
Es	1.858045	1.054491	-0.000007	99
Es	0.800942	-0.505879	-0.000038	99
Es	-0.010300	-1.394832	-0.000000	99
Es	1.213010	-0.009003	0.000038	99
Es	1.842280	-1.081845	0.000033	99
Es	0.614263	1.045845	0.000102	99
Es	0.598701	-1.054899	-0.000016	99
Es	-0.015832	-2.136369	-0.000029	99
Es	0.037681	0.946532	-0.000116	99
Es	-1.213127	-0.688416	0.000002	99
Es	-1.212939	0.009036	0.000043	99
Es	-0.598670	1.054950	-0.000108	99
Es	1.202827	-0.706316	0.000012	99
Es	-1.842243	1.081946	0.000113	99
Es	0.015890	2.136326	-0.000041	99
Es	0.010400	1.394830	-0.000081	99
Es	-0.838563	-0.440599	0.000041	99
Es	-1.858068	-1.054391	0.000043	99
Es	-1.202827	0.706416	0.000100	99
Es	-0.614226	-1.045899	-0.000046	99
33
Properties=species:S:1:pos:R:3:Z:I:1 energy=-230.7558690016106 field_type=dipole dipole="0.000000 0.000000 0.000000" charge=0
C	-1.213100	-0.688400	0.000000	6
C	-1.202800	0.706400	0.000100	6
C	-0.010300	-1.394800	0.000000	6
C	0.010400	1.394800	-0.000100	6
C	1.202800	-0.706300	0.000000	6
C	1.213100	0.688400	0.000000	6
H	-2.157700	-1.224400	0.000000	1
H	-2.139300	1.256400	0.000100	1
H	-0.018400	-2.480900	-0.000100	1
H	0.018400	2.480800	0.000000	1
H	2.139400	-1.256300	0.000100	1
H	2.157700	1.224500	0.000000	1
Es	1.213127	0.688416	0.000000	99
Es	-1.858073	-1.054395	0.000014	99
Es	-1.212926	0.009034	-0.000193	99
Es	-1.842240	1.081948	0.000107	99
Es	1.842300	-1.081841	0.000049	99
Es	0.446009	-0.835710	0.000012	99
Es	-1.202827	0.706416	0.000100	99
Es	-0.946803	0.031692	0.000247	99
Es	0.598718	-1.054891	0.000001	99
Es	1.858067	1.054435	-0.000001	99
Es	0.614266	1.045903	-0.000216	99
Es	1.202827	-0.706316	0.000001	99
Es	0.500855	0.804072	0.000054	99
Es	-0.015820	-2.136378	-0.000041	99
Es	0.015879	2.136334	-0.000023	99
Es	1.212933	-0.008987	0.000005	99
Es	0.010400	1.394831	-0.000100	99
Es	-0.598660	1.054932	0.000044	99
Es	-1.213128	-0.688416	-0.000002	99
Es	-0.010300	-1.394832	-0.000004	99
Es	-0.614234	-1.045905	-0.000011	99
33
Properties=species:S:1:pos:R:3:Z:I:1 energy=-230.7558690016106 field_type=dipole dipole="0.000000 0.000000 0.000000" charge=0
C	-1.213100	-0.688400	0.000000	6
C	-1.202800	0.706400	0.000100	6
C	-0.010300	-1.394800	0.000000	6
C	0.010400	1.394800	-0.000100	6
C	1.202800	-0.706300	0.000000	6
C	1.213100	0.688400	0.000000	6
H	-2.157700	-1.224400	0.000000	1
H	-2.139300	1.256400	0.000100	1
H	-0.018400	-2.480900	-0.000100	1
H	0.018400	2.480800	0.000000	1
H	2.139400	-1.256300	0.000100	1
H	2.157700	1.224500	0.000000	1
Es	1.213128	0.688416	0.000000	99
Es	-0.486252	-0.812902	0.000013	99
Es	1.858064	1.054444	0.000018	99
Es	0.598697	-1.054899	-0.000031	99
Es	0.010400	1.394832	-0.000100	99
Es	1.212938	-0.008998	-0.000199	99
Es	1.202828	-0.706316	-0.000000	99
Es	-0.010300	-1.394832	0.000003	99
Es	-0.614235	-1.045898	-0.000040	99
Es	-1.202827	0.706416	0.000100	99
Es	-0.015803	-2.136382	-0.000032	99
Es	0.947233	-0.014631	0.000145	99
Es	0.614272	1.045903	0.000001	99
Es	-0.598677	1.054950	-0.000321	99
Es	-1.213128	-0.688416	0.000000	99
Es	0.015896	2.136322	-0.000045	99
Es	-1.842239	1.081937	0.000118	99
Es	1.842303	-1.081829	0.000061	99
Es	-1.212935	0.009032	0.000159	99
Es	-1.858071	-1.054394	-0.000008	99
Es	-0.460921	0.827586	0.000200	99
33
Properties=species:S:1:pos:R:3:Z:I:1 energy=-230.7558690016106 field_type=dipole dipole="0.000000 0.000000 0.000000" charge=0
C	-1.213100	-0.688400	0.000000	6
C	-1.202800	0.706400	0.000100	6
C	-0.010300	-1.394800	0.000000	6
C	0.010400	1.394800	-0.000100	6
C	1.202800	-0.706300	0.000000	6
C	1.213100	0.688400	0.000000	6
H	-2.157700	-1.224400	0.000000	1
H	-2.139300	1.256400	0.000100	1
H	-0.018400	-2.480900	-0.000100	1
H	0.018400	2.480800	0.000000	1
H	2.139400	-1.256300	0.000100	1
H	2.157700	1.224500	0.000000	1
Es	0.614276	1.045895	-0.000121	99
Es	0.200090	0.925907	0.000035	99
Es	-1.858073	-1.054397	-0.000005	99
Es	1.202827	-0.706316	0.000005	99
Es	1.213128	0.688416	-0.000001	99
Es	1.212922	-0.008994	0.000044	99
Es	1.842301	-1.081817	0.000042	99
Es	-1.202827	0.706416	0.000099	99
Es	-0.901917	-0.289628	-0.000019	99
Es	0.598706	-1.054918	-0.000102	99
Es	0.015888	2.136330	-0.000041	99
Es	-1.842249	1.081927	0.000108	99
Es	0.701887	-0.636226	0.000064	99
Es	-1.213128	-0.688416	-0.000005	99
Es	-0.598655	1.054952	-0.000047	99
Es	1.858080	1.054435	-0.000009	99
Es	-1.212920	0.009052	0.000077	99
Es	-0.010300	-1.394832	0.000001	99
Es	0.010400	1.394832	-0.000099	99
Es	-0.015829	-2.136383	-0.000048	99
Es	-0.614235	-1.045893	0.000064	99
33
Properties=species:S:1:pos:R:3:Z:I:1 energy=-230.7558690016106 field_type=dipole dipole="0.000000 0.000000 0.000000" charge=0
C	-1.213100	-0.688400	0.000000	6
C	-1.202800	0.706400	0.000100	6
C	-0.010300	-1.394800	0.000000	6
C	0.010400	1.394800	-0.000100	6
C	1.202800	-0.706300	0.000000	6
C	1.213100	0.688400	0.000000	6
H	-2.157700	-1.224400	0.000000	1
H	-2.139300	1.256400	0.000100	1
H	-0.018400	-2.480900	-0.000100	1
H	0.018400	2.480800	0.000000	1
H	2.139400	-1.256300	0.000100	1
H	2.157700	1.224500	0.000000	1
Es	1.858065	1.054448	-0.000004	99
Es	-0.925705	0.201282	0.000036	99
Es	0.614276	1.045901	-0.000051	99
Es	1.212933	-0.008989	-0.000007	99
Es	1.842301	-1.081835	0.000055	99
Es	1.202827	-0.706316	-0.000000	99
Es	-1.213128	-0.688416	0.000000	99
Es	0.637166	0.701014	-0.000052	99
Es	-1.202827	0.706416	0.000099	99
Es	-0.015820	-2.136376	-0.000039	99
Es	-0.010300	-1.394832	0.000000	99
Es	-0.614230	-1.045902	-0.000046	99
Es	0.010400	1.394832	-0.000100	99
Es	-1.212924	0.009028	0.000047	99
Es	0.598720	-1.054897	0.000006	99
Es	0.015870	2.136330	-0.000054	99
Es	1.213128	0.688416	-0.000000	99
Es	-0.598672	1.054954	0.000017	99
Es	0.288599	-0.902243	0.000015	99
Es	-1.842242	1.081927	0.000104	99
Es	-1.858067	-1.054399	0.000012	99
33
Properties=species:S:1:pos:R:3:Z:I:1 energy=-230.7558690016106 field_type=dipole dipole="0.000000 0.000000 0.000000" charge=0
C	-1.213100	-0.688400	0.000000	6
C	-1.202800	0.706400	0.000100	6
C	-0.010300	-1.394800	0.000000	6
C	0.010400	1.394800	-0.000100	6
C	1.202800	-0.706300	0.000000	6
C	1.213100	0.688400	0.000000	6
H	-2.157700	-1.224400	0.000000	1
H	-2.139300	1.256400	0.000100	1
H	-0.018400	-2.480900	-0.000100	1
H	0.018400	2.480800	0.000000	1
H	2.139400	-1.256300	0.000100	1
H	2.157700	1.224500	0.000000	1
Es	-0.002599	-0.947245	0.000039	99
Es	-0.010300	-1.394831	0.000009	99
Es	-0.819090	0.475942	0.000061	99
Es	-1.213128	-0.688416	-0.000000	99
Es	-0.614226	-1.045890	0.000005	99
Es	0.015895	2.136330	-0.000062	99
Es	1.212936	-0.008988	-0.000016	99
Es	0.821749	0.471355	0.000020	99
Es	-1.858065	-1.054402	-0.000008	99
Es	0.598712	-1.054897	-0.000033	99
Es	0.614262	1.045892	-0.000070	99
Es	1.213128	0.688416	0.000005	99
Es	1.202827	-0.706316	-0.000000	99
Es	0.010400	1.394832	-0.000100	99
Es	1.858068	1.054440	-0.000016	99
Es	-1.212933	0.009036	0.000060	99
Es	-0.598674	1.054948	-0.000018	99
Es	1.842300	-1.081840	0.000045	99
Es	-1.202827	0.706416	0.000099	99
Es	-1.842243	1.081940	0.000088	99
Es	-0.015820	-2.136381	-0.000065	99
33
Properties=species:S:1:pos:R:3:Z:I:1 energy=-230.7558690016106 field_type=dipole dipole="0.000000 0.000000 0.000000" charge=0
C	-1.213100	-0.688400	0.000000	6
C	-1.202800	0.706400	0.000100	6
C	-0.010300	-1.394800	0.000000	6
C	0.010400	1.394800	-0.000100	6
C	1.202800	-0.706300	0.000000	6
C	1.213100	0.688400	0.000000	6
H	-2.157700	-1.224400	0.000000	1
H	-2.139300	1.256400	0.000100	1
H	-0.018400	-2.480900	-0.000100	1
H	0.018400	2.480800	0.000000	1
H	2.139400	-1.256300	0.000100	1
H	2.157700	1.224500	0.000000	1
Es	0.614277	1.045892	-0.000074	99
Es	-0.598662	1.054945	-0.000023	99
Es	-1.842244	1.081941	0.000111	99
Es	-1.213128	-0.688416	-0.000002	99
Es	-1.212937	0.009041	0.000090	99
Es	1.202827	-0.706316	-0.000001	99
Es	1.842301	-1.081835	0.000039	99
Es	1.212919	-0.008988	0.000061	99
Es	-0.010300	-1.394832	0.000000	99
Es	1.213128	0.688416	-0.000000	99
Es	0.696222	-0.642406	-0.000051	99
Es	-1.202827	0.706416	0.000100	99
Es	-1.858061	-1.054398	0.000011	99
Es	0.598731	-1.054895	0.000015	99
Es	0.015877	2.136331	-0.000047	99
Es	-0.904463	-0.281629	-0.000021	99
Es	-0.614230	-1.045915	0.000023	99
Es	-0.015833	-2.136372	-0.000057	99
Es	0.010400	1.394832	-0.000100	99
Es	0.208301	0.924088	-0.000040	99
Es	1.858072	1.054441	0.000006	99
33
Properties=species:S:1:pos:R:3:Z:I:1 energy=-230.7558690016106 field_type=dipole dipole="0.000000 0.000000 0.000000" charge=0
C	-1.213100	-0.688400	0.000000	6
C	-1.202800	0.706400	0.000100	6
C	-0.010300	-1.394800	0.000000	6
C	0.010400	1.394800	-0.000100	6
C	1.202800	-0.706300	0.000000	6
C	1.213100	0.688400	0.000000	6
H	-2.157700	-1.224400	0.000000	1
H	-2.139300	1.256400	0.000100	1
H	-0.018400	-2.480900	-0.000100	1
H	0.018400	2.480800	0.000000	1
H	2.139400	-1.256300	0.000100	1
H	2.157700	1.224500	0.000000	1
Es	0.544900	0.927043	-0.287802	99
Es	1.841550	-1.078905	0.000118	99
Es	-0.017922	-2.134219	-0.000001	99
Es	-1.075123	0.008334	-0.287650	99
Es	0.013675	2.134163	0.000020	99
Es	0.544935	0.927138	0.287374	99
Es	0.530316	-0.934963	-0.287595	99
Es	0.530801	-0.935895	0.287286	99
Es	-0.604404	1.065026	0.000119	99
Es	-1.202825	0.706411	0.000106	99
Es	0.010405	1.394826	-0.000095	99
Es	-0.620071	-1.055929	0.000244	99
Es	1.202823	-0.706317	0.000002	99
Es	-0.010299	-1.394831	-0.000006	99
Es	-1.839298	1.082676	0.000174	99
Es	1.857260	1.051557	0.000011	99
Es	-1.075760	0.008375	0.287453	99
Es	-1.213126	-0.688415	0.000007	99
Es	1.224512	-0.009010	0.000197	99
Es	1.213123	0.688416	0.000005	99
Es	-1.855099	-1.055141	0.000075	99
33
Properties=species:S:1:pos:R:3:Z:I:1 energy=-230.7558690016106 field_type=dipole dipole="0.000000 0.000000 0.000000" charge=0
C	-1.213100	-0.688400	0.000000	6
C	-1.202800	0.706400	0.000100	6
C	-0.010300	-1.394800	0.000000	6
C	0.010400	1.394800	-0.000100	6
C	1.202800	-0.706300	0.000000	6
C	1.213100	0.688400	0.000000	6
H	-2.157700	-1.224400	0.000000	1
H	-2.139300	1.256400	0.000100	1
H	-0.018400	-2.480900	-0.000100	1
H	0.018400	2.480800	0.000000	1
H	2.139400	-1.256300	0.000100	1
H	2.157700	1.224500	0.000000	1
Es	-1.855176	-1.055144	-0.000044	99
Es	-0.010299	-1.394829	-0.000001	99
Es	1.224486	-0.008978	-0.000278	99
Es	1.202824	-0.706316	0.000000	99
Es	-1.839315	1.082703	0.000104	99
Es	-0.604339	1.064967	-0.000622	99
Es	0.531065	-0.935587	-0.287209	99
Es	0.530653	-0.935049	0.287558	99
Es	-1.213126	-0.688413	-0.000002	99
Es	-0.620120	-1.055893	-0.000048	99
Es	0.543638	0.925783	0.287769	99
Es	-1.075076	0.007940	0.287613	99
Es	1.213125	0.688416	0.000001	99
Es	1.857262	1.051544	-0.000094	99
Es	-1.075676	0.008057	-0.287274	99
Es	0.010402	1.394829	-0.000100	99
Es	-0.017919	-2.134230	-0.000149	99
Es	0.545534	0.928845	-0.287136	99
Es	1.841521	-1.078924	-0.000037	99
Es	0.013729	2.134210	-0.000113	99
Es	-1.202826	0.706413	0.000102	99
33
Properties=species:S:1:pos:R:3:Z:I:1 energy=-230.7558690016106 field_type=dipole dipole="0.000000 0.000000 0.000000" charge=0
C	-1.213100	-0.688400	0.000000	6
C	-1.202800	0.706400	0.000100	6
C	-0.010300	-1.394800	0.000000	6
C	0.010400	1.394800	-0.000100	6
C	1.202800	-0.706300	0.000000	6
C	1.213100	0.688400	0.000000	6
H	-2.157700	-1.224400	0.000000	1
H	-2.139300	1.256400	0.000100	1
H	-0.018400	-2.480900	-0.000100	1
H	0.018400	2.480800	0.000000	1
H	2.139400	-1.256300	0.000100	1
H	2.157700	1.224500	0.000000	1
Es	1.213117	0.688417	-0.000000	99
Es	-0.017958	-2.134198	-0.000097	99
Es	-1.855140	-1.055196	0.000018	99
Es	0.544346	0.927385	0.287399	99
Es	-1.075086	0.007731	0.287604	99
Es	-0.604378	1.065099	-0.000038	99
Es	1.841532	-1.078890	0.000121	99
Es	-1.202825	0.706413	0.000105	99
Es	1.857273	1.051594	0.000102	99
Es	0.531164	-0.935327	-0.287454	99
Es	1.202825	-0.706317	-0.000001	99
Es	-0.620103	-1.055873	-0.000007	99
Es	1.224481	-0.009144	-0.000246	99
Es	0.531028	-0.934950	0.287629	99
Es	-1.213126	-0.688412	0.000012	99
Es	-1.839297	1.082668	0.000110	99
Es	0.010401	1.394830	-0.000102	99
Es	-0.010299	-1.394829	0.000002	99
Es	-1.075721	0.007792	-0.287516	99
Es	0.013722	2.134191	-0.000067	99
Es	0.544415	0.927358	-0.287534	99
33
Properties=species:S:1:pos:R:3:Z:I:1 energy=-230.7558690016106 field_type=dipole dipole="0.000000 0.000000 0.000000" charge=0
C	-1.213100	-0.688400	0.000000	6
C	-1.202800	0.706400	0.000100	6
C	-0.010300	-1.394800	0.000000	6
C	0.010400	1.394800	-0.000100	6
C	1.202800	-0.706300	0.000000	6
C	1.213100	0.688400	0.000000	6
H	-2.157700	-1.224400	0.000000	1
H	-2.139300	1.256400	0.000100	1
H	-0.018400	-2.480900	-0.000100	1
H	0.018400	2.480800	0.000000	1
H	2.139400	-1.256300	0.000100	1
H	2.157700	1.224500	0.000000	1
Es	-1.842243	1.081940	0.000122	99
Es	-1.202827	0.706417	0.000098	99
Es	0.735429	0.597123	-0.000089	99
Es	-1.213129	-0.688416	-0.000001	99
Es	0.015880	2.136325	-0.000072	99
Es	1.212915	-0.009003	0.000004	99
Es	1.858075	1.054431	-0.000000	99
Es	0.010400	1.394831	-0.000100	99
Es	1.202828	-0.706316	0.000000	99
Es	1.213128	0.688414	0.000010	99
Es	-0.614206	-1.045894	0.000009	99
Es	-0.015860	-2.136377	-0.000021	99
Es	0.614301	1.045932	-0.000026	99
Es	-0.598665	1.054931	-0.000009	99
Es	0.149459	-0.935425	0.000003	99
Es	-1.858083	-1.054372	0.000013	99
Es	0.598724	-1.054910	-0.000028	99
Es	-0.010300	-1.394831	-0.000002	99
Es	1.842297	-1.081837	0.000054	99
Es	-0.884827	0.338356	0.000342	99
Es	-1.212925	0.009026	-0.000264	99
33
Properties=species:S:1:pos:R:3:Z:I:1 energy=-230.7558690016106 field_type=dipole dipole="0.000000 0.000000 0.000000" charge=0
C	-1.213100	-0.688400	0.000000	6
C	-1.202800	0.706400	0.000100	6
C	-0.010300	-1.394800	0.000000	6
C	0.010400	1.394800	-0.000100	6
C	1.202800	-0.706300	0.000000	6
C	1.213100	0.688400	0.000000	6
H	-2.157700	-1.224400	0.000000	1
H	-2.139300	1.256400	0.000100	1
H	-0.018400	-2.480900	-0.000100	1
H	0.018400	2.480800	0.000000	1
H	2.139400	-1.256300	0.000100	1
H	2.157700	1.224500	0.000000	1
Es	1.212911	-0.008977	0.001594	99
Es	-0.015834	-2.136371	-0.000073	99
Es	-0.598665	1.054944	0.000063	99
Es	0.010400	1.394832	-0.000100	99
Es	-0.499745	0.804751	-0.000064	99
Es	0.598737	-1.054921	-0.000151	99
Es	-1.202827	0.706416	0.000100	99
Es	-1.842247	1.081934	0.000137	99
Es	-0.614237	-1.045918	0.000791	99
Es	1.842288	-1.081834	-0.000009	99
Es	1.213128	0.688416	0.000000	99
Es	-0.447050	-0.835098	-0.000691	99
Es	-1.858068	-1.054381	0.000001	99
Es	1.202828	-0.706316	0.000002	99
Es	-1.212926	0.009047	0.000049	99
Es	0.614283	1.045911	-0.000076	99
Es	1.858079	1.054430	-0.000073	99
Es	0.015888	2.136326	-0.000063	99
Es	-0.010300	-1.394832	-0.000000	99
Es	0.946858	0.030400	-0.001398	99
Es	-1.213127	-0.688416	0.000002	99
33
Properties=species:S:1:pos:R:3:Z:I:1 energy=-230.7558690016106 field_type=dipole dipole="0.000000 0.000000 0.000000" charge=0
C	-1.213100	-0.688400	0.000000	6
C	-1.202800	0.706400	0.000100	6
C	-0.010300	-1.394800	0.000000	6
C	0.010400	1.394800	-0.000100	6
C	1.202800	-0.706300	0.000000	6
C	1.213100	0.688400	0.000000	6
H	-2.157700	-1.224400	0.000000	1
H	-2.139300	1.256400	0.000100	1
H	-0.018400	-2.480900	-0.000100	1
H	0.018400	2.480800	0.000000	1
H	2.139400	-1.256300	0.000100	1
H	2.157700	1.224500	0.000000	1
Es	-0.668168	-0.671425	-0.000074	99
Es	-1.212930	0.009019	0.000062	99
Es	-1.842242	1.081941	0.000118	99
Es	1.212915	-0.008995	0.000119	99
Es	-1.858079	-1.054377	-0.000009	99
Es	1.842308	-1.081796	0.000019	99
Es	-0.010300	-1.394832	-0.000000	99
Es	1.202828	-0.706316	-0.000005	99
Es	0.010400	1.394832	-0.000100	99
Es	-0.614219	-1.045902	0.000074	99
Es	-1.213127	-0.688416	0.000000	99
Es	-0.015813	-2.136378	-0.000056	99
Es	0.614285	1.045895	-0.000073	99
Es	-1.202828	0.706416	0.000100	99
Es	0.915648	-0.242931	-0.000076	99
Es	1.858069	1.054454	-0.000009	99
Es	0.015889	2.136317	-0.000034	99
Es	-0.247420	0.914410	-0.000095	99
Es	0.598713	-1.054939	0.000041	99
Es	1.213128	0.688416	0.000000	99
Es	-0.598684	1.054948	0.000042	99
33
Properties=species:S:1:pos:R:3:Z:I:1 energy=-230.7558690016106 field_type=dipole dipole="0.000000 0.000000 0.000000" charge=0
C	-1.213100	-0.688400	0.000000	6
C	-1.202800	0.706400	0.000100	6
C	-0.010300	-1.394800	0.000000	6
C	0.010400	1.394800	-0.000100	6
C	1.202800	-0.706300	0.000000	6
C	1.213100	0.688400	0.000000	6
H	-2.157700	-1.224400	0.000000	1
H	-2.139300	1.256400	0.000100	1
H	-0.018400	-2.480900	-0.000100	1
H	0.018400	2.480800	0.000000	1
H	2.139400	-1.256300	0.000100	1
H	2.157700	1.224500	0.000000	1
Es	1.213128	0.688416	0.000001	99
Es	1.212933	-0.008992	0.000004	99
Es	-1.202827	0.706416	0.000100	99
Es	1.858065	1.054442	-0.000010	99
Es	-0.010300	-1.394831	0.000001	99
Es	-1.858068	-1.054373	0.000032	99
Es	1.202827	-0.706316	0.000004	99
Es	1.842298	-1.081827	0.000039	99
Es	0.322389	0.890734	-0.000076	99
Es	0.015888	2.136333	-0.000056	99
Es	0.010400	1.394832	-0.000099	99
Es	-0.015824	-2.136383	-0.000063	99
Es	0.598713	-1.054902	0.000010	99
Es	-1.212912	0.009042	0.000005	99
Es	-0.614237	-1.045935	-0.000049	99
Es	-0.598671	1.054954	0.000003	99
Es	0.614269	1.045892	-0.000015	99
Es	-0.932632	-0.166179	0.000057	99
Es	-1.842244	1.081937	0.000113	99
Es	0.610304	-0.724501	0.000042	99
Es	-1.213128	-0.688416	0.000000	99
33
Properties=species:S:1:pos:R:3:Z:I:1 energy=-230.7558690016106 field_type=dipole dipole="0.000000 0.000000 0.000000" charge=0
C	-1.213100	-0.688400	0.000000	6
C	-1.202800	0.706400	0.000100	6
C	-0.010300	-1.394800	0.000000	6
C	0.010400	1.394800	-0.000100	6
C	1.202800	-0.706300	0.000000	6
C	1.213100	0.688400	0.000000	6
H	-2.157700	-1.224400	0.000000	1
H	-2.139300	1.256400	0.000100	1
H	-0.018400	-2.480900	-0.000100	1
H	0.018400	2.480800	0.000000	1
H	2.139400	-1.256300	0.000100	1
H	2.157700	1.224500	0.000000	1
Es	0.614266	1.045898	0.000073	99
Es	1.202827	-0.706316	0.000000	99
Es	-0.614229	-1.045898	-0.000063	99
Es	-1.858066	-1.054400	-0.000001	99
Es	1.213128	0.688416	0.000000	99
Es	1.842302	-1.081822	0.000053	99
Es	-0.892673	0.317140	0.000022	99
Es	1.858071	1.054441	-0.000020	99
Es	-0.010300	-1.394832	-0.000001	99
Es	-1.842241	1.081939	0.000092	99
Es	1.212926	-0.008989	-0.000057	99
Es	0.721000	0.614478	-0.000074	99
Es	-0.598660	1.054936	-0.000057	99
Es	0.015884	2.136336	-0.000063	99
Es	0.598715	-1.054910	0.000147	99
Es	-1.212936	0.009038	0.000149	99
Es	-0.015821	-2.136379	-0.000041	99
Es	-1.213128	-0.688416	0.000000	99
Es	0.171734	-0.931565	-0.000120	99
Es	0.010400	1.394832	-0.000100	99
Es	-1.202827	0.706416	0.000102	99
33
Properties=species:S:1:pos:R:3:Z:I:1 energy=-230.7558690016106 field_type=dipole dipole="0.000000 0.000000 0.000000" charge=0
C	-1.213100	-0.688400	0.000000	6
C	-1.202800	0.706400	0.000100	6
C	-0.010300	-1.394800	0.000000	6
C	0.010400	1.394800	-0.000100	6
C	1.202800	-0.706300	0.000000	6
C	1.213100	0.688400	0.000000	6
H	-2.157700	-1.224400	0.000000	1
H	-2.139300	1.256400	0.000100	1
H	-0.018400	-2.480900	-0.000100	1
H	0.018400	2.480800	0.000000	1
H	2.139400	-1.256300	0.000100	1
H	2.157700	1.224500	0.000000	1
Es	-0.010300	-1.394832	0.000000	99
Es	-1.842243	1.081939	0.000124	99
Es	-0.598669	1.054945	-0.000004	99
Es	0.798092	-0.510342	-0.000132	99
Es	0.598716	-1.054898	0.000074	99
Es	-1.858065	-1.054381	0.000014	99
Es	1.212924	-0.008995	0.000097	99
Es	1.213128	0.688416	0.000001	99
Es	0.042996	0.946303	-0.000138	99
Es	-0.015818	-2.136378	-0.000068	99
Es	-0.841027	-0.435909	0.000081	99
Es	-1.212939	0.009034	0.000002	99
Es	0.010400	1.394832	-0.000101	99
Es	1.202827	-0.706316	-0.000012	99
Es	1.858066	1.054441	-0.000016	99
Es	-1.213127	-0.688415	-0.000014	99
Es	-0.614225	-1.045914	0.000013	99
Es	1.842305	-1.081834	0.000036	99
Es	0.015880	2.136327	-0.000064	99
Es	0.614278	1.045902	0.000051	99
Es	-1.202827	0.706416	0.000100	99
33
Properties=species:S:1:pos:R:3:Z:I:1 energy=-230.7558690016106 field_type=dipole dipole="0.000000 0.000000 0.000000" charge=0
C	-1.213100	-0.688400	0.000000	6
C	-1.202800	0.706400	0.000100	6
C	-0.010300	-1.394800	0.000000	6
C	0.010400	1.394800	-0.000100	6
C	1.202800	-0.706300	0.000000	6
C	1.213100	0.688400	0.000000	6
H	-2.157700	-1.224400	0.000000	1
H	-2.139300	1.256400	0.000100	1
H	-0.018400	-2.480900	-0.000100	1
H	0.018400	2.480800	0.000000	1
H	2.139400	-1.256300	0.000100	1
H	2.157700	1.224500	0.000000	1
Es	-0.598661	1.054933	-0.000069	99
Es	1.212935	-0.008989	0.000011	99
Es	-1.842235	1.081947	0.000110	99
Es	-1.212954	0.009037	0.000084	99
Es	-0.015834	-2.136382	-0.000070	99
Es	0.195810	-0.926800	0.000015	99
Es	0.015890	2.136334	-0.000060	99
Es	-1.213128	-0.688416	-0.000001	99
Es	-0.900598	0.293932	0.000055	99
Es	-0.010300	-1.394832	-0.000002	99
Es	1.213128	0.688416	-0.000000	99
Es	1.202827	-0.706316	0.000000	99
Es	1.842296	-1.081840	0.000054	99
Es	0.704849	0.632921	-0.000119	99
Es	-1.202827	0.706416	0.000099	99
Es	1.858064	1.054443	-0.000011	99
Es	0.598721	-1.054898	0.000008	99
Es	0.614266	1.045901	0.000045	99
Es	-0.614217	-1.045896	-0.000006	99
Es	-1.858060	-1.054400	0.000002	99
Es	0.010400	1.394832	-0.000100	99
33
Properties=species:S:1:pos:R:3:Z:I:1 energy=-230.7558690016106 field_type=dipole dipole="0.000000 0.000000 0.000000" charge=0
C	-1.213100	-0.688400	0.000000	6
C	-1.202800	0.706400	0.000100	6
C	-0.010300	-1.394800	0.000000	6
C	0.010400	1.394800	-0.000100	6
C	1.202800	-0.706300	0.000000	6
C	1.213100	0.688400	0.000000	6
H	-2.157700	-1.224400	0.000000	1
H	-2.139300	1.256400	0.000100	1
H	-0.018400	-2.480900	-0.000100	1
H	0.018400	2.480800	0.000000	1
H	2.139400	-1.256300	0.000100	1
H	2.157700	1.224500	0.000000	1
Es	1.858076	1.054436	-0.000005	99
Es	1.212929	-0.008985	0.000043	99
Es	0.175614	-0.930845	0.000001	99
Es	-1.842243	1.081949	0.000109	99
Es	0.718430	0.617479	-0.000073	99
Es	-0.614225	-1.045897	-0.000005	99
Es	0.015885	2.136335	-0.000052	99
Es	1.842297	-1.081834	0.000052	99
Es	-1.202827	0.706416	0.000101	99
Es	0.010400	1.394832	-0.000100	99
Es	-0.015822	-2.136377	-0.000059	99
Es	-1.212940	0.009036	0.000083	99
Es	-0.893984	0.313420	0.000031	99
Es	1.202827	-0.706316	0.000002	99
Es	-1.858067	-1.054398	-0.000003	99
Es	0.598715	-1.054902	-0.000008	99
Es	-0.010300	-1.394832	0.000003	99
Es	0.614265	1.045901	-0.000056	99
Es	-0.598660	1.054925	-0.000021	99
Es	-1.213128	-0.688416	0.000000	99
Es	1.213128	0.688416	-0.000000	99
33
Properties=species:S:1:pos:R:3:Z:I:1 energy=-230.7558690016106 field_type=dipole dipole="0.000000 0.000000 0.000000" charge=0
C	-1.213100	-0.688400	0.000000	6
C	-1.202800	0.706400	0.000100	6
C	-0.010300	-1.394800	0.000000	6
C	0.010400	1.394800	-0.000100	6
C	1.202800	-0.706300	0.000000	6
C	1.213100	0.688400	0.000000	6
H	-2.157700	-1.224400	0.000000	1
H	-2.139300	1.256400	0.000100	1
H	-0.018400	-2.480900	-0.000100	1
H	0.018400	2.480800	0.000000	1
H	2.139400	-1.256300	0.000100	1
H	2.157700	1.224500	0.000000	1
Es	0.598723	-1.054914	0.000033	99
Es	-1.213128	-0.688416	0.000001	99
Es	0.482926	0.814949	-0.000071	99
Es	-0.947269	0.010753	-0.000050	99
Es	1.212925	-0.008992	-0.000002	99
Es	0.464403	-0.825649	-0.000015	99
Es	-0.614224	-1.045900	-0.000007	99
Es	-0.015833	-2.136377	-0.000058	99
Es	-1.212941	0.009045	0.000150	99
Es	-1.842245	1.081939	0.000103	99
Es	-1.858061	-1.054395	0.000006	99
Es	1.213128	0.688416	0.000001	99
Es	-1.202827	0.706416	0.000100	99
Es	0.010400	1.394832	-0.000100	99
Es	0.015888	2.136333	-0.000049	99
Es	1.858069	1.054440	-0.000001	99
Es	1.842306	-1.081824	0.000053	99
Es	1.202827	-0.706316	0.000000	99
Es	-0.598661	1.054941	-0.000024	99
Es	0.614265	1.045894	-0.000029	99
Es	-0.010300	-1.394832	0.000000	99
