32
Properties=species:S:1:pos:R:3:Z:I:1 energy=-698.1300910273342 field_type=dipole dipole="0.000000 0.000000 0.000000" charge=0
S	0.000200	-0.000200	-0.118100	16
O	1.274400	0.035500	0.897500	8
O	-1.276500	-0.032600	0.894900	8
O	-0.033600	1.257700	-0.839100	8
O	0.035400	-1.260400	-0.835100	8
H	1.211100	0.691200	1.631200	1
H	-1.214800	-0.685900	1.630700	1
Es	-0.085334	0.757405	-0.594678	99
Es	0.013694	-0.760218	-0.563196	99
Es	0.061384	-0.011794	-0.101941	99
Es	-0.790249	-0.024522	0.615817	99
Es	-0.296277	1.301538	-0.846994	99
Es	0.025709	-0.019269	-0.055929	99
Es	-1.333214	0.250254	0.987169	99
Es	-1.276007	-0.032743	0.894812	99
Es	0.170557	1.136386	-1.019137	99
Es	1.191512	0.382093	1.247464	99
Es	-0.086000	-0.092728	-0.152899	99
Es	0.128181	-1.204535	-0.931031	99
Es	-1.406509	-0.129138	0.698019	99
Es	-0.034103	1.246371	-0.832913	99
Es	1.488704	0.120332	0.701446	99
Es	-0.243143	-1.234677	-0.883841	99
Es	0.040883	0.060693	-0.201238	99
Es	1.273018	0.037428	0.891711	99
Es	-1.229380	-0.396072	1.249724	99
Es	-0.040285	0.061970	-0.077645	99
Es	0.083420	1.308332	-0.576854	99
Es	0.802734	0.035061	0.595261	99
Es	0.140026	-1.374150	-0.574050	99
Es	0.130837	-1.188793	-0.900076	99
Es	1.268850	-0.228304	1.021245	99
32
Properties=species:S:1:pos:R:3:Z:I:1 energy=-698.1300910273342 field_type=dipole dipole="0.000000 0.000000 0.000000" charge=0
S	0.000200	-0.000200	-0.118100	16
O	1.274400	0.035500	0.897500	8
O	-1.276500	-0.032600	0.894900	8
O	-0.033600	1.257700	-0.839100	8
O	0.035400	-1.260400	-0.835100	8
H	1.211100	0.691200	1.631200	1
H	-1.214800	-0.685900	1.630700	1
Es	1.196999	0.394541	1.244977	99
Es	0.267586	-1.175340	-0.970870	99
Es	1.461918	0.114770	0.717548	99
Es	0.000350	0.000113	-0.118252	99
Es	-0.076825	0.777819	-0.537564	99
Es	-1.208300	-0.368622	1.267982	99
Es	-0.031286	1.245348	-0.837496	99
Es	-1.404671	-0.163585	0.687613	99
Es	1.280049	0.034158	0.898010	99
Es	0.217115	1.118064	-0.877399	99
Es	-0.068044	0.089928	-0.090986	99
Es	0.074423	0.034270	-0.197021	99
Es	0.063418	-1.378610	-0.566343	99
Es	0.041415	-0.763295	-0.555964	99
Es	-0.066886	-0.100495	-0.157742	99
Es	-0.044497	1.453326	-0.612525	99
Es	-0.225436	1.155629	-1.005624	99
Es	-0.186017	-1.205023	-0.920659	99
Es	-0.016624	-1.240828	-0.838580	99
Es	0.060765	-0.024284	-0.025480	99
Es	-1.275522	-0.026752	0.897147	99
Es	-0.794378	-0.021274	0.626770	99
Es	1.262201	-0.260257	1.020404	99
Es	-1.352287	0.248259	0.966425	99
Es	0.823540	0.063061	0.575873	99
32
Properties=species:S:1:pos:R:3:Z:I:1 energy=-698.1300910273342 field_type=dipole dipole="0.000000 0.000000 0.000000" charge=0
S	0.000200	-0.000200	-0.118100	16
O	1.274400	0.035500	0.897500	8
O	-1.276500	-0.032600	0.894900	8
O	-0.033600	1.257700	-0.839100	8
O	0.035400	-1.260400	-0.835100	8
H	1.211100	0.691200	1.631200	1
H	-1.214800	-0.685900	1.630700	1
Es	1.198800	0.392904	1.243885	99
Es	0.042256	-1.209823	-1.070200	99
Es	0.166021	-1.399570	-0.606197	99
Es	-1.231435	0.263496	0.996810	99
Es	-0.015761	-0.014750	-0.128733	99
Es	-0.015843	1.162311	-1.002047	99
Es	1.274387	0.035435	0.897979	99
Es	0.114697	-0.754351	-0.603587	99
Es	-0.065025	1.231294	-0.876429	99
Es	-1.277301	-0.033539	0.893508	99
Es	-0.190291	-1.150580	-0.712056	99
Es	-1.462052	-0.083317	0.730315	99
Es	0.061715	-0.032138	-0.217263	99
Es	0.819659	0.063046	0.574916	99
Es	-0.006272	0.126875	-0.082005	99
Es	1.261232	-0.258460	1.025085	99
Es	0.238714	1.274810	-0.705138	99
Es	-0.837681	-0.095885	0.562775	99
Es	-0.054811	-0.077327	-0.053738	99
Es	-0.069863	0.743728	-0.609240	99
Es	0.015661	-0.003966	-0.107669	99
Es	-0.248478	1.338477	-0.677869	99
Es	1.470478	0.113640	0.715616	99
Es	0.036691	-1.248116	-0.860474	99
Es	-1.226491	-0.383273	1.261999	99
32
Properties=species:S:1:pos:R:3:Z:I:1 energy=-698.1300910273342 field_type=dipole dipole="0.000000 0.000000 0.000000" charge=0
S	0.000200	-0.000200	-0.118100	16
O	1.274400	0.035500	0.897500	8
O	-1.276500	-0.032600	0.894900	8
O	-0.033600	1.257700	-0.839100	8
O	0.035400	-1.260400	-0.835100	8
H	1.211100	0.691200	1.631200	1
H	-1.214800	-0.685900	1.630700	1
Es	-1.356964	-0.083420	0.794219	99
Es	-0.084682	-0.068125	-0.080417	99
Es	-1.230855	-0.408736	1.233400	99
Es	-0.807204	-0.047311	0.582179	99
Es	-0.123501	-1.116949	-1.046324	99
Es	0.011512	0.787388	-0.537115	99
Es	0.030969	0.101197	-0.125076	99
Es	-0.029985	1.253091	-0.838137	99
Es	0.798984	0.059387	0.583450	99
Es	-0.025994	0.016731	-0.137184	99
Es	0.068956	-0.064088	-0.183955	99
Es	-0.262932	1.163496	-0.761514	99
Es	1.486229	0.081545	0.707048	99
Es	1.247356	-0.216833	1.018177	99
Es	-1.347600	0.268029	0.979113	99
Es	0.011969	0.012976	-0.063432	99
Es	0.023440	1.107536	-1.090560	99
Es	0.096855	1.439298	-0.642529	99
Es	0.005753	-1.448115	-0.631166	99
Es	1.271008	0.031564	0.899060	99
Es	-1.292018	-0.060988	0.855805	99
Es	0.034778	-0.779384	-0.522395	99
Es	0.008099	-1.253340	-0.810319	99
Es	1.221302	0.391038	1.249448	99
Es	0.243532	-1.165068	-0.841530	99
32
Properties=species:S:1:pos:R:3:Z:I:1 energy=-698.1300910273342 field_type=dipole dipole="0.000000 0.000000 0.000000" charge=0
S	0.000200	-0.000200	-0.118100	16
O	1.274400	0.035500	0.897500	8
O	-1.276500	-0.032600	0.894900	8
O	-0.033600	1.257700	-0.839100	8
O	0.035400	-1.260400	-0.835100	8
H	1.211100	0.691200	1.631200	1
H	-1.214800	-0.685900	1.630700	1
Es	-0.079714	-1.470973	-0.657251	99
Es	0.119090	1.383258	-0.620057	99
Es	0.300829	-1.163189	-0.857731	99
Es	-0.818493	-0.064029	0.569598	99
Es	-1.445299	-0.116713	0.726678	99
Es	1.120040	-0.160243	0.995055	99
Es	-1.208859	-0.384994	1.247632	99
Es	1.214555	0.401753	1.247328	99
Es	-1.272241	-0.032330	0.890813	99
Es	0.900921	0.111849	0.525055	99
Es	-0.077849	1.187784	-0.743469	99
Es	-1.290160	0.265718	1.010858	99
Es	0.017697	-0.796995	-0.508060	99
Es	0.034244	-1.257834	-0.834121	99
Es	-0.102543	-1.073282	-0.994273	99
Es	0.062166	-0.081162	-0.038560	99
Es	-0.227051	1.212849	-0.929041	99
Es	0.053584	0.055794	-0.221337	99
Es	1.273295	0.034785	0.897400	99
Es	0.002178	-0.006299	-0.122881	99
Es	-0.110274	-0.024408	-0.131543	99
Es	-0.006574	0.055593	-0.075766	99
Es	0.054620	1.233824	-0.968412	99
Es	-0.030597	0.732039	-0.609628	99
Es	1.515442	-0.041877	0.791957	99
32
Properties=species:S:1:pos:R:3:Z:I:1 energy=-698.1300910273342 field_type=dipole dipole="0.000000 0.000000 0.000000" charge=0
S	0.000200	-0.000200	-0.118100	16
O	1.274400	0.035500	0.897500	8
O	-1.276500	-0.032600	0.894900	8
O	-0.033600	1.257700	-0.839100	8
O	0.035400	-1.260400	-0.835100	8
H	1.211100	0.691200	1.631200	1
H	-1.214800	-0.685900	1.630700	1
Es	1.208465	0.371977	1.266302	99
Es	0.034897	-1.256663	-0.837252	99
Es	1.350322	0.157158	0.729440	99
Es	-1.183966	-0.355740	1.267682	99
Es	-0.820551	-0.060421	0.574234	99
Es	0.796843	0.021464	0.629675	99
Es	0.243565	-1.170748	-0.764975	99
Es	-0.124315	1.202151	-0.990475	99
Es	-0.031250	-1.138748	-1.085671	99
Es	0.022354	-0.769459	-0.563589	99
Es	1.378681	-0.250646	0.955189	99
Es	1.290487	0.046310	0.876820	99
Es	-0.099475	-1.427049	-0.600622	99
Es	-1.315918	0.267722	0.974484	99
Es	-0.075319	1.243571	-0.901000	99
Es	-0.007837	0.013996	-0.159956	99
Es	-1.442777	-0.152149	0.732465	99
Es	0.057388	-0.044065	-0.167925	99
Es	-1.271881	-0.031256	0.896398	99
Es	-0.097975	-0.081086	-0.079814	99
Es	-0.022506	1.448253	-0.602956	99
Es	0.204506	1.075487	-0.821714	99
Es	-0.144150	0.780855	-0.554438	99
Es	0.053148	0.001727	-0.057154	99
Es	-0.003730	0.108279	-0.124903	99
32
Properties=species:S:1:pos:R:3:Z:I:1 energy=-698.1300910273342 field_type=dipole dipole="0.000000 0.000000 0.000000" charge=0
S	0.000200	-0.000200	-0.118100	16
O	1.274400	0.035500	0.897500	8
O	-1.276500	-0.032600	0.894900	8
O	-0.033600	1.257700	-0.839100	8
O	0.035400	-1.260400	-0.835100	8
H	1.211100	0.691200	1.631200	1
H	-1.214800	-0.685900	1.630700	1
Es	-0.163159	1.425599	-0.662489	99
Es	1.233000	0.424823	1.215031	99
Es	0.229584	1.174250	-0.761913	99
Es	0.134515	-1.351472	-0.555658	99
Es	-0.095727	0.776772	-0.533659	99
Es	-1.293055	0.257494	1.009767	99
Es	-0.033656	1.256156	-0.837892	99
Es	-1.439226	-0.119625	0.689629	99
Es	0.098537	0.076816	-0.139962	99
Es	0.032830	-1.257006	-0.833640	99
Es	1.462021	0.068557	0.719419	99
Es	-0.097865	1.118060	-1.073926	99
Es	1.275192	0.033876	0.897774	99
Es	-1.278709	-0.029593	0.893839	99
Es	0.068372	-0.741658	-0.614207	99
Es	-0.193309	-1.170960	-0.756156	99
Es	-1.217211	-0.399685	1.245200	99
Es	-0.806200	-0.040790	0.606906	99
Es	-0.113848	0.049898	-0.126849	99
Es	0.013740	-0.128948	-0.130301	99
Es	0.126250	-1.242241	-1.092234	99
Es	0.003296	0.002353	-0.108591	99
Es	1.243071	-0.227991	1.047071	99
Es	0.810619	0.047259	0.577920	99
Es	-0.000055	-0.001024	-0.084835	99
32
Properties=species:S:1:pos:R:3:Z:I:1 energy=-698.1300910273342 field_type=dipole dipole="0.000000 0.000000 0.000000" charge=0
S	0.000200	-0.000200	-0.118100	16
O	1.274400	0.035500	0.897500	8
O	-1.276500	-0.032600	0.894900	8
O	-0.033600	1.257700	-0.839100	8
O	0.035400	-1.260400	-0.835100	8
H	1.211100	0.691200	1.631200	1
H	-1.214800	-0.685900	1.630700	1
Es	0.176755	-1.242899	-0.968506	99
Es	0.010637	0.000782	-0.108212	99
Es	-1.220241	-0.393763	1.245597	99
Es	1.199466	0.392932	1.253812	99
Es	-0.005708	1.478261	-0.614319	99
Es	-0.821746	-0.071310	0.560025	99
Es	0.083141	1.149158	-0.826580	99
Es	0.812290	0.047917	0.597409	99
Es	1.466184	0.121299	0.693500	99
Es	0.027109	-1.352361	-0.533581	99
Es	0.080514	-1.289391	-0.892052	99
Es	-0.217026	1.162647	-0.968384	99
Es	0.025757	0.076963	-0.182406	99
Es	-1.221900	0.207658	1.016338	99
Es	-0.055290	0.008753	-0.112593	99
Es	1.273248	-0.251619	1.014768	99
Es	0.102804	-0.755986	-0.606850	99
Es	0.015818	-0.124269	-0.168963	99
Es	-1.276303	-0.042717	0.883813	99
Es	0.023339	1.195724	-0.916067	99
Es	-1.494757	-0.031741	0.738700	99
Es	1.273941	0.035975	0.897391	99
Es	0.003549	0.036651	-0.017097	99
Es	-0.044468	0.764778	-0.544691	99
Es	-0.218105	-1.122521	-0.850807	99
32
Properties=species:S:1:pos:R:3:Z:I:1 energy=-698.1300910273342 field_type=dipole dipole="0.000000 0.000000 0.000000" charge=0
S	0.000200	-0.000200	-0.118100	16
O	1.274400	0.035500	0.897500	8
O	-1.276500	-0.032600	0.894900	8
O	-0.033600	1.257700	-0.839100	8
O	0.035400	-1.260400	-0.835100	8
H	1.211100	0.691200	1.631200	1
H	-1.214800	-0.685900	1.630700	1
Es	0.038849	-1.253633	-0.835567	99
Es	1.260124	-0.263597	1.021582	99
Es	-1.263558	0.228822	1.043591	99
Es	1.464180	0.115051	0.710528	99
Es	0.072523	1.452817	-0.762349	99
Es	-0.798649	-0.037622	0.585509	99
Es	1.275720	0.033965	0.896735	99
Es	0.097739	-0.745422	-0.700344	99
Es	-1.225890	-0.406456	1.217433	99
Es	-0.111935	0.043815	-0.080213	99
Es	-0.045859	1.026621	-1.036574	99
Es	0.011010	0.002901	-0.168608	99
Es	1.207137	0.391882	1.245051	99
Es	0.000316	0.823921	-0.476740	99
Es	-0.022893	1.160851	-0.789711	99
Es	0.000051	-0.005310	-0.181872	99
Es	0.817367	0.069312	0.581778	99
Es	0.129735	-1.242443	-0.546290	99
Es	0.000854	-0.086579	-0.099337	99
Es	-1.275727	-0.033377	0.894733	99
Es	-1.471447	-0.083547	0.703934	99
Es	-0.165289	1.286812	-0.804719	99
Es	0.113342	-1.364328	-1.052769	99
Es	0.101605	0.043467	-0.059474	99
Es	-0.210300	-1.157002	-0.716062	99
32
Properties=species:S:1:pos:R:3:Z:I:1 energy=-698.1300910273342 field_type=dipole dipole="0.000000 0.000000 0.000000" charge=0
S	0.000200	-0.000200	-0.118100	16
O	1.274400	0.035500	0.897500	8
O	-1.276500	-0.032600	0.894900	8
O	-0.033600	1.257700	-0.839100	8
O	0.035400	-1.260400	-0.835100	8
H	1.211100	0.691200	1.631200	1
H	-1.214800	-0.685900	1.630700	1
Es	0.003105	0.000217	-0.117177	99
Es	-1.452418	-0.089959	0.721178	99
Es	-0.020289	-1.205709	-0.795218	99
Es	1.464206	0.023425	0.778376	99
Es	-1.280026	0.236241	1.026918	99
Es	-0.004226	0.117324	-0.179350	99
Es	-0.103550	-1.243790	-0.770430	99
Es	0.211585	1.013782	-0.774004	99
Es	-0.019863	-0.009279	0.005170	99
Es	1.216574	0.395683	1.239267	99
Es	0.048157	-0.736961	-0.593001	99
Es	0.854500	0.103269	0.549951	99
Es	0.053243	-0.017209	-0.126614	99
Es	-1.288399	-0.045917	0.871488	99
Es	-0.008105	1.483954	-0.644650	99
Es	1.168799	-0.223501	1.027790	99
Es	-0.792554	-0.037784	0.594509	99
Es	-0.033584	1.252567	-0.840935	99
Es	-0.119777	1.158697	-1.048679	99
Es	1.320716	0.047689	0.861282	99
Es	0.188874	-1.394726	-0.613800	99
Es	-0.031024	-0.093782	-0.172256	99
Es	-1.221998	-0.394493	1.230613	99
Es	0.056979	-1.180546	-1.078357	99
Es	-0.211916	0.841727	-0.561827	99
32
Properties=species:S:1:pos:R:3:Z:I:1 energy=-698.1300910273342 field_type=dipole dipole="0.000000 0.000000 0.000000" charge=0
S	0.000200	-0.000200	-0.118100	16
O	1.274400	0.035500	0.897500	8
O	-1.276500	-0.032600	0.894900	8
O	-0.033600	1.257700	-0.839100	8
O	0.035400	-1.260400	-0.835100	8
H	1.211100	0.691200	1.631200	1
H	-1.214800	-0.685900	1.630700	1
Es	0.142086	1.344708	-0.632343	99
Es	-1.189881	-0.370664	1.259973	99
Es	0.017145	-1.475889	-0.623136	99
Es	1.293371	-0.258931	1.004233	99
Es	-0.053122	-0.000326	-0.110305	99
Es	0.184069	-1.158161	-1.043940	99
Es	1.191736	0.368267	1.258176	99
Es	1.275253	0.036156	0.896531	99
Es	0.058918	0.092560	-0.036886	99
Es	-1.457928	-0.126355	0.721133	99
Es	0.086359	-0.773854	-0.537078	99
Es	-0.102516	-1.162949	-0.818921	99
Es	-0.042966	1.236508	-0.828292	99
Es	-1.283518	0.267519	0.997729	99
Es	1.458351	0.143612	0.718063	99
Es	-0.821437	-0.060689	0.581853	99
Es	-0.016325	-1.192054	-0.828981	99
Es	-0.006556	-0.006553	-0.106584	99
Es	-0.008433	0.012586	-0.127823	99
Es	0.805885	0.057407	0.580049	99
Es	-0.035291	0.747459	-0.572502	99
Es	0.010327	-0.099274	-0.208167	99
Es	-0.289778	1.300680	-0.812897	99
Es	0.065587	1.121060	-1.024620	99
Es	-1.282330	-0.041905	0.884978	99
32
Properties=species:S:1:pos:R:3:Z:I:1 energy=-698.1300910273342 field_type=dipole dipole="0.000000 0.000000 0.000000" charge=0
S	0.000200	-0.000200	-0.118100	16
O	1.274400	0.035500	0.897500	8
O	-1.276500	-0.032600	0.894900	8
O	-0.033600	1.257700	-0.839100	8
O	0.035400	-1.260400	-0.835100	8
H	1.211100	0.691200	1.631200	1
H	-1.214800	-0.685900	1.630700	1
Es	0.136359	-1.110872	-1.059362	99
Es	0.054606	-0.778068	-0.519229	99
Es	1.305752	0.047453	0.856186	99
Es	1.418543	0.087899	0.757034	99
Es	0.027059	-1.253803	-0.829463	99
Es	-0.100191	-0.034979	-0.043772	99
Es	1.275050	-0.241435	1.023442	99
Es	0.043753	-1.503227	-0.650245	99
Es	-1.278236	-0.028017	0.895579	99
Es	0.242941	1.099672	-0.709502	99
Es	-1.475014	-0.106844	0.718402	99
Es	-0.146813	1.110473	-0.498765	99
Es	-0.084323	1.443905	-0.945528	99
Es	-0.812732	-0.058964	0.566754	99
Es	0.803784	0.045208	0.581918	99
Es	0.083298	-0.057383	-0.095661	99
Es	-0.024733	-0.007255	-0.160542	99
Es	-1.205094	-0.380534	1.255239	99
Es	1.221704	0.407524	1.238409	99
Es	0.042779	0.096019	-0.174199	99
Es	-0.056212	1.257963	-0.851670	99
Es	-0.115834	0.838050	-0.865404	99
Es	0.000104	0.002799	-0.115611	99
Es	-0.093424	-1.116864	-0.793434	99
Es	-1.264120	0.242200	1.009669	99
32
Properties=species:S:1:pos:R:3:Z:I:1 energy=-698.1300910273342 field_type=dipole dipole="0.000000 0.000000 0.000000" charge=0
S	0.000200	-0.000200	-0.118100	16
O	1.274400	0.035500	0.897500	8
O	-1.276500	-0.032600	0.894900	8
O	-0.033600	1.257700	-0.839100	8
O	0.035400	-1.260400	-0.835100	8
H	1.211100	0.691200	1.631200	1
H	-1.214800	-0.685900	1.630700	1
Es	1.366086	-0.256689	0.952973	99
Es	0.046704	-1.237206	-0.824146	99
Es	-0.017652	-0.975201	-1.018512	99
Es	0.013030	0.076424	-0.042799	99
Es	-1.333316	0.273156	0.987079	99
Es	0.080288	1.313143	-0.531995	99
Es	-0.068223	0.036500	-0.177432	99
Es	-1.198514	-0.381025	1.252327	99
Es	-0.009740	0.005187	-0.140506	99
Es	-0.129372	0.750661	-0.631344	99
Es	0.113543	-0.031144	-0.165453	99
Es	1.332295	0.174148	0.638477	99
Es	0.840777	0.010469	0.697606	99
Es	-1.277079	-0.037768	0.896566	99
Es	-0.047260	-0.087600	-0.063496	99
Es	1.212426	0.381719	1.268595	99
Es	-0.231300	1.334484	-0.986264	99
Es	0.058516	-0.872395	-0.455341	99
Es	-0.811886	-0.043421	0.598981	99
Es	-0.035291	1.247544	-0.830887	99
Es	0.154131	1.104520	-0.890081	99
Es	1.273131	0.036989	0.899630	99
Es	-1.414205	-0.143071	0.710462	99
Es	-0.160546	-1.423828	-0.741883	99
Es	0.242461	-1.254675	-0.812311	99
32
Properties=species:S:1:pos:R:3:Z:I:1 energy=-698.1300910273342 field_type=dipole dipole="0.000000 0.000000 0.000000" charge=0
S	0.000200	-0.000200	-0.118100	16
O	1.274400	0.035500	0.897500	8
O	-1.276500	-0.032600	0.894900	8
O	-0.033600	1.257700	-0.839100	8
O	0.035400	-1.260400	-0.835100	8
H	1.211100	0.691200	1.631200	1
H	-1.214800	-0.685900	1.630700	1
Es	1.285261	0.177981	0.759114	99
Es	-1.219687	-0.390175	1.254997	99
Es	1.187944	0.335547	1.293698	99
Es	-0.091920	1.134561	-0.731247	99
Es	0.048785	-0.032514	-0.003269	99
Es	-0.031195	1.250013	-0.840654	99
Es	-1.301588	0.259909	0.995587	99
Es	0.097675	1.502173	-0.744720	99
Es	0.808762	-0.011452	0.648110	99
Es	1.261862	-0.000844	0.916585	99
Es	-0.066114	-1.380560	-0.547508	99
Es	0.279517	-1.190905	-0.812791	99
Es	-0.155028	1.103295	-1.010042	99
Es	0.029253	-0.745681	-0.605222	99
Es	1.479709	-0.154351	0.840254	99
Es	-1.275035	-0.030650	0.895676	99
Es	-1.418305	-0.106060	0.744393	99
Es	0.019293	0.760272	-0.543943	99
Es	-0.103882	-1.186398	-1.048100	99
Es	0.024313	-0.041771	-0.152204	99
Es	0.033341	0.077773	-0.163855	99
Es	0.005476	0.006622	-0.122011	99
Es	-0.819825	-0.065055	0.555008	99
Es	0.030983	-1.259120	-0.838805	99
Es	-0.110586	-0.011691	-0.148806	99
32
Properties=species:S:1:pos:R:3:Z:I:1 energy=-698.1300910273342 field_type=dipole dipole="0.000000 0.000000 0.000000" charge=0
S	0.000200	-0.000200	-0.118100	16
O	1.274400	0.035500	0.897500	8
O	-1.276500	-0.032600	0.894900	8
O	-0.033600	1.257700	-0.839100	8
O	0.035400	-1.260400	-0.835100	8
H	1.211100	0.691200	1.631200	1
H	-1.214800	-0.685900	1.630700	1
Es	-1.296739	0.260099	1.005239	99
Es	0.181449	-1.365975	-0.604048	99
Es	-0.047057	-0.005328	-0.121742	99
Es	-0.220052	-1.225632	-0.772927	99
Es	0.138566	-1.155492	-1.080042	99
Es	0.033280	0.085646	-0.190797	99
Es	-1.279340	-0.031428	0.893186	99
Es	1.491633	0.099557	0.705686	99
Es	-1.213377	-0.388455	1.250381	99
Es	0.032997	-0.757206	-0.560239	99
Es	0.110296	1.477377	-0.685922	99
Es	0.018864	0.017028	0.011096	99
Es	-0.167500	1.184145	-0.891861	99
Es	-0.099600	1.166939	-0.735412	99
Es	1.272120	0.039160	0.900932	99
Es	-0.019055	1.176417	-0.973532	99
Es	1.244570	-0.235508	1.009471	99
Es	-0.010236	-0.091578	-0.168578	99
Es	1.201247	0.375401	1.259081	99
Es	0.036410	-1.258742	-0.834886	99
Es	0.006292	-0.006582	-0.119018	99
Es	-1.440272	-0.121328	0.712437	99
Es	0.814925	0.067856	0.581562	99
Es	0.015014	0.745690	-0.583959	99
Es	-0.805429	-0.051139	0.584137	99
32
Properties=species:S:1:pos:R:3:Z:I:1 energy=-698.1300910273342 field_type=dipole dipole="0.000000 0.000000 0.000000" charge=0
S	0.000200	-0.000200	-0.118100	16
O	1.274400	0.035500	0.897500	8
O	-1.276500	-0.032600	0.894900	8
O	-0.033600	1.257700	-0.839100	8
O	0.035400	-1.260400	-0.835100	8
H	1.211100	0.691200	1.631200	1
H	-1.214800	-0.685900	1.630700	1
Es	0.017194	0.131495	-0.129268	99
Es	1.201897	0.399209	1.248853	99
Es	-0.037794	1.473131	-0.634713	99
Es	-1.275979	-0.032589	0.894955	99
Es	-0.821146	-0.062022	0.572983	99
Es	-0.067129	0.789252	-0.512114	99
Es	0.094644	-0.757300	-0.595732	99
Es	1.275155	0.039215	0.893046	99
Es	-0.199816	-1.114188	-0.902852	99
Es	-1.462475	-0.091855	0.715727	99
Es	0.263766	-1.264010	-0.983703	99
Es	-1.218515	-0.401533	1.245509	99
Es	0.811430	0.047078	0.591954	99
Es	-0.003311	0.002045	-0.114967	99
Es	-0.033373	1.257600	-0.839427	99
Es	0.183196	1.102023	-0.843108	99
Es	0.026860	-0.031049	-0.036947	99
Es	-1.256682	0.255965	1.016389	99
Es	1.284741	-0.253284	1.014708	99
Es	-0.025064	-1.366470	-0.533685	99
Es	0.036749	-0.009290	-0.133939	99
Es	-0.205902	1.128401	-1.041714	99
Es	0.036059	-1.261124	-0.836281	99
Es	-0.076517	-0.094125	-0.174486	99
Es	1.451020	0.114345	0.709057	99
32
Properties=species:S:1:pos:R:3:Z:I:1 energy=-698.1300910273342 field_type=dipole dipole="0.000000 0.000000 0.000000" charge=0
S	0.000200	-0.000200	-0.118100	16
O	1.274400	0.035500	0.897500	8
O	-1.276500	-0.032600	0.894900	8
O	-0.033600	1.257700	-0.839100	8
O	0.035400	-1.260400	-0.835100	8
H	1.211100	0.691200	1.631200	1
H	-1.214800	-0.685900	1.630700	1
Es	-0.815962	-0.065137	0.562168	99
Es	0.037702	-0.089536	-0.026638	99
Es	1.410659	0.032967	0.802791	99
Es	1.210079	0.406926	1.246215	99
Es	0.831143	0.065870	0.585747	99
Es	1.359051	0.067623	0.798739	99
Es	-1.282308	-0.045571	0.892491	99
Es	0.020024	-0.020548	-0.148381	99
Es	-1.212247	-0.381676	1.243387	99
Es	-1.310801	0.268968	1.002681	99
Es	0.014568	-1.177847	-1.049114	99
Es	-1.414004	-0.108934	0.744701	99
Es	0.027571	-1.434244	-0.595150	99
Es	-0.037148	0.004519	-0.100523	99
Es	0.124901	-1.259418	-0.869986	99
Es	0.127897	1.454390	-0.791167	99
Es	-0.277819	1.145183	-0.638388	99
Es	0.112294	0.819371	-0.584853	99
Es	-0.061272	0.043912	-0.210850	99
Es	-0.140328	-1.113272	-0.767636	99
Es	-0.098180	1.071339	-1.033497	99
Es	-0.025116	1.260664	-0.822441	99
Es	0.142561	-0.778354	-0.570182	99
Es	1.212551	-0.226981	1.022150	99
Es	0.043191	0.060706	-0.102019	99
32
Properties=species:S:1:pos:R:3:Z:I:1 energy=-698.1300910273342 field_type=dipole dipole="0.000000 0.000000 0.000000" charge=0
S	0.000200	-0.000200	-0.118100	16
O	1.274400	0.035500	0.897500	8
O	-1.276500	-0.032600	0.894900	8
O	-0.033600	1.257700	-0.839100	8
O	0.035400	-1.260400	-0.835100	8
H	1.211100	0.691200	1.631200	1
H	-1.214800	-0.685900	1.630700	1
Es	-0.028784	-1.488989	-0.863881	99
Es	0.018818	0.074296	-0.046931	99
Es	0.023445	-0.048690	-0.082884	99
Es	0.055477	1.449729	-0.895736	99
Es	-1.199034	-0.363509	1.280755	99
Es	0.047688	1.106911	-0.863945	99
Es	0.031085	-1.181729	-0.744214	99
Es	1.273434	0.036717	0.896819	99
Es	0.802772	0.040505	0.596800	99
Es	-0.821393	-0.058999	0.556281	99
Es	-0.086296	-0.025166	-0.098549	99
Es	0.007474	-0.744082	-0.562290	99
Es	0.046963	-0.004014	-0.242858	99
Es	-1.276218	-0.065083	0.863348	99
Es	-1.417478	-0.060163	0.789650	99
Es	-0.070502	1.287555	-0.784895	99
Es	1.463971	0.143751	0.700657	99
Es	0.119513	-1.124961	-0.757290	99
Es	0.039972	-1.223153	-0.924629	99
Es	1.294529	-0.246406	1.000749	99
Es	-0.273924	1.009684	-0.868084	99
Es	0.080314	0.896065	-0.457298	99
Es	-0.002268	0.002854	-0.119650	99
Es	-1.320497	0.215717	0.955780	99
Es	1.189947	0.372078	1.262537	99
32
Properties=species:S:1:pos:R:3:Z:I:1 energy=-698.1300910273342 field_type=dipole dipole="0.000000 0.000000 0.000000" charge=0
S	0.000200	-0.000200	-0.118100	16
O	1.274400	0.035500	0.897500	8
O	-1.276500	-0.032600	0.894900	8
O	-0.033600	1.257700	-0.839100	8
O	0.035400	-1.260400	-0.835100	8
H	1.211100	0.691200	1.631200	1
H	-1.214800	-0.685900	1.630700	1
Es	-1.265457	0.259405	1.023629	99
Es	1.400290	0.158523	0.694440	99
Es	0.794537	0.015698	0.622721	99
Es	-0.025737	-0.751940	-0.584323	99
Es	1.309507	-0.061778	0.923285	99
Es	0.008721	-1.183196	-1.094303	99
Es	0.109732	1.423043	-0.822937	99
Es	-0.214104	1.111454	-1.004709	99
Es	1.313723	-0.140744	0.939949	99
Es	0.012002	0.018342	-0.134702	99
Es	0.021463	-0.028034	-0.127066	99
Es	0.037746	0.006317	-0.127421	99
Es	-1.314572	-0.040548	0.861959	99
Es	-1.220272	-0.398187	1.238338	99
Es	0.090670	0.768737	-0.597079	99
Es	1.206590	0.374719	1.276512	99
Es	-0.817549	-0.064196	0.565386	99
Es	0.214635	-1.135493	-0.745036	99
Es	0.002293	1.289031	-0.808250	99
Es	-0.059104	-1.432022	-0.596742	99
Es	-0.091567	-0.008222	-0.115258	99
Es	0.020414	0.010024	-0.084914	99
Es	-0.149824	1.158292	-0.637197	99
Es	-1.416878	-0.088028	0.755872	99
Es	0.031747	-1.260278	-0.831911	99
32
Properties=species:S:1:pos:R:3:Z:I:1 energy=-698.1300910273342 field_type=dipole dipole="0.000000 0.000000 0.000000" charge=0
S	0.000200	-0.000200	-0.118100	16
O	1.274400	0.035500	0.897500	8
O	-1.276500	-0.032600	0.894900	8
O	-0.033600	1.257700	-0.839100	8
O	0.035400	-1.260400	-0.835100	8
H	1.211100	0.691200	1.631200	1
H	-1.214800	-0.685900	1.630700	1
Es	-0.003019	-0.004624	-0.125827	99
Es	1.276286	0.031612	0.897812	99
Es	-1.301798	0.272320	1.002008	99
Es	0.806496	0.043802	0.591821	99
Es	-0.175264	1.119931	-1.049237	99
Es	0.050156	-0.099836	-0.114116	99
Es	0.193812	-1.330472	-1.031865	99
Es	0.001337	1.329109	-0.830087	99
Es	0.018307	-0.009055	-0.081032	99
Es	-0.149512	1.171941	-0.677778	99
Es	-0.808079	-0.056625	0.589745	99
Es	0.123979	1.365451	-0.759087	99
Es	0.056772	0.090154	-0.173518	99
Es	-0.078402	-1.337381	-0.539264	99
Es	1.198810	0.381967	1.270093	99
Es	-1.278893	-0.035734	0.890907	99
Es	-1.209824	-0.385089	1.250348	99
Es	-0.128884	-1.072401	-0.836547	99
Es	-1.435429	-0.126830	0.712435	99
Es	1.325480	-0.255225	0.979356	99
Es	-0.122954	0.023320	-0.094978	99
Es	1.417397	0.144348	0.718050	99
Es	0.039345	-1.254682	-0.839131	99
Es	0.038658	0.762417	-0.554060	99
Es	0.144229	-0.767496	-0.605804	99
