27
Properties=species:S:1:pos:R:3:Z:I:1 energy=-172.13138253571316 field_type=dipole dipole="0.000000 0.000000 0.000000" charge=0
C	-1.239611	-0.008605	0.579296	6
N	0.213849	-0.079675	0.698436	7
C	0.850879	-0.748455	-0.430544	6
C	0.920349	0.749585	-0.271084	6
H	-1.624341	0.749155	1.269866	1
H	-1.681221	-0.969605	0.862736	1
H	-1.599181	0.242405	-0.426174	1
H	0.223419	-1.160965	-1.210554	1
H	1.735969	-1.326505	-0.194884	1
H	1.853749	1.181394	0.069916	1
H	0.346139	1.371275	-0.947014	1
Es	0.519657	0.643206	-0.159435	99
Es	0.671186	-0.449199	-0.215856	99
Es	0.427496	-0.600110	-0.164767	99
Es	1.222474	-1.089087	-0.379941	99
Es	-1.066527	0.306919	0.447458	99
Es	0.733568	-0.105312	-0.273503	99
Es	-1.358171	-0.590227	0.750054	99
Es	0.766559	0.229384	-0.204630	99
Es	1.469285	1.024299	-0.058591	99
Es	-0.279328	-0.041084	0.495138	99
Es	-1.407810	0.300613	0.775751	99
Es	-0.085984	-0.037215	0.508939	99
Es	-1.095165	-0.035824	0.541996	99
Es	0.941992	-0.266536	-0.400347	99
Es	0.757267	0.388846	-0.235615	99
Es	-0.198218	0.047013	0.503281	99
