30
Properties=species:S:1:pos:R:3:Z:I:1 energy=-173.33419629567496 field_type=dipole dipole="0.000000 0.000000 0.000000" charge=0
C	-1.300289	-0.239857	0.420012	6
N	0.161661	-0.232907	0.416952	7
C	0.673681	-0.956407	-0.745708	6
C	0.666212	1.139203	0.427842	6
H	-1.685889	0.265693	1.312772	1
H	-1.680459	-1.267307	0.453232	1
H	-1.719949	0.254393	-0.464148	1
H	0.330842	-1.997367	-0.733098	1
H	1.769141	-0.987287	-0.728378	1
H	0.356761	-0.500697	-1.691238	1
H	0.315932	1.671343	1.319712	1
H	0.350892	1.704843	-0.456908	1
H	1.761461	1.146353	0.468952	1
Es	0.728728	-0.921299	-0.794206	99
Es	0.541451	-0.605959	-0.572899	99
Es	0.246424	0.119583	0.249176	99
Es	0.413510	-1.645010	-0.757497	99
Es	0.099800	-0.237662	0.219226	99
Es	1.243283	1.271616	0.422972	99
Es	0.477302	1.039106	0.112513	99
Es	0.466105	-0.280113	0.032403	99
Es	-1.590689	0.150535	0.939394	99
Es	-1.224486	-0.208647	0.280261	99
Es	-0.439079	-0.324479	0.178613	99
Es	-0.179847	0.074681	0.352277	99
Es	0.500120	1.433221	0.877735	99
Es	-1.574902	-0.684997	0.220085	99
Es	0.591539	0.981882	0.376273	99
Es	1.206804	-0.824654	-0.895699	99
Es	-0.895004	-0.218169	0.335383	99
