33
Properties=species:S:1:pos:R:3:Z:I:1 energy=-231.03446168095607 field_type=dipole dipole="0.000000 0.000000 0.000000" charge=0
C	-1.223819	-1.880607	-0.044909	6
O	-0.002109	-1.157047	-0.015469	8
C	-0.216469	0.219893	0.276381	6
C	1.119511	0.891143	0.278381	6
C	1.444711	1.949303	-0.475689	6
H	-0.999709	-2.926697	-0.271629	1
H	-1.883679	-1.488467	-0.825119	1
H	-1.721479	-1.833177	0.928551	1
H	-0.674179	0.320053	1.267131	1
H	-0.885139	0.659833	-0.473069	1
H	1.865691	0.465663	0.944161	1
H	0.736251	2.401533	-1.162779	1
H	2.440421	2.378573	-0.425939	1
Es	-0.304427	0.025328	0.309286	99
Es	1.793798	2.300800	-0.485138	99
Es	-1.498537	-1.717572	-0.304221	99
Es	-0.514720	0.473558	-0.083321	99
Es	-0.012783	0.088435	0.440124	99
Es	1.296221	1.708389	-0.212137	99
Es	1.549639	1.928566	-0.447618	99
Es	1.179678	1.884171	-0.418605	99
Es	-1.192621	-2.298312	-0.037145	99
Es	0.020608	-1.384810	0.203046	99
Es	-0.280635	-1.237116	-0.015602	99
Es	-0.144905	-0.889171	-0.042554	99
Es	-0.073315	-0.377812	0.165603	99
Es	1.195600	0.614886	0.510711	99
Es	-1.311060	-1.993734	0.169398	99
Es	-1.486749	-1.921832	-0.001338	99
Es	-0.006458	-1.081085	0.007073	99
Es	0.259382	0.467397	0.258033	99
Es	1.323539	0.866242	0.224795	99
Es	1.152853	1.403808	-0.238022	99
