29
Properties=species:S:1:pos:R:3:Z:I:1 energy=-192.8147952435218 field_type=dipole dipole="0.000000 0.000000 0.000000" charge=0
C	-1.861959	-0.535585	0.005443	6
C	-0.369839	-0.500255	0.015153	6
C	0.333931	0.640924	-0.008037	6
C	1.739931	0.640924	-0.008037	6
C	2.930091	0.640924	-0.008037	6
H	-2.209119	-1.571025	-0.064937	1
H	-2.262309	0.008395	-0.856757	1
H	-2.267409	-0.106835	0.925713	1
H	0.146071	-1.457355	0.038663	1
H	-0.174489	1.600594	-0.031167	1
H	3.995100	0.639295	-0.007997	1
Es	2.279810	0.862576	-0.149153	99
Es	0.021366	1.291904	-0.024912	99
Es	-1.998512	-0.389500	0.038486	99
Es	2.076479	0.460110	-0.093186	99
Es	2.060596	0.701778	0.031636	99
Es	2.312831	0.558990	0.168801	99
Es	0.071139	0.130947	0.008129	99
Es	-0.164801	-0.872317	0.019735	99
Es	-2.124678	-0.183995	0.063980	99
Es	-1.925755	-0.480574	-0.084460	99
Es	-0.327688	-0.640599	0.018521	99
Es	0.197609	0.390942	-0.034815	99
Es	-2.155944	-1.118350	0.007677	99
Es	-1.047827	-0.584124	0.009842	99
Es	2.923718	0.643158	-0.004524	99
Es	1.076376	0.607448	0.006477	99
Es	0.149179	0.266711	0.011259	99
Es	3.624701	0.622623	-0.003264	99
