34
Properties=species:S:1:pos:R:3:Z:I:1 energy=-211.19470882244283 field_type=dipole dipole="0.000000 0.000000 0.000000" charge=0
C	-1.808789	-0.521856	0.421194	6
C	-0.322439	-0.468266	0.505744	6
N	0.488780	-1.155516	-0.498856	7
C	0.484261	0.305714	-0.508126	6
C	1.716480	1.034064	-0.096066	6
H	-2.248129	0.219784	1.095554	1
H	-2.169849	-1.510666	0.722224	1
H	-2.174129	-0.317446	-0.589906	1
H	0.039591	-0.539436	1.525034	1
H	-0.091679	-1.525896	-1.253646	1
H	-0.020959	0.783464	-1.339496	1
H	2.237961	0.536394	0.728444	1
H	1.460130	2.047734	0.227444	1
H	2.408771	1.111924	-0.939546	1
Es	-0.563196	-0.520778	0.211798	99
Es	1.588266	0.868806	-0.140549	99
Es	0.305728	-0.716734	-0.362624	99
Es	1.654525	0.851527	0.011317	99
Es	1.341273	1.382672	-0.014090	99
Es	0.253103	-0.280918	-0.335013	99
Es	0.072403	-1.091142	-0.418703	99
Es	2.163687	1.133391	-0.434810	99
Es	-0.166498	-0.383524	0.096784	99
Es	0.563442	-0.403917	-0.506716	99
Es	-1.365178	-0.510263	0.369727	99
Es	0.202305	0.008955	-0.187236	99
Es	0.282562	-1.030217	-0.244516	99
Es	-2.002970	-0.173621	0.753046	99
Es	-1.932912	-0.607753	0.351305	99
Es	-1.918184	-0.861134	0.514904	99
Es	1.559249	0.852173	-0.083765	99
Es	0.633880	-0.343182	-0.537971	99
Es	-0.875135	-0.513942	0.340178	99
Es	-0.006721	-0.363919	-0.046255	99
