31
Properties=species:S:1:pos:R:3:Z:I:1 energy=-209.99963598432316 field_type=dipole dipole="0.000000 0.000000 0.000000" charge=0
C	-1.240317	-0.378650	0.280690	6
C	0.287323	-0.337640	0.293990	6
N	0.819473	-1.042090	-0.869200	7
C	0.769343	1.023530	0.293990	6
C	1.166623	2.145430	0.293990	6
H	-1.649787	0.133270	1.158130	1
H	-1.605257	-1.410810	0.296980	1
H	-1.651547	0.112560	-0.608350	1
H	0.641373	-0.852160	1.194330	1
H	0.512653	-0.563360	-1.714680	1
H	0.419363	-1.976700	-0.910780	1
H	1.530753	3.146620	0.290910	1
Es	-1.198389	-0.370687	0.321272	99
Es	1.142575	2.040962	0.345736	99
Es	0.283308	-0.313746	0.276176	99
Es	0.672792	1.598600	0.460456	99
Es	-1.517314	-1.038951	0.256481	99
Es	1.145155	1.286933	0.024376	99
Es	0.522951	0.102160	0.289120	99
Es	0.083767	-0.167637	0.231063	99
Es	0.747688	-0.893292	-0.674593	99
Es	-0.934948	-0.216347	0.114696	99
Es	0.678064	-0.924513	-0.589484	99
Es	0.867706	-1.013329	-0.870469	99
Es	1.025121	1.678488	0.316691	99
Es	-0.376273	-0.354025	0.217027	99
Es	0.617479	-1.154528	-0.867057	99
Es	-1.425738	0.013241	0.603471	99
Es	1.415621	2.761846	0.343329	99
Es	0.562618	-1.067954	-0.779219	99
Es	0.773970	1.083336	0.286237	99
