37
Properties=species:S:1:pos:R:3:Z:I:1 energy=-212.39231874584624 field_type=dipole dipole="0.000000 0.000000 0.000000" charge=0
C	-1.662444	-1.162657	-0.260702	6
N	-0.215734	-1.065468	-0.110872	7
C	0.278386	0.314842	-0.217022	6
C	-0.115534	1.160443	0.995888	6
C	1.804656	0.273452	-0.340522	6
H	-1.954224	-2.217328	-0.248942	1
H	-1.999004	-0.734148	-1.209522	1
H	-2.190964	-0.676608	0.564168	1
H	0.222236	-1.634078	-0.835892	1
H	-0.116394	0.782852	-1.128352	1
H	0.219506	0.698382	1.930448	1
H	-1.198534	1.302542	1.054668	1
H	0.337546	2.155813	0.934078	1
H	2.266386	-0.187918	0.539078	1
H	2.211026	1.285293	-0.442412	1
H	2.113096	-0.295418	-1.224092	1
Es	0.062750	-0.225479	-0.248818	99
Es	-1.842372	-1.522880	-0.364552	99
Es	-1.621409	-1.095562	-0.438070	99
Es	1.985707	0.758168	-0.376033	99
Es	1.669730	0.243685	-0.316955	99
Es	-0.574423	1.101126	0.862614	99
Es	-2.008240	-1.176697	0.204755	99
Es	-0.425920	-1.040476	-0.070227	99
Es	-0.399900	-1.300636	-0.478401	99
Es	0.179832	0.490647	-0.127186	99
Es	-0.352778	1.158450	0.952427	99
Es	-1.704040	-0.968059	-0.481829	99
Es	0.061832	1.112448	1.030343	99
Es	1.858244	0.080070	-0.299050	99
Es	1.214092	0.283661	-0.408017	99
Es	-0.220887	-1.049116	-0.129975	99
Es	-0.112238	-0.713824	-0.130629	99
Es	0.154474	0.728693	0.461064	99
Es	0.205161	1.549913	1.183991	99
Es	1.940515	0.033594	-0.410377	99
Es	0.066779	-0.213814	-0.198094	99
