34
Properties=species:S:1:pos:R:3:Z:I:1 energy=-211.199811010267 field_type=dipole dipole="0.000000 0.000000 0.000000" charge=0
C	-1.928887	-1.080875	0.250435	6
N	-0.485207	-0.981475	0.090395	7
C	-0.025667	0.380175	0.343155	6
C	1.463263	0.429165	0.188265	6
C	2.114373	1.219025	-0.674995	6
H	-2.246987	-2.110295	0.057075	1
H	-2.457677	-0.428305	-0.451905	1
H	-2.233007	-0.829155	1.271795	1
H	-0.237257	-1.233605	-0.866005	1
H	-0.274387	0.681575	1.367615	1
H	-0.511597	1.085285	-0.343015	1
H	2.036143	-0.226775	0.840475	1
H	1.588023	1.892675	-1.343815	1
H	3.198873	1.202585	-0.729475	1
Es	2.043111	1.213200	-0.217997	99
Es	1.994608	1.079776	-0.444850	99
Es	-2.071321	-1.291506	0.362733	99
Es	-0.466215	-0.993017	0.101056	99
Es	1.371971	0.523946	-0.183040	99
Es	1.480471	0.204594	0.457526	99
Es	1.601677	0.521121	-0.201111	99
Es	-0.104140	0.478907	0.267749	99
Es	1.090468	0.507714	0.159125	99
Es	-0.582519	-0.833039	0.001035	99
Es	-0.188695	0.553352	0.241926	99
Es	-0.216435	-0.000618	0.434805	99
Es	-2.168562	-0.890534	0.219819	99
Es	2.647628	1.195960	-0.696021	99
Es	-0.237872	-0.352473	0.298522	99
Es	-0.522252	-0.904310	0.133510	99
Es	-2.055318	-1.341679	0.355071	99
Es	-2.075762	-0.942952	0.182254	99
Es	1.829556	1.511968	-0.945388	99
Es	-0.694550	-0.866509	0.077345	99
