27
Properties=species:S:1:pos:R:3:Z:I:1 energy=-228.70709881124412 field_type=dipole dipole="0.000000 0.000000 0.000000" charge=0
O	-0.433758	-1.314820	-0.003447	8
C	-1.215708	-0.204660	-0.001357	6
C	-0.438868	0.929760	0.001903	6
C	0.906122	0.487200	0.001803	6
C	0.855462	-0.888070	-0.001507	6
H	-2.281748	-0.384190	-0.002537	1
H	-0.798488	1.949500	0.004083	1
H	1.801702	1.091450	0.003883	1
H	1.605282	-1.666170	-0.002827	1
Es	-0.409193	-1.207244	0.000867	99
Es	-0.678902	1.616422	0.003606	99
Es	-1.215609	-0.204956	-0.001359	99
Es	0.251216	0.758119	0.002578	99
Es	0.906164	0.486876	0.001722	99
Es	-0.433583	-1.297848	-0.012643	99
Es	-0.537644	-1.623314	-0.001857	99
Es	1.480338	0.886073	0.003439	99
Es	0.855207	-0.888254	-0.001485	99
Es	-0.727192	-0.899236	0.003069	99
Es	0.825080	-0.075056	-0.002244	99
Es	1.363001	-1.407858	-0.001372	99
Es	0.058639	-1.144389	-0.005356	99
Es	-0.871591	0.383394	0.000243	99
Es	0.928259	-0.205750	0.002197	99
Es	-0.726355	0.336758	-0.000763	99
Es	-0.438846	0.929783	0.001913	99
Es	-1.904192	-0.309033	-0.002714	99
