33
Properties=species:S:1:pos:R:3:Z:I:1 energy=-231.04988719497874 field_type=dipole dipole="0.000000 0.000000 0.000000" charge=0
C	-1.449721	-0.243355	-0.112335	6
C	0.051899	-0.296485	-0.131485	6
C	0.719949	-1.458135	-0.020365	6
C	0.758008	1.018865	-0.303145	6
O	0.505779	1.835325	0.829655	8
H	-1.802501	0.354685	0.733925	1
H	-1.894791	-1.240025	-0.022745	1
H	-1.825391	0.205795	-1.037465	1
H	0.198399	-2.403745	0.094815	1
H	1.804929	-1.496295	-0.043405	1
H	0.397779	1.537595	-1.197205	1
H	1.841798	0.897085	-0.401815	1
H	0.693869	1.288685	1.611565	1
Es	-1.488750	-0.387557	-0.143593	99
Es	0.570241	1.760143	0.668718	99
Es	0.536165	-1.537074	-0.043785	99
Es	0.714192	1.108996	-0.028311	99
Es	-0.259911	-0.391315	-0.089997	99
Es	0.936595	0.943846	0.016827	99
Es	-1.346852	-0.172702	-0.243768	99
Es	0.337519	2.045077	0.804211	99
Es	-1.586964	-0.345732	-0.022068	99
Es	-0.571671	-0.632895	-0.120376	99
Es	0.630444	1.395512	0.144676	99
Es	1.376932	-1.538028	-0.029421	99
Es	0.520539	1.702812	0.545954	99
Es	0.580750	1.596655	0.482073	99
Es	0.666307	-1.352888	-0.089385	99
Es	0.899885	1.151255	0.044331	99
Es	-0.031557	-0.463299	-0.104209	99
Es	0.394369	0.245415	-0.132783	99
Es	0.370506	-1.154288	-0.284179	99
Es	-1.293700	0.153274	0.120082	99
