39
Properties=species:S:1:pos:R:3:Z:I:1 energy=-233.05273574015092 field_type=dipole dipole="0.000000 0.000000 0.000000" charge=0
C	-2.138431	-1.263482	0.003234	6
C	-0.618951	-1.210852	0.009534	6
C	-0.107681	0.229708	-0.006146	6
C	1.420189	0.278048	-0.004516	6
C	1.906950	1.665088	-0.004386	6
C	2.308440	2.797908	-0.003446	6
H	-2.481700	-2.302662	0.018144	1
H	-2.543791	-0.784712	-0.893866	1
H	-2.552381	-0.756392	0.880624	1
H	-0.236930	-1.751532	-0.864196	1
H	-0.245321	-1.728542	0.900684	1
H	-0.497340	0.767608	0.867764	1
H	-0.494170	0.748278	-0.893056	1
H	1.809239	-0.245662	-0.885576	1
H	1.807960	-0.244762	0.877614	1
H	2.663919	3.801958	-0.002416	1
Es	1.566110	0.100047	-0.040871	99
Es	-2.174373	-1.169366	-0.168243	99
Es	-0.092398	0.473625	-0.424321	99
Es	1.644159	-0.020403	-0.127237	99
Es	-0.036480	0.430193	0.275288	99
Es	1.890755	1.644507	-0.008171	99
Es	-2.401655	-1.962025	0.009401	99
Es	2.196319	2.217777	0.259671	99
Es	-2.117443	-1.094843	-0.260879	99
Es	1.774674	0.823591	0.036351	99
Es	-0.401672	-0.602784	-0.043716	99
Es	1.520353	0.277339	0.140003	99
Es	-0.736847	-1.368483	0.100499	99
Es	2.206818	2.240401	-0.167697	99
Es	2.514560	3.443899	-0.003932	99
Es	1.903242	2.313591	-0.095570	99
Es	2.307687	2.769230	-0.014370	99
Es	0.040417	0.405855	0.110212	99
Es	-1.346298	-1.165904	-0.025795	99
Es	-0.325475	-1.620924	0.024010	99
Es	-0.290614	-0.330554	0.022445	99
Es	-0.351507	-0.471092	-0.043931	99
Es	-2.315354	-1.007441	0.432351	99
