34
Properties=species:S:1:pos:R:3:Z:I:1 energy=-263.92860406228743 field_type=dipole dipole="0.000000 0.000000 0.000000" charge=0
C	-1.883202	0.246511	0.001351	6
C	-0.403622	0.153251	0.000141	6
N	0.351897	1.258191	-0.005179	7
N	1.611038	0.792971	-0.004889	7
C	1.686237	-0.568149	0.000141	6
C	0.388638	-1.018179	0.003461	6
H	-2.222142	1.287601	0.015341	1
H	-2.295362	-0.255569	0.882311	1
H	-2.294922	-0.231989	-0.892839	1
H	2.370968	1.464471	-0.008379	1
H	2.635877	-1.083049	0.000861	1
H	0.054598	-2.046059	0.007681	1
Es	1.672558	0.255522	-0.092076	99
Es	0.149226	-0.757401	0.036854	99
Es	-2.225002	-0.179978	0.019559	99
Es	-2.068141	0.012801	-0.023525	99
Es	-0.401452	0.152739	0.000192	99
Es	1.613177	0.723823	0.020031	99
Es	0.234270	0.851604	-0.129077	99
Es	0.380423	1.050717	-0.009971	99
Es	1.582366	0.311245	0.065962	99
Es	0.452856	-0.539263	-0.097440	99
Es	2.073809	1.177013	-0.018137	99
Es	0.182956	-1.698380	0.012750	99
Es	-1.887929	0.241029	0.010253	99
Es	1.027168	-0.779855	0.024284	99
Es	1.680961	-0.563413	0.002095	99
Es	-1.137180	0.192221	-0.007470	99
Es	0.257680	1.638891	-0.000310	99
Es	-2.118476	0.949267	0.007586	99
Es	2.327655	-0.906909	-0.008531	99
Es	0.823853	0.889203	0.078886	99
Es	0.336620	1.097770	0.041509	99
Es	0.237851	-0.791478	0.048852	99
