40
Properties=species:S:1:pos:R:3:Z:I:1 energy=-266.23499465239433 field_type=dipole dipole="0.000000 0.000000 0.000000" charge=0
C	-1.347935	0.486203	-0.845564	6
C	0.066405	0.233913	-0.390164	6
C	0.298935	0.347723	1.103306	6
N	-0.070075	-0.900557	1.760296	7
C	0.902365	-0.751857	-1.182234	6
N	1.134085	0.681413	-1.304484	7
H	-1.445945	0.430593	-1.935414	1
H	-1.678345	1.482353	-0.531764	1
H	-2.029565	-0.253617	-0.413044	1
H	-0.284775	1.177413	1.518676	1
H	1.353365	0.555783	1.321276	1
H	-1.067415	-1.064297	1.636116	1
H	0.075235	-0.802647	2.763646	1
H	0.458175	-1.239317	-2.041014	1
H	1.658075	-1.330437	-0.665454	1
H	1.977415	0.947333	-0.794184	1
Es	0.327663	0.093086	-0.228984	99
Es	0.451988	0.107498	-0.110461	99
Es	-0.367333	0.193305	-0.569088	99
Es	-0.972215	0.413824	-0.745345	99
Es	0.984708	-0.061167	-0.953939	99
Es	-0.384871	0.263175	0.327874	99
Es	0.097625	-0.535962	1.433312	99
Es	-0.050008	-0.004917	1.101928	99
Es	-0.789085	0.318782	0.506535	99
Es	0.782518	0.077373	-1.077930	99
Es	0.528252	0.148185	-1.065374	99
Es	-0.258105	-0.588543	1.470028	99
Es	0.954623	0.036794	-1.142324	99
Es	0.067322	-0.507744	1.684689	99
Es	-0.117646	-0.587350	2.068965	99
Es	0.942715	-0.316701	0.112129	99
Es	-1.281305	0.433860	-0.750800	99
Es	0.327228	0.101981	0.432019	99
Es	0.965245	-0.072707	-1.255336	99
Es	0.060936	0.407665	-0.761664	99
Es	0.931918	0.056911	-1.310770	99
Es	0.141051	-0.669659	1.525476	99
Es	-1.251888	0.533931	-1.414407	99
Es	0.963161	0.286047	-1.413246	99
