34
Properties=species:S:1:pos:R:3:Z:I:1 energy=-263.9009788822856 field_type=dipole dipole="0.000000 0.000000 0.000000" charge=0
C	-1.506626	-0.327971	0.398046	6
C	-0.019146	-0.307241	0.471306	6
N	0.769574	-0.999951	-0.538864	7
C	0.795804	0.472919	-0.535894	6
C	1.961824	1.180409	-0.076654	6
N	2.882994	1.780969	0.290796	7
H	-1.923676	0.455329	1.038756	1
H	-1.889696	-1.291941	0.747626	1
H	-1.875066	-0.163271	-0.620094	1
H	0.344114	-0.395591	1.489756	1
H	0.185914	-1.345591	-1.301904	1
H	0.273984	0.941929	-1.362874	1
Es	0.039540	-0.314327	0.246594	99
Es	-1.638951	-0.045797	0.564801	99
Es	1.711165	1.042101	-0.169695	99
Es	0.660549	-0.176906	-0.326443	99
Es	0.707879	-0.808992	-0.617142	99
Es	1.676124	0.947184	-0.104583	99
Es	-0.519018	-0.158220	0.268620	99
Es	2.923115	1.644357	0.116047	99
Es	0.208936	-0.384541	-0.077877	99
Es	0.831255	-0.810916	-0.512376	99
Es	-1.632660	-0.528109	0.348372	99
Es	-0.527008	-0.473630	0.281389	99
Es	2.422707	1.640775	0.049419	99
Es	2.287436	1.492229	0.321851	99
Es	2.994340	1.933266	0.274621	99
Es	0.025735	-0.064238	0.128144	99
Es	-1.791724	-0.672418	0.349093	99
Es	0.667807	-0.246001	-0.462377	99
Es	0.719544	-0.710515	-0.646780	99
Es	2.667320	1.513843	0.129501	99
Es	-0.695298	-0.230109	0.393320	99
Es	0.838640	0.458658	-0.532722	99
