35
Properties=species:S:1:pos:R:3:Z:I:1 energy=-247.83628899377248 field_type=dipole dipole="0.000000 0.000000 0.000000" charge=0
C	-2.803754	-0.194459	-0.528135	6
C	-1.604674	-0.130469	-0.551815	6
C	-0.165284	-0.051959	-0.586995	6
C	0.497126	0.994761	0.334405	6
C	1.495636	-0.131449	0.651965	6
N	0.434836	-1.094869	0.282345	7
H	-3.866964	-0.256159	-0.500305	1
H	0.248996	-0.052019	-1.603935	1
H	-0.102344	1.312811	1.196555	1
H	0.914516	1.876881	-0.158085	1
H	2.368576	-0.159459	-0.010765	1
H	1.830736	-0.190939	1.690624	1
H	0.752596	-1.922669	-0.215855	1
Es	-0.041326	-0.383370	-0.239512	99
Es	-3.100083	-0.215339	-0.522459	99
Es	0.308150	0.975419	0.404158	99
Es	0.410988	-1.039303	0.171650	99
Es	1.254724	0.023465	0.639589	99
Es	0.463004	0.532725	0.065015	99
Es	0.630124	-1.568995	-0.027694	99
Es	-2.497231	-0.233236	-0.682630	99
Es	1.912381	-0.206190	0.672156	99
Es	1.692535	-0.055397	0.668732	99
Es	-0.504758	-0.148032	-0.577145	99
Es	0.837878	-0.413785	0.432329	99
Es	1.325575	0.149362	0.624431	99
Es	-0.033162	0.310044	-0.260199	99
Es	-2.097656	0.000691	-0.351062	99
Es	-2.840680	-0.213606	-0.728094	99
Es	-1.546501	-0.114423	-0.536681	99
Es	0.410097	-0.941506	0.188774	99
Es	0.703828	1.316788	0.146013	99
Es	0.133784	0.444808	0.055490	99
Es	-2.158559	-0.231280	-0.508380	99
Es	-0.567293	-0.105735	-0.403534	99
