35
Properties=species:S:1:pos:R:3:Z:I:1 energy=-247.83709959669974 field_type=dipole dipole="0.000000 0.000000 0.000000" charge=0
C	0.918026	-2.591733	0.253345	6
C	0.104806	-1.722743	0.254435	6
C	-0.881864	-0.668403	0.255755	6
C	-0.087734	0.597797	0.365905	6
C	0.412706	1.308357	-0.867145	6
N	-0.691924	1.856397	-0.086815	7
H	1.644586	-3.371463	0.251085	1
H	-1.557504	-0.758963	1.112525	1
H	-1.488904	-0.692403	-0.655845	1
H	0.490606	0.662117	1.281205	1
H	0.153866	0.909917	-1.841264	1
H	1.358506	1.833207	-0.814144	1
H	-0.375174	2.637917	0.490955	1
Es	-0.613056	1.969819	0.009024	99
Es	-0.729998	2.175360	0.053404	99
Es	-1.009215	-0.376595	0.416300	99
Es	0.224470	1.303838	-0.778429	99
Es	0.725174	-2.429242	0.189973	99
Es	-0.714689	-0.464781	0.304359	99
Es	0.045966	1.576352	-0.594037	99
Es	0.635793	-2.151418	0.130814	99
Es	-0.816867	-0.429572	0.296900	99
Es	0.680145	-2.062472	0.366576	99
Es	-0.168390	-1.447607	0.212912	99
Es	-0.654746	1.700679	-0.124199	99
Es	0.290400	0.968985	-0.320132	99
Es	-0.073598	-1.506769	0.271241	99
Es	0.299571	-2.334277	0.328547	99
Es	0.072783	0.799824	-0.276993	99
Es	-0.046775	0.706783	0.246126	99
Es	-0.253020	0.428770	0.306973	99
Es	-0.056801	1.401849	-0.498099	99
Es	1.339889	-3.014514	0.176326	99
Es	-0.865438	-0.523041	0.467064	99
Es	0.651261	1.545741	-0.850232	99
