41
Properties=species:S:1:pos:R:3:Z:I:1 energy=-250.26004756102327 field_type=dipole dipole="0.000000 0.000000 0.000000" charge=0
C	-1.784543	-1.888910	-1.033446	6
C	-0.803993	-1.593760	0.090514	6
C	-0.453733	-0.135200	0.142654	6
C	0.794257	0.339460	-0.003066	6
C	1.158978	1.787800	0.045314	6
N	2.116198	2.008800	1.116884	7
H	-2.029553	-2.955740	-1.050916	1
H	-1.361773	-1.622470	-2.007866	1
H	-2.717543	-1.330900	-0.902256	1
H	0.093597	-2.209470	-0.042956	1
H	-1.250383	-1.882870	1.048854	1
H	-1.275543	0.555600	0.321524	1
H	1.617127	-0.351070	-0.178266	1
H	0.278717	2.420840	0.199494	1
H	1.610037	2.075080	-0.910466	1
H	1.668488	1.782010	2.003603	1
H	2.339667	3.000800	1.160404	1
Es	1.169051	0.823207	0.057719	99
Es	-1.890981	-2.390496	-1.044702	99
Es	-0.615281	-0.745108	0.145067	99
Es	0.356023	0.179965	0.151524	99
Es	-0.235661	-0.155469	0.054327	99
Es	-0.082305	0.208490	-0.076417	99
Es	1.841090	1.973619	1.166134	99
Es	-0.579906	-1.747704	0.043680	99
Es	-0.366554	-0.003739	0.145374	99
Es	-1.059164	-1.757308	-0.374715	99
Es	-1.610827	-1.761243	-1.066413	99
Es	0.932570	2.130257	0.135950	99
Es	2.144220	1.830245	0.907884	99
Es	-0.910798	-1.749278	0.047741	99
Es	1.258734	1.856444	-0.176057	99
Es	0.231527	0.166867	0.129869	99
Es	-1.781705	-1.989717	-0.997638	99
Es	-0.955999	-1.673310	0.101164	99
Es	1.086986	0.928291	0.070118	99
Es	-2.329830	-1.546539	-1.098687	99
Es	1.656904	1.976637	0.675109	99
Es	2.192312	2.076530	1.280562	99
Es	1.161007	1.204395	0.009868	99
Es	2.140412	2.398007	1.145382	99
