38
Properties=species:S:1:pos:R:3:Z:I:1 energy=-249.04661225586733 field_type=dipole dipole="0.000000 0.000000 0.000000" charge=0
C	-1.723009	-0.931795	-0.268191	6
C	-0.209198	-0.834085	-0.134841	6
C	0.328182	0.606225	-0.230861	6
N	-0.140229	1.439305	0.873599	7
C	1.772181	0.606225	-0.230861	6
C	2.962342	0.606225	-0.230861	6
H	-2.029228	-1.982535	-0.290911	1
H	-2.067599	-0.459545	-1.193961	1
H	-2.234689	-0.457785	0.574939	1
H	0.242722	-1.440325	-0.930431	1
H	0.097862	-1.295725	0.812379	1
H	-0.028789	1.053885	-1.165921	1
H	0.158231	1.021845	1.753439	1
H	-1.156389	1.452395	0.890429	1
H	4.027612	0.615685	-0.227941	1
Es	-0.045330	0.586502	-0.004659	99
Es	-1.853363	-0.874970	-0.230926	99
Es	0.156086	0.856518	0.213411	99
Es	-2.008875	-1.323306	-0.486732	99
Es	-0.565263	-0.849545	-0.139996	99
Es	-0.457315	-0.814890	-0.140365	99
Es	0.962442	0.518711	-0.201942	99
Es	3.170308	0.592517	-0.217820	99
Es	-1.943608	-0.728935	0.036762	99
Es	0.404966	0.579651	0.055426	99
Es	3.363510	0.613442	-0.300679	99
Es	-0.226019	1.313925	0.863736	99
Es	2.324313	0.329010	-0.192282	99
Es	2.369676	0.912283	-0.066171	99
Es	-0.362862	1.333172	0.772760	99
Es	2.396773	0.613482	-0.388439	99
Es	0.027130	-1.137421	-0.584778	99
Es	0.209244	0.219999	-0.205954	99
Es	0.091770	1.133384	0.852717	99
Es	-0.276546	1.649698	0.826114	99
Es	-1.603624	-0.894254	-0.306600	99
Es	1.640327	0.611421	-0.224624	99
Es	-0.250757	-0.637787	-0.060666	99
