40
Properties=species:S:1:pos:R:3:Z:I:1 energy=-266.27608543972974 field_type=dipole dipole="0.000000 0.000000 0.000000" charge=0
C	-1.509377	-1.266603	0.567660	6
C	-1.186197	-0.516073	-0.717110	6
C	-0.158747	0.595807	-0.502910	6
N	1.126212	0.037807	-0.134120	7
C	2.163193	0.748717	0.384470	6
N	2.151753	1.925527	0.894360	7
H	-2.281898	-2.019023	0.380260	1
H	-1.880477	-0.583463	1.337420	1
H	-0.628227	-1.781943	0.960850	1
H	-2.109687	-0.073403	-1.108030	1
H	-0.824627	-1.225863	-1.470800	1
H	-0.526608	1.279977	0.271050	1
H	-0.047277	1.170257	-1.429870	1
H	1.392953	-0.789193	-0.661490	1
H	3.113383	0.190787	0.348960	1
H	1.205632	2.306687	0.879300	1
Es	-0.455707	0.060316	-0.482749	99
Es	-1.306426	-1.037221	-0.117295	99
Es	-1.731933	-0.623196	-0.538628	99
Es	-1.375094	-0.630384	-0.348538	99
Es	0.065327	0.692239	-0.379736	99
Es	0.958877	0.420728	-0.233620	99
Es	-0.944327	-1.252370	0.329679	99
Es	2.116362	1.065089	0.512344	99
Es	0.212052	0.696004	-0.205008	99
Es	1.566854	0.381558	0.064673	99
Es	-1.791282	-1.352883	0.218277	99
Es	-0.143015	0.221756	-0.470305	99
Es	2.028196	1.385486	0.567836	99
Es	1.773915	0.827840	0.279090	99
Es	0.405138	0.401329	-0.305863	99
Es	0.289983	0.168612	-0.292173	99
Es	1.828586	0.371864	0.185678	99
Es	-1.017048	-0.729558	-0.120460	99
Es	2.201133	1.515498	0.707297	99
Es	1.916428	1.156113	0.825767	99
Es	-1.245022	-1.008681	0.128804	99
Es	-1.435457	-1.184972	0.135694	99
Es	1.963339	1.591795	0.695668	99
Es	2.470376	1.943903	0.684563	99
