34
Properties=species:S:1:pos:R:3:Z:I:1 energy=-263.93116923044835 field_type=dipole dipole="0.000000 0.000000 0.000000" charge=0
N	-1.976724	-0.024790	-0.029131	7
C	-0.639774	0.063300	-0.012881	6
C	0.194736	1.155880	-0.004131	6
C	1.526906	0.671820	0.009839	6
C	1.463066	-0.704160	0.008959	6
N	0.138896	-1.062160	-0.005031	7
H	-2.559534	0.807560	0.003349	1
H	-2.491474	-0.897990	0.014969	1
H	-0.115634	2.191540	-0.008421	1
H	2.432526	1.263750	0.018379	1
H	2.239626	-1.456900	0.015809	1
H	-0.212614	-2.007850	-0.011711	1
Es	-0.084528	-1.628941	-0.013617	99
Es	1.470633	-0.711265	0.011652	99
Es	0.149884	1.002213	-0.056183	99
Es	0.137363	-1.060390	-0.004958	99
Es	2.067863	1.054473	0.013927	99
Es	-0.219801	-0.615774	0.060876	99
Es	0.091751	0.875310	0.103288	99
Es	-0.643428	0.062405	-0.012979	99
Es	0.706268	-0.933325	-0.022861	99
Es	-0.217697	0.694161	-0.083910	99
Es	-0.013507	1.867035	-0.005600	99
Es	0.116572	-0.925097	-0.040236	99
Es	-1.387785	0.005765	-0.015294	99
Es	1.432548	-0.063680	0.028003	99
Es	-2.270427	-0.553622	-0.004394	99
Es	-1.921428	-0.025738	-0.020644	99
Es	1.552352	0.033140	-0.016467	99
Es	-1.971342	-0.029042	-0.044299	99
Es	-2.308914	0.472012	-0.030856	99
Es	1.590679	0.707019	0.009984	99
Es	0.869036	0.875705	0.015834	99
Es	1.968524	-1.210792	0.019987	99
