37
Properties=species:S:1:pos:R:3:Z:I:1 energy=-265.0263462251136 field_type=dipole dipole="0.000000 0.000000 0.000000" charge=0
N	-2.793689	-0.376509	-0.223938	7
N	-1.493409	-0.726099	-0.357828	7
C	-0.717889	-0.116119	0.476612	6
C	0.726041	-0.422339	0.419602	6
C	1.550171	0.045381	-0.755138	6
C	1.736521	0.686131	0.588412	6
H	-3.368059	-1.015339	-0.780448	1
H	-2.962049	0.544801	-0.636238	1
H	-1.068999	0.608271	1.233202	1
H	0.984321	-1.389699	0.839042	1
H	1.054391	0.614791	-1.533548	1
H	2.325221	-0.618719	-1.120238	1
H	2.645631	0.462791	1.135332	1
H	1.381801	1.702661	0.715172	1
Es	1.795622	-0.071385	-0.642277	99
Es	-0.981341	0.322796	0.917513	99
Es	-1.788152	-0.659762	-0.441103	99
Es	-2.742716	-0.370945	-0.239342	99
Es	1.083838	-0.319389	-0.277502	99
Es	1.180878	0.173885	0.075503	99
Es	-2.253485	-0.343723	-0.229509	99
Es	-1.458082	-0.507618	-0.074813	99
Es	1.507697	-0.026281	-0.654649	99
Es	-1.511185	-0.619048	-0.281429	99
Es	-1.549304	-0.437463	-0.399393	99
Es	-0.672446	-0.115523	0.484760	99
Es	1.600883	0.498757	0.509567	99
Es	1.136816	-0.046729	0.176951	99
Es	1.499982	0.471823	0.093105	99
Es	-0.119151	-0.281456	0.373563	99
Es	1.297857	0.303442	0.351234	99
Es	1.022365	-0.035018	0.300859	99
Es	1.503780	0.090149	-0.294139	99
Es	-2.928889	-0.501853	-0.083423	99
Es	2.309666	0.577739	0.935707	99
Es	-2.989058	-0.648060	-0.557672	99
Es	-1.596873	-0.416402	0.050886	99
