37
Properties=species:S:1:pos:R:3:Z:I:1 energy=-268.86687785282186 field_type=dipole dipole="0.000000 0.000000 0.000000" charge=0
C	-0.534436	1.533380	-0.699382	6
C	-1.258796	0.226090	-0.798212	6
C	0.247864	0.240490	-0.688692	6
C	0.994174	-0.237370	0.547708	6
C	0.606884	-1.455530	1.350348	6
O	1.658373	-1.504160	0.384298	8
H	-0.475406	2.151990	-1.587452	1
H	-0.620766	2.091780	0.225508	1
H	-1.690826	-0.048380	-1.753742	1
H	-1.839846	-0.094860	0.058238	1
H	0.781724	0.024790	-1.615762	1
H	1.563014	0.527050	1.070638	1
H	-0.316476	-1.966520	1.110318	1
H	0.884524	-1.488750	2.396188	1
Es	0.858362	-1.564020	1.112596	99
Es	1.107989	-1.268044	0.777526	99
Es	-0.846694	0.893612	-0.747231	99
Es	-1.078580	0.526802	-0.767735	99
Es	0.826255	-0.029193	0.009851	99
Es	-0.462943	1.632142	-1.001268	99
Es	0.545911	0.023239	-0.357550	99
Es	-0.649511	1.391178	-0.809322	99
Es	1.172724	-1.274474	0.705245	99
Es	-0.061135	0.640014	-0.643215	99
Es	-0.856211	0.951524	-0.737382	99
Es	-0.967566	0.575709	-0.958911	99
Es	1.062718	-1.357244	0.892044	99
Es	0.706141	-1.554239	1.060946	99
Es	0.705273	0.004729	-0.123383	99
Es	0.597299	-0.904385	0.798946	99
Es	1.430773	-1.516781	0.847368	99
Es	0.565309	-0.024012	-0.011240	99
Es	1.508426	-0.796289	0.444599	99
Es	-1.124847	0.213900	-0.422511	99
Es	1.183815	-1.624510	1.157277	99
Es	0.828772	-0.129412	0.053237	99
Es	-0.938637	0.559997	-0.733733	99
