37
Properties=species:S:1:pos:R:3:Z:I:1 energy=-268.91188652425717 field_type=dipole dipole="0.000000 0.000000 0.000000" charge=0
C	-1.769588	-0.324592	0.479869	6
C	-0.278958	-0.324072	0.502169	6
C	0.494422	-0.954132	-0.624701	6
C	0.494132	0.547978	-0.460691	6
C	1.730462	1.235008	-0.023611	6
O	2.558732	1.614978	-0.840561	8
H	-2.154688	0.491888	1.098609	1
H	-2.151608	-1.267642	0.883019	1
H	-2.167188	-0.201202	-0.532901	1
H	0.104502	-0.459272	1.507619	1
H	-0.048058	-1.366262	-1.468521	1
H	1.401172	-1.498102	-0.382411	1
H	-0.071458	1.110568	-1.197361	1
H	1.858122	1.394858	1.059469	1
Es	0.417184	0.424360	-0.387338	99
Es	-1.069235	-0.312218	0.522888	99
Es	0.468942	-0.812833	-0.549654	99
Es	0.444618	-0.899993	-0.534601	99
Es	0.385936	-0.085876	-0.406232	99
Es	0.086072	-0.168613	0.096789	99
Es	1.840506	1.313892	0.182354	99
Es	0.126676	-0.700150	-0.103949	99
Es	0.231522	0.030549	-0.289873	99
Es	-0.922448	-0.313728	0.383127	99
Es	0.429446	-0.286065	-0.453761	99
Es	1.793673	1.263905	0.139351	99
Es	-1.840881	-0.148421	0.580845	99
Es	0.537333	-0.494618	-0.673199	99
Es	-1.723387	-0.082922	0.694098	99
Es	0.932287	0.770924	-0.244963	99
Es	2.502341	1.572125	-0.696401	99
Es	2.490477	1.582521	-0.740765	99
Es	-1.969796	-0.761112	0.652395	99
Es	2.201809	1.372968	-0.451572	99
Es	-1.361611	-0.295789	0.398918	99
Es	2.633700	1.690209	-1.007917	99
Es	2.278069	1.602935	-0.562305	99
