36
Properties=species:S:1:pos:R:3:Z:I:1 energy=-231.87925578052108 field_type=dipole dipole="0.000000 0.000000 0.000000" charge=0
C	-0.571107	-2.124362	-0.692650	6
C	-1.064407	-1.077931	-0.016970	6
C	-0.368217	0.191388	0.177780	6
C	-1.128137	1.269379	0.450720	6
C	1.088292	0.284819	0.281100	6
C	1.841233	1.344118	-0.044770	6
H	-1.154367	-3.032601	-0.801600	1
H	0.406193	-2.100711	-1.163460	1
H	-2.062727	-1.165151	0.409510	1
H	-2.213267	1.223559	0.442110	1
H	-0.698287	2.235359	0.692880	1
H	1.588993	-0.614071	0.638780	1
H	1.415293	2.262158	-0.434850	1
H	2.920513	1.304048	0.061420	1
Es	1.402146	0.618360	-0.019287	99
Es	1.535791	1.918645	-0.172404	99
Es	-1.137823	1.268635	0.451240	99
Es	-0.959513	-2.740053	-0.722913	99
Es	1.479597	0.962302	0.298711	99
Es	2.538760	1.308979	0.016400	99
Es	-1.838771	1.214735	0.485297	99
Es	-0.635289	-1.907789	-0.401604	99
Es	-1.635047	-1.124833	0.189688	99
Es	-1.171412	-1.090746	0.005082	99
Es	0.661597	0.266820	0.205765	99
Es	1.394309	-0.251384	0.305073	99
Es	-0.709143	0.690951	0.312411	99
Es	-0.376644	0.199745	0.180169	99
Es	-0.837044	1.929437	0.604557	99
Es	0.116856	-2.090463	-0.964510	99
Es	-0.712115	-0.447064	0.038936	99
Es	1.845495	1.345261	-0.044350	99
Es	-0.630583	-1.930746	-0.445979	99
Es	-0.733060	0.718499	0.311234	99
Es	0.802864	0.312409	0.245586	99
Es	-0.900852	-1.456725	-0.498323	99
