40
Properties=species:S:1:pos:R:3:Z:I:1 energy=-270.0820224725894 field_type=dipole dipole="0.000000 0.000000 0.000000" charge=0
C	-0.025391	-2.415202	-0.635473	6
C	-0.737621	-1.170662	-0.131493	6
C	0.226068	-0.062322	0.144977	6
O	0.596469	0.709128	-1.006573	8
C	-0.188971	1.378328	-0.010103	6
C	0.526369	2.465648	0.706927	6
H	-0.745201	-3.217912	-0.821893	1
H	0.705109	-2.773022	0.097367	1
H	0.509449	-2.209672	-1.568433	1
H	-1.276151	-1.410462	0.792577	1
H	-1.487921	-0.861012	-0.868853	1
H	0.994299	-0.317422	0.863167	1
H	-1.215151	1.620808	-0.247273	1
H	1.576319	2.215378	0.894147	1
H	0.045829	2.659238	1.671247	1
H	0.496499	3.389158	0.119687	1
Es	0.308807	0.018030	0.104553	99
Es	-0.204335	-2.606353	-0.561914	99
Es	0.037450	-2.522266	-0.776687	99
Es	-1.062849	-1.331707	0.157551	99
Es	0.454204	1.129646	-0.543690	99
Es	-0.178072	-2.569780	-0.514577	99
Es	0.087705	-2.260271	-0.820533	99
Es	0.184691	0.725811	-0.142451	99
Es	0.529872	0.645102	-0.668077	99
Es	0.418387	3.055608	0.561116	99
Es	0.443766	0.448982	-0.746763	99
Es	0.404878	2.174174	0.703440	99
Es	0.105744	-0.085029	-0.364593	99
Es	-0.207940	-1.749764	-0.520808	99
Es	0.351578	2.548241	0.824327	99
Es	0.297413	0.910354	-0.583433	99
Es	0.148668	1.009042	-0.174361	99
Es	0.375910	2.120304	0.559208	99
Es	0.422967	2.139220	0.462529	99
Es	-0.813461	-1.202409	-0.346921	99
Es	-0.355734	-0.739673	-0.016563	99
Es	-0.257969	-0.636306	-0.012268	99
Es	-0.000663	1.255040	0.020415	99
Es	0.209438	0.507178	-0.129679	99
