37
Properties=species:S:1:pos:R:3:Z:I:1 energy=-268.94413260707654 field_type=dipole dipole="0.000000 0.000000 0.000000" charge=0
C	-2.351849	-0.135140	0.268962	6
C	-0.867169	-0.239440	0.123372	6
C	-0.073449	0.819960	-0.090748	6
C	1.406891	0.758730	-0.241408	6
C	2.112341	-0.568840	-0.159818	6
O	2.023001	1.806730	-0.430528	8
H	-2.844439	-0.733920	-0.503358	1
H	-2.706469	0.896400	0.179072	1
H	-2.657579	-0.517140	1.247832	1
H	-0.459378	-1.243250	0.202772	1
H	-0.481789	1.823820	-0.169438	1
H	1.756052	-1.234310	-0.950418	1
H	1.957091	-1.018010	0.824452	1
H	3.186741	-0.415590	-0.300748	1
Es	-1.490523	-0.346461	0.257264	99
Es	-0.401631	0.349439	-0.241845	99
Es	-0.410903	0.306400	0.286987	99
Es	-0.113924	0.774501	-0.104231	99
Es	1.889308	-1.056576	-0.049508	99
Es	-2.448772	-0.245623	0.227577	99
Es	2.511099	-0.495548	-0.212782	99
Es	-2.574312	0.475099	0.237462	99
Es	1.984659	-0.807520	-0.133624	99
Es	1.472208	1.080337	-0.324080	99
Es	-0.360437	1.476295	-0.148037	99
Es	2.064682	1.726993	-0.450958	99
Es	-0.845285	-0.209249	0.120872	99
Es	2.176291	1.786735	-0.425787	99
Es	1.842320	1.564339	-0.415634	99
Es	1.954021	1.991494	-0.321590	99
Es	2.148627	-0.478952	-0.167840	99
Es	1.879933	0.298453	-0.254849	99
Es	-2.436125	-0.178916	0.281263	99
Es	-2.663666	-0.561244	0.370314	99
Es	0.841164	0.851650	-0.259156	99
Es	-0.723372	-0.738467	0.169135	99
Es	1.626878	0.707925	-0.268867	99
