43
Properties=species:S:1:pos:R:3:Z:I:1 energy=-271.29006081836195 field_type=dipole dipole="0.000000 0.000000 0.000000" charge=0
C	-2.286562	-1.282481	-0.114359	6
C	-0.767452	-1.214251	-0.107909	6
C	-0.272962	0.234769	-0.102809	6
C	1.256758	0.322599	-0.119509	6
C	1.732578	1.768199	-0.169679	6
O	1.795918	-0.295231	1.045841	8
H	-2.619152	-2.325311	-0.118729	1
H	-2.698202	-0.790971	-1.001809	1
H	-2.704792	-0.796461	0.773091	1
H	-0.380613	-1.735061	-0.991249	1
H	-0.391943	-1.745831	0.773511	1
H	-0.660462	0.733569	0.794851	1
H	-0.680052	0.763029	-0.973799	1
H	1.651498	-0.215421	-0.988239	1
H	1.386758	2.327079	0.706941	1
H	1.373898	2.273899	-1.071249	1
H	2.827038	1.809949	-0.157219	1
H	1.437748	0.167919	1.822321	1
Es	-1.725179	-1.223021	0.024240	99
Es	-1.006719	-0.892897	-0.089068	99
Es	1.807578	1.835499	-0.265935	99
Es	1.698248	-0.246966	0.951735	99
Es	1.016246	0.149968	0.238905	99
Es	-0.200596	0.412742	-0.367703	99
Es	1.490581	0.133420	0.382505	99
Es	2.058467	1.848902	-0.020330	99
Es	-2.460097	-1.021492	-0.487551	99
Es	1.746295	1.696464	0.053379	99
Es	1.488910	0.273758	0.259887	99
Es	1.831341	-0.023841	0.757908	99
Es	-1.095811	-0.974222	-0.148945	99
Es	-2.254060	-1.192610	-0.236590	99
Es	-0.662931	-0.526078	-0.025197	99
Es	-0.500093	-1.492757	0.458957	99
Es	1.503130	0.764616	-0.103903	99
Es	-1.489377	-1.165090	0.009259	99
Es	-2.489182	-1.895680	-0.171476	99
Es	-0.272100	0.024317	-0.043457	99
Es	1.539503	2.034987	-0.490413	99
Es	0.468875	0.172220	-0.075257	99
Es	-0.446953	0.210654	-0.130274	99
Es	1.887277	-0.317190	0.994231	99
Es	1.618748	-0.173764	0.667917	99
