36
Properties=species:S:1:pos:R:3:Z:I:1 energy=-231.86440576467606 field_type=dipole dipole="0.000000 0.000000 0.000000" charge=0
C	-1.700639	-1.184447	-0.001104	6
C	-0.217019	-1.001627	-0.001824	6
C	0.429411	0.179623	-0.000824	6
C	-0.265399	1.515473	0.002146	6
C	1.835411	0.179623	-0.000824	6
C	3.025571	0.179623	-0.000824	6
H	-1.943189	-2.251137	-0.012414	1
H	-2.153399	-0.733317	-0.889924	1
H	-2.149079	-0.752847	0.900076	1
H	0.363241	-1.922787	-0.002854	1
H	-1.355509	1.432843	-0.000744	1
H	0.022171	2.093613	-0.882734	1
H	0.017931	2.087143	0.892686	1
H	4.090501	0.178223	-0.000834	1
Es	1.954819	0.155360	0.012471	99
Es	-1.840876	-1.188296	0.027638	99
Es	-0.362833	1.560053	0.039564	99
Es	3.721480	0.182562	-0.011999	99
Es	-0.164094	-1.071247	-0.013510	99
Es	0.184521	-0.257383	0.139519	99
Es	-0.320020	1.541847	-0.017754	99
Es	-1.804831	-1.278759	-0.023115	99
Es	-0.129292	1.763767	0.093951	99
Es	0.344234	0.173866	0.009520	99
Es	0.143985	-1.525833	-0.025321	99
Es	1.177648	0.188036	-0.008232	99
Es	-1.913549	-1.505755	0.007740	99
Es	-1.973250	-0.884431	0.036019	99
Es	0.173000	-0.382325	-0.108154	99
Es	-0.275619	1.744501	-0.140109	99
Es	2.675880	0.281398	0.071526	99
Es	-0.233353	0.825127	0.023635	99
Es	2.416893	-0.051982	0.029228	99
Es	2.331434	0.268327	-0.152154	99
Es	2.760156	0.221186	0.050544	99
Es	-0.987447	-1.074134	-0.049383	99
