37
Properties=species:S:1:pos:R:3:Z:I:1 energy=-268.8807872660419 field_type=dipole dipole="0.000000 0.000000 0.000000" charge=0
C	-2.686553	-0.653159	-0.557703	6
C	-1.494143	-0.573689	0.035267	6
O	-0.667393	0.503471	-0.150414	8
C	0.560037	0.385781	0.596357	6
C	1.706437	-0.298589	-0.097733	6
C	1.709076	1.193971	0.057186	6
H	-3.329073	-1.512869	-0.406294	1
H	-3.037643	0.142101	-1.206743	1
H	-1.111213	-1.348839	0.684757	1
H	0.493967	0.312801	1.678476	1
H	1.533057	-0.705139	-1.087233	1
H	2.391916	-0.876129	0.509916	1
H	2.397237	1.632161	0.769646	1
H	1.534297	1.798131	-0.825483	1
Es	-1.281300	-0.221500	-0.058760	99
Es	1.463227	0.958235	-0.044401	99
Es	-1.628282	-0.344357	-0.263495	99
Es	1.953573	-0.464446	0.138557	99
Es	-0.895737	0.642411	-0.113176	99
Es	1.201274	-0.019457	0.190661	99
Es	-2.578199	-0.653038	-0.451097	99
Es	-0.609512	0.454615	-0.106746	99
Es	2.038297	1.394304	0.252133	99
Es	-3.115325	-1.180917	-0.479372	99
Es	-0.721583	0.207810	-0.185891	99
Es	-2.554525	-0.257491	-0.440852	99
Es	-1.990332	-0.501093	-0.269176	99
Es	-1.160533	-0.709305	0.176002	99
Es	1.837524	0.882808	0.059056	99
Es	1.058188	-0.076690	0.214744	99
Es	1.082875	0.207744	0.301216	99
Es	1.644590	-0.151674	0.075699	99
Es	0.689863	0.383011	0.362827	99
Es	1.048829	0.537984	0.236660	99
Es	1.757582	1.044371	0.082585	99
Es	-0.159401	0.483269	0.118341	99
Es	-2.080249	-0.643346	-0.341841	99
