40
Properties=species:S:1:pos:R:3:Z:I:1 energy=-270.08744731439276 field_type=dipole dipole="0.000000 0.000000 0.000000" charge=0
C	-2.439431	-1.243653	0.045302	6
C	-0.924341	-1.291323	0.033612	6
O	-0.434891	0.030337	-0.171138	8
C	0.988939	0.065597	-0.189148	6
C	1.398399	1.486097	-0.407768	6
C	2.207859	2.182027	0.401212	6
H	-2.860671	-2.241523	0.198982	1
H	-2.820561	-0.840803	-0.899428	1
H	-2.798651	-0.582203	0.841212	1
H	-0.579221	-1.943803	-0.775308	1
H	-0.558131	-1.679073	0.989992	1
H	1.363120	-0.550113	-1.014248	1
H	1.382949	-0.323993	0.756652	1
H	0.987869	1.971027	-1.291258	1
H	2.632149	1.745317	1.300062	1
H	2.454609	3.216087	0.181272	1
Es	-2.301538	-1.108900	0.155176	99
Es	-0.496127	-0.139546	-0.152816	99
Es	-0.431665	0.030161	-0.184609	99
Es	1.081493	0.078886	0.010820	99
Es	1.278707	1.742691	-0.747340	99
Es	-0.647407	-0.672469	-0.122443	99
Es	-1.174915	-1.281030	0.020459	99
Es	2.235303	1.989814	0.532226	99
Es	2.250361	1.827444	0.285047	99
Es	0.489040	0.002622	-0.222171	99
Es	-0.622433	-1.143432	0.264893	99
Es	-2.709843	-1.491455	0.031040	99
Es	0.879766	-0.097928	-0.346337	99
Es	-2.603738	-1.045122	-0.191699	99
Es	1.439008	1.667904	-0.320574	99
Es	-1.080570	-1.407760	-0.068731	99
Es	1.540642	1.814579	0.047048	99
Es	-0.276972	-0.042616	-0.062971	99
Es	-1.412923	-1.284028	-0.067770	99
Es	1.172331	-0.024201	0.100601	99
Es	2.357159	2.802353	0.264557	99
Es	2.118277	1.959427	0.183055	99
Es	-2.522308	-1.437288	0.051606	99
Es	0.937032	0.494096	-0.361588	99
