38
Properties=species:S:1:pos:R:3:Z:I:1 energy=-305.89857259116775 field_type=dipole dipole="0.000000 0.000000 0.000000" charge=0
C	-0.632712	-2.163288	-0.520139	6
O	-1.000012	-0.877938	-0.039049	8
C	0.141528	-0.083718	0.346331	6
C	0.587938	0.940922	-0.656229	6
C	-0.139152	1.376022	0.579721	6
O	0.673288	2.019352	1.573771	8
H	-1.540432	-2.693698	-0.819889	1
H	-0.134982	-2.734758	0.269111	1
H	0.025138	-2.070898	-1.389719	1
H	0.889878	-0.536478	0.990031	1
H	0.057068	0.995232	-1.599499	1
H	1.649388	1.144042	-0.726599	1
H	-1.170732	1.698402	0.480491	1
H	0.593798	2.986802	1.511671	1
Es	-0.782930	-0.788908	0.000260	99
Es	-0.414185	-2.103069	-0.856112	99
Es	-0.585128	-1.899880	-0.318637	99
Es	-0.090295	1.436716	0.601597	99
Es	0.439680	1.420981	0.019525	99
Es	-0.438114	-2.086375	-0.435982	99
Es	-0.757704	-0.645049	0.200549	99
Es	-1.178542	-2.483649	-0.638058	99
Es	0.538851	2.337235	1.555953	99
Es	0.423700	0.456742	-0.198614	99
Es	0.467333	0.544477	-0.527539	99
Es	0.384489	0.379420	0.303953	99
Es	0.450221	1.908464	1.430966	99
Es	-0.712910	-0.811971	-0.253681	99
Es	0.681875	2.073906	1.403544	99
Es	0.309065	0.784784	-0.720312	99
Es	-0.679921	-1.827981	-0.087122	99
Es	0.161988	1.205984	0.311046	99
Es	-0.926715	-0.859631	0.038777	99
Es	0.465335	1.851442	1.124785	99
Es	0.561106	1.109323	-0.328908	99
Es	0.530037	1.920122	1.698932	99
Es	-0.089544	-0.224541	0.063874	99
Es	-0.055217	0.435833	0.492140	99
