38
Properties=species:S:1:pos:R:3:Z:I:1 energy=-305.9469565031077 field_type=dipole dipole="0.000000 0.000000 0.000000" charge=0
C	-0.947922	-1.312649	1.153100	6
O	-1.076332	-0.846269	-0.184450	8
C	-0.894972	0.557701	-0.285320	6
C	0.552348	1.008571	-0.126300	6
C	1.560138	0.394331	-1.060080	6
O	0.877148	1.859511	0.702840	8
H	-1.157322	-2.386418	1.162780	1
H	-1.668022	-0.812339	1.809560	1
H	0.070668	-1.156499	1.521700	1
H	-1.526032	1.079511	0.444150	1
H	-1.226212	0.870541	-1.281510	1
H	1.563908	-0.691539	-0.941830	1
H	2.558528	0.774021	-0.823570	1
H	1.314078	0.661521	-2.091070	1
Es	1.178380	0.483529	-0.936758	99
Es	-1.086506	-1.021932	0.346503	99
Es	-0.658828	0.158443	-0.062632	99
Es	-0.985144	-0.930904	0.523731	99
Es	-0.857286	-0.322412	0.411999	99
Es	0.658098	1.343163	0.052739	99
Es	-1.085747	-1.153568	0.647290	99
Es	0.660735	0.869880	-0.242272	99
Es	1.006995	0.900415	-0.484230	99
Es	-1.189338	-0.473750	0.564710	99
Es	0.688664	1.556481	0.670818	99
Es	1.026679	1.058156	-0.685320	99
Es	-0.818976	-0.660437	0.419776	99
Es	0.671925	1.223461	0.059143	99
Es	0.615467	0.598220	-0.544950	99
Es	1.017441	0.224187	-0.703339	99
Es	0.628212	1.850386	0.550786	99
Es	-1.117177	-0.474877	0.928744	99
Es	-1.214362	-1.104426	0.254634	99
Es	-1.083692	-1.189719	0.272924	99
Es	-0.651776	-0.422209	0.290287	99
Es	1.178683	0.688961	-0.914523	99
Es	0.933128	0.708677	-0.655160	99
Es	0.517852	1.429337	0.359298	99
