32
Properties=species:S:1:pos:R:3:Z:I:1 energy=-303.5595273487632 field_type=dipole dipole="0.000000 0.000000 0.000000" charge=0
O	1.383970	-0.245737	0.006175	8
C	0.454000	-1.268487	0.003145	6
C	-0.862640	-1.034697	-0.002735	6
O	-1.384270	0.245583	-0.006195	8
C	-0.453840	1.268603	-0.003145	6
C	0.862500	1.034953	0.002735	6
H	0.919430	-2.241847	0.006075	1
H	-1.634510	-1.788817	-0.005315	1
H	-0.919720	2.242103	-0.006065	1
H	1.635080	1.788343	0.005325	1
Es	1.216869	-0.367500	0.114213	99
Es	-1.362233	-1.526630	-0.002146	99
Es	-0.450964	1.273101	-0.002279	99
Es	1.348904	-0.218226	0.002660	99
Es	-1.351238	0.247610	-0.018907	99
Es	1.126673	-0.440306	-0.104341	99
Es	-1.678324	0.271240	-0.037528	99
Es	-0.209288	-1.205963	-0.024521	99
Es	-0.740635	1.877320	-0.001179	99
Es	-0.205398	-1.146872	0.029916	99
Es	-1.134168	-0.212198	0.040416	99
Es	1.689794	-0.318759	0.003919	99
Es	0.197264	1.135660	0.001550	99
Es	0.861534	1.035073	0.003650	99
Es	0.455799	-1.265399	0.003984	99
Es	1.358562	1.530945	-0.003701	99
Es	0.747322	-1.873131	-0.002901	99
Es	1.148560	0.172710	0.008922	99
Es	0.207393	1.207030	0.001753	99
Es	-1.326441	0.233461	-0.013120	99
Es	-1.039452	0.626360	0.001795	99
Es	-0.861697	-1.035452	-0.002228	99
