42
Properties=species:S:1:pos:R:3:Z:I:1 energy=-287.2922583064605 field_type=dipole dipole="0.000000 0.000000 0.000000" charge=0
C	-1.796992	-0.319050	-0.247007	6
C	-0.270242	-0.327390	-0.197277	6
C	0.214118	-1.161640	0.990103	6
O	0.206018	-0.954710	-1.394937	8
C	0.277838	1.120550	-0.161737	6
N	1.736208	1.148930	-0.359697	7
H	-2.156042	0.220560	-1.131057	1
H	-2.226692	0.150100	0.644383	1
H	-2.191822	-1.338390	-0.328477	1
H	-0.080902	-0.712000	1.944093	1
H	1.303158	-1.281100	0.981363	1
H	-0.199222	-2.176280	0.944843	1
H	1.096268	-0.568270	-1.538117	1
H	0.017548	1.617500	0.779463	1
H	-0.166212	1.697570	-0.981017	1
H	2.196758	0.761370	0.464213	1
H	2.040208	2.122250	-0.409137	1
Es	-0.144352	-0.577333	0.014060	99
Es	-1.053768	-0.410890	-0.186796	99
Es	0.184553	0.156403	-0.405503	99
Es	-0.180579	-1.091726	0.321316	99
Es	0.921857	0.729118	-0.432323	99
Es	-1.524219	-0.773037	-0.213085	99
Es	-1.062327	-0.499147	-0.352787	99
Es	0.866649	0.564865	-0.386157	99
Es	-0.189412	-0.316029	-0.231399	99
Es	0.825934	1.050471	-0.420524	99
Es	1.398405	0.954940	-0.318872	99
Es	0.659377	-0.192136	-0.129963	99
Es	1.883406	1.289470	-0.238503	99
Es	-1.285263	-0.183008	-0.723134	99
Es	0.504334	0.326069	-0.142302	99
Es	-0.259704	-0.594966	-0.042769	99
Es	0.459666	-0.442958	0.174726	99
Es	-0.440398	-0.705746	-0.049013	99
Es	-0.342756	-0.558379	-0.073123	99
Es	0.808003	0.657136	-0.326732	99
Es	-0.540025	-0.774773	-0.038733	99
Es	-0.022221	-0.623909	-0.049308	99
Es	-0.006263	-0.032369	-0.280290	99
Es	1.235807	0.701760	-0.416525	99
Es	-0.761599	-0.489663	-0.284850	99
