36
Properties=species:S:1:pos:R:3:Z:I:1 energy=-284.9531711994465 field_type=dipole dipole="0.000000 0.000000 0.000000" charge=0
C	-1.488567	0.028096	0.525697	6
C	0.037302	0.044816	0.469077	6
C	0.533692	-0.689164	-0.780623	6
O	1.930912	-0.963824	-0.697763	8
C	0.519322	1.405986	0.469077	6
N	0.903533	2.490976	0.469077	7
H	-1.855098	0.547576	1.419107	1
H	-1.866657	-0.999784	0.559117	1
H	-1.929898	0.522386	-0.348363	1
H	0.427102	-0.467754	1.357257	1
H	0.342112	-0.126304	-1.702223	1
H	0.031603	-1.658554	-0.873823	1
H	2.414642	-0.134454	-0.865613	1
Es	2.066636	-1.159707	-0.900517	99
Es	-1.609190	0.225478	0.862192	99
Es	0.306103	0.010798	-0.284172	99
Es	0.107887	-0.073293	0.129153	99
Es	0.793387	2.295182	0.468898	99
Es	2.015991	-0.790378	-0.732972	99
Es	0.362651	-0.723143	-0.434450	99
Es	-1.811345	-0.203680	0.272671	99
Es	0.893905	-0.726004	-0.643018	99
Es	0.248926	0.735462	0.609604	99
Es	1.998988	-0.670679	-0.732132	99
Es	0.723759	1.980070	0.458865	99
Es	-1.638050	-0.142812	0.362275	99
Es	-0.319589	-0.021082	0.411519	99
Es	-0.271349	0.010286	0.471168	99
Es	0.523671	1.964874	0.550430	99
Es	0.890356	1.936398	0.335753	99
Es	0.533051	1.438907	0.448580	99
Es	1.090526	2.777595	0.526125	99
Es	1.335836	-0.907121	-0.590125	99
Es	1.360498	-0.791243	-0.691506	99
Es	0.447664	-1.034211	-0.891504	99
Es	-1.333234	0.193738	0.704098	99
