39
Properties=species:S:1:pos:R:3:Z:I:1 energy=-286.0497014432866 field_type=dipole dipole="0.000000 0.000000 0.000000" charge=0
C	-1.389142	-0.904735	0.129613	6
C	0.107218	-0.629105	0.058013	6
C	0.735178	-1.335565	-1.135957	6
O	0.324628	0.776805	-0.111497	8
N	0.346688	1.395065	1.148263	7
C	0.566238	2.655635	0.981423	6
H	-1.835982	-0.392585	0.988593	1
H	-1.591412	-1.976225	0.223153	1
H	-1.901402	-0.526765	-0.762387	1
H	0.600868	-0.979325	0.973203	1
H	0.294318	-0.987415	-2.076837	1
H	0.608468	-2.420754	-1.068817	1
H	1.806298	-1.112245	-1.189697	1
H	0.623648	3.322915	1.854463	1
H	0.704388	3.114295	-0.011537	1
Es	0.274747	0.839529	0.329042	99
Es	0.323955	1.336640	0.730236	99
Es	0.204793	1.501208	1.024329	99
Es	0.268808	1.120079	0.504713	99
Es	-1.073566	-1.137531	-0.100045	99
Es	0.419585	-0.830754	-0.505908	99
Es	-0.912561	-0.770759	-0.042695	99
Es	0.838846	-1.208306	-1.255336	99
Es	0.598822	2.988952	1.441044	99
Es	0.481295	0.805547	0.086367	99
Es	0.357544	2.107058	0.997656	99
Es	0.366110	-1.875748	-0.968172	99
Es	1.019278	-1.148957	-1.325861	99
Es	0.280059	0.452452	-0.006597	99
Es	0.579717	-1.212843	-1.197577	99
Es	-1.427157	-1.155457	0.121380	99
Es	-0.067228	-0.313013	0.010638	99
Es	0.253000	-0.421794	-0.130640	99
Es	0.761221	2.214014	0.749182	99
Es	0.508431	2.189109	0.838977	99
Es	-1.696683	-0.555977	0.696608	99
Es	0.054270	-0.405504	0.265746	99
Es	0.593065	2.808326	0.956245	99
Es	-0.796699	-1.007853	-0.062021	99
