42
Properties=species:S:1:pos:R:3:Z:I:1 energy=-287.27376147143144 field_type=dipole dipole="0.000000 0.000000 0.000000" charge=0
C	0.031679	-0.882899	1.583466	6
N	-0.314371	-1.158949	0.194166	7
C	-0.259201	0.017131	-0.703624	6
C	-1.231141	1.131611	-0.321054	6
C	1.178039	0.551001	-0.872374	6
O	2.054878	-0.528729	-1.188204	8
H	-0.035381	-1.813479	2.157446	1
H	-0.653091	-0.166059	2.046616	1
H	1.059028	-0.521129	1.685846	1
H	-1.261301	-1.540959	0.167426	1
H	-0.567611	-0.366139	-1.685624	1
H	-0.942141	1.625841	0.611546	1
H	-2.247711	0.741841	-0.203694	1
H	-1.259351	1.896441	-1.104594	1
H	1.543369	1.035171	0.038566	1
H	1.228549	1.279521	-1.687594	1
H	1.675759	-1.300209	-0.718314	1
Es	-0.399249	-0.812293	0.848115	99
Es	-0.534424	0.452272	-0.512673	99
Es	0.836731	0.239812	-0.762573	99
Es	-0.088728	-0.651001	0.225860	99
Es	-0.148032	-0.981290	1.155333	99
Es	2.122283	-0.489084	-1.139981	99
Es	2.004827	-0.440709	-1.138253	99
Es	-0.159629	-0.321896	-0.097423	99
Es	0.045498	-0.951086	1.034962	99
Es	-0.012584	-1.469496	1.938221	99
Es	1.739107	-0.275862	-1.089318	99
Es	-0.472288	0.233346	-0.137279	99
Es	-0.919033	0.842213	-0.397500	99
Es	1.908482	-0.396975	-1.025992	99
Es	0.220434	-0.293203	-0.172471	99
Es	-1.703013	1.097606	-0.439945	99
Es	-0.291749	-0.856025	1.023512	99
Es	-0.245773	-0.416433	0.079772	99
Es	-1.205987	1.156373	-0.225832	99
Es	1.105649	0.466272	-1.165575	99
Es	-0.048778	-0.932547	0.828786	99
Es	1.168478	0.257692	-0.790805	99
Es	1.281067	-0.132384	-1.027340	99
Es	-0.933826	1.347807	-0.478184	99
Es	0.560213	-0.030125	-1.050718	99
