39
Properties=species:S:1:pos:R:3:Z:I:1 energy=-286.0629367450184 field_type=dipole dipole="0.000000 0.000000 0.000000" charge=0
C	-0.616235	-2.274364	-0.579593	6
O	-1.007205	-1.027314	-0.021803	8
C	0.109395	-0.143764	0.203117	6
C	0.408025	0.837196	-0.895093	6
C	-0.250645	1.312646	0.365217	6
N	0.497015	2.170536	1.286977	7
H	-1.512525	-2.880604	-0.735483	1
H	0.051975	-2.803124	0.106807	1
H	-0.121455	-2.122334	-1.543623	1
H	0.941755	-0.518094	0.790617	1
H	-0.198675	0.801406	-1.792363	1
H	1.442575	1.102536	-1.073153	1
H	-1.307215	1.562576	0.287717	1
H	1.466625	1.871716	1.377277	1
H	0.096585	2.110986	2.223387	1
Es	-0.651578	-0.663279	-0.027591	99
Es	-1.022543	-2.548512	-0.846613	99
Es	0.419093	1.952979	1.119892	99
Es	0.137613	1.458177	0.750196	99
Es	-0.613874	-2.283430	-0.597769	99
Es	0.421965	0.928606	-0.640347	99
Es	0.350030	2.276458	1.405263	99
Es	0.281183	1.960790	1.423071	99
Es	0.301655	1.698012	0.855697	99
Es	-0.756273	-1.415476	-0.298594	99
Es	0.503453	2.255970	1.172001	99
Es	-0.430779	-0.649444	-0.043969	99
Es	-0.706309	-1.667244	-0.019793	99
Es	0.317389	0.987310	-0.639196	99
Es	0.016651	0.461796	0.053544	99
Es	-0.026456	-0.162446	-0.212717	99
Es	-0.254097	1.267977	0.244120	99
Es	-0.950477	-1.297920	0.171701	99
Es	0.175327	0.170292	-0.265715	99
Es	-0.023866	0.313439	-0.528055	99
Es	0.536861	1.041532	-0.632086	99
Es	-0.475787	-2.126499	-0.808056	99
Es	-0.613582	-1.933286	-0.252164	99
Es	0.013784	0.373867	0.117546	99
