42
Properties=species:S:1:pos:R:3:Z:I:1 energy=-287.27403569018236 field_type=dipole dipole="0.000000 0.000000 0.000000" charge=0
C	-1.417965	-1.631941	0.435699	6
O	-0.153695	-0.982511	0.482849	8
C	-0.132905	0.278579	-0.210881	6
C	-0.872625	1.347019	0.589709	6
C	1.344555	0.685279	-0.389091	6
N	2.067415	-0.291191	-1.214461	7
H	-1.295795	-2.640951	0.837049	1
H	-1.781535	-1.709351	-0.592311	1
H	-2.145195	-1.105271	1.057989	1
H	-0.595505	0.163759	-1.199741	1
H	-0.498635	1.394969	1.617929	1
H	-1.942655	1.122969	0.650839	1
H	-0.765105	2.333359	0.127759	1
H	1.834665	0.731489	0.590349	1
H	1.420605	1.670669	-0.859271	1
H	1.864795	-1.217521	-0.827821	1
H	3.069585	-0.149361	-1.096591	1
Es	-0.200795	-0.798839	0.356670	99
Es	1.873932	0.044391	-1.058052	99
Es	1.396662	0.725491	-0.421666	99
Es	1.355696	0.858832	-0.374748	99
Es	-1.091542	-1.757327	0.412365	99
Es	2.160535	-0.270736	-1.221919	99
Es	-1.056958	-1.446118	0.302118	99
Es	-0.683944	1.149669	0.613377	99
Es	-1.379774	-1.703697	0.368173	99
Es	1.407244	0.993812	-0.301160	99
Es	-0.344392	-1.031057	0.442262	99
Es	0.018033	0.800031	0.248701	99
Es	-0.247560	-0.418776	-0.024714	99
Es	-0.944015	1.359983	0.507833	99
Es	-1.312365	1.121247	0.547068	99
Es	2.185478	-0.656133	-1.187203	99
Es	-1.758711	-1.396357	0.736213	99
Es	-0.722732	1.918888	0.392018	99
Es	2.237973	-0.335967	-1.162498	99
Es	-0.239043	-0.043829	-0.226803	99
Es	-0.219843	0.013983	0.034860	99
Es	1.948288	-0.196240	-0.926369	99
Es	0.181042	0.715222	0.115941	99
Es	-0.163443	-0.670741	0.296166	99
Es	-1.341326	-1.637707	0.558359	99
