36
Properties=species:S:1:pos:R:3:Z:I:1 energy=-284.89250650849164 field_type=dipole dipole="0.000000 0.000000 0.000000" charge=0
O	-2.800726	0.483862	1.047089	8
C	-1.681046	0.936992	0.813879	6
C	-0.804036	0.451362	-0.316291	6
N	0.570974	0.346832	0.188959	7
C	1.003954	-1.026698	0.437019	6
C	1.480494	-0.269268	-0.773941	6
H	-1.298686	1.803282	1.380739	1
H	-0.848896	1.205441	-1.109161	1
H	-1.213816	-0.488668	-0.704981	1
H	0.299114	-1.837838	0.297699	1
H	1.700264	-1.162868	1.256229	1
H	2.496024	0.108592	-0.770281	1
H	1.096384	-0.551018	-1.746961	1
Es	-2.210808	0.635681	0.984385	99
Es	-0.724813	0.518142	-0.382320	99
Es	0.779822	-0.187347	-0.046918	99
Es	-2.413341	0.653973	0.985945	99
Es	0.536237	0.234879	-0.185016	99
Es	0.594600	-0.432092	0.393251	99
Es	0.657789	-0.145022	0.262524	99
Es	1.348624	-0.942589	0.424135	99
Es	2.031879	-0.041221	-0.770384	99
Es	-2.184633	0.779170	1.010316	99
Es	-2.712923	0.566068	1.105949	99
Es	-1.172178	0.572703	0.157577	99
Es	-1.382779	0.716209	0.431119	99
Es	1.392981	-0.400020	-0.836123	99
Es	-2.626751	0.577403	1.061057	99
Es	-0.445564	0.605009	-0.512598	99
Es	0.928529	-1.279852	0.164108	99
Es	0.880107	-0.077382	-0.127116	99
Es	1.303210	-0.535894	-0.595878	99
Es	-1.180202	0.742230	0.101240	99
Es	0.082363	0.270342	-0.023071	99
Es	0.864053	-0.528817	0.242166	99
Es	-2.739407	0.698950	0.982916	99
