36
Properties=species:S:1:pos:R:3:Z:I:1 energy=-284.93494532898353 field_type=dipole dipole="0.000000 0.000000 0.000000" charge=0
O	-3.081275	-1.023080	-0.178578	8
C	-1.990585	-0.759630	0.308502	6
N	-1.104795	0.112750	-0.258858	7
C	0.149835	0.457040	0.315272	6
C	1.333525	-0.462300	0.198692	6
C	1.309755	0.828140	-0.567008	6
H	-1.628925	-1.204410	1.250082	1
H	-1.414075	0.552660	-1.117818	1
H	0.051135	1.018460	1.242092	1
H	1.221845	-1.384070	-0.360468	1
H	2.004456	-0.536520	1.046742	1
H	1.962225	1.628120	-0.236268	1
H	1.186875	0.772840	-1.642388	1
Es	-1.391695	-0.005579	-0.025006	99
Es	0.361096	0.512524	0.003310	99
Es	0.681620	0.026575	0.331175	99
Es	1.128145	0.514897	-0.231762	99
Es	1.365269	0.941436	-0.680414	99
Es	1.546867	-0.423258	0.421304	99
Es	-3.062682	-0.789762	-0.191146	99
Es	0.798091	-0.026146	0.206344	99
Es	-1.922475	-1.092368	0.616393	99
Es	-2.889928	-0.980720	0.195936	99
Es	-2.266019	-0.918547	0.217237	99
Es	-0.437044	0.261948	0.063649	99
Es	1.411065	-0.115759	0.058217	99
Es	-1.302493	0.007034	-0.303791	99
Es	-1.209733	0.317660	-0.625144	99
Es	1.533414	0.791117	-0.433420	99
Es	-1.138886	0.020877	-0.195586	99
Es	-2.708498	-0.992892	0.050447	99
Es	1.070878	0.630484	-0.286652	99
Es	0.490751	0.507972	0.017689	99
Es	-3.095481	-1.044615	-0.199383	99
Es	-2.591174	-0.942856	-0.083341	99
Es	1.093457	-0.454647	0.237975	99
