44
Properties=species:S:1:pos:R:3:Z:I:1 energy=-304.10243814307785 field_type=dipole dipole="0.000000 0.000000 0.000000" charge=0
C	-2.530384	-0.296187	-0.193582	6
C	-1.029584	-0.430887	-0.134692	6
C	-0.541214	-1.848247	-0.252812	6
C	-0.265374	0.666403	0.010828	6
C	1.213236	0.694243	0.073768	6
N	1.851516	1.811833	0.233108	7
N	3.195066	1.657343	0.272638	7
H	-2.859214	0.745403	-0.111522	1
H	-2.993994	-0.855877	0.625598	1
H	-2.909424	-0.689677	-1.142682	1
H	-0.989394	-2.465647	0.533228	1
H	0.541296	-1.951617	-0.162742	1
H	-0.831264	-2.264707	-1.223292	1
H	-0.718204	1.652093	0.089218	1
H	1.742756	-0.267157	-0.025322	1
H	3.637986	2.579123	0.237268	1
H	3.486186	1.263563	1.170988	1
Es	2.169025	2.059010	0.301629	99
Es	1.866729	1.898607	0.236216	99
Es	-0.196889	0.501951	0.043568	99
Es	1.582275	1.253642	0.114065	99
Es	-0.647053	-2.224086	-0.235393	99
Es	-0.538638	0.236102	0.165590	99
Es	3.427063	1.348132	0.364297	99
Es	-2.717459	0.235757	-0.183594	99
Es	3.273457	1.673927	0.321503	99
Es	2.136096	1.759745	0.257204	99
Es	-0.574341	-1.557870	-0.217890	99
Es	-0.053663	-1.843845	-0.205285	99
Es	-0.575559	1.326775	0.030371	99
Es	-1.843558	-0.344030	-0.134372	99
Es	-0.803122	-1.447957	-0.281036	99
Es	1.389941	0.405293	0.022463	99
Es	-0.552430	0.204022	-0.254337	99
Es	3.274271	2.013131	0.353871	99
Es	-2.555684	-0.235749	-0.210030	99
Es	-2.681013	-0.528416	-0.202875	99
Es	-2.805248	-0.691419	-0.256458	99
Es	1.406737	0.442035	0.084325	99
Es	0.309868	0.660029	0.018027	99
Es	3.220099	1.693250	0.278260	99
Es	-1.014091	-0.487981	-0.143553	99
Es	-0.712723	-2.058168	-0.306861	99
Es	1.528323	1.258585	0.227938	99
