41
Properties=species:S:1:pos:R:3:Z:I:1 energy=-302.89448984821007 field_type=dipole dipole="0.000000 0.000000 0.000000" charge=0
C	-3.313820	0.097270	-0.006686	6
C	-1.869820	0.097270	-0.006686	6
C	-0.679660	0.097270	-0.006686	6
C	0.759660	0.029620	-0.044756	6
C	1.434540	-1.305370	-0.074626	6
N	1.299650	1.209110	-0.056996	7
N	2.654760	1.232940	-0.097406	7
H	-3.707870	1.118120	0.004984	1
H	-3.707850	-0.423290	0.871564	1
H	-3.707840	-0.403060	-0.896616	1
H	0.699380	-2.115100	-0.076916	1
H	2.073210	-1.414260	0.806404	1
H	2.049440	-1.387890	-0.975286	1
H	2.965660	2.196230	-0.249186	1
H	3.050560	0.971140	0.808894	1
Es	1.280598	1.167243	-0.061961	99
Es	2.680479	1.209966	0.014354	99
Es	-3.480997	0.057240	-0.176235	99
Es	-0.678435	0.096544	-0.006939	99
Es	1.920563	-1.260003	0.029191	99
Es	2.856607	1.810484	-0.132783	99
Es	1.994153	1.186246	-0.092253	99
Es	1.040085	0.465808	0.133810	99
Es	-3.526736	-0.208356	-0.186125	99
Es	-1.436680	0.103576	0.003193	99
Es	1.063924	0.577328	-0.144861	99
Es	0.073833	0.079171	-0.014204	99
Es	-1.387399	-0.137550	-0.017825	99
Es	1.202742	-0.710937	-0.080455	99
Es	2.862970	0.953648	-0.072453	99
Es	-1.413726	0.123627	-0.021822	99
Es	0.799902	0.199230	-0.071677	99
Es	-2.340988	0.213854	0.071471	99
Es	-3.459086	-0.079598	0.288504	99
Es	1.406773	-1.330601	-0.088874	99
Es	-3.527822	0.588154	0.053690	99
Es	0.987605	-1.718915	-0.134875	99
Es	2.694338	1.200769	0.061866	99
Es	1.107197	1.500623	-0.121108	99
Es	-1.615389	0.171812	-0.088580	99
Es	1.577108	-1.269694	-0.057301	99
