47
Properties=species:S:1:pos:R:3:Z:I:1 energy=-305.32431723132777 field_type=dipole dipole="0.000000 0.000000 0.000000" charge=0
C	-1.623286	-0.937263	0.234812	6
C	-0.107376	-1.033593	0.044732	6
C	0.212684	-1.976803	-1.116348	6
C	0.519044	0.347417	-0.210518	6
N	0.400364	1.191177	0.963962	7
C	0.749294	2.507147	0.998942	6
N	0.930174	3.310617	0.016472	7
H	-1.875276	-0.323663	1.105662	1
H	-2.057606	-1.929843	0.394642	1
H	-2.106206	-0.494883	-0.643138	1
H	0.324524	-1.462213	0.958442	1
H	-0.191016	-1.596393	-2.060708	1
H	-0.214256	-2.969703	-0.940398	1
H	1.294924	-2.095503	-1.233278	1
H	0.029824	0.819227	-1.070398	1
H	1.582024	0.233287	-0.453158	1
H	0.504864	0.699877	1.847402	1
H	0.871674	2.882167	2.028642	1
H	0.755634	2.828947	-0.865768	1
Es	0.718810	2.483291	0.499604	99
Es	0.677926	0.415119	-0.384953	99
Es	0.791916	2.905233	0.567806	99
Es	0.499404	0.401455	-0.197626	99
Es	0.002398	-1.492505	-0.538746	99
Es	-0.313324	-1.211424	-0.286972	99
Es	0.483238	1.734216	0.708246	99
Es	0.921289	2.916665	0.187522	99
Es	-1.041789	-1.022165	0.248100	99
Es	0.160538	-2.035837	-1.326347	99
Es	0.899903	3.084192	0.522959	99
Es	0.276550	-1.925373	-1.172221	99
Es	0.072611	0.390418	0.845495	99
Es	-1.476464	-0.482455	0.690095	99
Es	-0.424086	-1.255694	-0.301493	99
Es	-0.438100	-0.598975	0.171292	99
Es	0.261877	1.594488	1.024473	99
Es	-0.684476	-1.268601	-0.090848	99
Es	1.052308	3.164394	0.317215	99
Es	0.408217	1.214507	0.897928	99
Es	0.798044	2.872257	0.416828	99
Es	0.798139	0.458859	-0.592670	99
Es	-0.002128	-2.334823	-1.135802	99
Es	0.779767	2.921648	0.832781	99
Es	0.586038	1.318401	0.586777	99
Es	0.311802	-0.631169	-0.299592	99
Es	-1.831191	-1.452152	0.360122	99
Es	-0.873177	-0.958736	0.167616	99
