38
Properties=species:S:1:pos:R:3:Z:I:1 energy=-301.82379229515425 field_type=dipole dipole="0.000000 0.000000 0.000000" charge=0
C	-1.525852	0.121405	0.536402	6
C	0.002328	0.129695	0.449422	6
C	0.462298	-0.610985	-0.812278	6
C	1.899107	-0.915165	-0.764328	6
N	3.028068	-1.173295	-0.712018	7
C	0.484348	1.490865	0.449422	6
N	0.868558	2.575855	0.449422	7
H	-1.870852	0.642475	1.436942	1
H	-1.908522	-0.904095	0.577342	1
H	-1.980502	0.618635	-0.328478	1
H	0.387658	-0.389685	1.336712	1
H	0.236917	-0.027265	-1.713898	1
H	-0.083552	-1.558445	-0.904668	1
Es	-1.689552	0.335672	0.581190	99
Es	-0.121699	0.285913	0.379155	99
Es	0.053289	0.110330	0.244700	99
Es	3.036697	-1.227383	-0.784615	99
Es	1.959383	-0.897114	-0.728281	99
Es	0.933511	2.711596	0.508438	99
Es	0.580749	1.652524	0.423032	99
Es	2.291023	-1.010880	-0.753418	99
Es	-1.556036	-0.068876	0.681084	99
Es	0.438756	1.972956	0.293964	99
Es	2.782501	-1.074978	-0.727673	99
Es	-1.441143	0.219686	0.627546	99
Es	-1.676570	-0.065177	0.366760	99
Es	0.797800	1.762099	0.365154	99
Es	0.122939	-1.230637	-0.859737	99
Es	0.394065	-0.392838	-0.635481	99
Es	0.416561	-0.496113	-0.733859	99
Es	1.598675	-0.956908	-0.816513	99
Es	0.766112	2.443895	0.671482	99
Es	-0.867831	0.245143	0.377502	99
Es	2.407991	-1.147484	-0.652200	99
Es	2.930491	-0.924866	-0.778387	99
Es	0.386488	0.136250	0.302674	99
Es	0.224563	0.315458	0.003277	99
Es	0.808150	2.340445	0.504482	99
