47
Properties=species:S:1:pos:R:3:Z:I:1 energy=-305.32399757272196 field_type=dipole dipole="0.000000 0.000000 0.000000" charge=0
C	-0.530603	-2.136116	-0.713319	6
C	-1.105063	-0.989446	0.108881	6
C	-0.426993	0.355564	-0.193269	6
C	-1.139973	1.489184	0.541741	6
N	0.963727	0.313244	0.230431	7
C	1.930777	1.100774	-0.298279	6
N	3.117187	1.231214	0.174621	7
H	-1.076793	-3.060756	-0.501279	1
H	0.523787	-2.308676	-0.477429	1
H	-0.615833	-1.930736	-1.784969	1
H	-1.011423	-1.234086	1.174541	1
H	-2.177723	-0.913466	-0.108259	1
H	-0.482103	0.544674	-1.272599	1
H	-1.105643	1.344504	1.627320	1
H	-2.190223	1.550694	0.238461	1
H	-0.670243	2.454214	0.322441	1
H	1.142897	-0.104026	1.135521	1
H	1.630077	1.651754	-1.205679	1
H	3.224167	0.641484	1.001131	1
Es	2.329342	1.126355	-0.059402	99
Es	-1.162278	1.362425	0.588178	99
Es	0.554325	0.112452	0.146257	99
Es	-0.443879	0.167865	-0.213009	99
Es	-1.187055	1.708576	0.436250	99
Es	-1.137511	-0.410918	-0.024182	99
Es	0.236026	0.166224	0.028893	99
Es	3.094308	1.215610	0.178620	99
Es	1.305968	0.550509	-0.143468	99
Es	1.384750	0.762972	0.151822	99
Es	3.408506	1.387661	0.032025	99
Es	-0.856082	-2.036712	-0.543688	99
Es	-0.789287	0.969571	0.274951	99
Es	-0.795557	-1.954235	-0.582231	99
Es	-0.483990	-1.847970	-0.562224	99
Es	-0.015983	0.271363	-0.212416	99
Es	2.494556	1.259019	0.178849	99
Es	-0.931989	1.859981	0.600795	99
Es	2.469067	1.069920	-0.106997	99
Es	-0.719891	-1.154372	-0.167332	99
Es	-0.376790	-2.343529	-0.557997	99
Es	1.818304	1.011437	-0.211741	99
Es	-1.119791	-0.849137	-0.000426	99
Es	-0.902634	-1.017652	-0.210458	99
Es	2.697301	1.001190	0.223393	99
Es	-0.803663	-1.652909	-0.321459	99
Es	-1.472528	1.342938	0.659989	99
Es	0.884079	0.273035	0.185269	99
