47
Properties=species:S:1:pos:R:3:Z:I:1 energy=-305.3236668345006 field_type=dipole dipole="0.000000 0.000000 0.000000" charge=0
C	-2.271140	-1.458291	-0.067806	6
C	-0.963950	-0.955641	0.526324	6
C	-0.670620	0.483979	0.095724	6
C	0.601980	1.048389	0.726904	6
N	1.785240	0.343149	0.285624	7
C	2.436930	0.513509	-0.895926	6
N	2.223690	1.385089	-1.809316	7
H	-2.457710	-2.490131	0.245304	1
H	-2.239450	-1.435811	-1.161686	1
H	-3.114850	-0.845321	0.264514	1
H	-0.152030	-1.619231	0.207344	1
H	-1.021340	-1.013321	1.619204	1
H	-1.512760	1.121969	0.391534	1
H	-0.603170	0.533909	-0.997936	1
H	0.536749	0.976419	1.818624	1
H	0.689579	2.115839	0.493734	1
H	2.031139	-0.477791	0.829094	1
H	3.253580	-0.217641	-1.032576	1
H	1.448140	1.990929	-1.538676	1
Es	-1.138173	-0.982887	0.419301	99
Es	-1.763135	-0.870783	-0.150924	99
Es	-0.255280	0.038322	0.353162	99
Es	0.571640	0.494597	0.143182	99
Es	2.696234	0.832785	-1.133534	99
Es	2.064022	1.381415	-1.700231	99
Es	-0.256797	0.577985	-0.088768	99
Es	0.322336	0.494307	0.450888	99
Es	-2.434538	-1.458563	0.023640	99
Es	1.986182	0.753498	-1.028697	99
Es	1.182774	0.753547	0.306295	99
Es	-1.451601	-0.381611	0.131740	99
Es	1.451876	1.037751	-0.021692	99
Es	2.169764	0.883703	-1.005489	99
Es	-1.347885	-1.018613	0.749529	99
Es	-1.731819	-1.150287	0.248406	99
Es	1.503684	0.573285	0.320048	99
Es	2.112053	0.782547	-0.549759	99
Es	1.510276	0.524288	0.173433	99
Es	0.049037	0.324347	0.453726	99
Es	2.472499	1.104206	-1.592317	99
Es	2.206524	1.127537	-1.306528	99
Es	2.020779	0.519491	-0.348263	99
Es	-2.619296	-1.730795	0.232955	99
Es	-0.179191	0.027457	0.424718	99
Es	1.255097	0.701194	0.117333	99
Es	-0.599431	0.352300	0.197581	99
Es	-1.769028	-1.252913	0.210856	99
