48
Properties=species:S:1:pos:R:3:Z:I:1 energy=-289.285667725578 field_type=dipole dipole="0.000000 0.000000 0.000000" charge=0
C	-2.317394	-1.657492	1.548308	6
C	-1.190354	-1.578302	0.529168	6
C	-0.687544	-0.143662	0.364068	6
N	0.356106	-0.099532	-0.660822	7
C	0.916046	1.243677	-0.829702	6
C	2.240486	1.563708	-0.197402	6
C	2.139616	1.407917	-1.686632	6
H	-2.657034	-2.691792	1.657368	1
H	-3.172264	-1.051242	1.233238	1
H	-1.986194	-1.302432	2.528938	1
H	-1.552974	-1.966382	-0.431022	1
H	-0.367944	-2.228763	0.851808	1
H	-0.290894	0.216758	1.319998	1
H	-1.520524	0.508478	0.076638	1
H	-0.023824	-0.440532	-1.543612	1
H	0.188216	2.051337	-0.891692	1
H	2.746926	0.783177	0.358538	1
H	2.383886	2.559968	0.202658	1
H	2.213326	2.299858	-2.297032	1
H	2.582336	0.525257	-2.132812	1
Es	1.497985	1.193198	-1.288878	99
Es	-2.104748	-1.767555	1.335516	99
Es	-2.167289	-1.620154	1.535616	99
Es	2.139919	1.374163	-1.464761	99
Es	-2.494942	-1.499266	1.565843	99
Es	2.356238	1.701350	-1.703883	99
Es	2.120380	1.757939	-0.612129	99
Es	1.700545	1.491662	-0.692948	99
Es	-2.101336	-1.507371	1.889403	99
Es	1.415703	1.414402	-0.397623	99
Es	2.239194	1.512006	-1.326997	99
Es	-0.642555	-0.098833	0.653853	99
Es	2.129677	1.483528	-0.308368	99
Es	0.273091	-0.298228	-1.069323	99
Es	-0.821462	-0.563263	0.567060	99
Es	0.466814	0.265683	-0.759665	99
Es	-0.666325	-0.636258	0.527536	99
Es	-1.345615	-1.587036	0.606912	99
Es	-1.103195	-1.639443	0.264119	99
Es	0.533576	0.345425	-0.702780	99
Es	-0.735187	-0.202254	0.212995	99
Es	0.219507	-0.190947	-0.290730	99
Es	-0.036206	0.007968	-0.360259	99
Es	1.760814	1.444572	-1.174992	99
Es	0.873501	1.125305	-0.805165	99
Es	-1.208540	-1.400368	0.207783	99
Es	-2.494497	-1.839063	1.264116	99
Es	2.100400	1.479515	-0.300481	99
