48
Properties=species:S:1:pos:R:3:Z:I:1 energy=-289.306153946902 field_type=dipole dipole="0.000000 0.000000 0.000000" charge=0
C	-0.739416	-2.140707	-0.326061	6
C	-1.491646	-0.988567	0.329779	6
C	-0.981666	0.395653	-0.109041	6
N	-1.810466	1.441683	0.488849	7
C	0.444704	0.638823	0.298799	6
C	1.447464	0.871423	-0.565401	6
C	2.863134	1.112162	-0.155591	6
H	-1.192956	-3.094847	-0.039991	1
H	0.308664	-2.164797	-0.014301	1
H	-0.775676	-2.061857	-1.416661	1
H	-1.424326	-1.097007	1.420769	1
H	-2.554456	-1.083207	0.069959	1
H	-1.078776	0.476773	-1.198731	1
H	-1.842396	1.314213	1.498389	1
H	-2.769356	1.333593	0.164359	1
H	0.657444	0.619732	1.364749	1
H	1.243194	0.902003	-1.632931	1
H	2.995404	1.059923	0.929819	1
H	3.185544	2.102082	-0.492071	1
H	3.515584	0.362933	-0.614691	1
Es	-0.466315	-1.982641	-0.298199	99
Es	-1.097510	-1.267345	0.055599	99
Es	2.708960	1.108450	-0.287822	99
Es	-1.493492	1.407062	0.507264	99
Es	3.043746	1.027532	-0.439049	99
Es	-1.711166	1.286646	0.421114	99
Es	-0.841030	-2.329194	-0.383561	99
Es	2.873835	0.927353	-0.141555	99
Es	2.513133	1.196167	-0.283339	99
Es	0.305311	0.763054	0.116528	99
Es	0.709374	0.675386	0.114435	99
Es	0.965876	0.483461	-0.064880	99
Es	2.310680	1.175844	-0.275561	99
Es	-1.807544	0.985975	0.365222	99
Es	1.310155	0.773631	-0.358880	99
Es	-1.399065	-0.049601	0.196096	99
Es	-1.146410	-1.254657	0.060957	99
Es	0.550524	0.787418	0.027801	99
Es	-2.160511	1.292096	0.397285	99
Es	-0.608589	-2.136549	-0.359062	99
Es	-1.138036	-0.292005	0.275140	99
Es	-0.190023	0.593769	0.086051	99
Es	-1.921450	-1.246896	0.115875	99
Es	-1.769964	1.277890	0.660624	99
Es	-1.151779	-2.134569	-0.173020	99
Es	-1.286682	-0.251994	0.248758	99
Es	-0.746447	0.350053	-0.146596	99
Es	2.101689	1.009438	-0.311490	99
