40
Properties=species:S:1:pos:R:3:Z:I:1 energy=-318.9971102144874 field_type=dipole dipole="0.000000 0.000000 0.000000" charge=0
C	-1.425059	-0.728852	0.227165	6
C	0.095061	-0.641362	0.307135	6
C	0.725241	-1.424342	-0.763155	6
N	1.215041	-2.032442	-1.623605	7
C	0.528251	0.820318	0.226385	6
N	0.435371	1.528508	-0.936455	7
N	0.968151	1.459338	1.265065	7
H	-1.891709	-0.132972	1.019295	1
H	-1.764499	-1.764922	0.336395	1
H	-1.803059	-0.355882	-0.732035	1
H	0.416201	-1.044822	1.274945	1
H	0.578031	1.039208	-1.814415	1
H	0.935571	2.412218	-0.887515	1
H	0.987401	0.866008	2.100795	1
Es	0.696840	1.305746	0.378937	99
Es	0.974599	-1.493453	-1.362175	99
Es	1.188264	-1.955592	-1.603043	99
Es	-0.016344	-0.644053	-0.119455	99
Es	0.781112	1.634774	0.854026	99
Es	0.540374	1.101500	0.197766	99
Es	0.493754	1.265622	-0.248096	99
Es	0.725624	1.374132	0.549197	99
Es	0.692080	0.991058	0.278498	99
Es	0.279062	-1.353008	-0.693020	99
Es	0.255100	0.589322	0.335883	99
Es	-0.647202	-0.717495	0.073539	99
Es	-0.745038	-0.469050	0.628414	99
Es	-1.065398	-1.007264	0.136522	99
Es	0.783753	1.610767	0.135841	99
Es	0.776610	-1.041321	-1.042509	99
Es	0.387408	-0.495995	-0.627923	99
Es	1.162408	-2.174575	-1.781808	99
Es	0.217691	-0.448694	-0.040019	99
Es	-0.480083	-0.721016	-0.006311	99
Es	0.106497	0.438923	0.608986	99
Es	0.550756	-1.262290	-1.013193	99
Es	-0.504777	-0.515413	0.294715	99
Es	-0.682431	-0.760724	0.282468	99
Es	0.727990	1.450676	-0.929081	99
Es	0.687070	1.229895	0.715188	99
