41
Properties=species:S:1:pos:R:3:Z:I:1 energy=-302.8807999525214 field_type=dipole dipole="0.000000 0.000000 0.000000" charge=0
C	-0.475708	-1.464465	0.942984	6
C	-0.218688	-0.948255	-0.462066	6
C	0.324502	0.452885	-0.423346	6
N	-0.313928	1.582695	-0.405136	7
N	-1.666158	1.499005	-0.432116	7
C	1.751602	0.659365	-0.358936	6
C	2.939532	0.826915	-0.303916	6
H	-0.860758	-2.488115	0.907564	1
H	-1.207948	-0.841805	1.467004	1
H	0.444162	-1.465655	1.537144	1
H	-1.141388	-0.978135	-1.050006	1
H	0.505902	-1.598895	-0.965026	1
H	-2.045178	2.407475	-0.715256	1
H	-2.027588	1.369484	0.517094	1
H	3.991642	0.987505	-0.255986	1
Es	-0.244375	-1.191991	0.062502	99
Es	-1.060870	1.478510	-0.254608	99
Es	-0.738096	1.680861	-0.463178	99
Es	-0.117899	1.237136	-0.407739	99
Es	-0.557284	-1.163311	0.385336	99
Es	2.617156	0.663966	-0.368823	99
Es	-1.710191	1.852468	-0.599352	99
Es	-1.585155	1.294443	-0.307677	99
Es	-0.265251	-1.203672	0.440872	99
Es	-0.218983	-1.342281	0.500174	99
Es	0.046904	0.427873	-0.471705	99
Es	2.359066	0.940083	-0.551545	99
Es	-0.387880	-1.296963	0.505769	99
Es	-0.624415	-1.059237	0.328765	99
Es	0.138865	0.468699	-0.338990	99
Es	3.545982	0.911066	-0.362429	99
Es	-1.695038	1.477186	-0.311454	99
Es	-1.486231	1.693949	-0.431686	99
Es	-0.000529	0.260648	-0.450937	99
Es	2.157665	0.696476	-0.006390	99
Es	-0.692756	-2.160087	0.949186	99
Es	1.962926	0.615286	-0.332582	99
Es	-0.068396	-0.228454	-0.402735	99
Es	1.240968	0.559182	-0.410926	99
Es	-0.078998	0.899483	-0.459517	99
Es	2.416362	0.668709	-0.364869	99
