45
Properties=species:S:1:pos:R:3:Z:I:1 energy=-288.12305398229375 field_type=dipole dipole="0.000000 0.000000 0.000000" charge=0
C	0.063296	-2.405927	-0.325776	6
C	-0.429794	-1.234667	0.515694	6
N	0.355546	-0.025817	0.286524	7
C	0.234506	0.525463	-1.074556	6
C	0.291606	2.000913	-0.878366	6
C	0.167426	2.301673	0.416014	6
C	0.013726	1.059623	1.222804	6
H	-0.497764	-3.311267	-0.071496	1
H	1.124226	-2.605797	-0.140536	1
H	-0.070894	-2.222077	-1.396606	1
H	-0.342164	-1.524787	1.569924	1
H	-1.494544	-1.061157	0.317004	1
H	-0.713764	0.264613	-1.559376	1
H	1.065946	0.179273	-1.695986	1
H	0.393236	2.714513	-1.681686	1
H	0.152046	3.298413	0.830214	1
H	0.703466	1.051613	2.072174	1
H	-1.016094	0.995403	1.594034	1
Es	0.208963	0.644861	-1.118952	99
Es	0.014700	-2.343694	-0.676831	99
Es	-0.081587	-2.097219	-0.240718	99
Es	-0.493413	-1.080225	0.467344	99
Es	-0.072671	0.931861	1.178348	99
Es	0.217995	-0.160646	0.178778	99
Es	0.219073	0.275308	-0.322181	99
Es	0.318123	1.019927	-0.736866	99
Es	0.009593	1.066180	1.533701	99
Es	0.170354	0.295627	0.562749	99
Es	0.180129	2.155376	-0.158143	99
Es	-0.132357	-2.712393	-0.210399	99
Es	0.104686	0.342897	-0.904931	99
Es	-0.388139	-1.392089	1.218003	99
Es	-0.084795	-0.678882	0.379909	99
Es	0.365968	2.463599	-1.431243	99
Es	0.160823	2.889057	0.701287	99
Es	-0.541555	-1.201652	0.281311	99
Es	0.066867	1.738047	0.807904	99
Es	0.136967	2.274428	0.356560	99
Es	0.286316	0.424213	0.025185	99
Es	0.222799	-2.277791	-0.270587	99
Es	0.370614	0.261860	-1.536975	99
Es	-0.048144	0.975683	1.615035	99
Es	0.357373	2.196913	-0.242827	99
Es	0.270252	1.860559	-0.781956	99
Es	0.171038	-2.352046	-0.114131	99
