48
Properties=species:S:1:pos:R:3:Z:I:1 energy=-289.2861700262709 field_type=dipole dipole="0.000000 0.000000 0.000000" charge=0
C	-2.822789	0.368994	-0.405906	6
C	-1.513729	0.047784	0.298484	6
N	-0.391439	0.325404	-0.595066	7
C	0.926102	-0.036986	-0.032586	6
C	1.382452	0.740994	1.178604	6
C	1.371421	-1.474736	-0.153856	6
C	1.985822	-0.429696	-1.036596	6
H	-3.668118	0.174394	0.262404	1
H	-2.952379	-0.247796	-1.302046	1
H	-2.866259	1.422034	-0.704546	1
H	-1.516049	-1.007166	0.593674	1
H	-1.443139	0.654614	1.207114	1
H	-0.405029	1.305354	-0.876406	1
H	2.436091	0.551494	1.412734	1
H	0.795061	0.461594	2.059124	1
H	1.266161	1.816824	1.010654	1
H	0.694841	-2.186856	-0.613076	1
H	1.982621	-1.897296	0.634754	1
H	3.015731	-0.147686	-0.848966	1
H	1.722621	-0.441276	-2.088496	1
Es	-0.848966	0.363567	-0.109243	99
Es	0.940058	0.643555	0.954999	99
Es	0.897184	0.410596	0.362322	99
Es	1.226762	-0.919698	-0.429553	99
Es	-1.063574	0.055117	-0.076947	99
Es	-2.408212	0.130005	-0.367081	99
Es	-0.187537	0.157231	-0.494982	99
Es	1.474992	-0.876404	-0.733328	99
Es	0.813666	0.513270	0.545826	99
Es	1.545137	-0.809922	-0.665767	99
Es	-0.738832	0.256463	-0.182871	99
Es	1.703051	0.114958	0.678354	99
Es	-3.103113	0.333074	-0.185047	99
Es	-2.284518	0.267281	-0.213478	99
Es	1.534960	-0.952716	-1.007580	99
Es	2.337331	-0.636495	-0.582428	99
Es	1.265844	-0.506710	-0.308637	99
Es	1.892741	-0.268188	0.386210	99
Es	1.859690	-0.766487	-0.669507	99
Es	1.266130	0.469704	0.858474	99
Es	1.165660	-0.737797	-0.338775	99
Es	-2.927503	0.046439	-0.700353	99
Es	-0.858863	0.416349	0.092199	99
Es	0.998362	0.409850	0.904594	99
Es	-2.546394	0.519440	-0.182638	99
Es	-1.003542	0.397833	0.177476	99
Es	1.013887	-0.202165	0.073097	99
Es	-1.823994	0.126652	-0.035748	99
