47
Properties=species:S:1:pos:R:3:Z:I:1 energy=-305.2761591509063 field_type=dipole dipole="0.000000 0.000000 0.000000" charge=0
C	0.014583	-2.166414	-0.678437	6
C	-0.697807	-0.955104	-0.081277	6
N	-1.205947	-1.280894	1.252603	7
C	0.239833	0.218176	0.035203	6
C	0.578833	1.052306	-1.184947	6
N	-0.282197	1.577226	-0.135237	7
C	0.368853	2.549056	0.736213	6
H	0.383593	-1.940454	-1.684877	1
H	-0.662177	-3.024404	-0.754717	1
H	0.878293	-2.465304	-0.073227	1
H	-1.550467	-0.696514	-0.720707	1
H	-0.452407	-1.639794	1.834263	1
H	-1.890967	-2.030154	1.176553	1
H	1.030073	0.055606	0.760453	1
H	0.085783	0.828096	-2.124257	1
H	1.582502	1.448546	-1.279667	1
H	-0.119327	2.549276	1.716333	1
H	0.259753	3.552206	0.311293	1
H	1.439203	2.368546	0.894433	1
Es	-0.360457	-2.567920	-0.708466	99
Es	-0.871806	-1.160265	0.455994	99
Es	0.401256	2.491521	0.505707	99
Es	0.071775	-0.052265	0.249841	99
Es	-0.315562	-1.663654	-0.052393	99
Es	0.275984	-2.084060	-1.315574	99
Es	0.131118	0.937739	-0.230328	99
Es	0.609655	1.058550	-1.370072	99
Es	0.052525	2.627485	1.268707	99
Es	0.434240	0.947468	-1.409298	99
Es	-1.236425	-1.057287	1.320004	99
Es	0.552772	2.763464	0.598520	99
Es	-0.641451	-1.641003	0.609560	99
Es	0.859162	1.347154	-1.249604	99
Es	-0.133451	-0.188040	-0.141289	99
Es	-1.340874	-1.671385	1.114543	99
Es	-0.094152	1.826827	0.198030	99
Es	0.228094	2.430539	0.581683	99
Es	0.097639	-2.131263	-0.551220	99
Es	-0.710470	-1.032919	0.598900	99
Es	-0.269672	-1.759073	-0.465708	99
Es	-0.690846	-1.022136	0.174321	99
Es	0.215400	0.889995	-0.406864	99
Es	0.010009	0.768248	0.118416	99
Es	-1.173041	-1.133394	1.049310	99
Es	0.169315	1.957858	0.244388	99
Es	0.080894	1.431634	-0.382993	99
Es	0.261866	0.465017	-0.346233	99
