47
Properties=species:S:1:pos:R:3:Z:I:1 energy=-305.2762679844236 field_type=dipole dipole="0.000000 0.000000 0.000000" charge=0
C	-0.562998	-1.378086	-1.388218	6
C	-0.375748	-0.914016	0.054662	6
N	0.354282	-1.934146	0.810972	7
C	0.392852	0.401624	0.085882	6
C	-0.345168	1.660293	-0.425968	6
N	0.282672	2.430774	0.673082	7
C	0.419782	1.162584	1.432102	6
H	-1.138288	-0.643436	-1.962648	1
H	-1.104708	-2.329596	-1.429788	1
H	0.398912	-1.510746	-1.897478	1
H	-1.362088	-0.786286	0.515362	1
H	1.232322	-2.153026	0.340972	1
H	-0.180308	-2.802836	0.811822	1
H	1.397912	0.309944	-0.355668	1
H	-1.438758	1.622304	-0.355098	1
H	-0.071678	1.992184	-1.431848	1
H	1.184172	2.833774	0.415112	1
H	1.345482	1.072384	2.008101	1
H	-0.428648	0.966314	2.098652	1
Es	0.542274	2.228248	0.681165	99
Es	0.179525	1.089947	0.865496	99
Es	0.177330	0.208925	0.121843	99
Es	-0.690879	-0.899923	-1.585753	99
Es	0.396936	-1.944742	0.697898	99
Es	0.301390	2.365548	0.733320	99
Es	-0.164235	-1.059277	0.357107	99
Es	0.354976	0.585546	0.712282	99
Es	0.133264	2.231958	0.503637	99
Es	0.141045	1.513777	0.346578	99
Es	0.249870	-2.187796	0.714850	99
Es	-0.311876	-1.286044	-0.978868	99
Es	-0.332101	-1.302448	-1.118771	99
Es	-0.898992	-1.938095	-1.418537	99
Es	0.362419	-2.056780	0.659448	99
Es	0.359318	0.622952	0.112438	99
Es	-0.094416	1.887945	-0.064325	99
Es	-0.355282	1.769720	-0.964434	99
Es	-0.449302	-1.244358	-1.043238	99
Es	0.495117	1.185208	1.541718	99
Es	-0.268865	1.855002	-0.196396	99
Es	-0.228669	-0.666243	0.282572	99
Es	-0.359116	1.466497	-0.362779	99
Es	0.616228	1.132046	1.843677	99
Es	0.381964	-1.949052	1.111924	99
Es	0.082268	-0.562890	0.143605	99
Es	0.454885	2.137819	1.097436	99
Es	-0.403911	-1.191622	-0.751134	99
