42
Properties=species:S:1:pos:R:3:Z:I:1 energy=-286.9033040920689 field_type=dipole dipole="0.000000 0.000000 0.000000" charge=0
C	-1.636078	-0.171061	0.512021	6
C	-0.109968	-0.154911	0.346131	6
N	0.483122	-0.861731	1.482991	7
C	0.263882	-0.925961	-0.901019	6
C	0.866322	-0.485001	-2.016989	6
C	0.372052	1.206259	0.346131	6
C	0.769332	2.328159	0.346131	6
H	-2.132658	0.335939	-0.325259	1
H	-1.949098	0.343649	1.429541	1
H	-2.030828	-1.193871	0.556681	1
H	0.244012	-0.359281	2.335781	1
H	1.496602	-0.793401	1.398311	1
H	-0.002048	-1.983281	-0.870989	1
H	1.168702	0.548869	-2.146799	1
H	1.071352	-1.166861	-2.836339	1
H	1.125302	3.332479	0.343681	1
Es	-0.384491	-0.637949	0.579760	99
Es	0.451388	0.809481	-0.053708	99
Es	-0.480488	-0.020522	0.827413	99
Es	-0.375904	-0.508181	0.633749	99
Es	0.041841	0.200050	0.647263	99
Es	0.071759	0.116949	0.717910	99
Es	-0.000692	-0.052555	0.654384	99
Es	0.433789	-0.988051	-0.901560	99
Es	-0.625867	-0.589549	0.721887	99
Es	-0.788211	-0.183979	1.095656	99
Es	0.872043	-0.561421	-2.144558	99
Es	0.089825	-0.903405	-0.442948	99
Es	0.078417	-0.413313	-0.299488	99
Es	0.468160	0.734565	0.084559	99
Es	0.309883	1.083395	0.457071	99
Es	0.744519	-0.266760	-1.719415	99
Es	0.530880	1.524845	0.461762	99
Es	-1.027210	-0.624084	0.933725	99
Es	-0.123965	0.316353	0.370349	99
Es	-0.171669	-0.196043	0.665064	99
Es	0.656671	-0.378124	-1.416168	99
Es	0.320494	-0.543045	-1.422547	99
Es	0.868283	2.654358	0.299989	99
Es	0.678541	1.960675	0.335516	99
Es	0.381206	-0.380327	-0.609310	99
Es	-0.269506	-0.339663	0.544472	99
