45
Properties=species:S:1:pos:R:3:Z:I:1 energy=-288.07699163704604 field_type=dipole dipole="0.000000 0.000000 0.000000" charge=0
C	-0.249756	-2.186123	-0.089959	6
C	-0.876656	-0.817893	0.157381	6
N	-0.378816	0.228757	-0.745829	7
C	-1.148746	1.462507	-0.581129	6
C	1.067874	0.478547	-0.652909	6
C	1.533854	0.907237	0.676681	6
C	1.921004	1.256217	1.760011	6
H	-0.767196	-2.945513	0.505801	1
H	0.805804	-2.209053	0.197121	1
H	-0.331826	-2.474453	-1.143149	1
H	-0.746386	-0.540293	1.210491	1
H	-1.956726	-0.931913	-0.002269	1
H	-2.207566	1.283517	-0.800229	1
H	-0.813196	2.228367	-1.289429	1
H	-1.077816	1.872457	0.432451	1
H	1.345524	1.240347	-1.392879	1
H	1.618183	-0.417273	-0.962699	1
H	2.262444	1.564567	2.720551	1
Es	-0.156890	-1.542160	0.057399	99
Es	-0.466593	-1.753042	-0.115075	99
Es	0.885925	1.003539	-0.133052	99
Es	-0.002869	0.123105	-0.361945	99
Es	-0.436730	0.369497	-0.374920	99
Es	2.151163	1.374347	1.829553	99
Es	-0.469992	-1.783313	-0.101178	99
Es	-1.254155	0.936774	-0.842956	99
Es	-0.558670	-2.578185	-0.023112	99
Es	-0.356731	0.958910	-0.505830	99
Es	-0.887729	0.799295	-0.676075	99
Es	1.227684	0.605723	0.186697	99
Es	1.714890	1.059909	1.166053	99
Es	-0.179315	-1.855857	-0.157397	99
Es	-0.171631	-0.783087	-0.028471	99
Es	1.430171	0.854937	0.617349	99
Es	-0.851032	1.843689	-0.513923	99
Es	1.852784	0.942799	1.248738	99
Es	-0.113719	0.231842	-0.408554	99
Es	0.545245	0.340573	-0.348254	99
Es	-0.524912	0.001252	-0.477883	99
Es	-1.021207	1.495449	-0.544840	99
Es	1.688835	1.241675	1.006494	99
Es	-0.714799	-0.243978	-0.137699	99
Es	-0.909018	-0.622974	-0.251880	99
Es	0.462757	-0.610351	-0.147126	99
Es	1.621298	1.021881	0.937917	99
