50
Properties=species:S:1:pos:R:3:Z:I:1 energy=-306.4866672471222 field_type=dipole dipole="0.000000 0.000000 0.000000" charge=0
C	-3.117188	-1.765067	-0.031327	6
C	-1.597788	-1.739977	0.035323	6
N	-1.118478	-0.360797	-0.042567	7
C	0.342642	-0.305537	0.018643	6
C	0.814562	1.150243	-0.010617	6
C	2.341033	1.223823	0.013463	6
N	2.789412	2.612023	0.023563	7
H	-3.478548	-2.796717	0.021473	1
H	-3.478878	-1.328297	-0.967557	1
H	-3.560228	-1.209757	0.801553	1
H	-1.195538	-2.329067	-0.797407	1
H	-1.272078	-2.207907	0.972413	1
H	-1.515148	0.183523	0.723593	1
H	0.769063	-0.843417	-0.836197	1
H	0.702512	-0.785467	0.936443	1
H	0.404263	1.689953	0.852493	1
H	0.434552	1.646143	-0.913257	1
H	2.757622	0.715533	-0.863807	1
H	2.729102	0.719793	0.905393	1
H	2.442802	3.090223	-0.807587	1
H	3.806302	2.640753	-0.034037	1
Es	-2.835159	-1.702728	-0.149187	99
Es	0.808556	1.204307	0.006117	99
Es	2.823467	2.912701	-0.064301	99
Es	-2.954719	-1.574587	0.248609	99
Es	2.388642	1.173384	0.017788	99
Es	2.735654	2.396622	-0.106842	99
Es	0.321463	-0.431584	0.002778	99
Es	2.951007	2.412783	-0.038644	99
Es	-3.288947	-2.166801	-0.100896	99
Es	-2.613305	-1.584717	-0.140454	99
Es	0.541263	0.031332	0.005822	99
Es	-3.258910	-1.882376	-0.008157	99
Es	-1.419239	-1.089338	-0.129265	99
Es	-1.155045	-0.441383	-0.016627	99
Es	-0.431491	-0.347262	0.036176	99
Es	2.638287	2.297811	0.129952	99
Es	0.473793	1.573882	-0.009312	99
Es	-1.713549	-1.714751	0.226336	99
Es	0.532745	-0.065945	0.157584	99
Es	-1.157218	-0.255938	0.107501	99
Es	0.700127	1.332239	-0.078000	99
Es	-1.791536	-1.788383	-0.030695	99
Es	2.582137	1.179686	-0.355064	99
Es	2.573773	0.889419	0.391126	99
Es	1.473269	1.170106	0.035778	99
Es	2.882467	2.606416	-0.151042	99
Es	-1.320729	-1.836656	-0.007304	99
Es	-1.275809	-0.314430	0.059594	99
Es	0.685243	-0.718246	-0.009236	99
