50
Properties=species:S:1:pos:R:3:Z:I:1 energy=-306.4928949722111 field_type=dipole dipole="0.000000 0.000000 0.000000" charge=0
C	-2.492307	-0.149647	-0.325150	6
C	-0.993617	-0.446307	-0.402950	6
N	-0.688357	-1.097917	-1.679231	7
C	-0.179997	0.849083	-0.246810	6
C	1.344113	0.664183	-0.275320	6
C	1.904853	-0.261397	0.806190	6
N	1.595284	0.222783	2.147400	7
H	-2.744427	0.309343	0.636740	1
H	-3.079867	-1.069747	-0.416560	1
H	-2.809637	0.535283	-1.118981	1
H	-0.745707	-1.139987	0.407510	1
H	-0.944327	-0.478407	-2.447360	1
H	-1.270987	-1.927767	-1.783380	1
H	-0.464967	1.341553	0.691330	1
H	-0.451167	1.550413	-1.047150	1
H	1.811633	1.652603	-0.178390	1
H	1.650573	0.282093	-1.256970	1
H	2.993643	-0.321067	0.694100	1
H	1.517893	-1.278297	0.686730	1
H	2.004323	1.147063	2.275790	1
H	2.043043	-0.383857	2.832470	1
Es	-2.171924	0.159559	0.094324	99
Es	-1.085540	0.285916	-0.084632	99
Es	-0.964600	-0.338751	-0.414224	99
Es	1.196714	0.085763	0.336181	99
Es	1.591922	0.238811	2.103503	99
Es	1.471004	0.280243	1.156138	99
Es	-0.940168	-0.811383	-1.287194	99
Es	-0.742130	-0.267815	-0.779172	99
Es	1.709070	0.287226	0.721095	99
Es	-2.621230	-0.068568	-0.590793	99
Es	-1.374098	-0.177009	-0.798546	99
Es	1.938310	0.577128	2.224985	99
Es	1.806563	0.095648	1.507045	99
Es	-0.902071	-0.373697	-0.955564	99
Es	-0.914486	-0.570159	-0.932458	99
Es	1.442357	0.281997	-0.688940	99
Es	-2.555457	-0.250645	-0.478200	99
Es	1.328558	0.271560	0.020904	99
Es	-0.596987	-0.081743	-0.212173	99
Es	-0.931125	-0.712716	-1.527452	99
Es	1.436268	0.183846	1.483564	99
Es	-0.653640	-0.817208	-1.637048	99
Es	-1.074574	-0.520444	-1.076418	99
Es	1.357384	0.240427	0.444399	99
Es	1.781558	0.125413	0.758040	99
Es	1.665765	0.170107	0.750750	99
Es	-1.191650	-0.091155	-0.613775	99
Es	1.741766	0.316129	0.871115	99
Es	-0.081224	0.470777	-0.100711	99
