38
Properties=species:S:1:pos:R:3:Z:I:1 energy=-301.7017664784578 field_type=dipole dipole="0.000000 0.000000 0.000000" charge=0
C	-1.455142	0.827766	-0.225174	6
C	0.003808	0.551436	-0.064624	6
N	0.584098	-0.590794	0.122066	7
N	-0.312682	-1.656144	0.171306	7
C	0.317298	-2.766344	0.359926	6
C	0.955738	1.631476	-0.112854	6
C	1.747468	2.534816	-0.153824	6
H	-1.638452	1.897876	-0.355344	1
H	-1.994162	0.483416	0.662016	1
H	-1.834432	0.295786	-1.102294	1
H	-0.244092	-3.710854	0.424106	1
H	1.414248	-2.827154	0.463516	1
H	2.456298	3.328716	-0.188824	1
Es	-1.812395	0.459178	-0.240252	99
Es	-0.535399	-1.648205	0.147926	99
Es	1.163174	2.365924	-0.150615	99
Es	-0.007189	0.504099	-0.067238	99
Es	-0.461323	-1.658030	0.163471	99
Es	0.018863	-2.126825	0.200782	99
Es	0.904939	1.579421	-0.113229	99
Es	2.149640	3.043835	-0.185060	99
Es	1.314962	2.039387	-0.139876	99
Es	-0.039125	-2.062751	0.278940	99
Es	0.779121	-0.600518	0.154559	99
Es	0.731284	-0.611786	0.148688	99
Es	0.040677	-3.286194	0.403031	99
Es	1.715600	2.520388	-0.156475	99
Es	1.622414	1.858095	-0.102864	99
Es	-1.550559	1.557671	-0.319799	99
Es	-1.489355	0.796336	-0.153694	99
Es	0.279793	-0.077669	0.026615	99
Es	0.128908	-1.122028	0.147426	99
Es	-1.598248	0.644337	-0.269189	99
Es	0.240090	-2.892940	0.369132	99
Es	1.006787	-2.803366	0.442004	99
Es	0.538835	1.174464	-0.096758	99
Es	0.204083	-0.041155	-0.030726	99
Es	-0.567765	0.603215	-0.065500	99
