44
Properties=species:S:1:pos:R:3:Z:I:1 energy=-304.0815373918017 field_type=dipole dipole="0.000000 0.000000 0.000000" charge=0
C	-1.442257	0.142159	1.017834	6
C	0.002473	0.082259	0.517784	6
N	0.071813	-0.512291	-0.827876	7
N	-0.340867	-1.801420	-0.942856	7
C	-0.317357	-2.234940	-2.159146	6
C	0.577103	1.475549	0.453784	6
C	1.644653	1.891459	1.149004	6
H	-1.494037	0.623719	2.001054	1
H	-1.867377	-0.861981	1.123294	1
H	-2.085247	0.709419	0.334594	1
H	0.591623	-0.533791	1.209174	1
H	1.036503	-0.410041	-1.154906	1
H	-0.632387	-3.268170	-2.373226	1
H	-0.000417	-1.623031	-3.022076	1
H	0.071813	2.179529	-0.205246	1
H	2.181173	1.229279	1.821654	1
H	2.002793	2.912289	1.057154	1
Es	-0.178589	-0.880199	-0.967052	99
Es	-0.215545	-1.550153	-0.941621	99
Es	1.597700	1.833476	0.989034	99
Es	-0.303158	-1.961484	-1.460617	99
Es	0.637847	-0.510147	-0.975632	99
Es	-0.081916	-0.977945	-0.936194	99
Es	-0.330994	-2.109471	-2.039428	99
Es	0.025885	-0.639753	-0.791091	99
Es	-0.079729	-0.056209	0.345312	99
Es	-0.205863	-1.896658	-1.452664	99
Es	-0.206990	-2.106945	-2.447888	99
Es	-0.479646	0.123540	0.700735	99
Es	-0.340361	0.058375	0.481397	99
Es	-1.352687	0.271072	0.612803	99
Es	0.242589	1.106242	0.624122	99
Es	-0.536556	-1.890211	-1.156384	99
Es	-1.730971	-0.451890	1.059951	99
Es	-0.845532	0.434977	1.069566	99
Es	1.015992	1.592695	0.738142	99
Es	-0.453966	-2.727268	-2.305158	99
Es	1.366304	1.571995	0.746505	99
Es	1.718822	2.189592	1.096027	99
Es	0.448099	1.191803	0.480141	99
Es	0.616668	1.541956	0.673525	99
Es	1.741327	1.988810	1.245563	99
Es	-1.472698	0.108075	1.052617	99
Es	-0.351702	0.159620	0.779471	99
