46
Properties=species:S:1:pos:R:3:Z:I:1 energy=-272.09979828977674 field_type=dipole dipole="0.000000 0.000000 0.000000" charge=0
C	-2.013058	-1.023823	0.488204	6
C	-1.023848	-1.307433	-0.630446	6
C	0.319692	-0.711793	-0.338456	6
C	1.179042	-0.201453	-1.463816	6
C	0.552202	0.772557	-0.498556	6
C	1.404952	1.449907	0.480654	6
C	1.006782	1.890167	1.682574	6
H	-2.969528	-1.514853	0.285014	1
H	-2.195788	0.051477	0.584774	1
H	-1.636448	-1.386853	1.449914	1
H	-1.427938	-0.923423	-1.574466	1
H	-0.910798	-2.391333	-0.748066	1
H	0.819132	-1.227743	0.475554	1
H	0.786282	-0.226543	-2.474456	1
H	2.245692	-0.388373	-1.407886	1
H	-0.265018	1.378537	-0.879196	1
H	2.443792	1.612327	0.199734	1
H	-0.016998	1.762408	2.016874	1
H	1.701862	2.386237	2.352044	1
Es	-0.649395	-1.163493	-0.692548	99
Es	1.324253	-0.231454	-1.744181	99
Es	1.352746	1.378521	0.278738	99
Es	-1.027349	-1.366133	-0.757472	99
Es	1.273816	1.509999	0.826797	99
Es	1.370708	1.513055	0.861073	99
Es	-2.068543	-1.081318	0.514727	99
Es	1.165589	-0.159634	-1.380944	99
Es	0.963076	-0.213228	-1.218870	99
Es	0.628317	0.430291	-0.693874	99
Es	0.666357	-0.108353	-0.833794	99
Es	1.161040	1.705132	0.977745	99
Es	0.514497	-0.569437	-0.407052	99
Es	-0.924183	-1.678877	-0.609446	99
Es	-2.045019	-1.160085	0.756211	99
Es	-2.035622	-0.427729	0.627776	99
Es	0.783521	0.927342	-0.194532	99
Es	0.436684	1.849110	1.988616	99
Es	-2.326363	-1.378011	0.558851	99
Es	0.473536	-0.335576	-0.657763	99
Es	0.434120	-0.053382	-0.491592	99
Es	1.389917	2.187897	1.992608	99
Es	-1.526503	-1.080720	-0.054526	99
Es	-0.826523	-1.039441	-0.959010	99
Es	1.361938	1.185596	-0.090505	99
Es	1.089963	1.796471	1.517900	99
Es	0.620281	-0.225521	-0.784116	99
