46
Properties=species:S:1:pos:R:3:Z:I:1 energy=-272.1326302780269 field_type=dipole dipole="0.000000 0.000000 0.000000" charge=0
C	-2.074466	-1.798240	-0.506549	6
C	-0.739386	-1.750160	-0.410589	6
C	0.125584	-0.519810	-0.443329	6
C	-0.571806	0.841380	-0.482359	6
C	0.555144	1.807450	-0.148519	6
C	1.397454	1.079040	0.894921	6
C	1.016894	-0.399680	0.798831	6
H	-2.594736	-2.751070	-0.477109	1
H	-2.683756	-0.908010	-0.619279	1
H	-0.204226	-2.694370	-0.312119	1
H	0.774104	-0.600690	-1.327079	1
H	-1.357556	0.913780	0.279631	1
H	-1.016836	1.056890	-1.458659	1
H	1.159844	2.000150	-1.042999	1
H	0.183494	2.769610	0.216471	1
H	2.465454	1.232540	0.708621	1
H	1.182974	1.456960	1.900741	1
H	1.904584	-1.037250	0.722821	1
H	0.477234	-0.698520	1.706551	1
Es	-0.223381	0.299069	-0.438355	99
Es	-2.317441	-2.183649	-0.486609	99
Es	-2.238399	-1.531524	-0.517168	99
Es	-0.026960	0.751424	-0.316620	99
Es	0.633070	1.790488	-0.088397	99
Es	0.296867	2.455430	0.091912	99
Es	0.836150	-0.213175	0.513638	99
Es	1.027212	1.589295	0.140913	99
Es	-1.866538	-1.535684	-0.713873	99
Es	0.891060	-0.435748	0.821056	99
Es	-1.713138	-1.754050	-0.564113	99
Es	0.967494	0.197764	0.666160	99
Es	1.045349	1.649042	0.339047	99
Es	0.958422	-0.574281	0.770409	99
Es	1.378577	-0.829719	0.936994	99
Es	1.904249	1.174326	0.788994	99
Es	-0.628086	-1.824853	-0.393066	99
Es	-0.283680	0.107424	-0.420553	99
Es	-0.393205	-1.924068	-0.303579	99
Es	-1.301546	-1.827191	-0.379956	99
Es	0.145713	-0.524518	-0.508447	99
Es	-0.569585	-1.490262	-0.344472	99
Es	-0.677869	0.648991	-0.281922	99
Es	1.283260	1.014057	0.665847	99
Es	-0.343306	0.723664	-0.505158	99
Es	1.265826	1.359379	0.846223	99
Es	-0.822390	1.008090	-1.064311	99
