43
Properties=species:S:1:pos:R:3:Z:I:1 energy=-270.95769032403405 field_type=dipole dipole="0.000000 0.000000 0.000000" charge=0
C	-2.004853	-1.957680	-0.178504	6
C	-0.676753	-1.799360	-0.160524	6
C	0.008627	-0.543180	-0.016314	6
C	1.340357	-0.408380	0.038346	6
C	1.753847	1.013640	0.221756	6
C	0.469177	1.781200	-0.076134	6
C	-0.674873	0.785670	0.118026	6
H	-2.437203	-2.947390	-0.290524	1
H	-2.695113	-1.126260	-0.081924	1
H	-0.051683	-2.686240	-0.258834	1
H	2.051707	-1.221640	-0.011434	1
H	2.095607	1.180580	1.248356	1
H	2.552547	1.298300	-0.469344	1
H	0.480737	2.132170	-1.116534	1
H	0.359057	2.665050	0.560536	1
H	-1.448673	0.944870	-0.639694	1
H	-1.122513	0.888650	1.112746	1
Es	0.418691	1.940570	-0.196041	99
Es	1.338249	-0.302298	0.036662	99
Es	0.402158	-0.170136	-0.025312	99
Es	1.085705	1.458264	0.083048	99
Es	2.186836	1.146152	0.110813	99
Es	-2.068633	-2.142663	-0.194629	99
Es	-1.278697	-1.843525	-0.252323	99
Es	-0.297532	-2.350906	-0.250079	99
Es	-1.168648	0.915083	0.019220	99
Es	1.765702	1.068314	0.360777	99
Es	-0.542961	0.311818	0.006820	99
Es	-2.505433	-1.463724	-0.124099	99
Es	0.052278	-0.546054	-0.027245	99
Es	0.679977	-0.504982	0.053557	99
Es	-0.203904	0.568964	0.121530	99
Es	-0.386959	-1.217403	-0.115431	99
Es	1.476464	0.177669	0.148341	99
Es	-0.766659	0.753550	0.294187	99
Es	1.948490	1.101871	0.249001	99
Es	-2.142185	-2.358358	-0.229153	99
Es	-0.641359	-1.792936	-0.122486	99
Es	-1.364547	-1.859472	-0.050646	99
Es	1.842942	-0.924839	0.006741	99
Es	0.625984	1.768433	0.039668	99
Es	0.420650	2.270287	-0.052266	99
Es	-0.370914	1.136481	-0.033362	99
