45
Properties=species:S:1:pos:R:3:Z:I:1 energy=-288.0903141393188 field_type=dipole dipole="0.000000 0.000000 0.000000" charge=0
C	-1.371238	-2.546364	-0.287865	6
N	-1.476228	-1.094224	-0.225085	7
C	-0.177328	-0.455634	0.027505	6
C	0.541462	0.205396	-1.111805	6
C	-0.078468	1.052226	-0.033455	6
C	0.772092	1.725496	0.954475	6
C	1.819632	2.517176	0.691715	6
H	-2.347998	-2.975684	-0.528585	1
H	-1.046338	-2.960324	0.672505	1
H	-0.666908	-2.860094	-1.065415	1
H	-2.141338	-0.841454	0.505505	1
H	0.443562	-0.951104	0.773375	1
H	0.066052	0.212506	-2.085835	1
H	1.619422	0.105196	-1.152595	1
H	-0.975398	1.603286	-0.296765	1
H	0.501152	1.570786	1.998635	1
H	2.132373	2.714705	-0.328975	1
H	2.385492	2.978116	1.492665	1
Es	0.962001	1.815230	0.892202	99
Es	-0.985981	-1.034076	-0.122626	99
Es	-1.395978	-1.927186	-0.281146	99
Es	0.706202	1.789063	1.376839	99
Es	-1.554284	-1.035355	0.026788	99
Es	0.229987	-0.080782	-1.147788	99
Es	0.035495	0.976205	0.143029	99
Es	0.652195	1.204840	0.188809	99
Es	-1.398256	-1.807808	0.041030	99
Es	-0.119606	0.925158	0.068432	99
Es	1.965749	2.554214	0.216832	99
Es	-0.920227	-0.976371	-0.063217	99
Es	2.109992	2.787049	1.111375	99
Es	-0.545549	-0.706493	0.176509	99
Es	-0.031501	-0.060281	-0.204880	99
Es	0.338207	1.500295	0.524412	99
Es	0.476450	0.228988	-1.023424	99
Es	-1.437872	-2.549822	-0.311661	99
Es	-1.091716	-2.710743	-0.763041	99
Es	-1.876148	-2.789668	-0.342819	99
Es	0.142777	-0.076588	-0.861086	99
Es	1.870425	2.627548	0.580631	99
Es	1.281932	2.188650	0.805451	99
Es	0.532718	0.580477	-0.685745	99
Es	-1.249082	-1.661321	-0.078734	99
Es	0.632481	0.944141	-0.104464	99
Es	0.007746	0.315646	-0.320792	99
