47
Properties=species:S:1:pos:R:3:Z:I:1 energy=-305.28139405268354 field_type=dipole dipole="0.000000 0.000000 0.000000" charge=0
C	-1.336036	-2.595567	-0.845310	6
N	-1.396346	-1.299037	-0.185260	7
C	-0.108727	-0.597507	-0.203990	6
C	0.077024	0.551673	-1.157800	6
C	-0.055506	0.816633	0.320260	6
C	1.118803	1.258103	1.129600	6
N	1.112804	2.710763	1.189250	7
H	-2.330467	-3.051887	-0.848980	1
H	-0.653466	-3.273887	-0.322960	1
H	-1.011036	-2.495127	-1.885550	1
H	-1.719576	-1.426117	0.773860	1
H	0.762954	-1.217267	-0.002650	1
H	-0.756016	0.830773	-1.793430	1
H	1.046874	0.667463	-1.625700	1
H	-0.984226	1.248663	0.677890	1
H	2.062703	0.907923	0.697580	1
H	1.040474	0.850443	2.142340	1
H	1.193514	3.084444	0.244990	1
H	1.936254	3.029513	1.695860	1
Es	-0.039917	-0.724578	-0.307160	99
Es	-1.171987	-1.020516	-0.214345	99
Es	1.230610	2.616918	1.197478	99
Es	0.357890	0.796033	0.467961	99
Es	1.371505	2.880124	1.513922	99
Es	-1.313938	-1.771539	-0.069057	99
Es	1.150126	1.396754	1.015560	99
Es	-1.386899	-2.299885	-0.890428	99
Es	-0.018382	0.355811	-0.429546	99
Es	0.943939	2.600983	1.270948	99
Es	0.032761	0.241233	-0.533576	99
Es	1.194473	2.143168	1.097694	99
Es	0.004993	0.731986	0.019984	99
Es	-1.317637	-1.562283	-0.283604	99
Es	-1.350258	-2.552774	-0.893084	99
Es	-1.200550	-2.040293	-0.687389	99
Es	1.163610	2.895742	0.656534	99
Es	-0.109713	-0.441274	-0.386850	99
Es	-0.952441	-1.103699	-0.119187	99
Es	-1.671870	-2.591711	-0.854836	99
Es	-0.176935	0.373206	-1.186949	99
Es	0.606410	1.101853	0.641464	99
Es	-1.228817	-2.617844	-0.544698	99
Es	0.240022	0.727031	-0.434309	99
Es	0.203484	0.519545	-0.552996	99
Es	0.806561	0.982174	1.559073	99
Es	-0.038482	0.140201	-0.959525	99
Es	0.885634	1.148400	1.018440	99
