43
Properties=species:S:1:pos:R:3:Z:I:1 energy=-270.94399524612396 field_type=dipole dipole="0.000000 0.000000 0.000000" charge=0
C	-1.638201	-1.611799	-0.451494	6
C	-0.783901	-1.339719	0.543716	6
C	0.471999	-0.488479	0.492696	6
C	1.017119	-0.107479	-0.900564	6
C	0.598999	1.318061	-1.064704	6
C	0.181999	1.847291	0.089196	6
C	0.245519	0.859521	1.210546	6
H	-2.507231	-2.238939	-0.274244	1
H	-1.519921	-1.211929	-1.452464	1
H	-1.001771	-1.768799	1.521996	1
H	1.243879	-1.062789	1.022316	1
H	0.642709	-0.739559	-1.709334	1
H	2.112099	-0.163129	-0.914784	1
H	0.663619	1.855241	-2.000784	1
H	-0.140501	2.871581	0.215576	1
H	1.087879	1.102341	1.867926	1
H	-0.674291	0.878591	1.804406	1
Es	-0.970443	-1.456893	-0.009950	99
Es	0.795680	1.637866	-0.363566	99
Es	0.618119	1.259446	-0.349671	99
Es	-0.968921	-1.437682	0.217485	99
Es	-0.587470	-1.160216	0.342958	99
Es	-1.583318	-1.829067	-0.033532	99
Es	-0.791647	-1.269308	-0.503540	99
Es	-0.452617	-0.893789	0.480972	99
Es	0.727768	1.202059	-0.377857	99
Es	0.343530	-0.658700	-0.960092	99
Es	0.067012	-0.273201	0.637689	99
Es	0.487118	0.489497	0.194547	99
Es	0.690149	0.819172	-1.326328	99
Es	0.644217	0.990276	-0.847972	99
Es	0.251454	1.164646	0.378483	99
Es	0.182734	0.863155	1.192045	99
Es	-0.026598	-0.476887	0.277219	99
Es	0.449539	1.100674	-0.157807	99
Es	0.528732	0.660155	-0.515267	99
Es	-1.124658	-1.496660	-0.221606	99
Es	0.092670	-0.603745	0.060803	99
Es	0.437223	1.084014	1.217746	99
Es	-1.079830	-1.500162	0.284300	99
Es	0.395945	1.058780	0.815586	99
Es	0.758882	0.729582	-1.104836	99
Es	0.305289	1.177290	0.443112	99
