47
Properties=species:S:1:pos:R:3:Z:I:1 energy=-305.26295250452876 field_type=dipole dipole="0.000000 0.000000 0.000000" charge=0
C	-0.934518	-1.762531	-1.640766	6
N	-0.825988	-1.217471	-0.293426	7
C	0.071903	-0.054381	-0.306956	6
C	-0.697128	1.235039	-0.674366	6
N	-0.016407	1.918769	0.460944	7
C	0.131943	0.580729	1.110494	6
C	1.441813	0.443209	1.863694	6
H	-1.624448	-2.612591	-1.635176	1
H	0.034202	-2.117811	-2.008206	1
H	-1.332698	-1.022831	-2.343556	1
H	-0.517838	-1.957351	0.336624	1
H	1.042792	-0.185851	-0.798986	1
H	-1.787758	1.201699	-0.557586	1
H	-0.466928	1.655329	-1.658416	1
H	0.870412	2.345229	0.192454	1
H	-0.723358	0.345299	1.760364	1
H	2.304132	0.708309	1.242004	1
H	1.579372	-0.589461	2.201313	1
H	1.450492	1.086669	2.749554	1
Es	-0.526672	-1.263598	-0.170160	99
Es	0.860203	0.666283	1.251615	99
Es	0.840533	0.485935	1.532193	99
Es	1.428525	0.827187	2.391906	99
Es	0.262178	1.904967	0.406481	99
Es	-0.067581	0.231170	-0.132785	99
Es	-1.118426	-1.357062	-1.939177	99
Es	-0.650589	-1.723088	-1.164680	99
Es	0.221839	1.332793	0.544289	99
Es	-0.114764	0.304963	-0.246958	99
Es	1.519067	-0.166996	2.045102	99
Es	-0.256680	0.072413	-0.475364	99
Es	0.019049	2.218830	0.498513	99
Es	-0.782397	1.263880	-0.741368	99
Es	-0.828965	1.380752	-1.064881	99
Es	-1.021212	-1.493597	-1.341454	99
Es	-0.169865	1.515977	0.231983	99
Es	-0.061619	1.286146	0.681949	99
Es	-1.364235	-2.295749	-1.590591	99
Es	0.063460	1.246636	0.876370	99
Es	-0.760898	-1.597943	-1.357726	99
Es	-0.738616	0.831047	-0.497646	99
Es	-0.560844	-1.091379	-0.411264	99
Es	-0.604191	-1.321950	-0.482361	99
Es	-0.541517	-0.590462	-0.436719	99
Es	0.670011	0.485559	1.338789	99
Es	0.153039	-0.166046	-0.126835	99
Es	1.466703	0.391438	1.852119	99
