48
Properties=species:S:1:pos:R:3:Z:I:1 energy=-289.28010737233683 field_type=dipole dipole="0.000000 0.000000 0.000000" charge=0
C	-2.944369	0.710367	-0.694137	6
N	-1.503119	0.669577	-0.900067	7
C	-0.882309	-0.355123	-0.058877	6
C	0.619211	-0.392903	-0.311677	6
C	1.471131	0.774737	0.261472	6
C	2.560991	-0.269953	0.573732	6
C	1.437091	-1.324523	0.622512	6
H	-3.384609	1.473207	-1.343507	1
H	-3.194789	0.964927	0.342253	1
H	-3.409349	-0.247513	-0.948967	1
H	-1.109459	1.581397	-0.668767	1
H	-1.306639	-1.337183	-0.299257	1
H	-1.085679	-0.152593	0.999693	1
H	0.845841	-0.589693	-1.370788	1
H	1.049321	1.248817	1.155652	1
H	1.752961	1.551797	-0.453737	1
H	3.273901	-0.422513	-0.244477	1
H	3.112471	-0.118683	1.504852	1
H	1.690551	-2.305013	0.211423	1
H	1.006851	-1.459133	1.622672	1
Es	2.736154	-0.313963	0.354319	99
Es	-1.193817	0.164479	-0.490031	99
Es	-1.959757	0.725566	-0.697398	99
Es	1.156552	-0.787005	0.173526	99
Es	1.530078	1.096244	0.205705	99
Es	1.244344	0.573511	0.101419	99
Es	1.955380	-0.852812	0.617320	99
Es	-1.307405	0.187458	-0.253905	99
Es	2.760799	-0.262621	0.671849	99
Es	0.351684	-0.245520	-0.184451	99
Es	-3.227410	0.125488	-0.715723	99
Es	1.673742	-1.416659	0.415141	99
Es	-1.299286	0.115623	-0.194525	99
Es	-2.119263	0.691706	-0.646155	99
Es	-0.684820	-0.326936	-0.126246	99
Es	1.433672	-1.164685	0.713800	99
Es	-0.144671	-0.301635	-0.264950	99
Es	-1.436183	0.974122	-0.712844	99
Es	0.951810	0.339571	0.005537	99
Es	2.924261	-0.169896	0.725625	99
Es	0.902268	-0.268235	-0.221147	99
Es	1.676359	-0.544139	0.393567	99
Es	1.498112	0.930883	0.096613	99
Es	-3.242980	1.245871	-1.109313	99
Es	-1.086377	-0.825296	-0.126845	99
Es	1.212627	-1.290552	0.854070	99
Es	-2.241390	0.761401	-0.728069	99
Es	-2.912812	0.677346	-0.673125	99
