37
Properties=species:S:1:pos:R:3:Z:I:1 energy=-268.5609536185232 field_type=dipole dipole="0.000000 0.000000 0.000000" charge=0
C	-3.180084	0.020782	-0.002912	6
C	-1.989924	0.020782	-0.002912	6
C	-0.583924	0.020782	-0.002912	6
C	0.195846	-1.071328	0.002148	6
C	1.637396	-0.656588	0.004208	6
C	1.532306	0.841462	-0.000502	6
C	0.240676	1.204312	-0.004602	6
H	-4.244964	0.020532	-0.002912	1
H	-0.147344	-2.094648	0.005688	1
H	2.154756	-1.020048	-0.888431	1
H	2.150296	-1.014578	0.901648	1
H	2.376116	1.514912	-0.000302	1
H	-0.141154	2.213622	-0.008212	1
Es	-0.421847	-0.200000	-0.120288	99
Es	1.631660	0.015499	0.005470	99
Es	-0.389809	-0.292233	0.162416	99
Es	1.834121	-0.793067	-0.014463	99
Es	1.599241	-0.681306	0.014300	99
Es	-2.271736	-0.083057	-0.065743	99
Es	0.919429	1.037830	-0.016884	99
Es	0.193015	-1.081559	0.002020	99
Es	-2.569954	-0.016278	0.038079	99
Es	0.992335	-0.759373	0.001429	99
Es	-0.241346	0.621419	-0.033328	99
Es	2.107220	1.298519	0.003909	99
Es	0.890643	0.900907	0.005737	99
Es	-1.259072	0.002799	-0.034699	99
Es	-0.276756	-0.381460	0.008860	99
Es	-0.034801	1.883199	0.000380	99
Es	0.219306	1.177870	-0.004784	99
Es	-3.178894	0.020610	-0.003815	99
Es	1.497778	0.827209	0.010599	99
Es	-3.877547	0.033485	-0.000243	99
Es	-0.018990	-1.746599	0.004304	99
Es	-2.576943	0.181089	0.037321	99
Es	2.079282	-0.975352	0.002868	99
Es	-2.319827	-0.001793	-0.022790	99
