44
Properties=species:S:1:pos:R:3:Z:I:1 energy=-304.09299596080314 field_type=dipole dipole="0.000000 0.000000 0.000000" charge=0
C	-1.808396	-1.183349	0.812855	6
N	-0.422536	-0.813809	0.572655	7
C	-0.163006	0.223141	-0.161865	6
C	-1.259786	1.072111	-0.784375	6
N	1.124694	0.667021	-0.460105	7
C	2.167284	-0.359289	-0.622425	6
C	2.147034	0.511421	0.587185	6
H	-1.830666	-2.093709	1.420475	1
H	-2.338006	-1.405279	-0.118655	1
H	-2.340956	-0.408209	1.372295	1
H	-1.847316	0.465091	-1.479255	1
H	-0.831286	1.912301	-1.338825	1
H	-1.911276	1.472171	-0.003065	1
H	2.859644	-0.129859	-1.418915	1
H	1.832294	-1.384199	-0.541045	1
H	1.797124	0.103971	1.525675	1
H	2.825154	1.350481	0.637395	1
Es	-1.573117	-0.949562	0.792182	99
Es	-0.437760	0.088624	-0.056922	99
Es	1.204600	0.559617	-0.344694	99
Es	-1.383730	-1.121638	0.614031	99
Es	-0.024334	-0.244987	0.242698	99
Es	-0.309876	-0.092957	-0.078454	99
Es	-1.909592	-0.939055	0.680621	99
Es	2.158783	0.118001	-0.131445	99
Es	2.377492	0.192388	-0.107593	99
Es	-1.336840	1.018987	-0.676970	99
Es	1.943342	0.297935	-0.198488	99
Es	-1.852698	-1.734070	1.193881	99
Es	2.163690	0.215766	-0.089415	99
Es	-1.579612	-1.010558	0.580654	99
Es	-1.065339	0.094645	-0.077922	99
Es	2.094021	0.019887	0.129339	99
Es	-0.389796	-0.689568	0.476569	99
Es	1.483173	0.263094	-0.381738	99
Es	1.943887	-0.035570	0.166055	99
Es	-1.596019	0.274343	-0.123593	99
Es	-1.268012	1.016414	-0.824008	99
Es	2.206040	0.219069	-0.249482	99
Es	0.441257	0.516506	-0.349937	99
Es	-0.825582	1.510212	-1.051979	99
Es	0.313376	0.599416	-0.422998	99
Es	1.943913	-0.094019	0.271297	99
Es	0.130562	0.080598	-0.032934	99
