44
Properties=species:S:1:pos:R:3:Z:I:1 energy=-304.08054285015254 field_type=dipole dipole="0.000000 0.000000 0.000000" charge=0
C	-2.098272	-1.245201	-0.141689	6
N	-0.680732	-0.910061	-0.119039	7
C	-0.460752	0.403069	0.527721	6
C	1.043547	0.809529	0.555461	6
N	1.879628	-0.311871	1.002571	7
C	1.496567	1.233699	-0.781859	6
C	1.871298	1.575629	-1.872159	6
H	-2.236822	-2.207071	-0.644959	1
H	-2.681762	-0.494431	-0.684389	1
H	-2.495722	-1.343961	0.873471	1
H	-0.334592	-0.854001	-1.079379	1
H	-0.815632	0.340999	1.564381	1
H	-1.044362	1.179889	0.017501	1
H	1.169648	1.644019	1.254771	1
H	1.601228	-1.112391	0.426751	1
H	1.569088	-0.580601	1.935091	1
H	2.217648	1.872759	-2.834239	1
Es	-0.814316	-0.445899	0.141705	99
Es	1.570952	0.258393	0.851644	99
Es	-0.491161	-0.346324	0.239012	99
Es	1.864267	0.123987	0.974657	99
Es	0.847695	-0.069997	0.480058	99
Es	-0.893483	-0.841805	0.068608	99
Es	1.443847	1.240846	-0.956864	99
Es	1.924291	1.780571	-2.328401	99
Es	-1.110546	-0.621249	0.086515	99
Es	1.789700	1.483909	-1.645791	99
Es	-1.967921	-1.323401	-0.202301	99
Es	0.939662	0.354743	0.628452	99
Es	1.171203	0.178265	0.521157	99
Es	-2.196595	-0.984076	-0.116524	99
Es	-0.613281	-0.281712	0.000871	99
Es	1.710657	1.328596	-0.998685	99
Es	1.177006	-0.096507	0.817444	99
Es	-2.212749	-1.386274	0.202199	99
Es	-0.754997	-0.524173	0.114074	99
Es	1.204882	0.674758	0.187136	99
Es	0.990585	0.980602	-0.445234	99
Es	0.212633	0.209673	0.443716	99
Es	1.690448	1.519695	-1.312662	99
Es	1.680148	1.221543	-0.481076	99
Es	-2.272268	-1.112635	-0.391311	99
Es	-0.090155	0.167185	0.356101	99
Es	1.671585	-0.223755	1.147571	99
