37
Properties=species:S:1:pos:R:3:Z:I:1 energy=-317.791113050123 field_type=dipole dipole="0.000000 0.000000 0.000000" charge=0
C	-1.340335	-0.943297	-0.255593	6
N	0.097005	-0.855067	-0.022213	7
C	0.581105	0.554442	-0.016333	6
C	0.081475	1.336742	1.139337	6
N	-0.339825	1.967232	2.020177	7
C	2.062205	0.599672	-0.064203	6
N	3.222425	0.624153	-0.151203	7
H	-1.634685	-1.996987	-0.292323	1
H	-1.621545	-0.484997	-1.209263	1
H	-1.913215	-0.476597	0.551447	1
H	0.581695	-1.362777	-0.763913	1
H	0.223695	1.037483	-0.935913	1
Es	0.415256	0.537173	0.015010	99
Es	-1.576511	-0.708166	0.031117	99
Es	2.845267	0.427832	-0.214458	99
Es	-0.199148	1.702158	1.563770	99
Es	-1.268684	-1.052370	-0.404909	99
Es	2.484151	0.584454	0.032788	99
Es	3.033602	0.577728	-0.189212	99
Es	3.524825	0.668275	-0.191902	99
Es	2.490923	0.664665	-0.150588	99
Es	-0.071591	-0.853704	-0.010025	99
Es	0.302957	0.827943	0.431550	99
Es	-1.469420	-1.235782	-0.224732	99
Es	-0.275373	1.849320	1.890512	99
Es	-1.402762	-0.857832	-0.261964	99
Es	0.374202	-1.105111	-0.440331	99
Es	-0.474646	2.117545	2.044912	99
Es	-0.626502	-0.890588	-0.341975	99
Es	1.420199	0.582942	-0.032069	99
Es	-0.144999	1.491349	1.440136	99
Es	0.554810	0.524574	-0.014369	99
Es	0.231654	-0.188398	-0.144439	99
Es	2.416294	0.777308	-0.038339	99
Es	0.091386	1.691435	1.693133	99
Es	-0.112666	1.631867	1.537374	99
Es	0.156256	-0.461350	-0.082898	99
