39
Properties=species:S:1:pos:R:3:Z:I:1 energy=-285.722958812371 field_type=dipole dipole="0.000000 0.000000 0.000000" charge=0
N	-0.114710	0.026186	-1.351153	7
C	-0.037700	-1.090344	-0.361243	6
C	1.202950	-0.652554	0.389937	6
C	1.168340	0.695256	0.419137	6
C	-0.093380	1.101846	-0.313273	6
C	-1.293850	0.631796	0.477417	6
C	-1.259310	-0.716904	0.448137	6
H	0.747750	0.060276	-1.888443	1
H	-0.024790	-2.074394	-0.828613	1
H	1.914490	-1.301054	0.872807	1
H	1.846510	1.357646	0.930427	1
H	-0.131410	2.104776	-0.737673	1
H	-1.996270	1.258276	1.000057	1
H	-1.928620	-1.400804	0.942477	1
Es	-0.032170	-0.244699	-0.293845	99
Es	1.176169	0.425564	0.232690	99
Es	0.614040	0.171063	-0.112221	99
Es	-0.836105	0.150854	-0.040316	99
Es	-0.006440	-0.371972	-0.201618	99
Es	1.110515	-0.602241	0.202296	99
Es	-0.098052	-0.397974	-0.166602	99
Es	0.314182	0.148756	-0.246185	99
Es	0.031708	-1.252955	-0.412841	99
Es	-1.317923	-0.434075	0.271454	99
Es	-0.411280	0.902007	-0.190352	99
Es	0.827572	0.527077	-0.056538	99
Es	-0.329549	0.285269	-0.036920	99
Es	0.445977	0.005333	-0.361439	99
Es	-1.010504	-0.434244	0.178709	99
Es	-0.296724	0.317322	-0.255055	99
Es	-0.912471	0.220471	0.021010	99
Es	0.596961	-0.513745	-0.053607	99
Es	-1.104840	0.652379	0.178690	99
Es	-0.752228	-1.077997	0.107763	99
Es	-0.446563	0.624533	-0.169386	99
Es	0.735719	-0.271595	-0.099999	99
Es	0.437997	0.179543	-0.051801	99
Es	-0.828239	0.370377	0.030243	99
Es	0.855571	0.621646	0.017393	99
