44
Properties=species:S:1:pos:R:3:Z:I:1 energy=-304.0826573291969 field_type=dipole dipole="0.000000 0.000000 0.000000" charge=0
N	-2.053053	-0.158056	-0.842703	7
C	-0.596003	-0.172316	-0.812183	6
C	-0.028303	-1.294706	0.065747	6
C	0.801817	-0.437536	1.022007	6
C	1.509787	0.636314	0.147657	6
C	0.013677	1.018723	-0.051173	6
N	-0.115013	0.705474	1.444077	7
H	-2.399783	-1.002396	-1.291693	1
H	-2.382963	0.633464	-1.390293	1
H	-0.205683	-0.229286	-1.834463	1
H	0.590936	-1.988387	-0.512583	1
H	-0.794724	-1.869437	0.597647	1
H	1.370397	-0.923826	1.815317	1
H	2.057977	0.282614	-0.730253	1
H	2.129057	1.365263	0.683507	1
H	-0.221213	2.038203	-0.362773	1
H	0.323087	1.395893	2.052157	1
Es	0.653207	0.256318	0.487901	99
Es	0.193411	-0.844500	0.002015	99
Es	-0.013036	0.503493	0.357618	99
Es	-0.295280	-1.093052	0.142130	99
Es	-0.314914	-0.105971	-0.237102	99
Es	0.876811	0.794829	0.890323	99
Es	0.322952	-0.629595	0.247791	99
Es	-1.835865	-0.111487	-0.767882	99
Es	0.704725	0.083255	0.587454	99
Es	0.436823	0.621013	0.451773	99
Es	-1.933376	-0.134894	-0.755109	99
Es	0.123529	0.206980	0.216359	99
Es	-0.725758	-0.566075	-0.553011	99
Es	0.130573	-0.411196	0.117316	99
Es	0.948295	0.509789	0.794068	99
Es	-1.050896	-0.127226	-0.660294	99
Es	-0.101807	0.871359	0.213172	99
Es	-1.252220	-0.357769	-0.729028	99
Es	0.614997	0.744287	0.654005	99
Es	-1.223102	0.014845	-0.708115	99
Es	0.499315	0.599881	0.518802	99
Es	1.231638	0.180708	0.908381	99
Es	0.414565	0.166239	0.484260	99
Es	-0.086449	0.489563	0.113270	99
Es	0.240167	0.237181	0.242823	99
Es	-2.132078	-0.522046	-1.122828	99
Es	1.149352	-0.362905	1.037515	99
