45
Properties=species:S:1:pos:R:3:Z:I:1 energy=-288.0923953542266 field_type=dipole dipole="0.000000 0.000000 0.000000" charge=0
N	-2.505861	-0.158257	0.087877	7
C	-1.114021	-0.054507	-0.332313	6
C	-0.385061	0.954933	0.578347	6
C	0.710159	-0.112267	0.816047	6
C	-0.300941	-1.182407	0.328367	6
C	1.994529	-0.034287	0.060457	6
C	2.119739	0.519163	-1.151883	6
H	-2.995921	-0.952877	-0.321493	1
H	-3.064051	0.663093	-0.142753	1
H	-0.953161	0.074023	-1.406433	1
H	-0.912171	1.226433	1.502807	1
H	-0.076391	1.885683	0.092487	1
H	0.940279	-0.222977	1.884567	1
H	0.086599	-1.937047	-0.363813	1
H	-0.792581	-1.706507	1.158036	1
H	2.868829	-0.465127	0.542957	1
H	1.291759	0.964513	-1.689403	1
H	3.088259	0.538423	-1.643853	1
Es	1.451061	0.146523	-0.211757	99
Es	-0.826083	0.168989	0.386723	99
Es	1.836758	0.024027	0.018251	99
Es	-0.519815	0.453333	0.153494	99
Es	0.542270	0.019692	0.392318	99
Es	2.550487	0.363370	-0.861754	99
Es	-0.686519	-0.165696	0.084551	99
Es	1.995702	0.470923	-0.965122	99
Es	-0.147211	-0.067266	0.310557	99
Es	-2.160318	-0.263477	0.054414	99
Es	-2.449298	-0.153337	0.084755	99
Es	1.564587	-0.023967	0.164448	99
Es	2.047267	0.203907	-0.409204	99
Es	-2.648303	-0.036638	-0.177054	99
Es	-0.187152	-0.059499	0.288630	99
Es	2.174154	0.139378	-0.436380	99
Es	-2.657118	-0.059466	0.029176	99
Es	-1.225832	-0.323811	-0.044943	99
Es	-0.100724	0.464665	0.411374	99
Es	-0.264939	0.558494	0.175521	99
Es	0.439569	-0.578342	0.415782	99
Es	0.300001	-0.424789	0.706322	99
Es	0.101300	-0.272681	0.342599	99
Es	-0.583474	0.473131	0.208800	99
Es	-1.824629	-0.259792	0.028987	99
Es	-0.564905	-1.518282	0.760598	99
Es	1.930330	0.476064	-0.815042	99
