42
Properties=species:S:1:pos:R:3:Z:I:1 energy=-286.8890621580493 field_type=dipole dipole="0.000000 0.000000 0.000000" charge=0
N	-1.967820	0.489302	-0.353461	7
C	-0.514080	0.482712	-0.495311	6
C	0.087390	1.520172	0.478019	6
C	1.155070	0.455122	0.818149	6
C	0.106690	-0.620198	0.414269	6
C	0.635880	-1.780848	-0.274421	6
C	1.073040	-2.745078	-0.838901	6
H	-2.417250	-0.312738	-0.795641	1
H	-2.412160	1.313682	-0.756091	1
H	-0.137360	0.537402	-1.522291	1
H	-0.536670	1.791392	1.338869	1
H	0.469380	2.435762	0.018189	1
H	2.041440	0.505012	0.173519	1
H	1.479320	0.433802	1.862289	1
H	-0.524980	-0.901698	1.269769	1
H	1.462110	-3.603798	-1.336961	1
Es	0.970074	0.328093	0.726539	99
Es	0.511950	0.322998	0.577907	99
Es	-1.480873	0.470949	-0.450413	99
Es	0.846208	-1.887345	-0.600824	99
Es	0.219163	-0.881818	0.273576	99
Es	-2.184310	0.913230	-0.419463	99
Es	1.012694	-2.710969	-0.801565	99
Es	0.585988	-2.393402	-0.685164	99
Es	0.671694	-1.783957	-0.324632	99
Es	-1.905260	0.273891	-0.273106	99
Es	0.147026	1.113483	0.396089	99
Es	0.405329	-0.260773	0.516196	99
Es	-1.818234	0.511945	-0.417109	99
Es	1.058243	0.557621	1.028219	99
Es	0.730247	0.768537	0.731326	99
Es	1.289110	-3.203271	-1.000792	99
Es	-0.016276	2.003169	0.633241	99
Es	0.055073	0.110496	-0.117291	99
Es	0.207764	-1.183814	0.187116	99
Es	1.040271	-2.414464	-0.397968	99
Es	-2.108323	0.258170	-0.638005	99
Es	-0.327229	0.156437	-0.252044	99
Es	-0.631999	0.425723	-0.596980	99
Es	1.382076	0.299585	0.572946	99
Es	-0.131204	1.155566	0.013576	99
Es	-0.056851	1.704564	0.601927	99
