45
Properties=species:S:1:pos:R:3:Z:I:1 energy=-288.14258635368395 field_type=dipole dipole="0.000000 0.000000 0.000000" charge=0
N	-2.050190	-0.099224	0.720003	7
C	-0.624580	-0.188604	1.022323	6
C	0.113590	1.098316	0.601323	6
C	0.487170	1.120136	-0.877967	6
C	1.294060	-0.114764	-1.285727	6
C	0.792600	-1.385614	-0.668107	6
C	-0.078420	-1.414434	0.350323	6
H	-2.444470	0.710996	1.194213	1
H	-2.524120	-0.911054	1.112213	1
H	-0.512680	-0.302914	2.107173	1
H	-0.489800	1.984486	0.844283	1
H	1.031450	1.187136	1.200693	1
H	1.073920	2.023715	-1.097147	1
H	-0.420910	1.181896	-1.484567	1
H	2.343620	0.014366	-0.999677	1
H	1.267690	-0.207284	-2.377867	1
H	1.153840	-2.320344	-1.090967	1
H	-0.412770	-2.376804	0.729483	1
Es	-1.660491	0.083643	0.983357	99
Es	0.027092	1.185781	-0.068898	99
Es	-1.620377	-0.201767	1.138029	99
Es	1.460248	-0.178227	-1.357518	99
Es	0.927894	0.170939	-0.995465	99
Es	-1.244696	0.049821	0.924585	99
Es	-0.069749	0.774038	0.341644	99
Es	0.538002	0.876742	-0.383433	99
Es	0.506732	-1.428891	-0.281511	99
Es	1.506846	-0.148777	-1.436966	99
Es	-0.378869	-1.651343	0.697430	99
Es	0.929149	1.654612	-0.984250	99
Es	1.281274	0.038623	-1.205815	99
Es	-0.252268	1.568133	0.450149	99
Es	-0.230324	-1.209607	0.500317	99
Es	0.852789	-1.292442	-0.718988	99
Es	0.492873	-0.503398	-0.518492	99
Es	-1.479605	-0.367827	0.926892	99
Es	-0.161514	-1.076314	0.404890	99
Es	-1.503116	-0.035835	0.766841	99
Es	-1.591557	-0.408798	1.137221	99
Es	-0.030289	0.955654	0.307440	99
Es	0.967603	-0.939931	-0.921494	99
Es	0.172923	0.976979	0.203836	99
Es	-1.638008	-0.029680	0.867040	99
Es	0.324742	0.181742	-0.353499	99
Es	0.658353	-1.578523	-0.526100	99
