38
Properties=species:S:1:pos:R:3:Z:I:1 energy=-301.7972685172118 field_type=dipole dipole="0.000000 0.000000 0.000000" charge=0
N	-3.462158	-0.051209	0.089938	7
C	-2.311148	-0.051209	0.089938	6
C	-0.905148	-0.051209	0.089938	6
C	-0.128548	-1.135519	0.031158	6
C	1.304242	-0.746849	0.032298	6
N	1.322262	0.725571	-0.051412	7
C	-0.073907	1.178271	0.134848	6
H	-0.472668	-2.159569	-0.005202	1
H	1.793452	-1.076339	0.954108	1
H	1.831762	-1.184119	-0.821252	1
H	1.618722	0.986131	-0.992072	1
H	-0.348318	1.884951	-0.655772	1
H	-0.168548	1.681101	1.103488	1
Es	-0.113454	1.324369	0.149526	99
Es	1.437625	0.784895	0.078435	99
Es	-2.003564	-0.054856	0.094685	99
Es	-2.974112	0.050972	0.156542	99
Es	-0.073619	0.903914	0.232248	99
Es	1.333893	-0.757334	0.144794	99
Es	-1.950378	-0.070630	0.085848	99
Es	-0.815035	-0.195880	0.132082	99
Es	1.479775	-0.930807	0.016823	99
Es	0.638196	1.042717	-0.052295	99
Es	-0.370614	-1.793896	0.015663	99
Es	0.635099	-0.708176	0.014798	99
Es	1.498179	0.840347	-0.250148	99
Es	-0.523661	0.609474	0.084418	99
Es	-0.683814	-0.406826	0.200715	99
Es	-3.416877	-0.040794	0.101046	99
Es	-3.838531	-0.052477	0.108495	99
Es	1.562947	-1.067443	-0.029016	99
Es	1.332398	0.774101	-0.237923	99
Es	-0.459327	-0.327946	-0.123515	99
Es	-0.214822	1.685530	0.139654	99
Es	-2.909762	-0.185201	0.044545	99
Es	-2.935605	-0.028130	0.045619	99
Es	1.234698	-0.173600	-0.006262	99
Es	0.011331	-1.123995	0.025884	99
