47
Properties=species:S:1:pos:R:3:Z:I:1 energy=-305.286200939358 field_type=dipole dipole="0.000000 0.000000 0.000000" charge=0
N	-0.874797	-2.130314	-1.467269	7
C	-0.690257	-1.653794	-0.101079	6
C	0.156103	-0.389404	-0.091279	6
C	-0.497837	0.911206	-0.635619	6
C	0.091173	1.676436	0.565481	6
N	1.401263	2.217896	0.202771	7
C	0.275513	0.324326	1.282571	6
H	-1.437387	-2.980144	-1.455099	1
H	0.026593	-2.394504	-1.862989	1
H	-0.202447	-2.436203	0.490721	1
H	-1.672717	-1.467594	0.346431	1
H	1.146373	-0.572544	-0.534309	1
H	-1.595147	0.891966	-0.626569	1
H	-0.174757	1.221287	-1.634679	1
H	-0.574677	2.393527	1.051541	1
H	2.004773	1.586316	-0.321409	1
H	1.948013	2.539056	0.999811	1
H	1.217043	0.164836	1.817921	1
H	-0.546827	0.097646	1.973051	1
Es	0.960890	2.136187	0.549207	99
Es	-0.687002	-1.988680	-1.157994	99
Es	-0.554344	-1.867191	0.089445	99
Es	1.108352	2.383513	0.509683	99
Es	-0.025673	0.130630	1.227699	99
Es	0.442194	0.107759	1.115517	99
Es	-0.423328	-1.110184	-0.275622	99
Es	0.018150	-0.032369	-0.002331	99
Es	0.635618	1.692527	0.412242	99
Es	-1.078265	-2.447633	-1.430836	99
Es	-0.128712	0.080449	-0.196718	99
Es	-0.928074	-2.142161	-1.460153	99
Es	-0.053244	0.156168	-0.027495	99
Es	-0.963685	-1.536124	0.049296	99
Es	-0.498123	0.029640	-0.335127	99
Es	0.736954	1.846257	0.401119	99
Es	-0.134869	0.774263	-0.119537	99
Es	-0.139544	0.550070	-0.259521	99
Es	-0.110878	0.547139	0.103446	99
Es	0.557961	1.492435	0.666247	99
Es	0.858327	1.848340	0.393943	99
Es	0.798829	1.948741	0.454811	99
Es	-0.728512	-2.009069	-0.756544	99
Es	0.423828	0.293650	1.239585	99
Es	-0.591381	-1.463071	-0.352311	99
Es	-0.660222	-1.936306	-1.405620	99
Es	-0.273447	1.036494	-1.061576	99
Es	1.277297	2.116770	0.242227	99
