37
Properties=species:S:1:pos:R:3:Z:I:1 energy=-317.77789032584155 field_type=dipole dipole="0.000000 0.000000 0.000000" charge=0
N	-3.467985	-0.496821	0.064167	7
C	-2.306265	-0.465801	0.097047	6
C	-0.877925	-0.363771	0.127757	6
N	-0.187465	-1.459391	0.139037	7
N	1.107705	-1.050071	0.208197	7
C	1.253255	0.352529	-0.178433	6
C	-0.121615	0.911589	0.149967	6
H	1.751315	-1.677271	-0.279693	1
H	1.451985	0.429289	-1.253393	1
H	2.053985	0.855489	0.370017	1
H	-0.487595	1.618469	-0.597643	1
H	-0.169395	1.345759	1.152977	1
Es	0.421244	-1.100126	0.060650	99
Es	1.286881	0.299965	-0.387623	99
Es	-0.346794	0.474010	0.141688	99
Es	0.600407	0.679306	0.091576	99
Es	-2.919369	-0.722103	0.221917	99
Es	-3.616504	-0.498634	0.043164	99
Es	1.766535	0.649463	-0.102988	99
Es	1.426736	-1.088901	0.091704	99
Es	1.043395	-0.928862	0.241128	99
Es	-0.825816	-0.422413	0.146356	99
Es	1.188545	-0.794876	0.119810	99
Es	-3.003431	-0.512441	0.035925	99
Es	-1.947444	-0.425242	0.095849	99
Es	1.281983	0.353667	-0.316403	99
Es	-0.363356	-1.749765	0.141601	99
Es	-0.345767	1.408795	0.011098	99
Es	-0.190613	1.045790	0.225574	99
Es	-2.014596	-0.463314	0.090088	99
Es	-0.583573	-0.810116	0.227749	99
Es	-0.421733	-1.015866	0.012624	99
Es	-3.378912	-0.503153	0.093692	99
Es	-0.161258	-1.449448	0.137049	99
Es	1.190603	-1.115060	0.153047	99
Es	-3.147368	-0.192462	-0.014723	99
Es	-0.269103	0.705105	0.265797	99
