41
Properties=species:S:1:pos:R:3:Z:I:1 energy=-302.88570070078134 field_type=dipole dipole="0.000000 0.000000 0.000000" charge=0
N	-1.930526	-2.351457	0.320111	7
C	-0.476776	-2.329387	0.264971	6
C	0.005244	-0.968217	0.264971	6
C	0.402524	0.153682	0.264971	6
C	1.003434	1.451692	0.325691	6
C	0.961444	2.338372	-0.890629	6
N	0.147944	2.633632	0.281211	7
H	-2.256986	-3.304317	0.179971	1
H	-2.298076	-1.800977	-0.454629	1
H	-0.141256	-2.850427	-0.638069	1
H	-0.078656	-2.878287	1.124341	1
H	1.880494	1.530313	0.961501	1
H	0.420534	2.003732	-1.766589	1
H	1.803994	2.990433	-1.080659	1
H	0.556664	3.381213	0.842831	1
Es	0.474902	2.794126	0.057124	99
Es	0.592595	2.665027	-0.013289	99
Es	-0.724334	-2.440370	0.362499	99
Es	1.254306	2.767923	-0.781829	99
Es	0.786158	1.932406	-0.164349	99
Es	1.143396	1.742371	-0.052395	99
Es	0.607916	2.230090	-0.088466	99
Es	-1.993901	-2.776461	0.193319	99
Es	-0.585855	-2.184301	0.135745	99
Es	0.475328	0.271274	0.208156	99
Es	-1.709955	-2.280208	0.200114	99
Es	-0.052474	-1.070463	0.260772	99
Es	0.387109	-0.040949	0.001069	99
Es	0.171882	2.455117	-0.036754	99
Es	0.638476	0.709150	0.273542	99
Es	-1.922957	-2.354894	0.444940	99
Es	-1.375304	-2.342156	0.322135	99
Es	0.589188	2.335251	-0.100821	99
Es	0.856923	1.214027	0.111591	99
Es	-0.636851	-2.370942	0.113878	99
Es	-1.291867	-2.453431	0.327528	99
Es	0.311253	-0.471602	0.268761	99
Es	-0.069618	-1.219813	0.245246	99
Es	0.430923	2.331534	-0.081191	99
Es	0.987067	1.962064	-0.224605	99
Es	-0.168070	-0.898723	0.528218	99
