45
Properties=species:S:1:pos:R:3:Z:I:1 energy=-288.1142354881005 field_type=dipole dipole="0.000000 0.000000 0.000000" charge=0
N	-1.358872	-0.250946	1.804792	7
C	-0.328002	-0.004846	0.791752	6
C	-0.719501	-0.695706	-0.536138	6
C	0.352458	-0.613536	-1.593878	6
C	0.970438	-1.676076	-2.127228	6
C	-0.194192	1.487324	0.645492	6
C	0.931898	2.176014	0.874432	6
H	-1.047092	0.156584	2.685942	1
H	-1.429892	-1.253406	1.970192	1
H	0.613628	-0.437666	1.153362	1
H	-1.636162	-0.247916	-0.942008	1
H	-0.954292	-1.750386	-0.336758	1
H	0.617578	0.381364	-1.946538	1
H	0.735838	-2.689726	-1.819528	1
H	1.728248	-1.547726	-2.894458	1
H	-1.086092	2.026994	0.331882	1
H	1.847758	1.685344	1.188752	1
H	0.956248	3.254304	0.749942	1
Es	0.420472	-0.989521	-1.522946	99
Es	0.445090	-0.691636	-1.540226	99
Es	-0.400196	0.683121	0.901447	99
Es	0.424105	-1.191308	-2.000907	99
Es	-1.168427	-0.380003	1.924996	99
Es	-1.147739	-0.174175	1.610953	99
Es	0.963432	-1.905939	-2.137796	99
Es	0.989277	2.898258	0.823793	99
Es	0.578353	1.779364	1.030140	99
Es	0.502351	-0.484046	-1.458677	99
Es	-0.353852	0.300319	0.679178	99
Es	0.722137	2.078760	0.748318	99
Es	-0.832128	-1.213363	-0.396832	99
Es	-0.407879	0.604057	0.757851	99
Es	-0.380323	0.088830	0.428155	99
Es	1.290912	-1.639687	-2.440555	99
Es	0.149165	1.664555	0.685084	99
Es	0.289853	-0.430504	-1.494529	99
Es	-1.333064	-0.316576	1.923103	99
Es	0.433334	1.806477	0.749050	99
Es	-0.916889	-0.142573	0.796590	99
Es	0.815962	-1.838058	-2.076679	99
Es	-0.431131	-0.548379	-0.351187	99
Es	0.812424	1.981945	0.785252	99
Es	-0.948778	-0.618326	-0.350163	99
Es	-0.573569	-0.097498	0.516105	99
Es	-1.577078	-0.240713	1.899897	99
