46
Properties=species:S:1:pos:R:3:Z:I:1 energy=-272.086500309737 field_type=dipole dipole="0.000000 0.000000 0.000000" charge=0
C	-1.244108	0.004744	-1.081664	6
C	0.181342	-0.004326	-0.572934	6
C	1.181712	-0.769016	-1.424094	6
C	1.194912	0.729944	-1.435564	6
C	0.370592	0.005314	0.967666	6
C	-0.520568	0.765834	1.919386	6
C	-0.527388	-0.734886	1.928856	6
H	-1.287048	-0.004046	-2.176834	1
H	-1.770658	0.902394	-0.743404	1
H	-1.787458	-0.877016	-0.728464	1
H	0.826742	-1.282046	-2.311044	1
H	1.995802	-1.280856	-0.923794	1
H	2.018012	1.234744	-0.942784	1
H	0.849212	1.235904	-2.329994	1
H	1.424512	0.002254	1.259176	1
H	-1.393008	1.275964	1.531726	1
H	-0.048218	1.278354	2.750316	1
H	-0.059888	-1.241296	2.766176	1
H	-1.404498	-1.241966	1.547266	1
Es	-0.618484	-0.079835	-0.509085	99
Es	-0.545071	0.047922	1.949500	99
Es	-0.263913	-0.056196	1.696344	99
Es	0.690441	-0.115121	-1.100543	99
Es	-0.819433	0.133290	-0.679248	99
Es	0.985594	-0.084227	-1.329280	99
Es	-0.277192	0.073294	1.088538	99
Es	-0.543516	0.070878	-1.501270	99
Es	-0.387892	-0.131539	1.834601	99
Es	-0.494391	0.071441	1.783606	99
Es	0.304759	0.052856	-1.450611	99
Es	1.321268	-0.016732	-1.235713	99
Es	1.190931	0.050227	-1.413009	99
Es	-0.415106	0.097844	2.127554	99
Es	-0.395550	-0.083871	-0.293451	99
Es	-0.162685	0.176551	1.588230	99
Es	0.734079	0.093128	-0.234562	99
Es	0.173599	-0.047623	-1.019450	99
Es	-1.013324	-0.136001	1.761312	99
Es	1.111053	-0.076870	-1.536772	99
Es	0.695532	-0.005697	0.709305	99
Es	0.130595	-0.003086	-0.764204	99
Es	-0.176276	0.048721	-0.713212	99
Es	-0.405961	0.050254	-0.269409	99
Es	1.464899	-0.046969	-1.288253	99
Es	-0.326643	0.002120	2.127282	99
Es	-0.363475	-0.090794	-0.576490	99
