45
Properties=species:S:1:pos:R:3:Z:I:1 energy=-288.1226783671917 field_type=dipole dipole="0.000000 0.000000 0.000000" charge=0
N	-3.334553	-0.871112	0.222982	7
C	-1.892693	-1.007182	0.420562	6
C	-1.201213	0.360708	0.400802	6
C	0.283037	0.230138	0.610112	6
C	1.199097	0.599528	-0.297458	6
C	2.618097	0.473708	-0.070198	6
C	3.535477	0.848668	-0.969058	6
H	-3.756913	-1.798432	0.192462	1
H	-3.515363	-0.447682	-0.686698	1
H	-1.482053	-1.651112	-0.365648	1
H	-1.714803	-1.505552	1.380472	1
H	-1.607513	0.995548	1.197552	1
H	-1.412513	0.868678	-0.548238	1
H	0.596716	-0.178412	1.568982	1
H	0.879157	1.015448	-1.251008	1
H	2.948057	0.056118	0.878932	1
H	3.264177	1.272918	-1.930458	1
H	4.593807	0.738028	-0.754098	1
Es	1.078633	0.602596	-0.131702	99
Es	-1.181646	0.100134	0.478840	99
Es	2.150526	0.557724	-0.080312	99
Es	0.453342	-0.020624	1.160605	99
Es	-3.188010	-0.928339	0.325363	99
Es	2.997091	0.484716	-0.542072	99
Es	-1.091202	0.582350	-0.107488	99
Es	3.334045	0.795144	-0.728992	99
Es	-1.464502	-0.221458	0.453232	99
Es	-3.175076	-0.673498	-0.236742	99
Es	4.178640	0.847405	-0.770508	99
Es	-3.014872	-0.915008	0.295266	99
Es	-1.628718	-0.504690	0.409035	99
Es	-3.165721	-0.905793	0.187336	99
Es	3.207352	0.975526	-0.721425	99
Es	2.329597	0.337264	0.127403	99
Es	0.963490	0.688855	-0.138199	99
Es	3.345199	0.985232	-1.269129	99
Es	-1.584958	-0.344362	0.381957	99
Es	0.533944	0.239993	0.327749	99
Es	-1.712818	-0.688825	0.570315	99
Es	-3.597507	-1.181571	0.413027	99
Es	-2.116520	-1.236865	0.701365	99
Es	2.881217	0.390408	-0.175573	99
Es	-0.812759	0.316626	0.394608	99
Es	0.981127	0.655172	-0.598066	99
Es	0.652659	0.302672	0.261961	99
