42
Properties=species:S:1:pos:R:3:Z:I:1 energy=-286.91093901857414 field_type=dipole dipole="0.000000 0.000000 0.000000" charge=0
N	-2.850263	-1.065587	0.330229	7
C	-1.390363	-1.026777	0.382529	6
C	-0.871823	0.410683	0.261939	6
C	0.629647	0.460923	0.322699	6
C	1.402916	0.914463	-0.673751	6
C	2.818577	0.942793	-0.556721	6
C	4.013717	0.968483	-0.461821	6
H	-3.161553	-2.034967	0.383789	1
H	-3.169613	-0.715407	-0.572381	1
H	-0.985523	-1.645627	-0.426661	1
H	-1.060463	-1.467447	1.330219	1
H	-1.271303	1.020893	1.081459	1
H	-1.234123	0.858063	-0.672371	1
H	1.088227	0.113483	1.247099	1
H	0.966256	1.274333	-1.600611	1
H	5.075686	0.991693	-0.375641	1
Es	3.851268	0.992606	-0.559934	99
Es	-0.989602	-0.072711	0.235436	99
Es	-1.315819	-0.908411	0.474980	99
Es	-2.878596	-1.042555	0.199994	99
Es	-1.148436	-1.020733	0.551792	99
Es	3.385948	0.964965	-0.496142	99
Es	3.561248	1.161346	-0.693257	99
Es	2.551673	0.949784	-0.543359	99
Es	3.409443	0.688429	-0.288009	99
Es	-0.480662	0.404606	0.308099	99
Es	0.866262	0.749236	-0.159306	99
Es	-2.870599	-0.978341	0.289415	99
Es	-1.107807	0.486372	-0.289769	99
Es	4.685838	1.009868	-0.421738	99
Es	-1.329882	-0.780940	0.442886	99
Es	-2.719044	-1.023549	0.398334	99
Es	-3.086830	-1.548994	0.491673	99
Es	0.917151	0.244412	0.503165	99
Es	1.064278	0.868736	-0.462651	99
Es	0.989712	0.439872	-0.040937	99
Es	1.250547	0.975804	-0.788428	99
Es	-2.392387	-1.007690	0.171601	99
Es	2.413357	1.002351	-0.582376	99
Es	0.894514	0.835256	-0.111546	99
Es	-1.074805	-0.268254	0.314872	99
Es	-0.423979	0.466640	0.300396	99
