45
Properties=species:S:1:pos:R:3:Z:I:1 energy=-288.11850269204507 field_type=dipole dipole="0.000000 0.000000 0.000000" charge=0
N	-2.752478	-0.363297	-0.146322	7
C	-1.321068	-0.674197	-0.175672	6
C	-0.480938	0.597273	-0.355062	6
C	1.007672	0.306483	-0.385322	6
C	1.655332	0.221853	-1.560482	6
C	1.758571	0.151613	0.853378	6
C	1.271631	0.223303	2.099178	6
H	-3.280578	-1.233907	-0.089022	1
H	-3.023498	0.076063	-1.025672	1
H	-1.127588	-1.372047	-0.998962	1
H	-1.058048	-1.186177	0.755858	1
H	-0.711788	1.329193	0.428878	1
H	-0.777208	1.085513	-1.294262	1
H	1.132242	0.342463	-2.503802	1
H	2.722131	0.027943	-1.621752	1
H	2.827082	-0.036797	0.749598	1
H	0.226072	0.408973	2.318248	1
H	1.932462	0.095753	2.951198	1
Es	-0.813999	0.293624	-0.505495	99
Es	1.378935	0.169641	-1.022394	99
Es	2.134937	0.133380	-1.640636	99
Es	-2.931386	-0.614085	-0.224961	99
Es	1.607420	0.201695	0.625280	99
Es	0.903015	0.178737	-0.717226	99
Es	-2.526006	-0.393444	0.040885	99
Es	0.737870	0.347769	2.179488	99
Es	-2.554287	-0.402587	-0.146877	99
Es	1.211560	-0.050491	1.579728	99
Es	-1.087491	-0.036106	0.029792	99
Es	-0.736202	0.083474	-0.424026	99
Es	1.667465	0.219973	2.551102	99
Es	1.135400	0.289797	-0.925711	99
Es	-2.495737	-0.462847	-0.158040	99
Es	-0.878853	0.164318	-0.134412	99
Es	1.815185	0.398454	1.374420	99
Es	-2.159983	-0.526134	-0.081139	99
Es	-2.108502	-0.545863	-0.211323	99
Es	1.570179	0.314675	-1.492127	99
Es	1.385041	0.102937	2.053853	99
Es	2.125231	0.081805	0.773826	99
Es	-0.693582	0.187531	-0.602566	99
Es	0.693309	0.453124	-0.866980	99
Es	-0.947923	-0.137867	-0.392172	99
Es	1.544274	0.264942	0.590922	99
Es	1.492160	0.344753	-1.392903	99
