44
Properties=species:S:1:pos:R:3:Z:I:1 energy=-304.0925895332433 field_type=dipole dipole="0.000000 0.000000 0.000000" charge=0
N	-1.846956	-1.480988	-0.573762	7
C	-0.390007	-1.368938	-0.465432	6
C	0.123293	0.089852	-0.408032	6
C	-0.436576	0.827602	0.832448	6
N	-0.054286	2.248032	0.887098	7
C	1.567294	0.089852	-0.408032	6
C	2.757453	0.089852	-0.408032	6
H	-2.101806	-2.463968	-0.671732	1
H	-2.161206	-1.021198	-1.429122	1
H	0.056573	-1.883558	-1.325652	1
H	-0.067246	-1.915458	0.429758	1
H	-0.231616	0.611502	-1.307452	1
H	-0.088986	0.339162	1.751268	1
H	-1.530866	0.784812	0.835448	1
H	0.963554	2.317162	0.905438	1
H	-0.381976	2.643891	1.767788	1
H	3.823363	0.092392	-0.412002	1
Es	2.340175	0.116141	-0.404898	99
Es	0.503794	2.262191	0.991935	99
Es	3.194055	0.027330	-0.433657	99
Es	0.255697	0.111147	-0.258554	99
Es	2.724607	0.267100	-0.422028	99
Es	-0.441034	-1.372847	-0.330796	99
Es	-1.899139	-1.470560	-0.726165	99
Es	-0.272325	0.877419	0.714667	99
Es	-0.243114	-1.128593	-0.364436	99
Es	-0.172474	1.891047	0.781460	99
Es	-0.190067	-0.826370	-0.358390	99
Es	-0.147751	2.345296	0.817530	99
Es	1.239570	0.101492	-0.425849	99
Es	-1.877323	-1.776477	-0.663583	99
Es	-2.112839	-1.432811	-0.572470	99
Es	-1.302573	-1.419115	-0.661172	99
Es	-0.072547	-1.740593	-0.920467	99
Es	-0.182347	1.732187	0.779635	99
Es	-0.099904	0.233637	-0.144554	99
Es	-0.136807	0.505280	0.217079	99
Es	-0.193505	2.347787	1.331944	99
Es	2.128877	0.077884	-0.650273	99
Es	-1.632888	-1.441012	-0.506858	99
Es	-0.296773	0.578280	0.515545	99
Es	1.170944	0.037163	-0.275490	99
Es	2.045184	0.042510	-0.204059	99
Es	-1.018255	0.822386	0.972898	99
