44
Properties=species:S:1:pos:R:3:Z:I:1 energy=-304.15325208925776 field_type=dipole dipole="0.000000 0.000000 0.000000" charge=0
N	-0.657417	-2.843416	-0.160474	7
C	-0.959427	-1.716966	0.380306	6
N	-0.323897	-0.537576	0.162696	7
C	-0.701937	0.729804	0.761006	6
C	0.071723	1.764294	-0.050924	6
C	1.329263	1.011054	-0.452404	6
C	0.808663	-0.394666	-0.740494	6
H	-1.299587	-3.565956	0.180966	1
H	-1.800847	-1.640686	1.092036	1
H	-0.393947	0.749964	1.812236	1
H	-1.780657	0.908614	0.703586	1
H	-0.498327	2.043424	-0.945454	1
H	0.281983	2.673104	0.519436	1
H	1.836343	1.454764	-1.313264	1
H	2.033893	0.986254	0.387336	1
H	0.469353	-0.476966	-1.779314	1
H	1.584813	-1.145046	-0.557274	1
Es	1.729659	1.234635	-0.829767	99
Es	0.711526	1.401088	-0.200672	99
Es	1.245344	-0.881255	-0.772260	99
Es	-0.761081	-2.795449	-0.128036	99
Es	-0.161475	-0.520201	0.023818	99
Es	-1.145049	0.829944	1.027631	99
Es	0.789792	-0.394518	-0.912746	99
Es	1.406111	1.090426	-0.472076	99
Es	0.145801	2.398038	0.268767	99
Es	-0.096715	1.625650	-0.017600	99
Es	-0.450543	-1.200388	0.246241	99
Es	-0.811561	-2.944163	-0.054209	99
Es	0.647740	0.633178	-0.421308	99
Es	-0.499372	-3.055883	-0.221955	99
Es	-0.418666	0.155071	0.441357	99
Es	0.829987	-0.105745	-0.808397	99
Es	-1.544032	-1.650238	0.839114	99
Es	-0.033342	-0.491936	-0.120306	99
Es	-0.336953	1.353796	0.153043	99
Es	-0.483788	-0.664515	0.094294	99
Es	-0.734078	0.911558	0.888653	99
Es	-0.632554	0.632401	0.648773	99
Es	-0.770689	-2.676173	-0.007581	99
Es	-0.892646	-1.682980	0.323933	99
Es	0.724981	1.309880	-0.245493	99
Es	0.871293	0.713662	-0.282296	99
Es	-0.828992	-2.202090	0.152667	99
