41
Properties=species:S:1:pos:R:3:Z:I:1 energy=-302.9284703082205 field_type=dipole dipole="0.000000 0.000000 0.000000" charge=0
N	-1.889220	-1.599834	0.619376	7
N	-0.659010	-1.645014	0.057016	7
C	-0.032370	-0.506104	-0.007554	6
C	1.343040	-0.437694	-0.629504	6
C	1.591900	1.031366	-0.533374	6
C	0.599650	1.702176	0.061236	6
C	-0.534380	0.831466	0.494236	6
H	-2.209250	-2.556364	0.794866	1
H	-2.572140	-1.222564	-0.044374	1
H	1.315530	-0.783934	-1.664544	1
H	2.060770	-1.013394	-0.039794	1
H	2.494840	1.494246	-0.911854	1
H	0.602990	2.772366	0.222166	1
H	-0.644300	0.822266	1.581556	1
H	-1.468050	1.111016	0.000546	1
Es	-1.984984	-1.588751	0.586958	99
Es	-0.660664	0.853628	0.475852	99
Es	0.583756	2.425805	0.162021	99
Es	-2.155239	-1.267736	0.650263	99
Es	0.399858	1.561944	0.129215	99
Es	-0.030278	-0.503218	-0.011199	99
Es	-0.486856	0.507987	0.453752	99
Es	-0.669797	0.831118	0.570845	99
Es	-0.412239	-1.270275	0.057336	99
Es	-0.810733	0.604344	0.601389	99
Es	-0.570862	-1.826650	-0.004121	99
Es	-2.040047	-2.054156	0.577125	99
Es	1.460804	-0.679162	-0.845977	99
Es	-0.955526	-1.582810	0.206486	99
Es	1.520315	-0.641085	-0.647933	99
Es	-1.898210	-1.589674	0.608423	99
Es	2.154258	1.263517	-0.769321	99
Es	1.345598	-0.470216	-0.559685	99
Es	0.829261	-0.618404	-0.462131	99
Es	-0.459874	-1.219108	0.092362	99
Es	1.270636	0.800187	-0.381077	99
Es	-0.840005	-1.601980	0.054491	99
Es	1.560029	1.059465	-0.492912	99
Es	1.144540	1.297292	-0.223702	99
Es	1.313718	0.941898	-0.484854	99
Es	0.210844	1.447808	0.213888	99
