41
Properties=species:S:1:pos:R:3:Z:I:1 energy=-306.7515525438032 field_type=dipole dipole="0.000000 0.000000 0.000000" charge=0
C	-0.864432	0.147731	-1.032258	6
C	-0.315622	1.159581	0.030902	6
C	-0.816082	0.104761	1.075942	6
C	-0.349552	-0.924239	-0.010778	6
C	1.139388	-1.032749	-0.047198	6
C	1.788728	0.140021	-0.038138	6
O	1.131528	1.360351	0.001802	8
H	-1.951712	0.169971	-1.173558	1
H	-0.384112	0.165141	-2.015078	1
H	-0.833492	2.122561	0.062382	1
H	-0.291282	0.082551	2.035582	1
H	-1.895862	0.120171	1.267652	1
H	-0.862022	-1.888819	-0.018758	1
H	1.641968	-1.990719	-0.078248	1
H	2.862558	0.263691	-0.060248	1
Es	1.400284	-0.372073	-0.152142	99
Es	-0.149832	0.633302	-0.032523	99
Es	-0.488206	-0.802550	0.020164	99
Es	1.029403	0.714750	0.060527	99
Es	-0.240930	0.072562	-0.109416	99
Es	0.038070	0.071538	-0.006672	99
Es	-0.169358	-0.203348	0.072771	99
Es	-0.487660	0.214588	-0.027177	99
Es	0.055461	0.629211	-0.012005	99
Es	2.010647	0.208526	0.004063	99
Es	0.874703	0.966387	-0.010206	99
Es	-1.284641	0.188686	0.025843	99
Es	1.280193	0.093296	-0.009660	99
Es	-0.159251	-0.120676	-0.055872	99
Es	-0.541509	0.340755	0.073686	99
Es	1.170237	1.402622	0.032064	99
Es	1.456159	-1.237091	-0.119187	99
Es	0.203477	-0.047602	0.051315	99
Es	1.662954	0.373991	-0.063434	99
Es	-0.363640	0.700670	0.088901	99
Es	-1.228529	0.247729	-0.008235	99
Es	-0.194099	1.256566	0.014764	99
Es	-0.610922	-1.171533	0.044944	99
Es	0.249594	-0.370797	0.007126	99
Es	0.453065	-0.516483	0.072981	99
Es	-0.432231	0.581423	-0.010672	99
