44
Properties=species:S:1:pos:R:3:Z:I:1 energy=-307.9387453629945 field_type=dipole dipole="0.000000 0.000000 0.000000" charge=0
C	-0.901080	-0.172773	-1.114548	6
C	-0.574810	0.850157	0.016392	6
C	-1.155690	-0.232083	0.975552	6
C	-0.516550	-1.231813	-0.030988	6
O	0.910380	-1.409763	0.173712	8
C	1.696590	-0.238733	-0.075528	6
C	0.927750	1.047337	0.258372	6
H	-1.952910	-0.198313	-1.424238	1
H	-0.276450	-0.130903	-2.010018	1
H	-1.135510	1.788907	-0.009848	1
H	-0.755400	-0.247433	1.992912	1
H	-2.250220	-0.268583	1.025912	1
H	-1.021770	-2.197523	-0.113218	1
H	1.976250	-0.248983	-1.134868	1
H	2.620530	-0.301003	0.507772	1
H	1.316820	1.874237	-0.346128	1
H	1.092070	1.317267	1.308762	1
Es	1.381638	0.625206	0.089249	99
Es	1.029863	-1.202657	-0.031423	99
Es	-0.865921	1.138160	0.049035	99
Es	-0.630239	-0.414603	0.045595	99
Es	-0.537135	-0.594876	0.048065	99
Es	1.188273	0.784680	0.126560	99
Es	0.860531	-0.453053	-0.036055	99
Es	0.921351	0.837470	0.360616	99
Es	-0.060911	-1.310314	0.054722	99
Es	-1.175408	-0.642144	0.031558	99
Es	-0.650621	-0.593796	-0.054775	99
Es	0.899502	-1.050461	0.009924	99
Es	-0.025412	0.330914	0.102654	99
Es	-0.758140	-0.250544	0.032655	99
Es	1.785618	-0.359789	-0.085782	99
Es	-0.635669	-0.588719	-0.012426	99
Es	-0.916058	-0.077315	0.002258	99
Es	-0.936989	-0.284099	0.085600	99
Es	0.472316	0.041698	0.048691	99
Es	-0.192511	0.593742	0.089741	99
Es	0.259024	0.498827	-0.074360	99
Es	1.306884	-0.721421	0.116926	99
Es	-0.727500	0.377456	-0.083243	99
Es	0.103041	-0.713223	-0.041888	99
Es	-0.260335	-0.345059	-0.076383	99
Es	-1.122932	-0.381368	-0.065833	99
Es	1.238192	-0.290387	-0.006401	99
