42
Properties=species:S:1:pos:R:3:Z:I:1 energy=-343.78143576207907 field_type=dipole dipole="0.000000 0.000000 0.000000" charge=0
C	1.773577	0.141927	-0.741818	6
C	1.766617	-0.114523	0.743362	6
C	0.488407	0.005077	-0.006968	6
O	-0.316283	1.169917	0.195432	8
C	-1.644953	0.737217	-0.127018	6
C	-1.630483	-0.764233	0.126602	6
O	-0.299263	-1.171333	-0.209398	8
H	2.056277	1.128807	-1.085648	1
H	2.069817	-0.668013	-1.395978	1
H	2.057477	-1.097453	1.091152	1
H	2.042977	0.699377	1.401592	1
H	-2.381823	1.262007	0.486732	1
H	-1.824023	0.960517	-1.184568	1
H	-2.364483	-1.300533	-0.478728	1
H	-1.793833	-0.988753	1.185252	1
Es	1.743499	-0.226161	0.176803	99
Es	0.811543	-0.133646	-0.120832	99
Es	1.784646	0.260622	-0.029351	99
Es	-0.980622	0.079099	-0.028074	99
Es	-1.260809	0.865835	-0.216262	99
Es	-1.141483	-0.899184	-0.058319	99
Es	-0.681984	0.252232	0.029080	99
Es	-0.712298	0.940191	-0.019695	99
Es	1.924261	0.110410	0.288308	99
Es	-0.451896	1.155170	0.293257	99
Es	-1.912249	-0.892735	0.169477	99
Es	0.769584	-0.146580	0.074420	99
Es	1.907169	-0.144989	0.106598	99
Es	-0.582517	-0.792887	-0.072272	99
Es	1.782614	-0.181116	-0.003981	99
Es	-2.069050	0.899570	0.023976	99
Es	1.805710	0.398021	-0.328153	99
Es	-1.032026	0.614889	0.016626	99
Es	-1.240991	-0.759088	0.012453	99
Es	-1.759553	-0.811210	0.096287	99
Es	-0.890202	0.945767	-0.110521	99
Es	1.847062	-0.049573	-0.049691	99
Es	0.329512	-0.171335	-0.048607	99
Es	-0.269751	-1.108131	-0.207841	99
Es	0.582456	-0.090884	-0.188767	99
Es	-0.017119	0.630991	0.102367	99
Es	-0.417320	-0.734645	0.027835	99
