42
Properties=species:S:1:pos:R:3:Z:I:1 energy=-343.79397954799214 field_type=dipole dipole="0.000000 0.000000 0.000000" charge=0
C	1.387186	-0.121086	-0.025347	6
C	0.472406	-1.156266	0.604843	6
O	-0.667044	-1.458186	-0.203967	8
C	-1.669634	-0.526686	-0.121247	6
C	-1.562664	0.781864	0.145183	6
O	-0.418904	1.531664	0.248273	8
C	0.642596	1.074964	-0.594137	6
H	1.970266	-0.577966	-0.833807	1
H	2.105056	0.211614	0.733533	1
H	1.031516	-2.089996	0.735043	1
H	0.157666	-0.853636	1.613153	1
H	-2.627924	-1.004876	-0.289027	1
H	-2.430564	1.413284	0.297733	1
H	1.345816	1.908394	-0.705797	1
H	0.264226	0.866914	-1.604437	1
Es	1.428231	-0.104370	0.018280	99
Es	-0.237453	-1.241715	0.213754	99
Es	-0.458167	1.738754	0.061914	99
Es	-2.059687	1.066187	0.141349	99
Es	-0.737106	-1.366532	-0.018744	99
Es	-0.272632	1.487213	0.117526	99
Es	-0.451407	-1.071235	0.078178	99
Es	0.932159	1.565173	-0.534192	99
Es	0.079147	1.162795	-0.190948	99
Es	-0.440228	-1.450860	-0.002189	99
Es	-0.158523	-1.073282	0.251261	99
Es	-1.321616	-0.310810	-0.106001	99
Es	0.120908	1.070998	-0.222229	99
Es	-1.618926	0.416545	0.128565	99
Es	1.254706	-0.216201	-0.000873	99
Es	0.291597	1.134073	-0.368389	99
Es	0.892617	-1.695945	0.597185	99
Es	-0.393006	1.273940	-0.013193	99
Es	-0.363497	1.075044	0.079078	99
Es	-0.473623	-1.506581	0.047394	99
Es	-1.663066	0.266983	0.175072	99
Es	1.640073	-0.107947	0.065140	99
Es	-1.829428	-0.378166	-0.204775	99
Es	0.650354	-0.360300	0.106870	99
Es	1.577617	-0.161487	-0.122680	99
Es	-2.124749	-0.655725	-0.029443	99
Es	-0.004280	-0.159317	-0.084088	99
