42
Properties=species:S:1:pos:R:3:Z:I:1 energy=-343.81605827954866 field_type=dipole dipole="0.000000 0.000000 0.000000" charge=0
C	-1.221236	-0.424581	-0.646697	6
O	-1.156706	1.016909	-0.669997	8
C	-0.003066	1.330079	0.129713	6
C	-0.013856	0.273919	1.213303	6
C	-0.001446	-0.825151	0.175403	6
C	1.236884	-0.422381	-0.619907	6
O	1.169294	1.019229	-0.643977	8
H	-1.206636	-0.809441	-1.671267	1
H	-2.160036	-0.716541	-0.163527	1
H	-0.007556	2.371649	0.458493	1
H	-0.921956	0.279659	1.824083	1
H	0.880374	0.281589	1.844283	1
H	-0.003986	-1.856161	0.528563	1
H	2.164634	-0.711941	-0.115197	1
H	1.245294	-0.806841	-1.643277	1
Es	-1.069005	0.415839	-0.110339	99
Es	-0.886553	0.756464	-0.319819	99
Es	0.114139	-0.292033	-0.042801	99
Es	0.366838	-0.817341	-0.031904	99
Es	-0.955318	0.123958	-0.178838	99
Es	0.959207	0.421476	-0.158837	99
Es	1.129954	0.148348	-0.118366	99
Es	0.323600	0.023298	-0.132163	99
Es	-1.090036	0.265131	-0.179176	99
Es	0.628412	1.188841	-0.027496	99
Es	0.757096	0.806220	-0.139784	99
Es	0.591442	0.241654	-0.174002	99
Es	-0.624928	-0.211758	-0.093528	99
Es	-0.012973	0.228796	-0.250259	99
Es	0.365265	-0.567535	-0.268745	99
Es	-0.095999	0.968715	0.033889	99
Es	-0.426962	0.010673	-0.331207	99
Es	-0.386337	0.521865	-0.132535	99
Es	0.346284	0.592442	-0.179855	99
Es	-0.076682	0.194621	-0.236939	99
Es	-0.515600	0.358593	-0.194223	99
Es	0.706630	0.092527	-0.217626	99
Es	-0.318326	0.208604	0.011258	99
Es	0.869119	0.565577	-0.301963	99
Es	-0.887909	0.454220	-0.180760	99
Es	0.063202	0.091760	-0.018485	99
Es	0.164615	0.423356	-0.190723	99
