47
Properties=species:S:1:pos:R:3:Z:I:1 energy=-309.12564126012387 field_type=dipole dipole="0.000000 0.000000 0.000000" charge=0
C	-1.626881	-0.034073	1.019423	6
C	-0.137701	-0.094123	1.078213	6
C	0.690379	-0.837863	0.048413	6
C	0.077019	-1.563143	-1.100877	6
C	0.759959	0.674637	0.125733	6
C	0.223619	1.554287	-0.958957	6
O	1.961219	1.205827	0.712123	8
H	-1.991961	0.746807	1.692833	1
H	-2.048411	-0.987243	1.351203	1
H	-2.019561	0.176727	0.023403	1
H	0.186079	-0.178313	2.111523	1
H	1.550809	-1.390443	0.414483	1
H	-0.825651	-1.086503	-1.490237	1
H	-0.190481	-2.579723	-0.795967	1
H	0.798369	-1.637263	-1.921127	1
H	-0.668531	1.156237	-1.448007	1
H	0.985269	1.698337	-1.732367	1
H	-0.032141	2.537627	-0.550387	1
H	2.308599	0.638207	1.420573	1
Es	0.111470	-0.525029	-0.223196	99
Es	1.489617	1.255310	0.160444	99
Es	0.134908	0.414293	0.486646	99
Es	-0.683642	-0.020608	0.594920	99
Es	-1.035643	-0.640304	0.821496	99
Es	0.404524	-0.273885	-0.489857	99
Es	0.038401	-0.437962	-0.241935	99
Es	0.388099	0.424181	0.249578	99
Es	-0.099283	-0.085502	0.310243	99
Es	0.471504	-0.898659	-0.658426	99
Es	0.959838	0.882811	0.108397	99
Es	0.121494	0.328800	0.242922	99
Es	-0.435774	-0.901588	-0.367917	99
Es	0.968530	0.697877	0.114597	99
Es	1.478167	1.180666	0.185286	99
Es	0.087778	0.608244	0.584562	99
Es	-0.946144	-0.306043	0.150094	99
Es	-0.068812	-0.785939	-0.251154	99
Es	0.215740	0.378975	0.385932	99
Es	0.135694	-0.724161	-0.470131	99
Es	1.124152	1.074894	0.012823	99
Es	1.426987	1.142768	0.043001	99
Es	1.060856	1.014639	0.186019	99
Es	0.054019	-1.466695	-0.769064	99
Es	-1.447755	0.083268	1.006679	99
Es	0.080378	0.108009	0.396999	99
Es	0.964454	0.859540	0.111032	99
Es	-0.075425	0.232396	0.307367	99
