47
Properties=species:S:1:pos:R:3:Z:I:1 energy=-309.1370574950566 field_type=dipole dipole="0.000000 0.000000 0.000000" charge=0
C	-1.752576	0.461666	-0.844152	6
C	-0.236806	0.428066	-0.791612	6
C	0.442104	1.457056	0.143788	6
C	1.510784	0.393266	0.456708	6
C	0.488054	-0.700414	0.027738	6
C	-0.267846	-1.319784	1.197578	6
O	1.035454	-1.770064	-0.775532	8
H	-2.135496	-0.399944	-1.398682	1
H	-2.096536	1.367886	-1.351782	1
H	-2.198236	0.450116	0.154438	1
H	0.158574	0.497036	-1.817032	1
H	-0.157556	1.744786	1.015028	1
H	0.810224	2.364676	-0.342052	1
H	2.393894	0.454656	-0.189922	1
H	1.845764	0.365226	1.497468	1
H	-0.690376	-0.560284	1.863578	1
H	0.398254	-1.949904	1.796798	1
H	-1.090036	-1.948574	0.839908	1
H	1.542354	-1.335474	-1.482262	1
Es	-0.074338	-0.229118	-0.146119	99
Es	0.496062	-0.774000	0.079867	99
Es	0.597895	0.952272	0.057282	99
Es	0.377118	-0.950149	0.116252	99
Es	-1.051052	0.414726	-0.393907	99
Es	0.757794	0.382003	0.106526	99
Es	-0.533424	0.949547	-0.331304	99
Es	0.266224	-0.899341	0.047401	99
Es	0.301820	0.892279	-0.005837	99
Es	0.316841	-0.008358	-0.086989	99
Es	-1.183032	0.574365	-0.622988	99
Es	-1.415319	0.680008	-0.715900	99
Es	0.206882	-0.717618	0.055495	99
Es	0.283214	-1.244553	-0.101785	99
Es	0.220730	-1.462223	0.177321	99
Es	0.760637	-0.348798	0.052208	99
Es	0.283560	1.240630	-0.107274	99
Es	0.526290	-0.089117	-0.005033	99
Es	0.479976	-1.184958	0.052497	99
Es	0.765038	-1.306712	0.006145	99
Es	1.543230	0.438756	0.175851	99
Es	-1.893964	0.466339	-0.563044	99
Es	1.089861	0.262078	0.417391	99
Es	0.675333	-1.044325	0.080181	99
Es	-0.822021	0.135734	-0.574676	99
Es	0.480495	-1.283907	0.221380	99
Es	0.418504	-0.984257	0.115039	99
Es	0.207071	0.554764	-0.333665	99
