37
Properties=species:S:1:pos:R:3:Z:I:1 energy=-268.5113736377575 field_type=dipole dipole="0.000000 0.000000 0.000000" charge=0
C	-1.598124	-1.872834	2.101331	6
C	-1.238474	-1.570695	0.995201	6
C	-0.799864	-1.209525	-0.359089	6
C	-0.237964	0.180335	-0.358909	6
C	1.033536	0.475296	-0.666799	6
C	1.502866	1.800645	-0.666799	6
C	1.900146	2.922545	-0.666799	6
H	-1.914304	-2.137694	3.084221	1
H	-1.648004	-1.249315	-1.051709	1
H	-0.060924	-1.935915	-0.716439	1
H	-0.930314	0.980536	-0.102769	1
H	1.737176	-0.310395	-0.926389	1
H	2.254246	3.927016	-0.665049	1
Es	-0.824634	-1.294426	-0.448521	99
Es	-1.232772	-1.587740	1.041067	99
Es	0.334285	0.318861	-0.482124	99
Es	1.529581	1.928789	-0.679287	99
Es	-1.305086	-1.633336	1.426463	99
Es	-0.100257	0.460077	-0.305139	99
Es	2.072198	3.476094	-0.661465	99
Es	-0.512460	-0.366454	-0.286414	99
Es	-1.528729	-1.902600	1.887562	99
Es	-1.638456	-1.653391	1.564895	99
Es	0.080434	0.300740	-0.539323	99
Es	1.052111	0.301950	-0.735952	99
Es	2.002410	2.356798	-0.925433	99
Es	-1.149386	-1.400854	0.152664	99
Es	1.687989	2.207398	-0.592978	99
Es	-1.030516	-1.283303	-0.239125	99
Es	1.240184	1.372879	-0.590688	99
Es	-0.396727	-1.569487	-0.539420	99
Es	-1.435417	-1.790882	1.650435	99
Es	1.436660	2.247599	-0.622933	99
Es	0.106436	0.264383	-0.394954	99
Es	0.996564	0.219469	-0.672885	99
Es	1.933083	2.889159	-0.670136	99
Es	-1.868221	-2.001894	2.649103	99
