47
Properties=species:S:1:pos:R:3:Z:I:1 energy=-309.16246964095984 field_type=dipole dipole="0.000000 0.000000 0.000000" charge=0
C	-2.159310	0.144153	-0.662140	6
C	-0.640270	0.137143	-0.614770	6
C	-0.068430	1.263083	0.243200	6
C	1.345810	0.791133	0.528230	6
C	1.197100	-0.709757	0.759910	6
O	2.342300	-1.409887	0.303460	8
C	-0.064000	-1.141557	0.004130	6
H	-2.530210	-0.676197	-1.284010	1
H	-2.529560	1.085353	-1.082650	1
H	-2.590130	0.030833	0.337800	1
H	-0.251790	0.238983	-1.637730	1
H	-0.629630	1.372263	1.179640	1
H	-0.081500	2.226712	-0.277580	1
H	2.005100	0.998203	-0.323870	1
H	1.775850	1.294973	1.400660	1
H	1.079330	-0.921567	1.828650	1
H	2.434710	-1.244997	-0.650160	1
H	0.138880	-1.895037	-0.765490	1
H	-0.774260	-1.583827	0.712720	1
Es	0.095656	-1.086954	-0.003375	99
Es	-0.340436	0.726822	-0.023646	99
Es	-0.408187	-0.966204	0.088472	99
Es	-0.170270	1.238253	0.349306	99
Es	0.904144	0.981098	0.492722	99
Es	2.037812	-1.146150	0.345295	99
Es	2.079546	-1.511433	0.377945	99
Es	0.889167	1.090938	0.536746	99
Es	-1.450231	0.127696	-0.512125	99
Es	-0.110676	-0.168147	-0.235514	99
Es	0.017602	-1.425971	-0.240587	99
Es	-2.131278	0.149868	-0.664034	99
Es	1.536498	-0.081747	0.512092	99
Es	-2.285289	0.005373	-0.592127	99
Es	2.224780	-1.343829	0.432535	99
Es	-2.439250	0.752915	-0.813424	99
Es	-0.268278	1.214727	0.205793	99
Es	-2.430396	-0.301334	-0.721968	99
Es	-0.335853	-0.424271	-0.424207	99
Es	1.542542	-0.117208	0.628849	99
Es	2.065713	-1.144602	0.536970	99
Es	0.647689	-0.762788	0.241566	99
Es	1.529461	0.958768	0.777634	99
Es	0.894261	-0.601429	0.335376	99
Es	-0.094354	1.616723	-0.048579	99
Es	2.060413	-1.223450	0.391778	99
Es	-0.287007	0.303746	-0.548456	99
Es	1.577850	-0.702874	0.383841	99
