39
Properties=species:S:1:pos:R:3:Z:I:1 energy=-342.6481753591959 field_type=dipole dipole="0.000000 0.000000 0.000000" charge=0
C	-1.848308	-0.202315	-0.002891	6
C	-0.368908	-0.157005	-0.000081	6
C	0.437162	0.957945	-0.001041	6
O	0.215542	2.255685	-0.004311	8
O	1.748432	0.628425	0.001939	8
C	1.802252	-0.729605	0.004799	6
C	0.532092	-1.259575	0.003749	6
H	-2.281188	0.803425	0.006969	1
H	-2.215618	-0.737045	0.878379	1
H	-2.212388	-0.718535	-0.896491	1
H	1.113692	2.630075	-0.003641	1
H	2.794342	-1.159455	0.007299	1
H	0.282892	-2.312024	0.005319	1
Es	0.265557	2.064437	0.051804	99
Es	1.262041	0.767966	-0.035313	99
Es	-1.988725	-0.413717	0.049484	99
Es	-2.155408	0.464295	0.043945	99
Es	2.401384	-0.990386	-0.003334	99
Es	1.817710	0.706021	0.021426	99
Es	0.594621	-0.998714	0.054172	99
Es	1.038881	-0.963449	0.193583	99
Es	-0.003396	2.429549	0.011711	99
Es	0.252167	2.180699	-0.021549	99
Es	1.127877	-1.004829	-0.185225	99
Es	1.658848	0.565594	-0.024632	99
Es	0.183712	-0.868908	0.046149	99
Es	-1.275477	-0.212541	0.023654	99
Es	0.358289	0.862015	0.011324	99
Es	0.180377	2.026784	-0.045223	99
Es	0.352107	-1.968574	-0.015356	99
Es	-1.733573	-0.280980	-0.110591	99
Es	-0.365152	-0.159974	-0.000136	99
Es	0.090454	0.544050	0.014330	99
Es	0.708359	2.335379	-0.009873	99
Es	1.926275	0.750886	-0.035786	99
Es	0.018604	0.051558	-0.090480	99
Es	1.745865	0.131599	0.086248	99
Es	-2.107465	-0.600365	-0.026994	99
Es	1.843681	-0.774677	-0.000375	99
