39
Properties=species:S:1:pos:R:3:Z:I:1 energy=-342.6855894516418 field_type=dipole dipole="0.000000 0.000000 0.000000" charge=0
C	-1.773780	0.004752	0.015042	6
C	-0.291230	-0.056548	-0.002208	6
C	0.475610	-1.140418	-0.097048	6
C	1.862420	-0.678278	-0.070748	6
O	2.837460	-1.402988	-0.137928	8
O	1.880420	0.677992	0.039812	8
C	0.538760	1.162832	0.090482	6
H	-2.218320	-0.992758	-0.063498	1
H	-2.140970	0.604222	-0.823808	1
H	-2.126400	0.458362	0.946582	1
H	0.196510	-2.175198	-0.179208	1
H	0.372390	1.841842	-0.751048	1
H	0.387130	1.696182	1.033572	1
Es	0.409786	0.987512	0.047060	99
Es	2.641242	-1.294193	-0.046333	99
Es	2.750058	-1.368015	-0.136419	99
Es	2.086777	0.429653	-0.000582	99
Es	2.695773	-1.275078	-0.009170	99
Es	2.587708	-1.214836	-0.229117	99
Es	2.953046	-1.468236	-0.231377	99
Es	-1.921688	0.233799	0.107311	99
Es	1.860912	0.602827	0.092141	99
Es	0.323444	1.000599	-0.007485	99
Es	-2.050713	-0.610402	-0.054393	99
Es	0.045915	-0.597464	0.141848	99
Es	-2.023094	0.441609	-0.012026	99
Es	1.817317	-0.696745	-0.072290	99
Es	0.206710	-0.578834	-0.184394	99
Es	1.224598	-0.917928	-0.084455	99
Es	1.875029	0.643115	0.038402	99
Es	-1.778524	-0.000719	0.018589	99
Es	-0.245907	-0.055942	-0.002340	99
Es	1.881069	0.589044	0.000348	99
Es	0.439081	-1.252924	-0.116594	99
Es	0.400927	1.665374	0.206126	99
Es	-1.008676	-0.043756	0.003544	99
Es	0.587438	1.163107	0.071162	99
Es	0.324539	-1.694334	-0.138990	99
Es	1.083441	0.782086	0.071380	99
