44
Properties=species:S:1:pos:R:3:Z:I:1 energy=-307.96725108159114 field_type=dipole dipole="0.000000 0.000000 0.000000" charge=0
C	-1.718583	0.504604	-0.633061	6
C	-0.200053	0.427964	-0.596781	6
C	0.412757	1.516764	0.272069	6
O	1.736067	1.056244	0.576629	8
C	1.637287	-0.364136	0.772969	6
C	0.407187	-0.791886	0.032059	6
C	-0.064273	-2.046066	-0.007721	6
H	-2.136323	-0.262646	-1.293071	1
H	-2.045433	1.480184	-1.008051	1
H	-2.152563	0.364134	0.363129	1
H	0.200457	0.518304	-1.614881	1
H	-0.130283	1.665154	1.213269	1
H	0.476197	2.477194	-0.248981	1
H	2.544657	-0.830936	0.380549	1
H	1.548067	-0.558456	1.846529	1
H	-0.966613	-2.300346	-0.554171	1
H	0.451447	-2.856076	0.499519	1
Es	1.507243	1.272403	0.663325	99
Es	-0.059252	0.750875	-0.233206	99
Es	0.480282	-1.177576	0.164621	99
Es	-1.918170	0.104026	-0.951437	99
Es	-0.353083	0.470620	-0.662838	99
Es	0.063747	0.862637	-0.312282	99
Es	-1.778112	0.654303	-0.662411	99
Es	0.437822	1.784356	0.246635	99
Es	1.912010	-0.479392	0.649342	99
Es	0.461155	1.649330	0.281408	99
Es	-0.553226	-2.242533	-0.321704	99
Es	0.314860	-1.234980	0.036848	99
Es	1.840087	-0.515690	1.010388	99
Es	0.226880	-0.499041	-0.142578	99
Es	0.292658	1.332643	0.259805	99
Es	-1.039632	0.408354	-0.447692	99
Es	0.325487	-1.084352	0.326621	99
Es	1.672776	0.517224	0.575564	99
Es	-1.829187	0.945433	-0.799310	99
Es	-1.636958	0.411650	-0.515421	99
Es	0.214160	-0.784845	-0.049119	99
Es	1.764623	1.072466	0.452201	99
Es	1.195544	1.251265	0.356378	99
Es	0.337644	-2.238036	0.096497	99
Es	1.668511	-0.460828	0.991073	99
Es	-0.035436	-2.061753	0.024232	99
Es	1.897042	1.160623	0.616018	99
