45
Properties=species:S:1:pos:R:3:Z:I:1 energy=-344.97081366137644 field_type=dipole dipole="0.000000 0.000000 0.000000" charge=0
C	-1.563013	-0.397175	0.305789	6
C	-0.085503	-0.212195	-0.016721	6
C	0.211487	-0.188595	-1.517981	6
O	-0.372653	0.964045	-2.124120	8
C	0.627157	0.873845	0.810569	6
C	1.452067	-0.277245	1.375229	6
O	0.691407	-1.258055	0.633219	8
H	-1.724373	-0.513115	1.383659	1
H	-1.964263	-1.290645	-0.186241	1
H	-2.150643	0.465695	-0.025311	1
H	-0.173023	-1.083715	-2.019980	1
H	1.290517	-0.144345	-1.702211	1
H	-1.319853	0.778665	-2.245620	1
H	0.008087	1.390015	1.549709	1
H	1.203667	1.609395	0.243279	1
H	2.505997	-0.285735	1.082469	1
H	1.362937	-0.430835	2.454260	1
Es	0.102835	-0.289954	0.482910	99
Es	-0.888529	0.734141	-2.075360	99
Es	1.597840	-0.236621	1.255018	99
Es	-1.696641	-0.686259	-0.194476	99
Es	1.409794	-0.249239	1.232112	99
Es	0.050134	-0.232608	0.355990	99
Es	-0.302166	0.278626	-1.599848	99
Es	0.001779	-0.237499	0.095217	99
Es	0.438139	-0.012119	0.120362	99
Es	-0.402789	0.239695	-1.405268	99
Es	-0.141580	-0.206592	-0.735808	99
Es	0.574993	-0.244205	0.454655	99
Es	-0.271626	0.627175	-1.759752	99
Es	1.116118	-0.238611	1.018970	99
Es	0.268305	-0.289515	0.369391	99
Es	0.022260	0.367297	-1.655162	99
Es	0.048610	0.626580	-1.950760	99
Es	0.578316	0.119400	0.030028	99
Es	0.718179	-0.350536	1.222760	99
Es	-0.307018	-0.192629	0.209965	99
Es	-0.354867	0.889288	-1.996731	99
Es	0.031776	-0.162910	0.391122	99
Es	-0.888988	-0.345700	0.022625	99
Es	0.558601	-0.233171	0.761521	99
Es	0.713210	-0.427353	1.007630	99
Es	-1.136722	-0.169659	0.038926	99
Es	0.098828	-0.265768	0.528415	99
Es	0.878919	-0.408194	0.886897	99
