45
Properties=species:S:1:pos:R:3:Z:I:1 energy=-345.00273725736565 field_type=dipole dipole="0.000000 0.000000 0.000000" charge=0
C	-2.237442	0.250225	-0.652861	6
C	-0.725822	0.254125	-0.565401	6
C	-0.165842	1.390025	0.257149	6
O	1.132968	0.912475	0.609679	8
C	0.946048	-0.499085	0.774989	6
C	2.134718	-1.240665	0.196249	6
O	-0.260712	-0.912715	0.120059	8
H	-2.582201	-0.615135	-1.228651	1
H	-2.610142	1.161055	-1.130821	1
H	-2.689042	0.163105	0.341219	1
H	-0.282122	0.246535	-1.566531	1
H	-0.729312	1.558155	1.181869	1
H	-0.091482	2.329785	-0.296731	1
H	0.845878	-0.716785	1.844099	1
H	2.242678	-1.024265	-0.872661	1
H	2.008758	-2.322665	0.300579	1
H	3.063069	-0.934165	0.687759	1
Es	-0.289205	-0.502609	0.004992	99
Es	0.173451	0.528976	0.173339	99
Es	-0.322463	1.537168	0.374660	99
Es	-0.306802	1.636860	0.319739	99
Es	-0.169836	1.571446	0.216179	99
Es	-0.670197	-0.420421	-0.174343	99
Es	-0.331214	-0.580167	-0.130563	99
Es	-2.290798	0.453430	-0.634278	99
Es	-0.196280	-0.885460	-0.089255	99
Es	2.170603	-0.987741	0.518085	99
Es	0.820536	0.867857	0.529520	99
Es	-2.388570	0.447332	-0.634758	99
Es	2.019484	-1.191808	0.270671	99
Es	1.449106	-0.750424	0.513372	99
Es	0.600433	-0.175852	0.472825	99
Es	0.058311	0.141497	-0.093437	99
Es	0.831781	0.971062	0.471842	99
Es	1.603504	-0.947886	0.507258	99
Es	-0.514437	0.255377	-0.365979	99
Es	1.312792	-0.760544	0.498833	99
Es	-2.400572	0.404412	-0.472844	99
Es	-1.336827	0.142310	-0.532642	99
Es	1.030511	0.589843	0.649748	99
Es	-2.501198	-0.303497	-0.930240	99
Es	-0.277054	0.199086	-0.157426	99
Es	1.520512	-0.913680	0.463708	99
Es	1.195531	0.731998	0.470119	99
Es	2.235724	-1.743748	0.388027	99
