44
Properties=species:S:1:pos:R:3:Z:I:1 energy=-307.9350394749015 field_type=dipole dipole="0.000000 0.000000 0.000000" charge=0
C	-2.262699	0.649238	0.041977	6
C	-0.803749	0.807418	-0.334493	6
O	-0.185259	1.886398	0.421727	8
C	0.967710	1.044068	0.683047	6
C	0.188801	-0.213842	0.267037	6
C	0.858860	-1.123512	-0.696583	6
C	1.872241	-1.899432	-0.295543	6
H	-2.688469	-0.239842	-0.434233	1
H	-2.842249	1.517468	-0.288573	1
H	-2.391799	0.549618	1.124967	1
H	-0.683689	0.993128	-1.410053	1
H	1.814570	1.335158	0.051837	1
H	1.264901	1.077968	1.734997	1
H	-0.223479	-0.759852	1.125817	1
H	0.511471	-1.162232	-1.725303	1
H	2.239531	-1.889703	0.726987	1
H	2.363310	-2.572042	-0.993613	1
Es	0.622932	0.986431	0.852266	99
Es	-0.292265	1.631014	0.220976	99
Es	1.331904	-1.217720	-0.397353	99
Es	-2.178366	0.422467	-0.037793	99
Es	0.661325	0.462689	0.470043	99
Es	-2.401768	0.815940	0.200963	99
Es	-0.343968	1.478185	0.322142	99
Es	-2.295882	0.769793	-0.007541	99
Es	0.998685	0.689076	0.391524	99
Es	0.095887	1.620273	0.635762	99
Es	1.981970	-1.892290	0.000812	99
Es	-0.141326	1.934131	0.340796	99
Es	1.048002	0.922764	0.691904	99
Es	0.370628	-0.866126	-0.676183	99
Es	0.216631	-0.203914	0.063946	99
Es	-0.602038	0.744017	-0.139607	99
Es	0.750555	-1.059798	-0.640791	99
Es	1.257614	-1.685274	-0.444224	99
Es	1.951298	-1.933638	-0.333888	99
Es	-0.426121	1.541015	0.380960	99
Es	-0.259445	0.128652	-0.057533	99
Es	-2.465518	0.555691	-0.231124	99
Es	-1.459345	0.769675	-0.275138	99
Es	2.044437	-2.228659	-0.535638	99
Es	0.957428	-1.136748	-0.552893	99
Es	-0.917651	0.749264	-0.237957	99
Es	0.877204	0.955027	0.674955	99
