45
Properties=species:S:1:pos:R:3:Z:I:1 energy=-344.97132116807626 field_type=dipole dipole="0.000000 0.000000 0.000000" charge=0
C	-1.848036	0.071222	-0.347159	6
C	-0.330056	0.130712	-0.409419	6
O	0.072984	0.139022	-1.801829	8
C	0.313944	1.217782	0.489991	6
C	1.370324	0.182382	0.912701	6
C	0.403044	-0.938188	0.469721	6
O	1.011544	-2.026778	-0.257549	8
H	-2.210676	0.056012	0.686141	1
H	-2.221646	-0.829518	-0.844829	1
H	-2.290986	0.940282	-0.843879	1
H	1.034044	0.310202	-1.792399	1
H	-0.319716	1.559922	1.315821	1
H	0.710304	2.092672	-0.032399	1
H	2.294384	0.227272	0.323541	1
H	1.630054	0.188182	1.973680	1
H	-0.207776	-1.326168	1.294281	1
H	0.588264	-1.995018	-1.136409	1
Es	1.098829	-1.739899	-0.509011	99
Es	0.818689	-1.774745	-0.181221	99
Es	0.920299	-0.572135	0.414620	99
Es	-0.925818	0.216460	-0.588812	99
Es	-0.047122	-0.310436	-0.778925	99
Es	-0.338320	-0.093849	-1.023339	99
Es	0.106680	1.208244	0.645914	99
Es	0.783531	-0.867420	-0.047758	99
Es	-0.402987	-0.305383	-0.737891	99
Es	-0.518541	0.189887	-0.607782	99
Es	0.781185	0.351603	0.532005	99
Es	-0.866135	0.001263	-0.741897	99
Es	0.068673	-0.152153	-0.303173	99
Es	-0.480767	0.168059	-0.576903	99
Es	-1.595339	0.561424	-0.517116	99
Es	0.522866	0.307341	0.372675	99
Es	0.417187	-0.666470	-0.282296	99
Es	-0.273323	0.321901	-0.168436	99
Es	0.203056	-0.610899	-0.420574	99
Es	-0.843371	0.154231	-0.423749	99
Es	0.289219	0.194372	0.308544	99
Es	0.570539	-0.602691	0.200824	99
Es	-0.963490	0.586834	-0.382444	99
Es	-0.294499	0.115463	-0.642347	99
Es	1.383931	0.254523	1.062739	99
Es	1.560462	0.224609	0.903143	99
Es	0.934139	-1.878890	-0.240308	99
Es	0.698276	-0.409331	0.215923	99
