44
Properties=species:S:1:pos:R:3:Z:I:1 energy=-307.9799520698451 field_type=dipole dipole="0.000000 0.000000 0.000000" charge=0
C	-1.663020	0.001921	0.764096	6
C	-0.142470	-0.001479	0.636316	6
O	0.408160	-0.004579	1.954246	8
C	0.357860	-1.234089	-0.148444	6
C	0.832259	-0.666019	-1.447594	6
C	0.835099	0.668011	-1.444894	6
C	0.363760	1.233121	-0.144454	6
H	-2.154370	0.005171	-0.215084	1
H	-2.005130	0.879721	1.325156	1
H	-2.008660	-0.876689	1.321256	1
H	1.377430	-0.006099	1.869806	1
H	-0.439200	-1.965289	-0.322704	1
H	1.184099	-1.744699	0.360496	1
H	1.143600	-1.278309	-2.282894	1
H	1.149630	1.282191	-2.277824	1
H	1.192090	1.738611	0.367876	1
H	-0.431130	1.968501	-0.315354	1
Es	0.108435	0.120847	0.358542	99
Es	0.064702	-0.029821	0.536408	99
Es	-0.001868	-1.017859	0.134661	99
Es	0.317261	-0.219093	-0.116228	99
Es	-0.863838	0.145689	1.303388	99
Es	-0.394908	0.231482	0.812629	99
Es	-0.073492	-0.202402	0.325526	99
Es	0.264377	1.096553	0.014027	99
Es	0.888862	0.159126	-1.523904	99
Es	0.622353	-0.738920	-0.843100	99
Es	-0.328239	0.120030	1.351486	99
Es	-0.702612	-0.231677	0.965654	99
Es	-0.703013	0.282642	1.339074	99
Es	0.446563	-0.053988	-0.411801	99
Es	-0.396482	-0.195845	1.426041	99
Es	-0.286992	-0.076939	1.375389	99
Es	0.171367	0.130094	-0.008209	99
Es	0.783461	0.091502	-1.431295	99
Es	0.033189	-0.217879	0.272774	99
Es	-0.372369	0.161704	0.813347	99
Es	0.537287	-0.130545	-0.839125	99
Es	0.860144	-0.312824	-1.185361	99
Es	-0.167665	-0.199723	0.474206	99
Es	0.305640	-0.128279	-0.162192	99
Es	0.897147	0.601991	-1.639949	99
Es	0.068244	0.533793	0.221984	99
Es	0.735713	0.068020	-1.038374	99
