41
Properties=species:S:1:pos:R:3:Z:I:1 energy=-306.78703161679533 field_type=dipole dipole="0.000000 0.000000 0.000000" charge=0
C	-2.085790	-1.300587	0.443881	6
C	-0.632110	-1.261667	0.105041	6
C	0.078270	-0.131147	0.002481	6
C	1.539680	0.001343	-0.342109	6
C	1.714280	1.487453	-0.368339	6
C	0.542690	2.046683	-0.068859	6
O	-0.470891	1.136413	0.170921	8
H	-2.375070	-2.319046	0.722241	1
H	-2.690290	-1.002567	-0.418089	1
H	-2.317270	-0.648987	1.292571	1
H	-0.141170	-2.214787	-0.065599	1
H	1.763420	-0.434997	-1.319819	1
H	2.174060	-0.447817	0.428171	1
H	2.631820	2.006563	-0.592279	1
H	0.268370	3.083143	0.009791	1
Es	-0.294260	-0.671350	0.015645	99
Es	1.412729	1.656581	-0.250374	99
Es	-0.283951	-1.893373	-0.003136	99
Es	1.490677	1.603455	-0.344324	99
Es	0.930540	-0.063011	-0.199780	99
Es	1.781192	-0.364678	-0.441089	99
Es	-0.228954	1.457988	0.117048	99
Es	-0.592194	1.166271	0.226946	99
Es	-0.282292	-0.774172	0.086058	99
Es	-1.350581	-1.276469	0.291419	99
Es	0.349184	2.695240	-0.006422	99
Es	1.571359	1.904559	-0.325677	99
Es	-0.625229	-1.255221	0.106177	99
Es	-2.278104	-1.116429	0.430688	99
Es	-2.114482	-1.346692	0.442373	99
Es	-0.028059	0.167444	0.035545	99
Es	1.699587	0.473498	-0.258533	99
Es	1.527108	-0.015384	-0.378246	99
Es	-2.279536	-1.894817	0.559273	99
Es	1.693569	0.076511	-0.428913	99
Es	1.874661	1.713728	-0.409261	99
Es	-0.403746	1.111631	0.156955	99
Es	0.542442	2.046499	-0.068636	99
Es	-0.476383	0.842721	0.120373	99
Es	-0.156890	0.682278	0.098934	99
Es	-2.376625	-0.852231	0.493704	99
