45
Properties=species:S:1:pos:R:3:Z:I:1 energy=-344.9608968557359 field_type=dipole dipole="0.000000 0.000000 0.000000" charge=0
C	-1.696875	-1.027255	0.160900	6
C	-0.511905	-0.778905	-0.759250	6
C	0.417335	0.293355	-0.252620	6
C	1.291815	-0.027855	0.926300	6
O	0.566045	0.159345	2.134890	8
C	0.818695	1.421035	-1.185240	6
O	-0.183085	1.601885	-0.180010	8
H	-2.355575	-1.788335	-0.268870	1
H	-2.282415	-0.113885	0.306440	1
H	-1.372625	-1.381055	1.143770	1
H	-0.894205	-0.509795	-1.751540	1
H	0.049555	-1.711575	-0.888970	1
H	2.173055	0.620995	0.961630	1
H	1.643855	-1.063225	0.887620	1
H	0.074205	0.994225	2.021120	1
H	0.491625	1.394145	-2.217780	1
H	1.770495	1.916895	-1.038390	1
Es	-0.287317	-0.318061	-0.374904	99
Es	0.420089	1.263732	-0.735385	99
Es	0.723449	0.046646	1.993569	99
Es	0.758559	0.199473	2.041086	99
Es	-1.456599	-1.265125	0.736062	99
Es	-0.493565	-0.631005	0.118339	99
Es	0.312399	1.124906	-0.594584	99
Es	0.300961	1.248449	-0.569603	99
Es	1.123419	1.583874	-1.038158	99
Es	-0.384540	-0.640559	-0.502269	99
Es	0.407737	0.838429	-0.321756	99
Es	-1.977384	-1.067224	-0.068885	99
Es	0.483194	0.034624	0.715619	99
Es	0.760423	-0.024780	1.797114	99
Es	-0.081374	0.137957	-0.404893	99
Es	0.390182	1.281774	-1.051788	99
Es	0.472850	0.969080	-0.306546	99
Es	-0.505903	-0.513019	-0.992307	99
Es	0.927028	0.014437	1.039247	99
Es	-1.577507	-0.906118	-0.069849	99
Es	-0.454362	-0.241535	-0.482864	99
Es	0.970874	0.359189	0.864658	99
Es	0.529376	1.073189	-0.135351	99
Es	0.519486	0.909251	-0.051553	99
Es	-1.566518	-0.980121	-0.018185	99
Es	0.995446	0.334599	1.155327	99
Es	0.186635	0.991148	-0.461424	99
Es	0.516377	0.085558	2.038022	99
