39
Properties=species:S:1:pos:R:3:Z:I:1 energy=-342.60290498083003 field_type=dipole dipole="0.000000 0.000000 0.000000" charge=0
C	-1.052770	-1.865404	-0.530911	6
C	-0.573710	-1.218254	0.541919	6
C	0.515220	-0.175204	0.563279	6
O	1.009670	0.116716	-0.767091	8
C	0.830920	1.478805	-0.816141	6
C	0.277900	1.968786	0.273579	6
O	0.001940	1.011896	1.219599	8
H	-1.846130	-2.599204	-0.429811	1
H	-0.670990	-1.674374	-1.529601	1
H	-0.998350	-1.448434	1.516089	1
H	1.357870	-0.548584	1.159149	1
H	1.141570	1.973006	-1.717641	1
H	0.006860	2.980255	0.517579	1
Es	-0.853648	-1.767076	-1.051048	99
Es	0.878021	0.567936	-0.693290	99
Es	0.831324	1.072295	-0.636256	99
Es	-0.049019	1.006713	1.248754	99
Es	0.557130	-0.311410	0.536643	99
Es	-0.722531	-1.225600	0.190336	99
Es	0.699001	1.435489	-0.690019	99
Es	0.934095	0.365908	-0.736663	99
Es	-0.947216	-1.812892	-0.360449	99
Es	-0.518877	-1.155008	0.937748	99
Es	-0.067928	1.186350	0.995154	99
Es	0.138356	0.568409	1.029817	99
Es	0.788099	0.051075	-0.186099	99
Es	-0.778127	-1.817267	-0.227354	99
Es	0.464435	-0.473931	0.675450	99
Es	0.957769	1.860983	-0.367922	99
Es	0.218765	1.216624	1.199572	99
Es	0.978832	0.616314	-0.663528	99
Es	0.858476	-0.086056	-0.984897	99
Es	0.854512	1.718050	-1.134586	99
Es	0.021195	1.052135	1.175725	99
Es	-1.390934	-2.364214	-0.381156	99
Es	0.232872	2.103695	0.320480	99
Es	0.203930	2.429447	0.405563	99
Es	-0.725249	-1.273074	0.640754	99
Es	-0.022875	-0.581915	0.449079	99
