39
Properties=species:S:1:pos:R:3:Z:I:1 energy=-342.5847721200278 field_type=dipole dipole="0.000000 0.000000 0.000000" charge=0
C	-2.968953	0.094558	-0.769478	6
C	-1.778793	0.094558	-0.769478	6
C	-0.334793	0.094558	-0.769478	6
O	0.182877	1.172578	0.021322	8
C	1.394287	0.639418	0.549042	6
C	1.045147	-0.802922	0.797492	6
O	0.190107	-1.152412	-0.290788	8
H	-4.034203	0.094018	-0.764008	1
H	0.036507	0.227368	-1.792598	1
H	2.175817	0.741518	-0.213668	1
H	1.697876	1.176388	1.451162	1
H	1.919647	-1.458502	0.826662	1
H	0.474477	-0.921122	1.723812	1
Es	-2.564864	0.125252	-0.977942	99
Es	1.579687	0.765331	0.637342	99
Es	1.760481	0.895533	0.648477	99
Es	-0.174840	0.314566	-0.558719	99
Es	0.188435	-0.743730	-0.236930	99
Es	-1.969872	0.009616	-0.778079	99
Es	-2.194354	0.293821	-0.661749	99
Es	-1.244362	-0.004299	-0.843233	99
Es	0.558759	-0.894453	0.202467	99
Es	0.638592	1.002124	0.210162	99
Es	0.130855	1.428057	-0.137026	99
Es	1.345841	0.337450	0.555303	99
Es	-0.602748	0.204941	-0.740670	99
Es	0.124488	0.575096	-0.086473	99
Es	0.775273	-0.904307	0.504232	99
Es	0.039803	-0.552010	-0.316335	99
Es	0.152763	1.128536	0.024112	99
Es	-3.553631	0.089216	-0.790579	99
Es	-0.000420	-1.219430	-0.084355	99
Es	-2.694896	0.031123	-0.877363	99
Es	1.068185	0.091694	0.563410	99
Es	0.195331	-0.179102	-0.177824	99
Es	1.577083	-1.226357	0.841503	99
Es	0.248188	-0.891396	-0.201614	99
Es	-1.883738	0.100464	-0.819484	99
Es	1.056157	-0.406926	0.675538	99
