47
Properties=species:S:1:pos:R:3:Z:I:1 energy=-309.1216361807927 field_type=dipole dipole="0.000000 0.000000 0.000000" charge=0
C	-2.661425	-0.293910	-0.268149	6
C	-1.145995	-0.419980	-0.315019	6
C	-0.474765	0.954330	-0.332300	6
C	1.048945	0.873890	-0.440000	6
C	1.679785	0.251980	0.767511	6
C	2.283255	-1.127950	0.719110	6
O	3.094315	0.052010	0.640070	8
H	-3.124415	-1.285210	-0.248329	1
H	-3.038085	0.239610	-1.146519	1
H	-2.981935	0.248670	0.627071	1
H	-0.859245	-0.987510	-1.208159	1
H	-0.813095	-0.994570	0.556851	1
H	-0.752485	1.509320	0.571600	1
H	-0.851935	1.527610	-1.187649	1
H	1.442895	1.892280	-0.546180	1
H	1.328865	0.331180	-1.351589	1
H	1.321805	0.649690	1.707120	1
H	2.177006	-1.719560	-0.180829	1
H	2.326505	-1.701880	1.635390	1
Es	0.819008	0.985117	-0.372518	99
Es	2.943925	0.082233	0.621810	99
Es	-2.856157	-0.569613	-0.238948	99
Es	-2.937345	-0.135264	-0.757162	99
Es	-0.874233	0.222909	-0.369978	99
Es	2.292538	-1.112947	0.702762	99
Es	2.406490	-1.012636	0.650464	99
Es	2.370538	-0.193752	0.655995	99
Es	-2.750454	-0.284012	-0.086973	99
Es	-0.692672	1.146496	-0.524628	99
Es	-0.486101	0.761848	-0.159519	99
Es	2.506035	-0.015758	0.561849	99
Es	2.646333	-0.310351	0.586633	99
Es	2.339419	-1.437448	0.968990	99
Es	-1.612364	-0.391625	-0.425719	99
Es	1.251444	0.624768	0.181050	99
Es	1.398480	0.435873	0.264512	99
Es	-1.086092	-0.337072	-0.309367	99
Es	1.537688	0.165389	0.293702	99
Es	-2.530883	-0.207882	-0.056983	99
Es	0.507733	0.740996	-0.456660	99
Es	3.167531	0.027746	0.873132	99
Es	-0.472751	1.100803	-0.314079	99
Es	1.284628	1.349974	-0.519081	99
Es	2.640752	-0.267563	0.637986	99
Es	-1.342469	-0.320715	-0.329437	99
Es	-0.973953	-0.670469	-0.014127	99
Es	1.383851	0.475077	0.503977	99
