44
Properties=species:S:1:pos:R:3:Z:I:1 energy=-307.9346754946985 field_type=dipole dipole="0.000000 0.000000 0.000000" charge=0
C	-2.735362	-0.689490	0.892947	6
C	-1.274683	-0.824330	0.603177	6
C	-0.675422	-0.301610	-0.476713	6
C	0.787158	-0.455340	-0.795973	6
C	1.530888	0.843790	-0.852893	6
C	2.432627	1.287810	0.268697	6
O	2.957447	0.698580	-0.930163	8
H	-3.194502	-1.680590	0.958227	1
H	-3.260072	-0.122050	0.117917	1
H	-2.881212	-0.178250	1.849027	1
H	-0.692632	-1.392820	1.326177	1
H	-1.266103	0.257210	-1.200843	1
H	0.867497	-0.942580	-1.774873	1
H	1.263978	-1.132610	-0.076543	1
H	1.074048	1.585010	-1.495313	1
H	2.475648	0.697520	1.175507	1
H	2.590698	2.349750	0.411637	1
Es	-0.632104	-0.569965	-0.154816	99
Es	0.903043	-0.493357	-1.107474	99
Es	2.839026	1.028088	-0.389184	99
Es	2.377766	1.000819	0.147636	99
Es	2.292121	0.896897	-0.370527	99
Es	1.880215	0.891061	-0.294824	99
Es	-1.606813	-0.795448	0.801769	99
Es	2.673523	0.849862	-0.756816	99
Es	-2.531914	-0.549575	1.102362	99
Es	1.263858	0.067571	-0.642255	99
Es	2.622288	1.201713	-0.105495	99
Es	-0.534054	-0.209393	-0.387076	99
Es	-2.600631	-0.693468	0.914104	99
Es	1.013923	-0.115286	-0.755175	99
Es	1.960630	0.604191	-1.063800	99
Es	-2.932039	-0.929531	0.910877	99
Es	1.798158	0.753332	-0.660759	99
Es	0.880261	-0.223638	-1.009304	99
Es	1.820756	0.650080	-0.762000	99
Es	-0.627589	-0.336064	-0.483340	99
Es	-0.871920	-0.433334	-0.457468	99
Es	-3.040595	-0.712534	1.049353	99
Es	3.005519	0.965676	-0.674995	99
Es	-1.819008	-0.775595	0.602789	99
Es	-1.264358	-0.771921	0.570384	99
Es	-0.868033	-0.463054	-0.226383	99
Es	2.726615	1.220319	-0.078281	99
