44
Properties=species:S:1:pos:R:3:Z:I:1 energy=-307.9274154536326 field_type=dipole dipole="0.000000 0.000000 0.000000" charge=0
C	-1.205303	-2.301432	0.445162	6
C	-0.743013	-1.546952	-0.791818	6
C	-0.503033	-0.096002	-0.491708	6
C	0.686477	0.511908	-0.626038	6
C	0.963017	1.924857	-0.352848	6
C	1.203377	2.351947	1.073722	6
O	2.252117	2.369937	0.099592	8
H	-1.388293	-3.352273	0.199992	1
H	-2.134953	-1.880602	0.842142	1
H	-0.448823	-2.264682	1.235942	1
H	-1.509543	-1.622272	-1.572088	1
H	0.162557	-2.022563	-1.186908	1
H	-1.361283	0.480808	-0.155118	1
H	1.540487	-0.069662	-0.970018	1
H	0.423737	2.612957	-0.996478	1
H	1.259327	1.599468	1.850252	1
H	0.803147	3.304557	1.396212	1
Es	0.810019	1.043399	-0.533669	99
Es	-0.750346	-0.177941	-0.354812	99
Es	2.246689	2.533165	0.014143	99
Es	1.966614	2.415176	0.077403	99
Es	-1.011177	-1.982702	0.075059	99
Es	0.951036	0.887906	-0.697210	99
Es	-0.571606	-1.580512	-1.124766	99
Es	-0.908179	-1.608057	-0.356907	99
Es	1.484465	2.123043	-0.246086	99
Es	1.454917	2.280356	0.427655	99
Es	-1.230671	-2.080011	0.306555	99
Es	-0.691422	-0.002156	-0.336198	99
Es	1.720178	2.395495	0.317165	99
Es	1.037587	1.791358	-0.339758	99
Es	1.022241	0.380031	-0.753154	99
Es	-0.616959	-1.364943	-0.829841	99
Es	-1.280028	-2.923696	0.273490	99
Es	1.178371	1.857389	1.446123	99
Es	1.068836	1.949643	-0.250040	99
Es	1.491839	2.658025	0.654755	99
Es	-0.950477	-1.785802	0.052792	99
Es	-0.643791	-1.423936	-0.546112	99
Es	0.089945	0.319515	-0.803641	99
Es	1.412100	2.414595	0.847860	99
Es	1.316102	2.389915	0.839416	99
Es	-1.563025	-2.132872	0.582797	99
Es	0.095382	0.114175	-0.299656	99
