38
Properties=species:S:1:pos:R:3:Z:I:1 energy=-305.5809029651664 field_type=dipole dipole="0.000000 0.000000 0.000000" charge=0
C	-1.334677	0.757719	-0.278326	6
C	-0.032758	0.691949	0.049334	6
C	0.843603	-0.527721	0.168444	6
C	0.147003	-1.794701	-0.113716	6
C	-0.403857	-2.838401	-0.340126	6
C	0.649583	1.983909	0.335594	6
O	1.833742	2.048749	0.642694	8
H	-1.877337	1.696439	-0.336286	1
H	-1.909727	-0.136191	-0.502896	1
H	1.258243	-0.574811	1.182964	1
H	1.689523	-0.431371	-0.523256	1
H	-0.889427	-3.766111	-0.540206	1
H	0.026093	2.890539	0.255784	1
Es	-0.604091	0.787075	-0.073998	99
Es	1.792764	2.345321	0.718483	99
Es	1.115759	-0.516531	0.205754	99
Es	1.749941	2.041019	0.626663	99
Es	0.146385	-1.795522	-0.113905	99
Es	-1.699581	1.368161	-0.312450	99
Es	-0.060276	0.700765	0.026822	99
Es	1.410528	2.007920	0.389570	99
Es	0.263247	1.315181	0.179375	99
Es	2.033279	1.793290	0.667161	99
Es	-0.018521	-2.438729	-0.047783	99
Es	-1.705173	0.189358	-0.418624	99
Es	-0.662566	0.693453	-0.110598	99
Es	1.544841	2.005687	0.637965	99
Es	0.863167	-0.400373	0.218674	99
Es	0.646829	1.985915	0.335669	99
Es	0.505829	-1.247831	0.001266	99
Es	-1.345415	0.777586	-0.279677	99
Es	-0.348704	-2.330228	-0.327087	99
Es	1.088419	-0.263522	0.246397	99
Es	0.670910	-0.270867	0.139644	99
Es	0.227299	2.572447	0.282220	99
Es	-0.381320	-2.548645	-0.255143	99
Es	-0.719389	-3.441107	-0.478539	99
Es	-0.104590	-2.431017	-0.369896	99
