38
Properties=species:S:1:pos:R:3:Z:I:1 energy=-305.5788887836296 field_type=dipole dipole="0.000000 0.000000 0.000000" charge=0
C	-2.649640	-0.636629	0.002980	6
C	-1.156440	-0.608259	0.003580	6
C	-0.450610	0.530931	-0.002710	6
C	0.955390	0.530931	-0.002710	6
C	2.145550	0.530931	-0.002710	6
C	3.585360	0.543861	-0.002710	6
O	4.206160	1.596891	-0.002720	8
H	-3.002630	-1.672619	-0.019980	1
H	-3.050780	-0.127699	-0.878920	1
H	-3.049050	-0.167079	0.907150	1
H	-0.647070	-1.569289	0.009020	1
H	-0.958230	1.491921	-0.007550	1
H	4.071990	-0.443889	-0.002720	1
Es	1.631840	0.619483	-0.133658	99
Es	-0.763919	1.132454	0.020283	99
Es	-2.820309	-0.891769	0.127097	99
Es	-0.450548	0.530767	-0.003470	99
Es	3.924687	1.138439	-0.012036	99
Es	4.193243	1.590803	-0.002436	99
Es	3.879099	-0.051992	0.015847	99
Es	2.141183	0.534022	-0.004258	99
Es	3.588225	0.547401	-0.001316	99
Es	0.956298	0.526897	-0.004353	99
Es	3.995636	1.249128	-0.044125	99
Es	1.542710	0.303654	0.047752	99
Es	2.839180	0.522789	-0.000086	99
Es	1.592520	0.641920	0.083975	99
Es	-0.674583	0.057462	0.002690	99
Es	4.517977	1.683446	0.004785	99
Es	-1.154648	-0.608855	0.003490	99
Es	-0.813763	-0.025319	-0.027799	99
Es	-2.973582	-0.196551	-0.021118	99
Es	-2.828873	-0.937603	-0.099781	99
Es	-2.424998	-0.589199	0.070596	99
Es	-2.194843	-0.605913	-0.061889	99
Es	0.288403	0.526627	-0.006097	99
Es	4.055976	1.683720	0.020129	99
Es	-0.818265	-1.233067	0.004911	99
