47
Properties=species:S:1:pos:R:3:Z:I:1 energy=-309.14625913849886 field_type=dipole dipole="0.000000 0.000000 0.000000" charge=0
C	-0.267787	-1.617873	1.260355	6
C	-0.282377	-0.851483	-0.042825	6
C	-0.851877	-1.415293	-1.124585	6
C	0.376603	0.529407	-0.027805	6
C	0.448223	1.231607	-1.392775	6
C	-0.307387	1.470547	0.971035	6
O	1.728073	0.352757	0.407915	8
H	0.752393	-1.714753	1.644565	1
H	-0.665158	-2.632513	1.144715	1
H	-0.881477	-1.114563	2.013355	1
H	-1.303677	-2.402663	-1.075525	1
H	-0.898627	-0.923713	-2.090305	1
H	0.992103	0.623347	-2.125235	1
H	1.005123	2.173337	-1.315265	1
H	-0.547037	1.457687	-1.790215	1
H	-0.219247	1.103877	1.999755	1
H	-1.368717	1.606007	0.736975	1
H	0.173533	2.456197	0.968725	1
H	2.117322	-0.331913	-0.162865	1
Es	0.506784	0.871928	0.630331	99
Es	0.467036	1.095587	0.578899	99
Es	0.441094	0.896680	-0.157837	99
Es	0.573612	0.878338	0.304297	99
Es	-0.860517	-1.626303	-1.364865	99
Es	-0.171266	-0.759190	-0.162566	99
Es	0.347006	-0.178977	0.404982	99
Es	-0.326301	-0.897104	-0.207296	99
Es	0.576875	1.003137	0.525124	99
Es	0.319297	1.011329	-1.494511	99
Es	0.513821	0.930941	0.528737	99
Es	0.102293	-0.402369	-0.101447	99
Es	-0.441905	-2.120420	1.040314	99
Es	0.281015	-0.058243	-0.009660	99
Es	0.423829	0.655199	0.587071	99
Es	-0.168807	-0.678641	0.179796	99
Es	-0.289745	-1.283284	1.495805	99
Es	0.588788	0.806835	0.232617	99
Es	0.303400	0.206284	0.252414	99
Es	0.556020	1.262865	-1.121804	99
Es	-0.554636	-1.440336	-0.162016	99
Es	0.476819	1.266766	-0.969573	99
Es	0.592392	1.030869	-1.050425	99
Es	0.482357	0.398496	0.376893	99
Es	-0.083313	-1.375897	1.181908	99
Es	0.339557	0.222157	0.340825	99
Es	-0.305505	-0.744801	-0.329972	99
Es	-0.778246	-1.312255	-0.908051	99
