44
Properties=species:S:1:pos:R:3:Z:I:1 energy=-307.9854502831576 field_type=dipole dipole="0.000000 0.000000 0.000000" charge=0
C	-2.320534	0.296278	-0.084044	6
C	-0.845804	0.045038	0.102956	6
C	-0.491564	-1.399602	0.314546	6
C	0.014846	1.081158	0.112226	6
C	1.497976	1.052498	0.241106	6
C	2.294906	-0.023492	-0.445814	6
O	2.051326	1.961408	0.859746	8
H	-2.546074	1.355738	-0.245614	1
H	-2.877714	-0.031072	0.799826	1
H	-2.689594	-0.257012	-0.953904	1
H	-1.214974	-1.873232	0.987436	1
H	0.487266	-1.532942	0.779746	1
H	-0.507844	-1.937662	-0.638194	1
H	-0.361044	2.099957	0.037536	1
H	1.713466	-0.510732	-1.232234	1
H	2.628746	-0.760962	0.287456	1
H	3.166616	0.434638	-0.922774	1
Es	1.868279	1.457883	0.632053	99
Es	-0.505211	-1.505909	0.127110	99
Es	-2.383147	0.127155	-0.099262	99
Es	0.044893	-1.376774	0.524457	99
Es	-0.717877	-0.231465	0.148388	99
Es	1.758702	0.568319	-0.123803	99
Es	-0.317082	0.624180	0.127757	99
Es	1.960345	1.780995	0.756971	99
Es	0.121244	1.087549	0.116378	99
Es	-2.169275	0.601388	-0.117353	99
Es	2.184729	-0.196565	-0.387118	99
Es	2.287871	-0.030251	-0.496324	99
Es	1.961361	1.811964	0.696262	99
Es	2.805297	0.213867	-0.629703	99
Es	-0.684525	-1.770061	0.092066	99
Es	-2.639376	-0.056096	-0.178982	99
Es	-2.504786	0.584946	0.048346	99
Es	-0.775803	-1.418646	0.497959	99
Es	-0.441291	-0.147497	0.178874	99
Es	-1.676889	0.142391	-0.054482	99
Es	0.875096	1.038463	0.185104	99
Es	1.903944	2.246434	0.924863	99
Es	1.470628	1.006207	0.219352	99
Es	2.208121	-0.507030	-0.362639	99
Es	-0.245243	1.739117	0.082254	99
Es	2.234175	1.903147	0.793243	99
Es	-0.822555	0.147642	0.090265	99
