41
Properties=species:S:1:pos:R:3:Z:I:1 energy=-306.7663868373608 field_type=dipole dipole="0.000000 0.000000 0.000000" charge=0
C	-1.136334	0.444184	0.890331	6
C	0.328886	0.314554	0.476491	6
C	0.495216	-0.188166	-0.961269	6
C	0.033006	-1.577786	-1.117969	6
C	-0.345184	-2.709466	-1.252810	6
C	0.990336	1.666874	0.649601	6
O	1.572086	2.277624	-0.241189	8
H	-1.221544	0.852124	1.903790	1
H	-1.642324	-0.526216	0.881471	1
H	-1.678634	1.120134	0.219721	1
H	0.834956	-0.369716	1.169341	1
H	1.551976	-0.138696	-1.252939	1
H	-0.047984	0.462764	-1.657529	1
H	-0.681724	-3.713046	-1.377970	1
H	0.947256	2.084834	1.670931	1
Es	0.299313	-0.289166	-0.829422	99
Es	1.065165	1.960511	0.807669	99
Es	0.416295	-0.039106	-0.720945	99
Es	1.395165	2.033927	-0.266943	99
Es	0.047806	-2.056265	-1.164465	99
Es	0.407843	-0.533527	-0.951727	99
Es	-0.248118	0.460788	0.660319	99
Es	1.656060	2.371488	-0.162825	99
Es	-0.519849	0.445419	0.646130	99
Es	1.235127	1.939180	0.189938	99
Es	-0.370928	-2.269046	-1.191808	99
Es	0.408779	0.050335	-0.386469	99
Es	-0.116072	-1.978788	-1.028831	99
Es	-0.635961	0.502331	0.646583	99
Es	0.622991	0.980602	0.656312	99
Es	-1.458345	-0.176608	0.870935	99
Es	0.988691	-0.108794	-1.261114	99
Es	-0.487836	-3.209908	-1.279365	99
Es	-0.264966	-2.359543	-1.234637	99
Es	1.159680	1.850411	0.569965	99
Es	1.571400	2.118604	-0.093495	99
Es	-0.155210	-2.154412	-1.340312	99
Es	0.267438	0.137372	0.061927	99
Es	-0.912224	0.418497	0.810905	99
Es	1.336588	2.178085	0.069879	99
Es	-1.131767	0.711529	1.567058	99
