38
Properties=species:S:1:pos:R:3:Z:I:1 energy=-305.5928627425606 field_type=dipole dipole="0.000000 0.000000 0.000000" charge=0
C	-3.093369	-0.438038	-0.015772	6
C	-1.649369	-0.438038	-0.015772	6
C	-0.459209	-0.438038	-0.015772	6
C	0.946791	-0.438038	-0.015772	6
C	1.637421	0.706972	0.025788	6
C	3.110771	0.679441	0.024378	6
O	3.767141	1.712302	0.061958	8
H	-3.487369	0.582842	-0.004082	1
H	-3.487439	-0.958568	0.862478	1
H	-3.487439	-0.938318	-0.905712	1
H	1.446861	-1.401409	-0.050952	1
H	1.170361	1.684251	0.061428	1
H	3.584851	-0.315359	-0.012192	1
Es	-3.105105	-0.444803	-0.018977	99
Es	-3.416682	-0.873739	-0.011084	99
Es	2.367017	0.690795	0.016124	99
Es	-1.581856	-0.492744	-0.013018	99
Es	-3.248541	-0.661543	-0.015803	99
Es	-0.441813	-0.440296	-0.015721	99
Es	3.292913	0.282880	0.009573	99
Es	4.088529	1.783757	0.035425	99
Es	3.716884	1.586265	0.101138	99
Es	1.356205	1.229269	0.085439	99
Es	-2.302339	-0.484884	-0.020436	99
Es	3.244337	0.398355	0.016349	99
Es	1.373230	0.231320	0.002513	99
Es	-1.051480	-0.084061	-0.077353	99
Es	0.390924	-0.425661	0.002365	99
Es	-1.150390	-0.715747	-0.043850	99
Es	1.276399	0.149287	-0.013246	99
Es	3.686659	1.498525	0.010072	99
Es	3.601374	1.468144	0.031777	99
Es	-0.957869	-0.423072	0.071139	99
Es	-3.337138	0.230068	-0.022112	99
Es	0.764237	-0.439590	-0.027033	99
Es	3.377099	1.654929	0.107588	99
Es	1.608636	0.702791	0.029694	99
Es	1.254336	-1.045076	-0.045266	99
