41
Properties=species:S:1:pos:R:3:Z:I:1 energy=-306.77635860214303 field_type=dipole dipole="0.000000 0.000000 0.000000" charge=0
C	-3.242093	-0.575331	0.001633	6
C	-1.798093	-0.575331	0.001633	6
C	-0.607933	-0.575331	0.001633	6
C	0.836067	-0.575331	0.001633	6
C	1.383797	0.846199	-0.001167	6
C	2.889067	0.871889	-0.004017	6
O	3.604097	-0.125441	0.004443	8
H	-3.636083	0.445559	0.013343	1
H	-3.636173	-1.095871	0.879873	1
H	-3.636163	-1.075591	-0.888317	1
H	1.209727	-1.118471	-0.874917	1
H	1.209836	-1.115171	0.880153	1
H	1.044396	1.395549	0.884123	1
H	1.041337	1.392719	-0.887007	1
H	3.338207	1.879949	-0.013037	1
Es	2.974136	0.801038	0.005799	99
Es	1.122242	0.326725	0.091707	99
Es	-1.752208	-0.582692	-0.002856	99
Es	0.743344	-0.553791	-0.008505	99
Es	0.386853	-0.674470	0.054567	99
Es	-1.174394	-0.472563	0.291074	99
Es	1.249441	0.953780	-0.068201	99
Es	3.454659	0.244713	0.023078	99
Es	3.432887	0.121384	-0.067125	99
Es	-3.104062	-0.688465	-0.027859	99
Es	2.151913	0.917355	-0.032109	99
Es	3.180510	1.376495	-0.005619	99
Es	3.451371	0.115257	-0.018724	99
Es	0.981980	-0.795956	0.016462	99
Es	-3.349064	-0.525456	-0.049873	99
Es	1.157774	1.047285	-0.082685	99
Es	-0.687275	-0.528612	-0.005210	99
Es	3.805967	-0.067716	0.036733	99
Es	-1.163122	-0.458001	-0.144638	99
Es	-1.211008	-0.814076	-0.143829	99
Es	3.345412	-0.298161	0.037643	99
Es	-2.881931	-0.799422	0.032681	99
Es	-3.453385	-0.035407	0.042461	99
Es	1.030573	-0.848011	-0.045880	99
Es	-3.409322	-0.805145	0.008889	99
Es	1.231779	0.913410	0.082703	99
