42
Properties=species:S:1:pos:R:3:Z:I:1 energy=-343.8465685385498 field_type=dipole dipole="0.000000 0.000000 0.000000" charge=0
C	-1.248797	-1.723551	-0.693973	6
C	-0.160367	-1.368521	0.306887	6
C	-0.012377	0.120569	0.447977	6
C	1.110593	0.780599	0.119417	6
C	1.322203	2.231709	0.280917	6
O	0.207133	2.973030	0.153077	8
O	2.430433	2.707860	0.465607	8
H	-1.357057	-2.810581	-0.765063	1
H	-1.007217	-1.341691	-1.691773	1
H	-2.216217	-1.306501	-0.394323	1
H	0.782903	-1.830931	-0.006563	1
H	-0.412547	-1.791061	1.286227	1
H	-0.861777	0.638229	0.887347	1
H	1.989073	0.251889	-0.239113	1
H	-0.565977	2.468949	-0.156653	1
Es	1.973899	2.504072	0.391312	99
Es	-0.380647	-1.551555	0.303945	99
Es	-0.281033	-1.418306	0.259546	99
Es	2.610196	2.808000	0.472105	99
Es	1.978192	2.751699	0.314944	99
Es	0.271254	2.890267	0.161696	99
Es	-0.867257	-1.535436	-0.489286	99
Es	0.963325	0.728067	0.244730	99
Es	-0.206574	-0.137372	0.292764	99
Es	0.479312	2.798367	0.131720	99
Es	0.380481	-1.624598	0.117212	99
Es	-1.279404	-1.760539	-0.702361	99
Es	-1.236394	-2.276333	-0.675224	99
Es	0.293998	2.863114	0.143386	99
Es	2.401877	2.693901	0.456981	99
Es	-0.144417	2.658277	0.085299	99
Es	0.270536	0.398950	0.197348	99
Es	-0.145941	0.058386	0.438385	99
Es	2.342492	2.396281	0.547121	99
Es	1.404826	2.316783	0.299859	99
Es	1.083181	1.699755	0.238340	99
Es	-0.044383	0.155473	0.461114	99
Es	0.989673	0.597211	0.235600	99
Es	0.473673	2.972810	0.199888	99
Es	-0.760510	-1.530583	-0.271581	99
Es	-1.845319	-1.466442	-0.610981	99
Es	1.460751	0.441818	0.160261	99
