41
Properties=species:S:1:pos:R:3:Z:I:1 energy=-306.7954063324387 field_type=dipole dipole="0.000000 0.000000 0.000000" charge=0
C	-2.169635	0.072984	-0.517181	6
C	-0.856965	-0.371686	0.063209	6
C	-0.726215	-1.552946	0.690009	6
C	0.256095	0.627244	-0.077841	6
O	0.006065	1.806824	-0.311091	8
C	1.659745	0.137854	0.024789	6
C	2.678965	1.006614	0.043109	6
H	-2.539075	0.963504	0.002119	1
H	-2.938855	-0.702156	-0.432141	1
H	-2.057105	0.308964	-1.580641	1
H	-1.571755	-2.230286	0.777079	1
H	0.191565	-1.882066	1.163139	1
H	1.849456	-0.926036	0.057989	1
H	2.512386	2.079874	-0.005371	1
H	3.705325	0.661314	0.102819	1
Es	-0.170265	0.245491	-0.010552	99
Es	2.192579	0.521980	-0.000535	99
Es	3.194902	0.835825	0.070310	99
Es	-2.671917	-0.369116	-0.409801	99
Es	1.779716	-0.428772	0.166579	99
Es	-0.653915	-1.494446	0.592363	99
Es	-2.183698	0.166626	-0.566954	99
Es	0.122163	1.988403	-0.379909	99
Es	-0.686264	-1.214854	0.339993	99
Es	0.185897	0.496484	-0.056709	99
Es	-1.305109	-0.231664	-0.137178	99
Es	2.582951	1.719954	-0.010354	99
Es	-0.814704	-0.810613	0.588384	99
Es	1.693278	0.138359	0.011060	99
Es	-2.223965	0.147046	-0.646061	99
Es	-0.208389	-1.681061	0.857500	99
Es	0.158556	1.336632	-0.144262	99
Es	2.827227	0.953332	0.058465	99
Es	-0.018603	1.895025	-0.287522	99
Es	0.943153	0.408301	-0.078473	99
Es	0.057242	1.531254	-0.254832	99
Es	1.975501	0.389509	0.062251	99
Es	-2.268036	0.566074	-0.716722	99
Es	-0.142038	1.653064	-0.371847	99
Es	-1.055289	-0.317425	-0.024604	99
Es	-1.277799	-2.030508	0.763646	99
