44
Properties=species:S:1:pos:R:3:Z:I:1 energy=-307.94980748810605 field_type=dipole dipole="0.000000 0.000000 0.000000" charge=0
C	0.083021	-2.031463	0.978036	6
C	-0.475119	-0.642773	1.089816	6
C	-1.465369	-0.345673	1.949326	6
C	0.148711	0.395477	0.191506	6
O	-0.212129	0.094067	-1.157224	8
C	0.252891	0.924417	-2.136914	6
C	1.057081	1.988637	-2.031364	6
H	-0.017769	-2.409743	-0.044194	1
H	-0.429719	-2.736073	1.643486	1
H	1.145291	-2.035673	1.247506	1
H	-1.906609	-1.101303	2.590186	1
H	-1.871349	0.657637	2.022466	1
H	1.239060	0.366077	0.308866	1
H	-0.208229	1.398757	0.453256	1
H	-0.136479	0.595807	-3.095044	1
H	1.463701	2.335337	-1.088984	1
H	1.333021	2.546487	-2.920724	1
Es	0.896509	1.890570	-2.073002	99
Es	0.838422	1.856682	-1.987790	99
Es	-0.293493	-0.797914	1.184325	99
Es	0.081854	0.372152	-0.614039	99
Es	-0.017644	0.172615	-0.930406	99
Es	-0.598988	-0.558560	1.231421	99
Es	0.700787	1.479840	-2.081473	99
Es	-0.819417	-0.578831	1.469358	99
Es	0.011847	0.152536	-0.656768	99
Es	0.663041	1.383850	-2.257277	99
Es	-1.153329	-0.302503	1.805753	99
Es	-0.001991	0.182661	-0.911755	99
Es	0.018637	-2.185955	0.592116	99
Es	-0.041363	-1.470688	1.073118	99
Es	0.768932	1.803029	-2.262384	99
Es	-0.000737	-0.279453	-0.706368	99
Es	0.070102	0.383190	-1.168205	99
Es	0.835180	1.532354	-2.279890	99
Es	-0.103676	0.979130	0.388143	99
Es	-0.228044	-2.420854	1.300893	99
Es	-0.891362	-0.849108	1.231062	99
Es	-1.453995	-0.666031	2.341852	99
Es	0.015234	-2.009467	0.825752	99
Es	-1.464439	-0.189715	1.843206	99
Es	-0.079995	0.103316	0.482940	99
Es	-0.001227	-0.103829	0.272974	99
Es	0.456199	1.157509	-2.123711	99
