44
Properties=species:S:1:pos:R:3:Z:I:1 energy=-307.9511251085039 field_type=dipole dipole="0.000000 0.000000 0.000000" charge=0
C	-0.566492	-2.207533	-0.335186	6
C	-0.758972	-1.292673	0.865454	6
C	-0.519712	0.154417	0.520834	6
C	-1.508652	1.063727	0.518664	6
O	0.817008	0.474457	0.331234	8
C	1.177378	1.392527	-0.622906	6
C	2.396168	1.936267	-0.657076	6
H	-0.776092	-3.244873	-0.054796	1
H	0.461018	-2.161863	-0.710346	1
H	-1.242072	-1.935433	-1.152926	1
H	-0.072892	-1.591093	1.667224	1
H	-1.773562	-1.433333	1.257994	1
H	-2.535982	0.779547	0.719004	1
H	-1.314782	2.115667	0.340874	1
H	0.411398	1.621307	-1.350476	1
H	3.141868	1.674277	0.085524	1
H	2.664368	2.654607	-1.423096	1
Es	-1.387867	1.467373	0.416753	99
Es	0.840034	0.949707	-0.317592	99
Es	-1.321372	-1.573947	0.590026	99
Es	1.916956	1.590154	-0.651896	99
Es	1.993691	1.781158	-0.657617	99
Es	-0.514156	-2.103318	0.048897	99
Es	-0.227647	0.205298	0.456659	99
Es	-0.719259	-1.855036	0.181545	99
Es	0.250019	0.483862	0.344288	99
Es	-0.266023	0.294611	0.503656	99
Es	0.781053	0.616743	0.304587	99
Es	-1.175789	0.739164	0.620844	99
Es	-0.553515	-2.489565	-0.051124	99
Es	0.019381	-2.041057	-0.240457	99
Es	-0.718093	-0.968956	0.625909	99
Es	1.506289	1.440985	-0.522252	99
Es	-1.798745	1.110627	0.721953	99
Es	-0.866636	-1.502618	0.340196	99
Es	-0.710242	-1.996520	0.244113	99
Es	2.646478	1.927490	-0.552359	99
Es	1.841845	1.801880	-0.568680	99
Es	0.770849	0.957269	-0.311148	99
Es	-1.238006	0.363680	0.560048	99
Es	-0.664453	-0.471085	0.545722	99
Es	2.515117	2.072382	-0.783200	99
Es	-0.467361	0.589632	0.293880	99
Es	1.054348	0.926278	-0.218335	99
