44
Properties=species:S:1:pos:R:3:Z:I:1 energy=-307.9852310212809 field_type=dipole dipole="0.000000 0.000000 0.000000" charge=0
C	-2.401695	-1.088072	0.282031	6
C	-0.895245	-1.280172	0.350021	6
C	-0.150665	0.006508	-0.003629	6
C	1.356855	-0.166062	0.062761	6
O	1.896175	-1.228572	0.369651	8
C	2.236345	0.994948	-0.254709	6
C	1.808895	2.213888	-0.607479	6
H	-2.914695	-2.019122	0.542671	1
H	-2.714835	-0.798432	-0.726209	1
H	-2.730505	-0.311982	0.980511	1
H	-0.601535	-2.082982	-0.335499	1
H	-0.617945	-1.607232	1.359491	1
H	-0.439465	0.797548	0.697791	1
H	-0.419765	0.312988	-1.020849	1
H	3.299455	0.783598	-0.179389	1
H	0.760416	2.473478	-0.696549	1
H	2.528205	2.999668	-0.820619	1
Es	-0.719168	-1.279999	0.412941	99
Es	-0.484228	-0.555774	0.181615	99
Es	-2.665400	-1.486581	0.292445	99
Es	1.977628	1.600867	-0.334063	99
Es	2.094088	-1.095897	0.351753	99
Es	1.761943	-0.965325	0.256968	99
Es	0.019125	0.097187	-0.131809	99
Es	2.209941	1.037217	-0.310868	99
Es	-1.877160	-0.885427	0.311646	99
Es	-2.575425	-0.916403	0.211225	99
Es	1.850025	-1.519176	0.438570	99
Es	1.789212	-1.119247	0.428074	99
Es	-0.854472	-1.253420	0.315210	99
Es	-0.678250	-1.751793	0.503372	99
Es	-0.360857	0.462143	-0.180973	99
Es	1.658692	-0.847290	0.208515	99
Es	0.512594	0.084527	0.063042	99
Es	-0.316117	-0.336127	0.049955	99
Es	1.647713	0.175830	-0.040786	99
Es	-2.587071	-0.975360	0.238670	99
Es	1.804487	2.199842	-0.599657	99
Es	2.137618	1.423061	-0.340286	99
Es	2.239636	2.766561	-0.759344	99
Es	1.391637	0.008026	0.027421	99
Es	1.197907	2.362392	-0.637790	99
Es	-2.242385	-1.098046	0.347834	99
Es	2.754959	0.956337	-0.346449	99
