48
Properties=species:S:1:pos:R:3:Z:I:1 energy=-346.17439017659296 field_type=dipole dipole="0.000000 0.000000 0.000000" charge=0
C	-1.848831	-1.181666	0.176996	6
C	-0.329061	-1.114816	0.065756	6
C	0.248219	0.315954	0.035696	6
C	-0.315431	1.145783	-1.119594	6
O	-0.092501	0.953104	1.277436	8
C	1.790019	0.275864	-0.050484	6
O	2.342619	-0.370686	1.096036	8
H	-2.169001	-2.223706	0.279686	1
H	-2.333741	-0.776556	-0.715694	1
H	-2.210881	-0.632176	1.050866	1
H	-0.016461	-1.662676	-0.832184	1
H	0.077819	-1.655286	0.929996	1
H	-0.146511	0.657904	-2.085384	1
H	0.151799	2.137414	-1.150694	1
H	-1.388691	1.326844	-0.996824	1
H	0.146139	1.894814	1.208336	1
H	2.202179	1.290884	-0.066534	1
H	2.132728	-0.252116	-0.946354	1
H	1.759598	-0.128876	1.842936	1
Es	1.729932	0.035646	0.626666	99
Es	-0.145452	-0.323424	0.121511	99
Es	1.252578	0.023541	0.588826	99
Es	-1.558255	-0.596679	-0.044569	99
Es	0.806823	0.539998	0.399732	99
Es	-0.617640	-0.768192	0.278497	99
Es	1.203713	0.758753	0.236709	99
Es	-0.491806	-0.678686	0.192720	99
Es	1.634752	0.018529	0.657084	99
Es	1.901567	-0.030516	0.643293	99
Es	-1.613788	-1.000870	0.020010	99
Es	-0.269322	0.549156	-0.146134	99
Es	-0.366535	-0.144525	0.063750	99
Es	2.181351	-0.477471	1.339227	99
Es	-0.134312	0.703766	-0.407442	99
Es	-1.888868	-1.297787	0.382777	99
Es	1.206772	0.355483	0.398391	99
Es	1.990373	-0.000612	0.803304	99
Es	0.193867	0.398338	0.033779	99
Es	-0.129150	1.315561	-0.706812	99
Es	0.072837	0.584015	-0.089619	99
Es	-1.353409	-1.075276	0.320420	99
Es	1.300772	0.153936	0.528322	99
Es	0.203850	0.201560	0.118949	99
Es	1.916325	-0.116387	0.675893	99
Es	-0.018373	0.784725	0.081770	99
Es	-0.166944	0.870263	-0.716089	99
Es	-1.340662	-0.767999	0.225145	99
Es	-0.645276	0.457679	-0.388764	99
