47
Properties=species:S:1:pos:R:3:Z:I:1 energy=-309.1478725403561 field_type=dipole dipole="0.000000 0.000000 0.000000" charge=0
C	-2.645758	-1.135678	-0.820270	6
C	-1.167148	-1.121458	-0.454420	6
C	-0.560268	0.284782	-0.534710	6
O	-1.248268	1.154142	0.356720	8
C	0.914662	0.257071	-0.218220	6
C	1.555982	0.983312	0.712700	6
C	3.027272	0.909371	0.963670	6
H	-3.033188	-2.159188	-0.783880	1
H	-2.802888	-0.749138	-1.832440	1
H	-3.235048	-0.529998	-0.124260	1
H	-0.629488	-1.802888	-1.124720	1
H	-1.065208	-1.517238	0.563930	1
H	-0.688448	0.684142	-1.547030	1
H	-1.147718	0.779191	1.247640	1
H	1.499592	-0.420258	-0.839830	1
H	1.006132	1.692802	1.327720	1
H	3.527522	0.205032	0.291930	1
H	3.213232	0.590262	1.993660	1
H	3.479042	1.895742	0.821810	1
Es	-0.744944	0.399932	-0.324651	99
Es	-0.769729	-0.183616	-0.565020	99
Es	-2.768258	-1.389922	-0.930481	99
Es	-0.979270	1.098110	0.425896	99
Es	-1.165047	1.054067	0.481160	99
Es	1.057743	0.641248	0.156085	99
Es	-1.140983	1.090037	0.310777	99
Es	1.533018	0.965504	0.620638	99
Es	-1.342151	0.924584	0.129725	99
Es	-0.896185	-0.596506	-0.586208	99
Es	-1.199135	-0.819442	-0.391387	99
Es	-0.894942	0.833632	0.059817	99
Es	1.281747	0.651896	0.339568	99
Es	0.973836	0.337958	0.116686	99
Es	2.327236	0.992989	0.917899	99
Es	3.158376	1.216032	1.022947	99
Es	-2.698901	-1.121115	-0.962909	99
Es	3.054062	0.793576	0.936018	99
Es	3.054193	0.867819	0.891141	99
Es	-0.993542	-1.411637	-0.801971	99
Es	3.369059	0.711238	0.929977	99
Es	-1.107182	-0.932812	-0.472376	99
Es	1.075411	0.001167	-0.442498	99
Es	-2.786977	-1.378659	-1.038465	99
Es	0.490628	0.401302	-0.227115	99
Es	0.924499	1.261607	0.820515	99
Es	-2.988033	-0.708040	-0.478576	99
Es	-1.479345	-1.076890	-0.607062	99
