47
Properties=species:S:1:pos:R:3:Z:I:1 energy=-309.1454180323931 field_type=dipole dipole="0.000000 0.000000 0.000000" charge=0
C	-2.430511	-0.758546	-0.863899	6
C	-1.072841	-0.949456	-0.196949	6
C	-0.194962	0.308214	-0.291689	6
O	-0.863152	1.381894	0.366811	8
C	1.200608	0.208614	0.300201	6
C	2.061569	1.430754	0.097351	6
C	1.692348	-0.862016	0.948881	6
H	-3.014132	-1.682486	-0.799599	1
H	-2.314782	-0.503126	-1.921749	1
H	-3.006011	0.035304	-0.377729	1
H	-0.567532	-1.799836	-0.669840	1
H	-1.251812	-1.206386	0.854691	1
H	-0.099491	0.583064	-1.350199	1
H	-0.813152	1.196584	1.320321	1
H	2.153478	1.658844	-0.968819	1
H	3.073608	1.293244	0.494290	1
H	1.625218	2.297853	0.604411	1
H	1.115698	-1.765726	1.111640	1
H	2.705848	-0.866786	1.341881	1
Es	2.031270	0.896052	0.331239	99
Es	-1.215703	-1.031454	-0.052695	99
Es	-0.030177	0.058262	-0.129328	99
Es	1.655587	-0.903271	0.920443	99
Es	-0.695819	1.541139	0.171386	99
Es	-1.063380	-1.166718	-0.035137	99
Es	-2.061461	-0.582634	-0.840166	99
Es	-0.194782	0.355876	-0.236996	99
Es	-1.961242	-0.705422	-0.682861	99
Es	1.606031	0.754001	0.066210	99
Es	-0.378656	0.993902	0.331113	99
Es	-2.619608	-0.224948	-0.809642	99
Es	-2.327266	-0.800437	-0.758736	99
Es	-0.917039	0.996697	0.037787	99
Es	-0.892420	-1.280073	-0.280552	99
Es	-0.627332	0.551134	-0.086067	99
Es	-0.700849	0.802572	-0.040902	99
Es	1.281950	-0.332646	0.336489	99
Es	-0.055477	0.591820	0.055942	99
Es	-2.794790	-1.354159	-0.806600	99
Es	2.232634	1.591156	0.311302	99
Es	2.181720	-0.732390	0.910293	99
Es	1.405150	0.249089	0.374714	99
Es	2.013325	1.298157	0.121326	99
Es	-0.782300	1.232638	0.203321	99
Es	1.354201	-1.371199	1.036735	99
Es	1.764183	0.220691	0.495529	99
Es	1.846655	1.740906	0.273603	99
