45
Properties=species:S:1:pos:R:3:Z:I:1 energy=-345.0136904223106 field_type=dipole dipole="0.000000 0.000000 0.000000" charge=0
C	-1.150116	-2.094243	0.478528	6
C	-0.981516	-1.139192	-0.686442	6
C	-0.485876	0.206418	-0.201402	6
O	-1.221086	0.960948	0.439868	8
C	0.964314	0.543748	-0.484492	6
C	1.316014	1.948718	-0.022422	6
O	1.314124	2.016747	1.398558	8
H	-1.502596	-3.068182	0.126618	1
H	-1.876186	-1.708022	1.201118	1
H	-0.202156	-2.240372	1.006208	1
H	-1.932336	-0.987212	-1.208412	1
H	-0.273936	-1.548942	-1.414722	1
H	1.125734	0.463858	-1.564202	1
H	1.584634	-0.194812	0.034708	1
H	0.620674	2.699687	-0.412302	1
H	2.322664	2.209838	-0.362252	1
H	0.377644	1.931017	1.671038	1
Es	0.766557	0.462675	-0.297024	99
Es	1.184722	2.182618	0.240458	99
Es	-0.996021	-1.259241	-0.270402	99
Es	1.661978	1.990212	0.070586	99
Es	0.115436	1.456262	0.585870	99
Es	-0.680210	-0.563937	-0.125167	99
Es	1.254781	1.821780	0.522344	99
Es	-1.353610	-1.439790	0.166859	99
Es	0.123407	0.533879	-0.054852	99
Es	0.805213	1.497182	0.497188	99
Es	0.957456	1.800553	0.763697	99
Es	-0.237122	1.024816	0.526962	99
Es	-0.982024	-0.418906	0.446840	99
Es	-1.072205	-1.503394	-0.244099	99
Es	1.068594	2.252852	1.165121	99
Es	0.848674	0.580704	-0.712146	99
Es	-0.623078	-0.518356	-0.119995	99
Es	-0.798822	-1.444950	-0.579734	99
Es	-1.401982	-2.185198	-0.124242	99
Es	0.926257	0.897914	-0.367082	99
Es	1.133363	1.942757	0.973165	99
Es	-1.094657	-1.540458	-0.103550	99
Es	1.426098	2.035670	0.210606	99
Es	-1.533321	-1.799594	0.261302	99
Es	-0.250571	0.730224	0.287293	99
Es	-0.308529	0.908359	0.513527	99
Es	-0.669415	0.655251	0.294379	99
Es	-0.822519	-0.740195	-0.093645	99
