45
Properties=species:S:1:pos:R:3:Z:I:1 energy=-345.01351852368066 field_type=dipole dipole="0.000000 0.000000 0.000000" charge=0
C	-1.075068	-1.178743	1.218930	6
C	-0.890558	-0.875203	-0.264160	6
C	-0.520108	0.580197	-0.555130	6
O	-1.498178	1.449287	0.009250	8
C	0.877293	0.935637	-0.041640	6
C	2.055153	0.446947	-0.839350	6
O	1.021313	1.594267	0.992070	8
H	-1.351887	-2.228693	1.353740	1
H	-1.870647	-0.567213	1.655050	1
H	-0.154138	-0.999263	1.780170	1
H	-1.837927	-1.103603	-0.768730	1
H	-0.133367	-1.551453	-0.676710	1
H	-0.531377	0.754457	-1.637420	1
H	-1.136907	1.738787	0.872230	1
H	2.123183	-0.641103	-0.777960	1
H	2.974832	0.884177	-0.439260	1
H	1.948392	0.761517	-1.881080	1
Es	1.775198	0.956772	-0.348832	99
Es	-0.157399	0.506842	-0.087138	99
Es	-0.762075	-0.116453	0.417769	99
Es	-0.768622	-0.442858	0.266455	99
Es	0.311992	1.156751	0.205311	99
Es	-0.814775	0.804606	0.069547	99
Es	-1.013360	0.670653	0.214172	99
Es	-0.539994	0.396062	-0.074334	99
Es	-1.033488	-1.005429	0.631844	99
Es	-0.792901	0.924146	0.344749	99
Es	1.669925	0.824816	-0.319400	99
Es	0.939806	1.074726	0.270802	99
Es	-0.900528	1.325401	0.288930	99
Es	-0.128622	1.201769	0.236564	99
Es	-0.972871	-1.242700	0.267151	99
Es	-0.820335	-0.297015	0.170033	99
Es	0.724385	1.220221	0.229446	99
Es	1.727767	0.627118	-0.632872	99
Es	-1.297587	-1.311738	0.402694	99
Es	-0.676345	-0.181999	-0.051160	99
Es	2.296123	0.450500	-0.650764	99
Es	0.780365	0.887194	-0.156550	99
Es	1.303606	0.533099	-0.262792	99
Es	-0.098185	1.249385	0.230954	99
Es	1.317233	0.728955	-0.401443	99
Es	-1.226008	-0.322124	0.598959	99
Es	-1.127162	-0.734010	0.411690	99
Es	-0.400269	0.802113	0.237872	99
