48
Properties=species:S:1:pos:R:3:Z:I:1 energy=-346.1584119930105 field_type=dipole dipole="0.000000 0.000000 0.000000" charge=0
C	-1.808464	2.271906	-0.699716	6
C	-1.270704	1.317086	0.350804	6
C	-0.683694	0.056906	-0.274286	6
O	-0.175274	-0.761584	0.776844	8
C	0.405986	-1.961224	0.281234	6
O	1.594526	-1.734394	-0.469276	8
C	2.631216	-1.190814	0.338394	6
H	-2.227574	3.162716	-0.222446	1
H	-2.597944	1.799507	-1.292096	1
H	-1.013434	2.593176	-1.379526	1
H	-2.070294	1.041546	1.049114	1
H	-0.504474	1.819506	0.952804	1
H	-1.458854	-0.488954	-0.824296	1
H	0.123956	0.324176	-0.964976	1
H	-0.311994	-2.488533	-0.356566	1
H	0.626006	-2.617304	1.130704	1
H	3.533406	-1.111734	-0.273276	1
H	2.843866	-1.843014	1.189784	1
H	2.363736	-0.188973	0.686784	1
Es	1.343720	-1.896585	0.007035	99
Es	-0.922491	0.689488	0.070944	99
Es	2.632352	-1.514724	0.360905	99
Es	-0.822583	0.266791	-0.131466	99
Es	-0.494187	-0.016014	0.018351	99
Es	1.078363	-1.015028	0.106422	99
Es	1.926450	-1.659163	-0.086820	99
Es	0.152208	-1.186854	0.360215	99
Es	-1.588754	1.764400	-0.159835	99
Es	0.426929	-1.526013	0.235562	99
Es	-0.194314	-0.751159	0.460746	99
Es	0.455232	-0.730882	0.218621	99
Es	-1.972121	2.029809	-0.600342	99
Es	-0.469921	-0.242818	0.105365	99
Es	0.179001	-1.794760	0.201234	99
Es	-1.714076	1.910805	-0.359144	99
Es	1.546856	-1.564029	0.043560	99
Es	-0.439770	-0.212818	0.289693	99
Es	2.968064	-1.193417	0.166085	99
Es	-2.150279	2.655902	-0.543462	99
Es	0.842916	-2.084384	0.383783	99
Es	1.800243	-1.212937	-0.053134	99
Es	-1.445287	1.780437	-0.122805	99
Es	2.127441	-1.722271	0.320892	99
Es	1.907071	-1.487128	-0.064177	99
Es	-0.148466	-1.064290	0.387522	99
Es	-1.340380	1.989302	-0.478112	99
Es	-1.715520	1.691328	-0.112085	99
Es	-0.807731	0.569969	0.031310	99
