41
Properties=species:S:1:pos:R:3:Z:I:1 energy=-306.7628478521273 field_type=dipole dipole="0.000000 0.000000 0.000000" charge=0
C	-2.214461	-1.843856	0.186418	6
C	-1.026241	-1.359986	-0.180492	6
O	-0.617331	-0.095726	0.166518	8
C	0.488389	0.479514	-0.440852	6
C	0.770269	0.357264	-1.747992	6
C	1.291299	1.327264	0.421318	6
C	1.101169	1.504744	1.736628	6
H	-2.515081	-2.849266	-0.085132	1
H	-2.906171	-1.239356	0.763438	1
H	-0.305001	-1.937106	-0.742672	1
H	0.138829	-0.223066	-2.411692	1
H	1.624859	0.852154	-2.197792	1
H	2.116309	1.859564	-0.048822	1
H	0.301819	1.006564	2.276278	1
H	1.751349	2.161294	2.304848	1
Es	0.875901	0.891715	0.002027	99
Es	-2.347119	-2.275327	0.046925	99
Es	-0.891115	-1.683817	-0.522256	99
Es	0.793865	0.424815	-1.716219	99
Es	-0.522259	-0.221448	0.153071	99
Es	1.185684	1.388157	1.015357	99
Es	-0.679749	-0.030076	0.418195	99
Es	0.378866	-0.074981	-2.133856	99
Es	-1.642465	-1.716359	0.181235	99
Es	-2.267330	-2.053224	0.134655	99
Es	1.305744	0.642754	-2.026013	99
Es	-0.874360	-0.776616	-0.120660	99
Es	1.835353	1.632016	0.137274	99
Es	1.105509	1.510135	1.740349	99
Es	-2.619367	-1.483474	0.622036	99
Es	-0.954212	-1.067876	-0.149134	99
Es	-0.438254	-0.007358	0.056543	99
Es	0.662828	0.444926	-1.148968	99
Es	0.543335	1.200368	2.077225	99
Es	1.323495	1.349337	0.406316	99
Es	1.517614	1.966362	2.092057	99
Es	0.490225	0.481547	-0.438753	99
Es	-1.421498	-1.492768	-0.206153	99
Es	-0.426121	0.008534	0.007879	99
Es	0.664076	0.367078	-1.129664	99
Es	1.177340	1.426198	1.070560	99
