35
Properties=species:S:1:pos:R:3:Z:I:1 energy=-304.3576944666407 field_type=dipole dipole="0.000000 0.000000 0.000000" charge=0
C	-1.810132	-1.450868	-0.003908	6
C	-0.311772	-1.520228	0.003612	6
O	0.312658	-2.573768	0.008002	8
C	0.401829	-0.265948	0.002422	6
C	0.994508	0.778222	0.001882	6
C	1.749318	2.110892	0.001632	6
C	2.340598	3.154772	0.001472	6
H	-2.160192	-0.414648	0.011232	1
H	-2.197822	-1.963328	0.880662	1
H	-2.187712	-1.934978	-0.908518	1
H	2.868718	4.079882	0.001512	1
Es	-1.891408	-0.781855	0.002742	99
Es	0.406161	0.453316	-0.060501	99
Es	0.994674	0.777872	0.002517	99
Es	0.461241	-0.207853	0.028475	99
Es	0.278002	-2.536048	0.011530	99
Es	0.928785	0.077163	0.116663	99
Es	1.372038	1.441387	0.000758	99
Es	-1.955839	-1.685090	-0.013580	99
Es	0.109371	-2.852681	0.006900	99
Es	2.323706	2.459600	0.038157	99
Es	0.169937	-2.371776	-0.018059	99
Es	0.501346	-2.255730	-0.022345	99
Es	2.348010	3.169046	0.001017	99
Es	0.682544	0.179814	-0.069158	99
Es	-1.071109	-1.510152	0.044601	99
Es	0.059424	-0.853821	-0.002333	99
Es	1.750388	2.777625	-0.050317	99
Es	2.016156	2.587060	0.016238	99
Es	0.074305	-2.200390	0.011729	99
Es	2.669176	3.744061	0.002650	99
Es	-0.401772	-1.483335	0.003927	99
Es	-2.001783	-1.766005	0.003717	99
Es	1.748781	2.110205	0.001475	99
Es	-1.891316	-1.589314	-0.009482	99
