40
Properties=species:S:1:pos:R:3:Z:I:1 energy=-269.7039430828988 field_type=dipole dipole="0.000000 0.000000 0.000000" charge=0
C	-3.008803	-0.211167	0.324045	6
C	-1.564803	-0.211167	0.324045	6
C	-0.374644	-0.211167	0.324045	6
C	1.069356	-0.211167	0.324045	6
C	1.609076	-0.975577	-0.881765	6
C	1.551376	1.150003	0.324045	6
C	1.948657	2.271903	0.324045	6
H	-3.402773	0.809723	0.335695	1
H	-3.402864	-0.731697	1.202285	1
H	-3.402783	-0.711467	-0.565915	1
H	1.427006	-0.717297	1.229645	1
H	1.287867	-0.522927	-1.829875	1
H	1.258996	-2.014897	-0.878405	1
H	2.705697	-0.991477	-0.879825	1
H	2.298636	3.278373	0.323885	1
Es	1.947907	1.747443	0.225206	99
Es	-3.013744	-0.330092	0.234544	99
Es	1.284760	-0.355563	0.149308	99
Es	1.727148	1.620815	0.331596	99
Es	-0.259724	-0.179585	0.418745	99
Es	1.115397	-0.276773	0.222252	99
Es	1.393636	-0.653088	-0.492901	99
Es	1.450159	-1.216233	-0.946113	99
Es	1.222678	0.672838	0.241720	99
Es	-0.951524	-0.148360	0.245704	99
Es	1.517120	-1.258532	-0.931413	99
Es	2.060212	-0.857832	-0.692942	99
Es	-0.454235	-0.253725	0.312634	99
Es	2.103178	2.842149	0.385432	99
Es	-1.270355	-0.132248	0.466812	99
Es	-3.254748	-0.275945	0.392836	99
Es	-2.857057	-0.380918	0.150576	99
Es	1.540406	1.069647	0.347688	99
Es	-1.294518	-0.149420	0.406016	99
Es	-2.761036	0.129225	0.403683	99
Es	1.562023	-0.683530	-0.632911	99
Es	1.779409	1.833800	0.544377	99
Es	1.890935	1.973607	0.244402	99
Es	-0.299510	-0.404288	0.192941	99
Es	-3.048794	-0.272970	0.448583	99
