47
Properties=species:S:1:pos:R:3:Z:I:1 energy=-309.13836007770885 field_type=dipole dipole="0.000000 0.000000 0.000000" charge=0
C	-2.861912	-0.237589	-0.219606	6
C	-1.492922	-0.105679	0.418294	6
O	-0.508892	-0.425979	-0.563426	8
C	0.825288	-0.389439	-0.050056	6
C	1.704198	-1.181299	-1.012906	6
C	1.289858	1.039751	0.018044	6
C	1.733598	1.642631	1.128994	6
H	-3.651322	0.005271	0.497494	1
H	-3.019492	-1.257349	-0.586506	1
H	-2.951302	0.429631	-1.083456	1
H	-1.412842	-0.795359	1.265454	1
H	-1.353322	0.919961	0.774804	1
H	0.861308	-0.876359	0.932704	1
H	1.650118	-0.774429	-2.029556	1
H	1.357798	-2.218929	-1.074926	1
H	2.751308	-1.184499	-0.692726	1
H	1.241318	1.606721	-0.909416	1
H	1.791208	1.120401	2.079214	1
H	2.046008	2.682541	1.107574	1
Es	0.870224	0.327322	-0.031413	99
Es	-2.827862	-0.206003	-0.242786	99
Es	-3.396405	-0.025739	0.215313	99
Es	-1.429593	0.421286	0.595694	99
Es	1.744556	-0.866516	-0.772060	99
Es	-0.601511	-0.338399	-0.434507	99
Es	1.788478	1.756513	1.230860	99
Es	-0.399671	-0.638184	-0.428713	99
Es	1.773783	1.781776	1.265715	99
Es	-0.553382	-0.323577	-0.373097	99
Es	1.411344	1.307721	0.399112	99
Es	-2.153145	-0.241160	0.213794	99
Es	-2.797179	-0.354638	-0.551964	99
Es	0.659188	-0.222506	0.054013	99
Es	-0.193740	-0.451355	-0.177781	99
Es	1.583461	1.336673	0.589041	99
Es	1.027598	-0.494514	-0.290889	99
Es	-2.909865	-0.511779	-0.409076	99
Es	1.330144	1.187626	-0.011471	99
Es	2.086249	-1.198573	-0.941714	99
Es	-0.517735	-0.272348	-0.208568	99
Es	-1.044007	-0.288094	0.259968	99
Es	1.429641	-0.805587	-0.634900	99
Es	-1.475693	-0.140387	0.401067	99
Es	1.778034	1.682653	1.211852	99
Es	1.360513	-1.322301	-1.036509	99
Es	1.503594	-1.141461	-1.310523	99
Es	1.147816	0.453113	0.033922	99
