42
Properties=species:S:1:pos:R:3:Z:I:1 energy=-343.7734668946491 field_type=dipole dipole="0.000000 0.000000 0.000000" charge=0
C	-1.620592	-1.691848	0.190435	6
C	-0.099242	-1.632758	0.184555	6
O	0.379158	-2.306628	-0.976125	8
C	0.382778	-0.271588	0.184555	6
C	0.780058	0.850312	0.184555	6
C	1.262078	2.211482	0.184555	6
O	0.232278	3.076232	-0.272895	8
H	-2.036612	-1.205648	1.078085	1
H	-1.961412	-2.731968	0.168145	1
H	-2.039602	-1.204058	-0.696775	1
H	0.284948	-2.174268	1.055035	1
H	0.155738	-1.742178	-1.736205	1
H	2.125528	2.322572	-0.478505	1
H	1.555208	2.525412	1.191045	1
H	0.599688	3.974932	-0.260465	1
Es	0.034277	-1.334664	0.113643	99
Es	0.180007	3.297348	-0.000087	99
Es	0.638520	2.743567	-0.134714	99
Es	0.944083	2.538450	-0.039137	99
Es	1.040698	1.159020	0.122348	99
Es	-1.572996	-1.710825	0.184687	99
Es	0.512750	3.087877	-0.303418	99
Es	0.436735	0.377408	0.349468	99
Es	-1.780024	-2.270502	0.126381	99
Es	0.900323	1.774526	0.183599	99
Es	0.269971	-2.002550	-0.500091	99
Es	0.070390	-2.289644	-0.379865	99
Es	-0.816514	-1.505577	0.117331	99
Es	0.313279	-2.212683	-0.648190	99
Es	0.682154	0.082291	0.034836	99
Es	-1.748434	-1.395148	0.540308	99
Es	0.150800	-2.127710	-0.619382	99
Es	0.735280	2.725437	-0.025210	99
Es	0.592541	0.388715	0.163953	99
Es	1.138793	2.081861	0.100748	99
Es	0.479875	-2.272597	-0.800128	99
Es	0.684610	2.842611	-0.019381	99
Es	-1.558131	-1.492923	-0.190366	99
Es	-0.010712	-1.800851	-0.303159	99
Es	0.882476	2.188612	0.099268	99
Es	0.170153	-1.628867	-0.400743	99
Es	0.467350	-0.101969	0.108553	99
