45
Properties=species:S:1:pos:R:3:Z:I:1 energy=-344.97771946160276 field_type=dipole dipole="0.000000 0.000000 0.000000" charge=0
C	-2.767905	1.102540	0.822902	6
C	-1.300785	0.765480	0.630162	6
O	-1.218835	-0.443290	-0.125758	8
C	0.027235	-0.927280	-0.407298	6
C	1.225805	-0.395880	-0.123468	6
C	2.518655	-1.048210	-0.482068	6
O	3.208965	-0.205700	-1.390218	8
H	-2.884135	2.003610	1.431212	1
H	-3.294215	0.275240	1.309952	1
H	-3.254665	1.264720	-0.144248	1
H	-0.829055	0.626210	1.610002	1
H	-0.808625	1.584500	0.093122	1
H	-0.080285	-1.869570	-0.935598	1
H	1.313995	0.550590	0.399182	1
H	2.384905	-2.030880	-0.944458	1
H	3.137214	-1.172140	0.412342	1
H	2.621725	-0.079940	-2.155758	1
Es	-1.184149	-0.421371	-0.098011	99
Es	-1.075817	0.924226	0.586084	99
Es	-2.786281	1.701427	1.175363	99
Es	2.737337	-0.731289	-0.532808	99
Es	1.376422	-0.564513	-0.254118	99
Es	0.080423	-1.032788	-0.432114	99
Es	-1.151992	-0.371884	-0.150679	99
Es	2.988586	-0.525943	-1.136686	99
Es	1.283188	0.207505	0.200801	99
Es	-1.200829	0.583177	0.717117	99
Es	-1.179794	0.034911	0.211572	99
Es	2.507204	-0.956902	-0.546504	99
Es	-3.105819	0.754801	0.810382	99
Es	2.489924	-1.529256	-0.787449	99
Es	3.150202	-0.383924	-1.189070	99
Es	-1.347131	-0.031118	0.125942	99
Es	-2.040307	0.962247	0.592619	99
Es	1.359956	-0.754727	-0.412713	99
Es	0.177127	-1.160639	-0.544159	99
Es	-2.882763	0.926069	0.770936	99
Es	-1.216660	0.333702	0.325279	99
Es	-2.783232	1.113569	0.766405	99
Es	3.317412	-0.173088	-1.412090	99
Es	-0.771838	-0.359389	-0.070518	99
Es	0.987631	-0.662556	-0.222757	99
Es	0.584283	-0.883285	-0.329991	99
Es	2.967256	-0.435255	-1.108135	99
Es	3.107565	-0.118313	-1.315451	99
