45
Properties=species:S:1:pos:R:3:Z:I:1 energy=-344.9832401370579 field_type=dipole dipole="0.000000 0.000000 0.000000" charge=0
C	-1.628084	-0.167327	0.044650	6
C	-0.096293	-0.144287	-0.003030	6
O	0.378956	-0.985617	1.058840	8
C	0.428396	-0.747427	-1.325350	6
O	0.046336	-2.120577	-1.437220	8
C	0.414716	1.269083	0.178030	6
C	1.294076	1.699313	1.094760	6
H	-2.067804	0.399563	-0.782230	1
H	-1.997214	0.257493	0.985560	1
H	-2.009194	-1.193987	0.003520	1
H	0.038677	-0.604017	1.887160	1
H	1.523096	-0.720087	-1.357880	1
H	0.043247	-0.210067	-2.197610	1
H	0.259937	-2.506197	-0.563710	1
H	0.024126	2.000503	-0.528920	1
H	1.751506	1.031243	1.817840	1
H	1.595516	2.742393	1.125590	1
Es	-0.595488	-0.407824	-0.358214	99
Es	-0.028619	-0.398583	0.141933	99
Es	1.368016	1.754694	1.313633	99
Es	-0.478466	-0.436373	-0.052747	99
Es	0.043486	-1.971127	-1.267115	99
Es	0.026991	0.176894	0.392910	99
Es	-0.059935	-0.965943	-1.029438	99
Es	0.182519	0.547321	0.429502	99
Es	0.197240	-2.230846	-1.388744	99
Es	-0.326109	-0.312393	-0.037614	99
Es	0.755798	1.216835	0.756044	99
Es	0.447974	-0.644118	-0.139650	99
Es	0.014018	-1.121234	-0.901516	99
Es	-0.036755	-0.893128	-0.668306	99
Es	-0.011428	-1.392747	-0.897709	99
Es	-0.639344	-0.658969	-0.042863	99
Es	1.451558	1.749166	1.244325	99
Es	0.075285	-0.712330	-0.383884	99
Es	-0.108101	-0.555802	-0.217818	99
Es	0.924717	1.269288	0.524420	99
Es	-0.577839	-0.422177	-0.061286	99
Es	0.683705	1.212676	0.688928	99
Es	-0.640573	0.117920	0.292127	99
Es	-0.841465	-0.391817	0.131546	99
Es	0.134739	-1.997945	-1.252856	99
Es	0.447562	0.939057	0.647856	99
Es	0.120607	0.203494	0.381080	99
Es	0.034481	-0.000470	0.248028	99
