47
Properties=species:S:1:pos:R:3:Z:I:1 energy=-309.1210904277324 field_type=dipole dipole="0.000000 0.000000 0.000000" charge=0
C	-1.357854	-1.907937	-0.705171	6
O	-0.637684	-1.371427	0.395059	8
C	0.155266	-0.179127	0.164239	6
C	1.359816	-0.495827	-0.718511	6
C	-0.639994	1.105283	-0.219791	6
C	0.228246	1.895913	0.772049	6
C	0.541276	0.565723	1.478989	6
H	-2.044584	-2.670797	-0.327801	1
H	-0.670894	-2.379687	-1.412881	1
H	-1.940884	-1.131687	-1.208361	1
H	2.030306	0.364633	-0.819921	1
H	1.046876	-0.781847	-1.727871	1
H	1.942246	-1.321887	-0.295921	1
H	-1.700104	1.072443	0.059509	1
H	-0.564224	1.426003	-1.262781	1
H	1.103436	2.369423	0.313689	1
H	-0.299364	2.639143	1.375409	1
H	1.574686	0.452023	1.818529	1
H	-0.126564	0.349633	2.321539	1
Es	-1.559199	-2.077367	-0.549559	99
Es	-0.702061	-1.074480	-0.087199	99
Es	-0.350218	-1.516518	-0.145050	99
Es	0.469333	1.433117	0.824912	99
Es	-1.237332	-1.782037	-0.902260	99
Es	0.467000	-0.184790	-0.031124	99
Es	0.106147	0.599862	0.491240	99
Es	-1.153218	-1.744906	-0.444617	99
Es	-0.114742	2.212842	1.115425	99
Es	0.255768	1.168578	0.755651	99
Es	0.620009	-0.593155	-0.527310	99
Es	-0.097319	1.106474	0.581278	99
Es	0.011544	-0.673277	-0.064918	99
Es	0.394958	1.321083	0.876641	99
Es	0.670081	0.990579	0.899339	99
Es	-0.406158	0.678390	0.206108	99
Es	0.989606	-0.439966	-0.160211	99
Es	0.329840	1.393773	0.811313	99
Es	0.363303	-0.482757	-0.187988	99
Es	0.127767	-0.150951	0.031340	99
Es	-1.274785	-1.539776	-0.423712	99
Es	-0.324242	0.889147	0.384843	99
Es	0.780180	-0.232558	-0.334800	99
Es	-0.306404	-1.218050	-0.058189	99
Es	-0.014469	0.573651	0.269842	99
Es	0.778724	0.143703	0.098579	99
Es	0.387293	-0.112548	-0.047229	99
Es	-0.738334	-1.105930	0.050547	99
