47
Properties=species:S:1:pos:R:3:Z:I:1 energy=-309.12043988356584 field_type=dipole dipole="0.000000 0.000000 0.000000" charge=0
C	-2.664618	0.684858	0.845952	6
O	-1.248618	0.571478	0.856772	8
C	-0.773498	-0.180151	-0.259248	6
C	0.734432	-0.244761	-0.189788	6
C	1.274442	-1.092201	0.932101	6
C	1.515772	-0.214381	-1.488648	6
C	1.519693	0.988238	-0.588328	6
H	-2.969957	1.265258	1.720422	1
H	-3.128877	-0.304201	0.903342	1
H	-3.000587	1.207759	-0.054458	1
H	-1.102677	0.304259	-1.186818	1
H	-1.192087	-1.192901	-0.230368	1
H	2.370363	-1.090322	0.955922	1
H	0.944873	-2.130221	0.816501	1
H	0.920552	-0.723722	1.900332	1
H	0.973862	-0.141951	-2.425138	1
H	2.429612	-0.794441	-1.560558	1
H	2.429942	1.219729	-0.046148	1
H	0.967383	1.867679	-0.901838	1
Es	-0.964428	0.152614	-0.021787	99
Es	1.066194	-1.096910	0.870249	99
Es	1.405785	0.530956	-1.223940	99
Es	-0.864022	0.408885	0.425584	99
Es	2.012243	-0.156798	-1.170878	99
Es	-1.505517	0.558010	0.617036	99
Es	-0.175196	-0.216795	0.025328	99
Es	-2.412065	0.474987	0.809336	99
Es	1.247306	0.355038	-0.781747	99
Es	1.330044	0.310283	-0.958694	99
Es	1.380277	0.217855	-1.114386	99
Es	0.637679	-0.633996	0.647229	99
Es	-2.609785	0.568787	0.961136	99
Es	-2.596840	0.820764	0.990510	99
Es	1.129784	0.117140	-0.516894	99
Es	-2.475041	0.779207	0.660873	99
Es	0.966290	-0.758574	0.679221	99
Es	-2.680055	0.622737	0.932270	99
Es	1.531302	-0.668095	0.453451	99
Es	-1.102185	0.437518	0.045049	99
Es	-0.067649	-0.343483	0.021820	99
Es	1.328200	0.378061	-1.177576	99
Es	1.266907	-0.618716	0.307430	99
Es	-0.810779	0.346947	0.079563	99
Es	0.985367	-0.415996	0.125051	99
Es	1.675499	0.111741	-1.060832	99
Es	0.791745	-0.477447	0.345602	99
Es	-0.760494	0.101136	0.247382	99
