42
Properties=species:S:1:pos:R:3:Z:I:1 energy=-343.752198101644 field_type=dipole dipole="0.000000 0.000000 0.000000" charge=0
C	-0.417615	-2.636949	-0.217713	6
O	-1.420445	-1.628959	-0.283613	8
C	-0.998975	-0.329639	-0.320353	6
C	0.250285	0.161451	-0.309853	6
C	0.598505	1.585821	-0.350523	6
C	0.579945	2.372101	0.936697	6
O	1.803695	2.085661	0.250927	8
H	-0.918795	-3.609279	-0.190763	1
H	0.177045	-2.538059	0.696307	1
H	0.222345	-2.610929	-1.105423	1
H	-1.869035	0.317711	-0.361493	1
H	1.101165	-0.511649	-0.271363	1
H	0.273025	2.095001	-1.252643	1
H	0.401935	1.856311	1.871847	1
H	0.216925	3.391402	0.907957	1
Es	-0.507297	-2.785123	-0.415118	99
Es	0.579857	-0.142245	-0.297716	99
Es	1.319271	2.065634	0.297832	99
Es	1.924336	2.241718	0.174231	99
Es	-1.010684	-0.894180	-0.205712	99
Es	0.895178	1.808318	0.203171	99
Es	0.508682	1.933669	0.248688	99
Es	-0.833862	-0.419678	-0.352205	99
Es	0.935342	2.147627	0.475435	99
Es	-1.213240	-1.772725	-0.280392	99
Es	-0.214901	-2.587230	-0.325648	99
Es	0.339303	0.304395	-0.330491	99
Es	0.359481	2.142060	0.390159	99
Es	-0.310951	-2.304272	-0.091259	99
Es	0.532828	2.901133	0.846196	99
Es	-0.748690	-0.835367	-0.362963	99
Es	-0.489610	0.041468	-0.124090	99
Es	-1.287048	-1.586205	-0.205374	99
Es	-1.282479	-0.999089	-0.241439	99
Es	-0.645808	-2.975828	-0.217606	99
Es	1.147037	1.981477	0.123632	99
Es	1.269693	2.085333	0.338938	99
Es	0.574397	1.961914	0.357833	99
Es	1.692075	1.959551	0.294165	99
Es	-1.238101	-2.000337	-0.439491	99
Es	0.386676	0.423024	-0.352485	99
Es	-1.180256	-0.131938	-0.293743	99
