44
Properties=species:S:1:pos:R:3:Z:I:1 energy=-307.94509688486596 field_type=dipole dipole="0.000000 0.000000 0.000000" charge=0
C	0.684433	-2.888406	0.693446	6
O	-0.655747	-2.615096	0.301076	8
C	-0.929877	-1.353746	-0.147444	6
C	-0.099977	-0.311356	-0.305224	6
C	-0.549487	1.029054	-0.811034	6
C	-0.274907	2.107204	0.196936	6
C	0.510333	3.169414	-0.025954	6
H	0.731363	-3.928486	1.029456	1
H	0.984553	-2.249326	1.530356	1
H	1.371663	-2.775036	-0.151224	1
H	-1.988627	-1.292216	-0.380044	1
H	0.957663	-0.398206	-0.077454	1
H	-1.623537	1.026224	-1.032304	1
H	-0.032407	1.236324	-1.755584	1
H	-0.762527	2.007054	1.165096	1
H	1.013023	3.319474	-0.976164	1
H	0.664053	3.917124	0.746056	1
Es	-0.436698	-2.333344	0.308891	99
Es	-0.360089	1.639315	-0.320292	99
Es	0.520995	3.091995	-0.061771	99
Es	-0.367806	1.821156	-0.097100	99
Es	0.788609	-3.079297	0.778372	99
Es	-0.109336	-0.567356	-0.195714	99
Es	-0.171501	-2.352008	0.269107	99
Es	-0.114098	-2.665410	0.316733	99
Es	-0.292677	1.779701	-0.223908	99
Es	-0.276571	0.116903	-0.431193	99
Es	-0.801300	-2.453938	0.293998	99
Es	0.511866	2.817594	-0.044923	99
Es	0.157930	2.812827	0.011845	99
Es	0.419414	-2.717914	0.585759	99
Es	0.202077	-0.379507	-0.049975	99
Es	0.199987	-2.693948	0.518681	99
Es	0.205446	2.929322	-0.016180	99
Es	-0.446942	0.931816	-0.619952	99
Es	-0.302332	-0.033053	-0.480357	99
Es	-0.968257	-1.567378	-0.056044	99
Es	-1.495891	-1.284481	-0.297091	99
Es	0.710044	3.657198	0.254056	99
Es	-1.241091	0.920198	-0.937603	99
Es	-0.459037	-0.920799	-0.259852	99
Es	-0.371464	1.569505	-0.358859	99
Es	0.626142	-3.275942	0.802270	99
Es	-0.164748	-2.534932	0.359919	99
