47
Properties=species:S:1:pos:R:3:Z:I:1 energy=-309.1370348523235 field_type=dipole dipole="0.000000 0.000000 0.000000" charge=0
C	-0.091544	-1.811775	1.704115	6
O	-0.768193	-0.561235	1.673605	8
C	-0.982813	-0.077395	0.345285	6
C	-2.094293	0.964955	0.416195	6
C	0.285956	0.551005	-0.161695	6
C	0.920197	0.179995	-1.286095	6
C	2.189647	0.800695	-1.770565	6
H	-0.006123	-2.128075	2.747475	1
H	0.916717	-1.723795	1.288975	1
H	-0.659994	-2.571095	1.158095	1
H	-1.318023	-0.897475	-0.301735	1
H	-1.837693	1.776505	1.107465	1
H	-3.014813	0.510445	0.799335	1
H	-2.305263	1.397095	-0.567705	1
H	0.700407	1.347165	0.455225	1
H	0.512496	-0.621775	-1.897765	1
H	2.528946	1.612175	-1.119345	1
H	2.044926	1.207625	-2.775725	1
H	2.979466	0.044955	-1.815145	1
Es	-1.460662	0.239475	0.436250	99
Es	-0.822066	-0.635763	0.974533	99
Es	2.214990	1.187936	-2.231791	99
Es	0.851180	0.371930	-0.794383	99
Es	-0.367015	0.191683	0.263719	99
Es	-2.172548	0.617207	0.684424	99
Es	-2.314282	1.158864	-0.133498	99
Es	2.036010	0.651701	-1.730320	99
Es	-1.132221	-0.279465	0.557751	99
Es	0.412346	0.655569	-0.673528	99
Es	2.267212	0.505067	-1.701277	99
Es	0.062902	-1.870348	1.892913	99
Es	0.317989	0.467130	-0.233564	99
Es	-0.156071	-1.633326	1.843563	99
Es	-0.053225	-1.243379	1.355640	99
Es	0.271738	0.492295	-0.187993	99
Es	1.501505	0.136360	-1.481681	99
Es	-0.872057	-0.511504	1.421688	99
Es	-0.779834	-1.223869	1.626608	99
Es	-0.491436	-1.323696	1.507293	99
Es	1.928488	0.789136	-1.680025	99
Es	1.476214	0.434338	-1.381362	99
Es	-0.542230	0.052712	0.260112	99
Es	0.894230	0.216899	-1.002973	99
Es	-0.139500	-1.888376	1.790452	99
Es	-2.196250	1.068931	0.671777	99
Es	-0.961656	-0.257704	1.402058	99
Es	-1.960366	1.251763	0.661551	99
