50
Properties=species:S:1:pos:R:3:Z:I:1 energy=-310.3217524209537 field_type=dipole dipole="0.000000 0.000000 0.000000" charge=0
C	-2.049230	-1.536561	0.156263	6
O	-0.717640	-1.058551	0.286333	8
C	-0.515680	0.252459	-0.254287	6
C	-1.203820	1.310648	0.609833	6
C	1.006870	0.510979	-0.373127	6
C	1.738560	0.431309	0.970743	6
C	1.646950	-0.478761	-1.354487	6
H	-2.062880	-2.589381	0.450803	1
H	-2.393120	-1.462152	-0.879747	1
H	-2.723550	-0.990221	0.821133	1
H	-0.942980	0.291519	-1.264877	1
H	-0.980910	1.167528	1.671673	1
H	-2.291880	1.242728	0.508723	1
H	-0.908400	2.321449	0.312493	1
H	1.153570	1.520038	-0.779357	1
H	1.621960	-0.551751	1.437203	1
H	1.368520	1.187649	1.670083	1
H	2.810430	0.612728	0.836473	1
H	1.574630	-1.509671	-0.994257	1
H	2.708320	-0.247561	-1.498247	1
H	1.160290	-0.424421	-2.333377	1
Es	-0.427916	0.712508	0.413341	99
Es	1.415176	0.710070	0.286879	99
Es	1.619625	-0.429938	-1.055378	99
Es	-0.024576	-0.020725	0.074062	99
Es	-1.229939	-0.779449	0.165599	99
Es	-1.086106	1.164732	1.138608	99
Es	-1.845732	-0.667600	0.384864	99
Es	1.370878	-0.131559	-0.506960	99
Es	-1.404248	0.773310	0.365851	99
Es	-0.294812	0.399049	0.231895	99
Es	-0.775105	-0.291222	0.055944	99
Es	-1.408425	-1.216829	-0.093506	99
Es	-1.135495	-0.263211	0.053076	99
Es	-0.194328	1.451103	0.618828	99
Es	-0.283832	0.242786	0.238919	99
Es	-0.837123	0.412062	0.396572	99
Es	1.650248	0.428561	0.287137	99
Es	-2.156762	-1.642620	-0.130862	99
Es	1.583537	-0.344407	-0.925168	99
Es	-0.815864	-0.586066	-0.003689	99
Es	0.951592	0.172772	-0.036653	99
Es	1.857361	0.122203	-0.100923	99
Es	0.908778	0.430605	0.050450	99
Es	1.486702	0.767203	0.535503	99
Es	1.478858	-0.888068	-1.388933	99
Es	-1.763067	-1.458494	0.061773	99
Es	1.914748	-0.064995	-0.596745	99
Es	-2.079489	-1.538342	0.045135	99
Es	0.684167	-0.017907	-0.122275	99
