42
Properties=species:S:1:pos:R:3:Z:I:1 energy=-343.76611375176816 field_type=dipole dipole="0.000000 0.000000 0.000000" charge=0
O	-2.074251	-0.111285	-0.144864	8
C	-0.656321	0.029385	-0.075714	6
C	0.251099	-0.655245	-1.146434	6
C	1.297210	-0.288805	-0.029394	6
C	0.173929	-0.829405	0.931116	6
O	1.307609	1.160915	0.096836	8
C	-0.100881	1.459585	0.053796	6
H	-2.405941	0.178445	0.722646	1
H	0.368850	-0.125585	-2.095964	1
H	0.077569	-1.718855	-1.340954	1
H	2.279860	-0.758895	-0.031614	1
H	-0.007201	-1.909285	0.933546	1
H	0.217059	-0.463925	1.960926	1
H	-0.323880	2.083155	-0.816594	1
H	-0.404711	1.949795	0.982666	1
Es	0.042381	1.102988	-0.087263	99
Es	0.110362	-0.224915	0.026742	99
Es	1.189263	1.053496	-0.035600	99
Es	1.056605	-0.148762	-0.015817	99
Es	0.360430	0.034789	-0.056440	99
Es	-2.083754	0.011924	-0.130344	99
Es	-0.839805	0.420399	-0.009162	99
Es	-0.063297	-0.648085	-0.233883	99
Es	-0.488092	0.868492	0.256591	99
Es	0.986921	-0.223790	-0.134409	99
Es	0.719081	-0.141375	0.001119	99
Es	0.300470	-0.376093	0.126830	99
Es	0.026374	-0.942715	0.094672	99
Es	-1.836703	-0.386880	-0.075145	99
Es	0.976274	1.175017	0.005005	99
Es	0.074617	-0.388904	-0.075011	99
Es	0.354982	-0.492432	-0.170302	99
Es	0.219556	-0.613748	-0.185535	99
Es	-1.877295	0.040257	-0.172087	99
Es	0.073736	0.396318	0.087231	99
Es	-0.213484	0.301041	-0.049093	99
Es	0.210566	-0.563917	-0.167874	99
Es	1.295051	1.275402	0.223993	99
Es	0.274586	0.808444	0.110275	99
Es	-1.847362	-0.071539	-0.047196	99
Es	1.128632	0.106126	-0.150681	99
Es	-0.378968	0.670003	-0.086642	99
