43
Properties=species:S:1:pos:R:3:Z:I:1 energy=-270.90576261977674 field_type=dipole dipole="0.000000 0.000000 0.000000" charge=0
C	-0.179096	-2.098002	-0.874025	6
C	-0.528826	-1.052022	0.179785	6
C	0.040444	0.342648	-0.139165	6
C	-0.446737	1.340458	0.885775	6
C	-1.201836	2.411808	0.605165	6
C	1.484443	0.342648	-0.139165	6
C	2.674604	0.342648	-0.139165	6
H	-0.675806	-3.045582	-0.641785	1
H	0.898054	-2.289083	-0.907795	1
H	-0.505006	-1.779042	-1.869045	1
H	-0.169766	-1.403592	1.156205	1
H	-1.622766	-0.991572	0.249575	1
H	-0.317906	0.640068	-1.133515	1
H	-0.156776	1.163178	1.920575	1
H	-1.517436	2.639708	-0.408105	1
H	-1.515726	3.089818	1.392795	1
H	3.740144	0.345918	-0.138105	1
Es	-0.962959	1.711266	0.761584	99
Es	-0.810523	-0.728335	0.138095	99
Es	2.881236	0.333113	-0.146043	99
Es	-1.191119	2.381153	0.663184	99
Es	2.098903	0.167868	-0.034604	99
Es	0.489573	0.086583	0.015322	99
Es	-0.130793	-1.726514	-0.819874	99
Es	-0.285367	-0.981874	0.132592	99
Es	-0.229213	-0.348784	0.002355	99
Es	-0.404629	-2.000277	-0.832355	99
Es	-1.202648	2.385732	0.703974	99
Es	1.443626	0.271585	-0.112183	99
Es	0.084284	0.485432	-0.038971	99
Es	-0.241720	0.930912	0.413310	99
Es	-0.365043	1.088254	0.693832	99
Es	2.144291	0.452211	-0.023181	99
Es	2.568971	0.402927	-0.218418	99
Es	-0.330245	-1.698166	-0.751988	99
Es	-0.161443	-2.293873	-0.832729	99
Es	2.385637	0.353410	-0.289249	99
Es	0.151252	-2.512137	-0.804092	99
Es	-0.533293	1.447422	0.885224	99
Es	-1.255689	2.514139	0.599613	99
Es	-0.633677	-1.038027	0.228382	99
Es	-0.751845	2.215564	0.712340	99
Es	-0.100765	0.212870	-0.097488	99
