41
Properties=species:S:1:pos:R:3:Z:I:1 energy=-306.7340968038715 field_type=dipole dipole="0.000000 0.000000 0.000000" charge=0
O	-2.545421	0.055761	-0.388417	8
C	-1.109871	0.061351	-0.464647	6
C	-0.392431	1.105651	0.419013	6
C	0.671869	0.031931	0.751453	6
C	-0.382651	-1.029369	0.353153	6
C	1.865600	0.060241	-0.075017	6
C	2.849909	0.083591	-0.762357	6
H	-2.821961	-0.706739	-0.925347	1
H	-0.781861	0.099761	-1.511377	1
H	-0.977261	1.428151	1.289163	1
H	-0.038081	1.997991	-0.106187	1
H	0.924379	0.000431	1.818363	1
H	-0.020741	-1.884359	-0.226177	1
H	-0.964411	-1.410079	1.201573	1
H	3.722929	0.105681	-1.373187	1
Es	-0.093518	-0.864127	0.128833	99
Es	1.736386	0.050457	0.177785	99
Es	-1.497056	0.409615	0.186499	99
Es	-0.336207	0.479811	0.204275	99
Es	2.628741	0.011568	-0.471909	99
Es	-2.381432	-0.223424	-0.307742	99
Es	2.563324	-0.073915	-0.457393	99
Es	-0.602756	-0.344026	0.119085	99
Es	-2.546928	0.005284	-0.309954	99
Es	1.491877	0.054268	0.141671	99
Es	2.491937	0.014782	-0.368678	99
Es	0.472960	-0.008517	0.467227	99
Es	-0.574822	-0.315771	0.038162	99
Es	-1.907005	0.304886	-0.082704	99
Es	-1.796667	0.101257	-0.250758	99
Es	-0.610358	-0.216666	0.093736	99
Es	-0.591854	-0.452194	-0.015418	99
Es	-2.773768	0.106109	-0.549176	99
Es	-0.104681	-0.003334	0.234336	99
Es	-0.300327	0.177923	0.196595	99
Es	2.808597	0.347987	-0.606160	99
Es	-0.977926	-0.521349	0.184051	99
Es	1.117271	0.142709	0.224173	99
Es	-0.495497	0.585442	0.223929	99
Es	-0.085030	1.261603	0.272733	99
Es	2.169166	0.063895	-0.227253	99
