42
Properties=species:S:1:pos:R:3:Z:I:1 energy=-343.8434694901813 field_type=dipole dipole="0.000000 0.000000 0.000000" charge=0
O	-2.234703	0.077497	-0.732980	8
C	-0.828212	0.065157	-0.776160	6
C	-0.240543	1.159597	0.106260	6
C	1.161637	0.661027	0.432170	6
C	0.989258	-0.830233	0.704200	6
C	-0.190012	-1.175793	-0.168900	6
O	-0.611613	-2.312073	-0.345270	8
H	-2.523782	-0.799533	-1.051260	1
H	-0.483953	0.163327	-1.811090	1
H	-0.831363	1.281807	1.022960	1
H	-0.227572	2.128837	-0.402200	1
H	1.821157	0.810797	-0.431520	1
H	1.600988	1.185607	1.285690	1
H	1.875067	-1.401463	0.419190	1
H	0.723648	-1.014553	1.748910	1
Es	-0.241882	-1.439922	-0.231041	99
Es	1.443179	-1.156436	0.630051	99
Es	-0.570447	-2.154050	-0.374452	99
Es	1.139275	0.518852	0.472756	99
Es	0.707112	-0.110053	0.444232	99
Es	0.443826	0.943209	0.207366	99
Es	-0.452146	-1.960223	-0.228399	99
Es	1.048813	-0.470018	0.811296	99
Es	-0.333428	-0.367966	-0.239654	99
Es	-0.857706	0.250626	-0.586204	99
Es	-0.580151	-2.259309	-0.342423	99
Es	-0.223853	1.772340	-0.248537	99
Es	-0.765020	-2.449115	-0.345568	99
Es	-0.461780	0.922898	-0.060192	99
Es	-1.874009	-0.165320	-0.776719	99
Es	-2.214034	0.332736	-0.937331	99
Es	1.444766	1.012075	1.009947	99
Es	-1.923947	0.039670	-0.708661	99
Es	-0.774522	0.534006	-0.494151	99
Es	-0.555063	-0.465201	-0.508095	99
Es	-2.103356	0.049923	-0.754913	99
Es	0.457667	-0.324414	0.250951	99
Es	1.234748	0.416388	0.230899	99
Es	-2.339133	-0.218432	-0.797215	99
Es	-0.439335	-1.830125	-0.277993	99
Es	-0.242804	1.157757	0.079321	99
Es	1.057256	-0.912332	0.720595	99
