39
Properties=species:S:1:pos:R:3:Z:I:1 energy=-342.6676459664755 field_type=dipole dipole="0.000000 0.000000 0.000000" charge=0
O	-2.735644	-0.492192	0.235385	8
C	-1.515534	-0.443682	0.110405	6
C	-0.814114	0.878678	-0.107015	6
C	0.695276	0.908058	0.050065	6
C	1.337445	-0.426892	-0.019915	6
C	0.616296	-1.543882	-0.008915	6
O	-0.774395	-1.586662	0.082605	8
H	-1.249694	1.595828	0.601525	1
H	-1.082494	1.213268	-1.115795	1
H	0.960066	1.373978	1.005615	1
H	1.117425	1.550388	-0.730845	1
H	2.422385	-0.480382	-0.062805	1
H	1.022986	-2.546512	-0.040305	1
Es	-0.268515	-1.533947	0.064686	99
Es	0.953692	-1.352363	0.025088	99
Es	0.944689	1.336546	0.099291	99
Es	-2.506386	-0.534263	0.296888	99
Es	-2.927987	-0.523609	0.231546	99
Es	1.741450	-0.443947	-0.042730	99
Es	-2.799250	-0.555402	0.270106	99
Es	0.854969	1.149898	0.074665	99
Es	-2.468246	-0.556130	0.088458	99
Es	-0.735905	1.179916	0.201407	99
Es	1.478763	-0.507425	-0.020564	99
Es	-0.779567	-1.635917	0.014448	99
Es	-2.343875	-0.259027	0.231503	99
Es	1.146501	-0.999798	0.017030	99
Es	1.029799	0.248235	0.010320	99
Es	-0.729726	0.931507	-0.277698	99
Es	0.705352	0.920868	0.040398	99
Es	0.751886	-1.481913	0.008533	99
Es	-0.534681	0.985420	-0.157630	99
Es	-1.146238	-0.943706	0.091383	99
Es	-0.778610	-1.512831	0.044074	99
Es	-1.349610	-0.606433	0.079779	99
Es	0.824778	-1.826126	-0.132794	99
Es	-0.903527	-1.770030	0.216227	99
Es	-1.133976	0.205235	0.045536	99
Es	-0.983085	1.051300	-0.295709	99
