39
Properties=species:S:1:pos:R:3:Z:I:1 energy=-342.66004946095677 field_type=dipole dipole="0.000000 0.000000 0.000000" charge=0
O	-2.431285	-0.254365	-0.426264	8
C	-1.236545	-0.202975	-0.151824	6
C	-0.551445	1.068625	0.267246	6
C	0.897475	0.988315	-0.169604	6
O	1.562465	-0.169175	0.352476	8
C	0.868245	-1.334695	0.161056	6
C	-0.432665	-1.440625	-0.126794	6
H	-1.042355	1.923475	-0.207504	1
H	-0.635755	1.155635	1.355576	1
H	1.442955	1.868304	0.186226	1
H	0.982674	0.973165	-1.263834	1
H	1.515645	-2.192065	0.297736	1
H	-0.939405	-2.383615	-0.274494	1
Es	-0.738534	-0.732356	-0.071419	99
Es	-0.480090	1.021624	0.381444	99
Es	-2.318128	-0.258643	-0.421388	99
Es	-2.113612	-0.225697	-0.352669	99
Es	1.296760	0.352797	0.157726	99
Es	-0.432221	-1.376557	-0.120978	99
Es	-0.020337	-1.359304	0.075863	99
Es	1.267287	1.521914	-0.091202	99
Es	-2.635268	-0.256228	-0.430612	99
Es	0.893400	-1.010507	0.191778	99
Es	-0.083111	0.929177	0.254977	99
Es	0.128333	0.964417	-0.054195	99
Es	-0.771501	-2.048130	-0.194937	99
Es	0.365198	1.042379	0.043830	99
Es	-2.479911	-0.390846	-0.485344	99
Es	1.527498	-0.103334	0.254156	99
Es	1.418247	-0.038448	0.230978	99
Es	-0.879452	1.635656	0.025099	99
Es	0.598237	-1.226595	0.013974	99
Es	-1.977178	-0.105874	-0.277050	99
Es	0.917541	-0.867236	0.204318	99
Es	-0.899158	0.423360	0.098759	99
Es	1.125186	0.666554	-0.049321	99
Es	1.720503	-0.316371	0.184390	99
Es	1.288504	-1.897287	0.225990	99
Es	-1.227976	-0.196951	-0.149440	99
