39
Properties=species:S:1:pos:R:3:Z:I:1 energy=-342.64944504151026 field_type=dipole dipole="0.000000 0.000000 0.000000" charge=0
O	-2.642030	-0.043708	0.092456	8
C	-1.418380	0.000382	-0.001034	6
C	-0.621751	1.297101	0.023486	6
O	0.642550	1.179251	-0.618964	8
C	1.441169	0.133642	-0.069094	6
C	0.698539	-1.167189	-0.056044	6
C	-0.638000	-1.257708	-0.056514	6
H	-1.190610	2.060861	-0.514984	1
H	-0.485420	1.620071	1.061026	1
H	1.771889	0.404742	0.939466	1
H	2.329110	0.040932	-0.702214	1
H	1.294489	-2.075388	-0.046784	1
H	-1.181551	-2.192988	-0.050804	1
Es	-2.092684	-0.068421	0.255932	99
Es	0.264160	1.330210	-0.318811	99
Es	-0.626196	1.288831	0.039573	99
Es	1.350887	0.314259	-0.107816	99
Es	1.052516	-1.731064	-0.046236	99
Es	1.637161	0.198674	-0.014915	99
Es	-2.240748	-0.016073	-0.118918	99
Es	-2.595296	-0.043203	0.089759	99
Es	-0.900277	0.707238	0.199133	99
Es	-1.320919	-0.231345	-0.003210	99
Es	-0.895542	-1.705969	-0.059148	99
Es	1.167939	0.438377	-0.283730	99
Es	0.657738	1.215961	-0.658547	99
Es	1.830637	0.059138	-0.078405	99
Es	-0.596435	1.245677	0.288051	99
Es	-0.099112	-1.168288	-0.003667	99
Es	1.057329	-0.331877	-0.134973	99
Es	-1.266398	-0.267074	-0.002034	99
Es	-0.979705	1.809824	-0.274430	99
Es	-0.687876	-1.381946	-0.033663	99
Es	-2.724081	-0.352471	0.065123	99
Es	-2.785090	0.268355	0.088182	99
Es	0.677386	1.143124	-0.494747	99
Es	0.144508	-1.171203	-0.129818	99
Es	0.572089	1.207902	-0.527830	99
Es	0.653353	-1.172201	-0.070915	99
