49
Properties=species:S:1:pos:R:3:Z:I:1 energy=-273.3047931025636 field_type=dipole dipole="0.000000 0.000000 0.000000" charge=0
C	-0.400930	-2.219872	-1.284556	6
C	-0.774080	-1.427372	-0.037636	6
C	-0.238190	0.019998	-0.043586	6
C	-0.796500	0.779888	1.178434	6
C	-0.401740	2.251258	1.216454	6
C	1.274610	0.037138	-0.050656	6
C	2.012980	0.587248	-1.021916	6
H	-0.863390	-3.211462	-1.249556	1
H	0.680820	-2.362202	-1.363916	1
H	-0.752060	-1.714562	-2.189536	1
H	-0.410280	-1.963302	0.848394	1
H	-1.868770	-1.405782	0.036354	1
H	-0.615890	0.515968	-0.948286	1
H	-0.468760	0.297888	2.108474	1
H	-1.892490	0.721898	1.164524	1
H	0.675250	2.374438	1.363774	1
H	-0.907960	2.752808	2.047244	1
H	-0.686290	2.758868	0.289864	1
H	1.778790	-0.429392	0.793494	1
H	1.557570	1.065868	-1.884366	1
H	3.097310	0.570678	-0.973006	1
Es	1.757227	0.380754	-1.007801	99
Es	0.119741	-2.181649	-1.452698	99
Es	-0.390206	-2.135884	-1.183215	99
Es	-0.541934	-1.865101	-0.661060	99
Es	-0.507223	1.992590	1.364260	99
Es	2.125180	0.468562	-0.790291	99
Es	0.023056	0.210316	0.100106	99
Es	-0.909615	0.669706	1.113874	99
Es	-0.820396	1.380111	1.401084	99
Es	-0.302438	1.959247	1.081107	99
Es	-0.578667	-1.916455	-0.978844	99
Es	-0.077143	2.411728	1.017870	99
Es	-0.689968	-1.135681	-0.008749	99
Es	1.346837	0.150158	-0.252129	99
Es	-0.159520	0.069663	-0.149766	99
Es	1.791691	0.261317	-0.762881	99
Es	-0.579657	-2.656712	-1.234314	99
Es	1.917820	0.507958	-0.823999	99
Es	-1.011791	-1.477557	0.081591	99
Es	-0.740048	2.042128	1.374791	99
Es	-0.449037	1.607370	1.155337	99
Es	-0.705485	0.593940	1.233337	99
Es	0.452287	0.093512	-0.188656	99
Es	-0.555252	0.765766	0.764998	99
Es	-0.903413	-1.422156	0.195652	99
Es	1.947939	0.739650	-0.908909	99
Es	-0.662665	-1.544596	-0.656792	99
Es	0.825159	0.112688	0.047703	99
