39
Properties=species:S:1:pos:R:3:Z:I:1 energy=-342.63509698152114 field_type=dipole dipole="0.000000 0.000000 0.000000" charge=0
O	-1.991412	-1.465266	0.544133	8
C	-1.027122	-1.547836	-0.215767	6
C	0.087788	-0.495256	-0.376017	6
C	-0.357542	0.971464	-0.661347	6
C	0.733618	1.399833	0.339483	6
O	1.338938	2.429914	0.540113	8
C	0.810158	-0.024036	0.923273	6
H	-0.914552	-2.438616	-0.856067	1
H	0.817198	-0.835346	-1.126887	1
H	-1.366882	1.233914	-0.331757	1
H	-0.195012	1.315104	-1.685017	1
H	1.824028	-0.406736	1.055693	1
H	0.240788	-0.137136	1.850163	1
Es	-1.642354	-1.658891	0.130103	99
Es	-0.603948	-0.821476	-0.052885	99
Es	0.618667	-0.030568	0.605365	99
Es	0.198436	0.038516	-0.140365	99
Es	1.211741	2.318750	0.378821	99
Es	1.330981	2.113113	0.484259	99
Es	0.164955	-0.230104	-0.083662	99
Es	0.773617	0.762137	0.480505	99
Es	1.026557	-0.037680	0.999810	99
Es	1.339592	2.549787	0.506219	99
Es	-0.225077	0.628127	-0.396429	99
Es	1.162610	2.114423	0.409318	99
Es	-1.188348	-1.487879	-0.029571	99
Es	0.515820	0.295859	0.547396	99
Es	-0.539913	0.645571	-0.595499	99
Es	-1.446903	-1.637104	0.180052	99
Es	-1.153254	-1.275237	0.073750	99
Es	0.085912	0.180939	-0.070664	99
Es	0.668918	1.464062	0.127510	99
Es	-1.536119	-1.618025	0.097906	99
Es	-0.529162	-0.776063	-0.047895	99
Es	-1.822673	-1.769243	0.452688	99
Es	0.888194	1.800131	0.443224	99
Es	0.758723	1.020649	0.409947	99
Es	-0.197413	1.058267	-0.885876	99
Es	-1.619845	-1.243603	0.031456	99
