36
Properties=species:S:1:pos:R:3:Z:I:1 energy=-341.3794150892761 field_type=dipole dipole="0.000000 0.000000 0.000000" charge=0
O	-2.294478	-1.640951	-0.119330	8
C	-1.124958	-1.749261	-0.464200	6
C	-0.086618	-0.871341	0.095380	6
O	0.968342	-0.546171	-0.821500	8
C	0.082472	0.521589	-0.447100	6
C	0.719352	1.519919	0.356010	6
C	1.251552	2.358849	1.029360	6
H	-0.794238	-2.508981	-1.191750	1
H	0.176022	-1.055681	1.129190	1
H	-0.625008	0.868919	-1.191620	1
H	1.727562	3.103109	1.625560	1
Es	0.065677	-0.213390	-0.330378	99
Es	-1.031016	-2.130601	-0.735798	99
Es	0.645323	-0.484335	-0.688389	99
Es	0.932897	-0.133907	-0.695942	99
Es	-2.488970	-1.764387	0.000407	99
Es	0.831480	1.497256	0.524391	99
Es	0.869152	1.893517	0.788035	99
Es	-1.895720	-1.415057	-0.282837	99
Es	1.281762	2.574446	0.972179	99
Es	-1.854336	-1.713464	-0.109045	99
Es	-0.458547	-1.211299	-0.101778	99
Es	-0.066778	-0.090008	-0.137830	99
Es	0.084507	-0.796751	-0.271363	99
Es	-1.192822	-1.817827	-0.617522	99
Es	-2.177948	-1.678956	-0.218868	99
Es	1.069587	1.603528	0.429434	99
Es	-2.139497	-1.712025	-0.198624	99
Es	0.318775	0.731939	-0.210538	99
Es	0.392069	0.953048	-0.054659	99
Es	0.579093	-0.689494	-0.639478	99
Es	0.927848	2.196959	0.714472	99
Es	0.762217	-0.521547	-0.714155	99
Es	0.123606	-0.518367	-0.035228	99
Es	1.290324	2.520685	1.178119	99
Es	0.454931	-0.349384	-0.481096	99
