39
Properties=species:S:1:pos:R:3:Z:I:1 energy=-342.6329341404806 field_type=dipole dipole="0.000000 0.000000 0.000000" charge=0
O	-1.838951	-1.600689	-1.362213	8
C	-0.883521	-1.689519	-0.592723	6
C	0.274839	-0.701119	-0.517213	6
O	0.737289	-0.626589	0.845247	8
C	0.602529	0.730231	1.308627	6
C	0.065369	1.495981	0.161847	6
C	-0.121611	0.683931	-0.875373	6
H	-0.770821	-2.581129	0.047797	1
H	1.094929	-1.073909	-1.137643	1
H	1.585989	1.095091	1.618207	1
H	-0.079021	0.744371	2.163457	1
H	-0.149201	2.554071	0.179617	1
H	-0.517821	0.969281	-1.839633	1
Es	-0.434064	0.959771	-0.773903	99
Es	0.128508	1.350886	0.010263	99
Es	-1.626461	-1.603810	-1.204056	99
Es	0.040998	0.040569	-0.638420	99
Es	-0.676865	-1.414626	-0.829041	99
Es	-1.140214	-1.250162	-0.978245	99
Es	-0.103469	0.358189	-0.716976	99
Es	-1.631931	-1.547692	-1.293259	99
Es	0.653500	-0.178480	1.036989	99
Es	0.474651	0.973934	0.887490	99
Es	1.176019	0.977629	1.606595	99
Es	-1.897866	-1.772765	-1.503382	99
Es	-1.566164	-1.671520	-1.315802	99
Es	0.108617	1.315338	-0.176072	99
Es	-0.698941	-1.599779	-0.637239	99
Es	0.005469	-0.047196	-0.638937	99
Es	-0.611503	-2.050427	-0.242181	99
Es	0.522757	0.329905	1.010363	99
Es	0.087960	-1.079049	-0.401392	99
Es	0.569627	0.620086	1.162098	99
Es	-0.058084	2.207605	0.182920	99
Es	0.655421	-0.456795	0.848584	99
Es	0.711082	-0.029335	1.183887	99
Es	-0.078523	0.408265	-0.872505	99
Es	0.455920	-0.859407	0.263980	99
Es	0.719414	-0.662649	0.828717	99
