45
Properties=species:S:1:pos:R:3:Z:I:1 energy=-344.96606714936564 field_type=dipole dipole="0.000000 0.000000 0.000000" charge=0
O	-1.627788	1.426456	-0.756835	8
C	-1.928578	0.050456	-0.568315	6
C	-0.996418	-0.547604	0.475045	6
C	0.421742	-0.651494	-0.068895	6
C	1.293702	0.613506	-0.066445	6
C	2.270932	-0.224664	0.748625	6
O	1.296982	-1.283014	0.908885	8
H	-2.292638	1.782397	-1.371845	1
H	-1.837318	-0.463414	-1.530565	1
H	-2.965398	-0.024504	-0.225125	1
H	-1.356638	-1.550204	0.732425	1
H	-1.009908	0.056886	1.389455	1
H	0.469112	-1.213704	-1.010825	1
H	0.884722	1.471266	0.474665	1
H	1.656733	0.930196	-1.047185	1
H	3.153892	-0.577244	0.207565	1
H	2.566862	0.204676	1.709375	1
Es	-0.626843	-0.837408	0.335520	99
Es	-1.598480	1.338092	-1.091975	99
Es	1.581734	-0.948055	0.854919	99
Es	1.416353	0.113684	0.205260	99
Es	2.748328	-0.271488	0.822668	99
Es	1.687096	0.457411	0.074589	99
Es	1.393346	-0.962226	0.729131	99
Es	-1.644978	1.437127	-0.792547	99
Es	1.211498	-1.156687	0.693017	99
Es	-2.161882	-0.011039	-0.436892	99
Es	-1.232852	-0.857788	0.440489	99
Es	0.927190	-0.227139	0.111262	99
Es	-0.582241	-0.465465	0.259702	99
Es	1.438078	0.545257	-0.040500	99
Es	0.384148	-0.652529	0.045742	99
Es	1.332790	-0.800287	0.857654	99
Es	-1.679182	1.418253	-0.777090	99
Es	-1.888521	0.589486	-0.751843	99
Es	1.950562	0.099876	0.309777	99
Es	-0.863120	-0.593569	0.358348	99
Es	0.248347	-0.460961	0.028596	99
Es	2.282453	-0.172895	0.802971	99
Es	-1.761472	1.317108	-0.770580	99
Es	-2.209023	0.091845	-0.466034	99
Es	-1.189452	-0.357425	0.063674	99
Es	1.023005	0.929039	0.009585	99
Es	1.284688	-1.585995	0.878994	99
Es	-1.823187	0.521643	-0.730866	99
