42
Properties=species:S:1:pos:R:3:Z:I:1 energy=-343.7904295565835 field_type=dipole dipole="0.000000 0.000000 0.000000" charge=0
O	-0.142710	-1.134973	2.338453	8
C	-1.154460	-0.656143	1.836073	6
C	-1.354400	-0.430293	0.357663	6
C	-0.085140	-0.628043	-0.464417	6
C	0.927520	0.447577	-0.213567	6
C	1.635750	1.137537	-1.350057	6
O	0.533940	1.750147	-0.665227	8
H	-2.020730	-0.393193	2.467733	1
H	-1.748940	0.582967	0.225743	1
H	-2.123400	-1.137403	0.027923	1
H	-0.358170	-0.642593	-1.526667	1
H	0.369220	-1.601083	-0.243447	1
H	1.431330	0.365127	0.741263	1
H	1.466830	0.797807	-2.363827	1
H	2.623360	1.542567	-1.167647	1
Es	0.421927	0.618607	-0.524087	99
Es	0.230568	0.605127	-0.586637	99
Es	-0.321474	-0.288741	-0.105118	99
Es	-0.944063	0.037839	0.191994	99
Es	0.708918	0.778134	-0.491868	99
Es	-0.963224	-0.819915	1.957481	99
Es	1.019614	0.711265	-0.266404	99
Es	-0.782129	-1.037893	2.243791	99
Es	1.369524	1.217097	-1.281535	99
Es	1.068973	1.389818	-1.173681	99
Es	-0.291982	-1.085743	2.311118	99
Es	0.338885	0.883544	-0.800163	99
Es	1.951698	1.260423	-1.304315	99
Es	0.983364	1.361202	-0.922134	99
Es	0.236783	0.104845	-0.364751	99
Es	0.555681	0.248468	-0.230016	99
Es	-0.446233	-0.963795	1.605875	99
Es	-0.135282	-0.836098	0.870055	99
Es	-0.485826	-0.358092	0.015932	99
Es	-0.574029	-0.904357	1.847210	99
Es	-0.672694	-0.886379	1.754996	99
Es	-0.799453	-0.621023	1.585394	99
Es	-1.000334	-0.747123	1.747316	99
Es	-1.682659	-0.727865	0.377979	99
Es	0.944499	1.153618	-0.806187	99
Es	1.664238	1.223545	-1.372598	99
Es	-0.980632	-0.416658	0.187870	99
