42
Properties=species:S:1:pos:R:3:Z:I:1 energy=-343.80841372855036 field_type=dipole dipole="0.000000 0.000000 0.000000" charge=0
O	-0.153927	-1.832183	0.755257	8
C	-0.810397	-1.209563	-0.336823	6
C	-0.439708	0.245587	-0.351383	6
C	-1.369697	1.217536	-0.355383	6
C	1.033163	0.566297	-0.408833	6
C	1.598083	0.720037	0.985047	6
O	2.311092	1.664817	1.317807	8
H	-0.471707	-2.751283	0.782027	1
H	-1.889597	-1.356183	-0.223273	1
H	-0.488287	-1.693173	-1.264733	1
H	-2.432077	0.994036	-0.325743	1
H	-1.091328	2.267986	-0.376783	1
H	1.206283	1.499286	-0.957923	1
H	1.586723	-0.224073	-0.926123	1
H	1.411383	-0.109123	1.686857	1
Es	-0.193687	0.304318	-0.174896	99
Es	1.097536	0.807851	-0.309947	99
Es	1.424394	0.381798	0.432390	99
Es	-0.240198	-1.854178	0.451974	99
Es	-0.439688	-1.656600	0.598621	99
Es	-1.151696	1.821238	-0.410746	99
Es	0.832752	0.634415	-0.437010	99
Es	-1.593873	0.741486	-0.479512	99
Es	-1.276529	0.922460	-0.417307	99
Es	-0.871247	0.716338	-0.358986	99
Es	-1.328798	-1.272787	-0.306237	99
Es	1.845890	1.254878	1.022955	99
Es	-0.336074	-1.709308	0.328363	99
Es	2.476123	1.701453	1.336996	99
Es	1.894056	1.205575	1.072530	99
Es	1.085546	0.535119	-0.216011	99
Es	-0.624536	-1.400019	-0.445054	99
Es	-0.284568	0.259033	-0.435198	99
Es	2.381455	1.628950	1.442996	99
Es	-0.326548	-2.139461	0.781648	99
Es	-1.117839	0.856432	-0.340086	99
Es	2.158686	1.130097	1.148821	99
Es	1.435636	0.282698	0.592822	99
Es	-0.819241	-1.438220	-0.296054	99
Es	-0.225800	0.301423	-0.387221	99
Es	0.174118	-1.771427	0.828072	99
Es	1.933013	1.375591	1.308605	99
