42
Properties=species:S:1:pos:R:3:Z:I:1 energy=-343.76905331059584 field_type=dipole dipole="0.000000 0.000000 0.000000" charge=0
O	-0.501364	-1.993115	0.375594	8
C	-0.704113	-1.106555	-0.723056	6
C	-0.156304	0.297605	-0.427836	6
C	-0.704364	0.832065	0.904814	6
O	-0.450773	2.232075	1.037104	8
C	1.287696	0.297605	-0.427836	6
C	2.477857	0.297605	-0.427836	6
H	-0.755274	-2.883525	0.075874	1
H	-1.782594	-1.055965	-0.909506	1
H	-0.224103	-1.538195	-1.609206	1
H	-0.489434	0.965605	-1.232966	1
H	-0.267223	0.322915	1.770644	1
H	-1.790524	0.702455	0.948224	1
H	0.516716	2.338634	1.072384	1
H	3.543797	0.290795	-0.426396	1
Es	-0.466655	-1.460250	-0.086255	99
Es	-0.581416	-1.734253	-0.114093	99
Es	1.451358	0.394856	-0.339349	99
Es	-0.520312	0.907103	0.621100	99
Es	0.534136	0.318309	-0.193168	99
Es	-0.602434	-1.717019	-0.117429	99
Es	1.825801	0.381266	-0.493256	99
Es	-0.548133	-1.732470	-0.146860	99
Es	-1.218628	0.756886	0.825470	99
Es	-0.546833	-1.514120	-0.237920	99
Es	-0.547562	1.864654	1.165044	99
Es	2.009040	0.168719	-0.323366	99
Es	-0.228534	2.359526	0.915399	99
Es	-0.695756	-1.730560	-0.133279	99
Es	-0.205926	0.362899	-0.200412	99
Es	-0.507084	-1.742836	-0.221396	99
Es	1.294601	0.324409	-0.466058	99
Es	-0.312560	0.812962	0.293539	99
Es	-0.237707	2.184409	1.042960	99
Es	2.786756	0.406015	-0.500473	99
Es	-0.497455	2.224959	1.106210	99
Es	0.370913	0.291277	-0.243472	99
Es	-0.563002	1.194299	0.788539	99
Es	-0.928752	-1.134545	-0.124689	99
Es	2.026509	0.110327	-0.576610	99
Es	-0.469979	-0.101483	-0.133334	99
Es	-0.458076	0.399625	0.257702	99
