41
Properties=species:S:1:pos:R:3:Z:I:1 energy=-359.74981800367345 field_type=dipole dipole="0.000000 0.000000 0.000000" charge=0
C	0.811076	-0.755544	0.641461	6
C	-0.447014	-1.153924	-0.100979	6
C	-1.532324	-0.109944	-0.169749	6
N	-1.468014	1.164116	0.079241	7
O	-0.226684	1.619256	0.564481	8
C	0.838036	1.395336	-0.361719	6
O	1.580326	0.208326	-0.074349	8
H	1.450556	-1.637173	0.757541	1
H	0.598036	-0.389524	1.652891	1
H	-0.890634	-2.034034	0.378191	1
H	-0.210914	-1.427854	-1.135859	1
H	-2.505474	-0.476394	-0.541769	1
H	1.529296	2.241117	-0.293289	1
H	0.473726	1.356236	-1.396089	1
Es	0.971424	0.233620	0.093143	99
Es	0.767516	1.875186	-0.021181	99
Es	0.982943	-0.448053	0.566307	99
Es	-1.775674	-0.451353	-0.288203	99
Es	0.316399	1.565790	0.073143	99
Es	0.376746	-0.933413	0.202916	99
Es	-0.841860	-1.573164	0.115620	99
Es	1.471131	0.201162	0.045225	99
Es	-1.657666	1.185314	-0.026140	99
Es	0.252377	1.817162	0.159473	99
Es	0.100582	-0.899691	0.252509	99
Es	-0.304113	-1.162386	0.005312	99
Es	-1.396447	1.046794	0.077900	99
Es	0.069758	-1.036737	-0.036645	99
Es	1.552862	0.161564	-0.096637	99
Es	0.805598	0.704390	-0.089753	99
Es	1.131737	-1.156444	0.616530	99
Es	-1.047526	0.598590	0.097685	99
Es	-0.571996	1.453202	0.316169	99
Es	1.827695	0.138011	-0.114862	99
Es	0.184063	1.419066	0.020115	99
Es	-1.547410	0.118445	0.038923	99
Es	-0.637252	1.286350	0.436773	99
Es	1.056206	0.777914	-0.074138	99
Es	0.260577	1.453879	-0.011978	99
Es	-1.318411	-0.199872	-0.196133	99
Es	-1.496480	0.468374	-0.079006	99
