49
Properties=species:S:1:pos:R:3:Z:I:1 energy=-273.29227761609997 field_type=dipole dipole="0.000000 0.000000 0.000000" charge=0
C	-0.877637	-2.255087	-0.920390	6
C	-1.215197	-0.948467	-0.217980	6
C	0.009973	-0.093227	0.058220	6
C	0.912053	-0.619897	1.148459	6
C	0.648903	0.641973	-1.105700	6
C	-0.162047	1.414453	-0.101640	6
C	0.496673	2.406993	0.796760	6
H	-1.794207	-2.809677	-1.146801	1
H	-0.246237	-2.895627	-0.296900	1
H	-0.347817	-2.074307	-1.861550	1
H	-1.727737	-1.161847	0.726720	1
H	-1.930317	-0.399007	-0.842240	1
H	1.821823	-0.022947	1.265579	1
H	1.232233	-1.642477	0.929789	1
H	0.383353	-0.622747	2.106660	1
H	0.229023	0.511213	-2.097750	1
H	1.726923	0.764583	-1.111230	1
H	-1.136277	1.777973	-0.416220	1
H	1.561373	2.205313	0.942480	1
H	0.007303	2.412253	1.775039	1
H	0.407843	3.410563	0.368700	1
Es	-0.648242	-0.983224	-0.209860	99
Es	-1.147595	-2.620425	-0.860936	99
Es	0.193866	1.363462	-0.097012	99
Es	0.775847	-0.514961	1.311101	99
Es	0.148495	1.335133	-0.492570	99
Es	0.104273	0.119332	-0.391079	99
Es	0.384030	1.602953	0.249931	99
Es	-0.968927	-1.715235	-0.664154	99
Es	0.321235	-0.479390	0.811174	99
Es	-0.312820	-0.144683	-0.658280	99
Es	0.714467	-0.189991	0.773351	99
Es	0.117358	0.794795	0.008764	99
Es	0.864882	2.399554	0.688046	99
Es	-0.896101	-2.019463	-0.590810	99
Es	0.402032	2.058555	0.850706	99
Es	-0.813835	-2.138836	-0.952552	99
Es	0.108051	-0.157674	0.027666	99
Es	0.419838	1.705407	0.157155	99
Es	0.065175	-1.021113	0.448870	99
Es	0.029447	1.157486	-0.248184	99
Es	-0.129291	-0.256864	-0.083599	99
Es	0.321055	1.620108	0.088787	99
Es	0.518582	2.762901	0.623605	99
Es	-0.271930	-0.179873	-0.676871	99
Es	0.146443	0.019122	-0.235162	99
Es	0.895482	-0.176347	0.968935	99
Es	-1.007171	-1.243558	-0.638756	99
Es	-0.792792	-1.733827	-1.071936	99
