43
Properties=species:S:1:pos:R:3:Z:I:1 energy=-323.9167107879969 field_type=dipole dipole="0.000000 0.000000 0.000000" charge=0
C	-0.394707	1.375638	-1.701999	6
N	-1.488348	0.676727	-1.034049	7
C	-0.221207	-0.032783	-1.205429	6
C	0.628763	-0.405883	-0.016169	6
C	0.369642	0.177847	1.381941	6
C	0.407353	-1.268913	1.851411	6
O	0.436433	-1.759962	0.492351	8
H	-0.502507	1.541918	-2.765569	1
H	0.060182	2.183958	-1.143659	1
H	-2.178147	0.331687	-1.704349	1
H	-0.198527	-0.834112	-1.935229	1
H	1.683923	-0.295243	-0.309079	1
H	-0.596467	0.666337	1.532611	1
H	1.166873	0.815617	1.771841	1
H	1.308702	-1.562133	2.397931	1
H	-0.481957	-1.610703	2.387441	1
Es	0.508261	-1.208682	0.927970	99
Es	0.483763	-1.746179	0.874922	99
Es	0.504014	-1.262025	0.533260	99
Es	0.287297	-0.108785	1.131836	99
Es	-0.608394	0.153437	-0.898184	99
Es	-0.661676	0.656479	-1.332096	99
Es	0.348882	0.089066	1.039666	99
Es	-0.145976	0.199170	-0.283275	99
Es	-0.496710	0.637946	-1.325217	99
Es	-0.282956	0.095361	-0.665108	99
Es	-0.857405	1.221542	-1.568400	99
Es	0.369297	-0.854986	1.424444	99
Es	0.439961	-0.962654	1.395505	99
Es	-0.891057	1.189556	-1.370975	99
Es	0.613204	-0.648289	0.368053	99
Es	0.440346	-1.439344	0.602371	99
Es	-0.331075	0.014483	-0.788899	99
Es	-0.285186	-0.486139	-1.502883	99
Es	-0.818307	0.950528	-1.489782	99
Es	0.324088	-0.986957	1.607339	99
Es	-0.677593	1.225191	-1.442240	99
Es	0.531305	-1.552418	1.754846	99
Es	0.514182	-0.455670	0.303516	99
Es	0.657497	-1.298307	1.888181	99
Es	-0.487905	0.595940	-1.358832	99
Es	0.341610	0.155821	1.233121	99
Es	-0.840903	1.151786	-1.587514	99
