43
Properties=species:S:1:pos:R:3:Z:I:1 energy=-323.93764324102006 field_type=dipole dipole="0.000000 0.000000 0.000000" charge=0
C	-1.309026	-0.000935	0.745786	6
C	-0.673236	-1.007935	-0.237194	6
C	0.831374	-1.214515	0.016586	6
N	1.611744	0.000385	-0.329524	7
C	0.832894	1.213925	0.020406	6
C	-0.672526	1.008945	-0.234434	6
O	-0.884846	0.002525	-1.308854	8
H	-0.931256	-0.002425	1.770706	1
H	-2.403475	-0.000305	0.753916	1
H	-1.252806	-1.920575	-0.399654	1
H	1.009444	-1.482305	1.064056	1
H	1.201834	-2.044295	-0.595444	1
H	1.677964	0.001505	-1.352484	1
H	1.203094	2.045025	-0.588784	1
H	1.010404	1.478155	1.068616	1
H	-1.251586	1.922825	-0.393694	1
Es	1.468703	-0.120630	-0.348001	99
Es	-0.836370	0.383040	-0.247221	99
Es	-1.312882	0.683878	-0.144709	99
Es	0.744497	-0.909274	-0.143249	99
Es	-1.341225	0.218496	0.008751	99
Es	1.336229	-0.304845	-0.174276	99
Es	0.247611	0.673492	-0.178702	99
Es	-0.310355	0.178200	-0.300788	99
Es	-0.400307	-0.463489	-0.135094	99
Es	-0.482294	-0.145202	-0.252937	99
Es	-0.966441	-0.348767	-0.120190	99
Es	-0.292005	0.892083	-0.224644	99
Es	-0.835183	-0.200554	-0.110106	99
Es	-0.662596	-0.421969	-0.194263	99
Es	0.620145	1.143613	0.040021	99
Es	-0.565180	-0.803206	-0.091558	99
Es	-0.274939	-0.391027	-0.218835	99
Es	-0.980868	0.023832	-0.142588	99
Es	1.154629	0.015889	-0.133716	99
Es	1.075956	-1.468782	-0.290081	99
Es	1.162039	0.573367	-0.274347	99
Es	0.970884	1.122719	-0.263691	99
Es	0.256236	1.001958	-0.198127	99
Es	-0.750546	-0.267208	-0.138034	99
Es	1.209573	-0.007830	-0.314016	99
Es	-0.087472	-1.180675	-0.109060	99
Es	-0.817116	0.132051	-0.241726	99
