39
Properties=species:S:1:pos:R:3:Z:I:1 energy=-338.70879409699927 field_type=dipole dipole="0.000000 0.000000 0.000000" charge=0
C	0.582457	-0.967683	0.958408	6
C	0.825507	-0.254383	-0.334402	6
C	0.538967	1.205247	-0.484792	6
O	-0.587523	1.571327	0.326808	8
N	-1.752913	0.817407	0.022358	7
C	-1.520583	-0.444253	-0.172032	6
N	-0.330433	-1.153283	-0.181072	7
H	1.159677	-1.854773	1.178428	1
H	0.151907	-0.448783	1.804538	1
H	1.577097	-0.627533	-1.014572	1
H	1.398247	1.794667	-0.151902	1
H	0.327487	1.462697	-1.528512	1
H	-2.369893	-1.100653	-0.423262	1
Es	0.015757	-0.891557	0.314404	99
Es	0.245706	-1.032372	0.258122	99
Es	-1.227741	-0.233787	-0.135820	99
Es	-1.673638	0.548332	0.086834	99
Es	-0.162047	-1.131406	0.366109	99
Es	0.515724	1.008476	-0.339727	99
Es	0.594738	-0.725233	0.168890	99
Es	-0.193167	0.976404	-0.042248	99
Es	-0.795196	0.294147	-0.045910	99
Es	0.000895	1.366551	-0.077903	99
Es	-0.672770	0.578268	0.016293	99
Es	-0.515150	-0.839452	0.148829	99
Es	0.973033	1.298667	-0.322219	99
Es	-1.935542	0.790604	0.095146	99
Es	0.940580	-0.880045	0.117605	99
Es	-0.224339	1.650569	-0.116534	99
Es	-0.285491	1.388393	0.129801	99
Es	0.235443	-0.878948	0.164662	99
Es	-2.003564	-0.757810	-0.245044	99
Es	-1.261865	0.890908	0.035148	99
Es	-1.434878	0.248887	-0.169874	99
Es	0.899591	-0.873742	0.226778	99
Es	0.290675	1.307861	-0.546866	99
Es	-0.895862	0.927817	0.182704	99
Es	0.651437	-0.773692	0.139581	99
Es	0.374936	-0.739868	0.212828	99
