46
Properties=species:S:1:pos:R:3:Z:I:1 energy=-325.12520471582974 field_type=dipole dipole="0.000000 0.000000 0.000000" charge=0
C	-2.026965	-0.581465	0.836105	6
C	-0.535015	-0.574285	0.823065	6
C	0.215755	-1.237205	-0.297175	6
C	0.259015	0.271205	-0.153964	6
N	-0.478265	1.071775	-1.156775	7
C	1.548835	0.900165	0.352916	6
O	2.353144	1.274045	-0.764395	8
H	-2.403165	0.309385	1.348196	1
H	-2.389785	-1.461335	1.376765	1
H	-2.457495	-0.608495	-0.169835	1
H	-0.141365	-0.682045	1.828535	1
H	-0.355165	-1.673135	-1.109415	1
H	1.097685	-1.812735	-0.037205	1
H	-0.728205	0.507815	-1.966914	1
H	0.140835	1.803745	-1.517164	1
H	2.125825	0.216345	0.983965	1
H	1.328025	1.802115	0.932375	1
H	2.446315	0.474105	-1.309084	1
Es	2.191305	1.248444	-0.632624	99
Es	-0.300937	0.135469	-0.488081	99
Es	-0.121546	0.854866	-0.843078	99
Es	-0.386519	-0.816780	0.654372	99
Es	0.327656	-0.554441	0.013368	99
Es	2.433588	1.228427	-0.646025	99
Es	2.368259	1.372675	-0.881171	99
Es	0.070937	-0.189502	-0.046558	99
Es	-0.358821	-0.696034	0.373514	99
Es	-0.624541	-0.668138	0.381447	99
Es	0.504529	0.783611	-0.394423	99
Es	1.287528	0.131372	0.290529	99
Es	-0.540174	-0.337191	0.173397	99
Es	1.564766	0.811268	-0.131551	99
Es	2.029812	1.075949	-0.395227	99
Es	2.045853	0.975527	-0.406274	99
Es	-1.610912	-0.580309	0.649093	99
Es	-1.730766	-0.531337	0.566738	99
Es	1.332778	0.380359	0.038962	99
Es	-0.484181	-0.694433	0.366906	99
Es	0.084151	0.470226	-0.700689	99
Es	0.074846	0.645305	-0.643781	99
Es	-0.631490	-0.663237	0.490622	99
Es	-0.033227	1.070325	-0.931266	99
Es	-2.041022	-1.119269	1.118050	99
Es	0.862947	0.149626	0.031150	99
Es	-2.250829	-0.469644	0.575712	99
Es	-0.633640	0.813698	-0.809065	99
