46
Properties=species:S:1:pos:R:3:Z:I:1 energy=-272.1096651309781 field_type=dipole dipole="0.000000 0.000000 0.000000" charge=0
C	-2.616623	-1.988107	0.023506	6
C	-1.096993	-1.942727	0.010316	6
C	-0.579273	-0.504607	-0.005844	6
C	0.948717	-0.463577	-0.022184	6
C	1.441876	0.921314	-0.018804	6
C	1.848417	2.051574	-0.013214	6
C	2.343647	3.428273	-0.004024	6
H	-2.964703	-3.025687	0.037996	1
H	-3.031293	-1.503077	-0.865944	1
H	-3.016703	-1.483277	0.908656	1
H	-0.728783	-2.481457	-0.870444	1
H	-0.714423	-2.465937	0.894456	1
H	-0.955944	0.031773	0.874636	1
H	-0.973573	0.019343	-0.886134	1
H	1.325067	-0.983647	-0.910874	1
H	1.344387	-0.993297	0.852256	1
H	1.543477	4.131433	-0.253994	1
H	3.149086	3.557024	-0.733344	1
H	2.733636	3.694654	0.982986	1
Es	-2.243169	-1.759067	-0.052254	99
Es	2.354656	3.442074	0.046789	99
Es	1.207421	-0.894114	-0.018109	99
Es	-0.879934	-2.184193	-0.188512	99
Es	2.109902	3.687885	-0.011026	99
Es	1.408461	0.814242	-0.014217	99
Es	2.379654	3.543178	0.159568	99
Es	0.855071	-0.456306	-0.018836	99
Es	-0.713902	-0.256898	-0.403387	99
Es	1.297510	0.449101	-0.013620	99
Es	-1.004847	-1.995790	0.038422	99
Es	2.183364	2.910483	0.083322	99
Es	-2.538438	-1.989474	0.003420	99
Es	1.038150	-0.654878	-0.043079	99
Es	-2.768682	-1.782356	-0.016134	99
Es	1.951304	1.384139	0.037145	99
Es	-0.087729	-0.402889	0.012745	99
Es	-0.946912	-1.889377	0.240791	99
Es	-0.354388	-0.189855	0.396773	99
Es	-2.605320	-1.782989	0.137228	99
Es	-0.766504	-1.099653	-0.100495	99
Es	1.857153	2.034310	-0.019241	99
Es	1.416976	1.554368	0.184891	99
Es	-0.725835	-0.989925	0.000988	99
Es	-2.835204	-2.664339	0.050608	99
Es	1.478264	1.430040	-0.270634	99
Es	2.670250	3.502563	-0.299692	99
