43
Properties=species:S:1:pos:R:3:Z:I:1 energy=-323.9378669179218 field_type=dipole dipole="0.000000 0.000000 0.000000" charge=0
C	-1.553457	0.294998	0.137844	6
C	-0.025127	0.248878	0.185124	6
C	0.469783	0.307308	1.627134	6
C	0.540283	-0.946282	-0.558276	6
C	0.852123	-0.284452	-1.842516	6
N	0.834183	1.002618	-1.830186	7
O	0.484213	1.397998	-0.516446	8
H	-1.918247	0.302358	-0.895446	1
H	-1.928147	1.213778	0.603034	1
H	-1.996537	-0.562402	0.655044	1
H	1.564193	0.352208	1.664104	1
H	0.137143	-0.563202	2.201614	1
H	0.108603	1.213508	2.126424	1
H	-0.165247	-1.769752	-0.690946	1
H	1.474293	-1.331422	-0.137986	1
H	1.121943	-0.876142	-2.728526	1
Es	0.807609	0.388988	-1.722571	99
Es	-0.384552	0.284125	0.476394	99
Es	0.961900	0.259363	-1.786369	99
Es	-0.150144	0.287219	0.087509	99
Es	-0.076922	0.329873	1.360534	99
Es	0.153907	0.189688	-0.083928	99
Es	-0.041918	0.176349	0.699315	99
Es	-0.040323	0.260672	0.015064	99
Es	-0.038149	0.199228	0.117056	99
Es	-0.363200	0.546674	0.547148	99
Es	0.808797	0.665466	-1.783741	99
Es	0.723170	0.201027	-1.232372	99
Es	-0.304604	0.296947	0.525608	99
Es	0.495342	0.377018	-1.781566	99
Es	0.208370	0.252404	-0.275718	99
Es	-0.115549	0.472470	-0.275386	99
Es	0.190244	0.301702	-0.383233	99
Es	-0.314901	0.131350	1.172312	99
Es	-0.271280	0.541408	-0.118075	99
Es	0.365339	0.175375	-0.473071	99
Es	0.134073	0.193286	0.449645	99
Es	0.288852	0.191754	-0.419144	99
Es	-0.004957	0.435865	-0.159041	99
Es	0.740699	0.021000	-0.717047	99
Es	-0.239142	0.258970	0.395232	99
Es	0.537027	0.028577	-1.173209	99
Es	0.899874	-0.125369	-2.004885	99
