40
Properties=species:S:1:pos:R:3:Z:I:1 energy=-322.7852113677819 field_type=dipole dipole="0.000000 0.000000 0.000000" charge=0
C	-2.464969	-0.660366	-0.017585	6
C	-1.005019	-0.469336	-0.007145	6
C	-0.179789	0.627544	-0.001465	6
C	1.123901	0.083014	0.007835	6
C	2.419861	0.795124	0.017315	6
N	1.091681	-1.255486	0.007835	7
O	-0.248729	-1.598786	-0.001775	8
H	-2.987459	0.301244	-0.009925	1
H	-2.784279	-1.227526	0.861955	1
H	-2.774119	-1.208396	-0.912975	1
H	-0.472489	1.666513	-0.003625	1
H	2.274111	1.880264	0.004195	1
H	3.015381	0.524064	-0.860445	1
H	2.991921	0.542134	0.915805	1
Es	-0.633443	0.103385	0.081042	99
Es	1.093993	-0.984286	-0.052862	99
Es	0.328834	0.444817	-0.030437	99
Es	2.503199	0.748923	-0.029779	99
Es	-0.359632	-1.782886	-0.039723	99
Es	1.096616	-0.876665	0.002018	99
Es	0.125363	-1.503413	0.131624	99
Es	-0.361288	1.329157	-0.016436	99
Es	-0.489818	-0.000763	-0.016669	99
Es	-2.456139	-0.583127	0.084898	99
Es	-2.596999	-0.849505	-0.052748	99
Es	1.764483	0.429832	0.020108	99
Es	-0.102946	-1.465537	-0.067314	99
Es	-1.884231	-0.437989	-0.040159	99
Es	-0.030964	0.555222	-0.027500	99
Es	-2.616681	-0.996101	-0.031405	99
Es	-0.822038	-0.500438	-0.032496	99
Es	1.047193	-0.700752	0.061580	99
Es	1.119357	0.053720	0.011222	99
Es	1.353140	-1.539455	0.027136	99
Es	-2.706677	-0.402294	-0.047284	99
Es	2.681061	0.668728	0.045389	99
Es	2.319977	1.536847	0.009513	99
Es	-0.261450	-1.590041	-0.097543	99
Es	2.769058	0.598886	0.041647	99
Es	-0.554598	-1.001633	0.082153	99
