46
Properties=species:S:1:pos:R:3:Z:I:1 energy=-325.1271964843307 field_type=dipole dipole="0.000000 0.000000 0.000000" charge=0
C	-2.444499	-0.295023	-0.372707	6
C	-0.939929	-0.153873	-0.475937	6
C	-0.275309	0.907767	0.424793	6
C	0.773101	-0.183273	0.740433	6
C	2.057662	-0.188303	-0.091247	6
O	2.893651	0.896087	0.302573	8
N	-0.225469	-1.192563	0.298233	7
H	-2.790169	-1.182943	-0.912767	1
H	-2.940218	0.575747	-0.814417	1
H	-2.779948	-0.378483	0.667013	1
H	-0.607419	-0.094563	-1.520777	1
H	-0.870209	1.208767	1.295703	1
H	0.083342	1.805597	-0.085357	1
H	1.007761	-0.262633	1.809153	1
H	1.864481	-0.101423	-1.165667	1
H	2.617131	-1.113773	0.079003	1
H	2.435411	1.721967	0.072203	1
H	0.140622	-1.969073	-0.250227	1
Es	-0.556136	0.070367	0.003282	99
Es	1.448812	-0.147024	0.303807	99
Es	2.544233	1.025369	0.114051	99
Es	2.353975	0.366684	0.250755	99
Es	-2.669771	-0.016224	-0.421316	99
Es	3.106994	0.963801	0.281347	99
Es	1.415692	-0.177196	0.250504	99
Es	-0.150440	1.114669	0.357160	99
Es	-0.446639	-0.709877	-0.125968	99
Es	0.246160	-0.891900	0.315127	99
Es	1.556564	-0.242738	0.291870	99
Es	-0.516755	-0.072306	-0.025433	99
Es	-1.907872	-0.115870	-0.290813	99
Es	-0.580211	-0.888057	0.085774	99
Es	2.523685	0.304009	0.207419	99
Es	-0.461240	-0.292683	0.121901	99
Es	2.924256	0.853318	0.275157	99
Es	-2.482421	-0.851964	-0.600964	99
Es	0.628336	-0.141433	0.628526	99
Es	0.164171	0.451172	0.475924	99
Es	-0.674185	0.306955	0.177768	99
Es	-2.091810	-0.227735	-0.226625	99
Es	-0.106121	-1.417374	0.075132	99
Es	2.432224	-0.254064	0.121017	99
Es	-1.636395	-0.192732	-0.226288	99
Es	-1.771160	-0.510904	-0.292350	99
Es	2.417306	0.206595	0.150667	99
Es	-0.226367	1.204433	0.413980	99
