39
Properties=species:S:1:pos:R:3:Z:I:1 energy=-338.750601713586 field_type=dipole dipole="0.000000 0.000000 0.000000" charge=0
C	-1.744174	0.164542	0.093009	6
C	-0.268504	0.222962	0.080479	6
C	0.628886	1.263972	-0.037561	6
C	1.899746	0.649132	-0.036451	6
N	1.811285	-0.684918	0.058689	7
N	0.502226	-0.888668	0.195139	7
O	0.039226	-2.180038	0.265539	8
H	-2.177034	1.168062	0.103129	1
H	-2.104144	-0.372058	0.975419	1
H	-2.108864	-0.354888	-0.798861	1
H	0.400876	2.319652	-0.129211	1
H	2.878626	1.111102	-0.118531	1
H	0.241846	-2.418858	-0.650791	1
Es	0.184037	-1.800531	0.268577	99
Es	0.493608	-0.796040	0.202442	99
Es	2.555780	0.970714	-0.065839	99
Es	1.225451	0.981010	-0.117984	99
Es	-0.990519	0.183695	0.099727	99
Es	0.199523	0.824794	0.133958	99
Es	-0.262271	-2.239393	0.316146	99
Es	1.754890	-0.172104	0.238235	99
Es	1.858501	0.386415	-0.093683	99
Es	0.077441	-1.954367	0.144034	99
Es	0.305692	-2.350922	0.123096	99
Es	0.528035	-0.502625	0.161768	99
Es	0.478141	1.981531	-0.076724	99
Es	0.618878	1.110645	-0.040970	99
Es	-1.891574	-0.075572	0.116693	99
Es	-2.027950	0.828771	0.077636	99
Es	0.499195	-0.782432	0.175693	99
Es	0.735621	-0.700030	0.144423	99
Es	-0.270193	0.220780	0.080802	99
Es	1.804621	0.077341	-0.135513	99
Es	-2.043590	-0.283418	0.067429	99
Es	0.084484	-2.206245	0.153572	99
Es	1.827038	-0.653704	0.054700	99
Es	2.035696	-0.893282	0.045081	99
Es	-1.750751	0.160507	0.078243	99
Es	0.576829	0.972866	-0.055888	99
