40
Properties=species:S:1:pos:R:3:Z:I:1 energy=-322.8115053455172 field_type=dipole dipole="0.000000 0.000000 0.000000" charge=0
C	-1.781298	-0.418431	0.014143	6
C	-0.300788	-0.355681	0.018073	6
C	0.506022	0.762289	0.067853	6
N	0.251052	2.073119	0.116903	7
O	1.814582	0.414169	0.056593	8
C	1.865012	-0.940351	0.004423	6
C	0.594502	-1.463691	-0.021277	6
H	-2.231378	0.579389	0.023253	1
H	-2.141588	-0.959471	0.895343	1
H	-2.137868	-0.940571	-0.879787	1
H	1.022642	2.705079	-0.070267	1
H	-0.656578	2.429089	-0.157627	1
H	2.855512	-1.371611	-0.006687	1
H	0.340172	-2.513331	-0.060937	1
Es	1.333568	0.443097	0.155943	99
Es	1.886115	0.315394	0.054036	99
Es	0.570473	-1.523710	-0.025132	99
Es	0.080907	0.254670	0.081488	99
Es	-2.092020	-0.478341	-0.035678	99
Es	1.984507	-1.002801	0.000926	99
Es	2.270001	-1.198038	-0.105687	99
Es	-1.089698	-0.389439	0.045689	99
Es	-0.233057	-0.299826	0.023852	99
Es	0.272444	1.988014	0.079029	99
Es	0.701280	2.459773	0.059234	99
Es	1.286540	-1.222149	0.060582	99
Es	0.031575	-0.095783	0.013417	99
Es	-1.916962	-0.451513	0.039835	99
Es	0.446440	-2.114074	-0.056025	99
Es	-1.971497	-0.167944	-0.015203	99
Es	-1.855525	-0.592118	-0.000906	99
Es	0.344182	1.515029	0.173572	99
Es	-0.235096	2.244253	0.011845	99
Es	1.764801	0.206787	0.057724	99
Es	0.116333	-0.951203	-0.023699	99
Es	2.025762	0.540095	-0.004291	99
Es	1.687712	0.371572	0.027595	99
Es	0.500939	0.761142	0.067451	99
Es	1.310750	-1.204332	0.049033	99
Es	0.197774	2.091449	0.095460	99
