43
Properties=species:S:1:pos:R:3:Z:I:1 energy=-323.94466886056654 field_type=dipole dipole="0.000000 0.000000 0.000000" charge=0
C	-2.230843	-0.603204	0.441898	6
C	-0.766393	-0.755604	0.211908	6
C	-0.188363	-0.581774	-1.171012	6
N	0.013737	0.430826	-0.133142	7
C	1.359077	0.414316	0.455458	6
C	2.107367	1.616216	-0.069992	6
O	3.281327	1.578996	-0.435132	8
H	-2.418093	-0.261254	1.464648	1
H	-2.734003	-1.565974	0.308158	1
H	-2.687303	0.116506	-0.246122	1
H	-0.322703	-1.495954	0.867748	1
H	-0.851593	-0.299114	-1.980732	1
H	0.644357	-1.208784	-1.466842	1
H	1.937397	-0.489164	0.232278	1
H	1.289017	0.525536	1.542628	1
H	1.567017	2.578436	-0.021752	1
Es	-0.639054	-0.668630	-0.752308	99
Es	0.052270	-0.303348	-0.889602	99
Es	-2.271816	-0.440438	0.920588	99
Es	1.291328	0.370632	0.147055	99
Es	3.391977	1.838477	-0.567198	99
Es	-0.295590	-0.486410	-1.102573	99
Es	0.140674	-0.263740	-0.775947	99
Es	-1.282302	-0.751782	0.387347	99
Es	0.114586	0.170299	-0.358961	99
Es	1.609444	1.437393	0.259254	99
Es	1.370377	0.472305	0.611863	99
Es	-2.351232	-0.643121	0.372958	99
Es	-0.564486	-0.684281	-0.181492	99
Es	-0.162360	-0.074151	-0.149141	99
Es	3.152613	1.561338	-0.405073	99
Es	2.894530	1.564454	-0.473636	99
Es	1.878529	1.433693	0.044579	99
Es	-2.140930	-0.740102	0.210437	99
Es	-2.143493	-0.709036	0.300862	99
Es	0.559675	0.431412	0.095171	99
Es	0.570331	0.243625	0.080434	99
Es	1.128209	0.600589	0.312519	99
Es	2.883834	1.547543	-0.104471	99
Es	-1.265371	-0.719630	0.015804	99
Es	3.311947	1.384894	-0.388284	99
Es	-0.725020	-0.623463	-0.026793	99
Es	2.026078	1.292532	0.044322	99
