46
Properties=species:S:1:pos:R:3:Z:I:1 energy=-325.1273731729133 field_type=dipole dipole="0.000000 0.000000 0.000000" charge=0
C	-1.929977	-0.228003	0.829962	6
C	-0.438947	-0.222753	0.824112	6
C	0.373173	-0.895103	-0.254208	6
N	-0.256517	-1.584383	-1.374608	7
C	0.312473	0.610817	-0.187708	6
C	1.517973	1.388767	0.216782	6
O	2.306803	1.653607	-0.933538	8
H	-2.301777	0.547297	1.507142	1
H	-2.301357	-1.194153	1.184612	1
H	-2.356367	-0.037573	-0.159498	1
H	-0.047847	-0.279963	1.835142	1
H	1.295974	-1.368873	0.078742	1
H	-1.043387	-1.057603	-1.751798	1
H	-0.637557	-2.482513	-1.077868	1
H	-0.263947	1.143207	-0.936258	1
H	2.135313	0.853877	0.945582	1
H	1.222163	2.345896	0.655952	1
H	2.413803	0.807457	-1.402548	1
Es	0.133034	-1.111323	-0.664551	99
Es	-0.052075	-0.828457	-0.384149	99
Es	-0.403299	-0.062689	0.525448	99
Es	1.911793	1.541777	-0.307867	99
Es	-2.118378	0.064976	1.262518	99
Es	0.388195	0.507233	0.065310	99
Es	-0.085105	-1.344766	-1.283398	99
Es	0.160411	-0.356458	-0.531321	99
Es	-1.096563	-0.140176	0.893010	99
Es	2.257422	1.538601	-0.721387	99
Es	-1.318026	-0.238496	0.808473	99
Es	1.414249	1.601480	0.330294	99
Es	2.343106	1.311458	-1.016059	99
Es	0.621986	0.707379	0.062973	99
Es	-0.336626	-0.983165	-0.681331	99
Es	0.101852	-0.146070	-0.023054	99
Es	-0.225935	-0.029939	0.454377	99
Es	0.182077	-0.356771	-0.389120	99
Es	1.743063	1.418703	0.194210	99
Es	-0.503473	-1.849260	-1.273689	99
Es	1.731550	1.534929	0.112321	99
Es	-1.880471	-0.428036	0.845784	99
Es	2.207255	1.586670	-0.706276	99
Es	-1.980381	-0.494204	0.669425	99
Es	0.004115	-0.516306	-0.435315	99
Es	-0.467578	-0.058337	0.688963	99
Es	-0.142395	-1.807980	-1.462342	99
Es	2.506939	1.766634	-1.014345	99
