46
Properties=species:S:1:pos:R:3:Z:I:1 energy=-325.12645568145365 field_type=dipole dipole="0.000000 0.000000 0.000000" charge=0
C	-1.825250	0.243660	0.050164	6
C	-0.314750	0.180540	-0.152216	6
C	0.065060	0.254260	-1.630476	6
N	0.394980	1.231180	0.627404	7
C	1.379380	0.231690	1.092414	6
C	0.403770	-0.900760	0.714784	6
O	0.947730	-2.060600	0.047404	8
H	-2.097280	0.243890	1.112044	1
H	-2.312070	-0.621670	-0.413276	1
H	-2.248560	1.147840	-0.401376	1
H	1.150500	0.268630	-1.779796	1
H	-0.343060	1.157660	-2.097306	1
H	-0.331440	-0.610400	-2.173846	1
H	-0.158690	1.627150	1.388314	1
H	2.313380	0.241780	0.519554	1
H	1.626970	0.300980	2.156154	1
H	-0.192820	-1.226580	1.577204	1
H	1.542150	-1.709250	-0.637146	1
Es	-0.440634	0.524108	0.066718	99
Es	0.935738	-1.572598	0.076012	99
Es	-1.034919	0.622640	-0.208680	99
Es	-1.184026	0.441516	-0.725693	99
Es	0.333090	0.036842	0.558936	99
Es	0.926202	-1.067230	-0.020461	99
Es	0.855458	-1.396414	-0.049523	99
Es	-0.756814	-0.089635	-1.174141	99
Es	1.084460	0.031688	1.160305	99
Es	0.779544	0.265496	0.789133	99
Es	0.679317	-0.741120	-0.038893	99
Es	0.544145	0.610601	0.760502	99
Es	1.204984	-0.751487	0.630884	99
Es	0.652251	-0.498174	0.305821	99
Es	0.261324	-0.209244	0.164641	99
Es	-0.585523	0.389772	-0.231702	99
Es	-0.783184	0.431429	-0.114626	99
Es	-0.789023	0.332548	-0.430218	99
Es	0.047480	0.350709	0.092481	99
Es	0.173829	0.316353	0.447878	99
Es	0.481690	-0.713370	0.026842	99
Es	0.655491	-0.152788	0.436435	99
Es	0.386149	-0.383666	-0.133590	99
Es	-0.744462	0.155250	-0.399677	99
Es	0.396088	0.601622	0.769589	99
Es	-0.469301	0.354625	0.032468	99
Es	0.908149	-1.644896	-0.039356	99
Es	-0.695575	0.177370	-0.551344	99
