39
Properties=species:S:1:pos:R:3:Z:I:1 energy=-338.86183507797693 field_type=dipole dipole="0.000000 0.000000 0.000000" charge=0
C	-1.968951	-0.219748	0.478218	6
C	-0.677111	-0.106758	0.165878	6
C	0.159109	1.147302	0.092298	6
N	1.437439	0.616592	-0.307802	7
C	1.408639	-0.760618	-0.448532	6
O	2.343719	-1.469198	-0.770692	8
N	0.121169	-1.167938	-0.155512	7
H	-2.468731	-1.182688	0.495958	1
H	-2.562881	0.654852	0.723448	1
H	0.269109	1.637842	1.062868	1
H	-0.190661	1.845252	-0.672352	1
H	2.282849	1.142912	-0.471382	1
H	-0.153701	-2.137808	-0.192402	1
Es	-1.550589	-0.167813	0.320368	99
Es	0.908906	0.853945	-0.168740	99
Es	1.920568	0.913006	-0.342907	99
Es	2.296026	-1.443582	-0.721730	99
Es	2.136715	-1.454873	-0.809032	99
Es	1.993616	-1.124409	-0.575907	99
Es	-2.342061	0.388296	0.611774	99
Es	-0.049041	0.927874	0.180424	99
Es	0.152498	-1.095460	-0.165791	99
Es	-0.253491	-0.716295	-0.028047	99
Es	0.743621	-0.988761	-0.306320	99
Es	1.445852	0.604159	-0.342398	99
Es	-0.030643	-1.725852	-0.123949	99
Es	0.007563	-1.006106	-0.137721	99
Es	-2.293093	-0.879073	0.491750	99
Es	-0.074972	1.072833	0.221949	99
Es	-0.560599	-0.259970	0.119711	99
Es	-1.486413	-0.187970	0.321894	99
Es	2.260912	-1.366032	-0.760636	99
Es	1.461742	0.408061	-0.135260	99
Es	2.580982	-1.621654	-0.824939	99
Es	0.086928	1.457372	0.092603	99
Es	1.332198	-0.720023	-0.440566	99
Es	-1.688882	-0.206215	0.536747	99
Es	1.395162	0.092014	-0.537228	99
Es	0.038578	1.322063	0.060152	99
