49
Properties=species:S:1:pos:R:3:Z:I:1 energy=-273.3240543007222 field_type=dipole dipole="0.000000 0.000000 0.000000" charge=0
C	-0.731187	-2.050539	-1.595163	6
C	-0.408267	-1.660809	-0.160333	6
C	0.303633	-0.311809	-0.059583	6
C	-0.535587	0.879911	-0.514113	6
C	0.208143	2.075471	0.065487	6
C	0.837043	1.578121	1.365617	6
C	0.648213	0.062061	1.382097	6
H	-1.182627	-3.047489	-1.621643	1
H	0.174463	-2.072249	-2.209283	1
H	-1.439947	-1.351259	-2.048543	1
H	0.229043	-2.437119	0.280407	1
H	-1.337197	-1.646009	0.422867	1
H	1.230423	-0.344859	-0.648603	1
H	-1.548317	0.828571	-0.095533	1
H	-0.619737	0.946721	-1.603133	1
H	0.997343	2.395651	-0.625173	1
H	-0.454807	2.930551	0.228017	1
H	1.900013	1.842011	1.398247	1
H	0.360223	2.034761	2.239587	1
H	1.544053	-0.456139	1.738737	1
H	-0.174917	-0.195549	2.060046	1
Es	0.147634	2.285379	0.024523	99
Es	-0.495728	0.819561	-0.491825	99
Es	0.257180	1.972736	0.513377	99
Es	-0.513142	-1.808814	-0.567689	99
Es	0.900993	-0.275204	1.700494	99
Es	0.749603	0.196579	1.323494	99
Es	-0.209833	-1.224253	-0.121656	99
Es	1.082250	1.867921	1.695360	99
Es	-0.186112	0.241770	0.067549	99
Es	-0.846710	-2.526685	-1.646333	99
Es	-1.144318	-1.609255	-1.858132	99
Es	0.635535	1.679747	0.975388	99
Es	0.187342	-0.543679	0.046273	99
Es	0.298702	0.257521	0.271206	99
Es	-0.533109	-1.868820	-0.824977	99
Es	0.847556	1.616670	1.597853	99
Es	-0.059935	-0.920654	-0.226735	99
Es	0.489862	2.359264	-0.191402	99
Es	0.194093	0.509432	0.100398	99
Es	-0.645978	0.814266	-0.657280	99
Es	-0.559759	0.877461	-0.879576	99
Es	-0.065468	0.060587	-0.244109	99
Es	-0.089528	-2.133751	0.164163	99
Es	-0.492540	-1.903196	-1.247667	99
Es	0.680332	0.744411	1.369133	99
Es	-0.635828	-2.159164	-1.639395	99
Es	0.304397	2.017088	0.404930	99
Es	0.503020	0.085447	1.551883	99
