38
Properties=species:S:1:pos:R:3:Z:I:1 energy=-358.69455610767653 field_type=dipole dipole="0.000000 0.000000 0.000000" charge=0
C	-1.814144	-0.092142	0.285140	6
C	-0.499224	-0.003852	0.085210	6
C	0.384506	1.196318	0.141750	6
O	1.696186	0.684528	-0.173960	8
C	1.598696	-0.664562	-0.382590	6
O	2.531096	-1.395852	-0.666000	8
N	0.298726	-1.051342	-0.224360	7
H	-2.341894	-1.037452	0.211050	1
H	-2.402464	0.787277	0.528770	1
H	0.417126	1.641538	1.140060	1
H	0.114686	1.947577	-0.605500	1
H	0.016706	-2.012033	-0.339570	1
Es	-1.899677	0.029871	0.324308	99
Es	-2.133203	0.379933	0.421384	99
Es	-2.143745	-0.722229	0.251659	99
Es	2.344037	-1.340039	-0.524846	99
Es	-0.851221	-0.017365	0.118064	99
Es	0.139769	-1.589293	-0.326618	99
Es	0.163094	-0.874000	-0.142152	99
Es	-1.127281	-0.053403	0.154254	99
Es	1.226331	0.905367	-0.064413	99
Es	0.060751	-0.788025	-0.172122	99
Es	0.370050	1.256809	0.140453	99
Es	2.782857	-1.512645	-0.757938	99
Es	1.006977	-0.683438	-0.264398	99
Es	1.846416	0.733505	-0.191385	99
Es	2.490203	-1.352879	-0.650054	99
Es	1.803631	0.722634	-0.154644	99
Es	2.111588	-1.170498	-0.678500	99
Es	-0.089984	0.602308	0.120196	99
Es	1.516408	0.062023	-0.190069	99
Es	1.617573	0.522825	-0.271250	99
Es	0.298291	1.636622	0.230146	99
Es	0.353516	-0.969028	-0.203960	99
Es	-0.925451	-0.030798	0.180850	99
Es	1.699817	-0.785450	-0.459884	99
Es	2.354045	-1.122707	-0.503005	99
Es	0.303200	1.468509	0.223821	99
