38
Properties=species:S:1:pos:R:3:Z:I:1 energy=-358.57416307529076 field_type=dipole dipole="0.000000 0.000000 0.000000" charge=0
C	-1.920621	-0.166057	0.175408	6
C	-0.597511	-0.120157	-0.020852	6
C	0.207359	1.135493	-0.112532	6
O	1.384319	0.957602	0.674088	8
N	2.163669	-0.138147	0.237218	7
C	1.477689	-1.185437	-0.088842	6
O	0.122079	-1.321647	-0.142302	8
H	-2.513241	0.736602	0.280358	1
H	-2.439241	-1.117607	0.238768	1
H	-0.335531	1.999013	0.284278	1
H	0.490109	1.351423	-1.149092	1
H	1.960919	-2.131078	-0.376502	1
Es	1.755721	-0.607145	0.017159	99
Es	-1.250523	-0.159380	0.000045	99
Es	0.168844	-1.289734	-0.142666	99
Es	0.597890	1.106896	-0.093418	99
Es	1.789194	-0.059233	0.259354	99
Es	0.039755	0.999835	-0.038417	99
Es	2.163025	-0.144579	0.250300	99
Es	0.064486	-1.157786	-0.081130	99
Es	1.747625	-1.689892	-0.248161	99
Es	1.713032	-0.293055	0.327453	99
Es	-0.134897	1.635651	0.087346	99
Es	1.401116	1.040630	0.634904	99
Es	-2.174042	-0.773293	0.154557	99
Es	2.450364	-0.083623	0.305616	99
Es	0.871163	1.025770	0.172274	99
Es	-1.936982	-0.163276	0.177167	99
Es	1.559701	1.120667	0.644997	99
Es	-0.192983	0.639233	0.005133	99
Es	-0.053961	-0.951042	-0.216452	99
Es	-2.254679	0.408558	0.152653	99
Es	-1.224511	-0.039452	0.134985	99
Es	1.613972	-1.069182	-0.067700	99
Es	1.178833	0.976170	0.406358	99
Es	-0.019454	-1.582751	-0.204224	99
Es	-0.593124	-0.148977	-0.004231	99
Es	0.648846	-1.223012	-0.036295	99
