43
Properties=species:S:1:pos:R:3:Z:I:1 energy=-323.9637354834463 field_type=dipole dipole="0.000000 0.000000 0.000000" charge=0
C	-2.088337	-0.888400	-0.002485	6
C	-0.668307	-0.558470	0.306305	6
N	0.400143	-1.411990	-0.192125	7
C	0.257883	-0.064080	-0.779535	6
C	1.428763	0.824330	-0.545145	6
C	1.580183	1.454270	0.809865	6
O	2.206303	1.054290	-1.466485	8
H	-2.711597	0.003110	0.113905	1
H	-2.456937	-1.653090	0.687965	1
H	-2.216627	-1.260410	-1.023875	1
H	-0.548727	-0.202370	1.322175	1
H	0.062263	-2.112550	-0.854485	1
H	-0.122617	-0.033860	-1.795335	1
H	0.674883	2.010180	1.065045	1
H	2.421813	2.152910	0.793905	1
H	1.780913	0.686130	1.560305	1
Es	2.052369	0.928755	-1.169081	99
Es	-1.089126	-0.968669	-0.108390	99
Es	0.160050	-0.777511	-0.590789	99
Es	0.417659	-0.854283	-0.382570	99
Es	0.826828	0.090185	-0.583790	99
Es	-0.293836	-0.933034	-0.131397	99
Es	-2.024885	-1.246516	0.272425	99
Es	2.432719	1.199120	-1.334932	99
Es	1.142788	1.530333	1.042582	99
Es	-0.538997	-0.242385	0.712490	99
Es	1.344283	0.886594	0.020583	99
Es	-0.335644	-0.944776	-0.195094	99
Es	1.827155	1.621638	0.306244	99
Es	0.962659	0.271275	-0.345572	99
Es	1.991807	1.473495	0.181837	99
Es	-1.570754	-0.894468	-0.144969	99
Es	0.153096	-0.747778	-0.599328	99
Es	0.537260	-0.474864	-0.667088	99
Es	1.622798	1.227279	0.238815	99
Es	-1.930918	-0.944336	-0.252821	99
Es	-0.449324	-0.499229	0.079343	99
Es	2.053021	0.959917	-1.707544	99
Es	1.526402	1.275441	0.689065	99
Es	2.127987	0.929694	-1.312926	99
Es	0.999781	0.189952	-0.649872	99
Es	-2.298432	-0.792924	0.217056	99
Es	-1.047177	-0.848511	-0.014049	99
