43
Properties=species:S:1:pos:R:3:Z:I:1 energy=-323.94039024089403 field_type=dipole dipole="0.000000 0.000000 0.000000" charge=0
C	-1.332564	0.454949	1.195875	6
C	0.145116	0.252249	0.883065	6
N	0.442286	-1.130661	0.451755	7
C	0.458026	-1.170131	-1.021015	6
C	0.846336	0.212119	-1.415515	6
O	-0.201204	1.188069	-1.422205	8
C	0.626206	1.099789	-0.253565	6
H	-1.528884	1.499899	1.458875	1
H	-1.642004	-0.171871	2.039005	1
H	-1.971804	0.206329	0.341255	1
H	0.733446	0.466909	1.781815	1
H	-0.255854	-1.779041	0.809125	1
H	1.180436	-1.912921	-1.370355	1
H	-0.532804	-1.424171	-1.413305	1
H	1.709956	0.322619	-2.048555	1
H	1.323316	1.885859	-0.016255	1
Es	-0.556460	0.165599	1.365355	99
Es	-0.369054	0.215837	0.842011	99
Es	1.020551	0.399696	-1.467393	99
Es	0.217770	1.064109	-1.185002	99
Es	0.146202	1.041190	-0.726648	99
Es	0.316998	1.141334	-1.218266	99
Es	0.594977	-0.246114	-1.004068	99
Es	0.130839	1.027915	-1.153301	99
Es	-1.261782	0.445906	1.197734	99
Es	-0.093898	-0.251223	0.557291	99
Es	0.518132	-0.714545	-1.077837	99
Es	0.366289	-1.127650	0.146590	99
Es	0.433807	-0.881297	-0.773321	99
Es	-0.839478	0.171873	1.510988	99
Es	0.235971	0.050991	-0.341331	99
Es	0.524975	-1.221623	-0.811139	99
Es	0.602299	0.002320	-0.902180	99
Es	0.049109	0.560516	0.143085	99
Es	-0.121667	0.783235	0.109351	99
Es	-1.451795	1.141985	1.396877	99
Es	0.702087	-0.423940	-1.260442	99
Es	0.601382	-0.026827	-0.997932	99
Es	0.534544	-1.106243	0.277745	99
Es	0.076017	-1.238964	0.727247	99
Es	0.139417	1.196734	-1.159197	99
Es	0.108995	1.131114	-0.087902	99
Es	-0.195824	-0.339038	0.663789	99
