39
Properties=species:S:1:pos:R:3:Z:I:1 energy=-338.7747372370209 field_type=dipole dipole="0.000000 0.000000 0.000000" charge=0
C	-2.189997	0.276330	-0.004927	6
C	-0.694147	0.313370	-0.012277	6
N	-0.057337	1.439500	-0.043377	7
N	1.338103	1.472140	-0.051287	7
C	1.956323	0.340170	-0.017477	6
C	1.257853	-0.981430	0.030643	6
O	-0.153007	-0.925260	0.021653	8
H	-2.556987	-0.753780	-0.021467	1
H	-2.570707	0.799590	-0.885987	1
H	-2.559567	0.768650	0.899023	1
H	3.056913	0.329050	-0.021667	1
H	1.590403	-1.573130	-0.828037	1
H	1.582153	-1.505200	0.935183	1
Es	1.959234	0.338600	-0.017098	99
Es	-0.362866	0.209480	-0.057295	99
Es	-2.386810	-0.408855	-0.005578	99
Es	-1.433044	0.283770	0.005182	99
Es	-2.342797	0.507662	0.007710	99
Es	-0.216746	-0.971980	0.145520	99
Es	-2.187020	0.274594	-0.002888	99
Es	-2.492155	0.714492	-0.032279	99
Es	-0.252453	1.738762	-0.022185	99
Es	1.441488	-1.324009	0.075399	99
Es	1.429409	-1.232539	0.052345	99
Es	2.624934	0.309863	-0.011205	99
Es	-0.287567	0.997644	-0.184860	99
Es	1.629860	1.021433	-0.022890	99
Es	1.310507	1.439171	0.017806	99
Es	-0.116752	1.270437	0.011093	99
Es	-0.174773	-0.931673	-0.059576	99
Es	1.225748	1.340511	0.010825	99
Es	1.049580	1.349148	-0.060486	99
Es	-0.508414	0.014455	0.001821	99
Es	-0.271042	0.827896	0.088287	99
Es	1.455484	1.429229	-0.194294	99
Es	1.595069	-0.314395	0.011371	99
Es	0.248833	-1.090060	-0.012460	99
Es	-0.141866	-0.888934	0.036293	99
Es	1.315659	-1.128253	-0.012467	99
