41
Properties=species:S:1:pos:R:3:Z:I:1 energy=-359.77003211635446 field_type=dipole dipole="0.000000 0.000000 0.000000" charge=0
C	-1.492610	0.141516	-0.299919	6
C	0.027360	0.113396	-0.332519	6
O	0.473760	0.302946	-1.662979	8
C	0.625320	-1.118464	0.323661	6
O	0.913750	-0.735734	1.675671	8
N	1.070800	0.672266	1.710211	7
C	0.575080	1.131026	0.613021	6
H	-1.885140	0.033066	0.717121	1
H	-1.908190	-0.659134	-0.921189	1
H	-1.870410	1.086396	-0.706949	1
H	1.445990	0.237716	-1.671378	1
H	1.560150	-1.436354	-0.151229	1
H	-0.059770	-1.971624	0.333021	1
H	0.523910	2.202986	0.373451	1
Es	0.796462	-0.219597	1.123621	99
Es	0.664434	-0.060534	1.042123	99
Es	0.809209	0.334834	1.279977	99
Es	0.865900	0.201578	1.415052	99
Es	1.004618	-0.153765	1.350952	99
Es	0.371023	-0.072753	0.584359	99
Es	0.704932	-0.304745	0.769894	99
Es	1.085195	-0.007407	1.565235	99
Es	0.115897	0.218502	-0.083528	99
Es	-0.295586	0.149925	-1.005361	99
Es	0.045852	0.328835	-0.156981	99
Es	-0.244179	0.119978	-0.338245	99
Es	0.672694	-0.169590	1.036342	99
Es	0.149063	-0.412389	0.260460	99
Es	0.176467	0.267654	-0.694048	99
Es	0.103721	-0.049575	0.095291	99
Es	-0.200696	0.438956	-0.185003	99
Es	0.517649	0.076297	0.902315	99
Es	0.463427	-0.323457	0.609951	99
Es	-0.277049	0.254022	-0.922947	99
Es	0.893205	-0.236554	1.212347	99
Es	-0.195959	0.372766	-0.818319	99
Es	-0.279711	0.169294	-0.848778	99
Es	-0.514252	-0.025303	-1.026694	99
Es	-0.339382	0.161932	-1.043981	99
Es	0.627939	-0.070205	0.681660	99
Es	-0.243326	0.186434	-0.629959	99
