38
Properties=species:S:1:pos:R:3:Z:I:1 energy=-358.607847576585 field_type=dipole dipole="0.000000 0.000000 0.000000" charge=0
C	-1.757904	-0.613068	-0.000609	6
C	-0.297744	-0.430808	-0.001539	6
C	0.540746	0.650022	0.002391	6
O	0.140516	1.930732	0.008831	8
C	1.834936	0.109132	-0.001809	6
N	1.806886	-1.226638	-0.008029	7
O	0.458406	-1.566898	-0.007899	8
H	-2.277724	0.349672	0.011771	1
H	-2.072844	-1.179998	0.880711	1
H	-2.076374	-1.159248	-0.893689	1
H	0.908786	2.528252	0.010591	1
H	2.792316	0.608852	-0.000719	1
Es	2.341409	0.311504	-0.077621	99
Es	0.190192	1.827721	-0.004506	99
Es	0.529923	0.624847	0.009596	99
Es	1.811926	-1.179003	-0.046454	99
Es	-1.105934	-0.557914	0.005126	99
Es	0.574093	-1.152918	-0.017479	99
Es	0.077620	0.122198	-0.091034	99
Es	-1.978964	0.036129	0.007666	99
Es	1.909038	0.084552	0.030993	99
Es	0.220346	1.785681	-0.044645	99
Es	-0.027500	1.704691	0.046023	99
Es	0.118255	1.930827	0.051475	99
Es	-1.757898	-0.620024	0.005139	99
Es	0.344131	-1.729900	-0.109292	99
Es	0.328450	0.107032	0.077548	99
Es	-0.285718	-0.418873	-0.008396	99
Es	-2.041498	-1.045236	-0.016316	99
Es	1.813410	-0.640063	0.039568	99
Es	0.556289	-1.388822	-0.011072	99
Es	0.518651	-1.476741	-0.079449	99
Es	2.068249	-1.490397	-0.004488	99
Es	1.218968	0.457955	0.022418	99
Es	0.543993	2.262997	-0.003208	99
Es	0.484720	-1.637555	0.174101	99
Es	-1.891284	-0.872287	-0.003385	99
Es	1.811205	-0.500043	0.021327	99
