45
Properties=species:S:1:pos:R:3:Z:I:1 energy=-288.10608638040776 field_type=dipole dipole="0.000000 0.000000 0.000000" charge=0
C	-1.329823	-0.000656	0.837092	6
C	-0.723273	-1.024636	-0.150248	6
C	0.773127	-1.269526	0.076092	6
C	1.575377	-0.000186	-0.227218	6
C	0.773977	1.268814	0.079642	6
C	-0.722653	1.025494	-0.147258	6
N	-0.959193	0.001774	-1.224988	7
H	-0.943743	-0.002146	1.859782	1
H	-2.426363	-0.000496	0.873562	1
H	-1.297963	-1.949396	-0.261308	1
H	0.941917	-1.582826	1.113112	1
H	1.128077	-2.085056	-0.564418	1
H	1.820597	0.001284	-1.298288	1
H	2.534457	-0.001166	0.302012	1
H	1.129427	2.086024	-0.558498	1
H	0.942747	1.579014	1.117532	1
H	-1.296763	1.950954	-0.256068	1
H	-1.919933	0.002734	-1.570528	1
Es	1.531737	0.659837	-0.317108	99
Es	0.813210	-0.555750	-0.083045	99
Es	1.075343	1.011941	0.062067	99
Es	0.241729	-0.516631	-0.213700	99
Es	-0.503255	0.226979	-0.145012	99
Es	0.050125	-0.115984	-0.176212	99
Es	-0.954132	-0.463574	-0.290045	99
Es	-0.554021	0.382712	-0.084543	99
Es	0.100306	0.469480	-0.000957	99
Es	-1.103162	0.164744	-0.095197	99
Es	-0.593079	-0.546768	-0.169511	99
Es	-1.369322	0.446261	0.046796	99
Es	-1.059001	0.263245	-0.087013	99
Es	-1.011406	0.236479	-0.073170	99
Es	1.101865	1.028454	-0.203118	99
Es	0.887059	-0.873883	-0.095756	99
Es	-0.879162	0.197822	-0.121270	99
Es	0.147766	-0.935195	0.005692	99
Es	0.749546	0.889783	-0.163263	99
Es	-0.305719	1.028845	-0.000199	99
Es	-0.882008	0.091415	-0.145613	99
Es	1.679873	-0.198484	-0.032712	99
Es	0.845830	-1.551411	0.121221	99
Es	0.990048	-0.483245	-0.135867	99
Es	-1.037462	0.186947	0.052384	99
Es	-0.794556	0.482296	-0.069442	99
Es	-1.108548	-1.522643	-0.207123	99
