39
Properties=species:S:1:pos:R:3:Z:I:1 energy=-338.7311309461088 field_type=dipole dipole="0.000000 0.000000 0.000000" charge=0
C	-1.371590	-1.138441	-0.146697	6
C	0.142600	-0.997681	-0.146277	6
C	0.579000	0.419838	-0.155727	6
N	0.766420	1.084439	-1.299757	7
O	1.165310	2.362009	-0.912307	8
N	1.220550	2.470768	0.476953	7
C	0.858010	1.269499	0.921043	6
H	-1.654950	-2.195632	-0.135987	1
H	-1.812530	-0.676971	-1.037277	1
H	-1.813930	-0.658611	0.733263	1
H	0.554590	-1.520391	-1.018627	1
H	0.550190	-1.499671	0.738663	1
H	0.816330	1.080849	1.982733	1
Es	0.551165	0.937862	0.430945	99
Es	0.681218	0.908067	-1.111716	99
Es	-1.556997	-1.861385	-0.151812	99
Es	1.338111	2.181689	0.591562	99
Es	0.802270	1.398725	-1.265164	99
Es	0.921010	1.480570	-0.865574	99
Es	-0.427034	-1.027099	-0.056056	99
Es	0.758006	0.910456	-0.042338	99
Es	1.057983	2.056417	-0.673662	99
Es	0.820397	1.339522	-1.026199	99
Es	-0.820909	-1.048816	-0.445013	99
Es	1.182731	2.284894	0.315566	99
Es	0.216614	-0.366194	-0.144949	99
Es	0.839459	1.480575	-0.072875	99
Es	1.280362	2.368247	-0.744718	99
Es	-0.443602	-0.959185	-0.522116	99
Es	0.659340	0.867696	-0.597086	99
Es	1.030491	1.799103	0.487441	99
Es	1.005909	1.818695	0.428104	99
Es	1.192461	2.294718	0.348037	99
Es	-0.458837	-0.998517	-0.056311	99
Es	1.302412	2.363922	-1.060588	99
Es	-0.848012	-1.126568	-0.253339	99
Es	-0.644888	-0.991145	0.052103	99
Es	0.831888	1.176982	1.416202	99
Es	-0.582873	-1.097011	0.284395	99
