46
Properties=species:S:1:pos:R:3:Z:I:1 energy=-325.12256534127937 field_type=dipole dipole="0.000000 0.000000 0.000000" charge=0
C	-1.462119	-2.032670	0.479003	6
C	-0.544879	-1.781530	-0.708457	6
C	0.500311	-0.763541	-0.384147	6
O	0.794631	0.149159	-1.451107	8
C	0.152851	0.701430	-0.291667	6
C	0.996721	1.622639	0.521013	6
N	0.578411	2.998639	0.270933	7
H	-2.185609	-2.818430	0.242823	1
H	-2.017359	-1.126740	0.741313	1
H	-0.890409	-2.341630	1.359383	1
H	-1.147519	-1.466171	-1.569137	1
H	-0.051829	-2.719951	-0.990987	1
H	1.320351	-1.153951	0.201923	1
H	-0.889209	0.987030	-0.351777	1
H	2.059361	1.512379	0.279423	1
H	0.868891	1.396260	1.584073	1
H	0.725921	3.206850	-0.717627	1
H	1.191481	3.630229	0.785013	1
Es	-1.649120	-2.482106	0.611184	99
Es	0.119809	0.625809	-0.739540	99
Es	-1.312219	-2.108781	0.433395	99
Es	0.751800	0.159204	-1.155337	99
Es	0.295762	0.887803	-0.156438	99
Es	0.823796	1.410876	0.258539	99
Es	0.362652	0.885978	-0.084365	99
Es	-0.996783	-1.806043	-0.006062	99
Es	-0.093506	-1.311059	-0.670551	99
Es	0.664119	0.032975	-1.086628	99
Es	1.033489	2.302525	0.143967	99
Es	0.460775	0.856716	-0.448726	99
Es	-0.425135	-1.790370	-0.665095	99
Es	0.978307	2.899980	0.077727	99
Es	0.128271	-1.111325	-0.637938	99
Es	0.481892	-0.348544	-0.626795	99
Es	0.779759	2.591784	0.544082	99
Es	0.426060	-0.342655	-0.645947	99
Es	0.701092	-0.174869	-1.347873	99
Es	-1.209856	-1.794898	0.219979	99
Es	0.950555	2.120640	0.375739	99
Es	0.565917	3.134182	0.515125	99
Es	-0.108314	-1.772663	-0.706242	99
Es	-1.150187	-2.153985	0.251138	99
Es	0.775131	2.640382	0.307701	99
Es	0.672546	2.131763	0.760030	99
Es	0.678428	-0.006588	-0.988836	99
Es	-1.130964	-1.536541	0.077286	99
