43
Properties=species:S:1:pos:R:3:Z:I:1 energy=-323.9232134110257 field_type=dipole dipole="0.000000 0.000000 0.000000" charge=0
C	-1.077939	-1.415549	0.922491	6
C	-0.682539	-0.942709	-0.469209	6
C	-0.324849	0.516661	-0.489889	6
C	-1.176299	1.485811	-0.859169	6
C	1.058691	0.923981	-0.127019	6
N	1.984541	0.083781	0.206811	7
O	3.164021	0.788831	0.476041	8
H	-1.327599	-2.481380	0.901221	1
H	-1.956299	-0.872499	1.288251	1
H	-0.265459	-1.273519	1.642471	1
H	-1.516789	-1.133519	-1.155959	1
H	0.153361	-1.545629	-0.842879	1
H	-2.196319	1.250121	-1.148419	1
H	-0.893459	2.533881	-0.881239	1
H	1.269130	2.008991	-0.161879	1
H	3.787811	0.072751	0.698381	1
Es	-0.764510	-0.466765	-0.481840	99
Es	-1.583765	1.331563	-1.010571	99
Es	2.839443	0.452103	0.384462	99
Es	1.616582	0.442916	0.094624	99
Es	2.097927	0.105277	0.213999	99
Es	-1.039299	-1.355120	0.725829	99
Es	-0.507501	-1.332631	0.670251	99
Es	0.879448	1.035150	-0.208428	99
Es	1.801394	0.041721	0.295725	99
Es	-1.316290	-1.083552	0.200596	99
Es	-1.211177	1.796027	-0.930149	99
Es	3.193257	0.785143	0.341488	99
Es	2.857093	0.670499	0.511947	99
Es	-0.653522	-1.130532	-0.190909	99
Es	3.183224	1.062809	0.544755	99
Es	-0.350663	0.023520	-0.413177	99
Es	-0.659947	0.128915	-0.490771	99
Es	0.921770	1.134197	-0.297260	99
Es	-0.775551	1.009004	-0.572710	99
Es	-1.237752	-2.066091	0.975882	99
Es	-1.179166	-1.249100	0.472432	99
Es	-0.592977	1.178798	-0.891966	99
Es	1.564363	0.541613	0.051155	99
Es	-0.613724	-1.128008	0.182860	99
Es	-1.033325	1.340852	-0.769179	99
Es	3.311388	0.372089	0.514900	99
Es	0.869330	0.802272	-0.165627	99
