46
Properties=species:S:1:pos:R:3:Z:I:1 energy=-325.20519772284666 field_type=dipole dipole="0.000000 0.000000 0.000000" charge=0
C	-2.364476	-1.643331	-0.045100	6
C	-0.862006	-1.412981	-0.004030	6
C	-0.523166	0.077369	-0.003920	6
C	0.985764	0.304829	0.040540	6
C	1.341874	1.775789	0.012370	6
N	2.683654	2.023659	0.025100	7
O	0.533423	2.694389	-0.016920	8
H	-2.582926	-2.715391	-0.055130	1
H	-2.804806	-1.198141	-0.942470	1
H	-2.851636	-1.205121	0.831170	1
H	-0.399846	-1.899251	-0.871620	1
H	-0.448836	-1.889571	0.893040	1
H	-0.995646	0.563929	0.858450	1
H	-0.942226	0.550229	-0.900850	1
H	1.462924	-0.179571	-0.819060	1
H	1.402994	-0.130941	0.955820	1
H	3.381793	1.294109	0.039480	1
H	2.983153	2.989999	0.003130	1
Es	-0.792860	0.300103	0.123503	99
Es	-2.497350	-2.223402	-0.055407	99
Es	0.542319	2.553619	0.063652	99
Es	-0.816508	-1.470076	0.107080	99
Es	-2.680479	-1.291436	-0.127110	99
Es	1.446247	1.876971	-0.000221	99
Es	-0.712836	0.291544	0.037408	99
Es	-2.440543	-1.490804	0.014019	99
Es	1.032337	1.395525	0.089448	99
Es	0.871012	2.303348	-0.131292	99
Es	-0.666501	-1.623788	-0.055489	99
Es	-2.380175	-1.576017	-0.085842	99
Es	0.752379	2.175734	0.010547	99
Es	-0.606369	-1.725185	-0.002911	99
Es	1.073140	0.137710	-0.098741	99
Es	2.017473	2.036114	0.011827	99
Es	0.321979	0.189377	0.014306	99
Es	2.595446	2.031204	-0.013200	99
Es	2.749168	2.330974	0.131191	99
Es	-0.556469	-0.661206	-0.030128	99
Es	2.764913	1.702862	0.007903	99
Es	0.591330	2.907952	-0.020058	99
Es	1.191260	0.113805	0.057887	99
Es	2.899249	1.972189	-0.007253	99
Es	1.139486	0.076372	0.149769	99
Es	-1.707319	-1.511756	0.024881	99
Es	-0.635446	0.160423	-0.160925	99
Es	0.557831	2.551503	-0.046368	99
