43
Properties=species:S:1:pos:R:3:Z:I:1 energy=-324.0043240159856 field_type=dipole dipole="0.000000 0.000000 0.000000" charge=0
C	-2.156796	-0.011307	0.229245	6
C	-0.683646	-0.292377	0.077105	6
C	-0.339476	-1.757417	0.065825	6
C	0.189324	0.723643	-0.033425	6
N	1.541574	0.572773	-0.173195	7
C	2.438724	1.600223	-0.285835	6
O	3.644204	1.427173	-0.409015	8
H	-2.377706	1.061273	0.236245	1
H	-2.527906	-0.432787	1.169155	1
H	-2.715416	-0.460007	-0.598665	1
H	-0.861226	-2.258777	-0.756275	1
H	-0.652136	-2.222947	1.006475	1
H	0.727354	-1.956467	-0.057645	1
H	-0.167666	1.752513	-0.013745	1
H	1.958663	-0.348667	-0.200165	1
H	1.982134	2.603153	-0.256085	1
Es	3.595566	1.085234	-0.385159	99
Es	0.029408	1.228750	-0.023378	99
Es	0.089013	0.673670	-0.059471	99
Es	1.920932	1.264174	-0.190486	99
Es	-1.824138	-0.134008	0.222408	99
Es	3.244023	1.504638	-0.509569	99
Es	0.344865	-1.916274	0.039067	99
Es	3.243151	1.627171	-0.181621	99
Es	-0.536236	-1.975600	0.053475	99
Es	-0.526538	-1.686053	0.117339	99
Es	-2.375315	-0.225121	0.247025	99
Es	-0.162749	0.405215	-0.028233	99
Es	1.521912	0.580596	-0.206070	99
Es	-0.686626	-0.287290	0.081186	99
Es	1.570512	0.611231	-0.238267	99
Es	2.379221	1.769558	-0.236808	99
Es	-2.502736	-0.358276	0.246559	99
Es	-0.255926	0.216594	0.105423	99
Es	3.770947	1.612017	-0.533845	99
Es	2.295275	1.850406	-0.285064	99
Es	1.720801	0.100202	-0.071484	99
Es	3.625112	1.419269	-0.397149	99
Es	-2.303566	0.724408	0.242958	99
Es	0.987444	0.661623	-0.165783	99
Es	-0.554281	-1.810818	0.047905	99
Es	-1.739211	-0.079080	0.187513	99
Es	-0.458563	-1.413133	0.057810	99
