40
Properties=species:S:1:pos:R:3:Z:I:1 energy=-322.7963224121891 field_type=dipole dipole="0.000000 0.000000 0.000000" charge=0
C	-3.092512	-0.534424	-0.018362	6
C	-1.648512	-0.534424	-0.018362	6
C	-0.458352	-0.534424	-0.018362	6
C	0.985648	-0.534424	-0.018362	6
N	1.486168	0.815746	0.021538	7
C	2.829828	1.065636	0.047138	6
O	3.709938	0.217596	0.045308	8
H	-3.486502	0.486456	-0.006702	1
H	-3.486592	-1.054914	0.859908	1
H	-3.486592	-1.034734	-0.908282	1
H	1.383618	-1.018114	-0.917002	1
H	1.384189	-1.072624	0.848478	1
H	0.831718	1.586056	0.012918	1
H	3.047958	2.146595	0.070148	1
Es	3.703044	0.232321	0.055089	99
Es	1.602205	0.848822	0.019660	99
Es	1.310253	0.317284	-0.048555	99
Es	1.032294	-0.605408	0.039414	99
Es	-1.130976	-0.524225	-0.031422	99
Es	1.104819	1.206579	0.064575	99
Es	-1.096072	-0.759030	-0.033240	99
Es	1.559836	0.853745	0.026242	99
Es	-1.457499	-0.530848	-0.115815	99
Es	-2.376119	-0.574613	-0.045670	99
Es	-3.203689	-0.692540	-0.001875	99
Es	3.506527	0.381769	0.092811	99
Es	3.051686	1.115945	0.002583	99
Es	2.747194	1.202578	0.053697	99
Es	3.035168	0.954212	0.025983	99
Es	0.215944	-0.514791	-0.059826	99
Es	-3.161701	-0.583512	-0.080284	99
Es	-0.551420	-0.497872	-0.009816	99
Es	3.896840	0.013566	-0.016481	99
Es	-0.996731	-0.399966	0.089848	99
Es	1.101321	-0.711949	-0.021273	99
Es	-3.427441	-0.019537	-0.032847	99
Es	3.708201	0.447643	0.126220	99
Es	-3.252839	-0.772694	0.088229	99
Es	1.298265	-0.942414	-0.051995	99
Es	2.217468	0.894499	0.027260	99
