46
Properties=species:S:1:pos:R:3:Z:I:1 energy=-325.09839089317956 field_type=dipole dipole="0.000000 0.000000 0.000000" charge=0
C	-1.844018	-0.453233	-0.153067	6
C	-0.316688	-0.334323	-0.086197	6
C	0.213022	-1.268313	1.007913	6
C	0.275672	-0.687153	-1.455387	6
O	-0.048558	1.041137	0.244333	8
N	1.332612	1.277077	0.339093	7
C	1.517172	2.518747	0.630443	6
H	-2.255868	0.231697	-0.903437	1
H	-2.299028	-0.172593	0.803973	1
H	-2.161988	-1.471093	-0.402117	1
H	-0.161628	-0.965973	1.992503	1
H	1.306712	-1.237873	1.066393	1
H	-0.083298	-2.306943	0.825953	1
H	-0.058618	0.024487	-2.219046	1
H	-0.013118	-1.696143	-1.768887	1
H	1.370362	-0.641033	-1.442807	1
H	2.539302	2.908677	0.750413	1
H	0.687952	3.232857	0.769923	1
Es	0.275544	-0.211483	-0.005122	99
Es	0.733257	1.095905	0.260879	99
Es	-0.168184	-0.773134	-0.199285	99
Es	1.154018	2.416069	0.676146	99
Es	-0.284469	-0.441391	0.066957	99
Es	-1.115098	-0.914480	-0.224036	99
Es	0.265565	0.028783	0.010080	99
Es	-0.137429	-0.584428	0.080342	99
Es	-0.867313	-1.012051	-0.168965	99
Es	-0.947559	-0.740366	-0.250423	99
Es	-0.164813	-0.362094	-0.056609	99
Es	1.970174	2.597185	0.618100	99
Es	-0.182567	-0.159320	-0.120560	99
Es	0.503286	1.100852	0.100791	99
Es	1.364988	1.885597	0.349814	99
Es	0.857103	1.202190	0.327620	99
Es	-0.074493	0.054309	-0.071377	99
Es	-0.749598	-0.807298	-0.821376	99
Es	-0.060909	-0.532900	-0.139406	99
Es	0.035583	0.405069	0.149960	99
Es	-1.119027	-0.951881	-0.115819	99
Es	-0.575436	-0.283880	-0.062194	99
Es	-0.820831	-0.591365	-0.066757	99
Es	0.902573	1.577577	0.414182	99
Es	1.256344	1.350631	0.378134	99
Es	-0.097374	-0.169665	0.047330	99
Es	1.256380	1.760658	0.507452	99
Es	0.231199	-0.078245	0.034169	99
