45
Properties=species:S:1:pos:R:3:Z:I:1 energy=-341.11783655970896 field_type=dipole dipole="0.000000 0.000000 0.000000" charge=0
C	-1.244502	-1.595176	1.047403	6
C	-0.710472	-1.263976	-0.333707	6
C	0.173428	-0.031746	-0.300637	6
C	-0.500011	1.314664	-0.047667	6
O	-0.225232	2.216884	-1.105997	8
N	1.455058	-0.192896	-0.491697	7
N	2.216578	0.924544	-0.449917	7
H	-1.829712	-2.518936	1.017003	1
H	-1.891662	-0.797686	1.425153	1
H	-0.427242	-1.727186	1.764183	1
H	-1.536242	-1.082576	-1.030427	1
H	-0.132122	-2.112166	-0.717837	1
H	-0.130932	1.735734	0.892633	1
H	-1.583242	1.193824	0.026363	1
H	0.739478	2.109214	-1.258677	1
H	3.094188	0.737014	-0.948067	1
H	2.532638	1.090464	0.511893	1
Es	2.090880	0.550373	-0.460800	99
Es	1.607061	-0.232469	-0.529884	99
Es	-0.985353	-1.550630	0.766947	99
Es	-0.740796	1.331605	-0.079770	99
Es	-1.001593	-1.425248	0.448368	99
Es	-0.482653	-0.945775	-0.125671	99
Es	2.084215	0.634493	-0.412349	99
Es	1.784822	0.582867	-0.470580	99
Es	0.553051	0.140627	-0.411963	99
Es	-0.300050	1.081657	-0.128371	99
Es	-0.360121	-1.522552	-0.341197	99
Es	-0.412828	1.648632	-0.387169	99
Es	0.338083	0.073302	-0.290504	99
Es	-1.583749	-2.201626	1.057613	99
Es	-1.564158	-1.076603	0.785578	99
Es	-0.022537	0.825927	-0.158893	99
Es	-0.856795	-1.165383	0.078194	99
Es	-0.667467	1.198769	0.065084	99
Es	-0.146122	2.161517	-1.076182	99
Es	-0.233840	2.279263	-1.044952	99
Es	0.366806	1.908026	-1.070955	99
Es	-0.145633	2.321780	-1.164673	99
Es	-0.833050	-0.958790	-0.066585	99
Es	2.071042	1.150409	-0.610869	99
Es	1.878641	0.304518	-0.274671	99
Es	2.203275	0.781055	-0.569306	99
Es	0.811913	-0.232738	-0.277210	99
Es	-0.999466	-1.544873	0.766169	99
