41
Properties=species:S:1:pos:R:3:Z:I:1 energy=-359.7728702587189 field_type=dipole dipole="0.000000 0.000000 0.000000" charge=0
C	-0.691023	-1.747881	0.052340	6
C	0.579917	-0.961581	-0.211240	6
C	0.310877	0.523509	-0.136110	6
C	0.384367	1.165669	1.233940	6
O	0.583067	0.492029	2.233840	8
N	0.003247	1.170609	-1.222720	7
O	-0.237373	2.526559	-0.985770	8
H	-0.494983	-2.822241	-0.013310	1
H	-1.466123	-1.495891	-0.678790	1
H	-1.092013	-1.532951	1.047840	1
H	0.961287	-1.200631	-1.210670	1
H	1.359627	-1.235051	0.507090	1
H	0.257177	2.257489	1.261300	1
H	-0.458053	2.860359	-1.877740	1
Es	-0.034829	-1.407553	0.298361	99
Es	0.009463	1.485876	-0.941466	99
Es	-0.339532	-1.482150	-0.593789	99
Es	-0.042956	0.942197	-0.677198	99
Es	0.386578	0.972487	1.040325	99
Es	0.579131	-0.787374	-0.023021	99
Es	-0.260828	2.499433	-0.913061	99
Es	-0.018273	-1.444858	0.055282	99
Es	-0.426353	-1.755976	0.299418	99
Es	-0.216080	2.622500	-1.378846	99
Es	0.418839	0.556602	2.021500	99
Es	-0.567844	-2.065293	0.038448	99
Es	-0.121113	1.728111	-1.021970	99
Es	0.487278	0.555420	2.260086	99
Es	0.450601	1.625662	1.364743	99
Es	-0.218196	-1.389860	-0.037401	99
Es	0.218646	1.065943	-1.034396	99
Es	0.405212	-0.192315	-0.148402	99
Es	-0.003349	-1.339390	-0.547802	99
Es	-0.212682	1.764071	-1.135745	99
Es	0.425606	0.534969	1.789155	99
Es	0.528976	1.071863	1.455235	99
Es	0.462876	0.896372	1.042647	99
Es	-0.030282	2.462481	-0.999020	99
Es	-0.174304	1.726124	-1.315957	99
Es	0.614709	0.357301	2.052045	99
Es	0.399691	0.452955	0.328592	99
