45
Properties=species:S:1:pos:R:3:Z:I:1 energy=-288.0396373729513 field_type=dipole dipole="0.000000 0.000000 0.000000" charge=0
C	-1.293548	0.795191	-0.077897	6
C	-1.294988	-0.758189	0.004893	6
C	0.044702	-1.365939	0.507153	6
C	1.113262	-0.724339	-0.290827	6
N	2.317101	0.020311	-0.079937	7
C	1.114272	0.742511	0.181433	6
C	0.040852	1.397461	-0.598957	6
H	-2.126818	1.136770	-0.701867	1
H	-1.475558	1.182791	0.933263	1
H	-1.492688	-1.145239	-1.003407	1
H	-2.120398	-1.097049	0.640753	1
H	0.163942	-1.196910	1.584173	1
H	0.040612	-2.449059	0.344483	1
H	0.982992	-0.970109	-1.342737	1
H	2.787542	-0.276189	0.776413	1
H	1.009262	0.998461	1.233513	1
H	0.047152	2.479841	-0.432707	1
H	0.142312	1.229690	-1.677747	1
Es	-1.276808	0.796153	-0.072605	99
Es	0.801232	0.147982	0.074871	99
Es	-0.766054	-1.087563	0.204255	99
Es	0.472786	1.129107	-0.401346	99
Es	-0.964791	-1.013862	0.052535	99
Es	-0.229677	1.328424	-0.636289	99
Es	0.689563	0.962205	-0.288487	99
Es	-1.489655	-0.668360	0.203002	99
Es	0.679861	-1.042472	0.122427	99
Es	-0.228449	-1.460830	0.505457	99
Es	-1.432730	-0.469294	-0.039759	99
Es	2.283680	0.012370	-0.011284	99
Es	-1.569262	1.038457	-0.110779	99
Es	0.908632	0.573042	0.089356	99
Es	0.800095	-0.684848	0.098269	99
Es	0.386724	-0.142186	-0.131146	99
Es	2.592637	-0.054847	0.080820	99
Es	1.824584	-0.384206	-0.168768	99
Es	1.938773	0.510660	-0.038551	99
Es	0.403883	-1.304364	0.333545	99
Es	-1.395196	0.964630	-0.170550	99
Es	-0.988061	-0.783296	-0.116285	99
Es	0.034080	2.047802	-0.513579	99
Es	-0.444271	1.105455	-0.250863	99
Es	0.834976	-0.020281	-0.265999	99
Es	2.333522	-0.009608	0.021207	99
Es	0.196171	-1.186639	0.375752	99
