41
Properties=species:S:1:pos:R:3:Z:I:1 energy=-359.8517470916432 field_type=dipole dipole="0.000000 0.000000 0.000000" charge=0
C	-1.489197	0.507099	-0.078549	6
C	-0.018497	0.296469	0.093491	6
C	0.630143	-0.878851	0.058181	6
N	0.126603	-2.132041	-0.184539	7
C	0.756773	1.529909	0.368781	6
O	1.851234	1.648649	-0.412109	8
O	0.404384	2.379298	1.168151	8
H	-1.677607	1.259399	-0.852059	1
H	-1.938627	0.854899	0.857491	1
H	-2.012167	-0.404721	-0.380259	1
H	1.704503	-0.919251	0.244741	1
H	-0.879956	-2.221591	-0.062859	1
H	0.633173	-2.882111	0.284261	1
H	1.909233	0.962849	-1.104719	1
Es	0.083579	-2.486979	0.003031	99
Es	0.135409	-2.106003	-0.284610	99
Es	0.614851	-0.787642	0.013620	99
Es	1.940094	1.123739	-0.589132	99
Es	0.836366	1.745100	0.393358	99
Es	-1.510101	0.902284	-0.067556	99
Es	0.400886	-0.309935	-0.151747	99
Es	0.092282	0.062123	0.192877	99
Es	0.155297	-2.141171	-0.237219	99
Es	0.533185	2.333143	0.856863	99
Es	-1.639466	0.568167	0.199389	99
Es	-1.260213	0.257814	-0.038602	99
Es	1.821327	1.726029	-0.405984	99
Es	0.577086	2.206792	0.901418	99
Es	-1.526457	0.731423	-0.103994	99
Es	0.580693	2.458609	1.196068	99
Es	0.061943	0.061073	0.175908	99
Es	1.140475	1.595357	0.014165	99
Es	0.534285	1.972172	0.884388	99
Es	0.143013	-1.622223	-0.053526	99
Es	0.444133	0.978398	0.242685	99
Es	1.956216	1.744506	-0.350893	99
Es	-1.357958	0.001512	-0.209600	99
Es	0.047386	2.243616	1.147497	99
Es	1.322847	-0.705841	0.058111	99
Es	0.097591	-2.194370	-0.088931	99
Es	1.803784	1.556294	-0.317631	99
