42
Properties=species:S:1:pos:R:3:Z:I:1 energy=-340.02064640709904 field_type=dipole dipole="0.000000 0.000000 0.000000" charge=0
C	-1.371168	-0.440699	-1.006431	6
C	-0.890878	-0.407269	0.433269	6
C	0.113372	0.701421	0.635579	6
N	-0.219958	1.864271	1.074949	7
N	1.428202	0.537261	0.326849	7
C	2.094012	-0.556719	-0.168781	6
O	3.299043	-0.570219	-0.384431	8
H	-2.089447	-1.254049	-1.149631	1
H	-0.541748	-0.588919	-1.705061	1
H	-1.864118	0.500491	-1.273601	1
H	-0.448308	-1.369049	0.708959	1
H	-1.742648	-0.245069	1.102779	1
H	-1.227538	1.909641	1.265099	1
H	2.004773	1.350121	0.500869	1
H	1.456402	-1.431209	-0.360421	1
Es	2.375412	-0.788776	-0.362051	99
Es	1.376769	0.378749	0.159327	99
Es	-0.222414	1.276196	0.691019	99
Es	-1.078696	-0.519968	-0.807060	99
Es	0.141538	0.826527	0.687207	99
Es	3.248103	-0.501993	-0.386823	99
Es	2.985503	-0.651081	-0.341252	99
Es	-0.233297	1.654870	0.956930	99
Es	3.283293	-0.384825	-0.184945	99
Es	2.728425	-0.862581	-0.444750	99
Es	-1.888200	-0.733179	-1.133983	99
Es	-0.868890	-0.655443	-0.812186	99
Es	0.061562	1.609096	1.052070	99
Es	-1.183099	-0.421107	-0.241496	99
Es	1.704387	0.543857	0.354463	99
Es	0.959170	0.568024	0.448466	99
Es	1.614441	0.661621	0.318788	99
Es	-0.571071	0.271884	0.653273	99
Es	-1.141131	-0.353871	0.461287	99
Es	3.009863	-0.582450	-0.308417	99
Es	-1.514635	-0.091382	-0.971447	99
Es	-0.604490	1.744069	1.142695	99
Es	1.438748	0.409964	0.332938	99
Es	-0.875113	-0.710580	-0.107445	99
Es	-0.258567	1.900741	1.185073	99
Es	-0.927703	-0.252118	0.493680	99
Es	1.933316	-0.689008	-0.234929	99
