45
Properties=species:S:1:pos:R:3:Z:I:1 energy=-341.1872404585062 field_type=dipole dipole="0.000000 0.000000 0.000000" charge=0
C	-2.465627	-1.240102	-0.160240	6
C	-0.968057	-1.243172	0.088150	6
C	-0.368507	0.151278	-0.045750	6
O	1.045783	0.051018	0.194140	8
C	1.817873	1.152818	0.156820	6
N	3.101053	0.868828	0.443310	7
N	1.425933	2.335948	-0.140480	7
H	-2.867907	-2.253482	-0.065780	1
H	-2.695377	-0.875982	-1.166620	1
H	-2.981657	-0.600732	0.562920	1
H	-0.475147	-1.924032	-0.616240	1
H	-0.756747	-1.640092	1.088400	1
H	-0.814857	0.827258	0.692120	1
H	-0.537117	0.537108	-1.057180	1
H	3.371523	-0.083932	0.245890	1
H	3.742143	1.577368	0.110760	1
H	0.426693	2.359898	-0.330220	1
Es	0.967176	0.058146	0.180684	99
Es	-2.717438	-1.132484	-0.333549	99
Es	3.107541	1.295844	0.320525	99
Es	1.472671	2.187341	-0.072744	99
Es	1.352643	0.323106	0.231304	99
Es	-0.799237	-1.354642	0.180808	99
Es	-0.297419	0.158120	-0.069585	99
Es	-0.641187	-0.489832	-0.028112	99
Es	-1.013266	-1.313209	-0.003948	99
Es	1.805265	1.116294	0.164162	99
Es	-0.528103	0.409281	-0.150363	99
Es	0.844872	2.270635	-0.231311	99
Es	3.228343	0.360697	0.386457	99
Es	0.711010	0.250490	-0.031595	99
Es	1.746913	1.792538	-0.075990	99
Es	-0.820079	-1.479132	0.226583	99
Es	1.463663	2.111010	-0.034537	99
Es	2.965195	0.924448	0.418221	99
Es	-0.566069	0.328174	-0.022949	99
Es	3.056419	0.845118	0.375749	99
Es	-2.546448	-1.091294	-0.011531	99
Es	1.547253	2.580093	-0.159036	99
Es	-1.620184	-1.332734	-0.037600	99
Es	1.071482	0.111446	0.168190	99
Es	-2.651461	-1.657107	-0.141988	99
Es	0.986907	-0.102504	0.345060	99
Es	2.861916	0.984241	0.396748	99
Es	-2.595241	-1.018743	-0.227024	99
