44
Properties=species:S:1:pos:R:3:Z:I:1 energy=-360.94849485537554 field_type=dipole dipole="0.000000 0.000000 0.000000" charge=0
C	-1.450796	-0.752616	-0.008706	6
C	0.039574	-0.610586	-0.295176	6
C	0.460494	-1.525836	-1.438696	6
O	0.318894	0.742294	-0.709826	8
C	0.579844	1.663784	0.246314	6
N	0.604264	1.413074	1.509174	7
O	0.911574	2.592334	2.200004	8
H	-1.755096	-0.092526	0.809784	1
H	-1.705086	-1.781066	0.264994	1
H	-2.046316	-0.464186	-0.881816	1
H	0.627004	-0.875596	0.591884	1
H	-0.071506	-1.273106	-2.362496	1
H	0.269914	-2.576216	-1.198706	1
H	1.528744	-1.404346	-1.647966	1
H	0.769634	2.649514	-0.208196	1
H	0.918854	2.295074	3.129434	1
Es	0.844759	2.492900	2.444846	99
Es	-1.274590	-0.852107	-0.135654	99
Es	0.503894	1.508767	1.156418	99
Es	0.654290	1.782084	1.334280	99
Es	0.178059	-1.775281	-1.329852	99
Es	0.694279	1.773167	1.629554	99
Es	-1.455558	-1.240587	-0.160317	99
Es	0.376285	1.372180	1.492665	99
Es	0.808976	1.966729	0.396738	99
Es	0.438593	0.893495	-0.360214	99
Es	0.461162	0.891251	-0.465390	99
Es	0.900269	2.526934	2.267503	99
Es	1.163024	2.768788	2.071923	99
Es	0.146606	-0.023634	-0.559442	99
Es	0.306119	0.742407	-0.583136	99
Es	0.459882	-1.492133	-1.510665	99
Es	-0.158686	-0.425019	0.047047	99
Es	-1.057629	-0.656179	0.134935	99
Es	-0.078838	-0.120261	-0.362565	99
Es	-1.034652	-0.579374	-0.057482	99
Es	-0.294939	-0.941865	-0.595309	99
Es	-0.887474	-0.536003	0.071638	99
Es	1.011944	-1.425662	-1.540808	99
Es	0.242003	-1.554610	-1.885313	99
Es	0.326830	0.356387	-0.701668	99
Es	0.750117	2.627561	2.212017	99
Es	0.621208	1.435840	0.643144	99
Es	0.574698	1.456452	0.345876	99
