44
Properties=species:S:1:pos:R:3:Z:I:1 energy=-360.963165975262 field_type=dipole dipole="0.000000 0.000000 0.000000" charge=0
C	-0.345892	-0.580164	1.312754	6
C	0.685458	-0.055864	0.319164	6
C	1.833728	-1.046304	0.167004	6
O	0.089858	0.102396	-0.977396	8
N	-0.653052	1.306436	-1.002426	7
C	-1.977892	1.138676	-1.292586	6
O	-2.707892	2.039696	-1.681376	8
H	-1.139822	0.156636	1.473554	1
H	0.112038	-0.801304	2.281664	1
H	-0.829582	-1.487034	0.933744	1
H	1.093288	0.903296	0.663154	1
H	1.475418	-2.006484	-0.220906	1
H	2.339968	-1.219904	1.121484	1
H	2.568138	-0.670794	-0.553836	1
H	-0.205712	2.108566	-1.433036	1
H	-2.338052	0.112146	-1.110956	1
Es	0.413460	0.242769	-0.493903	99
Es	1.686908	-0.741515	0.047338	99
Es	-0.672625	-0.272756	1.070916	99
Es	0.008543	-0.365202	0.668491	99
Es	-2.646208	1.945800	-1.669617	99
Es	-0.471559	0.876163	-0.951683	99
Es	-1.445247	0.931275	-1.045402	99
Es	1.626955	-0.885621	0.184990	99
Es	0.218961	0.258632	-0.655504	99
Es	-0.020538	-0.402287	1.024550	99
Es	0.062743	-0.064517	-0.280924	99
Es	-2.669035	1.823876	-1.643383	99
Es	-1.209048	1.210996	-1.190796	99
Es	2.183014	-1.020896	-0.040126	99
Es	-2.835289	1.939016	-1.569619	99
Es	0.173100	0.291507	-0.616231	99
Es	-2.557870	2.076863	-1.947535	99
Es	-0.529293	1.455604	-1.262917	99
Es	-0.187280	-0.622175	1.076253	99
Es	0.268840	-0.408902	0.760213	99
Es	-2.313251	1.693115	-1.362101	99
Es	1.983858	-1.075907	0.655342	99
Es	-1.334948	0.969909	-0.903267	99
Es	-2.106754	1.330179	-1.315644	99
Es	-0.335827	0.754906	-1.018633	99
Es	-0.191116	-0.926706	1.747295	99
Es	1.579880	-1.168939	0.066865	99
Es	0.342851	0.407833	-0.595006	99
