39
Properties=species:S:1:pos:R:3:Z:I:1 energy=-338.7874779868439 field_type=dipole dipole="0.000000 0.000000 0.000000" charge=0
C	-1.988205	0.782565	1.688877	6
C	-1.150215	0.201675	0.820277	6
C	0.173455	0.808605	0.517957	6
O	0.564355	1.840255	1.059577	8
N	0.956125	0.160335	-0.407893	7
N	0.584355	-0.981535	-1.053763	7
C	1.452145	-1.432445	-1.895673	6
H	-2.952925	0.339475	1.908807	1
H	-1.729535	1.708505	2.195007	1
H	-1.418025	-0.720725	0.321177	1
H	1.852564	0.593385	-0.599193	1
H	1.232415	-2.351156	-2.461603	1
H	2.423495	-0.948935	-2.093553	1
Es	0.087969	0.765062	0.533644	99
Es	0.642833	1.498036	0.766556	99
Es	-1.484781	0.485319	1.190955	99
Es	0.984786	-1.181414	-1.437387	99
Es	-1.564831	0.493548	1.260055	99
Es	-1.319080	-0.389818	0.500203	99
Es	1.322377	-2.047171	-2.281553	99
Es	0.672249	2.043245	1.149635	99
Es	2.093544	-1.102124	-2.016574	99
Es	1.456096	-1.430514	-1.896506	99
Es	0.284703	1.723441	1.123025	99
Es	0.944898	0.165718	-0.407738	99
Es	1.484949	0.403429	-0.529728	99
Es	-1.155073	0.183286	0.810078	99
Es	0.991203	-1.164885	-1.427481	99
Es	0.539473	1.767837	1.030805	99
Es	0.754539	-0.407777	-0.717612	99
Es	-0.392455	0.531035	0.630839	99
Es	-1.989426	0.781794	1.688958	99
Es	-2.626095	0.487743	1.834025	99
Es	-1.836964	1.396104	2.039710	99
Es	0.486227	1.651227	0.958906	99
Es	0.605770	0.421810	-0.010760	99
Es	0.550480	-0.996995	-1.045772	99
Es	0.335958	-1.091350	-0.994368	99
Es	0.893103	0.169152	-0.360090	99
