43
Properties=species:S:1:pos:R:3:Z:I:1 energy=-323.99482451415014 field_type=dipole dipole="0.000000 0.000000 0.000000" charge=0
C	0.088493	-1.655952	1.138911	6
C	-0.545737	-1.312352	-0.198879	6
N	-0.284777	0.035818	-0.633259	7
C	-0.711387	1.276358	0.018021	6
C	0.500913	1.952578	-0.653309	6
C	0.945283	0.513518	-0.972859	6
O	1.964623	-0.042832	-1.301709	8
H	-0.128547	-2.694982	1.405191	1
H	-0.296557	-1.013782	1.937391	1
H	1.176203	-1.533402	1.106791	1
H	-1.631967	-1.439922	-0.148399	1
H	-0.156997	-1.990672	-0.966709	1
H	-0.676697	1.235318	1.110121	1
H	-1.688927	1.626428	-0.321459	1
H	0.279343	2.549958	-1.541129	1
H	1.166733	2.493918	0.021291	1
Es	-0.533900	0.884009	-0.219304	99
Es	-0.602967	0.738943	0.258002	99
Es	-0.055213	-1.665179	0.376825	99
Es	-0.045490	-0.063753	-0.352820	99
Es	-0.180868	1.331131	-0.367317	99
Es	-0.416183	1.617624	-0.308444	99
Es	0.422870	1.623935	-0.395058	99
Es	1.402848	0.100546	-0.905888	99
Es	1.052348	0.398528	-1.056487	99
Es	1.977536	0.191372	-1.269641	99
Es	-0.294803	-1.610625	0.640279	99
Es	-0.096558	-2.198442	0.976028	99
Es	0.439069	1.426813	-0.716702	99
Es	-0.373110	-0.550381	-0.183600	99
Es	0.662828	1.546307	-0.766912	99
Es	-0.183863	-1.588739	0.639178	99
Es	0.312303	2.328288	-1.177954	99
Es	1.346734	0.150224	-1.077224	99
Es	-0.083951	-1.086852	0.193362	99
Es	0.076574	-0.768715	-0.161159	99
Es	-0.760308	1.127928	-0.155763	99
Es	0.039186	0.761768	-0.541856	99
Es	-0.182090	-1.325280	0.259318	99
Es	1.533963	0.160516	-1.185264	99
Es	2.110835	-0.201630	-1.387768	99
Es	-0.585599	-1.259476	0.760544	99
Es	0.079432	-0.301148	-0.210543	99
