44
Properties=species:S:1:pos:R:3:Z:I:1 energy=-304.062548621726 field_type=dipole dipole="0.000000 0.000000 0.000000" charge=0
C	-0.177872	-0.464752	-0.344247	6
C	-0.605632	-0.403262	1.094623	6
C	-1.937842	0.192518	1.468853	6
N	-1.711352	-1.248082	1.558843	7
N	0.613118	0.739778	-0.630237	7
C	2.042048	0.483128	-0.800277	6
C	1.156728	0.748798	-1.987047	6
H	0.374898	-1.398012	-0.511857	1
H	-1.054572	-0.486682	-1.003777	1
H	0.227708	-0.295262	1.778783	1
H	-2.601613	0.521338	0.678513	1
H	-2.016442	0.736748	2.401343	1
H	-1.564542	-1.528742	2.530313	1
H	2.420778	-0.520752	-0.651027	1
H	2.705117	1.275628	-0.474067	1
H	1.217588	1.721097	-2.460607	1
H	0.911888	-0.073482	-2.648127	1
Es	1.200856	0.984084	-2.116707	99
Es	0.860020	0.666640	-1.201498	99
Es	-1.619680	-1.289750	2.018304	99
Es	-1.284766	-0.411855	1.248923	99
Es	-1.674178	-0.398331	1.499499	99
Es	0.569482	0.458332	-0.690536	99
Es	1.689483	0.316878	-0.963401	99
Es	-1.865633	-0.354963	1.435778	99
Es	-1.682425	-0.294774	1.319978	99
Es	-0.459067	-0.528087	0.686254	99
Es	2.044907	0.788916	-1.089840	99
Es	-0.749507	-0.403238	1.077401	99
Es	-1.756151	-0.512853	1.543138	99
Es	-0.254388	-0.169478	-0.539961	99
Es	-1.010389	-0.542588	1.232407	99
Es	-0.177696	-0.384818	-0.286084	99
Es	-1.969643	-0.341232	1.447966	99
Es	0.170592	0.103696	-0.430923	99
Es	-0.853976	-0.538788	1.229936	99
Es	1.722191	0.304912	-0.951211	99
Es	1.493013	0.518833	-1.533005	99
Es	1.266225	0.636124	-1.014064	99
Es	0.421992	0.527326	-0.725548	99
Es	1.556163	0.923269	-1.737566	99
Es	-1.725076	-0.131484	1.283297	99
Es	1.703759	0.544084	-1.248755	99
Es	0.135070	-0.612765	-0.151192	99
