46
Properties=species:S:1:pos:R:3:Z:I:1 energy=-325.1278116605428 field_type=dipole dipole="0.000000 0.000000 0.000000" charge=0
C	-1.959963	-0.633224	0.190349	6
C	-0.459813	-0.775874	-0.048451	6
N	-0.200073	-1.360624	-1.360491	7
C	0.226137	0.558166	-0.009101	6
C	0.721927	1.121226	1.300049	6
C	1.703377	0.640056	0.272739	6
O	2.407767	1.671756	-0.431521	8
H	-2.153263	-0.192194	1.174789	1
H	-2.459363	-1.607784	0.154359	1
H	-2.428793	0.017596	-0.556851	1
H	-0.042183	-1.441814	0.715689	1
H	-0.648733	-0.794784	-2.079091	1
H	-0.646403	-2.275114	-1.413131	1
H	-0.187823	1.264226	-0.721331	1
H	0.610577	0.531206	2.201489	1
H	0.640047	2.190606	1.457409	1
H	2.236657	-0.282704	0.480039	1
H	2.639917	1.369276	-1.326941	1
Es	-0.364862	-0.309051	0.036040	99
Es	-1.984325	-0.823323	0.175815	99
Es	2.355179	1.403768	-0.599144	99
Es	-0.286546	-1.215526	-1.598904	99
Es	-0.621899	-0.524989	-0.106283	99
Es	2.037002	1.204028	-0.019355	99
Es	-0.434804	-1.722613	-1.306739	99
Es	-2.213463	-1.066855	0.172058	99
Es	-0.242425	-0.545803	-0.238807	99
Es	0.525347	0.901591	1.013432	99
Es	2.478695	1.713053	-0.275314	99
Es	0.782305	0.841533	0.695806	99
Es	1.790451	0.823215	0.157537	99
Es	0.038048	-0.701914	-0.627145	99
Es	0.886742	0.750164	0.285883	99
Es	0.035397	-0.289389	-0.326894	99
Es	1.393993	0.862305	0.253872	99
Es	-1.548681	-0.657932	0.048038	99
Es	0.521002	1.342531	1.497757	99
Es	-0.555475	-1.014007	-1.022249	99
Es	2.555795	1.503120	-0.402321	99
Es	-0.239983	-1.370555	-1.367814	99
Es	0.272414	0.635226	0.091042	99
Es	2.121887	1.257751	-0.297596	99
Es	1.684757	1.119845	0.391938	99
Es	0.686297	1.139606	1.289463	99
Es	-1.898947	-0.379770	0.726182	99
Es	-1.173958	-0.679618	0.067345	99
