43
Properties=species:S:1:pos:R:3:Z:I:1 energy=-323.99704699078984 field_type=dipole dipole="0.000000 0.000000 0.000000" charge=0
C	-2.313909	0.115812	0.329616	6
C	-0.848809	-0.090738	0.008616	6
N	-0.504129	-1.380708	-0.344474	7
C	-0.022459	0.968592	0.069256	6
C	1.449301	1.008183	-0.137974	6
C	2.289281	-0.215468	0.118606	6
O	1.962431	2.069362	-0.495094	8
H	-2.540668	1.148232	0.616976	1
H	-2.612589	-0.532337	1.160656	1
H	-2.930689	-0.130128	-0.541324	1
H	-1.297409	-1.952148	-0.632204	1
H	0.253811	-1.442558	-1.019614	1
H	-0.420079	1.954232	0.298926	1
H	1.867061	-0.821338	0.923416	1
H	3.285421	0.102112	0.442676	1
H	2.383431	-0.801107	-0.798064	1
Es	2.191029	-0.384394	0.056528	99
Es	-2.513401	0.767368	0.436130	99
Es	-1.593831	-0.031415	0.157680	99
Es	2.205725	-0.098130	0.135943	99
Es	-2.432196	0.095721	0.168066	99
Es	1.405724	1.094341	-0.156821	99
Es	-0.255800	1.475270	0.184105	99
Es	2.848121	0.015299	0.243084	99
Es	-0.542534	-1.360874	-0.374485	99
Es	1.653718	0.426672	-0.065912	99
Es	1.963731	2.037173	-0.492561	99
Es	1.505816	1.686717	-0.380011	99
Es	-0.157704	-1.512082	-0.314824	99
Es	-0.632497	-0.780544	-0.316303	99
Es	1.943751	1.785567	-0.282343	99
Es	2.142780	2.258010	-0.628823	99
Es	-2.588143	-0.194844	0.352917	99
Es	-2.436666	-0.103638	0.522182	99
Es	-0.531257	0.300851	-0.048384	99
Es	-0.381422	-1.347978	-0.477878	99
Es	1.330316	0.737841	-0.067589	99
Es	-0.642039	0.095361	0.107704	99
Es	-0.102470	1.066873	0.065931	99
Es	-0.918884	-1.690514	-0.423996	99
Es	1.829293	1.849807	-0.412084	99
Es	-0.323705	0.548968	0.074933	99
Es	2.104304	-0.726158	0.144536	99
