39
Properties=species:S:1:pos:R:3:Z:I:1 energy=-338.80723394654325 field_type=dipole dipole="0.000000 0.000000 0.000000" charge=0
C	-2.333139	0.034678	-0.894498	6
C	-1.295219	-0.351502	-0.147428	6
N	-0.034569	0.177348	-0.182078	7
C	1.098801	-0.132422	0.532012	6
N	1.234031	-1.039352	1.444612	7
C	2.343841	0.686258	0.215002	6
O	2.289971	1.559488	-0.639568	8
H	-3.298689	-0.450982	-0.791898	1
H	-2.251979	0.836488	-1.620958	1
H	-1.432499	-1.160372	0.565382	1
H	0.097831	0.936438	-0.853208	1
H	0.342041	-1.520891	1.572442	1
H	3.239581	0.424818	0.800191	1
Es	1.705271	0.275085	0.364260	99
Es	-0.552086	-0.023515	-0.228207	99
Es	-2.956784	-0.280923	-0.824534	99
Es	-1.793829	-0.161890	-0.526925	99
Es	0.746319	-1.304687	1.561390	99
Es	2.292044	1.560736	-0.640411	99
Es	-1.293811	-0.351426	-0.147434	99
Es	1.190673	-0.723551	1.103951	99
Es	1.518812	-1.099063	1.592086	99
Es	2.935798	0.506468	0.611537	99
Es	2.504211	1.619320	-0.627088	99
Es	-1.372223	-0.896087	0.349262	99
Es	1.097858	-0.132261	0.531912	99
Es	0.441035	-0.017008	0.114004	99
Es	1.213218	-1.047247	1.446131	99
Es	-0.024000	0.183136	-0.177060	99
Es	2.043091	1.646497	-0.838138	99
Es	2.343845	0.685983	0.215291	99
Es	2.319391	1.218142	-0.249681	99
Es	1.135795	-0.622406	1.015818	99
Es	-1.875265	-0.144236	-0.545827	99
Es	2.301007	1.267819	-0.384661	99
Es	0.017420	0.602684	-0.407528	99
Es	-0.015851	0.146324	-0.196407	99
Es	-2.279612	0.576678	-1.399059	99
Es	-2.332967	0.034638	-0.894393	99
