39
Properties=species:S:1:pos:R:3:Z:I:1 energy=-338.84075322489457 field_type=dipole dipole="0.000000 0.000000 0.000000" charge=0
C	-0.884553	-1.426163	-0.652364	6
C	0.511167	-0.942223	-0.302884	6
N	0.562867	0.498867	-0.180894	7
C	0.222957	1.148367	0.990716	6
O	-0.106883	0.570457	2.020566	8
C	0.269277	2.607017	0.950366	6
N	0.322417	3.765477	0.858876	7
H	-0.894723	-2.515013	-0.760864	1
H	-1.227043	-0.983613	-1.593724	1
H	-1.604903	-1.152623	0.125546	1
H	1.217667	-1.227783	-1.088484	1
H	0.840937	-1.395713	0.637836	1
H	0.770817	1.052947	-1.004694	1
Es	-0.074817	0.447809	1.817463	99
Es	0.360743	0.707206	-0.009715	99
Es	0.388602	3.898442	0.931097	99
Es	0.090487	-1.109559	-0.789582	99
Es	-0.455926	-1.283049	-0.349935	99
Es	-0.202270	-1.154719	-0.373220	99
Es	-0.054521	0.643088	1.867040	99
Es	0.130559	1.797672	1.045178	99
Es	0.328791	3.597435	0.891445	99
Es	0.423525	3.128409	0.579611	99
Es	0.143797	0.803508	1.330503	99
Es	0.414249	3.556277	1.063657	99
Es	0.343724	0.309057	-0.063281	99
Es	0.315648	2.395304	0.935591	99
Es	0.205500	1.820931	1.051793	99
Es	0.453677	0.740011	0.783392	99
Es	-0.884264	-2.149358	-0.719574	99
Es	0.089760	-1.102240	-0.744030	99
Es	-0.012501	0.714459	1.633352	99
Es	-0.092632	-1.064091	-0.452024	99
Es	0.146302	2.626471	0.910277	99
Es	-0.476097	-1.108650	-0.265447	99
Es	0.709802	0.728118	-0.350576	99
Es	0.560979	0.064639	-0.213702	99
Es	-0.307290	-1.155745	-0.270594	99
Es	-0.052980	0.718393	1.729305	99
