41
Properties=species:S:1:pos:R:3:Z:I:1 energy=-359.8575284792324 field_type=dipole dipole="0.000000 0.000000 0.000000" charge=0
C	-0.451188	-1.991179	0.034695	6
C	0.683562	-1.018909	0.291545	6
N	0.189602	0.332071	0.427305	7
C	0.284842	1.272481	-0.571035	6
O	0.831532	1.137161	-1.653895	8
C	-0.365848	2.599651	-0.228985	6
O	-1.051648	2.721591	0.777295	8
H	-0.067438	-3.011049	-0.063345	1
H	-0.990868	-1.735309	-0.884245	1
H	-1.173278	-1.975029	0.859165	1
H	1.411202	-1.067769	-0.523785	1
H	1.193752	-1.272879	1.224665	1
H	-0.337828	0.600042	1.256115	1
H	-0.156398	3.409122	-0.945495	1
Es	-0.579950	2.646191	0.138693	99
Es	0.759523	1.215417	-1.588505	99
Es	-0.728292	2.648295	0.585726	99
Es	1.022632	-0.788463	-0.267773	99
Es	0.889568	1.160101	-1.541834	99
Es	0.156257	0.325632	0.094953	99
Es	-0.177238	2.268079	-0.323966	99
Es	0.323159	-1.096455	0.355084	99
Es	-0.546262	-2.051679	0.320141	99
Es	-0.347453	2.436351	-0.131520	99
Es	0.261455	0.563946	0.321411	99
Es	-0.967238	2.375307	0.530839	99
Es	-0.051840	-1.525694	0.202797	99
Es	0.754251	1.003752	-1.545777	99
Es	0.244136	0.505410	0.258284	99
Es	-0.045215	-1.661667	0.353279	99
Es	0.215388	-1.275907	0.262951	99
Es	0.677213	1.134352	-1.397441	99
Es	0.247660	1.313848	-0.531990	99
Es	-0.303615	-2.123795	0.060164	99
Es	-1.219303	2.943245	0.879264	99
Es	0.766084	1.188680	-1.417002	99
Es	-0.036757	0.539311	0.760297	99
Es	-0.350510	2.956138	-0.407678	99
Es	0.458256	-0.417840	0.327467	99
Es	-1.003499	2.702970	0.722050	99
Es	-0.239342	-2.190833	-0.144225	99
