42
Properties=species:S:1:pos:R:3:Z:I:1 energy=-339.9892982315954 field_type=dipole dipole="0.000000 0.000000 0.000000" charge=0
C	-2.622223	-0.008117	0.865512	6
C	-1.364113	-0.719217	0.475112	6
N	-0.319933	-0.052297	0.105672	7
N	0.759166	-0.814047	-0.221478	7
C	1.951567	-0.269317	-0.633438	6
C	2.020247	1.232473	-0.708398	6
O	2.902897	-0.990167	-0.931848	8
H	-2.872793	-0.273997	1.895462	1
H	-3.432593	-0.339187	0.211412	1
H	-2.502423	1.074843	0.783922	1
H	-1.383503	-1.822597	0.522532	1
H	0.718257	-1.826447	-0.176518	1
H	1.354467	1.596223	-1.495018	1
H	3.044507	1.536743	-0.945978	1
H	1.746467	1.675103	0.253052	1
Es	-1.999700	-0.383934	0.643887	99
Es	-2.542968	0.653658	0.855890	99
Es	-3.047160	-0.249406	0.987667	99
Es	0.202732	-0.219242	-0.007374	99
Es	2.813255	-1.191691	-0.853603	99
Es	1.328805	-0.549848	-0.334016	99
Es	1.870862	1.270883	-0.533113	99
Es	-0.589924	-0.249465	0.082605	99
Es	1.925130	-0.232270	-0.600798	99
Es	-0.254977	-0.201196	0.080492	99
Es	-1.353594	-0.749865	0.481460	99
Es	3.195099	-0.838794	-1.003335	99
Es	-1.365641	-1.422192	0.508254	99
Es	-2.645521	0.017686	0.922079	99
Es	2.078783	0.627782	-0.759415	99
Es	2.075723	1.390097	-0.761265	99
Es	-0.656600	-0.338376	0.367803	99
Es	0.684668	-1.383023	-0.145805	99
Es	2.429843	-0.776895	-1.001748	99
Es	-2.852821	-0.135944	0.917172	99
Es	2.894763	-0.984729	-0.929873	99
Es	2.649437	-0.735301	-0.690881	99
Es	2.206875	1.330597	-0.849355	99
Es	0.753784	-0.801009	-0.234810	99
Es	1.873884	1.338762	-0.652045	99
Es	0.815323	-0.738961	-0.399210	99
Es	-0.571196	0.043146	0.139194	99
