39
Properties=species:S:1:pos:R:3:Z:I:1 energy=-338.75825939107335 field_type=dipole dipole="0.000000 0.000000 0.000000" charge=0
C	-2.152756	1.444638	0.687969	6
C	-1.312026	0.351748	0.108949	6
N	-0.024806	0.370608	0.228469	7
O	0.502444	-0.767062	-0.406321	8
C	1.929824	-0.738332	-0.291511	6
C	2.509654	-1.922722	-0.936371	6
N	2.986363	-2.853842	-1.442061	7
H	-2.868836	1.006908	1.388069	1
H	-2.705646	1.930718	-0.119861	1
H	-1.535066	2.181918	1.206379	1
H	-1.840306	-0.459282	-0.422971	1
H	2.203344	-0.717312	0.769389	1
H	2.307814	0.172018	-0.770131	1
Es	1.972929	-0.708308	-0.257388	99
Es	3.156593	-3.130651	-1.624000	99
Es	0.367188	-0.537993	-0.277675	99
Es	2.510898	-2.551811	-1.149507	99
Es	-0.253149	0.203365	0.047198	99
Es	-1.603600	-0.126807	-0.203124	99
Es	2.209462	-1.380962	-0.609643	99
Es	-0.554984	0.269142	0.374304	99
Es	2.137096	-0.486939	0.031122	99
Es	-2.482722	1.656578	0.801200	99
Es	-0.040150	0.414953	0.193449	99
Es	2.624319	-2.097976	-1.194752	99
Es	-1.320437	0.313748	0.094357	99
Es	0.004233	0.584569	0.205759	99
Es	-2.411976	1.489554	0.601012	99
Es	0.418446	-0.617661	-0.166208	99
Es	2.684053	-2.262169	-1.096896	99
Es	-1.744179	0.868704	0.364263	99
Es	2.979472	-2.290207	-1.110513	99
Es	0.367059	-0.926675	-0.511125	99
Es	0.387571	-0.375628	-0.379316	99
Es	2.985532	-2.851589	-1.440946	99
Es	-2.027396	1.626187	0.888263	99
Es	2.005842	-0.524721	-0.272149	99
Es	-2.108817	1.508886	0.742153	99
Es	1.159068	-0.741593	-0.381827	99
