41
Properties=species:S:1:pos:R:3:Z:I:1 energy=-359.7993028903527 field_type=dipole dipole="0.000000 0.000000 0.000000" charge=0
C	-0.846187	2.331046	1.690656	6
C	-0.743497	0.966436	1.086306	6
N	0.122113	0.718126	0.162306	7
O	0.004033	-0.629434	-0.227064	8
C	0.902353	-0.916214	-1.227464	6
C	0.755083	-2.359684	-1.609964	6
O	1.717503	-0.158984	-1.739364	8
H	-0.684347	2.253606	2.769116	1
H	-1.852657	2.720296	1.515406	1
H	-0.108627	3.010256	1.255996	1
H	-1.438567	0.197626	1.465176	1
H	1.103143	-2.994654	-0.792504	1
H	1.358343	-2.561234	-2.499163	1
H	-0.288687	-2.577184	-1.849444	1
Es	0.630412	-2.510262	-1.515730	99
Es	-0.694887	0.967223	1.067352	99
Es	0.754589	-2.283679	-1.589215	99
Es	1.678998	-0.282763	-1.918356	99
Es	0.436945	-2.643396	-1.432785	99
Es	0.274759	0.986330	0.020018	99
Es	-0.162017	-0.824158	-0.298886	99
Es	-0.898689	2.151007	1.823128	99
Es	0.027054	-0.628198	-0.190066	99
Es	-1.198636	0.467650	1.322228	99
Es	0.810363	-1.655410	-1.379842	99
Es	0.910807	-1.009744	-1.266955	99
Es	-1.020447	2.357565	1.603524	99
Es	-0.026948	0.741092	0.305403	99
Es	-0.092831	0.765782	0.640784	99
Es	1.809594	-0.303173	-1.754365	99
Es	1.549896	-0.340774	-1.612018	99
Es	-0.799788	1.918528	1.422735	99
Es	-0.464218	2.697982	1.569353	99
Es	1.615301	-0.319323	-1.613217	99
Es	0.231442	-0.612872	-0.507687	99
Es	0.022349	0.008040	-0.018329	99
Es	-1.084488	2.416299	2.005176	99
Es	1.477380	0.010490	-1.511627	99
Es	1.165239	-2.522154	-2.097338	99
Es	0.198963	-0.668843	-0.209774	99
Es	-0.250621	0.687612	0.306847	99
