49
Properties=species:S:1:pos:R:3:Z:I:1 energy=-326.33320840088385 field_type=dipole dipole="0.000000 0.000000 0.000000" charge=0
C	-0.389454	-2.001484	-0.905580	6
C	-0.905854	-0.878064	-0.014691	6
O	-0.556824	-1.179104	1.334700	8
C	-0.389934	0.521066	-0.427220	6
C	-1.057014	1.608326	0.426849	6
C	1.147235	0.659576	-0.392420	6
N	1.728106	0.380396	0.922369	7
H	-0.609104	-1.807714	-1.959930	1
H	-0.860054	-2.950264	-0.623330	1
H	0.688776	-2.150534	-0.786560	1
H	-2.000794	-0.881324	-0.066481	1
H	0.384356	-0.912284	1.433900	1
H	-0.701904	0.695596	-1.466120	1
H	-0.833904	1.493396	1.492319	1
H	-2.145644	1.573406	0.309229	1
H	-0.723284	2.604326	0.116159	1
H	1.434096	1.672746	-0.698510	1
H	1.595086	-0.022434	-1.122940	1
H	1.450976	1.118766	1.573680	1
H	2.745145	0.455606	0.854580	1
Es	0.537626	0.116734	0.161655	99
Es	-0.960888	-0.425457	0.182982	99
Es	-0.558972	0.733553	0.244627	99
Es	-0.238767	-1.732489	-0.124924	99
Es	1.207262	0.426819	0.393855	99
Es	-0.559357	-0.016097	-0.079787	99
Es	-0.643585	-1.323960	-0.173254	99
Es	-0.328096	0.635024	0.335624	99
Es	-0.549813	-1.566926	-0.212965	99
Es	1.418839	0.688004	0.463390	99
Es	0.168159	1.094013	0.342565	99
Es	0.083380	0.315764	0.161076	99
Es	-0.537871	-0.095904	0.102458	99
Es	-0.736964	1.398255	0.457589	99
Es	-0.063662	-1.579849	-0.065699	99
Es	-0.560887	-1.529453	-0.177273	99
Es	1.004596	0.513789	0.229958	99
Es	-0.492453	-1.771999	-0.187259	99
Es	-0.733637	-0.746164	-0.034994	99
Es	1.226905	0.390514	0.340054	99
Es	-0.129591	-1.586574	-0.268609	99
Es	-0.263477	-0.582114	0.296403	99
Es	0.658834	0.290435	0.202288	99
Es	-0.400561	-0.166632	0.160393	99
Es	1.438242	0.577557	0.636675	99
Es	-0.495989	0.344988	0.083621	99
Es	-0.892069	1.076677	0.225385	99
Es	0.496447	1.226949	0.385887	99
Es	-0.037117	-0.156891	0.251988	99
