41
Properties=species:S:1:pos:R:3:Z:I:1 energy=-359.86417803834706 field_type=dipole dipole="0.000000 0.000000 0.000000" charge=0
C	-2.107287	-0.446574	0.102566	6
C	-0.687357	-0.687114	-0.335204	6
O	-0.263627	-1.826674	-0.543334	8
C	0.161803	0.550386	-0.598034	6
N	1.555733	0.242576	-0.350374	7
C	2.117473	0.475046	0.877286	6
O	1.574673	1.064666	1.799426	8
H	-2.652657	0.064006	-0.694834	1
H	-2.114307	0.159216	1.012476	1
H	-2.594727	-1.401794	0.315756	1
H	-0.164117	1.371756	0.045956	1
H	0.050383	0.835316	-1.647204	1
H	1.986193	-0.466314	-0.934054	1
H	3.137823	0.065506	0.949576	1
Es	1.754024	-0.090616	-0.568233	99
Es	1.941413	0.542447	0.812593	99
Es	1.195612	0.253511	-0.148857	99
Es	-0.232434	-0.448679	-0.539103	99
Es	1.057219	0.706834	0.682106	99
Es	-0.661823	-0.478979	-0.356934	99
Es	-0.974417	-0.479701	-0.240790	99
Es	-0.099709	-1.531573	-0.653830	99
Es	2.067033	0.783364	1.042699	99
Es	-0.189491	-1.220166	-0.627658	99
Es	-0.344236	-0.406852	-0.438046	99
Es	1.556711	1.137848	1.766586	99
Es	1.457144	0.607326	0.375148	99
Es	-0.325488	-1.438589	-0.579217	99
Es	-1.566735	-0.600696	-0.227356	99
Es	-1.878842	-0.172311	0.282643	99
Es	1.380638	0.275611	-0.283108	99
Es	0.841811	0.726834	0.449091	99
Es	-1.934801	-0.328191	0.288714	99
Es	1.576816	0.973657	1.353160	99
Es	-0.589815	-1.642470	-0.715493	99
Es	-2.436164	-0.697745	-0.123604	99
Es	1.555330	0.852190	1.190943	99
Es	-0.992620	-0.415086	-0.274161	99
Es	2.548647	0.318999	0.958693	99
Es	-0.317118	-0.254603	-0.396123	99
Es	1.655209	0.729137	0.721632	99
