44
Properties=species:S:1:pos:R:3:Z:I:1 energy=-304.1265011758483 field_type=dipole dipole="0.000000 0.000000 0.000000" charge=0
C	-1.205649	-0.707359	-0.687381	6
N	-1.260969	0.779531	-0.583931	7
C	-0.021209	1.092091	0.182579	6
C	1.216861	0.711121	-0.662461	6
N	1.270361	-0.777149	-0.565641	7
C	0.019131	-1.093169	0.176579	6
C	-0.010469	-0.002819	1.232549	6
H	-1.104999	-1.028029	-1.729031	1
H	-2.124709	-1.135990	-0.272901	1
H	-2.069349	1.033141	-0.016461	1
H	-0.004979	2.115471	0.562779	1
H	2.129101	1.137380	-0.230381	1
H	1.134561	1.037060	-1.704731	1
H	2.069231	-1.033019	0.013649	1
H	-0.004599	-2.118519	0.551819	1
H	-0.909809	-0.023629	1.858829	1
H	0.877491	0.013891	1.874129	1
Es	-1.124054	-0.600378	-0.148489	99
Es	0.467255	-0.433471	-0.059877	99
Es	-0.774314	0.626910	-0.081595	99
Es	-0.375914	0.282617	-0.096847	99
Es	0.799980	0.390632	-0.087603	99
Es	-0.603292	-0.535606	-0.351312	99
Es	0.454470	-0.727239	-0.003850	99
Es	0.057859	0.139591	0.005315	99
Es	0.201377	-0.175386	-0.119243	99
Es	0.855369	-0.102430	-0.155944	99
Es	-0.509715	0.344987	-0.166617	99
Es	-0.223696	-0.615114	0.026518	99
Es	0.580534	-0.383659	-0.098622	99
Es	0.946109	-0.050309	-0.147673	99
Es	-0.910111	0.272714	-0.133189	99
Es	0.581930	0.772941	-0.155203	99
Es	0.388715	0.247614	-0.000113	99
Es	-0.634376	-0.155949	0.071046	99
Es	-0.548998	-0.636629	-0.218974	99
Es	0.988823	0.413004	-0.247907	99
Es	0.156012	1.014003	0.020386	99
Es	0.965190	-0.193739	-0.279680	99
Es	-1.016382	0.523414	-0.157454	99
Es	0.544381	-0.376146	-0.034515	99
Es	-0.881685	-0.283304	-0.110831	99
Es	0.910278	-0.339599	-0.137836	99
Es	-1.269003	0.587897	-0.244950	99
