42
Properties=species:S:1:pos:R:3:Z:I:1 energy=-339.88486464318044 field_type=dipole dipole="0.000000 0.000000 0.000000" charge=0
C	-2.300728	-0.350537	0.291911	6
N	-0.884908	-0.515637	0.608791	7
C	-0.159279	-1.298957	-0.383269	6
C	0.000841	0.202693	-0.314179	6
C	1.199192	0.777593	0.322511	6
N	2.263881	0.893343	-0.400489	7
O	3.278412	1.463023	0.378821	8
H	-2.680728	0.555483	0.775051	1
H	-2.866108	-1.200077	0.688571	1
H	-2.518619	-0.274867	-0.780479	1
H	-0.702538	-1.720437	-1.219979	1
H	0.646461	-1.917697	-0.005709	1
H	-0.448598	0.801713	-1.097619	1
H	1.142802	1.094343	1.378631	1
H	4.029922	1.490013	-0.242559	1
Es	-0.171383	-0.430832	-0.145869	99
Es	-0.759640	-0.687475	0.221523	99
Es	1.164918	0.758439	0.262492	99
Es	-0.484201	-0.374985	-0.041901	99
Es	0.151481	-0.286073	-0.300949	99
Es	-1.781321	-0.272050	0.458772	99
Es	2.437794	0.968529	-0.047890	99
Es	-2.323073	-0.360491	0.318030	99
Es	-0.170117	-1.282617	-0.369076	99
Es	0.602397	0.377723	-0.091254	99
Es	-2.593215	-0.881594	0.446315	99
Es	3.184196	1.408566	0.328592	99
Es	-1.479129	-0.396617	0.189699	99
Es	1.817638	1.054784	-0.074675	99
Es	1.354254	0.922232	0.441022	99
Es	0.017698	-0.108007	-0.278894	99
Es	2.448600	0.764723	-0.378399	99
Es	3.244699	1.491443	0.316424	99
Es	-0.540595	-1.392243	-0.589700	99
Es	2.424286	1.016156	-0.129056	99
Es	0.011048	-0.773439	-0.219001	99
Es	3.618237	1.453678	0.192191	99
Es	-0.752590	-0.450992	0.152643	99
Es	3.231585	1.454102	0.348570	99
Es	1.761461	0.954918	0.198242	99
Es	-2.413943	0.115371	0.513234	99
Es	-1.400845	-0.424066	0.148606	99
