46
Properties=species:S:1:pos:R:3:Z:I:1 energy=-325.11343714729503 field_type=dipole dipole="0.000000 0.000000 0.000000" charge=0
C	-0.740331	-1.896696	-1.375872	6
N	-0.642231	-1.295476	-0.051092	7
C	0.265829	-0.146976	-0.096882	6
C	-0.513491	1.130054	-0.484262	6
C	0.247419	1.846904	0.652948	6
C	0.390819	0.462284	1.335448	6
O	1.625019	0.208544	2.035938	8
H	-1.440251	-2.737296	-1.342292	1
H	0.228429	-2.278286	-1.714812	1
H	-1.120441	-1.182776	-2.113772	1
H	-0.341071	-2.010976	0.612728	1
H	1.223549	-0.297716	-0.607842	1
H	-1.598341	1.096594	-0.321372	1
H	-0.321011	1.514594	-1.489812	1
H	1.197289	2.295974	0.341958	1
H	-0.332921	2.589574	1.206708	1
H	-0.459301	0.247224	1.997208	1
H	2.331039	0.454444	1.415078	1
Es	0.589505	1.787890	1.012028	99
Es	-0.918007	-1.531248	-1.709750	99
Es	1.028556	0.337225	1.689606	99
Es	0.330005	0.505436	0.657832	99
Es	-0.782903	-2.204760	-1.396551	99
Es	-0.550964	1.208281	-0.601480	99
Es	1.596416	0.271956	2.195283	99
Es	0.497268	1.202938	1.030156	99
Es	-0.496801	-1.253805	-0.343519	99
Es	0.275285	2.107860	0.757045	99
Es	-0.421995	1.312944	-0.520984	99
Es	-0.760075	0.946887	-0.692969	99
Es	-0.130927	-0.792571	-0.123467	99
Es	0.402867	0.049881	0.482181	99
Es	-0.468084	-1.040714	-0.164760	99
Es	-0.689552	-2.143633	-1.321863	99
Es	0.863998	0.559116	1.460182	99
Es	-0.345457	-1.705338	-0.017268	99
Es	-0.109653	-0.465460	-0.059475	99
Es	0.699489	0.339743	1.632301	99
Es	0.384405	0.587352	0.656884	99
Es	-0.662266	-1.766663	-1.046103	99
Es	-0.232595	1.417195	-0.042032	99
Es	1.636709	0.222605	1.934368	99
Es	0.382354	1.200476	0.849583	99
Es	-0.659196	-1.602063	-0.626714	99
Es	1.753962	0.104972	1.941212	99
Es	-0.371501	0.660776	-0.374482	99
