46
Properties=species:S:1:pos:R:3:Z:I:1 energy=-325.11137603068676 field_type=dipole dipole="0.000000 0.000000 0.000000" charge=0
C	-1.751403	-1.530092	-0.139709	6
N	-0.357403	-1.183322	0.108101	7
C	-0.089973	0.257808	-0.018179	6
C	-0.879514	1.108258	0.981891	6
C	1.387587	0.436998	0.221461	6
C	2.364926	0.540478	-0.923089	6
O	1.915077	1.701658	-0.212129	8
H	-1.855833	-2.619582	-0.145909	1
H	-2.096573	-1.155692	-1.109059	1
H	-2.409113	-1.155042	0.650691	1
H	0.220507	-1.680472	-0.569199	1
H	-0.338813	0.585678	-1.036959	1
H	-0.704803	0.778708	2.010461	1
H	-1.954003	1.071818	0.783091	1
H	-0.573533	2.157088	0.917561	1
H	1.728677	0.053548	1.174130	1
H	2.009247	0.412388	-1.936639	1
H	3.384947	0.219768	-0.756509	1
Es	-1.684369	-1.568696	-0.243603	99
Es	-0.866486	-1.318011	0.100658	99
Es	-0.813000	1.377142	0.925129	99
Es	0.510812	0.419544	0.378618	99
Es	-1.202274	-1.176844	-0.271932	99
Es	1.927050	1.060739	-0.306301	99
Es	2.056930	1.787095	-0.236658	99
Es	-2.181057	-1.322681	0.334520	99
Es	2.054384	0.645028	-0.509728	99
Es	-0.193558	-0.095136	-0.064090	99
Es	1.819794	0.871592	-0.320820	99
Es	1.824745	0.528428	-0.463570	99
Es	-0.382688	-0.274629	-0.016238	99
Es	1.733411	1.626835	-0.288103	99
Es	-1.755192	-2.049703	-0.147803	99
Es	-0.990782	-1.313826	-0.075383	99
Es	-0.183000	-0.138943	-0.219202	99
Es	1.653176	0.293752	-0.340801	99
Es	2.260343	0.546399	-0.732933	99
Es	-0.835644	1.029550	1.016356	99
Es	2.903976	0.424549	-0.939481	99
Es	-0.724282	1.344792	1.029568	99
Es	-0.259708	-1.311680	-0.167707	99
Es	1.890517	1.569969	-0.066031	99
Es	-1.261078	0.844692	1.188829	99
Es	-0.285365	0.589865	0.409355	99
Es	-0.277635	-0.603730	-0.034579	99
Es	1.526953	0.844350	0.074707	99
