46
Properties=species:S:1:pos:R:3:Z:I:1 energy=-325.1623844605827 field_type=dipole dipole="0.000000 0.000000 0.000000" charge=0
C	-0.682787	-2.036684	0.543767	6
N	-0.841347	-0.687834	1.071897	7
C	-0.486017	0.345286	0.078947	6
C	-0.921977	1.711346	0.599687	6
C	1.031083	0.364276	-0.151253	6
C	1.495623	0.346796	-1.583593	6
O	1.836573	0.358496	0.782607	8
H	-0.986667	-2.760604	1.305087	1
H	0.354843	-2.253784	0.273177	1
H	-1.320237	-2.193914	-0.331953	1
H	-0.219107	-0.571814	1.877877	1
H	-1.000507	0.147806	-0.868513	1
H	-0.438427	1.954876	1.553327	1
H	-2.006417	1.746026	0.750247	1
H	-0.654007	2.499996	-0.111213	1
H	0.985493	1.130716	-2.147503	1
H	1.281863	-0.632164	-2.019293	1
H	2.572013	0.531176	-1.623303	1
Es	0.093044	-0.259726	0.622999	99
Es	1.527895	0.060639	-1.056002	99
Es	1.297217	0.398269	-0.410282	99
Es	1.607070	0.614409	-0.998394	99
Es	-0.878446	1.411947	0.497523	99
Es	-0.637950	-0.512474	0.775457	99
Es	-0.472961	-0.343739	0.622691	99
Es	-0.749264	1.967402	0.326879	99
Es	-0.615506	-0.447694	0.638624	99
Es	1.492261	0.423663	-0.550777	99
Es	-0.508915	0.032697	0.451942	99
Es	0.047613	0.875945	0.508682	99
Es	1.191644	0.330280	-0.016434	99
Es	-0.726217	0.365012	0.746462	99
Es	1.555750	0.466291	-1.026200	99
Es	-0.678218	-1.257925	0.792964	99
Es	-0.491325	-2.118716	0.463095	99
Es	0.112999	0.904816	0.440724	99
Es	1.466958	0.225963	-0.870477	99
Es	0.770703	0.473100	0.180474	99
Es	-0.743471	-1.819641	0.692678	99
Es	1.133390	0.458870	-0.154937	99
Es	-0.281126	-1.475609	0.302882	99
Es	1.336626	0.264312	-0.276435	99
Es	-0.748629	-1.504602	0.844157	99
Es	0.393695	0.501706	0.089477	99
Es	-1.014067	1.208545	0.670456	99
Es	-0.371223	-0.212530	0.639728	99
