46
Properties=species:S:1:pos:R:3:Z:I:1 energy=-325.1518002164531 field_type=dipole dipole="0.000000 0.000000 0.000000" charge=0
C	-2.425912	-0.832918	0.812881	6
N	-0.968042	-0.850158	0.743661	7
C	-0.469062	0.395282	0.144801	6
C	1.063768	0.440932	0.096521	6
C	1.679698	-0.660778	-0.763609	6
C	1.530047	1.780892	-0.447339	6
O	0.786278	2.672052	-0.845799	8
H	-2.781162	-1.772468	1.247241	1
H	-2.872082	-0.733228	-0.182309	1
H	-2.783632	-0.018008	1.450181	1
H	-0.684362	-1.644758	0.172191	1
H	-0.826602	1.246332	0.738631	1
H	-0.875813	0.511382	-0.867799	1
H	1.464718	0.364882	1.114971	1
H	1.305838	-0.614428	-1.792659	1
H	1.460837	-1.655088	-0.362649	1
H	2.770188	-0.559718	-0.807439	1
H	2.625298	1.929802	-0.451469	1
Es	-2.657711	-1.374527	1.016189	99
Es	1.138196	2.382854	-0.564520	99
Es	1.349779	0.059419	-0.199730	99
Es	1.183308	1.561126	-0.293676	99
Es	1.914839	-0.560813	-0.712822	99
Es	-0.919912	-0.905730	0.522088	99
Es	-0.434677	0.012753	0.109057	99
Es	1.442145	-0.473000	-0.307815	99
Es	1.284258	-0.032014	-0.569823	99
Es	1.292265	2.272430	-0.682163	99
Es	0.882522	2.486913	-0.659056	99
Es	-0.435591	-0.384327	0.415314	99
Es	-0.446444	0.571073	0.200822	99
Es	1.280561	1.732898	-0.499842	99
Es	1.578688	-0.708736	-0.485956	99
Es	-0.430033	0.356360	0.106736	99
Es	1.881020	1.917379	-0.627211	99
Es	-0.970864	-0.877354	0.561774	99
Es	-2.516270	-0.648044	0.798338	99
Es	-1.693689	-0.800742	0.728587	99
Es	0.950992	2.474253	-0.760082	99
Es	-2.031869	-0.724847	0.727826	99
Es	-0.709706	0.738982	0.201738	99
Es	0.781018	2.740731	-0.840185	99
Es	1.961938	-0.896198	-0.641556	99
Es	1.202862	0.197334	-0.207142	99
Es	-2.641132	-0.467202	0.879884	99
Es	-1.054751	-0.766018	0.656231	99
