45
Properties=species:S:1:pos:R:3:Z:I:1 energy=-288.1143523217748 field_type=dipole dipole="0.000000 0.000000 0.000000" charge=0
C	-1.944729	0.819199	-0.223868	6
C	-0.596659	0.458229	0.309282	6
C	-0.336219	-0.987981	0.657082	6
C	0.815531	-1.391571	-0.272418	6
C	1.649021	-0.116461	-0.448028	6
C	0.642681	0.992009	-0.355288	6
N	0.209511	1.508429	0.933022	7
H	-1.999789	1.869789	-0.529918	1
H	-2.711369	0.651069	0.540092	1
H	-2.190859	0.203499	-1.095938	1
H	-1.210169	-1.626971	0.492842	1
H	-0.038389	-1.085521	1.708122	1
H	1.401121	-2.228070	0.118962	1
H	0.405711	-1.690751	-1.244988	1
H	2.399791	-0.029351	0.346162	1
H	2.167661	-0.116651	-1.411988	1
H	0.561911	1.630669	-1.221718	1
H	0.775241	1.140429	1.698582	1
Es	-2.135688	0.730912	0.154463	99
Es	-0.705858	-1.274063	0.367961	99
Es	-0.916679	0.600950	0.160825	99
Es	0.392152	0.849337	0.058948	99
Es	0.882585	-1.710319	-0.033480	99
Es	-0.108669	0.846616	0.315250	99
Es	-0.097090	1.567936	0.824759	99
Es	-1.363958	0.747795	-0.153632	99
Es	1.264073	0.321123	-0.107203	99
Es	0.269286	0.943054	0.043434	99
Es	-0.309963	-0.480396	0.433516	99
Es	1.456422	-0.084971	-0.440363	99
Es	0.125335	-1.063026	-0.072684	99
Es	0.037026	-0.233317	0.167928	99
Es	1.157051	0.433813	-0.211584	99
Es	1.196742	-0.810711	-0.173623	99
Es	0.170946	1.203551	0.481239	99
Es	0.171788	1.095025	0.272194	99
Es	-2.022259	0.969401	-0.057118	99
Es	-0.472219	-0.596844	0.425749	99
Es	-1.228848	0.935094	0.085160	99
Es	-1.495398	0.734420	0.005666	99
Es	0.471708	-1.317516	-0.052845	99
Es	1.166162	-0.931036	-0.239726	99
Es	0.491620	1.191945	0.280759	99
Es	1.967500	-0.093334	-0.475898	99
Es	0.792225	-0.425013	-0.041684	99
