45
Properties=species:S:1:pos:R:3:Z:I:1 energy=-341.17588432278825 field_type=dipole dipole="0.000000 0.000000 0.000000" charge=0
C	-1.669130	0.954108	-0.212644	6
N	-0.424860	0.703078	0.488936	7
C	0.820400	0.689618	-0.276983	6
C	1.070520	-0.637442	-1.016653	6
N	1.167680	-1.781712	-0.108093	7
C	-0.441940	0.292208	1.807307	6
O	-1.442800	0.134748	2.494906	8
H	-2.516350	0.999548	0.477567	1
H	-1.842720	0.149988	-0.933003	1
H	-1.591740	1.909408	-0.740263	1
H	1.654140	0.881808	0.409046	1
H	0.790660	1.518238	-0.993213	1
H	2.005270	-0.558002	-1.581424	1
H	0.266490	-0.824812	-1.736513	1
H	0.267940	-1.909712	0.359077	1
H	1.318470	-2.632142	-0.650553	1
H	0.567970	0.111078	2.212507	1
Es	-0.878709	0.259702	2.027295	99
Es	-1.645769	0.181824	2.274563	99
Es	0.965630	-0.247751	-0.732696	99
Es	-1.396388	0.155068	2.508509	99
Es	-0.278612	0.680740	-0.235693	99
Es	1.114330	-1.304666	-0.244833	99
Es	0.969462	-1.151064	-0.201025	99
Es	1.310222	-0.343226	-0.996339	99
Es	1.082181	-0.997963	-0.460953	99
Es	-1.762483	1.239582	-0.143239	99
Es	-0.277232	0.777806	-0.478193	99
Es	1.007140	-0.261376	-0.805221	99
Es	-0.588985	0.442563	1.079498	99
Es	-1.470697	1.218167	-0.280725	99
Es	-0.677169	0.650485	0.382986	99
Es	-0.861252	0.319802	1.858313	99
Es	0.785869	0.118719	-0.850724	99
Es	-0.542220	0.791257	0.076812	99
Es	-0.838778	0.308770	1.622648	99
Es	0.924798	-0.227182	-0.475975	99
Es	1.085871	-1.508097	-0.266312	99
Es	-0.699657	0.715957	0.269056	99
Es	-0.890120	0.800683	0.031239	99
Es	-0.936246	0.134275	2.040981	99
Es	1.145693	-1.360889	-0.322214	99
Es	1.420850	-1.645150	0.097819	99
Es	-0.828962	0.490982	1.112023	99
Es	-0.789609	0.208554	2.190509	99
