43
Properties=species:S:1:pos:R:3:Z:I:1 energy=-323.98726430014233 field_type=dipole dipole="0.000000 0.000000 0.000000" charge=0
C	-1.279542	-0.756193	-0.855809	6
N	-0.145952	-0.780333	0.057071	7
C	0.357228	-2.097833	0.411811	6
C	0.592908	0.328767	0.447761	6
O	1.548098	0.258897	1.218801	8
C	0.200818	1.647177	-0.127899	6
C	0.674508	2.784387	0.399001	6
H	-1.889962	0.135637	-0.699969	1
H	-1.912562	-1.631683	-0.684219	1
H	-0.901712	-0.772363	-1.881979	1
H	-0.464312	-2.698753	0.812961	1
H	1.152348	-2.052573	1.160481	1
H	0.750928	-2.573493	-0.491549	1
H	-0.433152	1.683687	-1.001309	1
H	1.335168	2.777607	1.261841	1
H	0.415188	3.747067	-0.026999	1
Es	0.367922	0.976092	0.166600	99
Es	0.228454	-0.214733	0.245351	99
Es	0.456419	2.208519	0.138591	99
Es	-0.249365	1.660455	-0.705582	99
Es	-0.721024	-0.799516	-0.375959	99
Es	-0.108387	-0.678737	0.150809	99
Es	0.316443	-2.275342	0.238013	99
Es	-1.277007	-0.763172	-0.904963	99
Es	0.707561	3.245906	0.366672	99
Es	0.193334	-2.339739	0.349112	99
Es	0.231188	-2.369344	0.314693	99
Es	1.518254	0.292763	1.194371	99
Es	1.682582	0.029208	1.379364	99
Es	0.528570	0.308020	0.393163	99
Es	0.044491	-1.220864	0.126783	99
Es	-0.212747	-0.820932	-0.002186	99
Es	1.270975	0.273068	1.110061	99
Es	0.766949	2.603280	0.630304	99
Es	1.352200	0.224160	0.871891	99
Es	1.434484	0.512455	1.157581	99
Es	0.603199	2.326839	0.254594	99
Es	0.214306	1.597793	-0.103749	99
Es	-1.405097	-0.654193	-0.839156	99
Es	0.885458	-2.061297	0.909452	99
Es	0.627258	2.958442	0.331425	99
Es	-1.449654	-1.034421	-0.961360	99
Es	-1.355595	-0.639227	-1.061723	99
