42
Properties=species:S:1:pos:R:3:Z:I:1 energy=-339.9710525551836 field_type=dipole dipole="0.000000 0.000000 0.000000" charge=0
C	-1.711480	0.100047	-0.322274	6
N	-0.272609	0.345847	-0.410774	7
C	0.561400	-0.861743	-0.441344	6
C	0.904591	-1.313513	0.960816	6
O	0.567370	-2.400603	1.424566	8
C	0.223460	1.553387	0.005306	6
N	1.446701	1.938477	0.065716	7
H	-2.274420	0.981817	-0.646464	1
H	-1.996840	-0.138003	0.707656	1
H	-2.011029	-0.729473	-0.971094	1
H	1.493011	-0.680623	-0.988934	1
H	0.046170	-1.679793	-0.958274	1
H	1.507821	-0.608133	1.557616	1
H	-0.562180	2.259757	0.327096	1
H	2.078030	1.232547	-0.309614	1
Es	0.667977	-1.934958	1.067394	99
Es	-0.141460	-0.678884	-0.463432	99
Es	1.184326	-0.821088	0.448557	99
Es	0.957708	-0.878806	0.148506	99
Es	0.927370	1.654516	0.245849	99
Es	1.216131	1.852577	-0.011854	99
Es	0.630687	-1.068766	0.342751	99
Es	0.776637	-2.143064	1.314564	99
Es	-1.859402	-0.452963	-0.580851	99
Es	1.508858	2.236873	0.187616	99
Es	0.648130	-1.134547	0.203065	99
Es	-0.196221	0.812192	-0.268282	99
Es	-1.735619	0.132856	-0.204302	99
Es	-1.202196	0.200611	-0.342204	99
Es	0.869082	-1.244409	0.522212	99
Es	1.811033	1.548719	-0.111434	99
Es	-0.150362	1.303746	-0.175350	99
Es	-0.017593	-0.195309	-0.344388	99
Es	-0.184326	0.378754	-0.224482	99
Es	0.665054	-2.026496	1.242047	99
Es	-0.122045	1.093357	-0.233847	99
Es	-1.534574	0.565049	-0.269936	99
Es	1.132695	1.870622	-0.114868	99
Es	0.512856	-2.499994	1.330949	99
Es	-0.996197	-0.069647	-0.387104	99
Es	0.559724	-2.471078	1.480494	99
Es	-0.273359	1.137206	-0.128156	99
