43
Properties=species:S:1:pos:R:3:Z:I:1 energy=-324.0060863206764 field_type=dipole dipole="0.000000 0.000000 0.000000" charge=0
C	-2.155619	1.356349	0.814848	6
N	-0.808929	0.995419	0.459768	7
C	-0.546289	-0.178311	-0.201982	6
O	-1.409839	-0.977031	-0.545782	8
C	0.905781	-0.475621	-0.406692	6
C	1.270691	-1.929651	-0.385332	6
C	1.799621	0.496909	-0.652082	6
H	-2.162949	2.395029	1.152898	1
H	-2.498939	0.700239	1.619068	1
H	-2.812189	1.241529	-0.052392	1
H	-0.043179	1.500769	0.885698	1
H	0.747671	-2.470731	-1.180512	1
H	1.001351	-2.376521	0.577118	1
H	2.344991	-2.082671	-0.533202	1
H	1.520821	1.542549	-0.725922	1
H	2.847001	0.261739	-0.825502	1
Es	-1.159199	-0.860090	-0.593752	99
Es	-1.564774	-1.209825	-0.553532	99
Es	-2.203507	1.299396	0.828287	99
Es	1.452808	-1.552971	-0.445176	99
Es	-2.301912	1.235176	0.849237	99
Es	0.987373	-0.371622	-0.397411	99
Es	0.877351	-1.966359	-0.230609	99
Es	-0.515797	-0.161657	-0.187900	99
Es	1.621502	1.148136	-0.684511	99
Es	-1.279141	1.141834	0.515906	99
Es	1.444064	-2.005337	-0.373224	99
Es	-0.571859	1.099527	0.628487	99
Es	-2.372644	1.702274	0.963268	99
Es	1.435688	-1.901906	-0.354670	99
Es	1.082677	-2.138235	-0.571919	99
Es	1.253456	-0.045776	-0.647478	99
Es	-1.344858	-0.888501	-0.515866	99
Es	-2.337519	1.400250	0.739534	99
Es	-0.890302	0.929040	0.451565	99
Es	-0.727630	0.417948	0.330466	99
Es	-1.403441	-0.854843	-0.561879	99
Es	-0.585449	1.195146	0.414196	99
Es	0.173515	-0.300136	-0.306983	99
Es	2.461440	0.362668	-0.752625	99
Es	1.829312	0.497173	-0.633504	99
Es	1.319241	0.016815	-0.383236	99
Es	-1.090897	-0.720354	-0.305085	99
