38
Properties=species:S:1:pos:R:3:Z:I:1 energy=-358.5966855983616 field_type=dipole dipole="0.000000 0.000000 0.000000" charge=0
C	-0.607677	-1.902232	0.291227	6
O	-1.333787	-0.718122	0.001917	8
C	-0.562457	0.382688	-0.125533	6
N	-1.210837	1.515338	-0.397533	7
O	-0.223767	2.486938	-0.480103	8
C	0.986364	1.914808	-0.256503	6
C	0.828173	0.572948	-0.024753	6
H	-1.324027	-2.725472	0.372927	1
H	-0.081537	-1.820892	1.248787	1
H	0.091123	-2.146322	-0.516523	1
H	1.832623	2.584528	-0.297213	1
H	1.605803	-0.144212	0.183307	1
Es	-1.303483	-0.716104	-0.029736	99
Es	0.110112	0.419395	-0.039428	99
Es	-1.002156	-0.289054	-0.038502	99
Es	-1.089408	-2.470005	0.346020	99
Es	-1.005438	1.071241	-0.323314	99
Es	-0.077894	-1.923506	0.332679	99
Es	-1.568462	-0.711550	-0.105380	99
Es	-0.025631	2.377257	-0.377293	99
Es	1.454885	2.302877	-0.291340	99
Es	-1.079620	-1.159723	0.147129	99
Es	-1.466716	1.580908	-0.451176	99
Es	-0.564243	0.382025	-0.125212	99
Es	0.965998	1.239839	-0.154722	99
Es	-0.253821	2.648162	-0.470746	99
Es	-0.878783	1.693811	-0.402695	99
Es	0.284712	2.292766	-0.491771	99
Es	-0.360091	-1.944026	0.335611	99
Es	-0.539166	-1.912968	0.304442	99
Es	0.825589	0.579282	-0.025670	99
Es	-0.475337	2.269036	-0.445500	99
Es	-0.984645	1.219511	-0.307898	99
Es	0.650529	1.010490	-0.116638	99
Es	-0.584002	2.083613	-0.435608	99
Es	1.058670	1.984954	-0.263236	99
Es	-1.325633	-0.683434	0.066556	99
Es	1.320609	0.100257	0.112225	99
