46
Properties=species:S:1:pos:R:3:Z:I:1 energy=-325.0981524929998 field_type=dipole dipole="0.000000 0.000000 0.000000" charge=0
C	-1.111041	-2.325208	-1.141275	6
O	-0.849181	-1.737898	0.125065	8
C	0.019919	-0.580578	0.110785	6
C	-0.575351	0.755312	-0.391695	6
N	0.005679	1.458202	0.772255	7
C	1.297199	2.052162	0.426715	6
C	0.196029	0.158632	1.456145	6
H	-1.760471	-3.191748	-0.995045	1
H	-0.176541	-2.655738	-1.602785	1
H	-1.617611	-1.608428	-1.793005	1
H	0.984509	-0.825848	-0.355015	1
H	-1.671701	0.775672	-0.397765	1
H	-0.229681	1.079872	-1.379255	1
H	1.793629	2.415431	1.333505	1
H	1.144489	2.918772	-0.225815	1
H	1.982739	1.363512	-0.081065	1
H	1.160709	0.006602	1.952435	1
H	-0.593321	-0.058718	2.185815	1
Es	-0.551707	-1.265424	0.065017	99
Es	-0.704011	-2.015065	0.245065	99
Es	0.617312	1.184813	0.611153	99
Es	-0.789146	-1.692642	0.077245	99
Es	0.604614	1.759778	0.584461	99
Es	0.633707	0.411089	1.432645	99
Es	0.326732	0.970260	0.891131	99
Es	-1.229487	-2.107264	-1.359553	99
Es	0.085456	0.393778	1.392956	99
Es	0.562697	1.622813	0.593154	99
Es	-0.934247	-1.982311	-0.497398	99
Es	0.079086	0.462742	0.386365	99
Es	1.167256	2.102053	0.815252	99
Es	-0.867418	-1.821812	-0.135686	99
Es	-0.933181	-2.102756	-0.722117	99
Es	0.046620	0.296484	0.472971	99
Es	1.177582	2.161396	0.612739	99
Es	-0.121660	0.890347	-0.230599	99
Es	-0.197972	-0.185791	-0.089079	99
Es	1.128816	2.458785	0.015711	99
Es	-0.399290	0.334825	-0.148350	99
Es	-1.091404	-2.081563	-1.438726	99
Es	-0.066058	0.273717	0.169520	99
Es	-0.110700	-0.149931	0.231871	99
Es	-0.104073	0.545094	0.349879	99
Es	0.213552	0.158908	1.388138	99
Es	-1.522072	-2.921991	-1.030772	99
Es	-0.540174	0.779641	-0.595308	99
