46
Properties=species:S:1:pos:R:3:Z:I:1 energy=-325.1033028381376 field_type=dipole dipole="0.000000 0.000000 0.000000" charge=0
C	-2.749790	-0.412808	0.999054	6
O	-1.334070	-0.542468	1.000554	8
C	-0.772130	-0.198549	-0.265726	6
C	0.731360	-0.351358	-0.171756	6
C	1.543911	0.154412	-1.380186	6
N	2.549790	0.689492	-0.433886	7
C	1.496000	0.735042	0.609984	6
H	-3.124310	-0.713118	1.981424	1
H	-3.194810	-1.064828	0.240994	1
H	-3.037490	0.627261	0.818004	1
H	-1.052000	0.829272	-0.525036	1
H	-1.169420	-0.874228	-1.031836	1
H	1.023650	-1.369598	0.124514	1
H	1.057020	0.934312	-1.977826	1
H	1.917390	-0.620668	-2.055736	1
H	3.288950	0.019762	-0.216026	1
H	1.831481	0.449892	1.611414	1
H	0.994461	1.708182	0.672074	1
Es	0.193560	-0.225096	-0.335629	99
Es	1.639707	0.254997	-1.491298	99
Es	-3.060260	-0.776869	0.468996	99
Es	-2.725148	-0.381523	0.986071	99
Es	0.913710	0.472863	0.345545	99
Es	1.419960	0.045260	-1.079384	99
Es	-0.985110	-0.319887	-0.334021	99
Es	2.852721	0.710459	-0.363126	99
Es	-1.904462	-0.314802	1.008672	99
Es	1.147819	-0.087255	-0.735253	99
Es	1.152414	0.596948	0.367868	99
Es	-0.772864	-0.219733	-0.137649	99
Es	-2.737743	-0.088676	1.099414	99
Es	2.325831	0.611261	-0.476664	99
Es	1.654161	0.594087	1.076964	99
Es	-1.369867	-0.381960	1.185072	99
Es	-2.940355	-0.472623	1.403361	99
Es	-1.354735	-0.614067	0.933109	99
Es	0.690925	-0.211273	-0.047715	99
Es	2.169703	0.260361	-1.268092	99
Es	1.646548	0.311070	-1.263672	99
Es	-1.058574	-0.523391	0.450053	99
Es	1.617719	0.634802	0.622109	99
Es	-1.215456	-0.403607	0.684375	99
Es	-0.566850	-0.277893	-0.477246	99
Es	0.316605	-0.263129	-0.390713	99
Es	2.558486	0.573758	-0.448981	99
Es	2.143202	0.586769	-0.034326	99
