49
Properties=species:S:1:pos:R:3:Z:I:1 energy=-326.31925027177226 field_type=dipole dipole="0.000000 0.000000 0.000000" charge=0
C	-2.608536	-1.232334	1.047104	6
O	-1.413206	-0.462814	1.029834	8
C	-0.516676	-0.905904	0.011334	6
C	0.749114	-0.035774	0.026024	6
C	1.762884	-0.589944	-0.979396	6
C	0.393284	1.434356	-0.261376	6
N	1.566604	2.305616	-0.219236	7
H	-3.251526	-0.852264	1.845704	1
H	-2.384866	-2.284484	1.248994	1
H	-3.139766	-1.135424	0.095224	1
H	-1.011896	-0.843434	-0.965286	1
H	-0.251986	-1.952484	0.202674	1
H	1.188564	-0.088764	1.031644	1
H	1.378174	-0.529454	-2.002936	1
H	1.986475	-1.640284	-0.764206	1
H	2.708884	-0.041074	-0.938196	1
H	-0.332436	1.800086	0.474254	1
H	-0.072876	1.522296	-1.249366	1
H	1.982394	2.260056	0.712094	1
H	1.267394	3.272026	-0.344886	1
Es	-2.540402	-1.577239	1.111469	99
Es	-0.491230	-0.497908	0.098276	99
Es	1.469577	2.243758	-0.040383	99
Es	-2.113504	-0.907859	0.860911	99
Es	0.373149	1.145408	0.079566	99
Es	-1.657919	-0.669656	0.878801	99
Es	-0.581648	-0.878617	0.102503	99
Es	1.663654	-0.661125	-1.029517	99
Es	-2.698273	-1.378678	0.992631	99
Es	-0.450840	-1.102523	-0.095933	99
Es	1.564584	2.311102	-0.236855	99
Es	1.635571	2.147900	-0.363531	99
Es	0.319851	1.219771	-0.229272	99
Es	1.496521	-0.459593	-0.933084	99
Es	1.146029	-0.243127	-0.452293	99
Es	0.624351	0.786727	0.074232	99
Es	-1.889341	-0.593921	0.839480	99
Es	-1.106103	-0.374940	0.703953	99
Es	0.667459	1.588542	-0.043531	99
Es	1.846749	-1.156598	-0.809084	99
Es	-1.427343	-0.865313	0.706300	99
Es	0.794594	1.697514	-0.323948	99
Es	-0.416039	-1.200303	0.050977	99
Es	1.537385	2.731912	-0.139697	99
Es	-1.408664	-0.541826	0.798701	99
Es	-2.977689	-1.068111	1.549408	99
Es	0.649894	0.687254	-0.214492	99
Es	0.918003	-0.124279	-0.378993	99
Es	2.372906	-0.224496	-1.022599	99
