45
Properties=species:S:1:pos:R:3:Z:I:1 energy=-341.1089840555504 field_type=dipole dipole="0.000000 0.000000 0.000000" charge=0
C	-0.917610	-2.021281	-0.675857	6
O	-1.218360	-1.127041	0.390173	8
C	-0.770460	0.200469	0.131233	6
C	-1.327661	1.098349	1.226583	6
C	0.745669	0.292289	0.157413	6
N	1.400079	0.728639	-0.872997	7
N	2.738949	0.733299	-0.689397	7
H	-1.397810	-2.980541	-0.461897	1
H	0.161549	-2.187571	-0.746857	1
H	-1.306311	-1.642501	-1.626327	1
H	-1.149151	0.541919	-0.839467	1
H	-1.010431	0.753709	2.217993	1
H	-2.422730	1.076569	1.219693	1
H	-0.995701	2.134369	1.102863	1
H	1.247300	-0.039321	1.086193	1
H	3.201149	0.962009	-1.573577	1
H	3.021529	1.476639	-0.045767	1
Es	2.790626	1.118894	-0.433288	99
Es	-0.312638	-2.130151	-0.727248	99
Es	0.247173	0.283880	0.067274	99
Es	-1.175423	-1.134839	0.122398	99
Es	-0.247564	0.237891	0.085274	99
Es	1.164490	0.502780	-0.315349	99
Es	-1.254887	0.243713	0.795486	99
Es	1.700702	0.711528	-0.596540	99
Es	-1.271335	-0.563617	0.306003	99
Es	-0.941937	-1.560118	-0.392382	99
Es	2.384999	0.647695	-0.682032	99
Es	-1.609871	0.257567	0.948009	99
Es	-1.208251	1.550722	1.154586	99
Es	-1.116606	-0.996377	0.358003	99
Es	-1.183260	1.130723	1.311033	99
Es	-0.063145	0.227855	-0.053696	99
Es	-1.256848	-2.482730	-0.756974	99
Es	-1.033405	-1.819148	-0.705128	99
Es	1.422840	0.646741	-0.593070	99
Es	0.868276	0.366920	-0.217200	99
Es	3.075600	0.779735	-1.005109	99
Es	2.408327	0.743586	-0.765768	99
Es	-1.155813	-0.325906	0.400910	99
Es	1.297200	0.602395	-0.384087	99
Es	2.116868	0.613372	-0.836274	99
Es	-0.978970	-1.861923	-0.443729	99
Es	-0.992429	0.478209	0.663719	99
Es	-1.283267	0.983655	1.470746	99
