40
Properties=species:S:1:pos:R:3:Z:I:1 energy=-322.74366703877877 field_type=dipole dipole="0.000000 0.000000 0.000000" charge=0
C	-0.664932	-2.098608	0.546522	6
O	-0.713032	-1.355058	-0.666498	8
N	-0.159222	-0.097218	-0.436928	7
C	-0.869652	1.009022	-0.074538	6
C	0.018698	2.060652	0.013392	6
C	1.300458	1.561792	-0.340018	6
C	1.152588	0.221542	-0.632318	6
H	-1.103902	-3.082338	0.358262	1
H	-1.250052	-1.607208	1.330952	1
H	0.369118	-2.242818	0.876892	1
H	-1.936252	0.954402	0.088602	1
H	-0.229572	3.078882	0.285832	1
H	2.224858	2.122722	-0.390798	1
H	1.860898	-0.525768	-0.959358	1
Es	-0.613452	1.271609	-0.043041	99
Es	0.002669	0.699890	-0.312619	99
Es	-0.131643	0.897634	-0.160240	99
Es	-0.166770	0.016738	-0.200148	99
Es	1.230787	0.899602	-0.585245	99
Es	0.863065	0.617821	-0.429551	99
Es	0.473812	0.960675	-0.347707	99
Es	-0.611516	-1.560460	-0.114299	99
Es	-0.653118	-1.547750	-0.123413	99
Es	0.000595	-0.074557	-0.418821	99
Es	-0.959804	-2.675448	0.423717	99
Es	-0.174703	1.853260	-0.048623	99
Es	-0.525144	-0.756588	-0.415151	99
Es	-0.913910	-1.641227	0.172739	99
Es	-0.761002	-1.572697	-0.045161	99
Es	0.534403	1.867531	-0.286321	99
Es	-0.544966	-1.945443	0.111058	99
Es	-0.045291	1.122458	-0.221690	99
Es	-0.677550	-1.672491	0.003754	99
Es	1.247559	1.517594	-0.395252	99
Es	-1.520583	0.961173	0.025003	99
Es	-0.159154	2.682538	0.155128	99
Es	0.306682	0.337453	-0.428374	99
Es	-0.291488	-1.841926	-0.080471	99
Es	1.604399	-0.290990	-0.819458	99
Es	1.878425	1.884451	-0.418214	99
