39
Properties=species:S:1:pos:R:3:Z:I:1 energy=-338.73650187505035 field_type=dipole dipole="0.000000 0.000000 0.000000" charge=0
C	-0.394259	-2.141734	0.469732	6
O	-0.736219	-1.311594	-0.632258	8
N	-0.153579	-0.067124	-0.437478	7
C	-0.818759	1.072196	-0.110888	6
C	0.134711	2.063676	-0.090718	6
C	1.333261	1.406996	-0.441108	6
N	1.154591	0.100766	-0.660708	7
H	-0.926909	-3.090534	0.356992	1
H	-0.703859	-1.688064	1.417522	1
H	0.679621	-2.355264	0.482602	1
H	-1.882999	1.072616	0.067032	1
H	-0.011319	3.110936	0.129642	1
H	2.325721	1.827126	-0.550368	1
Es	-0.313141	0.173443	-0.297133	99
Es	-0.196303	0.419422	-0.336520	99
Es	-0.663746	-1.520596	-0.151084	99
Es	0.916479	1.200017	-0.389128	99
Es	-1.498852	1.079813	0.004721	99
Es	-0.633832	-1.443070	-0.390962	99
Es	-0.147508	-2.065848	0.281586	99
Es	1.352574	-0.085170	-0.496985	99
Es	-0.314618	0.287183	-0.407311	99
Es	-0.371870	-0.942210	-0.325339	99
Es	0.212244	1.930674	-0.250424	99
Es	-0.383690	1.614053	-0.153039	99
Es	1.853947	1.523133	-0.635887	99
Es	-0.503365	-1.779104	0.010245	99
Es	0.484366	1.430664	-0.087005	99
Es	-0.712346	-1.240314	-0.246435	99
Es	0.195605	0.310493	-0.497471	99
Es	1.141376	0.104563	-0.653186	99
Es	1.278752	0.987823	-0.602064	99
Es	-0.178368	-2.023092	0.254964	99
Es	-0.824396	-1.472931	-0.125768	99
Es	-0.287387	0.674951	-0.254726	99
Es	0.273804	2.038851	-0.308102	99
Es	1.198092	0.457101	-0.492136	99
Es	-0.715406	-2.798582	0.382913	99
Es	0.046068	2.622851	0.021578	99
