41
Properties=species:S:1:pos:R:3:Z:I:1 energy=-359.71559471914475 field_type=dipole dipole="0.000000 0.000000 0.000000" charge=0
C	-1.569903	-2.414318	-0.362537	6
O	-0.268143	-1.840148	-0.381577	8
N	-0.397163	-0.444638	-0.315467	7
C	0.782217	0.077802	-0.344857	6
C	0.881896	1.542642	-0.291817	6
C	0.842297	2.259302	1.031093	6
O	2.077256	2.027852	0.342773	8
H	-1.469053	-3.501198	-0.421037	1
H	-2.149893	-2.066998	-1.223057	1
H	-2.083833	-2.156858	0.568553	1
H	1.711806	-0.512828	-0.412617	1
H	0.534457	2.073412	-1.169077	1
H	0.647216	1.683792	1.927663	1
H	0.460846	3.272182	1.051963	1
Es	-0.106874	-1.874326	-0.409563	99
Es	-0.625506	-1.925789	-0.450513	99
Es	-0.243504	-0.156281	-0.153134	99
Es	2.118616	2.022792	0.403150	99
Es	-0.532915	-1.878100	-0.266863	99
Es	1.885939	1.998336	0.383152	99
Es	-0.181747	-0.331030	-0.389394	99
Es	1.123217	2.132005	0.866923	99
Es	0.906710	1.341684	-0.259059	99
Es	0.833947	0.660760	-0.423148	99
Es	0.584628	2.881387	1.055863	99
Es	1.273964	1.924651	0.348126	99
Es	0.150015	-0.235585	-0.385663	99
Es	-1.655665	-2.265363	-0.508492	99
Es	-0.316691	-1.154145	-0.370674	99
Es	1.228587	0.288368	-0.517926	99
Es	-1.856204	-2.271383	0.161155	99
Es	0.696306	1.807001	0.556266	99
Es	-0.293648	-0.465461	-0.284521	99
Es	1.575054	1.897465	0.555673	99
Es	0.489047	-0.043857	-0.351358	99
Es	-1.585557	-2.578387	-0.365424	99
Es	2.076032	2.307454	0.272136	99
Es	-0.256874	-1.873051	-0.531566	99
Es	0.967630	1.876369	0.525919	99
Es	-1.631188	-2.813421	-0.644945	99
Es	1.023332	1.700599	0.167030	99
