43
Properties=species:S:1:pos:R:3:Z:I:1 energy=-323.90610376765477 field_type=dipole dipole="0.000000 0.000000 0.000000" charge=0
C	3.090383	-1.588779	0.190852	6
O	2.137303	-0.777229	-0.485268	8
N	0.911533	-0.878539	0.189413	7
C	0.026473	-0.188979	-0.454848	6
C	-1.401047	-0.121349	0.022512	6
C	-1.703027	1.288191	0.435093	6
C	-2.623447	2.064561	-0.152317	6
H	4.041252	-1.524579	-0.344007	1
H	2.761163	-2.632429	0.200092	1
H	3.235703	-1.229589	1.214683	1
H	0.275503	0.362221	-1.379107	1
H	-1.545017	-0.796209	0.871842	1
H	-2.046547	-0.450949	-0.798097	1
H	-1.135987	1.683881	1.276512	1
H	-3.222347	1.713431	-0.987247	1
H	-2.801897	3.076341	0.199892	1
Es	2.723695	-1.889756	0.050174	99
Es	1.671043	-0.884123	-0.273116	99
Es	0.126110	-0.246128	-0.513070	99
Es	2.648130	-1.324391	-0.109911	99
Es	1.901612	-0.860774	-0.360347	99
Es	2.241674	-0.874510	-0.305324	99
Es	-1.224188	-0.206785	0.023585	99
Es	3.735196	-1.549868	-0.148094	99
Es	-2.229522	1.776582	-0.006281	99
Es	-0.604677	-0.157305	-0.266330	99
Es	-1.398283	0.690729	0.469504	99
Es	-1.408708	0.591663	0.438860	99
Es	-2.954091	2.274437	-0.284102	99
Es	-2.539668	2.022705	-0.049879	99
Es	2.942596	-1.310170	0.461352	99
Es	3.058276	-1.648659	0.209144	99
Es	-1.475292	0.061387	0.065604	99
Es	-1.705781	1.258201	0.332239	99
Es	-2.784252	2.221465	-0.253222	99
Es	1.274943	-0.927898	0.116157	99
Es	1.897846	-0.587787	-0.245886	99
Es	0.491914	-0.489702	0.009139	99
Es	0.983102	-0.870186	0.161135	99
Es	-2.197539	1.657286	0.162194	99
Es	-1.619060	0.283101	-0.034115	99
Es	-0.204607	-0.155298	-0.480819	99
Es	0.417564	-0.601248	-0.166739	99
