42
Properties=species:S:1:pos:R:3:Z:I:1 energy=-339.8735163336439 field_type=dipole dipole="0.000000 0.000000 0.000000" charge=0
C	-2.486228	-1.501564	-0.546853	6
O	-1.853688	-0.264134	-0.849063	8
N	-0.609148	-0.232605	-0.201023	7
C	-0.032698	0.895696	-0.460083	6
N	1.203272	1.366426	-0.042173	7
C	1.646592	0.955056	1.299757	6
C	2.278792	0.369356	0.084497	6
H	-3.440168	-1.541634	-1.079273	1
H	-2.678248	-1.574775	0.528027	1
H	-1.862948	-2.338574	-0.877063	1
H	-0.526058	1.650596	-1.098593	1
H	0.939202	0.364356	1.865567	1
H	2.163742	1.742795	1.828887	1
H	3.238032	0.746546	-0.238653	1
H	2.019552	-0.637534	-0.213953	1
Es	-0.427329	0.314745	-0.545069	99
Es	-1.664072	-0.439018	-0.656674	99
Es	-0.243928	0.740328	-0.459874	99
Es	-2.180276	-1.522304	-0.542029	99
Es	0.651406	1.024646	-0.076934	99
Es	2.183837	0.872902	0.546514	99
Es	-0.583676	-0.130416	-0.218304	99
Es	1.717010	0.597296	0.657580	99
Es	2.062084	0.896091	0.598740	99
Es	-2.973792	-1.538011	-0.866582	99
Es	0.434163	0.990540	-0.298108	99
Es	1.756399	0.687614	0.649990	99
Es	-2.298501	-1.214250	-0.360734	99
Es	2.065320	0.979011	0.592495	99
Es	-2.444478	-1.279515	-0.667914	99
Es	-2.197729	-1.242815	-0.643988	99
Es	1.558828	0.966308	0.423002	99
Es	1.805061	0.770192	0.384776	99
Es	-1.844177	-0.387450	-0.751191	99
Es	1.398738	0.940247	-0.005422	99
Es	1.685994	0.991085	0.405651	99
Es	-0.537270	-0.136129	0.052117	99
Es	-1.958449	-0.233893	-0.883042	99
Es	0.627129	1.106458	-0.136467	99
Es	0.028200	0.222935	-0.210995	99
Es	1.630684	0.646945	0.761998	99
Es	-1.531723	-0.279004	-0.589389	99
