43
Properties=species:S:1:pos:R:3:Z:I:1 energy=-323.9486095086812 field_type=dipole dipole="0.000000 0.000000 0.000000" charge=0
N	-1.899679	-0.492356	-0.519502	7
C	-0.598359	-0.179416	0.084428	6
C	0.188891	-1.333956	0.652528	6
C	0.647711	-0.618106	-0.586902	6
C	1.616721	0.507514	-0.509212	6
O	0.874611	1.667114	-0.089222	8
C	-0.323529	1.220604	0.575418	6
H	-2.227209	0.281914	-1.100952	1
H	-2.609199	-0.629086	0.201888	1
H	-0.205789	-2.337436	0.532668	1
H	0.735681	-1.183806	1.574898	1
H	0.596071	-1.105216	-1.548602	1
H	2.407141	0.313824	0.223518	1
H	2.078231	0.723974	-1.475832	1
H	-0.155229	1.243314	1.656468	1
H	-1.126069	1.921124	0.328408	1
Es	0.105552	-0.874012	-0.159107	99
Es	-1.940016	-0.394737	-0.327124	99
Es	-0.165000	-0.214301	-0.042656	99
Es	-0.777571	1.340606	0.388183	99
Es	0.875762	0.833419	-0.088065	99
Es	0.659943	-0.758683	0.077025	99
Es	-1.562939	-0.114575	-0.325058	99
Es	0.734712	1.505710	-0.010518	99
Es	0.321097	-0.958025	0.036077	99
Es	0.280796	-0.786155	-0.201135	99
Es	-0.624758	-0.814555	0.150360	99
Es	-0.290593	0.142413	0.155605	99
Es	1.688082	0.602977	-0.511713	99
Es	-0.587278	-1.151778	0.134190	99
Es	1.116694	1.306271	-0.095056	99
Es	-0.586877	0.466375	0.220086	99
Es	-1.933289	-0.477943	-0.406382	99
Es	1.049612	-0.418369	-0.191784	99
Es	0.610921	-1.060657	-0.025178	99
Es	-0.612529	-0.800858	0.161708	99
Es	1.488344	0.911385	-0.346628	99
Es	-1.372087	-0.294971	-0.099639	99
Es	0.872493	1.892206	-0.146917	99
Es	0.602331	1.054361	0.006770	99
Es	0.245543	1.214859	0.165985	99
Es	-0.730631	0.712271	0.295306	99
Es	1.813344	0.566758	-0.215271	99
