45
Properties=species:S:1:pos:R:3:Z:I:1 energy=-341.1252657936041 field_type=dipole dipole="0.000000 0.000000 0.000000" charge=0
N	-2.109351	-0.485509	0.559162	7
C	-0.658271	-0.590909	0.778472	6
C	0.165299	-1.349609	-0.217898	6
C	0.280549	0.156361	-0.156978	6
N	-0.346151	0.935721	-1.268318	7
C	1.538299	0.764531	0.433732	6
O	2.312109	1.337420	-0.617418	8
H	-2.478861	0.325021	1.057782	1
H	-2.586931	-1.296429	0.953372	1
H	-0.358921	-0.672649	1.820952	1
H	-0.337461	-1.800109	-1.065718	1
H	0.990309	-1.945879	0.154752	1
H	-1.360551	0.803541	-1.173668	1
H	-0.121761	0.480611	-2.154928	1
H	2.154229	0.026471	0.956672	1
H	1.277328	1.561901	1.137122	1
H	1.640139	1.749521	-1.197088	1
Es	-2.193990	-0.360217	0.315230	99
Es	0.666291	0.482471	-0.082430	99
Es	-1.776924	-0.536792	0.496378	99
Es	2.344088	1.275587	-0.612924	99
Es	0.167010	-0.424739	0.135989	99
Es	-1.157149	-0.759763	0.266714	99
Es	-0.311846	-0.961553	0.689701	99
Es	1.103986	0.347373	0.208869	99
Es	-0.189702	0.719355	-0.969448	99
Es	2.105081	1.265233	-0.752028	99
Es	-1.890458	-0.579163	0.421153	99
Es	-0.053772	0.510972	-1.012425	99
Es	0.057786	0.376495	-0.322177	99
Es	-0.577835	-0.818663	0.424962	99
Es	0.284010	0.518197	-0.293116	99
Es	-2.131752	-0.896655	0.719753	99
Es	0.001936	0.220725	-0.461050	99
Es	0.678745	-0.816723	0.329239	99
Es	0.331708	0.438062	-0.375654	99
Es	0.187293	0.628152	-0.573801	99
Es	-0.543157	-0.692170	0.299717	99
Es	2.123283	1.551769	-0.677070	99
Es	2.450631	1.231852	-0.419982	99
Es	-0.282816	-0.998921	0.613088	99
Es	-0.519126	0.430426	-0.712261	99
Es	-0.349897	0.054058	-0.395861	99
Es	1.923573	1.120460	-0.293770	99
Es	1.872405	0.349160	0.682199	99
