43
Properties=species:S:1:pos:R:3:Z:I:1 energy=-323.94082056633886 field_type=dipole dipole="0.000000 0.000000 0.000000" charge=0
N	-1.416334	0.159509	1.202184	7
C	0.003276	-0.057081	0.931194	6
C	0.336596	-1.473561	0.409674	6
O	0.581616	-1.378161	-1.007466	8
C	0.863306	0.002149	-1.326006	6
C	-0.298764	0.928789	-1.488396	6
C	0.438876	0.853979	-0.170346	6
H	-1.556224	1.114009	1.527064	1
H	-1.723394	-0.456641	1.951504	1
H	0.564806	0.134109	1.852394	1
H	-0.460135	-2.200281	0.595834	1
H	1.254996	-1.844621	0.878474	1
H	1.787025	0.236269	-1.839676	1
H	-0.159514	1.815089	-2.095456	1
H	-1.289634	0.495779	-1.559456	1
H	1.073506	1.670669	0.138484	1
Es	-0.874964	0.096355	1.090507	99
Es	0.385729	0.016220	-0.135897	99
Es	0.747390	-1.613328	0.331432	99
Es	0.698839	-0.271059	-1.163735	99
Es	0.267025	0.309744	-0.834022	99
Es	0.111833	-0.436651	0.472841	99
Es	-1.406664	0.704128	1.394858	99
Es	0.183709	0.455773	-1.161706	99
Es	0.504066	-0.968975	-0.768031	99
Es	-0.942244	-0.099755	1.530031	99
Es	-0.223570	1.502989	-1.802176	99
Es	0.350977	-1.431288	0.480651	99
Es	0.123381	0.679976	-0.700917	99
Es	0.555255	-1.475643	-0.529431	99
Es	0.095925	0.599954	-0.665415	99
Es	-0.166136	0.721612	-1.064526	99
Es	-1.012335	0.132300	1.227164	99
Es	0.755839	-0.916726	-0.870793	99
Es	-0.373100	0.181677	0.724731	99
Es	0.861700	0.176752	-1.475103	99
Es	0.075787	0.548945	-0.271120	99
Es	0.806043	0.078114	-1.377675	99
Es	-0.850592	0.221139	0.983020	99
Es	-0.602128	-0.066106	1.222506	99
Es	0.480894	0.154364	-0.754994	99
Es	0.595572	-1.362267	-0.665292	99
Es	-0.064656	-1.820250	0.513804	99
