43
Properties=species:S:1:pos:R:3:Z:I:1 energy=-323.96276343169217 field_type=dipole dipole="0.000000 0.000000 0.000000" charge=0
N	-1.796681	0.489437	-0.636108	7
C	-0.343261	0.466747	-0.582998	6
C	0.263619	1.545897	0.312733	6
O	1.590179	1.084978	0.609513	8
C	1.492719	-0.341403	0.765752	6
C	0.248079	-0.758103	0.040383	6
C	-0.248241	-2.004703	0.043862	6
H	-2.111061	-0.207622	-1.308228	1
H	-2.107181	1.389167	-0.998028	1
H	0.068379	0.571217	-1.594827	1
H	-0.280691	1.667297	1.257822	1
H	0.317649	2.518988	-0.185618	1
H	2.392169	-0.795642	0.341112	1
H	1.429389	-0.565933	1.835472	1
H	-1.174311	-2.249292	-0.465218	1
H	0.259239	-2.811032	0.564372	1
Es	0.168278	1.807168	0.249737	99
Es	-1.594567	0.712081	-0.813064	99
Es	-0.060243	-0.173657	-0.252743	99
Es	-0.308189	-2.317416	-0.005920	99
Es	1.597766	0.518493	0.708385	99
Es	-0.056765	-2.059408	0.197592	99
Es	0.236989	1.517916	0.289742	99
Es	1.845442	-0.610061	1.007525	99
Es	0.040604	1.807061	0.290824	99
Es	-0.061711	-1.310287	0.133654	99
Es	1.626253	1.141413	0.739754	99
Es	-1.700388	0.689075	-0.747649	99
Es	-0.566116	0.540088	-0.618501	99
Es	1.187048	0.715736	0.450487	99
Es	0.521663	-0.136980	0.126758	99
Es	-1.629796	0.575442	-0.695662	99
Es	1.297791	1.177771	0.668792	99
Es	1.580933	-0.269590	0.717027	99
Es	-0.001751	-1.720637	-0.029246	99
Es	0.315049	-0.734877	0.086121	99
Es	1.658779	1.218725	0.402071	99
Es	-1.437779	0.468826	-0.568794	99
Es	-0.150761	0.879379	-0.218088	99
Es	-2.056263	0.090492	-0.944920	99
Es	0.314714	0.635085	-0.161555	99
Es	1.631782	-0.508395	0.946327	99
Es	-0.590898	-2.082225	-0.127921	99
