42
Properties=species:S:1:pos:R:3:Z:I:1 energy=-339.97884156480205 field_type=dipole dipole="0.000000 0.000000 0.000000" charge=0
N	-2.321711	-0.121833	0.999704	7
C	-1.136261	-0.118173	0.489704	6
C	-0.333190	-1.417163	0.400524	6
O	0.669310	-1.413503	-0.619546	8
C	1.461589	-0.221893	-0.554156	6
C	0.597809	1.022267	-0.794076	6
N	-0.553530	1.065197	0.094934	7
H	-2.683400	0.830327	0.942014	1
H	-1.001301	-2.261793	0.226854	1
H	0.163159	-1.571843	1.371004	1
H	1.967609	-0.174883	0.416364	1
H	2.227609	-0.289763	-1.331086	1
H	1.195809	1.932737	-0.673306	1
H	0.218469	1.006057	-1.822616	1
H	-0.471971	1.734257	0.853684	1
Es	-0.862637	-0.526146	0.494886	99
Es	0.660403	-1.477838	-0.367219	99
Es	0.779670	-1.217684	-0.584438	99
Es	-0.335792	-1.614350	0.404379	99
Es	-2.560636	0.303192	1.054838	99
Es	-2.174261	-0.107626	0.860819	99
Es	-2.075045	-0.136119	0.860518	99
Es	1.821721	-0.207000	-0.996146	99
Es	-0.574106	0.983031	0.099670	99
Es	-0.939393	-0.442094	0.487446	99
Es	-0.440856	-1.668220	0.545219	99
Es	-0.638580	0.542940	0.318192	99
Es	1.095534	0.353305	-0.589726	99
Es	0.305261	-1.416009	-0.221756	99
Es	-0.035802	1.112840	-0.279029	99
Es	0.678628	0.854408	-0.890517	99
Es	0.830431	-1.086036	-0.529988	99
Es	-2.284375	-0.102027	0.993917	99
Es	-0.710221	1.273681	0.034379	99
Es	-1.868421	-0.252789	0.897889	99
Es	1.446841	-0.273486	-0.457290	99
Es	1.245754	-0.141451	-0.510855	99
Es	-0.449683	1.163919	0.196452	99
Es	1.020039	-1.257969	-0.635144	99
Es	-0.389455	-1.390270	0.393673	99
Es	0.344033	0.857532	-0.877839	99
Es	0.983456	1.636707	-0.740782	99
