44
Properties=species:S:1:pos:R:3:Z:I:1 energy=-360.9600017721314 field_type=dipole dipole="0.000000 0.000000 0.000000" charge=0
N	-1.509465	-0.114276	0.252417	7
C	-0.045815	-0.045526	-0.009873	6
C	0.291245	-0.015666	-1.483523	6
O	-0.480985	1.001014	-2.122113	8
C	0.581875	1.019404	0.913377	6
O	0.879125	-0.000136	1.914767	8
C	0.694445	-1.036536	0.909507	6
H	-1.732285	-0.009296	1.247307	1
H	-1.930225	-1.005566	-0.015843	1
H	0.049575	-0.970096	-1.963613	1
H	1.350845	0.193084	-1.659513	1
H	-1.351345	0.982394	-1.674163	1
H	-0.082205	1.796444	1.303977	1
H	1.505715	1.483144	0.551407	1
H	1.661655	-1.395336	0.542037	1
H	0.117845	-1.883056	1.293847	1
Es	0.057315	0.328683	-0.461039	99
Es	0.831714	-0.128421	1.524153	99
Es	-0.283031	0.055382	-0.507413	99
Es	-0.181282	0.069018	-0.401313	99
Es	-0.213051	0.507321	-1.674599	99
Es	0.365124	-0.415278	1.148262	99
Es	0.059622	0.074411	-1.350408	99
Es	-0.682901	0.111901	-0.461755	99
Es	-0.334713	0.717975	-1.891641	99
Es	-0.410717	-0.062234	0.171437	99
Es	-0.117664	-0.030152	0.769774	99
Es	0.743788	-0.078677	1.920325	99
Es	0.252827	0.118928	0.625677	99
Es	-0.463681	0.267243	-0.992379	99
Es	0.545826	-0.177502	1.093194	99
Es	0.830934	-0.335985	1.558254	99
Es	-1.127131	-0.076249	0.267679	99
Es	-0.254492	0.800168	-1.761841	99
Es	0.866778	0.038335	0.965686	99
Es	-0.499214	-0.018462	-0.217623	99
Es	-0.374878	-0.069799	0.310153	99
Es	0.854855	-0.012267	1.411575	99
Es	-0.723368	-0.076462	-0.107565	99
Es	-0.351144	0.947878	-2.166897	99
Es	0.292525	0.233241	0.552003	99
Es	0.614039	-0.165521	1.285300	99
Es	-0.229755	0.599263	-1.812519	99
Es	0.660138	-0.042759	1.032232	99
