42
Properties=species:S:1:pos:R:3:Z:I:1 energy=-286.9238161024564 field_type=dipole dipole="0.000000 0.000000 0.000000" charge=0
C	-2.257806	-0.090453	0.253479	6
C	-0.816856	0.067397	-0.048931	6
C	-0.068146	1.178158	0.003779	6
C	1.313594	0.916887	-0.367971	6
C	2.131944	-0.055623	0.438249	6
N	1.408194	-0.523322	-0.743771	7
C	0.055414	-1.083693	-0.461101	6
H	-2.430576	-0.995872	0.841349	1
H	-2.834946	-0.164913	-0.670881	1
H	-2.642226	0.756598	0.830629	1
H	-0.427356	2.160928	0.272259	1
H	1.806243	1.602237	-1.046821	1
H	3.209414	-0.008413	0.340479	1
H	1.780804	-0.367772	1.413419	1
H	0.105934	-1.848012	0.320279	1
H	-0.333626	-1.544132	-1.374451	1
Es	-2.419782	0.291758	0.509759	99
Es	1.872930	-0.407462	-0.158653	99
Es	-0.095629	0.533327	0.113733	99
Es	-0.129833	0.035623	-0.230761	99
Es	1.944229	-0.216161	-0.080615	99
Es	-1.752028	-0.073977	0.147176	99
Es	0.199727	0.481213	-0.184967	99
Es	1.782655	-0.262990	-0.147055	99
Es	0.325281	-0.771823	-0.421992	99
Es	1.746416	-0.311899	-0.147190	99
Es	1.390648	0.141069	-0.331575	99
Es	1.617513	-0.321976	-0.393568	99
Es	2.021460	0.335988	0.009385	99
Es	-0.470197	0.611982	-0.174817	99
Es	-0.301670	1.497699	0.149911	99
Es	-1.311687	-0.499608	0.013622	99
Es	1.689874	0.321016	-0.054056	99
Es	-0.433823	-0.620449	-0.215044	99
Es	1.866865	0.906113	-0.225638	99
Es	-2.409179	-0.096045	0.053631	99
Es	-0.119430	-1.526531	-0.624583	99
Es	0.214622	1.369331	-0.040501	99
Es	1.569701	0.776172	-0.144111	99
Es	-1.208769	-0.233354	0.102689	99
Es	-2.518682	0.021917	-0.077438	99
Es	0.172753	-1.265358	-0.270468	99
