39
Properties=species:S:1:pos:R:3:Z:I:1 energy=-338.82068942921364 field_type=dipole dipole="0.000000 0.000000 0.000000" charge=0
N	-2.591467	-0.037895	0.015948	7
C	-1.306227	-0.050945	0.008168	6
N	-0.557157	-1.179625	0.020098	7
C	0.799423	-1.220125	0.014868	6
C	1.499963	-0.086775	-0.006142	6
C	0.781183	1.225295	-0.024592	6
O	-0.666937	1.141755	-0.013112	8
H	-2.857937	0.953215	0.003388	1
H	-1.073827	-2.049155	0.036618	1
H	1.252303	-2.205675	0.028698	1
H	2.583753	-0.094165	-0.010612	1
H	1.074473	1.817705	0.847888	1
H	1.062453	1.786395	-0.921222	1
Es	-0.854975	-0.658765	0.068981	99
Es	0.782602	1.227751	-0.019073	99
Es	1.497786	-0.086877	-0.004433	99
Es	1.150246	0.539171	-0.027623	99
Es	-1.981682	-0.032754	0.060882	99
Es	-0.636897	1.164423	0.052871	99
Es	1.100601	-1.884080	0.031242	99
Es	-2.236138	-0.008630	-0.001327	99
Es	-0.675313	1.064362	-0.057873	99
Es	-0.165215	-1.190010	0.090382	99
Es	0.826017	-1.176550	0.019766	99
Es	1.007829	1.716321	-0.043018	99
Es	-0.680600	1.011418	-0.012591	99
Es	-0.450095	-1.004924	-0.080970	99
Es	2.175737	-0.082425	-0.014626	99
Es	0.945116	1.495219	-0.018611	99
Es	-1.228427	-0.171686	0.024372	99
Es	-2.797265	-0.309733	0.027223	99
Es	1.092225	-0.679510	0.017504	99
Es	-0.246344	0.919238	-0.023713	99
Es	-2.619561	0.327058	-0.032087	99
Es	1.217172	-0.590620	-0.014784	99
Es	-0.544333	-1.114247	-0.023820	99
Es	-0.950721	1.155712	-0.019198	99
Es	-0.846392	-1.677359	0.027296	99
Es	-2.642754	0.137220	0.017542	99
