37
Properties=species:S:1:pos:R:3:Z:I:1 energy=-321.6281881398294 field_type=dipole dipole="0.000000 0.000000 0.000000" charge=0
N	-2.874315	0.306212	0.893906	7
C	-1.723305	0.306212	0.893906	6
C	-0.279305	0.306212	0.893906	6
C	0.286975	-0.942208	0.199086	6
C	0.757854	-0.382528	-1.091064	6
C	0.701294	0.941662	-1.016384	6
O	0.226315	1.463352	0.168366	8
H	0.096235	0.369682	1.921636	1
H	-0.449625	-1.740878	0.066766	1
H	1.140965	-1.346858	0.753686	1
H	1.117614	-0.953518	-1.932894	1
H	0.999305	1.672662	-1.750914	1
Es	0.394166	1.134299	-0.284462	99
Es	-0.136601	-0.294341	0.526117	99
Es	-2.650685	0.183408	0.927481	99
Es	-0.772176	0.286812	0.857454	99
Es	0.269401	-0.767557	-0.108807	99
Es	0.178968	1.260112	0.112228	99
Es	-2.563280	0.319495	0.962024	99
Es	0.685027	0.713585	-0.779824	99
Es	-2.023986	0.207782	1.007344	99
Es	-1.293356	0.281002	0.973898	99
Es	0.445790	0.324964	-0.556545	99
Es	0.782789	0.649595	-0.903605	99
Es	0.333216	-1.023968	0.047345	99
Es	0.666904	1.064112	-0.727222	99
Es	-0.718225	0.262521	0.847589	99
Es	-1.529666	0.319827	0.942329	99
Es	0.310494	1.325989	-0.106235	99
Es	0.872334	-0.677844	-1.241697	99
Es	0.829153	-0.810123	-0.472123	99
Es	0.291969	0.885171	-0.219795	99
Es	0.383394	-0.959989	-0.016669	99
Es	0.413773	1.017070	-0.218880	99
Es	-2.846699	0.479450	1.151720	99
Es	0.628272	0.207269	-0.690517	99
Es	-1.837807	0.392115	0.992679	99
