48
Properties=species:S:1:pos:R:3:Z:I:1 energy=-289.29198518380446 field_type=dipole dipole="0.000000 0.000000 0.000000" charge=0
C	-2.245450	-0.456472	0.063220	6
C	-0.756830	-0.442432	0.305080	6
C	-0.378740	-0.525503	1.761871	6
C	0.132241	-1.139863	-0.703040	6
C	0.094450	0.368208	-0.664009	6
C	1.290980	1.152358	-0.233049	6
N	2.118761	1.376477	-1.410179	7
H	-2.488950	-0.398542	-1.003209	1
H	-2.718930	0.395238	0.562810	1
H	-2.687600	-1.377582	0.457140	1
H	0.689920	-0.707902	1.908900	1
H	-0.916189	-1.346102	2.248620	1
H	-0.640740	0.406078	2.273690	1
H	-0.328630	-1.630352	-1.554039	1
H	1.024160	-1.645562	-0.348720	1
H	-0.431190	0.879318	-1.466760	1
H	1.881270	0.632448	0.527231	1
H	0.973140	2.114177	0.180750	1
H	2.424040	0.474387	-1.774059	1
H	2.964280	1.871627	-1.132249	1
Es	-0.942693	-0.622139	0.508427	99
Es	-1.273175	-0.620521	-0.210726	99
Es	-0.801104	-0.477046	0.501145	99
Es	-0.448618	-0.273876	0.086975	99
Es	2.216025	1.256445	-1.400274	99
Es	-0.411458	-0.462758	1.577023	99
Es	0.030463	-0.199959	-0.430003	99
Es	0.967058	0.807668	-0.175571	99
Es	-0.443385	-0.388141	-0.431236	99
Es	-0.285915	-0.243487	1.443433	99
Es	2.198937	1.459683	-1.390690	99
Es	-2.443576	-0.915179	0.191633	99
Es	1.184697	0.661247	-0.814820	99
Es	-0.004482	-0.019126	-0.663510	99
Es	-1.334049	-0.716981	1.452409	99
Es	0.638673	0.398261	-0.486993	99
Es	1.984373	1.238062	-0.829475	99
Es	-0.204081	-0.330759	1.394238	99
Es	2.098715	1.381008	-1.477119	99
Es	0.739105	0.041819	-0.712296	99
Es	0.457380	-0.038479	-0.454905	99
Es	1.726083	1.060096	-0.350299	99
Es	-1.266560	-0.454709	0.836603	99
Es	-1.363048	-0.465990	0.226652	99
Es	1.385599	0.731657	-0.184897	99
Es	-1.855019	-0.754638	0.014856	99
Es	-1.351527	-0.732105	-0.526794	99
Es	0.435938	0.269511	-0.706166	99
