44
Properties=species:S:1:pos:R:3:Z:I:1 energy=-360.96024536305515 field_type=dipole dipole="0.000000 0.000000 0.000000" charge=0
N	-2.032871	-0.195282	0.731389	7
C	-1.001521	-0.893362	-0.027441	6
C	0.215369	-0.022892	-0.172951	6
C	1.037839	0.190198	1.068559	6
O	2.241909	0.901338	0.786679	8
C	0.811369	0.171648	-1.555531	6
O	-0.000051	1.180878	-0.940011	8
H	-2.889220	-0.747692	0.718699	1
H	-2.252970	0.674178	0.241409	1
H	-1.404641	-1.169342	-1.008371	1
H	-0.735871	-1.823892	0.485939	1
H	1.318979	-0.771802	1.510399	1
H	0.478250	0.760168	1.818950	1
H	1.953479	1.747128	0.391649	1
H	0.387039	-0.365642	-2.395111	1
H	1.872910	0.364368	-1.654261	1
Es	1.104488	0.437504	-1.325067	99
Es	-0.330736	-0.082496	-0.117655	99
Es	0.091940	0.165208	-0.103051	99
Es	-0.282277	-0.317098	0.607200	99
Es	0.465889	0.300699	-1.638197	99
Es	2.194461	0.878410	0.814965	99
Es	-1.648740	-0.428143	0.451155	99
Es	0.325242	0.400546	-0.324176	99
Es	-1.255275	-0.626789	0.126806	99
Es	0.561499	0.472267	-1.220800	99
Es	-2.444207	-0.566458	0.691505	99
Es	1.955378	0.939199	0.605057	99
Es	2.449505	0.973108	0.846897	99
Es	-0.181029	0.449862	-0.845048	99
Es	-1.616248	-0.486657	0.406170	99
Es	0.285808	0.676077	-0.902769	99
Es	0.287378	0.097944	0.389687	99
Es	2.146670	0.883756	0.702176	99
Es	0.388630	0.456049	-0.973114	99
Es	1.046573	0.314141	1.078625	99
Es	0.688104	0.255438	0.036295	99
Es	0.684871	0.537769	-1.164459	99
Es	-1.603505	-0.322892	0.233520	99
Es	0.184028	0.403167	-0.574628	99
Es	1.110664	0.145897	1.258326	99
Es	-1.817835	-0.255557	0.851873	99
Es	-1.352825	-0.578062	-0.343179	99
Es	1.119257	0.374179	0.518366	99
