46
Properties=species:S:1:pos:R:3:Z:I:1 energy=-325.140020064935 field_type=dipole dipole="0.000000 0.000000 0.000000" charge=0
N	-1.729281	-0.343692	1.026908	7
C	-1.583691	0.120218	-0.356292	6
C	-0.285851	0.908948	-0.583302	6
C	0.974899	0.076518	-0.464542	6
C	1.568849	-0.448312	-1.551492	6
C	1.571509	-0.082752	0.909208	6
O	0.877769	-1.077782	1.640858	8
H	-2.581791	-0.905102	1.093218	1
H	-1.887891	0.461968	1.635438	1
H	-2.440701	0.757748	-0.602212	1
H	-1.618861	-0.744112	-1.028892	1
H	-0.233591	1.761068	0.105888	1
H	-0.333341	1.351918	-1.587471	1
H	1.152029	-0.325932	-2.545922	1
H	2.476089	-1.039142	-1.466402	1
H	1.529399	0.860358	1.463388	1
H	2.623869	-0.378002	0.858978	1
H	-0.079421	-0.953912	1.452638	1
Es	-1.699250	-0.174796	0.575719	99
Es	2.226750	-0.272122	0.818064	99
Es	1.353517	-0.197419	-1.196075	99
Es	-1.294938	0.316041	-0.400859	99
Es	-0.151419	0.657090	-0.868589	99
Es	-1.483293	-0.196674	1.168040	99
Es	-0.369754	0.622706	-0.400585	99
Es	-1.940955	0.424438	-0.486211	99
Es	1.137389	-0.236356	-0.815473	99
Es	-2.151842	-0.188982	1.180108	99
Es	1.072925	-0.700707	1.493736	99
Es	1.194502	-0.279267	0.862605	99
Es	1.348971	-0.257254	-2.069287	99
Es	1.304713	-0.156261	-0.608587	99
Es	0.883627	-1.061348	1.980003	99
Es	1.035123	-0.640059	1.395556	99
Es	-0.516031	0.466050	-0.450503	99
Es	-1.316713	0.434584	-0.356887	99
Es	1.736983	-0.295943	-0.725729	99
Es	-1.765649	-0.466225	1.059749	99
Es	0.671610	-0.238402	0.893665	99
Es	0.534209	0.434881	-1.205260	99
Es	1.169945	-0.664256	1.369553	99
Es	0.496587	-0.662051	1.093654	99
Es	-1.502923	-0.437928	0.979959	99
Es	-0.820893	0.484215	-0.531677	99
Es	0.946574	0.045174	-0.569807	99
Es	1.712411	-0.346771	-0.325920	99
