42
Properties=species:S:1:pos:R:3:Z:I:1 energy=-339.9195405228792 field_type=dipole dipole="0.000000 0.000000 0.000000" charge=0
N	-2.040271	-1.317162	-0.093511	7
C	-0.607851	-1.023062	-0.012211	6
C	-0.280271	0.439658	0.103789	6
C	-1.150231	1.458748	0.203569	6
C	1.164629	0.795028	0.115369	6
N	2.111649	-0.083872	0.021429	7
O	3.347079	0.573238	0.066059	8
H	-2.161301	-2.328932	-0.091351	1
H	-2.382831	-1.000282	-0.999351	1
H	-0.123641	-1.441362	-0.902341	1
H	-0.203331	-1.547192	0.861319	1
H	-2.221051	1.278318	0.219989	1
H	-0.833821	2.493118	0.288469	1
H	1.401239	1.870558	0.210619	1
H	3.980009	-0.166802	0.008159	1
Es	-0.714293	0.935680	0.419367	99
Es	1.866424	0.195367	0.109032	99
Es	1.976985	-0.296444	0.027663	99
Es	-1.196117	1.507594	0.202900	99
Es	3.341442	0.592234	0.025879	99
Es	3.674957	0.177381	0.114499	99
Es	-2.161348	-1.191348	-0.209345	99
Es	3.290944	0.641420	0.012002	99
Es	0.219357	0.587319	0.095616	99
Es	-0.381971	-1.220757	-0.014927	99
Es	-1.992671	-1.284785	-0.185929	99
Es	1.178890	0.860093	0.124226	99
Es	-0.595932	-1.024088	0.008414	99
Es	-0.965438	1.948785	0.221002	99
Es	-2.184239	-1.164299	-0.200651	99
Es	-2.078050	-1.913112	-0.163824	99
Es	2.915039	0.498257	0.071482	99
Es	-0.648670	0.937813	-0.097806	99
Es	-0.151495	0.524592	0.123126	99
Es	2.046232	-0.079221	-0.014372	99
Es	1.700160	0.272905	0.018002	99
Es	-0.411701	-0.266174	0.053174	99
Es	1.300706	1.410056	0.163310	99
Es	-1.754580	1.436488	0.220696	99
Es	-0.226766	-1.401670	-0.067713	99
Es	3.327382	0.525813	0.069772	99
Es	-1.584049	-1.164622	0.017708	99
