38
Properties=species:S:1:pos:R:3:Z:I:1 energy=-358.6285886461672 field_type=dipole dipole="0.000000 0.000000 0.000000" charge=0
N	-1.867714	-1.493807	0.110763	7
C	-0.416114	-1.481817	0.058363	6
C	0.065906	-0.120647	0.058363	6
C	0.463186	1.001253	0.058363	6
C	0.984906	2.344723	0.051173	6
O	2.333196	2.402214	0.109013	8
O	0.256556	3.319523	-0.015037	8
H	-2.201374	-2.451847	0.028893	1
H	-2.238814	-0.991537	-0.694827	1
H	-0.079164	-2.007777	-0.841107	1
H	-0.022224	-2.027367	0.921873	1
H	2.721656	1.507083	0.154163	1
Es	0.592366	0.318220	0.083766	99
Es	1.717660	2.355223	-0.007626	99
Es	2.422881	2.175999	0.024479	99
Es	2.290740	2.219601	0.217477	99
Es	0.436180	0.922903	0.054262	99
Es	0.316240	3.341923	-0.029898	99
Es	-0.056367	0.552663	0.056273	99
Es	2.297694	2.450439	0.191315	99
Es	2.455782	2.617659	0.121379	99
Es	-1.862273	-1.463398	0.046525	99
Es	-0.142126	-1.894191	0.108116	99
Es	-1.566013	-1.834287	0.045148	99
Es	0.996930	2.246853	0.045635	99
Es	-1.746086	-1.604153	0.101061	99
Es	0.074736	3.477366	-0.033197	99
Es	0.332295	3.186144	-0.021494	99
Es	-0.233801	-1.694644	0.065109	99
Es	-2.109197	-1.195254	-0.028196	99
Es	-0.385935	-1.523165	-0.017291	99
Es	-0.161946	-0.761476	0.068463	99
Es	0.413019	3.092135	-0.013221	99
Es	0.068253	-0.116471	0.058586	99
Es	0.704718	2.858386	0.038937	99
Es	0.345709	0.642414	-0.021314	99
Es	-1.868303	-1.538781	0.070474	99
Es	0.746049	1.724171	0.107727	99
