41
Properties=species:S:1:pos:R:3:Z:I:1 energy=-359.82181394010945 field_type=dipole dipole="0.000000 0.000000 0.000000" charge=0
N	-1.765816	-0.057987	0.309720	7
C	-0.402326	0.072513	0.052960	6
C	0.302274	-1.202887	-0.390770	6
O	-0.456076	-2.333447	0.042890	8
C	0.230734	1.246373	0.230600	6
C	1.666374	1.483363	-0.026090	6
O	2.173654	2.579273	0.183320	8
H	-2.283776	0.818503	0.274930	1
H	-2.200596	-0.778547	-0.272430	1
H	1.299364	-1.297897	0.045350	1
H	0.372424	-1.242707	-1.481890	1
H	-0.886866	-2.052947	0.873640	1
H	-0.302536	2.124423	0.580860	1
H	2.253165	0.641973	-0.423090	1
Es	-2.006188	-0.488646	0.243319	99
Es	-0.052852	0.626952	0.189513	99
Es	0.203044	1.201590	0.193565	99
Es	0.942757	1.341542	0.086622	99
Es	2.027796	2.114866	0.277498	99
Es	0.087960	0.822719	0.161477	99
Es	2.221846	2.605737	0.167711	99
Es	-0.068990	-0.505552	-0.133332	99
Es	2.039549	0.960887	-0.241010	99
Es	-0.381274	0.095368	0.066311	99
Es	-0.480408	-2.584624	-0.077305	99
Es	1.717373	1.476000	-0.033395	99
Es	-1.851612	0.336452	0.255826	99
Es	2.221995	2.276060	-0.065780	99
Es	0.837545	-1.252801	-0.431865	99
Es	0.409122	-1.179450	-0.438374	99
Es	2.010486	2.834819	0.236622	99
Es	-0.391387	-2.298703	-0.007348	99
Es	-1.702526	0.012970	0.295571	99
Es	-0.470185	-2.209855	0.068276	99
Es	-1.310698	-0.066201	0.190652	99
Es	0.175050	-1.386229	-0.449315	99
Es	2.078131	2.430233	0.126965	99
Es	-0.646823	-2.188771	0.207660	99
Es	-1.699378	-0.144772	0.280407	99
Es	-0.199142	-1.712572	-0.123599	99
Es	-0.142019	1.816381	0.426309	99
