42
Properties=species:S:1:pos:R:3:Z:I:1 energy=-340.00345924481076 field_type=dipole dipole="0.000000 0.000000 0.000000" charge=0
N	-1.628811	-0.768337	-0.546843	7
C	-1.138781	0.068303	0.408687	6
N	-1.502151	-0.010447	1.642417	7
C	-0.093721	1.091223	0.013647	6
C	1.304709	0.541653	0.252827	6
C	1.682509	-0.543117	-0.728273	6
O	0.949879	-0.963027	-1.621163	8
H	-0.989771	-0.915997	-1.335803	1
H	-2.015351	-1.644747	-0.222613	1
H	-2.222231	-0.729707	1.737557	1
H	-0.244531	1.988693	0.625007	1
H	-0.238151	1.375123	-1.035013	1
H	1.402739	0.127793	1.262157	1
H	2.039409	1.345273	0.139077	1
H	2.694249	-0.962687	-0.591673	1
Es	1.070991	-0.965213	-1.657601	99
Es	-1.590527	-0.778747	-0.563936	99
Es	1.053022	-0.794717	-1.453516	99
Es	-1.360676	0.165374	0.877391	99
Es	-1.397615	-0.180089	1.011877	99
Es	0.985566	-1.054121	-1.711855	99
Es	0.758156	0.541693	0.034985	99
Es	-1.547165	-0.704379	-0.403293	99
Es	1.654313	-0.235212	-0.534276	99
Es	-1.566672	-0.857754	-0.654676	99
Es	1.309723	-0.680243	-0.930733	99
Es	-1.860570	-1.067563	-0.663280	99
Es	-1.460984	-0.131696	0.765458	99
Es	1.524751	-0.207157	-0.497207	99
Es	0.702190	0.726302	0.166007	99
Es	-1.460058	0.324323	1.723342	99
Es	-1.170673	0.028336	1.136750	99
Es	-1.142816	0.287462	1.048902	99
Es	0.373108	1.057371	0.416197	99
Es	0.646506	0.671759	0.087198	99
Es	0.932948	0.526684	-0.127840	99
Es	-0.984112	-0.003051	0.173343	99
Es	1.692213	0.522675	-0.171618	99
Es	-0.671364	0.438091	0.380225	99
Es	1.207338	-0.036692	-0.498787	99
Es	1.398092	-0.794459	-1.370112	99
Es	-1.061890	0.422274	0.972126	99
