43
Properties=species:S:1:pos:R:3:Z:I:1 energy=-323.9990512004171 field_type=dipole dipole="0.000000 0.000000 0.000000" charge=0
N	-1.768136	0.438711	-1.658448	7
C	-1.627996	-0.535459	-0.713288	6
O	-2.093926	-1.655079	-0.886687	8
C	-0.842806	-0.134539	0.518942	6
C	0.601924	-0.524039	0.418792	6
C	1.639714	0.465181	-0.047128	6
C	1.601984	0.039981	1.394882	6
H	-1.203956	1.276481	-1.647207	1
H	-2.213576	0.170421	-2.526438	1
H	-1.301016	-0.635049	1.379762	1
H	-0.955386	0.943171	0.688372	1
H	0.722994	-1.566249	0.138752	1
H	1.337534	1.479671	-0.279207	1
H	2.451783	0.094161	-0.663108	1
H	2.386873	-0.618389	1.751392	1
H	1.263994	0.761031	2.130612	1
Es	1.468555	0.488982	0.195534	99
Es	-1.750197	-0.376999	-1.277657	99
Es	-0.009322	-0.349079	0.453249	99
Es	0.004218	-0.406254	0.633876	99
Es	-1.704501	-1.138599	-0.541966	99
Es	1.456651	0.987323	-0.181237	99
Es	-1.846181	-0.658986	-1.120017	99
Es	-1.054386	-0.424687	-0.078622	99
Es	-1.971239	-1.011701	-0.920460	99
Es	1.296622	0.010434	0.576706	99
Es	1.425975	0.017185	1.240239	99
Es	-1.859366	0.294601	-2.042544	99
Es	1.195484	0.124968	0.288248	99
Es	-2.128150	-1.889514	-0.702328	99
Es	-1.573497	-0.077721	-1.125649	99
Es	-1.579211	-0.526885	-0.744253	99
Es	-0.422615	-0.403135	0.669927	99
Es	2.012573	-0.349549	1.530970	99
Es	-1.777205	0.454307	-1.672880	99
Es	-2.245810	-1.361304	-0.938080	99
Es	-0.105348	-0.300951	0.385651	99
Es	-1.786963	0.506818	-1.519740	99
Es	-0.154169	-0.372022	0.390501	99
Es	1.588604	0.361407	0.561624	99
Es	-1.112743	-0.568916	0.127241	99
Es	1.775570	0.269148	0.762377	99
Es	1.442421	0.127371	0.907818	99
