35
Properties=species:S:1:pos:R:3:Z:I:1 energy=-357.45822358288524 field_type=dipole dipole="0.000000 0.000000 0.000000" charge=0
N	-1.446108	-1.051136	1.106887	7
C	-0.482308	-0.833036	0.156087	6
O	-0.112378	-1.690636	-0.629013	8
C	0.106312	0.586164	0.149247	6
O	-0.306428	1.402394	0.967837	8
C	1.129432	0.971494	-0.798753	6
C	1.979242	1.295944	-1.584543	6
H	-1.718108	-0.304276	1.737367	1
H	-1.881938	-1.959526	1.176267	1
H	2.732282	1.582614	-2.281383	1
Es	0.634261	0.767823	-0.347792	99
Es	1.555611	0.809818	-1.338988	99
Es	1.563017	1.469646	-1.045478	99
Es	-1.021443	-0.949445	0.692810	99
Es	-0.546518	1.315639	1.197794	99
Es	2.466205	1.472770	-2.039952	99
Es	-1.388514	-1.035016	1.042372	99
Es	-0.147021	1.570096	0.856537	99
Es	-0.482358	-0.832923	0.156188	99
Es	1.460590	1.100101	-1.104411	99
Es	-0.169280	1.073469	0.675320	99
Es	-0.161169	-0.085668	0.144702	99
Es	-0.359652	-1.480693	-0.262244	99
Es	0.097309	0.563084	0.148921	99
Es	-0.097435	-1.585743	-0.651187	99
Es	1.133776	0.974344	-0.805309	99
Es	-1.670693	-1.514113	1.126290	99
Es	1.979328	1.296058	-1.584580	99
Es	0.025943	-1.833787	-0.834857	99
Es	-0.128555	-1.590402	-0.528229	99
Es	-0.183053	-1.504851	-0.466918	99
Es	-1.419604	-1.059193	1.085604	99
Es	-1.629863	-0.664151	1.493419	99
Es	-0.164677	1.130581	0.705426	99
Es	-0.283799	1.441520	0.941828	99
