39
Properties=species:S:1:pos:R:3:Z:I:1 energy=-338.7124578093745 field_type=dipole dipole="0.000000 0.000000 0.000000" charge=0
N	-2.494666	-0.620292	-0.313313	7
N	-1.170816	-0.657792	-0.588623	7
C	-0.432436	-0.449362	0.461307	6
C	1.085334	-0.425362	0.360267	6
O	1.530354	-1.089822	-0.812733	8
C	1.567344	0.935808	0.360267	6
C	1.964634	2.057709	0.360267	6
H	-3.013356	-1.036992	-1.092743	1
H	-2.829296	0.347368	-0.281613	1
H	-0.864146	-0.249642	1.459627	1
H	1.478854	-0.973062	1.222377	1
H	0.849274	-0.897902	-1.486383	1
H	2.328914	3.059338	0.351297	1
Es	-0.695104	-0.389689	0.689727	99
Es	-2.007949	-0.747389	-0.141391	99
Es	1.590699	1.541242	0.412964	99
Es	-1.442957	-0.559774	-0.328144	99
Es	-1.331877	-0.592962	-0.130158	99
Es	-2.693344	-0.897122	-0.588168	99
Es	-1.054874	-0.729040	-0.577826	99
Es	1.856218	1.836114	0.485643	99
Es	1.151874	-0.634834	0.003743	99
Es	-0.723576	-0.315059	0.134224	99
Es	1.208661	-0.718484	-0.264518	99
Es	2.193496	2.448901	0.464880	99
Es	-2.540243	-0.569842	-0.333115	99
Es	-1.347331	-0.663804	-0.320095	99
Es	-0.826509	-0.580590	-0.102128	99
Es	1.748017	1.385591	0.404608	99
Es	1.643938	-0.928378	-0.795500	99
Es	1.491485	0.471324	0.385162	99
Es	1.252906	-0.260903	0.404572	99
Es	1.184086	-1.162193	-0.947817	99
Es	1.954965	1.425621	0.324887	99
Es	1.453022	-1.070414	-0.790898	99
Es	0.954796	-0.641235	-0.008267	99
Es	1.546658	0.815281	0.426488	99
Es	-2.604908	-0.175248	-0.295796	99
Es	1.067693	-0.834127	-0.290422	99
