48
Properties=species:S:1:pos:R:3:Z:I:1 energy=-289.2967939320964 field_type=dipole dipole="0.000000 0.000000 0.000000" charge=0
C	-2.521119	-0.143261	-0.644336	6
C	-1.022469	-0.016251	-0.821016	6
C	-0.306999	1.071150	0.008374	6
C	0.744051	-0.023991	0.319874	6
C	1.130002	-0.140261	1.788314	6
C	1.958511	-0.055361	-0.605846	6
N	-0.277829	-1.037181	-0.050476	7
H	-2.896929	-1.042781	-1.144176	1
H	-3.031569	0.718859	-1.087016	1
H	-2.809269	-0.196181	0.411644	1
H	-0.743039	0.006529	-1.882496	1
H	-0.873489	1.425060	0.878614	1
H	0.046731	1.940179	-0.554876	1
H	0.250741	-0.160441	2.442234	1
H	1.747551	0.711650	2.093264	1
H	1.704911	-1.054101	1.975944	1
H	1.677231	-0.005311	-1.663206	1
H	2.541041	-0.971710	-0.460306	1
H	2.617031	0.795870	-0.402626	1
H	0.064911	-1.822470	-0.601886	1
Es	-0.128569	-0.061847	0.176919	99
Es	-0.262335	0.047975	-0.007642	99
Es	-2.791961	0.224590	-0.516410	99
Es	0.265076	-0.023373	0.756126	99
Es	0.704805	0.080605	0.303483	99
Es	-0.052402	0.017346	-0.060933	99
Es	-2.576577	-0.125530	-0.618836	99
Es	-2.176092	-0.115226	-0.600316	99
Es	-2.241733	-0.355967	-0.933545	99
Es	-0.945642	-0.001297	-0.539527	99
Es	0.582150	-0.144280	0.363762	99
Es	-0.277407	-0.007356	-0.033473	99
Es	0.132017	-0.135401	-0.021126	99
Es	1.529756	0.018151	-0.626148	99
Es	1.954313	-0.187164	-0.530576	99
Es	-0.199119	0.005820	-0.271774	99
Es	1.467143	-0.144570	1.357187	99
Es	-0.150417	0.027343	0.314942	99
Es	1.452390	-0.002810	0.967480	99
Es	0.728003	-0.042045	0.269061	99
Es	0.369246	-0.071377	0.644483	99
Es	1.584521	-0.202860	1.969948	99
Es	0.533333	0.025845	0.203020	99
Es	-1.181700	-0.100155	-0.990424	99
Es	-0.646111	0.051447	-0.436072	99
Es	1.599326	-0.209629	-0.352002	99
Es	-1.832411	-0.146112	-0.752060	99
Es	1.603883	0.141596	0.035837	99
