41
Properties=species:S:1:pos:R:3:Z:I:1 energy=-359.75912509059685 field_type=dipole dipole="0.000000 0.000000 0.000000" charge=0
O	-1.902688	-0.331826	0.522076	8
C	-0.491278	-0.372286	0.730756	6
C	0.118782	0.949874	0.298396	6
C	0.809542	0.781694	-1.038094	6
O	1.726322	-0.305056	-0.909204	8
N	1.068542	-1.550026	-0.835094	7
C	0.037942	-1.558126	-0.045814	6
H	-2.286088	0.200704	1.240996	1
H	-0.323788	-0.563346	1.795876	1
H	-0.623098	1.753334	0.249846	1
H	0.873322	1.236794	1.041476	1
H	1.382402	1.681103	-1.287784	1
H	0.106032	0.589934	-1.856364	1
H	-0.495948	-2.512766	0.092926	1
Es	-0.238154	-0.825871	0.424225	99
Es	0.762594	0.887267	-0.451508	99
Es	-0.008352	-1.823794	-0.012621	99
Es	-1.203287	-0.540772	0.740532	99
Es	1.289571	0.135950	-0.856560	99
Es	-0.230929	-1.549345	0.023206	99
Es	1.392459	-0.123296	-0.984952	99
Es	-0.865465	-0.443702	0.815037	99
Es	-0.757738	-0.510723	0.514392	99
Es	0.724334	0.304434	-0.870525	99
Es	-0.284915	1.470589	0.348971	99
Es	1.007595	0.994967	-0.976793	99
Es	0.733839	-1.347825	-0.423003	99
Es	1.345093	-0.908459	-0.947049	99
Es	1.071875	-1.444649	-0.731284	99
Es	0.923685	1.198566	-0.668742	99
Es	1.398567	-1.354441	-1.006706	99
Es	-1.548675	-0.385534	0.634145	99
Es	-1.985953	-0.003342	0.672224	99
Es	1.456467	-0.681859	-0.886172	99
Es	0.380309	-1.441766	-0.468601	99
Es	-0.115687	0.192955	0.454386	99
Es	1.877714	-0.483022	-1.072874	99
Es	-1.872998	-0.281251	0.642473	99
Es	0.234124	0.894672	0.187263	99
Es	-1.670321	-0.419716	0.682060	99
Es	0.182778	0.854718	-0.070031	99
