43
Properties=species:S:1:pos:R:3:Z:I:1 energy=-323.92431100006525 field_type=dipole dipole="0.000000 0.000000 0.000000" charge=0
O	-2.232857	0.690361	-0.564579	8
C	-0.808027	0.692251	-0.322819	6
C	-0.287497	1.642811	0.780031	6
N	0.639733	0.579541	1.235271	7
C	-0.244177	-0.424139	0.598021	6
C	0.507543	-1.549599	-0.011839	6
C	1.422753	-1.406449	-0.981479	6
H	-2.382467	-0.093119	-1.121209	1
H	-0.271807	0.832271	-1.269949	1
H	-1.035727	1.921511	1.531071	1
H	0.205503	2.551511	0.423181	1
H	1.564813	0.637221	0.811800	1
H	-1.000677	-0.810229	1.296281	1
H	0.290413	-2.542089	0.374301	1
H	1.693083	-0.444729	-1.402539	1
H	1.939394	-2.277119	-1.375539	1
Es	0.566716	0.540841	1.006261	99
Es	0.079908	0.497805	0.725568	99
Es	0.670361	0.618712	1.446412	99
Es	-0.284412	1.725392	0.676072	99
Es	1.178469	-1.464072	-0.433873	99
Es	-2.286983	0.748613	-0.382490	99
Es	0.888403	-1.695855	-0.457008	99
Es	1.190301	-1.636889	-0.626606	99
Es	-0.422485	0.806062	0.393592	99
Es	0.737391	0.501483	0.932431	99
Es	-0.049455	0.122105	0.472924	99
Es	0.963199	-1.410340	-0.475262	99
Es	-2.059884	0.614476	-0.506522	99
Es	-0.327468	1.414516	0.653891	99
Es	-0.214566	0.407370	0.294483	99
Es	0.833789	-1.599137	-0.535713	99
Es	-0.601791	0.344375	-0.211438	99
Es	-1.968209	0.451862	-0.734503	99
Es	-0.226449	0.181641	0.370793	99
Es	0.822561	-0.967725	-0.372966	99
Es	-1.997105	0.698949	-0.408063	99
Es	0.542010	-0.823970	-0.215229	99
Es	-1.158531	0.796657	0.208793	99
Es	-0.601197	1.473027	0.675740	99
Es	-0.460670	0.383270	0.366353	99
Es	0.960135	-1.675664	-0.551302	99
Es	-1.301734	0.595696	-0.238875	99
