40
Properties=species:S:1:pos:R:3:Z:I:1 energy=-322.78427910841225 field_type=dipole dipole="0.000000 0.000000 0.000000" charge=0
O	-2.170526	0.334265	1.283469	8
C	-1.128076	0.030045	0.727959	6
C	-0.647516	-1.366385	0.364439	6
N	0.622264	-1.197505	-0.391831	7
C	1.017214	0.218515	-0.289711	6
C	0.284274	1.270175	-1.067481	6
C	-0.087386	1.012365	0.366989	6
H	-1.391606	-1.874455	-0.252411	1
H	-0.463626	-1.921755	1.288789	1
H	1.330124	-1.820135	-0.000031	1
H	2.044204	0.422985	-0.005671	1
H	0.810894	2.190545	-1.294231	1
H	-0.400846	0.956985	-1.847381	1
H	0.180604	1.744355	1.117099	1
Es	-0.924219	0.068029	0.606147	99
Es	-0.373270	0.472977	0.394053	99
Es	0.187647	-1.163020	-0.113375	99
Es	-0.935500	-1.194892	0.451555	99
Es	0.350116	1.182968	-0.727821	99
Es	-1.332126	0.358485	0.902505	99
Es	1.147648	0.535463	-0.689771	99
Es	0.609803	-1.198763	-0.314600	99
Es	0.498352	1.758425	-1.166855	99
Es	-1.382198	0.455272	0.903055	99
Es	-2.017372	0.291855	1.212752	99
Es	0.645449	-1.084439	-0.484155	99
Es	-2.056886	0.044406	1.419554	99
Es	-2.251549	0.398237	1.311930	99
Es	0.645274	0.811821	-0.416523	99
Es	-0.082099	1.283720	-0.233343	99
Es	-0.854295	-0.687936	0.547669	99
Es	-0.612188	-1.598119	0.773757	99
Es	0.231597	1.183831	-0.352167	99
Es	0.223755	0.976003	0.011785	99
Es	0.677526	-1.460481	-0.466487	99
Es	0.793260	-0.757451	-0.121976	99
Es	-1.787887	0.369316	0.784478	99
Es	0.613581	0.524144	-0.376880	99
Es	1.009420	0.343498	-0.461155	99
Es	-0.529619	-1.361312	0.225769	99
