41
Properties=species:S:1:pos:R:3:Z:I:1 energy=-359.8448938353388 field_type=dipole dipole="0.000000 0.000000 0.000000" charge=0
O	-2.464789	0.307349	1.378416	8
C	-1.402839	0.255769	0.759026	6
C	-0.653319	-1.062611	0.583866	6
N	0.313771	-1.087091	-0.528884	7
C	1.150331	0.106729	-0.461694	6
C	0.257911	1.326239	-0.636334	6
O	-0.792629	1.394948	0.342976	8
H	-1.392869	-1.849451	0.403746	1
H	-0.138609	-1.276572	1.527296	1
H	0.890871	-1.923461	-0.445614	1
H	1.679981	0.145119	0.498066	1
H	1.900041	0.078089	-1.258894	1
H	0.856841	2.236598	-0.532114	1
H	-0.204699	1.348348	-1.629864	1
Es	0.449486	0.939476	-0.610196	99
Es	-1.714661	0.239927	1.064280	99
Es	-1.070024	-0.248119	0.640566	99
Es	0.538207	-1.362872	-0.527353	99
Es	-0.398285	-1.081730	0.519821	99
Es	-2.215802	0.363569	1.186320	99
Es	1.066838	0.246701	-0.450512	99
Es	0.384640	0.869853	-0.765544	99
Es	1.629312	0.083563	-0.977789	99
Es	0.404381	-0.964736	-0.485245	99
Es	0.189571	1.397158	-0.813391	99
Es	0.397099	-1.099725	-0.509400	99
Es	-0.310131	1.336780	0.040324	99
Es	-0.848662	1.189989	0.290380	99
Es	-0.839078	1.399354	0.324728	99
Es	-0.882739	1.071320	0.520145	99
Es	-1.821509	0.331483	1.107841	99
Es	-0.454149	-1.150805	0.659122	99
Es	-2.396006	0.073629	1.181656	99
Es	-2.482445	0.386093	1.364818	99
Es	-0.919356	1.432817	0.304846	99
Es	1.100585	-0.017672	-0.252462	99
Es	-0.432312	-1.074720	0.296112	99
Es	0.810981	-0.532089	-0.359144	99
Es	-0.927618	-1.541509	0.666429	99
Es	-2.461384	0.327434	1.380380	99
Es	0.603557	1.810058	-0.561641	99
