39
Properties=species:S:1:pos:R:3:Z:I:1 energy=-338.7744148172605 field_type=dipole dipole="0.000000 0.000000 0.000000" charge=0
O	-2.240948	0.100865	1.257195	8
C	-1.166878	-0.150585	0.741535	6
N	-0.695758	-1.373085	0.310755	7
N	0.547182	-1.343705	-0.382395	7
C	0.977701	0.069335	-0.228995	6
C	0.277922	1.179215	-0.959345	6
C	-0.125228	0.851805	0.454815	6
H	-1.334788	-2.159025	0.245035	1
H	1.193941	-1.959965	0.119035	1
H	2.003922	0.234585	0.080225	1
H	0.824052	2.099824	-1.126685	1
H	-0.402868	0.919875	-1.762255	1
H	0.141752	1.530865	1.251075	1
Es	-2.420958	0.303379	1.368214	99
Es	-0.835403	-0.756638	0.377124	99
Es	-0.792806	-1.046489	0.485750	99
Es	0.647161	0.339258	-0.399915	99
Es	-0.933329	-0.130136	0.607340	99
Es	0.160243	0.859149	-0.262070	99
Es	-2.121158	0.008552	1.253080	99
Es	0.121560	0.414197	-0.018809	99
Es	0.349290	0.052433	0.010182	99
Es	-0.811648	-1.700208	0.550719	99
Es	-0.027461	1.079140	-0.122820	99
Es	0.608718	-0.066349	-0.132405	99
Es	0.430846	0.973823	-0.753011	99
Es	-0.802253	-1.349837	0.315922	99
Es	0.894335	0.235083	-0.354000	99
Es	0.198248	-1.334960	-0.264068	99
Es	0.909661	0.544613	-0.680700	99
Es	-0.470191	0.305394	0.406633	99
Es	0.689250	-1.514720	-0.387357	99
Es	0.586892	-1.457121	-0.384126	99
Es	-1.965681	0.033145	1.285502	99
Es	0.536955	1.723412	-0.921703	99
Es	-2.116133	0.083421	1.207553	99
Es	-0.236426	1.054804	0.291440	99
Es	-1.942288	-0.047770	0.917109	99
Es	0.531511	-1.447109	-0.080946	99
