42
Properties=species:S:1:pos:R:3:Z:I:1 energy=-339.9524776739398 field_type=dipole dipole="0.000000 0.000000 0.000000" charge=0
O	0.135047	-2.384775	-0.188780	8
C	-0.543452	-1.331145	0.490200	6
C	0.272228	-0.044924	0.398350	6
C	0.420327	0.471605	-1.025140	6
C	0.262118	1.932755	-0.769770	6
N	-0.163882	2.255325	0.407580	7
N	-0.385202	1.086765	1.057220	7
H	-0.419683	-3.179494	-0.099520	1
H	-0.675122	-1.627835	1.536320	1
H	-1.533702	-1.210615	0.036650	1
H	1.271818	-0.199105	0.824490	1
H	-0.366442	0.146235	-1.711880	1
H	1.404957	0.267445	-1.452590	1
H	0.486157	2.667426	-1.555780	1
H	-0.165163	1.150335	2.052650	1
Es	-0.499383	-0.894832	0.351558	99
Es	-0.207958	-1.894545	0.155022	99
Es	0.285540	-2.347230	-0.230860	99
Es	0.152789	0.453217	0.494298	99
Es	0.138513	-2.360190	-0.291492	99
Es	0.053624	-2.361091	-0.230336	99
Es	0.403683	2.265897	-1.147294	99
Es	-0.056450	-2.821446	-0.105816	99
Es	-0.387840	1.222161	0.959148	99
Es	0.567495	0.412218	-1.156385	99
Es	-0.192948	2.489617	0.587452	99
Es	0.141926	1.524426	-0.678753	99
Es	-0.695637	-1.526044	1.183445	99
Es	0.316169	0.216120	-0.257414	99
Es	0.174388	-0.164986	0.236506	99
Es	-0.131251	1.505167	0.887296	99
Es	0.162412	0.184181	-1.180550	99
Es	0.195769	2.038338	-0.088506	99
Es	-0.002524	-0.098487	0.524810	99
Es	-0.101338	2.172823	0.221995	99
Es	-0.586275	1.047146	1.413048	99
Es	0.567817	0.449536	-1.102340	99
Es	0.148103	2.006707	-0.234358	99
Es	0.029358	-0.594350	0.487083	99
Es	-0.541738	-1.444460	0.393876	99
Es	-0.359979	1.202439	1.107365	99
Es	0.277126	1.796564	-0.823638	99
