42
Properties=species:S:1:pos:R:3:Z:I:1 energy=-339.89626995556773 field_type=dipole dipole="0.000000 0.000000 0.000000" charge=0
O	-0.698490	-2.692076	0.637015	8
C	-1.066580	-1.336386	0.412755	6
C	0.166720	-0.515956	0.264645	6
C	0.795890	-0.317066	-1.081715	6
N	0.075610	0.777554	-0.423225	7
N	1.008260	1.579474	0.130465	7
C	0.631770	2.813694	0.137585	6
H	-1.523580	-3.182746	0.791515	1
H	-1.647350	-0.988036	1.272965	1
H	-1.701740	-1.295136	-0.478675	1
H	0.813320	-0.590136	1.131475	1
H	0.309470	-0.738476	-1.951395	1
H	1.875900	-0.260176	-1.143485	1
H	1.297710	3.581464	0.562705	1
H	-0.336910	3.164004	-0.262635	1
Es	0.354689	-0.526722	0.047400	99
Es	0.277798	0.945700	-0.368049	99
Es	-0.624013	-2.780845	0.535614	99
Es	0.610146	0.984753	-0.085545	99
Es	0.375285	0.892725	-0.357573	99
Es	-0.851709	-2.609114	0.626617	99
Es	-0.970270	-2.811936	0.558146	99
Es	0.931543	2.046026	-0.085128	99
Es	-0.858825	-1.139481	0.256283	99
Es	-1.152006	-1.134097	0.681542	99
Es	0.600089	2.535841	0.079462	99
Es	0.618263	2.241883	0.297628	99
Es	0.773181	2.224518	0.060081	99
Es	0.616783	1.150139	-0.135087	99
Es	0.304082	0.164495	-0.363336	99
Es	0.632612	-0.164434	-0.859100	99
Es	-0.011728	-0.763314	-0.013283	99
Es	-0.974288	-1.728410	0.248925	99
Es	-0.693096	-0.963975	0.549199	99
Es	0.999966	3.187510	0.358817	99
Es	-0.861854	-1.813000	0.457470	99
Es	0.439525	0.425944	-0.557309	99
Es	0.389858	-0.426997	-0.190618	99
Es	1.186805	-0.306120	-1.116306	99
Es	-0.766279	-2.670495	0.738781	99
Es	0.522328	-0.457155	-0.735881	99
Es	0.439991	2.678067	0.061024	99
