37
Properties=species:S:1:pos:R:3:Z:I:1 energy=-321.5927078413141 field_type=dipole dipole="0.000000 0.000000 0.000000" charge=0
O	-2.122521	0.094423	0.612814	8
C	-0.687461	0.180763	0.560424	6
C	-0.209082	-0.528827	-0.709456	6
C	1.242259	-0.779707	-0.699216	6
C	2.425569	-0.982367	-0.695076	6
C	-0.248372	1.591422	0.587984	6
N	0.068849	2.707002	0.641594	7
H	-2.418111	0.649622	1.356954	1
H	-0.308331	-0.338928	1.448304	1
H	-0.484421	0.052433	-1.598786	1
H	-0.735742	-1.486697	-0.807746	1
H	3.477369	-1.159137	-0.697796	1
Es	-0.588229	0.714788	0.580773	99
Es	-0.463936	-0.286147	-0.037361	99
Es	-0.570158	-0.177349	0.139657	99
Es	0.830793	-0.639970	-0.628250	99
Es	1.704581	-0.889484	-0.775303	99
Es	-0.504417	0.619434	0.534464	99
Es	-1.090191	0.428563	0.675640	99
Es	1.351748	-0.880159	-0.619925	99
Es	-2.117068	0.223386	0.578392	99
Es	-0.542029	-1.164466	-0.747930	99
Es	2.405282	-0.980722	-0.687008	99
Es	1.630156	-0.912422	-0.682938	99
Es	0.191855	2.962841	0.789766	99
Es	-0.036206	2.444041	0.567838	99
Es	-0.357086	2.256208	0.658288	99
Es	0.024023	2.425960	0.691105	99
Es	-2.192150	-0.059325	0.510866	99
Es	-2.197080	0.227386	0.914351	99
Es	0.080783	2.047112	0.480257	99
Es	-0.264665	-0.298412	-0.682916	99
Es	1.782536	-0.705766	-0.800720	99
Es	-2.198421	0.049022	0.634206	99
Es	-0.301398	1.195436	0.654227	99
Es	-0.484537	-0.077993	-0.343639	99
Es	3.032017	-1.073953	-0.793748	99
