41
Properties=species:S:1:pos:R:3:Z:I:1 energy=-359.7579258782651 field_type=dipole dipole="0.000000 0.000000 0.000000" charge=0
O	-2.072423	-1.480297	0.083774	8
C	-0.687023	-1.158667	-0.009986	6
C	-0.468302	0.322723	0.055394	6
C	-1.415902	1.265183	0.186564	6
C	0.939727	0.787103	-0.034296	6
N	1.942677	-0.022887	-0.155246	7
O	3.125227	0.724343	-0.211636	8
H	-2.131682	-2.448867	0.030494	1
H	-0.313593	-1.556837	-0.959246	1
H	-0.170012	-1.656747	0.816844	1
H	-2.463892	0.986503	0.257654	1
H	-1.189492	2.325163	0.227904	1
H	1.096877	1.880613	0.008234	1
H	3.807807	0.032673	-0.296456	1
Es	1.406240	0.392858	-0.185794	99
Es	-0.484554	0.406594	0.087982	99
Es	-2.049832	-1.525244	0.026944	99
Es	0.190383	0.558864	-0.000336	99
Es	-2.320046	-1.280105	0.118207	99
Es	3.141449	0.702346	-0.206876	99
Es	1.040377	1.463936	-0.010384	99
Es	3.100023	0.681916	-0.224953	99
Es	-0.975410	0.862686	0.029037	99
Es	-1.818956	-1.429194	0.153823	99
Es	-0.814208	0.722328	0.173680	99
Es	-0.305079	-1.527913	-0.078115	99
Es	1.642849	0.229224	0.000774	99
Es	-2.119637	1.119004	0.237111	99
Es	1.952587	-0.369261	-0.193141	99
Es	3.443029	0.358506	-0.262959	99
Es	-1.824808	-1.435735	0.004303	99
Es	-0.696198	-1.149252	-0.008678	99
Es	-1.368261	1.210912	0.186992	99
Es	-1.994056	-1.917415	0.079935	99
Es	2.901146	0.865395	-0.179995	99
Es	1.792630	0.122731	-0.128324	99
Es	1.037531	0.712016	-0.053327	99
Es	-0.444103	-1.350974	-0.033389	99
Es	-0.625683	-0.430646	0.026867	99
Es	-1.268268	1.888769	0.225048	99
Es	2.880384	0.551916	-0.196411	99
