44
Properties=species:S:1:pos:R:3:Z:I:1 energy=-360.94436925340483 field_type=dipole dipole="0.000000 0.000000 0.000000" charge=0
O	-2.800340	-0.316817	0.609273	8
C	-1.386680	-0.465597	0.567163	6
C	-0.757621	0.920953	0.509683	6
C	0.763989	0.878372	0.537563	6
C	1.308650	0.282893	-0.730517	6
N	1.926869	-0.852707	-0.710547	7
O	2.320169	-1.173657	-2.013847	8
H	-3.178530	-1.212237	0.650023	1
H	-1.130490	-1.057137	-0.317127	1
H	-1.066960	-1.005077	1.464413	1
H	-1.118181	1.512043	1.360653	1
H	-1.112561	1.442403	-0.388107	1
H	1.123479	0.311922	1.403353	1
H	1.156620	1.898392	0.611203	1
H	1.145370	0.846512	-1.666127	1
H	2.806220	-2.010257	-1.887057	1
Es	2.103156	-1.025748	-1.316335	99
Es	0.936490	0.706457	0.510009	99
Es	1.691326	-0.232563	-0.910056	99
Es	-2.618891	-0.411053	0.600313	99
Es	2.162485	-1.063554	-1.551322	99
Es	-1.242272	-0.147196	0.556196	99
Es	-2.135040	-0.436176	0.649596	99
Es	-0.877853	0.236424	0.419102	99
Es	2.652223	-1.262059	-1.896994	99
Es	0.084514	0.839016	0.577109	99
Es	-1.751502	-0.145315	0.540775	99
Es	-2.978191	-0.400028	0.789207	99
Es	2.267261	-1.296932	-1.865296	99
Es	-0.152601	0.897899	0.354645	99
Es	1.106802	0.592303	0.037108	99
Es	-0.763804	0.830535	0.670632	99
Es	-2.825323	-0.471456	0.610095	99
Es	1.371843	0.202702	-0.816624	99
Es	0.957112	1.433504	0.557054	99
Es	1.277639	0.362871	-0.673178	99
Es	-0.401781	0.921058	0.557985	99
Es	2.125740	-1.010597	-1.395584	99
Es	-2.209400	-0.428315	0.675586	99
Es	2.207403	-1.144205	-1.734349	99
Es	-1.349832	0.489141	0.759478	99
Es	-1.208179	-0.426226	0.156107	99
Es	1.859916	-0.746608	-0.890428	99
Es	1.595960	-0.537652	-0.861321	99
