40
Properties=species:S:1:pos:R:3:Z:I:1 energy=-322.80928704675676 field_type=dipole dipole="0.000000 0.000000 0.000000" charge=0
O	-1.689881	-0.611848	0.903826	8
C	-0.379901	-0.418788	0.368787	6
C	-0.275361	-1.191798	-0.947443	6
C	1.105119	-1.230978	-1.439353	6
N	2.197859	-1.270228	-1.826174	7
C	-0.194941	1.063722	0.203977	6
C	0.773849	1.775392	0.795197	6
H	-1.750941	-0.061378	1.705246	1
H	0.330289	-0.825508	1.099556	1
H	-0.939711	-0.753698	-1.703844	1
H	-0.638631	-2.215468	-0.795673	1
H	-0.905921	1.578952	-0.439993	1
H	1.513649	1.315142	1.443967	1
H	0.854519	2.846482	0.631927	1
Es	0.016070	-1.205568	-1.119274	99
Es	1.783317	-1.381069	-1.603308	99
Es	0.671063	2.127236	0.754364	99
Es	-0.831376	-0.483478	0.479824	99
Es	1.606159	-1.203131	-1.673022	99
Es	-0.183598	0.908333	0.241613	99
Es	0.744956	1.419110	0.372719	99
Es	-0.369288	0.057836	0.163453	99
Es	-0.419781	0.082613	0.129480	99
Es	-0.605618	-0.877158	-0.378087	99
Es	0.340436	1.487835	0.844970	99
Es	0.113418	-1.247957	-1.051125	99
Es	-0.402867	-1.676248	-0.807328	99
Es	2.057644	-1.388816	-2.064155	99
Es	-1.693237	-0.530351	0.931354	99
Es	-1.936695	-0.504032	0.986975	99
Es	0.853586	1.712692	0.863526	99
Es	-0.541460	0.308830	0.371765	99
Es	-1.296173	-0.696349	0.653680	99
Es	1.942932	-1.002035	-1.486352	99
Es	1.312284	-1.206550	-1.541453	99
Es	2.122942	-1.276258	-1.791205	99
Es	0.677770	1.832525	0.725572	99
Es	-1.661120	-0.605844	0.964547	99
Es	-0.473881	-0.736092	-0.374809	99
Es	-0.314350	-0.024332	0.316515	99
