42
Properties=species:S:1:pos:R:3:Z:I:1 energy=-339.97233535784795 field_type=dipole dipole="0.000000 0.000000 0.000000" charge=0
O	0.030061	-2.530168	-0.239057	8
C	-1.024249	-1.966278	0.522073	6
C	-0.894039	-0.476918	0.608573	6
C	0.044652	0.267392	0.006263	6
N	0.179852	1.630312	0.084443	7
C	1.086291	2.455152	-0.519317	6
N	2.022411	2.178832	-1.354847	7
H	-0.096869	-3.493498	-0.225117	1
H	-0.996759	-2.396358	1.528123	1
H	-1.976449	-2.227728	0.050253	1
H	-1.644749	0.011702	1.223013	1
H	0.795771	-0.218288	-0.612477	1
H	-0.496849	2.084122	0.689163	1
H	0.949961	3.506792	-0.213007	1
H	2.020961	1.174932	-1.548077	1
Es	0.066924	-2.541688	-0.158841	99
Es	-0.978445	-1.525802	0.540660	99
Es	1.965684	1.567438	-1.445767	99
Es	1.714846	2.252032	-1.075516	99
Es	-1.000004	-1.708108	0.545715	99
Es	0.036234	-2.522595	-0.241713	99
Es	1.039961	2.693015	-0.437645	99
Es	-0.541485	-0.156222	0.277201	99
Es	0.166413	1.049317	0.086273	99
Es	2.210910	2.311871	-1.428617	99
Es	-0.361631	-0.080968	0.384435	99
Es	-0.205317	1.902266	0.434250	99
Es	-1.397087	-0.143127	1.015809	99
Es	0.160851	-2.418572	-0.498135	99
Es	0.412275	1.699619	0.094169	99
Es	-1.376209	-2.240244	0.724511	99
Es	1.548230	2.371729	-0.926892	99
Es	0.172802	1.648000	0.080489	99
Es	-0.427119	-2.516696	0.143500	99
Es	-0.082634	-2.779490	-0.171946	99
Es	0.543013	-0.066683	-0.395499	99
Es	-0.864817	-0.445299	0.590976	99
Es	2.072605	2.261972	-1.411977	99
Es	1.049101	2.845294	-0.416852	99
Es	0.383163	1.893185	-0.293463	99
Es	-1.201267	-2.142207	0.572242	99
Es	0.031483	0.253256	0.022896	99
