43
Properties=species:S:1:pos:R:3:Z:I:1 energy=-323.9236516947389 field_type=dipole dipole="0.000000 0.000000 0.000000" charge=0
O	-0.877566	-2.264251	-1.026245	8
C	-1.687896	-1.417521	-0.211125	6
C	-1.164286	0.021209	-0.281515	6
N	0.179414	0.095659	0.304175	7
C	0.778594	1.406529	0.086045	6
C	2.123614	1.436809	0.674355	6
C	3.224484	1.461599	1.154915	6
H	-1.176816	-3.175381	-0.864225	1
H	-1.670366	-1.793701	0.817405	1
H	-2.715116	-1.463141	-0.586195	1
H	-1.846026	0.683809	0.262405	1
H	-1.130726	0.332319	-1.332745	1
H	0.756174	-0.615311	-0.152835	1
H	0.163154	2.184789	0.553535	1
H	0.845443	1.628809	-0.984955	1
H	4.197924	1.477779	1.587005	1
Es	3.109639	1.458225	1.039052	99
Es	0.404601	0.408100	0.138960	99
Es	0.166809	0.291241	-0.103896	99
Es	2.262058	1.295411	0.777465	99
Es	-0.031785	0.117932	0.009140	99
Es	-1.542798	-1.424786	-0.192171	99
Es	-1.578164	0.393921	0.046721	99
Es	-1.177343	-2.263525	-0.804967	99
Es	2.851378	1.355192	0.840833	99
Es	-1.757672	-1.722575	-0.453013	99
Es	2.424580	1.339513	1.003419	99
Es	-0.968543	-2.036647	-0.676627	99
Es	0.553145	0.968486	0.081530	99
Es	1.433190	1.464074	0.265641	99
Es	-1.126918	0.116942	-0.387358	99
Es	-1.497258	-0.841615	-0.341129	99
Es	3.680808	1.566828	1.371759	99
Es	-0.941078	-2.285906	-0.926225	99
Es	-1.158277	-2.013827	-0.695443	99
Es	0.120478	0.052867	0.180153	99
Es	2.824156	1.670089	0.882425	99
Es	-1.074031	-0.016763	-0.374618	99
Es	0.819795	1.487801	0.093581	99
Es	0.405242	1.746481	0.231450	99
Es	-1.943398	-1.560898	-0.502030	99
Es	0.366768	0.445138	0.299721	99
Es	-0.778532	-2.311265	-0.897044	99
