42
Properties=species:S:1:pos:R:3:Z:I:1 energy=-339.9734540170986 field_type=dipole dipole="0.000000 0.000000 0.000000" charge=0
O	-2.852155	0.036705	-0.527513	8
C	-1.616545	-0.423495	0.007157	6
C	-0.611935	0.730145	0.071127	6
N	-1.054215	1.954315	0.081587	7
N	0.737715	0.518215	0.126117	7
C	1.475915	-0.630615	0.174997	6
C	2.808405	-0.710455	0.223657	6
H	-2.667275	0.307775	-1.445503	1
H	-1.242985	-1.235205	-0.621613	1
H	-1.789775	-0.796165	1.020547	1
H	-2.086815	1.912575	0.063987	1
H	1.266575	1.385125	0.162007	1
H	0.893105	-1.548415	0.176007	1
H	3.435625	0.174905	0.226697	1
H	3.304355	-1.675415	0.260747	1
Es	-3.027369	0.231569	-0.598193	99
Es	-0.993254	0.239829	0.041045	99
Es	-1.497984	-0.932763	-0.056628	99
Es	-2.239362	-0.152413	-0.328944	99
Es	1.011739	0.944572	0.083093	99
Es	-1.630790	-0.466416	-0.041152	99
Es	0.734220	0.513865	0.094659	99
Es	1.517339	-0.663431	0.159784	99
Es	0.130015	0.563341	0.098911	99
Es	2.039258	-0.725571	0.066084	99
Es	3.082424	-1.244878	0.223680	99
Es	0.952938	0.183333	0.351325	99
Es	0.809030	0.359009	0.008479	99
Es	3.221577	-0.110891	0.253805	99
Es	-1.497260	1.905054	0.091135	99
Es	-2.825074	0.029355	-0.583345	99
Es	-2.738905	0.046359	-0.631377	99
Es	-0.662631	0.706507	0.073173	99
Es	-1.242015	1.944195	0.081788	99
Es	2.218719	-0.691999	0.310077	99
Es	-2.877014	-0.033322	-0.532180	99
Es	-0.889994	1.336895	0.120080	99
Es	-0.941537	1.510021	0.021527	99
Es	1.149489	-1.122202	0.190823	99
Es	2.863739	-0.830162	0.234329	99
Es	-0.829018	2.223937	0.080721	99
Es	-1.710467	-0.539371	0.245319	99
