41
Properties=species:S:1:pos:R:3:Z:I:1 energy=-359.7907070525768 field_type=dipole dipole="0.000000 0.000000 0.000000" charge=0
O	-1.270234	-0.249724	1.548126	8
C	-0.529754	-0.584404	0.376776	6
C	-1.464234	-0.985654	-0.755503	6
O	-2.688904	-1.003624	-0.628314	8
C	0.305616	0.600736	-0.002564	6
C	1.770236	0.638006	0.353936	6
N	1.340666	0.477626	-1.033123	7
H	-2.213494	-0.380414	1.317876	1
H	0.086846	-1.458384	0.612696	1
H	-0.975504	-1.298484	-1.694664	1
H	-0.253824	1.528806	0.009276	1
H	2.224206	-0.231934	0.813446	1
H	2.212866	1.589486	0.623976	1
H	1.455516	1.357966	-1.541944	1
Es	-2.661827	-1.101324	-0.780519	99
Es	-0.904130	-0.222827	1.284933	99
Es	1.525413	0.593933	0.317349	99
Es	-0.376859	-0.281833	0.353828	99
Es	-2.108850	-1.019131	-0.672841	99
Es	1.420512	0.526732	-0.940436	99
Es	-1.802243	-1.014700	-0.921863	99
Es	1.347815	0.404598	-1.307794	99
Es	-1.338235	-0.291590	1.387285	99
Es	-1.451558	-0.428399	1.530421	99
Es	1.390597	0.654868	-1.058083	99
Es	2.129966	0.981575	0.612296	99
Es	-1.316116	-0.263084	1.427269	99
Es	-1.949575	-0.968166	-0.790339	99
Es	-2.166612	-0.816778	-0.140204	99
Es	1.828671	0.565213	0.359425	99
Es	0.264109	0.660345	0.000994	99
Es	-1.303737	-1.066099	-1.117232	99
Es	-0.691904	-0.452588	0.672922	99
Es	-0.210063	-0.057998	0.181058	99
Es	-0.667438	-0.318648	0.551851	99
Es	-2.889735	-1.058922	-0.473197	99
Es	1.222497	0.577949	-0.251909	99
Es	1.131199	0.524974	-0.780910	99
Es	-1.603966	-0.681477	0.219912	99
Es	-0.136390	0.091951	0.176586	99
Es	1.426277	0.554652	0.292233	99
