42
Properties=species:S:1:pos:R:3:Z:I:1 energy=-339.9776260781187 field_type=dipole dipole="0.000000 0.000000 0.000000" charge=0
O	-1.423666	-2.898073	0.876271	8
C	-1.921716	-1.823793	0.571221	6
N	-1.231446	-0.689163	0.247241	7
C	0.205524	-0.689773	0.108211	6
C	0.711464	0.712007	0.254151	6
C	1.671264	1.295267	-0.748739	6
N	0.279194	1.739037	-0.701359	7
H	-3.011186	-1.666283	0.533591	1
H	-1.729226	0.093297	-0.159719	1
H	0.438284	-1.110243	-0.876569	1
H	0.652934	-1.340633	0.866991	1
H	0.778114	1.021927	1.290441	1
H	1.950984	0.707167	-1.614019	1
H	2.418664	1.997387	-0.401949	1
H	0.210804	2.651867	-0.245769	1
Es	-1.474096	-3.181514	0.949301	99
Es	-1.665993	-2.401698	0.798152	99
Es	0.675142	0.796700	0.252192	99
Es	-1.495851	-1.188765	0.228505	99
Es	-0.922741	-0.696693	0.173656	99
Es	0.986483	1.444934	-0.584580	99
Es	-1.385352	-2.702219	0.904745	99
Es	0.384717	1.920481	-0.483625	99
Es	-0.861496	-0.561591	0.168055	99
Es	0.535291	0.174576	0.115609	99
Es	0.412985	-1.102113	0.433981	99
Es	-2.594922	-1.736376	0.537974	99
Es	0.269412	-0.605418	-0.022686	99
Es	-1.312085	-0.785535	0.582690	99
Es	0.058541	1.888007	-0.672861	99
Es	-1.435782	-0.340642	0.047799	99
Es	-1.925800	-1.774519	0.550898	99
Es	0.465887	0.305851	0.205197	99
Es	-1.454719	-2.791772	0.815295	99
Es	0.855843	1.659955	-0.645790	99
Es	1.413709	1.107148	-0.442245	99
Es	0.302828	-0.620884	-0.045951	99
Es	-1.394952	-2.826776	0.760909	99
Es	0.539647	1.366515	-0.308665	99
Es	1.807615	1.362873	-0.760201	99
Es	2.002669	1.306062	-0.873569	99
Es	0.946619	1.269742	-0.486250	99
