41
Properties=species:S:1:pos:R:3:Z:I:1 energy=-359.7320985325912 field_type=dipole dipole="0.000000 0.000000 0.000000" charge=0
O	-2.955461	-0.822420	1.470849	8
N	-1.569101	-0.995740	1.402389	7
C	-1.161251	-0.616550	0.234359	6
C	0.296409	-0.659550	-0.126771	6
C	0.886119	0.711970	-0.119271	6
C	1.928079	1.126270	-1.123441	6
O	0.550919	1.508950	-1.262881	8
H	-3.158031	-1.096380	2.384619	1
H	-1.855001	-0.218440	-0.527221	1
H	0.380669	-1.125310	-1.114861	1
H	0.831949	-1.289990	0.590799	1
H	0.877509	1.183900	0.855229	1
H	2.314659	0.392910	-1.820131	1
H	2.632539	1.900380	-0.843671	1
Es	0.597545	1.359869	-1.028486	99
Es	-1.180453	-0.649536	0.310232	99
Es	-2.821921	-0.825741	1.450812	99
Es	0.656233	-0.194382	-0.043421	99
Es	-3.085736	-0.903519	1.212663	99
Es	-1.634574	-0.900152	0.952811	99
Es	-2.073910	-1.027325	1.301503	99
Es	1.582370	1.442005	-1.159501	99
Es	1.956987	1.173001	-1.006572	99
Es	0.611967	0.167555	-0.125578	99
Es	-1.519549	-1.012091	1.407874	99
Es	0.925072	1.394105	-1.218365	99
Es	0.494057	-0.300464	0.047147	99
Es	-1.711502	-0.928034	1.292266	99
Es	1.870512	0.995962	-1.238943	99
Es	0.363829	-0.778769	-0.131383	99
Es	0.739236	0.621762	-0.159442	99
Es	0.365577	-0.299181	-0.012994	99
Es	0.730816	1.445550	-1.137023	99
Es	-3.094010	-0.968367	1.934460	99
Es	0.730882	1.323480	-1.077335	99
Es	-0.192276	-0.593641	0.040885	99
Es	-1.565105	-0.364829	0.048383	99
Es	-1.287994	-0.784806	0.952135	99
Es	1.185001	1.306061	-0.944999	99
Es	-2.914559	-0.692254	1.498246	99
Es	1.794774	0.898696	-1.112886	99
