38
Properties=species:S:1:pos:R:3:Z:I:1 energy=-358.5354208176862 field_type=dipole dipole="0.000000 0.000000 0.000000" charge=0
O	-2.737221	-0.607149	-0.408728	8
N	-1.370601	-0.665179	-0.703448	7
C	-0.699791	-0.446189	0.386942	6
C	0.819509	-0.418909	0.392912	6
O	1.346969	-1.113659	-0.727138	8
C	1.301519	0.942261	0.392912	6
C	1.698809	2.064161	0.392912	6
H	-3.150361	-0.792419	-1.273608	1
H	-1.204031	-0.234179	1.346532	1
H	1.151099	-0.943539	1.294592	1
H	0.783059	-0.851809	-1.479558	1
H	2.061039	3.066611	0.385682	1
Es	0.728184	-0.255404	0.262644	99
Es	-1.256956	-0.629030	-0.504222	99
Es	1.545434	1.251125	0.383899	99
Es	-1.041893	-0.308125	0.421723	99
Es	-2.565770	-0.665950	-0.353112	99
Es	1.138040	-0.291873	0.112011	99
Es	-2.797863	-0.889704	-0.512566	99
Es	1.758636	2.172665	0.685015	99
Es	0.902604	-0.989921	-0.444603	99
Es	1.401177	1.182998	0.397482	99
Es	1.657244	1.938723	0.455447	99
Es	1.130318	-0.955995	-0.497809	99
Es	-0.903966	-0.420696	0.192985	99
Es	-0.937100	-0.484971	-0.056300	99
Es	1.380848	-0.841122	-0.669856	99
Es	-1.579901	-0.656993	-0.545459	99
Es	-2.582553	-0.680031	-0.612619	99
Es	0.473968	-0.447573	0.175730	99
Es	-2.179624	-0.635448	-0.487625	99
Es	1.679397	2.007585	0.440439	99
Es	-2.448166	-0.406951	-0.245479	99
Es	-1.363349	-0.744519	-0.422249	99
Es	1.082189	0.277171	0.287243	99
Es	1.152211	-1.023302	-0.415798	99
Es	1.205961	0.836955	0.401100	99
Es	1.346741	-1.115632	-0.668905	99
