42
Properties=species:S:1:pos:R:3:Z:I:1 energy=-339.9199234711717 field_type=dipole dipole="0.000000 0.000000 0.000000" charge=0
O	-2.708544	0.628824	0.260987	8
N	-1.529114	-0.035107	0.608857	7
C	-0.787994	-0.459797	-0.474643	6
N	-1.258464	-0.510397	-1.681523	7
C	0.660646	-0.871567	-0.233173	6
C	1.521086	0.357593	-0.251193	6
C	2.271596	0.779933	0.775437	6
H	-3.387334	-0.066807	0.361627	1
H	-0.990384	0.430473	1.340727	1
H	-2.214134	-0.140507	-1.630133	1
H	0.980906	-1.560047	-1.022203	1
H	0.725216	-1.398807	0.725467	1
H	1.525556	0.926103	-1.180253	1
H	2.314096	0.242923	1.717337	1
H	2.876866	1.677183	0.682677	1
Es	-1.086791	0.154184	0.742056	99
Es	1.820591	0.328947	0.379185	99
Es	2.521989	0.964109	1.140538	99
Es	-0.112259	-0.676679	-0.693005	99
Es	-1.932544	-0.004816	0.315370	99
Es	-1.812039	-0.278016	-1.054118	99
Es	-0.175662	-0.498255	-0.730190	99
Es	-1.961410	0.215481	0.267854	99
Es	0.662349	-0.260889	-0.380154	99
Es	2.402660	0.825148	0.992163	99
Es	1.386838	-0.158834	-0.071511	99
Es	1.663985	0.516311	0.185976	99
Es	-2.165480	0.261806	0.088644	99
Es	1.068427	-0.586970	-0.660321	99
Es	2.203344	0.660840	0.625541	99
Es	-1.510164	-0.035137	0.083907	99
Es	-1.067439	-0.527091	-0.845488	99
Es	1.272805	-0.115829	-0.127744	99
Es	-1.270149	-0.537162	-1.782241	99
Es	-2.624222	0.585079	0.247862	99
Es	1.186824	-0.335718	-0.163405	99
Es	-0.978682	-0.340143	-0.871718	99
Es	-1.936187	0.292929	0.473821	99
Es	-3.020972	0.257678	0.252538	99
Es	-2.341814	0.301441	0.335308	99
Es	-1.174864	-0.536298	-1.528881	99
Es	0.297741	-0.379660	-0.311558	99
