45
Properties=species:S:1:pos:R:3:Z:I:1 energy=-739.2859373674266 field_type=dipole dipole="0.000000 0.000000 0.000000" charge=0
C	-1.456546	0.096824	-0.506902	6
C	0.055994	0.060584	-0.506822	6
C	0.765624	1.024244	0.443128	6
O	1.786783	0.072664	0.820248	8
S	0.855144	-1.208956	0.411158	16
O	0.096143	-1.634286	1.564228	8
O	1.612514	-2.101686	-0.436062	8
H	-1.861636	-0.748456	-1.072292	1
H	-1.818156	1.017484	-0.976102	1
H	-1.867706	0.053804	0.506838	1
H	0.451324	0.110704	-1.528992	1
H	0.186684	1.346794	1.316888	1
H	1.193834	1.910284	-0.035312	1
Es	1.401391	-0.210124	0.568879	99
Es	1.041777	-1.668634	0.350575	99
Es	-1.511258	-0.046549	-0.320424	99
Es	-1.772117	-0.270006	-0.530337	99
Es	0.499437	-1.032057	0.239009	99
Es	0.682778	-1.007529	0.408641	99
Es	-0.680512	0.390007	-0.079697	99
Es	1.021335	-1.132646	0.378136	99
Es	1.008636	0.560795	0.301980	99
Es	0.861883	-1.330306	0.400572	99
Es	0.658991	0.416655	0.200872	99
Es	0.974170	0.126154	0.378482	99
Es	1.001219	-1.164856	0.382511	99
Es	1.002450	-1.777424	0.461712	99
Es	1.225587	-2.005947	0.353055	99
Es	-0.213046	0.646800	0.174509	99
Es	1.273043	-0.390075	0.553536	99
Es	0.714679	-0.620451	0.374068	99
Es	1.011526	0.422870	0.330116	99
Es	0.714253	-1.407335	0.454251	99
Es	0.331967	-0.075608	0.016812	99
Es	0.990569	-0.645917	0.477890	99
Es	0.800290	-1.024592	0.422389	99
Es	0.713726	-1.370635	0.470313	99
Es	1.030847	-1.673502	0.509687	99
Es	0.526044	-0.894202	0.375670	99
Es	-0.867663	0.620605	-0.330991	99
Es	0.253405	0.152455	0.180443	99
Es	0.690984	-0.261416	0.263560	99
Es	0.971682	-1.128727	0.459021	99
Es	1.032581	-1.621038	0.393534	99
Es	-0.056093	-0.002638	0.073689	99
