44
Properties=species:S:1:pos:R:3:Z:I:1 energy=-645.4772635491416 field_type=dipole dipole="0.000000 0.000000 0.000000" charge=0
C	-1.728167	0.540759	-0.005681	6
C	-0.236027	0.552759	0.000999	6
C	0.530533	1.705128	0.004049	6
S	2.211073	1.389338	0.012429	16
C	1.941823	-0.298491	0.012359	6
C	0.602383	-0.604742	0.005579	6
N	0.144543	-1.869511	0.003969	7
H	-2.136927	1.556418	0.002789	1
H	-2.109897	0.016519	0.876299	1
H	-2.101397	0.034369	-0.901611	1
H	0.182283	2.728868	0.001889	1
H	2.782473	-0.976891	0.017349	1
H	-0.843137	-2.098442	-0.019761	1
H	0.760433	-2.676081	-0.010651	1
Es	0.510941	-0.496281	0.009305	99
Es	1.685961	-0.339944	0.120453	99
Es	2.504434	-0.759715	0.005724	99
Es	-0.169290	0.503165	0.003656	99
Es	2.095751	0.507273	0.026428	99
Es	1.457527	-0.422363	-0.054584	99
Es	-2.000885	1.188932	-0.009600	99
Es	0.163471	-1.809071	-0.029690	99
Es	2.576680	1.649746	0.007418	99
Es	0.149215	-1.832663	0.010085	99
Es	1.627232	1.519898	-0.078384	99
Es	-0.439854	-1.985369	0.012757	99
Es	-0.827311	0.686228	-0.008750	99
Es	-1.859706	0.369667	-0.023497	99
Es	0.298475	2.387545	0.007558	99
Es	-1.782483	0.486736	-0.001133	99
Es	0.161254	0.963931	0.075734	99
Es	1.492678	-0.264598	-0.031677	99
Es	2.085336	1.348294	0.047067	99
Es	-2.042307	0.090216	0.012226	99
Es	2.075990	1.360872	0.071450	99
Es	2.263498	1.365604	-0.002100	99
Es	2.281144	1.504830	-0.006468	99
Es	0.327730	-1.355617	0.027917	99
Es	2.159067	1.385812	-0.031509	99
Es	0.085221	0.730024	-0.086815	99
Es	0.522747	-2.342449	-0.014369	99
Es	0.527867	1.697817	0.006903	99
Es	0.091935	0.158299	0.022210	99
Es	1.972272	1.440790	0.066645	99
