45
Properties=species:S:1:pos:R:3:Z:I:1 energy=-739.2634254194287 field_type=dipole dipole="0.000000 0.000000 0.000000" charge=0
C	-1.678107	0.391223	-0.484088	6
C	-0.176907	0.230263	-0.577118	6
O	0.506753	1.212943	0.235022	8
C	1.542593	0.327863	0.706902	6
S	0.572913	-1.081037	0.326602	16
O	-0.220487	-1.529087	1.455252	8
O	1.274053	-2.007867	-0.541658	8
H	-2.184857	-0.430817	-1.000758	1
H	-1.994047	1.327183	-0.955448	1
H	-2.023597	0.405123	0.553712	1
H	0.174983	0.272793	-1.614018	1
H	2.463033	0.422463	0.123472	1
H	1.743673	0.458953	1.772122	1
Es	0.630169	-0.241507	0.272806	99
Es	0.949143	-1.007619	0.249602	99
Es	-0.142590	0.075217	-0.111310	99
Es	0.448719	-1.523493	0.452138	99
Es	1.339487	0.186887	0.382878	99
Es	0.574586	-1.510309	0.334218	99
Es	0.485677	0.521999	0.162704	99
Es	0.434285	0.219274	0.070314	99
Es	-0.734359	-0.268453	-0.049183	99
Es	0.710055	1.035718	0.178463	99
Es	0.854227	-1.604925	0.218739	99
Es	0.887915	-0.362368	0.377043	99
Es	0.654392	-1.286634	0.250214	99
Es	-0.590569	0.315857	-0.148086	99
Es	1.020281	0.526824	0.225733	99
Es	0.430269	-1.617722	0.465668	99
Es	0.112040	0.106215	0.100254	99
Es	0.310704	0.019076	0.109231	99
Es	0.816812	-1.469057	0.149429	99
Es	0.483238	-1.467441	0.293648	99
Es	0.378212	-0.847152	0.281822	99
Es	0.423367	-0.004458	0.108059	99
Es	0.563442	-0.524818	0.272515	99
Es	0.666271	-1.353947	0.349585	99
Es	-1.849555	0.315918	-0.339094	99
Es	0.528566	-1.200494	0.534507	99
Es	0.824866	-0.236795	0.274831	99
Es	-1.805539	0.656843	-0.358622	99
Es	0.561957	-1.074521	0.460945	99
Es	-1.496911	0.566404	-0.304369	99
Es	0.574119	-1.814611	0.443594	99
Es	-0.079280	0.666531	-0.000287	99
