41
Properties=species:S:1:pos:R:3:Z:I:1 energy=-644.2887670134668 field_type=dipole dipole="0.000000 0.000000 0.000000" charge=0
C	-0.633630	-2.089107	0.244574	6
C	-1.143710	-0.874217	-0.003566	6
C	-0.431220	0.368943	-0.108466	6
N	-1.090030	1.503113	-0.361286	7
S	-0.024610	2.766253	-0.426806	16
C	1.371680	1.834523	-0.116556	6
C	0.990450	0.518323	0.039214	6
H	-1.289370	-2.953277	0.298174	1
H	0.424840	-2.265357	0.399264	1
H	-2.221560	-0.803337	-0.144376	1
H	2.357610	2.273453	-0.065436	1
H	1.689550	-0.279317	0.245264	1
Es	-0.869648	-1.473888	0.120329	99
Es	-1.143744	-0.874114	-0.003605	99
Es	-0.771553	-0.253203	-0.053999	99
Es	-0.003198	2.767031	-0.457127	99
Es	-1.067940	-2.683406	0.284130	99
Es	-0.101405	2.696646	-0.420631	99
Es	0.074884	-2.203497	0.346610	99
Es	0.989694	0.523673	0.036294	99
Es	2.015642	2.129286	-0.085602	99
Es	0.979709	1.014095	-0.043298	99
Es	-1.252592	1.541513	-0.399094	99
Es	-0.026814	2.772345	-0.416348	99
Es	-0.723929	1.110952	-0.255959	99
Es	1.371597	1.834680	-0.116589	99
Es	-1.853314	-0.824417	-0.096591	99
Es	-0.722911	2.048754	-0.401106	99
Es	-0.808524	0.996684	-0.245001	99
Es	1.209242	1.185435	-0.030816	99
Es	0.020338	2.743467	-0.453734	99
Es	0.017301	2.630738	-0.423766	99
Es	-1.142141	1.513135	-0.363455	99
Es	0.057368	2.796474	-0.331436	99
Es	-0.877916	-1.431249	0.115819	99
Es	-0.431252	0.368991	-0.108487	99
Es	-0.110497	3.254800	-0.519397	99
Es	0.287869	0.417277	-0.026511	99
Es	1.448166	-0.033049	0.178020	99
Es	-0.633568	-2.089179	0.244556	99
Es	0.745746	2.311423	-0.271747	99
