47
Properties=species:S:1:pos:R:3:Z:I:1 energy=-305.27988905338987 field_type=dipole dipole="0.000000 0.000000 0.000000" charge=0
C	-2.151226	0.294183	-0.370129	6
C	-0.634576	0.269313	-0.393579	6
C	0.079794	1.350943	0.465941	6
C	1.100754	0.277583	0.909920	6
N	2.252934	0.305783	-0.003039	7
C	0.048424	-0.795867	0.509561	6
N	0.619694	-1.857347	-0.324129	7
H	-2.558246	-0.577787	-0.893269	1
H	-2.529126	1.192453	-0.869899	1
H	-2.541426	0.287083	0.653561	1
H	-0.276856	0.283873	-1.433139	1
H	-0.527796	1.725653	1.299971	1
H	0.465384	2.215443	-0.083389	1
H	1.375194	0.296193	1.967991	1
H	2.024844	0.482853	-0.977780	1
H	2.756994	-0.581777	0.015091	1
H	-0.556506	-1.152207	1.351061	1
H	1.134424	-1.517897	-1.133169	1
H	-0.082686	-2.498467	-0.691569	1
Es	1.742949	0.315142	0.335567	99
Es	-0.520036	0.044602	0.264057	99
Es	1.965417	0.527914	0.340019	99
Es	0.493867	0.746228	0.516408	99
Es	0.335413	0.576548	0.283325	99
Es	-1.915708	0.379317	-0.140757	99
Es	2.108673	0.402778	0.290461	99
Es	0.593550	1.060364	0.318781	99
Es	-1.977574	0.421247	-0.421342	99
Es	0.739657	-1.721585	-0.531566	99
Es	0.108680	-0.802130	0.209615	99
Es	-0.301662	0.317696	-0.087506	99
Es	1.661775	0.175664	0.390791	99
Es	0.693719	-1.691440	-0.418769	99
Es	-1.250005	0.303738	-0.265679	99
Es	0.365758	-1.192725	0.213618	99
Es	0.293592	-2.256568	-0.489813	99
Es	0.279268	-1.378157	0.003268	99
Es	-2.262051	0.018305	-0.355154	99
Es	-1.947357	0.516002	-0.430583	99
Es	-1.497021	0.170915	-0.280116	99
Es	2.516479	-0.174772	0.076537	99
Es	1.031193	0.012678	0.415762	99
Es	0.355055	-0.992454	0.116614	99
Es	-0.356473	1.393696	0.705921	99
Es	-0.028634	1.026306	0.307798	99
Es	1.751140	0.177720	0.263865	99
Es	-0.088674	0.491058	0.305339	99
