43
Properties=species:S:1:pos:R:3:Z:I:1 energy=-661.4593372843789 field_type=dipole dipole="0.000000 0.000000 0.000000" charge=0
C	-1.450454	-1.327596	0.114760	6
C	0.065716	-1.223166	0.064670	6
C	0.517015	0.199074	0.061330	6
N	0.702215	0.928434	1.143360	7
N	1.120265	2.210094	0.845410	7
C	1.235565	2.397984	-0.450730	6
S	0.844915	1.031484	-1.408620	16
H	-1.757575	-2.377966	0.137480	1
H	-1.910554	-0.858306	-0.761390	1
H	-1.852005	-0.836716	1.007910	1
H	0.442356	-1.753816	-0.817690	1
H	0.490766	-1.729046	0.939680	1
H	1.551775	3.339544	-0.876170	1
Es	1.289092	2.074481	-0.850176	99
Es	-0.621785	-1.202499	0.435580	99
Es	-0.600433	-1.337610	-0.464832	99
Es	-0.138491	-0.968726	0.090096	99
Es	1.023307	1.776446	0.069020	99
Es	-0.740699	-1.210479	0.260731	99
Es	0.793014	1.036060	-1.432032	99
Es	0.849136	1.022324	-1.343573	99
Es	1.441573	2.278675	0.187077	99
Es	0.515271	0.248508	0.000047	99
Es	0.565164	0.857430	1.363953	99
Es	0.720517	1.037445	1.164745	99
Es	0.155151	-0.683725	0.165697	99
Es	-0.940796	-1.384389	0.379408	99
Es	0.800842	1.044001	-1.203499	99
Es	0.971077	1.723441	0.754227	99
Es	1.330905	2.617747	-0.670733	99
Es	0.603831	0.916931	0.675946	99
Es	1.037349	2.142759	0.413225	99
Es	0.745506	0.998772	0.351533	99
Es	0.892159	1.123362	-1.294264	99
Es	-0.922041	-1.333584	0.327673	99
Es	1.159891	2.243955	0.514550	99
Es	0.838983	0.966885	-1.256091	99
Es	0.815028	0.963416	-1.414867	99
Es	0.609887	0.782893	-0.344856	99
Es	-0.866962	-1.308187	-0.338656	99
Es	1.095703	1.934250	0.428190	99
Es	-1.564214	-1.851900	-0.030946	99
Es	0.919787	0.925907	-1.707731	99
