50
Properties=species:S:1:pos:R:3:Z:I:1 energy=-704.6453315024488 field_type=dipole dipole="0.000000 0.000000 0.000000" charge=0
C	-2.279668	-1.303090	0.136516	6
C	-0.761688	-1.249340	0.178716	6
C	-0.250878	0.171320	-0.022204	6
S	1.533562	0.240450	0.036586	16
C	1.871933	1.953880	-0.284364	6
O	1.951962	-0.041290	1.396096	8
O	2.053473	-0.522280	-1.082524	8
H	-2.626368	-2.332450	0.269996	1
H	-2.658698	-0.938750	-0.823534	1
H	-2.715758	-0.691650	0.932966	1
H	-0.355508	-1.907100	-0.598274	1
H	-0.411438	-1.642730	1.139886	1
H	-0.626288	0.836560	0.761316	1
H	-0.557548	0.559140	-0.999134	1
H	1.473463	2.213800	-1.266663	1
H	2.954153	2.095420	-0.270984	1
H	1.405292	2.558110	0.495596	1
Es	-1.016641	-0.674810	-0.041421	99
Es	1.903069	1.137282	-0.436230	99
Es	1.537297	0.143177	0.441315	99
Es	1.790505	0.117355	0.004396	99
Es	0.147721	0.073034	-0.056807	99
Es	-2.452578	-0.991210	0.506404	99
Es	1.553823	0.309352	0.053208	99
Es	-2.526903	-1.796108	0.057803	99
Es	1.865100	1.431130	-0.334988	99
Es	1.510081	0.011526	0.113273	99
Es	-0.275475	-0.523478	-0.251229	99
Es	-1.334671	-1.139999	0.093197	99
Es	1.649387	0.264913	0.198697	99
Es	1.845024	1.542141	-0.193999	99
Es	1.285018	0.064789	0.082460	99
Es	1.751493	-0.027495	0.029697	99
Es	-1.928691	-1.335243	0.251125	99
Es	1.478748	-0.040687	-0.005905	99
Es	0.093014	-0.441270	-0.047885	99
Es	-0.861598	-0.911295	0.123883	99
Es	2.215419	1.368828	-0.158572	99
Es	1.126787	0.099614	0.363261	99
Es	0.581231	0.070698	-0.107145	99
Es	1.443138	0.130018	0.130419	99
Es	2.010092	0.933024	0.265984	99
Es	1.743841	0.466326	-0.011773	99
Es	1.847357	0.146003	-0.044904	99
Es	1.621130	0.163369	0.104012	99
Es	-0.706359	-1.191650	0.280477	99
Es	1.830039	0.686065	0.043433	99
Es	0.737404	-0.796838	-0.295636	99
Es	-1.723968	-1.128617	0.137240	99
Es	1.608681	0.261100	0.183591	99
