48
Properties=species:S:1:pos:R:3:Z:I:1 energy=-289.3206813483591 field_type=dipole dipole="0.000000 0.000000 0.000000" charge=0
C	-1.510235	0.167635	1.247937	6
C	0.011255	0.140645	1.078417	6
C	0.495205	-1.201685	0.512437	6
C	0.202845	-1.346765	-0.981323	6
N	0.753615	-0.231825	-1.755773	7
C	0.210085	1.048015	-1.294853	6
C	0.502455	1.290165	0.185827	6
H	-1.830405	1.116785	1.690617	1
H	-1.836025	-0.636355	1.916027	1
H	-2.038225	0.047245	0.297837	1
H	0.447625	0.270465	2.077547	1
H	0.040285	-2.034145	1.060987	1
H	1.578995	-1.279995	0.669967	1
H	0.647835	-2.279215	-1.346763	1
H	-0.875345	-1.429715	-1.162023	1
H	1.767175	-0.220095	-1.639413	1
H	0.661015	1.851585	-1.887063	1
H	-0.867145	1.087925	-1.492133	1
H	1.586805	1.400585	0.319707	1
H	0.052185	2.238745	0.502037	1
Es	0.138173	1.095899	0.187562	99
Es	0.058923	-0.571002	0.053527	99
Es	-0.906578	0.031029	1.526717	99
Es	-0.935551	0.217116	1.187400	99
Es	0.650095	-0.649126	-1.055781	99
Es	0.338709	-1.191372	-0.671288	99
Es	0.236940	0.334841	-0.154350	99
Es	0.334127	-0.315810	-0.809077	99
Es	0.700794	0.057936	-1.401021	99
Es	0.537848	-0.361331	-0.927638	99
Es	0.508529	-1.939248	-1.134727	99
Es	-0.860689	0.242890	1.391525	99
Es	0.543670	-0.042159	-0.893167	99
Es	0.143261	0.401457	-0.096447	99
Es	-0.589945	0.214649	0.998737	99
Es	0.331142	-1.232586	0.216842	99
Es	0.447199	0.677542	-0.934150	99
Es	-0.351347	0.028229	0.694161	99
Es	-0.608888	-0.069438	0.928582	99
Es	-0.591439	-0.711631	1.274572	99
Es	0.223247	-1.229484	0.285439	99
Es	0.570442	1.419401	-1.658590	99
Es	0.900646	-0.306581	-1.531592	99
Es	0.621422	-0.430552	-1.589152	99
Es	0.190437	1.298336	-0.425866	99
Es	0.197829	1.175927	-0.630785	99
Es	-0.072093	1.156424	0.432814	99
Es	-0.752970	0.230561	1.203677	99
