40
Properties=species:S:1:pos:R:3:Z:I:1 energy=-717.057509810519 field_type=dipole dipole="0.000000 0.000000 0.000000" charge=0
C	-1.204713	-1.115012	0.561581	6
C	0.057397	-0.892472	0.170201	6
S	0.768607	0.671808	0.314311	16
O	-0.023523	1.600908	1.091191	8
O	2.212687	0.600828	0.364001	8
C	0.568377	1.408128	-1.325129	6
N	0.420577	1.842778	-2.396889	7
H	-1.644223	-2.104712	0.475141	1
H	-1.831923	-0.332122	0.982901	1
H	0.676737	-1.680132	-0.237309	1
Es	-0.653022	-0.545464	0.538322	99
Es	0.345246	0.085216	0.448711	99
Es	0.825563	0.579955	0.392446	99
Es	-1.501467	-1.460682	0.570165	99
Es	1.540386	0.881844	0.485349	99
Es	0.371852	0.245007	0.519243	99
Es	0.599612	1.218159	-0.328093	99
Es	0.663966	0.847346	0.075682	99
Es	0.523491	0.242859	0.390705	99
Es	-0.089696	-0.060100	0.393882	99
Es	0.601057	0.505243	0.499568	99
Es	0.376679	0.431658	0.513933	99
Es	1.194590	1.029232	-0.352605	99
Es	0.544295	0.441117	0.387371	99
Es	0.534053	1.874043	-2.286961	99
Es	0.414790	0.182691	0.587878	99
Es	0.475626	1.544303	-1.454054	99
Es	0.934985	1.342587	-0.791947	99
Es	0.638593	1.220744	-0.424940	99
Es	0.905532	0.716238	0.325537	99
Es	0.328100	1.807245	-2.455955	99
Es	0.711267	1.018609	-0.790790	99
Es	0.953309	0.873237	0.082060	99
Es	-1.099814	-0.946378	0.563269	99
Es	0.799029	1.353838	-0.562873	99
Es	0.773214	0.716000	0.235060	99
Es	-0.440910	-0.772354	0.378260	99
Es	1.300389	0.819462	0.259915	99
Es	0.062945	0.012654	0.504664	99
Es	0.946146	1.143943	-0.078422	99
