45
Properties=species:S:1:pos:R:3:Z:I:1 energy=-739.2730979463427 field_type=dipole dipole="0.000000 0.000000 0.000000" charge=0
O	-2.020713	0.238225	-0.799034	8
C	-0.574863	0.158615	-0.742294	6
C	0.110997	1.145905	0.234506	6
C	1.211797	0.130725	0.605316	6
S	0.130157	-1.205015	0.204136	16
O	-0.724523	-1.582865	1.311346	8
O	0.759567	-2.175154	-0.666244	8
H	-2.322503	-0.688055	-0.854124	1
H	-0.152363	0.170765	-1.753344	1
H	-0.522043	1.433005	1.083536	1
H	0.481687	2.065245	-0.229034	1
H	2.092017	0.158745	-0.045044	1
H	1.530787	0.149855	1.650276	1
Es	0.292890	-1.409600	0.106667	99
Es	0.096116	-1.397394	0.208858	99
Es	0.365358	-0.874550	0.311970	99
Es	0.404731	-0.204758	0.113882	99
Es	0.223823	-1.090551	0.245403	99
Es	0.532554	0.014386	0.385224	99
Es	0.203136	-1.585335	0.187063	99
Es	0.088149	0.679409	0.031824	99
Es	0.190871	-1.430093	0.183173	99
Es	0.094195	-1.792594	0.228879	99
Es	0.966297	-0.075902	0.339396	99
Es	-1.148126	0.550019	-0.425647	99
Es	-0.725682	0.557971	-0.164200	99
Es	0.872885	-0.350246	0.413584	99
Es	-1.109033	0.111600	-0.262549	99
Es	-0.088134	-0.797066	0.189430	99
Es	-0.106973	0.240824	-0.111554	99
Es	0.143831	-1.719035	0.203751	99
Es	-1.494945	-0.070915	-0.535527	99
Es	0.457721	-1.751334	-0.028717	99
Es	-2.013511	0.208892	-0.690432	99
Es	-1.702634	0.110713	-0.632186	99
Es	0.302062	-0.324308	0.162764	99
Es	0.200518	-1.842208	0.134796	99
Es	0.647080	0.902281	0.335040	99
Es	-0.031200	-1.219047	0.199792	99
Es	-0.234441	-1.179934	0.249076	99
Es	0.002373	-1.764521	0.155248	99
Es	-0.762685	-0.622930	-0.122388	99
Es	-0.813339	0.162489	-0.309824	99
Es	-0.198087	-0.799062	0.100652	99
Es	0.050754	0.598632	0.094487	99
