37
Properties=species:S:1:pos:R:3:Z:I:1 energy=-715.8189355850316 field_type=dipole dipole="0.000000 0.000000 0.000000" charge=0
O	-1.899877	0.129297	0.523835	8
S	-0.487517	0.039667	0.786315	16
O	0.209842	-0.604192	1.868375	8
C	0.126583	-0.804643	-0.637765	6
C	0.543763	-1.382602	-1.607095	6
C	0.099953	1.714177	0.778015	6
N	0.498123	2.809587	0.750805	7
H	0.909133	-1.901292	-2.462485	1
Es	-0.803321	-0.121794	0.873044	99
Es	-0.395013	-0.272942	0.465826	99
Es	0.122638	1.962450	0.812211	99
Es	0.039439	-0.897740	-0.726260	99
Es	0.271998	2.049730	0.768306	99
Es	-0.728992	-0.156998	0.496237	99
Es	0.144719	2.430904	0.676838	99
Es	-0.769785	-0.057757	0.937073	99
Es	-0.668182	-0.178240	1.010728	99
Es	-0.378651	-0.321342	0.330939	99
Es	-0.341899	-0.657042	0.003522	99
Es	-0.200266	1.483245	0.762409	99
Es	0.222234	2.200320	0.761065	99
Es	-0.558681	-0.123511	0.757127	99
Es	-0.554968	-0.113874	0.897288	99
Es	0.713102	-1.660303	-2.031539	99
Es	0.455402	-1.208721	-1.149804	99
Es	-0.093006	1.064042	0.924395	99
Es	0.029355	0.862934	1.037238	99
Es	-0.265067	0.370948	1.029691	99
Es	-0.065552	-0.846668	-0.015844	99
Es	-0.493935	-0.347827	0.689905	99
Es	-0.139442	-0.693246	-0.150130	99
Es	-0.607906	0.151381	0.996516	99
Es	-0.528848	0.165960	0.839595	99
Es	-0.026029	-1.041291	-0.662148	99
Es	-0.570963	-0.081168	0.919786	99
Es	-0.193415	0.482856	0.914223	99
Es	0.091458	1.650137	1.026332	99
