41
Properties=species:S:1:pos:R:3:Z:I:1 energy=-302.9786963483927 field_type=dipole dipole="0.000000 0.000000 0.000000" charge=0
C	-2.378092	-0.248747	-0.012543	6
C	-0.897772	-0.166817	-0.005343	6
C	-0.051642	0.926413	-0.002193	6
C	1.266168	0.432403	0.003667	6
N	2.386958	1.158363	0.007457	7
C	1.213727	-0.935167	0.004317	6
N	-0.110092	-1.295167	-0.001393	7
H	-2.826562	0.749773	-0.003693	1
H	-2.737842	-0.789817	0.868377	1
H	-2.729762	-0.770637	-0.908173	1
H	-0.361232	1.962663	-0.004473	1
H	2.380178	2.172153	0.022197	1
H	3.309298	0.738113	0.026887	1
H	1.989678	-1.686987	0.007727	1
H	-0.453012	-2.246547	-0.002823	1
Es	-1.792337	-0.238228	0.032891	99
Es	-0.067687	0.719622	0.013585	99
Es	2.925249	0.896407	0.009743	99
Es	-2.443572	-0.373338	-0.047623	99
Es	1.212256	-0.933390	0.005279	99
Es	0.435201	-1.198231	-0.029910	99
Es	-0.146485	-1.490179	-0.004420	99
Es	1.728511	-1.436566	-0.006869	99
Es	-0.298973	-1.623592	0.067382	99
Es	-2.668120	0.433738	-0.022814	99
Es	0.564111	0.711167	-0.091009	99
Es	-0.231970	1.626143	0.013903	99
Es	-2.658954	-0.717035	-0.003876	99
Es	-0.218580	-1.093667	0.109804	99
Es	1.063479	-0.451199	0.012160	99
Es	2.288743	1.187728	0.009107	99
Es	2.396250	1.149653	0.023962	99
Es	-0.614401	-0.595348	-0.072041	99
Es	1.273546	0.417136	0.002386	99
Es	-0.096695	0.776036	-0.019728	99
Es	-2.345005	-0.365721	-0.014583	99
Es	1.308331	-0.225403	0.010896	99
Es	2.049905	0.946604	-0.169950	99
Es	2.268957	1.619114	0.178065	99
Es	-0.683112	-0.454807	-0.092539	99
Es	-0.515621	0.387605	0.069625	99
