41
Properties=species:S:1:pos:R:3:Z:I:1 energy=-302.9817780376774 field_type=dipole dipole="0.000000 0.000000 0.000000" charge=0
C	-2.182293	0.007319	0.046106	6
C	-0.697773	-0.074091	0.044336	6
C	0.031007	-1.200251	-0.012434	6
C	1.414727	-0.715361	-0.003184	6
N	2.427657	-1.484091	-0.166684	7
N	1.470797	0.636519	0.161356	7
C	0.128917	1.184439	0.099886	6
H	-2.640863	-0.985521	-0.012464	1
H	-2.533153	0.591069	-0.810544	1
H	-2.536453	0.488349	0.963126	1
H	-0.267133	-2.230031	-0.075984	1
H	3.277946	-0.920351	-0.102174	1
H	2.201987	1.135599	-0.326004	1
H	-0.008443	1.791429	-0.799894	1
H	-0.086923	1.774969	0.994556	1
Es	-0.323515	0.457153	0.045490	99
Es	0.284089	-0.970545	-0.082481	99
Es	-0.090918	-0.708925	0.123708	99
Es	-0.025741	1.668375	0.192116	99
Es	1.261317	0.364610	0.096206	99
Es	-0.125483	-1.868050	-0.032982	99
Es	1.447234	0.398836	0.117635	99
Es	-0.898281	0.091945	0.083740	99
Es	0.086994	1.279323	-0.003021	99
Es	-2.494780	-0.647573	-0.001004	99
Es	-1.168583	-0.043652	0.070201	99
Es	2.820783	-1.122496	-0.197122	99
Es	-2.153756	0.055424	-0.029500	99
Es	2.392125	-1.566716	-0.172301	99
Es	-2.321620	0.241837	0.076092	99
Es	2.172403	-1.260487	-0.135348	99
Es	0.009879	1.215144	0.094999	99
Es	-2.466158	0.442619	0.128666	99
Es	2.513849	-1.674136	-0.072435	99
Es	1.509847	0.580221	0.120615	99
Es	-0.369922	-0.623174	-0.014168	99
Es	0.429804	-1.021432	-0.020137	99
Es	1.974170	-1.139236	-0.151603	99
Es	1.242011	-0.767748	-0.001972	99
Es	1.088098	0.810704	0.129412	99
Es	1.918852	0.883601	0.095737	99
