44
Properties=species:S:1:pos:R:3:Z:I:1 energy=-304.1133289332881 field_type=dipole dipole="0.000000 0.000000 0.000000" charge=0
C	-2.170252	0.088968	-0.675641	6
C	-0.661732	0.085978	-0.843241	6
C	0.133588	0.931708	0.157829	6
N	0.638988	-0.280012	0.738059	7
C	0.079648	-1.129022	-0.276571	6
C	1.983577	-0.368242	0.969169	6
N	2.744347	0.514568	1.519359	7
H	-2.628712	-0.667232	-1.320451	1
H	-2.585032	1.063348	-0.954841	1
H	-2.465242	-0.121742	0.357579	1
H	-0.388412	0.299068	-1.885391	1
H	-0.451473	1.513128	0.875169	1
H	0.898288	1.565778	-0.302411	1
H	0.816548	-1.562872	-0.961391	1
H	-0.540402	-1.920582	0.152419	1
H	2.424767	-1.333332	0.666259	1
H	2.171508	1.320498	1.784099	1
Es	2.669568	0.449822	1.534648	99
Es	-0.146172	-0.071181	-0.224833	99
Es	0.979684	-0.394413	0.571591	99
Es	2.395351	0.308284	1.101217	99
Es	-1.155537	0.060077	-0.690939	99
Es	0.820775	-0.470182	0.515592	99
Es	-0.344693	-1.524377	-0.084683	99
Es	0.754408	0.081495	0.515757	99
Es	-2.412896	0.678824	-0.850187	99
Es	2.419924	0.874595	1.641424	99
Es	-1.392705	0.103659	-0.716160	99
Es	2.264712	-1.009071	0.798288	99
Es	-2.421644	-0.429560	-1.067611	99
Es	1.951702	-0.279580	0.960758	99
Es	0.554478	-1.047948	-0.203063	99
Es	-1.846008	0.090779	-0.713843	99
Es	2.431395	0.181056	1.447804	99
Es	-0.879349	0.219349	-0.719545	99
Es	-0.307683	-0.234259	-0.518939	99
Es	0.673780	0.672277	0.272480	99
Es	0.112814	-0.242152	0.083805	99
Es	0.077600	-1.210782	-0.270719	99
Es	3.040662	0.449380	1.514490	99
Es	-1.651143	0.101605	-0.600364	99
Es	0.044118	0.825976	0.322345	99
Es	0.370010	0.460895	0.308024	99
Es	-0.098378	1.133711	0.419720	99
