41
Properties=species:S:1:pos:R:3:Z:I:1 energy=-302.9727002984491 field_type=dipole dipole="0.000000 0.000000 0.000000" charge=0
C	-2.188602	0.120767	0.361465	6
C	-0.851112	0.141737	0.256305	6
C	-0.011042	1.390777	0.154725	6
N	1.148138	0.894627	-0.539185	7
C	1.267828	-0.454863	-0.438405	6
N	2.349118	-1.099743	-0.708025	7
C	0.001248	-1.094183	0.081455	6
H	-2.737602	-0.816153	0.375065	1
H	-2.765692	1.037657	0.429215	1
H	0.265878	1.751697	1.150135	1
H	-0.501392	2.185147	-0.413875	1
H	2.007178	1.427997	-0.539395	1
H	2.210718	-2.103233	-0.550675	1
H	-0.400992	-1.794863	-0.654365	1
H	0.206328	-1.587373	1.035555	1
Es	-1.231845	0.142602	0.119616	99
Es	0.653117	1.228356	-0.151699	99
Es	0.012865	-0.318760	-0.036514	99
Es	2.260999	-0.919103	-0.496446	99
Es	1.613652	1.191123	-0.612069	99
Es	2.248535	-1.051909	-0.703847	99
Es	-2.514873	-0.497551	0.420632	99
Es	-1.253826	0.149264	0.248999	99
Es	0.013206	1.660694	0.228605	99
Es	-0.146798	1.698643	0.094892	99
Es	0.261318	-0.653260	-0.078990	99
Es	-0.030136	-1.355525	0.152458	99
Es	-0.068203	-1.312275	0.074451	99
Es	1.805010	-0.830347	-0.671376	99
Es	1.204782	-0.272024	-0.479510	99
Es	2.447089	-1.605410	-0.688385	99
Es	-0.482615	0.750382	0.227934	99
Es	1.241088	0.538615	-0.294224	99
Es	-0.040418	-1.388945	0.163318	99
Es	1.106478	0.911803	-0.505312	99
Es	-2.570964	0.745325	0.435757	99
Es	1.102574	0.187803	-0.542180	99
Es	-2.194518	0.111018	0.360948	99
Es	-1.435004	0.116513	0.468104	99
Es	-0.039124	1.375850	0.166607	99
Es	2.352400	-1.056381	-0.774132	99
