41
Properties=species:S:1:pos:R:3:Z:I:1 energy=-302.94407363180477 field_type=dipole dipole="0.000000 0.000000 0.000000" charge=0
C	-1.420784	0.660145	0.349327	6
C	0.089606	0.603365	0.420327	6
C	0.708706	1.690985	-0.390453	6
N	1.432576	1.258855	-1.368963	7
N	1.410486	-0.167985	-1.342593	7
C	0.671726	-0.541925	-0.343543	6
C	0.429836	-1.963655	0.025867	6
H	-1.795484	1.597425	0.774067	1
H	-1.868724	-0.170315	0.904507	1
H	-1.780264	0.598405	-0.684423	1
H	0.463916	0.630865	1.445947	1
H	0.553146	2.751995	-0.152063	1
H	0.996306	-2.628875	-0.631033	1
H	-0.634724	-2.191995	-0.066983	1
H	0.743676	-2.127295	1.060017	1
Es	-1.552012	1.224205	0.601265	99
Es	0.581205	2.325108	-0.317469	99
Es	0.885713	1.252956	-0.836087	99
Es	0.740146	1.652294	-0.502139	99
Es	0.542733	-0.472983	-0.545573	99
Es	0.398218	-2.069082	0.341889	99
Es	0.516844	-1.983178	0.312452	99
Es	-0.132654	-2.059671	-0.022367	99
Es	-0.915884	0.609854	0.406482	99
Es	-0.913196	0.657989	0.374272	99
Es	1.120134	-0.306991	-0.725289	99
Es	0.798836	-2.384501	-0.400034	99
Es	1.369823	1.025093	-1.176589	99
Es	1.631885	-0.384253	-1.474961	99
Es	-1.521608	0.308086	0.533603	99
Es	-0.694640	0.640292	0.357424	99
Es	1.581854	1.326179	-1.452493	99
Es	1.198523	-0.359598	-1.000328	99
Es	0.419338	0.842518	-0.096061	99
Es	0.047657	0.529721	0.374146	99
Es	1.314036	1.272361	-1.110871	99
Es	0.616635	0.114771	-0.331111	99
Es	1.546700	1.051510	-1.395185	99
Es	0.785891	-0.406119	-0.458266	99
Es	0.700508	-0.430313	-0.358472	99
Es	-1.003575	0.465521	0.495432	99
