38
Properties=species:S:1:pos:R:3:Z:I:1 energy=-301.7959745529229 field_type=dipole dipole="0.000000 0.000000 0.000000" charge=0
C	-2.054594	-0.014898	0.002544	6
C	-0.562414	-0.018018	0.000174	6
N	0.162746	-1.093768	-0.000376	7
C	1.446796	-0.645258	-0.001916	6
N	2.426436	-1.461528	-0.003386	7
C	1.471437	0.816092	-0.001606	6
C	0.203076	1.226662	-0.000316	6
H	-2.434694	-1.039618	-0.010846	1
H	-2.421744	0.513622	-0.881166	1
H	-2.418303	0.489172	0.901834	1
H	1.997696	-2.394999	-0.003116	1
H	2.374936	1.397251	-0.002236	1
H	-0.191374	2.225291	0.000414	1
Es	-2.124279	0.060853	-0.001780	99
Es	0.431796	-1.323484	-0.012524	99
Es	0.157844	-1.071625	0.022539	99
Es	2.061874	1.198030	-0.001125	99
Es	-2.144772	0.117880	0.003542	99
Es	1.960369	-1.075592	-0.000295	99
Es	2.475255	-1.456133	-0.005470	99
Es	2.694513	-1.379602	-0.010753	99
Es	-0.171186	-0.605719	-0.115837	99
Es	-0.562171	-0.017748	0.000198	99
Es	1.145269	0.889140	0.000372	99
Es	0.115029	1.104005	0.001765	99
Es	-1.305462	-0.036753	-0.000229	99
Es	2.235136	-2.024747	-0.012794	99
Es	-0.087385	1.891672	0.003274	99
Es	1.975541	-1.086852	0.008652	99
Es	-0.120441	0.768986	0.005021	99
Es	0.247858	-0.856855	0.031118	99
Es	1.081883	0.904146	-0.020634	99
Es	0.857102	1.074563	0.010958	99
Es	1.515221	0.094778	-0.000810	99
Es	0.103632	-0.886382	0.068595	99
Es	1.446754	-0.644868	-0.002028	99
Es	-2.225958	-0.367459	0.005458	99
Es	-2.438760	0.176407	0.008135	99
