46
Properties=species:S:1:pos:R:3:Z:I:1 energy=-272.1038919581078 field_type=dipole dipole="0.000000 0.000000 0.000000" charge=0
C	-2.430393	-1.052102	0.874857	6
C	-0.939994	-1.025952	0.853227	6
C	-0.184184	-1.658892	-0.286503	6
C	-0.216734	-0.155552	-0.146453	6
C	1.007426	0.604738	0.275107	6
C	1.791496	1.160538	-0.880143	6
C	2.010487	2.465638	-1.083063	6
H	-2.811224	-0.234682	1.495157	1
H	-2.784994	-1.996562	1.298867	1
H	-2.858963	-0.946202	-0.127313	1
H	-0.523574	-1.124162	1.849727	1
H	-0.746264	-2.102872	-1.100573	1
H	0.734296	-2.185192	-0.051213	1
H	-0.822284	0.409108	-0.848203	1
H	1.674747	-0.039332	0.861287	1
H	0.693387	1.414668	0.944987	1
H	2.199226	0.438498	-1.584633	1
H	1.622726	3.221338	-0.406303	1
H	2.584816	2.806978	-1.938813	1
Es	0.393082	0.214058	0.023653	99
Es	2.067997	1.836959	-1.017423	99
Es	0.075220	-1.423704	-0.370889	99
Es	-0.313040	-1.158088	-0.008079	99
Es	-0.750848	-1.548078	0.352207	99
Es	0.518957	0.217791	0.075425	99
Es	1.376700	0.965913	-0.258912	99
Es	1.044993	0.698544	0.235758	99
Es	-2.643474	-1.630014	1.141390	99
Es	-0.150791	-0.248679	-0.154711	99
Es	-1.632891	-1.003857	0.822343	99
Es	1.978138	1.228814	-1.048009	99
Es	1.815139	1.488032	-0.893899	99
Es	1.976855	1.680151	-1.118450	99
Es	-2.061957	-0.864931	0.728982	99
Es	-1.251352	-1.054914	0.781667	99
Es	1.729520	1.663764	-0.840341	99
Es	-0.509775	-1.358222	0.085548	99
Es	-2.586462	-0.630527	1.190437	99
Es	-0.270727	-1.219291	-0.007812	99
Es	1.093365	1.247345	0.166714	99
Es	-2.430035	-1.101495	0.824467	99
Es	-0.834823	-1.407027	0.393889	99
Es	-0.198813	-1.167238	-0.132187	99
Es	0.259796	0.131410	-0.010469	99
Es	1.727675	2.853560	-0.606676	99
Es	2.198410	2.468527	-1.365889	99
