42
Properties=species:S:1:pos:R:3:Z:I:1 energy=-286.96296779328367 field_type=dipole dipole="0.000000 0.000000 0.000000" charge=0
C	-0.026581	-2.211849	-0.387975	6
C	-0.655931	-0.991449	0.264115	6
C	0.285959	0.174561	0.268455	6
C	0.384769	1.080840	-0.929305	6
C	-0.260621	1.584261	0.340885	6
C	0.428239	2.560561	1.138115	6
N	0.984359	3.349041	1.781935	7
H	-0.723301	-3.055540	-0.371095	1
H	0.886459	-2.510809	0.137425	1
H	0.238929	-2.006719	-1.430255	1
H	-0.926551	-1.232479	1.298345	1
H	-1.585351	-0.741769	-0.261275	1
H	1.200079	-0.045629	0.812125	1
H	-0.258751	0.891421	-1.781415	1
H	1.367579	1.452991	-1.200495	1
H	-1.339291	1.702571	0.320415	1
Es	-0.106858	1.610499	0.458780	99
Es	-0.163961	-0.413459	0.237829	99
Es	0.352873	1.616540	-0.412516	99
Es	-0.034851	-2.065557	-0.398077	99
Es	0.069620	0.179586	0.185129	99
Es	-0.492728	-2.705908	-0.381821	99
Es	1.028211	3.363316	1.850269	99
Es	0.707944	3.348179	1.416575	99
Es	-0.304849	1.956280	0.611511	99
Es	0.169485	0.821533	0.028078	99
Es	0.360705	0.889355	-0.801169	99
Es	0.732953	2.833869	1.365286	99
Es	0.124949	1.587505	0.088811	99
Es	0.310662	0.111684	0.206503	99
Es	1.052617	3.365789	1.697951	99
Es	-0.330206	-1.654606	-0.056402	99
Es	0.316812	0.853149	-0.713206	99
Es	-0.628050	-0.947214	0.498813	99
Es	-0.459343	-1.265444	0.164997	99
Es	0.523698	2.842285	1.629424	99
Es	0.097907	-2.066222	-0.894859	99
Es	0.380179	2.514461	1.232604	99
Es	0.181117	0.561356	-0.661302	99
Es	-0.073066	-1.993309	-0.141068	99
Es	-0.438680	-0.631632	0.321260	99
Es	0.154142	1.213961	-0.178603	99
