41
Properties=species:S:1:pos:R:3:Z:I:1 energy=-302.99633313338745 field_type=dipole dipole="0.000000 0.000000 0.000000" charge=0
C	-0.641631	-1.673943	-1.034476	6
C	-0.520321	-1.121303	0.376734	6
C	-0.051631	0.288227	0.374974	6
C	-0.731401	1.487377	0.365754	6
N	0.140179	2.545197	0.369214	7
C	1.337479	2.007807	0.381434	6
N	1.274599	0.643747	0.386464	7
H	-0.993001	-2.710303	-1.007046	1
H	0.323669	-1.656213	-1.552256	1
H	-1.352251	-1.089923	-1.629616	1
H	0.170739	-1.745333	0.955374	1
H	-1.494831	-1.182973	0.875034	1
H	-1.802551	1.644537	0.355994	1
H	2.274838	2.547467	0.387284	1
H	2.066119	0.015637	0.395134	1
Es	-0.413698	-0.756959	0.280793	99
Es	1.361276	0.610453	0.355701	99
Es	0.263019	2.300637	0.498013	99
Es	1.055370	0.589559	0.382472	99
Es	-0.939445	-1.274749	-0.410645	99
Es	1.137580	1.094984	0.601279	99
Es	0.512847	1.624038	0.338161	99
Es	1.932935	2.312026	0.393746	99
Es	-0.013480	2.204594	0.382166	99
Es	0.095692	1.695680	0.447040	99
Es	0.635360	2.142417	0.363514	99
Es	-0.847188	-2.330259	-0.983548	99
Es	-0.397149	-1.524381	-0.471280	99
Es	0.045258	2.739695	0.355353	99
Es	-1.073652	-1.285344	-0.449328	99
Es	-0.478995	-1.526695	-0.545586	99
Es	-0.276633	-0.562683	0.271531	99
Es	-0.527949	1.179653	0.463681	99
Es	-0.042799	-1.563503	-0.359849	99
Es	-0.594949	1.306233	0.329189	99
Es	-0.179477	0.473639	0.271161	99
Es	-1.076964	1.513022	0.384838	99
Es	1.259226	1.878507	0.399756	99
Es	0.887559	0.324873	0.189094	99
Es	-0.630563	-1.407252	-0.394445	99
Es	0.835817	0.658443	0.338497	99
