47
Properties=species:S:1:pos:R:3:Z:I:1 energy=-305.27077506592724 field_type=dipole dipole="0.000000 0.000000 0.000000" charge=0
C	-0.664197	-1.744744	-1.724303	6
C	-0.672357	-1.228744	-0.293133	6
C	0.228364	-0.006874	-0.144793	6
N	-0.352947	1.229566	-0.744263	7
C	0.168983	2.003386	0.412237	6
C	0.177253	0.700176	1.236277	6
N	1.452034	0.548656	1.944757	7
H	-1.285067	-2.641924	-1.807533	1
H	0.351293	-2.000654	-2.042743	1
H	-1.055207	-0.995074	-2.419003	1
H	-0.312997	-2.025064	0.369747	1
H	-1.702327	-1.003794	0.010317	1
H	1.244443	-0.204594	-0.516123	1
H	-1.372807	1.225086	-0.786043	1
H	1.145043	2.460866	0.207767	1
H	-0.507117	2.783505	0.775557	1
H	-0.721137	0.526946	1.837047	1
H	2.272893	0.764906	1.377507	1
H	1.605853	-0.391624	2.306717	1
Es	-0.605740	-1.644222	-1.320209	99
Es	0.465594	0.908921	1.273034	99
Es	-0.516058	1.286940	-0.655369	99
Es	0.469285	1.164138	1.084541	99
Es	0.431726	1.096864	1.126099	99
Es	1.343916	0.603659	1.927410	99
Es	0.963268	0.651420	1.645695	99
Es	-0.501050	-1.325417	-0.869244	99
Es	-0.513054	-0.856335	-0.620336	99
Es	0.213371	2.454399	0.497751	99
Es	-0.425280	-1.431138	-0.502100	99
Es	0.235892	0.341828	0.168002	99
Es	1.346145	0.616556	1.911710	99
Es	-0.991321	-2.349520	-1.773327	99
Es	1.132057	0.671923	1.646098	99
Es	-0.210239	1.344426	-0.514448	99
Es	-0.289302	1.524255	-0.312623	99
Es	0.239008	1.286708	0.669469	99
Es	0.236774	0.343979	-0.062231	99
Es	-0.032565	-0.388813	-0.329490	99
Es	0.068983	1.601464	0.460270	99
Es	1.293829	0.234427	1.926710	99
Es	-0.568231	1.338290	-0.938357	99
Es	-0.355531	-1.035358	-0.381724	99
Es	0.071253	0.468672	-0.061444	99
Es	-0.571525	-1.677150	-1.081514	99
Es	-0.516801	-1.189770	-0.441945	99
Es	-0.968023	-1.258613	-2.194960	99
