45
Properties=species:S:1:pos:R:3:Z:I:1 energy=-288.0859429563069 field_type=dipole dipole="0.000000 0.000000 0.000000" charge=0
C	-2.872622	0.370581	0.455684	6
C	-1.387311	0.209301	0.407464	6
C	-0.702372	-0.038809	-0.718896	6
C	0.776398	-0.197639	-0.754276	6
C	1.655518	0.871971	-0.072406	6
N	2.573488	-0.212839	0.362104	7
C	1.442798	-1.169659	0.242164	6
H	-3.126902	1.361791	0.843164	1
H	-3.307082	-0.381369	1.121374	1
H	-3.333852	0.260741	-0.530746	1
H	-0.872632	0.305931	1.361224	1
H	-1.224762	-0.133979	-1.667706	1
H	1.104889	-0.390899	-1.786806	1
H	1.206198	1.411560	0.769194	1
H	2.109358	1.605491	-0.746066	1
H	3.320308	-0.394109	-0.309376	1
H	1.718478	-2.146209	-0.167946	1
H	0.920098	-1.331849	1.191844	1
Es	-1.037955	0.099239	-0.148468	99
Es	0.362925	-0.076017	-0.402028	99
Es	0.647163	-0.086919	-0.524356	99
Es	-2.803794	0.245286	0.122755	99
Es	-0.119037	-0.031709	-0.314583	99
Es	1.881096	-0.363943	0.174752	99
Es	-1.179451	0.174009	0.169730	99
Es	1.850585	-0.333288	-0.008904	99
Es	1.513468	-0.502620	0.043813	99
Es	-2.857678	0.359878	0.450605	99
Es	-1.193297	-0.074917	-0.480703	99
Es	0.153326	-0.063113	-0.161332	99
Es	1.812888	-0.844259	0.009754	99
Es	1.727889	-0.435559	-0.090072	99
Es	1.358127	0.211474	-0.157705	99
Es	-1.953589	0.133739	0.070632	99
Es	-1.898104	0.138332	0.307920	99
Es	2.894693	-0.297034	0.078976	99
Es	1.870266	1.077812	-0.342882	99
Es	2.379464	0.127872	0.037435	99
Es	2.296419	-0.259375	0.376933	99
Es	-2.712634	0.173076	0.502351	99
Es	1.531907	0.296251	-0.092917	99
Es	1.200777	-0.681206	0.084226	99
Es	-3.014863	0.874563	0.472650	99
Es	1.178084	-0.440856	-0.037974	99
Es	-0.802424	0.067400	-0.018131	99
