43
Properties=species:S:1:pos:R:3:Z:I:1 energy=-270.935757702631 field_type=dipole dipole="0.000000 0.000000 0.000000" charge=0
C	-2.287783	-0.123859	-0.045241	6
C	-0.833293	0.174581	0.062369	6
C	-0.243503	1.351241	-0.223091	6
C	1.246737	1.241861	-0.023401	6
C	1.478387	-0.190009	0.415519	6
C	1.169557	-1.361109	-0.482551	6
C	0.123157	-0.869279	0.479209	6
H	-2.446523	-1.129199	-0.452831	1
H	-2.793843	0.585011	-0.705261	1
H	-2.758753	-0.074909	0.942759	1
H	-0.746453	2.246941	-0.555501	1
H	1.783907	1.457241	-0.951331	1
H	1.574757	1.939401	0.753159	1
H	2.172267	-0.308719	1.234039	1
H	1.649897	-2.307319	-0.263411	1
H	1.028637	-1.179569	-1.542801	1
H	-0.117153	-1.452309	1.358369	1
Es	-0.740027	0.109966	0.045332	99
Es	-0.096791	1.294210	0.030435	99
Es	-2.350433	0.010380	-0.168768	99
Es	-1.537726	-0.037949	0.000519	99
Es	-2.587681	-0.434082	-0.021369	99
Es	0.477474	-1.194586	0.100877	99
Es	1.293349	1.351695	-0.006058	99
Es	1.149999	-1.646252	-0.290526	99
Es	0.162656	1.045647	-0.081226	99
Es	1.423414	1.516381	0.316876	99
Es	0.307989	-1.285054	0.268067	99
Es	1.526663	-0.128790	0.228171	99
Es	-0.448038	-0.275241	0.206077	99
Es	1.525670	-0.045190	0.243781	99
Es	-0.547250	0.963615	-0.068795	99
Es	-2.258059	-0.022986	0.109961	99
Es	0.511590	-0.882398	0.270018	99
Es	1.464560	1.314431	-0.337140	99
Es	1.435924	-0.456815	0.185412	99
Es	0.993523	-0.805472	0.116360	99
Es	1.279991	-0.841936	-0.274675	99
Es	-2.387922	-0.108367	-0.061524	99
Es	-0.039974	0.567526	-0.011305	99
Es	-0.524906	1.806367	-0.418692	99
Es	1.358774	-1.259083	-0.158695	99
Es	0.244198	0.021801	0.214617	99
