39
Properties=species:S:1:pos:R:3:Z:I:1 energy=-285.7853144220794 field_type=dipole dipole="0.000000 0.000000 0.000000" charge=0
C	-1.544652	-0.600120	0.293119	6
C	-0.093882	-0.545270	-0.122621	6
C	0.483758	-1.659350	-0.610921	6
C	0.625728	0.734690	0.004179	6
C	0.155278	1.775390	0.717399	6
C	1.878819	0.914700	-0.676151	6
N	2.892138	1.072050	-1.221901	7
H	-2.127412	0.168150	-0.227271	1
H	-1.646342	-0.454500	1.373829	1
H	-2.005261	-1.565390	0.053449	1
H	-0.070312	-2.590070	-0.700991	1
H	1.521139	-1.702830	-0.931091	1
H	-0.778412	1.743140	1.266959	1
H	0.709409	2.709410	0.782009	1
Es	0.296838	1.322021	0.332489	99
Es	0.462314	2.184021	0.675706	99
Es	2.407775	0.743134	-1.062289	99
Es	-0.442824	1.802189	1.096961	99
Es	0.474070	-1.630729	-0.609681	99
Es	1.313005	0.869207	-0.328219	99
Es	0.292285	0.082316	-0.068665	99
Es	1.158682	-1.660535	-0.851613	99
Es	-1.704332	-0.365630	0.384452	99
Es	-1.801290	-0.200643	0.568358	99
Es	2.589589	1.091289	-0.959170	99
Es	0.230473	-1.126853	-0.248071	99
Es	-0.933193	-0.584794	0.140396	99
Es	3.147121	1.086050	-1.395671	99
Es	-0.086933	-0.524407	-0.116566	99
Es	0.570892	0.885126	0.132987	99
Es	0.533620	1.004341	0.255074	99
Es	2.393244	1.061539	-1.035500	99
Es	0.191340	-1.069955	-0.463618	99
Es	1.877482	0.914337	-0.674359	99
Es	0.222119	1.886520	0.724779	99
Es	2.803741	1.170443	-1.094744	99
Es	0.109827	-2.283536	-0.679999	99
Es	-1.516243	-0.721460	0.254337	99
Es	-1.732792	-1.112998	0.147343	99
