22
Properties=species:S:1:pos:R:3:Z:I:1 energy=-154.12775982568522 field_type=dipole dipole="0.000000 0.000000 0.000000" charge=0
C	0.982700	-0.001790	0.004550	6
O	2.403300	0.023630	0.000000	8
C	2.901470	1.354260	-0.004550	6
H	0.656500	-1.045550	0.003120	1
H	0.587590	0.488860	-0.890200	1
H	0.593620	0.484720	0.904440	1
H	3.994240	1.313340	-0.003120	1
H	2.570850	1.890490	0.890200	1
H	2.572750	1.883420	-0.904440	1
Es	2.403125	0.023878	-0.000000	99
Es	0.983081	-0.001799	0.004550	99
Es	2.901351	1.353898	-0.004550	99
Es	2.590592	-0.241382	-0.000000	99
Es	0.712933	0.344974	-0.605303	99
Es	2.664644	1.724307	0.605302	99
Es	2.665907	1.719610	-0.617876	99
Es	3.648595	1.330068	-0.003630	99
Es	1.872265	0.060797	0.001439	99
Es	0.716938	0.342222	0.617877	99
Es	0.756110	-0.714142	0.003630	99
Es	2.545528	0.536612	-0.001439	99
Es	2.382774	0.052673	0.000000	99
