23
Properties=species:S:1:pos:R:3:Z:I:1 energy=-134.29323532740537 field_type=dipole dipole="0.000000 0.000000 0.000000" charge=0
C	1.004600	-0.001030	-0.001030	6
N	2.460720	0.013160	0.009890	7
C	2.968220	1.378100	0.002970	6
H	0.649640	-1.036480	0.006750	1
H	0.604390	0.485290	-0.896940	1
H	0.596890	0.493070	0.887160	1
H	2.807320	-0.477770	-0.813520	1
H	2.634660	1.929690	0.888270	1
H	2.653710	1.919200	-0.895700	1
H	4.062580	1.360640	0.019490	1
Es	2.461469	0.012087	0.011095	99
Es	2.968071	1.377662	0.002990	99
Es	1.005062	-0.001039	-0.001008	99
Es	1.842213	0.037677	-0.039421	99
Es	3.718399	1.369638	0.011675	99
Es	0.733817	0.348328	0.598828	99
Es	2.636361	-0.235304	-0.502351	99
Es	2.747689	1.750386	-0.615476	99
Es	0.757971	-0.709664	0.001770	99
Es	0.730718	0.337410	-0.617569	99
Es	2.726733	1.751524	0.600872	99
Es	2.647669	0.603548	-0.037706	99
Es	2.590858	-0.173264	0.330091	99
