25
Properties=species:S:1:pos:R:3:Z:I:1 energy=-154.96643415332287 field_type=dipole dipole="0.000000 0.000000 0.000000" charge=0
C	1.000000	0.000000	0.000000	6
C	2.444000	0.000000	0.000000	6
C	3.634160	0.000000	0.000000	6
C	5.078160	0.000000	0.000000	6
H	0.606090	1.020330	0.011670	1
H	0.606090	-0.520270	0.877790	1
H	0.606090	-0.500060	-0.889470	1
H	5.472070	1.020330	-0.011670	1
H	5.472070	-0.520270	-0.877790	1
H	5.472070	-0.500060	0.889470	1
Es	5.076661	-0.000000	-0.000000	99
Es	1.001499	-0.000000	0.000000	99
Es	2.443586	-0.000000	-0.000000	99
Es	3.634574	-0.000000	-0.000000	99
Es	4.298293	-0.000000	-0.000000	99
Es	3.039080	0.000002	0.000012	99
Es	1.779867	-0.000001	-0.000002	99
Es	0.757867	-0.342809	0.578331	99
Es	5.320293	-0.342808	-0.578331	99
Es	0.757867	0.672257	0.007713	99
Es	5.320292	-0.329448	0.586050	99
Es	5.320293	0.672257	-0.007714	99
Es	0.757868	-0.329448	-0.586050	99
Es	3.039080	-0.003266	0.002686	99
Es	3.039080	0.003265	-0.002696	99
