27
Properties=species:S:1:pos:R:3:Z:I:1 energy=-172.14322175492438 field_type=dipole dipole="0.000000 0.000000 0.000000" charge=0
C	1.001560	-0.013550	-0.055950	6
C	2.490050	-0.048360	0.000630	6
C	3.274650	-0.746820	-1.078600	6
N	3.258260	0.711130	-0.978910	7
H	0.616770	0.747630	0.628510	1
H	0.592830	-0.981450	0.247970	1
H	0.629560	0.213460	-1.059940	1
H	2.870660	-0.076890	1.014790	1
H	2.741580	-1.169430	-1.921210	1
H	4.199070	-1.242200	-0.811060	1
H	4.127990	1.059300	-0.571340	1
Es	3.258600	0.710912	-0.978615	99
Es	2.490266	-0.048249	0.000151	99
Es	3.274466	-0.746206	-1.078305	99
Es	1.002138	-0.013538	-0.055980	99
Es	3.345773	0.066779	-1.062070	99
Es	1.764337	-0.020836	-0.048904	99
Es	3.908132	-1.081899	-0.893073	99
Es	2.759093	-0.057795	0.688040	99
Es	2.813578	-0.606530	-0.487648	99
Es	2.920742	-1.019501	-1.649105	99
Es	0.736193	-0.666143	0.152395	99
Es	0.742334	0.501710	0.411681	99
Es	0.751327	0.131262	-0.726684	99
Es	3.061243	0.924072	-1.237197	99
Es	3.760319	0.866492	-0.706880	99
Es	2.941247	0.501927	-0.522380	99
