30
Properties=species:S:1:pos:R:3:Z:I:1 energy=-173.35519354350586 field_type=dipole dipole="0.000000 0.000000 0.000000" charge=0
C	0.995150	0.008560	0.004170	6
C	2.519840	0.006210	0.002970	6
C	3.066090	-0.733630	-1.214010	6
N	3.008080	1.385270	0.019190	7
H	0.603520	0.528440	0.886150	1
H	0.607740	-1.015900	0.024190	1
H	0.590140	0.502890	-0.886750	1
H	2.871910	-0.494290	0.911140	1
H	2.741040	-0.265900	-2.150770	1
H	2.720490	-1.773120	-1.220610	1
H	4.161930	-0.748460	-1.206440	1
H	2.700350	1.871020	-0.823500	1
H	4.027570	1.387710	-0.012270	1
Es	3.008072	1.385169	0.019138	99
Es	2.519850	0.006528	0.002901	99
Es	3.065855	-0.733325	-1.213505	99
Es	0.995885	0.008560	0.004157	99
Es	2.854711	1.617973	-0.489721	99
Es	2.787338	-0.377060	-0.619612	99
Es	2.837637	-0.408621	-1.846074	99
Es	0.727399	0.358017	0.603707	99
Es	3.592719	1.355229	-0.045972	99
Es	2.832885	0.820805	-0.042643	99
Es	3.820681	-0.739084	-1.205990	99
Es	2.829377	-1.437141	-1.218956	99
Es	0.729614	0.345240	-0.605021	99
Es	0.740646	-0.690088	0.010658	99
Es	2.768935	-0.330274	0.618456	99
Es	1.754796	0.009025	0.000832	99
Es	2.870869	1.573388	0.342684	99
