24
Properties=species:S:1:pos:R:3:Z:I:1 energy=-171.02234122275982 field_type=dipole dipole="0.000000 0.000000 0.000000" charge=0
C	1.001190	-0.052580	0.003430	6
C	2.520000	0.000000	0.000000	6
C	3.002020	1.361170	0.000000	6
N	3.386230	2.446160	0.000000	7
H	0.656460	-1.091500	0.001100	1
H	0.585380	0.445660	-0.879370	1
H	0.589740	0.440210	0.891320	1
H	2.895390	-0.532020	-0.881180	1
H	2.899540	-0.533780	0.878310	1
Es	3.387275	2.449262	0.000000	99
Es	2.520210	0.000404	-0.000001	99
Es	3.001930	1.360880	-0.000000	99
Es	1.001873	-0.052503	0.003429	99
Es	3.243556	1.911800	-0.000119	99
Es	2.795398	0.744590	0.000020	99
Es	0.728552	0.281269	-0.586559	99
Es	2.767458	-0.332854	-0.574933	99
Es	2.770144	-0.334010	0.573081	99
Es	1.805572	-0.001123	0.001619	99
Es	3.493866	2.777251	0.000016	99
Es	0.774613	-0.759859	0.001852	99
Es	0.731426	0.277711	0.596801	99
Es	3.172603	1.980093	0.000216	99
Es	3.213564	1.965384	-0.000093	99
