27
Properties=species:S:1:pos:R:3:Z:I:1 energy=-172.13138258260776 field_type=dipole dipole="0.000000 0.000000 0.000000" charge=0
C	1.144150	-0.006700	-0.093280	6
N	2.597610	-0.077770	0.025860	7
C	3.234640	-0.746550	-1.103120	6
C	3.304110	0.751490	-0.943660	6
H	0.759420	0.751060	0.597290	1
H	0.702540	-0.967700	0.190160	1
H	0.784580	0.244310	-1.098750	1
H	2.607180	-1.159060	-1.883130	1
H	4.119730	-1.324600	-0.867460	1
H	4.237510	1.183300	-0.602660	1
H	2.729900	1.373180	-1.619590	1
Es	2.597443	-0.077710	0.025344	99
Es	3.303876	0.750928	-0.943370	99
Es	3.234436	-0.746075	-1.102717	99
Es	1.144579	-0.006692	-0.093273	99
Es	2.848212	0.385578	-0.363594	99
Es	0.884761	0.514143	0.373104	99
Es	2.794048	-1.026388	-1.621031	99
Es	3.373600	0.012085	-1.189084	99
Es	3.831331	-1.141479	-0.936849	99
Es	1.988798	-0.040283	-0.091150	99
Es	0.848369	-0.665365	0.093969	99
Es	0.912822	0.165922	-0.793147	99
Es	3.931715	1.047518	-0.706615	99
Es	2.900327	1.174155	-1.391335	99
Es	2.816314	-0.465130	-0.467620	99
Es	2.747802	-0.125042	0.376102	99
