27
Properties=species:S:1:pos:R:3:Z:I:1 energy=-172.15026399024066 field_type=dipole dipole="0.000000 0.000000 0.000000" charge=0
N	1.016600	-0.033000	-0.124420	7
C	2.468390	-0.066990	-0.000520	6
C	3.269190	-0.749830	-1.069770	6
C	3.294510	0.747230	-0.951880	6
H	0.623830	0.727060	0.429990	1
H	0.602520	-0.891380	0.237350	1
H	2.841970	-0.154930	1.017580	1
H	2.743600	-1.180340	-1.914310	1
H	4.153550	-1.298630	-0.769100	1
H	4.196260	1.212210	-0.572040	1
H	2.785770	1.321920	-1.717330	1
Es	1.016686	-0.033018	-0.124258	99
Es	2.468420	-0.066936	-0.001182	99
Es	3.269071	-0.749244	-1.069370	99
Es	3.294382	0.746601	-0.951578	99
Es	1.610090	-0.053238	-0.022362	99
Es	2.826471	0.526741	-0.395709	99
Es	3.864552	-1.120957	-0.862064	99
Es	2.722389	-0.126918	0.694600	99
Es	0.824426	0.379652	0.238101	99
Es	0.812574	-0.513778	0.132077	99
Es	2.952025	1.129567	-1.453134	99
Es	2.914927	-1.037864	-1.623879	99
Es	3.901786	1.060969	-0.690872	99
Es	3.396887	0.008136	-1.157099	99
Es	2.806467	-0.602858	-0.484652	99
Es	0.926532	0.013187	-0.509556	99
