27
Properties=species:S:1:pos:R:3:Z:I:1 energy=-172.1586920022888 field_type=dipole dipole="0.000000 0.000000 0.000000" charge=0
N	0.924800	-0.080640	-0.199650	7
C	2.338340	0.030970	0.120960	6
C	2.760980	1.462570	0.067770	6
C	3.300380	2.132360	1.096710	6
H	0.645800	-1.057180	-0.130940	1
H	0.777690	0.186500	-1.170610	1
H	2.926970	-0.549940	-0.598000	1
H	2.516570	-0.397240	1.113380	1
H	2.624210	1.983040	-0.876450	1
H	3.454760	1.663250	2.062910	1
H	3.585060	3.174310	0.991710	1
Es	0.924315	-0.080238	-0.199235	99
Es	2.338172	0.031655	0.120825	99
Es	2.760968	1.462602	0.067666	99
Es	3.300342	2.132408	1.096382	99
Es	1.519315	-0.059238	-0.103737	99
Es	3.053111	1.806211	0.617427	99
Es	2.564448	0.763237	0.117137	99
Es	2.659236	1.800336	-0.588336	99
Es	0.807460	-0.661501	-0.195198	99
Es	2.743535	-0.360473	-0.367555	99
Es	0.877961	0.042593	-0.775843	99
Es	3.406529	1.803461	1.748744	99
Es	3.480502	2.828333	1.001898	99
Es	2.454173	-0.257150	0.774645	99
Es	0.711695	0.145807	0.046452	99
Es	3.041471	1.807973	0.595040	99
