23
Properties=species:S:1:pos:R:3:Z:I:1 energy=-190.78526502514782 field_type=dipole dipole="0.000000 0.000000 0.000000" charge=0
O	1.000300	-0.002170	-0.011500	8
C	2.420000	0.000000	0.000000	6
C	2.902020	1.361170	0.000000	6
C	3.299300	2.483070	0.000000	6
H	0.723060	-0.931690	-0.010600	1
H	2.772420	-0.541450	-0.883270	1
H	2.758030	-0.536310	0.891980	1
H	3.643820	3.491510	-0.000110	1
Es	1.000171	-0.002502	-0.011500	99
Es	2.419804	0.000421	-0.000003	99
Es	2.901898	1.360595	0.000001	99
Es	3.299546	2.484200	-0.000001	99
Es	0.819221	0.254486	-0.013868	99
Es	3.433681	2.807417	0.000158	99
Es	2.662142	-0.342944	0.601374	99
Es	3.199392	2.195199	0.000022	99
Es	0.901416	-0.497640	-0.010623	99
Es	2.671850	-0.346407	-0.595375	99
Es	2.674759	0.731293	-0.000039	99
Es	1.518671	-0.017106	-0.007229	99
Es	1.021423	-0.030048	-0.011214	99
Es	3.089022	1.905403	-0.000044	99
Es	3.108974	1.944411	-0.000006	99
