31
Properties=species:S:1:pos:R:3:Z:I:1 energy=-157.35548523667828 field_type=dipole dipole="0.000000 0.000000 0.000000" charge=0
C	0.979850	-0.057530	0.000960	6
C	2.498770	0.004820	-0.003850	6
C	2.999020	1.447630	0.015250	6
C	4.517980	1.509970	0.009910	6
H	0.642940	-1.098970	-0.012510	1
H	0.562380	0.445770	-0.877290	1
H	0.570310	0.419160	0.897500	1
H	2.876250	-0.508780	-0.895370	1
H	2.883720	-0.535030	0.869250	1
H	2.620900	1.961310	0.906850	1
H	2.613570	1.987180	-0.857670	1
H	4.934390	1.006650	0.888360	1
H	4.854570	2.551320	0.023810	1
H	4.927150	1.032560	-0.886180	1
Es	2.999095	1.447371	0.015246	99
Es	2.498694	0.005078	-0.003847	99
Es	0.980403	-0.057493	0.000959	99
Es	4.517424	1.509933	0.009912	99
Es	3.766108	1.476738	0.012505	99
Es	1.731565	-0.024198	-0.001435	99
Es	4.797724	1.165117	0.601513	99
Es	2.758616	-0.342301	-0.608188	99
Es	2.733958	1.812334	-0.576530	99
Es	4.753886	2.225608	0.019435	99
Es	0.743901	-0.773286	-0.008374	99
Es	4.792849	1.182581	-0.593748	99
Es	0.704775	0.269518	0.604933	99
Es	0.699544	0.287353	-0.590603	99
Es	2.738924	1.794816	0.619671	99
Es	2.763519	-0.360055	0.587987	99
Es	2.748937	0.726156	0.005765	99
