25
Properties=species:S:1:pos:R:3:Z:I:1 energy=-208.04108420972855 field_type=dipole dipole="0.000000 0.000000 0.000000" charge=0
C	0.989840	-0.002050	0.001680	6
N	2.427020	0.040740	0.003810	7
C	3.145060	1.197300	-0.070310	6
O	4.357260	1.238820	0.084400	8
H	0.670160	-0.955810	-0.424090	1
H	0.583330	0.827490	-0.582820	1
H	0.640090	0.075680	1.034330	1
H	2.959790	-0.778240	0.273060	1
H	2.537960	2.089460	-0.294760	1
Es	4.357119	1.238669	0.084400	99
Es	2.427062	0.040773	0.003778	99
Es	3.144391	1.197803	-0.070473	99
Es	0.990421	-0.001961	0.001688	99
Es	3.839666	1.204406	0.021578	99
Es	2.724942	-0.423244	0.184343	99
Es	0.771895	-0.650308	-0.283838	99
Es	2.716192	1.782627	-0.218278	99
Es	2.732918	0.574665	0.006735	99
Es	1.806975	0.015284	0.018186	99
Es	0.748434	0.054071	0.701340	99
Es	4.634618	1.292023	0.105328	99
Es	0.723888	0.566218	-0.393541	99
Es	4.062887	1.236507	0.052492	99
Es	4.280001	1.194923	0.081634	99
Es	2.510843	0.127431	-0.140204	99
