28
Properties=species:S:1:pos:R:3:Z:I:1 energy=-209.18764152476925 field_type=dipole dipole="0.000000 0.000000 0.000000" charge=0
N	0.973070	0.001140	0.037600	7
C	2.431640	0.013190	-0.007700	6
C	3.001140	1.434690	-0.007900	6
O	4.424650	1.396430	-0.028020	8
H	0.644060	-0.963060	-0.004230	1
H	0.603360	0.458280	-0.796280	1
H	2.780900	-0.522240	-0.898070	1
H	2.825560	-0.536810	0.854510	1
H	2.682080	1.993020	0.878690	1
H	2.668170	1.983520	-0.894780	1
H	4.711920	1.029010	0.825810	1
Es	4.424686	1.396348	-0.027620	99
Es	0.972792	0.001478	0.038112	99
Es	3.001491	1.434456	-0.007904	99
Es	2.431119	0.013478	-0.007660	99
Es	4.404445	1.362524	-0.012681	99
Es	0.791885	0.234411	-0.473952	99
Es	2.778876	1.809241	0.603812	99
Es	2.676187	-0.349048	-0.619924	99
Es	4.534189	1.198149	0.424720	99
Es	0.816421	-0.561158	-0.032736	99
Es	1.557149	-0.014129	-0.027594	99
Es	2.700287	-0.360638	0.585779	99
Es	2.706571	0.720129	-0.005700	99
Es	3.921064	1.387586	0.008206	99
Es	2.770446	1.806455	-0.615679	99
Es	4.601255	1.522159	-0.255123	99
Es	0.849333	0.184726	0.370114	99
