25
Properties=species:S:1:pos:R:3:Z:I:1 energy=-154.9783083520613 field_type=dipole dipole="0.000000 0.000000 0.000000" charge=0
C	0.929460	-0.149640	0.229990	6
C	2.142190	0.097820	-0.277690	6
C	2.757830	1.400940	-0.235270	6
C	3.970420	1.650030	-0.742460	6
H	0.503640	-1.146710	0.176240	1
H	0.333050	0.621640	0.707270	1
H	2.696000	-0.712610	-0.744900	1
H	2.203200	2.212460	0.232610	1
H	4.567170	0.879320	-1.219760	1
H	4.395520	2.647390	-0.688300	1
Es	2.757697	1.400998	-0.235193	99
Es	2.142323	0.097761	-0.277767	99
Es	0.929645	-0.149511	0.229936	99
Es	3.970238	1.649902	-0.742407	99
Es	2.450089	0.749398	-0.256512	99
Es	3.401863	1.516959	-0.508802	99
Es	0.664212	-0.828132	0.181879	99
Es	2.534615	-0.440147	-0.599502	99
Es	4.235224	2.328610	-0.694116	99
Es	0.539300	0.387571	0.550541	99
Es	1.497976	-0.017369	-0.003862	99
Es	4.360922	1.113238	-1.063067	99
Es	2.364846	1.939419	0.086937	99
Es	1.552400	0.000218	-0.024988	99
Es	3.347727	1.499420	-0.487790	99
