22
Properties=species:S:1:pos:R:3:Z:I:1 energy=-153.76520893781176 field_type=dipole dipole="0.000000 0.000000 0.000000" charge=0
C	0.975710	-0.012720	-0.000000	6
C	2.312760	0.003460	-0.000000	6
C	3.037060	1.224250	0.000000	6
C	3.645990	2.258930	0.000000	6
H	0.433290	-0.952370	-0.000000	1
H	0.394400	0.903820	-0.000000	1
H	2.873080	-0.926680	-0.000000	1
H	4.179120	3.180030	0.000000	1
Es	2.312988	0.003692	0.000000	99
Es	0.976338	-0.012740	-0.000000	99
Es	3.037042	1.224180	-0.000000	99
Es	3.647108	2.261489	-0.000000	99
Es	3.429739	1.895767	-0.000000	99
Es	2.737375	-0.557732	-0.000000	99
Es	0.619144	0.605912	-0.000000	99
Es	3.887604	2.637620	-0.000000	99
Es	2.637732	0.591327	0.000000	99
Es	1.612174	0.053117	-0.000000	99
Es	0.646610	-0.640172	0.000000	99
Es	3.325790	1.725171	0.000000	99
Es	3.337456	1.745295	0.000000	99
Es	1.696731	0.024061	0.000000	99
