19
Properties=species:S:1:pos:R:3:Z:I:1 energy=-152.5380170688923 field_type=dipole dipole="0.000000 0.000000 0.000000" charge=0
C	0.908150	0.000000	0.000000	6
C	2.108190	0.000000	0.000000	6
C	3.640210	0.000000	0.000000	6
C	4.840190	0.000000	0.000000	6
H	-0.156900	0.000000	0.000000	1
H	5.905370	0.000000	0.000000	1
Es	3.639404	0.000000	0.000000	99
Es	2.108995	0.000000	0.000000	99
Es	0.905190	0.000000	-0.000000	99
Es	4.843148	0.000000	0.000000	99
Es	5.038670	-0.000000	0.000000	99
Es	1.320223	0.000000	-0.000000	99
Es	2.874200	0.000000	-0.000000	99
Es	0.709438	-0.000000	0.000000	99
Es	4.428437	-0.000000	0.000000	99
Es	4.211663	0.000000	-0.000000	99
Es	4.211663	0.000000	-0.000000	99
Es	1.536700	-0.000000	0.000000	99
Es	1.536700	0.000000	0.000000	99
