28
Properties=species:S:1:pos:R:3:Z:I:1 energy=-156.163912934829 field_type=dipole dipole="0.000000 0.000000 0.000000" charge=0
C	0.953720	-0.007970	0.008390	6
C	2.447310	-0.000630	0.012960	6
C	3.174780	1.126260	-0.012110	6
C	4.668540	1.157370	-0.009290	6
H	0.586740	-1.038030	-0.046200	1
H	0.560860	0.532270	-0.858610	1
H	0.559950	0.440180	0.925810	1
H	2.943090	-0.968490	0.037480	1
H	2.672370	2.091090	-0.033710	1
H	5.103440	0.152750	0.002280	1
H	5.028340	1.695770	0.872430	1
H	5.031570	1.675960	-0.901910	1
Es	3.174716	1.126204	-0.012122	99
Es	2.447384	-0.001159	0.012973	99
Es	4.667988	1.157440	-0.009289	99
Es	0.954090	-0.007996	0.008404	99
Es	2.810735	0.556778	-0.018125	99
Es	0.698125	0.355935	-0.558093	99
Es	4.910006	1.506428	-0.608969	99
Es	2.813481	1.777479	-0.026884	99
Es	2.751862	-0.665019	0.031915	99
Es	3.919224	1.112963	-0.010664	99
Es	0.698552	0.295915	0.608839	99
Es	4.907088	1.518562	0.582807	99
Es	4.956300	0.493287	-0.001462	99
Es	0.697871	-0.707329	-0.027768	99
Es	1.753360	0.035543	0.008902	99
Es	2.816549	0.555172	0.017590	99
