36
Properties=species:S:1:pos:R:3:Z:I:1 energy=-232.24169793442348 field_type=dipole dipole="0.000000 0.000000 0.000000" charge=0
C	0.927060	-0.049230	0.030700	6
C	2.444170	0.033880	0.065720	6
C	2.981420	1.466670	0.021510	6
C	2.599200	2.298800	1.238000	6
O	4.405750	1.414470	-0.060540	8
H	0.609320	-1.095450	-0.024670	1
H	0.525280	0.473120	-0.843120	1
H	0.480840	0.384830	0.930160	1
H	2.852810	-0.523710	-0.786740	1
H	2.820330	-0.480290	0.959250	1
H	2.627570	1.967620	-0.885870	1
H	2.931090	1.815990	2.163990	1
H	1.519390	2.462290	1.295730	1
H	3.092430	3.276510	1.200290	1
H	4.735070	0.975520	0.742430	1
Es	4.405680	1.414296	-0.060065	99
Es	2.981676	1.466508	0.021647	99
Es	2.443907	0.034258	0.065742	99
Es	0.927710	-0.049144	0.030698	99
Es	2.599334	2.298462	1.237500	99
Es	4.575459	1.513868	-0.305080	99
Es	0.660631	0.313615	-0.558995	99
Es	2.824180	1.952702	1.861392	99
Es	1.675311	-0.000617	0.057443	99
Es	2.741952	1.801098	-0.596458	99
Es	4.532957	1.185180	0.365978	99
Es	3.904560	1.413766	0.004708	99
Es	0.629890	0.249726	0.638571	99
Es	2.698060	0.747381	0.056309	99
Es	0.712328	-0.765098	-0.008624	99
Es	2.933516	2.962677	1.211270	99
Es	1.864307	2.401491	1.272157	99
Es	2.703035	-0.299142	0.674957	99
Es	2.724753	-0.340279	-0.509274	99
Es	2.772909	1.888942	0.642971	99
Es	4.386617	1.413353	-0.028427	99
