36
Properties=species:S:1:pos:R:3:Z:I:1 energy=-232.2283729969344 field_type=dipole dipole="0.000000 0.000000 0.000000" charge=0
C	0.924430	-0.041160	0.023290	6
C	2.441550	-0.015350	0.007700	6
C	2.984750	1.407840	0.000020	6
O	4.409720	1.344060	-0.016100	8
C	4.992820	2.639930	-0.013910	6
H	0.562080	-1.074110	0.030410	1
H	0.513800	0.456320	-0.861870	1
H	0.531820	0.462320	0.913090	1
H	2.814090	-0.555320	-0.870540	1
H	2.831880	-0.552220	0.879990	1
H	2.652190	1.945890	0.895880	1
H	2.632750	1.944050	-0.889540	1
H	6.080590	2.528190	-0.033160	1
H	4.713710	3.183670	0.893650	1
H	4.683480	3.201410	-0.900400	1
Es	4.409429	1.344454	-0.016101	99
Es	2.984842	1.407373	0.000017	99
Es	4.992733	2.639605	-0.013912	99
Es	2.441426	-0.015146	0.007700	99
Es	0.925144	-0.041068	0.023282	99
Es	4.573517	1.061291	-0.017699	99
Es	0.660533	0.304650	0.622609	99
Es	5.738429	2.564964	-0.027120	99
Es	2.755109	1.784806	0.613183	99
Es	2.702027	-0.373151	0.597754	99
Es	2.741617	1.783655	-0.608683	99
Es	3.893412	1.404119	-0.009447	99
Es	4.586033	1.863031	-0.014854	99
Es	2.689966	-0.375174	-0.586343	99
Es	0.676351	-0.748505	0.028175	99
Es	4.789763	3.015261	0.604291	99
Es	1.681219	-0.018429	0.015563	99
Es	4.769204	3.027129	-0.617385	99
Es	0.648382	0.300685	-0.572970	99
Es	2.707801	0.706438	0.003853	99
Es	4.391719	1.373039	-0.018032	99
