33
Properties=species:S:1:pos:R:3:Z:I:1 energy=-231.03939616514913 field_type=dipole dipole="0.000000 0.000000 0.000000" charge=0
C	1.196720	-0.052730	-0.598780	6
O	2.534920	-0.093280	-0.111520	8
C	3.124740	1.141300	-0.106050	6
C	4.448600	1.279310	0.010990	6
C	5.154560	2.593120	0.036840	6
H	0.808930	-1.075490	-0.612980	1
H	1.165700	0.341520	-1.620360	1
H	0.560800	0.546420	0.061840	1
H	2.448460	1.982800	-0.183240	1
H	5.064290	0.387150	0.094630	1
H	4.462740	3.437240	-0.049520	1
H	5.867260	2.649820	-0.791810	1
H	5.707550	2.700870	0.975010	1
Es	2.534797	-0.092911	-0.111804	99
Es	1.197105	-0.052664	-0.598633	99
Es	3.124520	1.141034	-0.106077	99
Es	5.154359	2.592654	0.036820	99
Es	4.448401	1.279303	0.011096	99
Es	2.040761	-0.019305	-0.302075	99
Es	3.767042	1.202981	-0.128497	99
Es	5.524019	2.664682	0.664003	99
Es	1.179376	0.229703	-1.290260	99
Es	2.669104	1.714534	-0.165416	99
Es	2.742393	0.385524	-0.122558	99
Es	4.865890	0.668883	0.067571	99
Es	2.670079	-0.356236	0.026206	99
Es	5.629705	2.630161	-0.518647	99
Es	4.696248	3.154072	-0.020251	99
Es	4.761764	1.939058	0.024788	99
Es	0.933197	-0.748596	-0.611976	99
Es	0.768429	0.368026	-0.148477	99
Es	2.555618	-0.045655	-0.157611	99
Es	3.810524	1.246831	0.025780	99
