30
Properties=species:S:1:pos:R:3:Z:I:1 energy=-229.8766173044027 field_type=dipole dipole="0.000000 0.000000 0.000000" charge=0
O	1.058670	0.003500	0.204800	8
C	2.263740	-0.004300	0.072700	6
C	3.346750	1.089890	-0.017280	6
C	4.272530	-0.001430	-0.609970	6
C	3.320680	-1.115600	-0.106660	6
H	3.651940	1.470680	0.961670	1
H	3.109360	1.916510	-0.689150	1
H	4.352170	0.041780	-1.702590	1
H	5.281790	-0.030840	-0.189290	1
H	3.063870	-1.878570	-0.843400	1
H	3.615450	-1.580980	0.837690	1
Es	1.059108	0.003497	0.204738	99
Es	2.263818	-0.004300	0.072655	99
Es	4.271810	-0.001448	-0.609306	99
Es	3.346520	1.089520	-0.017360	99
Es	3.320461	-1.115218	-0.106711	99
Es	0.800240	0.005025	0.239286	99
Es	2.729751	-0.636449	0.006270	99
Es	3.189045	1.638246	-0.459103	99
Es	4.954157	-0.021186	-0.325232	99
Es	3.150086	-1.622144	-0.591572	99
Es	3.513235	-1.408821	0.514872	99
Es	1.527540	0.002836	0.098305	99
Es	2.744350	0.618557	0.057026	99
Es	3.545649	1.327231	0.625810	99
Es	4.318210	0.027833	-1.346044	99
Es	3.866345	0.604752	-0.327093	99
Es	3.852187	-0.619032	-0.376830	99
Es	1.415864	-0.000542	0.209006	99
Es	1.141305	0.002861	0.195311	99
