30
Properties=species:S:1:pos:R:3:Z:I:1 energy=-229.84079844647866 field_type=dipole dipole="0.000000 0.000000 0.000000" charge=0
O	0.937610	0.069250	0.015170	8
C	2.361040	0.016740	0.015860	6
C	2.927390	1.432820	0.000000	6
C	4.371390	1.432820	0.000000	6
C	5.561550	1.432820	0.000000	6
H	0.620650	-0.850290	0.025420	1
H	2.686230	-0.545160	-0.866970	1
H	2.686160	-0.525610	0.910840	1
H	2.542610	1.984250	0.866360	1
H	2.542630	1.964930	-0.878380	1
H	6.627440	1.437680	-0.000050	1
Es	0.937569	0.068835	0.015175	99
Es	2.360915	0.017197	0.015855	99
Es	2.927860	1.432827	-0.000000	99
Es	4.370354	1.432823	-0.000000	99
Es	5.562978	1.432722	0.000001	99
Es	0.766171	0.336701	0.012170	99
Es	3.701694	1.438022	-0.000055	99
Es	5.869776	1.402943	0.000328	99
Es	2.588733	-0.354538	0.624989	99
Es	5.308783	1.401646	0.000341	99
Es	0.814324	-0.423512	0.020663	99
Es	2.588777	-0.367879	-0.584937	99
Es	2.697951	1.777446	-0.584857	99
Es	2.676165	0.738531	0.007802	99
Es	2.697959	1.790350	0.577056	99
Es	1.445848	0.026147	0.015703	99
Es	0.956277	0.042749	0.015463	99
Es	4.979664	1.456013	-0.024100	99
Es	4.979661	1.456570	0.023586	99
