26
Properties=species:S:1:pos:R:3:Z:I:1 energy=-244.67215930429808 field_type=dipole dipole="0.000000 0.000000 0.000000" charge=0
O	-0.377080	-1.071010	-0.002180	8
C	-1.159400	0.037930	-0.002010	6
C	-0.369430	1.158260	0.000520	6
C	0.939560	0.646040	0.001850	6
N	0.955920	-0.688930	0.000270	7
H	-2.224530	-0.141760	-0.003810	1
H	-0.691150	2.187960	0.001270	1
H	1.879100	1.179640	0.003890	1
Es	-0.376977	-1.070482	-0.002179	99
Es	0.955545	-0.688635	0.000270	99
Es	-1.159224	0.037638	-0.002010	99
Es	0.939489	0.645954	0.001850	99
Es	-0.369400	1.158155	0.000520	99
Es	-0.449342	-1.384646	-0.002667	99
Es	0.908914	-0.067321	0.000946	99
Es	-0.829343	0.558869	-0.000892	99
Es	-0.662974	-0.605603	-0.002045	99
Es	1.533102	1.005449	0.003165	99
Es	-1.815767	-0.037953	-0.003078	99
Es	-0.376524	-0.912320	-0.001987	99
Es	-0.578059	1.851831	0.001039	99
Es	0.320095	0.925284	0.001264	99
Es	0.132916	-0.862286	-0.001167	99
Es	1.224082	-0.958877	0.000345	99
Es	0.881062	-0.182805	0.000768	99
Es	-0.558276	0.719820	-0.000286	99
