32
Properties=species:S:1:pos:R:3:Z:I:1 energy=-247.0136272474321 field_type=dipole dipole="0.000000 0.000000 0.000000" charge=0
C	0.987600	-0.087330	-0.051920	6
C	2.494730	0.031980	0.066440	6
C	2.895340	1.479670	0.064850	6
N	3.414330	2.025210	1.115960	7
O	3.682600	3.370530	0.839660	8
H	0.686860	-1.139340	-0.063510	1
H	0.626360	0.383300	-0.972550	1
H	0.488330	0.404250	0.789870	1
H	2.978020	-0.454380	-0.786720	1
H	2.843120	-0.450160	0.985350	1
H	2.718250	2.051460	-0.863710	1
H	4.064500	3.683950	1.681000	1
Es	3.682778	3.370612	0.840105	99
Es	3.414379	2.025289	1.116123	99
Es	2.895275	1.479695	0.064581	99
Es	2.494798	0.032452	0.066440	99
Es	0.988228	-0.087218	-0.051843	99
Es	3.620835	3.499744	0.562821	99
Es	3.502390	1.874009	1.463281	99
Es	0.654994	0.244573	0.511755	99
Es	2.718250	0.792755	0.087884	99
Es	2.771748	1.849102	-0.560140	99
Es	3.876594	3.503422	1.288455	99
Es	3.565899	2.813932	0.942183	99
Es	2.817237	-0.292107	-0.506085	99
Es	3.681829	3.337564	0.861539	99
Es	2.718669	-0.289231	0.671309	99
Es	1.762300	-0.010416	0.007847	99
Es	0.784197	-0.804408	-0.061943	99
Es	0.749973	0.234581	-0.673877	99
Es	3.207698	1.809964	0.620841	99
Es	3.166021	1.795771	0.695610	99
