35
Properties=species:S:1:pos:R:3:Z:I:1 energy=-248.24033777817365 field_type=dipole dipole="0.000000 0.000000 0.000000" charge=0
C	0.982210	-0.037110	-0.045850	6
C	2.497640	0.047980	0.078090	6
N	3.160440	-0.659420	-1.033750	7
C	2.980560	1.508500	0.108290	6
O	4.407000	1.533860	0.121700	8
H	0.498140	0.469470	0.795330	1
H	0.646800	-1.079560	-0.045340	1
H	0.628280	0.431670	-0.970310	1
H	2.817860	-0.443590	1.005840	1
H	2.826420	-0.281230	-1.921940	1
H	2.865780	-1.637050	-1.026760	1
H	2.618050	2.025450	1.001860	1
H	2.641160	2.060350	-0.774750	1
H	4.668500	0.756070	-0.414900	1
Es	4.406896	1.533555	0.121291	99
Es	3.160438	-0.659302	-1.033730	99
Es	2.980865	1.507860	0.108197	99
Es	2.497759	0.047839	0.077781	99
Es	0.982868	-0.037034	-0.045809	99
Es	4.585634	1.748738	0.268061	99
Es	2.844710	-0.379756	-0.613575	99
Es	0.660217	0.308498	0.523304	99
Es	2.730346	0.774716	0.088837	99
Es	2.923173	-0.449092	-1.523813	99
Es	2.943480	-1.195158	-1.029211	99
Es	2.733532	1.874141	-0.505015	99
Es	4.503419	1.145248	-0.153915	99
Es	3.891959	1.490710	0.107131	99
Es	0.750302	0.285361	-0.675733	99
Es	0.759466	-0.753368	-0.047585	99
Es	1.726461	0.012287	0.015636	99
Es	2.713551	-0.289332	0.700510	99
Es	2.722882	1.856445	0.719671	99
Es	4.381714	1.509764	0.103484	99
Es	3.565722	-0.621025	-0.997917	99
