35
Properties=species:S:1:pos:R:3:Z:I:1 energy=-248.24346403132128 field_type=dipole dipole="0.000000 0.000000 0.000000" charge=0
C	0.888740	-0.016990	0.022580	6
C	2.406710	0.010590	-0.026730	6
O	2.837530	-0.584510	-1.253310	8
C	2.958220	1.444530	0.051930	6
N	4.416150	1.429380	-0.138130	7
H	0.513620	0.420580	0.952340	1
H	0.523360	-1.046760	-0.052150	1
H	0.458520	0.530500	-0.823020	1
H	2.812510	-0.594040	0.792770	1
H	3.730650	-0.210280	-1.405140	1
H	2.708010	1.905290	1.012910	1
H	2.525270	2.055660	-0.747570	1
H	4.853040	0.948040	0.649260	1
H	4.762140	2.389110	-0.102620	1
Es	2.837970	-0.584201	-1.253123	99
Es	4.416296	1.428999	-0.138549	99
Es	2.406791	0.010554	-0.026913	99
Es	2.958788	1.443935	0.051771	99
Es	0.889533	-0.016941	0.022587	99
Es	2.661614	-0.775617	-1.432259	99
Es	4.584946	1.983382	-0.071189	99
Es	1.641479	0.003147	0.007240	99
Es	2.779629	1.757519	0.716878	99
Es	2.693571	-0.392433	0.545095	99
Es	2.858162	-0.568052	-1.225442	99
Es	2.680870	0.741057	0.017197	99
Es	4.644173	1.178462	0.349087	99
Es	3.845158	1.451831	-0.016719	99
Es	3.283802	-0.381808	-1.300536	99
Es	2.664249	1.858465	-0.488342	99
Es	0.646157	0.285056	0.654735	99
Es	0.604974	0.364581	-0.545073	99
Es	0.643833	-0.719818	-0.019672	99
Es	2.706062	-0.355785	-0.812575	99
Es	4.496844	1.249685	-0.494055	99
