35
Properties=species:S:1:pos:R:3:Z:I:1 energy=-248.22883262297339 field_type=dipole dipole="0.000000 0.000000 0.000000" charge=0
C	1.786210	-0.407210	0.630530	6
N	3.162170	0.041190	0.451460	7
C	3.194780	1.421150	-0.062680	6
C	4.651820	1.877730	-0.206960	6
O	5.332400	1.717190	1.035370	8
H	1.783880	-1.434580	1.008750	1
H	1.234060	-0.395370	-0.315250	1
H	1.258740	0.214230	1.361810	1
H	3.624920	-0.576010	-0.217230	1
H	2.689990	2.080550	0.653280	1
H	2.686650	1.494620	-1.030510	1
H	4.701360	2.931540	-0.496490	1
H	5.176250	1.284190	-0.963040	1
H	4.927460	0.922460	1.439930	1
Es	5.332170	1.716692	1.035309	99
Es	3.163054	0.041291	0.451958	99
Es	4.651736	1.877536	-0.206518	99
Es	3.195335	1.420811	-0.062599	99
Es	1.786655	-0.407070	0.630476	99
Es	5.547866	1.915854	1.150217	99
Es	2.564747	-0.138444	0.481198	99
Es	3.918123	1.647255	-0.137862	99
Es	1.411127	-0.393050	-0.021675	99
Es	3.403733	-0.306287	0.026721	99
Es	5.118859	1.316029	1.209255	99
Es	2.841693	1.471220	-0.729092	99
Es	3.152840	0.595073	0.193734	99
Es	5.000477	1.459900	-0.737504	99
Es	1.783156	-1.112070	0.887979	99
Es	1.433820	0.029203	1.116833	99
Es	2.845088	1.859076	0.420817	99
Es	4.674499	2.601163	-0.409209	99
Es	5.063571	1.749247	0.595614	99
Es	5.313681	1.687853	1.014279	99
Es	3.367844	0.043814	0.799501	99
