32
Properties=species:S:1:pos:R:3:Z:I:1 energy=-247.082389686127 field_type=dipole dipole="0.000000 0.000000 0.000000" charge=0
C	1.020790	0.018050	-0.154330	6
N	2.451600	0.016000	0.071880	7
C	3.144460	-1.257080	0.023600	6
C	3.163070	1.193060	0.175930	6
O	4.379310	1.292620	0.272890	8
H	0.607660	1.025490	-0.055970	1
H	0.543550	-0.639300	0.578050	1
H	0.823310	-0.351720	-1.164280	1
H	2.676100	-1.943520	0.734100	1
H	4.202600	-1.148360	0.277740	1
H	3.061340	-1.662980	-0.988050	1
H	2.516190	2.085830	0.174560	1
Es	4.379154	1.292198	0.272854	99
Es	2.451574	0.015924	0.071796	99
Es	3.162141	1.193344	0.175881	99
Es	1.021288	0.018111	-0.154257	99
Es	3.144237	-1.256638	0.023617	99
Es	4.633737	1.421659	0.306473	99
Es	2.769160	0.548029	0.100330	99
Es	3.075694	-1.530280	-0.665235	99
Es	0.704441	-0.433815	0.343178	99
Es	2.701373	1.771491	0.170899	99
Es	1.827459	0.029925	-0.032901	99
Es	0.892447	-0.238171	-0.840661	99
Es	3.868218	1.226149	0.232012	99
Es	2.754620	-0.530933	0.040464	99
Es	2.811148	-1.718032	0.503580	99
Es	0.752723	0.708903	-0.086167	99
Es	3.845189	-1.183088	0.193446	99
Es	4.090432	1.272167	0.243206	99
Es	4.317543	1.185338	0.261952	99
Es	2.512433	0.144711	0.149286	99
