32
Properties=species:S:1:pos:R:3:Z:I:1 energy=-247.0548396691959 field_type=dipole dipole="0.000000 0.000000 0.000000" charge=0
C	0.972190	-0.071640	-0.035400	6
N	2.427350	-0.000550	-0.096430	7
C	2.878350	1.392400	0.011270	6
C	4.391340	1.415910	-0.009830	6
O	5.049030	2.018340	-0.854500	8
H	0.655070	-1.115590	-0.119660	1
H	0.508360	0.488740	-0.853620	1
H	0.597410	0.310930	0.919320	1
H	2.733960	-0.374910	-0.997260	1
H	2.556600	1.840620	0.957210	1
H	2.502840	1.996920	-0.821280	1
H	4.887900	0.868510	0.810010	1
Es	5.048665	2.018174	-0.854273	99
Es	2.428041	-0.000905	-0.096077	99
Es	4.391087	1.415609	-0.009396	99
Es	2.878976	1.392081	0.011279	99
Es	0.972679	-0.071616	-0.035410	99
Es	5.260372	2.123776	-0.997936	99
Es	1.809804	0.006571	-0.107097	99
Es	2.660352	1.680770	0.636235	99
Es	2.578060	-0.177773	-0.639663	99
Es	4.691369	1.040797	0.548375	99
Es	3.673178	1.418623	0.002302	99
Es	4.785201	1.767643	-0.518230	99
Es	0.659158	0.317961	-0.595662	99
Es	2.599185	0.610674	-0.091714	99
Es	0.754640	-0.784438	-0.095645	99
Es	2.622369	1.792665	-0.538842	99
Es	0.726970	0.203461	0.610271	99
Es	4.842322	1.836941	-0.591872	99
Es	4.941326	2.015256	-0.853881	99
Es	2.598228	-0.209248	0.195436	99
