32
Properties=species:S:1:pos:R:3:Z:I:1 energy=-194.02008611238847 field_type=dipole dipole="0.000000 0.000000 0.000000" charge=0
C	1.621260	-0.960640	0.746000	6
C	2.395390	-0.298860	-0.124950	6
C	3.305040	0.837010	0.241310	6
C	4.736560	0.503400	-0.063650	6
C	5.500920	1.173030	-0.935910	6
H	0.981210	-1.772120	0.413480	1
H	1.608470	-0.711860	1.802500	1
H	2.368710	-0.583520	-1.175040	1
H	3.222920	1.076750	1.307960	1
H	2.986040	1.730270	-0.308490	1
H	5.167230	-0.337260	0.477780	1
H	5.119210	2.020440	-1.497250	1
H	6.532870	0.881580	-1.107480	1
Es	2.395381	-0.298875	-0.125026	99
Es	4.736593	0.503344	-0.063603	99
Es	3.305150	0.836698	0.241166	99
Es	1.621424	-0.960586	0.745692	99
Es	5.500835	1.172766	-0.935698	99
Es	5.022489	-0.066829	0.314646	99
Es	5.134733	0.866436	-0.541706	99
Es	1.208923	-1.498971	0.504406	99
Es	2.379931	-0.480818	-0.843455	99
Es	3.256270	0.993559	0.944871	99
Es	1.990094	-0.652994	0.355157	99
Es	6.181323	0.958816	-1.038182	99
Es	5.220367	1.731674	-1.304102	99
Es	4.022517	0.673976	0.078236	99
Es	3.090929	1.422215	-0.123820	99
Es	1.635837	-0.780554	1.447990	99
Es	2.849334	0.262510	0.067636	99
Es	5.137177	0.853304	-0.508850	99
Es	1.987142	-0.637885	0.322472	99
