32
Properties=species:S:1:pos:R:3:Z:I:1 energy=-247.02232234899094 field_type=dipole dipole="0.000000 0.000000 0.000000" charge=0
N	1.088020	0.173820	0.185600	7
C	2.479220	-0.058800	-0.185750	6
C	3.223300	1.230640	-0.100050	6
C	3.829560	1.696480	1.196300	6
O	4.626440	1.095290	0.164720	8
H	0.587510	-0.713950	0.156260	1
H	0.645130	0.765820	-0.516020	1
H	2.531760	-0.454400	-1.205130	1
H	2.909670	-0.809370	0.486070	1
H	2.918470	1.964000	-0.833940	1
H	3.642010	1.118810	2.092910	1
H	3.936720	2.761980	1.357100	1
Es	4.626034	1.095617	0.164955	99
Es	1.087936	0.174051	0.186022	99
Es	3.224017	1.230659	-0.099874	99
Es	3.829836	1.696071	1.195474	99
Es	2.479106	-0.058061	-0.185572	99
Es	4.858973	1.043557	0.030536	99
Es	0.818564	-0.346266	0.114846	99
Es	2.878963	0.602684	-0.123717	99
Es	3.310312	1.520276	0.641431	99
Es	3.723720	1.301985	1.797201	99
Es	3.907225	2.419151	1.291566	99
Es	0.851393	0.486139	-0.257925	99
Es	1.642415	0.063886	-0.010970	99
Es	2.519626	-0.324932	-0.884894	99
Es	2.759185	-0.560821	0.260657	99
Es	4.274933	1.125480	0.072239	99
Es	3.019928	1.717475	-0.610274	99
Es	4.569282	1.067661	0.198682	99
Es	4.261422	1.328931	0.544939	99
Es	1.070910	0.338958	0.547588	99
