29
Properties=species:S:1:pos:R:3:Z:I:1 energy=-245.89755562623563 field_type=dipole dipole="0.000000 0.000000 0.000000" charge=0
N	0.977200	-0.053110	0.197350	7
C	2.339230	0.045580	0.083470	6
C	3.054490	1.174050	0.061780	6
C	4.523470	1.117220	-0.053450	6
O	5.199350	2.137420	-0.100850	8
H	0.569800	-0.868610	-0.256410	1
H	0.465040	0.804950	0.002080	1
H	2.818920	-0.930710	0.020090	1
H	2.611050	2.158940	0.132350	1
H	4.974600	0.112100	-0.098260	1
Es	5.198963	2.137182	-0.100821	99
Es	0.976384	-0.054733	0.208989	99
Es	4.523521	1.116695	-0.053438	99
Es	2.339008	0.045479	0.083465	99
Es	3.054526	1.173973	0.061875	99
Es	4.928779	1.724702	-0.081080	99
Es	1.557134	0.021863	0.081521	99
Es	2.728273	1.826893	0.110746	99
Es	0.799526	-0.468958	-0.121314	99
Es	4.817598	0.416494	-0.081987	99
Es	0.733624	0.415686	0.023011	99
Es	3.788269	1.126842	0.024111	99
Es	2.665088	-0.611111	0.022291	99
Es	5.387103	2.336431	-0.116094	99
Es	2.669859	0.599063	0.020278	99
Es	0.962426	-0.103161	0.541125	99
Es	4.996212	1.839297	-0.087996	99
Es	5.120177	2.109516	-0.094598	99
Es	2.899628	0.739103	0.103228	99
