29
Properties=species:S:1:pos:R:3:Z:I:1 energy=-245.91799657461 field_type=dipole dipole="0.000000 0.000000 0.000000" charge=0
N	1.026520	-0.012380	0.245130	7
C	2.279520	-0.007320	-0.280370	6
O	2.808730	-1.023280	-0.706180	8
C	2.920910	1.326640	-0.282770	6
C	4.157760	1.481660	-0.771530	6
H	0.560140	0.806430	0.605040	1
H	0.540690	-0.899070	0.271710	1
H	2.371730	2.168970	0.116730	1
H	4.716820	0.640920	-1.174860	1
H	4.637600	2.453910	-0.778480	1
Es	2.808691	-1.022939	-0.706095	99
Es	1.026522	-0.012363	0.245133	99
Es	2.279368	-0.007184	-0.280279	99
Es	4.157755	1.481093	-0.771641	99
Es	2.920790	1.326523	-0.282743	99
Es	2.576434	-0.605898	-0.524998	99
Es	0.740450	-0.538857	0.259900	99
Es	3.563098	1.400944	-0.537718	99
Es	2.600268	0.666603	-0.280204	99
Es	4.532051	0.924423	-1.040428	99
Es	0.757414	0.480672	0.456918	99
Es	1.562471	0.017971	0.025995	99
Es	2.921860	-1.258330	-0.800786	99
Es	2.523873	1.884362	-0.004220	99
Es	2.695752	-0.784473	-0.610881	99
Es	4.455928	2.143987	-0.764190	99
Es	2.795259	-0.946417	-0.685128	99
Es	1.143461	0.002754	0.199049	99
Es	3.441374	1.367623	-0.493359	99
