29
Properties=species:S:1:pos:R:3:Z:I:1 energy=-192.8105199645558 field_type=dipole dipole="0.000000 0.000000 0.000000" charge=0
C	1.748040	-0.621740	1.054450	6
C	2.475640	-0.092140	0.061500	6
C	3.154920	1.244430	0.123490	6
C	4.604920	1.075330	-0.039270	6
C	5.791590	0.943240	-0.171700	6
H	1.280970	-1.595350	0.941020	1
H	1.607300	-0.105140	1.998810	1
H	2.584690	-0.651780	-0.865570	1
H	2.943340	1.751310	1.071990	1
H	2.759810	1.880580	-0.676440	1
H	6.844240	0.822730	-0.287630	1
Es	3.155054	1.244197	0.123384	99
Es	2.475662	-0.092136	0.061428	99
Es	4.604588	1.075409	-0.039250	99
Es	1.748241	-0.621749	1.054007	99
Es	5.793563	0.942873	-0.171849	99
Es	2.095771	-0.367423	0.606787	99
Es	5.489817	0.950194	-0.142330	99
Es	3.926936	1.146155	0.039405	99
Es	2.823048	0.577603	0.107003	99
Es	6.119532	0.881973	-0.213401	99
Es	1.453061	-1.262081	0.957354	99
Es	2.917857	1.658953	-0.407797	99
Es	1.670943	-0.259092	1.673244	99
Es	3.040873	1.575307	0.742907	99
Es	2.556294	-0.463731	-0.572610	99
Es	5.211205	1.042647	-0.086918	99
Es	5.215895	1.013928	-0.119496	99
Es	2.091871	-0.359753	0.566245	99
