29
Properties=species:S:1:pos:R:3:Z:I:1 energy=-245.8617248378995 field_type=dipole dipole="0.000000 0.000000 0.000000" charge=0
O	1.039170	0.005620	0.211180	8
C	2.244490	-0.005770	0.080190	6
C	3.345650	1.062070	0.004600	6
N	4.232960	-0.008760	-0.496280	7
C	3.316020	-1.092680	-0.081410	6
H	3.632390	1.465830	0.978750	1
H	3.154970	1.870410	-0.704010	1
H	4.365760	0.029280	-1.510200	1
H	3.105580	-1.836720	-0.850470	1
H	3.591910	-1.579870	0.858590	1
Es	1.039662	0.005616	0.211116	99
Es	4.232981	-0.008757	-0.496365	99
Es	2.244546	-0.005769	0.080163	99
Es	3.316016	-1.092118	-0.081513	99
Es	3.345632	1.061519	0.004451	99
Es	0.786782	0.007998	0.240806	99
Es	3.858189	0.458007	-0.330901	99
Es	3.183560	-1.589770	-0.591200	99
Es	2.729214	0.608425	0.063413	99
Es	3.226401	1.601380	-0.464676	99
Es	3.533880	1.315112	0.655398	99
Es	1.505540	0.002128	0.135822	99
Es	2.712225	-0.629085	0.013889	99
Es	3.497088	-1.401142	0.547578	99
Es	4.239976	0.014201	-1.080377	99
Es	3.845292	-0.477360	-0.368098	99
Es	1.393472	0.001773	0.184650	99
Es	1.121894	0.004806	0.201790	99
Es	4.580799	-0.020723	-0.314403	99
