29
Properties=species:S:1:pos:R:3:Z:I:1 energy=-245.82612135108565 field_type=dipole dipole="0.000000 0.000000 0.000000" charge=0
O	0.899130	0.126870	-0.018930	8
N	2.273880	-0.112700	-0.134140	7
C	2.913290	0.977700	0.138660	6
C	4.387160	1.036900	0.100970	6
C	5.023280	2.177420	0.387510	6
H	0.517560	-0.742880	-0.241210	1
H	2.385980	1.909660	0.410990	1
H	4.912880	0.127460	-0.165180	1
H	4.494880	3.087350	0.653890	1
H	6.107810	2.221090	0.359810	1
Es	0.899054	0.126364	-0.019065	99
Es	2.273855	-0.113103	-0.134248	99
Es	2.913318	0.977911	0.138716	99
Es	4.386986	1.036816	0.100954	99
Es	5.023250	2.177115	0.387428	99
Es	0.786104	0.405107	0.060755	99
Es	2.540116	0.387370	-0.008044	99
Es	4.707413	1.653378	0.256712	99
Es	2.560835	1.600763	0.320724	99
Es	4.648328	2.775059	0.563485	99
Es	0.733123	-0.333820	-0.137985	99
Es	1.469307	0.040826	-0.063096	99
Es	3.647419	0.995965	0.116839	99
Es	4.735819	0.420515	-0.079139	99
Es	0.939034	0.108240	-0.025445	99
Es	5.743801	2.188172	0.364148	99
Es	2.580997	0.354233	-0.018537	99
Es	2.401804	-0.467303	-0.235107	99
Es	4.655691	1.588520	0.240984	99
