26
Properties=species:S:1:pos:R:3:Z:I:1 energy=-191.59839069753897 field_type=dipole dipole="0.000000 0.000000 0.000000" charge=0
C	1.000000	0.000000	0.000000	6
C	2.190160	0.000000	0.000000	6
C	3.634160	0.000000	0.000000	6
C	4.116180	1.361170	0.000000	6
C	4.513460	2.483070	0.000000	6
H	-0.065100	0.005800	0.000000	1
H	4.011960	-0.534570	-0.878530	1
H	4.011960	-0.534570	0.878530	1
H	4.863510	3.488950	0.000000	1
Es	3.634044	0.000164	-0.000000	99
Es	4.115687	1.360277	0.000000	99
Es	2.191166	0.000167	-0.000000	99
Es	0.998217	0.000129	0.000000	99
Es	4.513933	2.484794	-0.000000	99
Es	3.869161	0.718772	0.000000	99
Es	0.679712	0.028712	-0.000000	99
Es	4.593311	2.794593	-0.000000	99
Es	2.878176	0.018412	-0.000000	99
Es	4.379484	2.195744	-0.000000	99
Es	1.315509	0.030374	0.000000	99
Es	3.868286	-0.331278	-0.573909	99
Es	3.868286	-0.331278	0.573909	99
Es	4.343748	1.913229	0.000000	99
Es	1.585428	0.001582	0.000000	99
Es	1.593806	-0.030222	-0.000000	99
Es	4.316551	1.931749	-0.000000	99
