35
Properties=species:S:1:pos:R:3:Z:I:1 energy=-195.21434506339662 field_type=dipole dipole="0.000000 0.000000 0.000000" charge=0
C	0.927100	-0.119570	0.005790	6
C	2.417390	0.004830	0.001430	6
C	3.112300	1.158770	0.000170	6
C	2.483820	2.524740	0.004230	6
C	4.617840	1.158240	-0.004790	6
H	0.644420	-1.176990	-0.006030	1
H	0.491300	0.348600	-0.881450	1
H	0.499240	0.327180	0.907810	1
H	2.959820	-0.939200	-0.000920	1
H	1.390660	2.492660	0.004730	1
H	2.796270	3.085950	-0.882500	1
H	2.797220	3.080820	0.893850	1
H	5.032060	0.144840	-0.004030	1
H	4.999550	1.674590	0.881650	1
H	4.993530	1.670960	-0.895890	1
Es	3.112460	1.158913	0.000170	99
Es	2.484003	2.524511	0.004229	99
Es	4.617668	1.158355	-0.004791	99
Es	2.417457	0.003605	0.001428	99
Es	0.927590	-0.119339	0.005794	99
Es	2.673541	0.479032	-0.000808	99
Es	4.860574	1.511025	-0.612829	99
Es	2.699181	2.891925	0.606763	99
Es	0.731076	-0.836139	-0.001929	99
Es	2.813955	-0.560629	-0.000952	99
Es	2.788045	1.831227	0.002151	99
Es	4.864786	1.513500	0.600217	99
Es	1.711923	0.010409	0.003293	99
Es	0.650101	0.183559	0.592039	99
Es	2.698605	2.895557	-0.596515	99
Es	1.752234	2.497424	0.004596	99
Es	4.892284	0.470404	-0.004337	99
Es	0.644782	0.197342	-0.570622	99
Es	3.876504	1.145656	-0.001889	99
Es	2.763355	0.551570	0.002944	99
