32
Properties=species:S:1:pos:R:3:Z:I:1 energy=-194.0287254267132 field_type=dipole dipole="0.000000 0.000000 0.000000" charge=0
C	1.023490	-0.023630	0.225630	6
C	2.511150	-0.103970	0.013480	6
C	3.075800	-1.224310	-0.467840	6
C	3.345080	1.044120	0.333320	6
C	2.921850	2.219050	0.817350	6
H	0.587410	0.776390	-0.382240	1
H	0.791360	0.165380	1.279250	1
H	0.519540	-0.955240	-0.055110	1
H	2.478660	-2.096730	-0.715370	1
H	4.146020	-1.309280	-0.630460	1
H	4.415340	0.930930	0.160320	1
H	1.878640	2.430360	1.023120	1
H	3.632860	3.013520	1.022240	1
Es	2.511259	-0.103979	0.013463	99
Es	3.345547	1.043922	0.333190	99
Es	2.921878	2.218942	0.817307	99
Es	1.024016	-0.023687	0.225544	99
Es	3.081145	-1.226543	-0.469317	99
Es	3.419938	-1.179349	-0.493550	99
Es	3.407206	2.738485	0.948794	99
Es	0.687696	-0.656515	0.034105	99
Es	4.025478	0.900604	0.197023	99
Es	2.960130	0.533423	0.192766	99
Es	2.981492	-0.904121	-0.338513	99
Es	3.093050	1.660209	0.590818	99
Es	0.880468	0.107463	0.928966	99
Es	2.854643	-1.643949	-0.595014	99
Es	2.223766	2.326772	0.942658	99
Es	0.744396	0.515119	-0.179550	99
Es	1.783388	-0.065247	0.117050	99
Es	3.119765	1.614381	0.570695	99
Es	2.819827	-0.644629	-0.223238	99
