35
Properties=species:S:1:pos:R:3:Z:I:1 energy=-195.22869635565095 field_type=dipole dipole="0.000000 0.000000 0.000000" charge=0
C	-0.780440	-0.988640	-0.189520	6
C	-1.173920	0.406540	0.263320	6
C	-0.003160	1.254700	-0.203710	6
C	1.220020	0.386280	0.066850	6
C	0.720950	-1.058570	0.068710	6
H	-1.329920	-1.771370	0.341890	1
H	-0.978500	-1.105340	-1.261580	1
H	-1.259330	0.443520	1.355320	1
H	-2.123580	0.732780	-0.169000	1
H	-0.088620	1.452740	-1.279520	1
H	0.048300	2.217850	0.313100	1
H	1.998430	0.548340	-0.685010	1
H	1.651480	0.630470	1.044180	1
H	1.226960	-1.666160	-0.688520	1
H	0.919500	-1.518590	1.044240	1
Es	-1.173624	0.406437	0.262816	99
Es	-0.003208	1.254302	-0.203091	99
Es	0.720383	-1.057633	0.068120	99
Es	-0.780223	-0.988287	-0.188893	99
Es	1.219023	0.385897	0.066240	99
Es	-0.033714	-1.049351	-0.060204	99
Es	1.747409	0.494379	-0.442405	99
Es	0.031706	1.907125	0.145118	99
Es	-1.821798	0.629285	-0.027924	99
Es	0.989697	-0.342873	0.059681	99
Es	-1.226974	0.429747	1.008414	99
Es	-1.006037	-0.299577	0.043713	99
Es	1.514390	0.553783	0.736185	99
Es	-0.061808	1.386860	-0.944099	99
Es	-1.152498	-1.518788	0.168979	99
Es	1.064994	-1.468843	-0.444575	99
Es	0.621274	0.843550	-0.068911	99
Es	-0.605669	0.855086	0.036298	99
Es	-0.914404	-1.065732	-0.927493	99
Es	0.855825	-1.373084	0.736583	99
