35
Properties=species:S:1:pos:R:3:Z:I:1 energy=-195.21210571168416 field_type=dipole dipole="0.000000 0.000000 0.000000" charge=0
C	0.888760	-0.071690	-0.085170	6
C	2.411870	0.020100	0.001800	6
C	3.064070	-0.784470	-1.122210	6
C	2.852510	1.461390	-0.064910	6
C	3.522500	2.086600	0.912070	6
H	0.415160	0.485430	0.730720	1
H	0.559570	-1.113740	-0.012080	1
H	0.513860	0.333610	-1.031750	1
H	2.723750	-0.419620	0.958040	1
H	2.773690	-0.406940	-2.109160	1
H	2.768810	-1.837660	-1.065240	1
H	4.156670	-0.740470	-1.053020	1
H	2.604050	2.016210	-0.968150	1
H	3.794960	1.580280	1.832720	1
H	3.813480	3.127200	0.807110	1
Es	2.411872	0.020295	0.001670	99
Es	2.852616	1.461712	-0.064909	99
Es	3.522166	2.086351	0.911541	99
Es	3.063806	-0.784127	-1.121799	99
Es	0.889354	-0.071628	-0.085168	99
Es	2.677430	1.829594	-0.685843	99
Es	3.659853	1.730865	1.445336	99
Es	0.565843	0.310905	0.465836	99
Es	0.670182	-0.784569	-0.037512	99
Es	1.659670	-0.015214	-0.036969	99
Es	3.241961	1.803173	0.518117	99
Es	3.706757	2.752624	0.840787	99
Es	3.806584	-0.750921	-1.079160	99
Es	2.857101	-1.501183	-1.080039	99
Es	2.861354	-0.523709	-1.784780	99
Es	0.644534	0.202714	-0.727894	99
Es	2.622436	-0.267413	0.641023	99
Es	2.741893	-0.369867	-0.552917	99
Es	2.638749	0.759647	-0.030740	99
Es	3.203812	1.794554	0.443375	99
