29
Properties=species:S:1:pos:R:3:Z:I:1 energy=-192.8229553262659 field_type=dipole dipole="0.000000 0.000000 0.000000" charge=0
C	1.000000	0.000000	0.000000	6
C	2.444000	0.000000	0.000000	6
C	3.634160	0.000000	0.000000	6
C	5.040160	0.000000	0.000000	6
C	5.741920	1.137870	0.000000	6
H	0.605990	1.020880	0.011680	1
H	0.605920	-0.520520	0.878250	1
H	0.605920	-0.500290	-0.889930	1
H	5.554470	-0.956340	-0.000000	1
H	5.255610	2.108800	0.000000	1
H	6.826820	1.118970	0.000000	1
Es	5.039757	-0.000159	0.000000	99
Es	1.001382	-0.000037	-0.000000	99
Es	5.741256	1.137193	0.000001	99
Es	2.442785	0.000039	-0.000000	99
Es	3.634759	0.000073	0.000000	99
Es	1.936529	-0.057006	0.000010	99
Es	5.338745	0.623397	0.000195	99
Es	0.774531	-0.342876	0.573692	99
Es	6.450112	1.091164	0.000015	99
Es	5.287867	-0.643314	-0.000075	99
Es	2.827208	-0.102017	-0.000006	99
Es	4.423517	0.029862	-0.000027	99
Es	0.774790	-0.329714	-0.581404	99
Es	0.780289	0.672577	0.007709	99
Es	5.394041	1.764010	0.000062	99
Es	3.089597	0.008702	0.000077	99
Es	3.068885	0.137472	-0.000050	99
Es	5.352627	0.548799	-0.000194	99
