26
Properties=species:S:1:pos:R:3:Z:I:1 energy=-191.49585733835858 field_type=dipole dipole="0.000000 0.000000 0.000000" charge=0
C	1.000000	0.000000	0.000000	6
C	2.444000	0.000000	0.000000	6
C	3.634160	0.000000	0.000000	6
C	5.079560	-0.000000	-0.000000	6
C	6.376130	-0.000000	-0.000000	6
H	0.472420	1.230670	0.020710	1
H	0.484950	-0.613960	1.071610	1
H	0.486910	-0.600590	-1.091840	1
H	7.511290	-0.000000	-0.000000	1
Es	1.000484	-0.000005	-0.000006	99
Es	5.078870	-0.000001	-0.000000	99
Es	6.381344	0.000001	-0.000000	99
Es	3.635381	-0.000000	0.000001	99
Es	2.447674	-0.000044	-0.000033	99
Es	4.786262	0.000398	0.000238	99
Es	6.690111	0.000220	0.000632	99
Es	1.919800	0.001283	0.000389	99
Es	3.859179	0.000441	0.000164	99
Es	4.667968	-0.001736	-0.001792	99
Es	0.709897	-0.392045	0.675986	99
Es	0.710084	-0.381765	-0.688868	99
Es	0.703665	0.779502	0.011463	99
Es	3.093817	0.000433	-0.000758	99
Es	3.093330	-0.001447	-0.000444	99
Es	5.690493	-0.000623	0.002188	99
Es	5.690294	0.002362	0.000125	99
