35
Properties=species:S:1:pos:R:3:Z:I:1 energy=-195.2152373418091 field_type=dipole dipole="0.000000 0.000000 0.000000" charge=0
C	2.217980	-0.593650	1.417490	6
C	2.712630	-0.098500	0.067400	6
C	3.152550	1.335490	0.136840	6
C	4.405290	1.747250	-0.111760	6
C	4.842850	3.174500	-0.049020	6
H	1.890680	-1.635330	1.340920	1
H	1.369850	0.001500	1.772100	1
H	3.010200	-0.542070	2.171790	1
H	1.906100	-0.183380	-0.670060	1
H	3.529250	-0.744160	-0.276700	1
H	2.387460	2.064490	0.397070	1
H	5.171360	1.021470	-0.376650	1
H	4.023550	3.847330	0.222830	1
H	5.233100	3.487400	-1.022180	1
H	5.638340	3.287670	0.693710	1
Es	4.404961	1.747236	-0.111798	99
Es	2.712703	-0.098059	0.067491	99
Es	3.152429	1.335465	0.136873	99
Es	4.842715	3.173906	-0.049040	99
Es	2.218206	-0.593421	1.416915	99
Es	4.912998	1.237095	-0.296080	99
Es	2.750851	-0.555747	1.926187	99
Es	4.575188	2.460065	-0.068287	99
Es	2.478919	-0.331751	0.736377	99
Es	2.617634	1.827726	0.319995	99
Es	3.787521	1.565102	-0.075088	99
Es	2.172093	-0.160981	-0.429908	99
Es	5.103760	3.384564	-0.702251	99
Es	5.373425	3.249248	0.450247	99
Es	1.646569	-0.186118	1.654663	99
Es	1.991708	-1.308097	1.364796	99
Es	4.303550	3.616851	0.129926	99
Es	3.258098	-0.525315	-0.156330	99
Es	2.971450	0.634055	0.098988	99
Es	3.795709	1.528037	0.100065	99
