32
Properties=species:S:1:pos:R:3:Z:I:1 energy=-194.01381282099356 field_type=dipole dipole="0.000000 0.000000 0.000000" charge=0
C	1.000100	-0.054430	0.003300	6
C	2.520000	0.000000	0.000000	6
C	3.002020	1.361170	0.000000	6
C	3.399300	2.483070	0.000000	6
C	3.881320	3.844240	0.000000	6
H	0.658010	-1.093690	0.002930	1
H	0.585000	0.441080	-0.880450	1
H	0.588880	0.439250	0.889780	1
H	2.895610	-0.532710	-0.880860	1
H	2.899470	-0.534100	0.878360	1
H	3.087590	4.543290	-0.280880	1
H	4.704760	3.970710	-0.709590	1
H	4.246140	4.133100	0.990470	1
Es	2.520394	0.001165	-0.000005	99
Es	3.881048	3.843494	0.000012	99
Es	1.000895	-0.054339	0.003299	99
Es	3.399762	2.484431	0.000005	99
Es	3.001851	1.360527	0.000002	99
Es	0.768920	-0.767959	0.002893	99
Es	3.560121	3.012416	0.000737	99
Es	3.222784	2.085813	0.004372	99
Es	2.773950	-0.340200	-0.587007	99
Es	2.778450	0.720253	-0.001535	99
Es	2.776934	-0.341620	0.585207	99
Es	4.417524	3.907912	-0.468640	99
Es	3.347972	4.281781	-0.185059	99
Es	4.113963	4.013528	0.653730	99
Es	1.782065	-0.008353	0.001876	99
Es	0.725757	0.277888	0.598528	99
Es	0.723596	0.279372	-0.590124	99
Es	3.252829	1.902212	0.003464	99
Es	3.195634	1.923880	-0.006993	99
