34
Properties=species:S:1:pos:R:3:Z:I:1 energy=-211.1932951942157 field_type=dipole dipole="0.000000 0.000000 0.000000" charge=0
C	0.999620	-0.035260	0.045210	6
C	2.510220	0.054650	0.013910	6
C	3.170630	1.098270	0.941950	6
C	4.195470	-0.013480	1.223500	6
N	3.155900	-0.995720	0.843360	7
H	0.649460	-0.903200	-0.524030	1
H	0.554780	0.858150	-0.405400	1
H	0.612460	-0.121520	1.066960	1
H	2.900750	0.089140	-1.012400	1
H	2.574090	1.384430	1.816000	1
H	3.558310	1.997320	0.457890	1
H	5.062420	-0.005980	0.550440	1
H	4.544390	-0.087400	2.256200	1
H	3.498320	-1.801480	0.323590	1
Es	3.156201	-0.995783	0.842815	99
Es	2.509999	0.054427	0.014370	99
Es	4.194650	-0.013534	1.223365	99
Es	3.170598	1.097679	0.941581	99
Es	1.000222	-0.035223	0.045194	99
Es	3.649400	-0.630546	0.971799	99
Es	2.770844	0.658448	0.456144	99
Es	3.429767	1.708451	0.614350	99
Es	4.786147	-0.007083	0.754759	99
Es	2.782286	0.075834	-0.685526	99
Es	3.380317	-1.437177	0.508182	99
Es	4.441764	-0.067509	1.930413	99
Es	0.703688	0.575814	-0.262801	99
Es	0.764977	-0.630020	-0.346299	99
Es	2.778071	1.286507	1.521876	99
Es	0.742908	-0.087966	0.724661	99
Es	3.736685	0.601466	1.119417	99
Es	2.895772	-0.605504	0.440830	99
Es	1.752685	0.012266	0.032774	99
Es	2.926572	-1.079186	1.153559	99
