35
Properties=species:S:1:pos:R:3:Z:I:1 energy=-195.1968026626223 field_type=dipole dipole="0.000000 0.000000 0.000000" charge=0
C	0.968550	-0.010700	0.013230	6
C	2.482920	0.017310	0.020920	6
C	3.152800	1.050480	0.962350	6
C	4.242060	-0.008840	1.228730	6
C	3.193050	-1.077930	0.857450	6
H	0.602100	-0.870470	-0.558020	1
H	0.568830	0.896520	-0.452000	1
H	0.559450	-0.079220	1.026400	1
H	2.878160	0.075690	-1.003370	1
H	2.564630	1.306320	1.851540	1
H	3.497200	1.972660	0.487000	1
H	5.086610	0.041240	0.531550	1
H	4.624840	-0.052040	2.251460	1
H	3.571070	-1.934960	0.294740	1
H	2.616940	-1.441390	1.716350	1
Es	2.482525	0.017302	0.020942	99
Es	4.241275	-0.008855	1.228727	99
Es	3.193177	-1.077371	0.857122	99
Es	3.152946	1.049960	0.961970	99
Es	0.969064	-0.010693	0.013273	99
Es	2.747397	0.055940	-0.656765	99
Es	0.697778	-0.056824	0.699209	99
Es	2.771878	-0.616553	0.400531	99
Es	4.508436	-0.038296	1.928125	99
Es	2.748703	0.620757	0.461858	99
Es	3.447936	-1.667668	0.477368	99
Es	1.729923	0.003396	0.015524	99
Es	0.695978	0.610466	-0.302054	99
Es	0.718473	-0.599768	-0.374749	99
Es	2.807781	-1.312988	1.435781	99
Es	4.806468	0.025104	0.754295	99
Es	3.756798	0.589530	1.133089	99
Es	2.759925	1.213080	1.560064	99
Es	3.384527	1.684285	0.642267	99
Es	3.779583	-0.613156	1.073747	99
