37
Properties=species:S:1:pos:R:3:Z:I:1 energy=-212.4004863263074 field_type=dipole dipole="0.000000 0.000000 0.000000" charge=0
C	1.161240	-0.276450	-0.089870	6
C	2.677310	-0.161650	-0.055250	6
C	3.127350	1.297190	0.017970	6
C	4.650640	1.402800	0.053820	6
N	5.060330	2.800580	0.129690	7
H	0.861380	-1.327880	-0.143980	1
H	0.748750	0.239760	-0.962720	1
H	0.714590	0.158500	0.809870	1
H	3.093760	-0.636240	-0.952320	1
H	3.059490	-0.714920	0.811080	1
H	2.702250	1.766040	0.913800	1
H	2.736820	1.843220	-0.848710	1
H	5.084650	0.946100	-0.843390	1
H	5.046450	0.867830	0.924600	1
H	4.723000	3.301770	-0.691110	1
H	6.077630	2.857050	0.100940	1
Es	5.060160	2.800749	0.129904	99
Es	4.650232	1.403398	0.053828	99
Es	2.677188	-0.161354	-0.055239	99
Es	3.127417	1.296819	0.017989	99
Es	1.161848	-0.276382	-0.089857	99
Es	5.648635	2.799426	0.063905	99
Es	0.952962	-0.998240	-0.127387	99
Es	2.898123	0.568498	-0.023559	99
Es	4.943856	1.080782	-0.565837	99
Es	2.964131	-0.483463	-0.663247	99
Es	4.888166	3.050226	-0.378082	99
Es	2.940545	-0.534966	0.533682	99
Es	4.923363	2.244619	0.053351	99
Es	1.913830	-0.216770	-0.073344	99
Es	0.884123	0.077676	-0.679004	99
Es	0.860707	0.022045	0.517302	99
Es	4.924272	1.037537	0.644138	99
Es	2.869725	1.667511	-0.568417	99
Es	2.840579	1.610792	0.614873	99
Es	3.890335	1.355747	0.040416	99
Es	4.913350	2.958142	0.465817	99
