34
Properties=species:S:1:pos:R:3:Z:I:1 energy=-211.21250151920643 field_type=dipole dipole="0.000000 0.000000 0.000000" charge=0
C	0.888110	0.009150	0.019180	6
C	2.378640	-0.084230	-0.012160	6
C	3.195750	0.982190	0.013020	6
C	4.686880	0.904400	-0.013350	6
N	5.188010	1.644130	-1.160700	7
H	0.500210	-0.522070	0.893730	1
H	0.467290	-0.452980	-0.879060	1
H	0.538210	1.045220	0.066050	1
H	2.797390	-1.086440	-0.060470	1
H	2.773130	1.983580	0.065030	1
H	5.036980	-0.132550	-0.061390	1
H	5.085460	1.346560	0.905690	1
H	4.847460	1.195720	-2.010270	1
H	6.202579	1.564090	-1.188120	1
Es	5.187790	1.644769	-1.160690	99
Es	4.686276	0.904703	-0.013734	99
Es	2.378704	-0.084081	-0.012137	99
Es	3.195850	0.982258	0.013002	99
Es	0.888691	0.009078	0.019147	99
Es	5.066564	2.023117	-1.135205	99
Es	2.779448	0.435553	0.054298	99
Es	0.629214	-0.346029	0.605141	99
Es	3.902252	0.904210	0.008028	99
Es	2.925782	1.664642	0.049237	99
Es	5.010177	1.340641	-1.629994	99
Es	4.912234	0.213748	-0.045488	99
Es	5.003155	1.296473	-0.713234	99
Es	0.609480	-0.298961	-0.583986	99
Es	2.679334	-0.763881	-0.052556	99
Es	0.658280	0.691397	0.049384	99
Es	1.650869	0.004837	0.006659	99
Es	4.967296	1.188530	0.599808	99
Es	5.769815	1.542115	-1.172175	99
Es	2.799685	0.452833	-0.056301	99
