37
Properties=species:S:1:pos:R:3:Z:I:1 energy=-212.40480011416943 field_type=dipole dipole="0.000000 0.000000 0.000000" charge=0
C	0.990350	0.003950	-0.005120	6
C	2.522860	-0.009830	0.010730	6
C	3.029600	-0.706030	1.278600	6
C	3.056660	-0.727950	-1.234530	6
N	3.002240	1.376860	0.015890	7
H	0.602970	0.506720	-0.898880	1
H	0.585690	0.523590	0.871260	1
H	0.589150	-1.015580	0.000570	1
H	2.671400	-0.200660	2.182970	1
H	4.124850	-0.721420	1.317050	1
H	2.682710	-1.744380	1.320740	1
H	2.714560	-0.240980	-2.154850	1
H	2.714350	-1.768220	-1.263600	1
H	4.152410	-0.739420	-1.250940	1
H	2.699280	1.851380	-0.834360	1
H	4.021800	1.391040	-0.000670	1
Es	3.002379	1.376714	0.015588	99
Es	2.522861	-0.009628	0.010839	99
Es	3.056390	-0.727612	-1.233915	99
Es	0.991103	0.003968	-0.005121	99
Es	3.029369	-0.705668	1.277978	99
Es	2.833171	0.806575	-0.030731	99
Es	2.782016	-0.364735	0.653276	99
Es	2.816383	-0.386670	-1.861117	99
Es	0.734972	0.351218	-0.624078	99
Es	3.783585	-0.711529	1.294296	99
Es	3.581154	1.349213	-0.041307	99
Es	2.853514	1.602479	-0.499983	99
Es	2.790533	-0.388524	-0.624037	99
Es	3.809547	-0.730910	-1.236830	99
Es	2.826118	-1.428904	-1.254311	99
Es	2.792016	-1.409206	1.293951	99
Es	2.776516	-0.360004	1.889390	99
Es	0.730465	-0.691546	-0.005320	99
Es	0.722803	0.353702	0.597406	99
Es	1.744442	-0.003514	0.000206	99
Es	2.864000	1.565559	0.339388	99
