31
Properties=species:S:1:pos:R:3:Z:I:1 energy=-210.07047842207803 field_type=dipole dipole="0.000000 0.000000 0.000000" charge=0
C	0.993260	-0.029940	0.010760	6
C	2.520000	0.000000	0.000000	6
C	3.059850	-0.762120	-1.208950	6
C	3.002020	1.361170	0.000000	6
N	3.386230	2.446160	0.000000	7
H	0.596440	0.489730	0.890760	1
H	0.623380	-1.060860	0.036040	1
H	0.574530	0.458010	-0.877500	1
H	2.875360	-0.505970	0.906020	1
H	2.732020	-0.306670	-2.150500	1
H	2.716850	-1.802100	-1.198580	1
H	4.155640	-0.770530	-1.209700	1
Es	3.387101	2.448797	-0.000107	99
Es	2.520192	0.000380	0.000098	99
Es	3.002002	1.361103	0.000009	99
Es	0.993978	-0.029838	0.010700	99
Es	3.059594	-0.761671	-1.208433	99
Es	3.117420	2.001030	-0.188676	99
Es	1.797001	0.002316	-0.003634	99
Es	2.776563	-0.344608	-0.581660	99
Es	2.783754	0.730951	0.008277	99
Es	2.759356	-0.319159	0.597214	99
Es	2.821596	-1.461404	-1.194300	99
Es	0.753571	-0.728986	0.025711	99
Es	3.484759	2.765435	-0.024643	99
Es	2.834026	-0.453375	-1.831041	99
Es	3.798710	-0.763424	-1.206889	99
Es	0.723783	0.294516	-0.585756	99
Es	0.730002	0.323359	0.604228	99
Es	3.313186	1.912097	0.196844	99
Es	3.216624	1.967101	0.000170	99
