31
Properties=species:S:1:pos:R:3:Z:I:1 energy=-210.06969608966835 field_type=dipole dipole="0.000000 0.000000 0.000000" charge=0
C	0.960290	-0.046560	-0.004030	6
C	2.480370	-0.011390	-0.002790	6
C	3.007940	1.421820	0.008120	6
C	4.475740	1.444300	0.009160	6
N	5.637400	1.464130	0.009990	7
H	0.605150	-1.081810	-0.011890	1
H	0.556950	0.457600	-0.888040	1
H	0.555810	0.444530	0.886790	1
H	2.853680	-0.542830	-0.886960	1
H	2.852550	-0.555810	0.873910	1
H	2.634030	1.949300	0.893340	1
H	2.635080	1.962330	-0.869660	1
Es	5.639526	1.464180	0.009992	99
Es	3.008491	1.421847	0.008121	99
Es	4.475098	1.444300	0.009160	99
Es	2.480400	-0.010960	-0.002787	99
Es	0.960840	-0.046476	-0.004029	99
Es	5.090302	1.470775	0.009721	99
Es	2.781023	0.743627	0.002970	99
Es	0.694172	0.293706	0.598182	99
Es	2.776309	1.760790	0.583472	99
Es	3.806414	1.448263	0.008793	99
Es	2.776995	1.769258	-0.562438	99
Es	0.721858	-0.753011	-0.009390	99
Es	0.694943	0.302542	-0.601507	99
Es	5.977303	1.470329	0.010235	99
Es	1.720702	-0.017640	-0.003326	99
Es	2.732935	-0.369367	0.583888	99
Es	2.733689	-0.360677	-0.594366	99
Es	5.124195	1.453301	0.009606	99
Es	5.122623	1.428077	0.009420	99
