34
Properties=species:S:1:pos:R:3:Z:I:1 energy=-211.18811058994186 field_type=dipole dipole="0.000000 0.000000 0.000000" charge=0
C	2.945230	-1.075100	-0.396160	6
N	2.315210	0.132690	0.120940	7
C	3.244890	1.263350	0.175680	6
C	3.398390	2.148360	-1.028080	6
C	2.678120	2.654790	0.187860	6
H	2.209050	-1.883430	-0.438050	1
H	3.770570	-1.399300	0.245740	1
H	3.324560	-0.918660	-1.410950	1
H	1.934000	-0.059080	1.047550	1
H	4.132150	1.105000	0.786150	1
H	2.807860	1.925500	-1.909160	1
H	4.382740	2.546870	-1.240580	1
H	3.173940	3.399040	0.798930	1
H	1.603180	2.776350	0.121760	1
Es	2.315228	0.132871	0.121208	99
Es	3.244450	1.263903	0.175292	99
Es	2.945047	-1.074735	-0.396011	99
Es	3.398197	2.148233	-1.027274	99
Es	2.678525	2.654435	0.187571	99
Es	2.151460	0.013943	0.677065	99
Es	3.422812	1.557427	-0.546497	99
Es	3.515990	-1.294941	0.047428	99
Es	3.012083	3.147939	0.600383	99
Es	3.852876	1.146463	0.586848	99
Es	2.740528	0.578134	0.177315	99
Es	4.063738	2.411854	-1.167827	99
Es	2.621969	-0.376650	-0.065413	99
Es	2.440363	-1.631516	-0.425412	99
Es	3.211575	-0.958062	-1.077852	99
Es	3.012699	1.993508	-1.607501	99
Es	1.963552	2.727623	0.152901	99
Es	3.008818	2.553694	-0.498131	99
Es	2.880543	1.965714	0.366576	99
Es	2.019936	0.257639	-0.114489	99
