31
Properties=species:S:1:pos:R:3:Z:I:1 energy=-209.98900187975676 field_type=dipole dipole="0.000000 0.000000 0.000000" charge=0
C	0.996500	-0.048860	-0.013320	6
N	2.450330	0.004980	0.006740	7
C	2.923660	1.385920	0.026200	6
C	4.392130	1.402460	-0.008380	6
C	5.592380	1.416140	-0.037320	6
H	0.670450	-1.093670	-0.020950	1
H	0.587640	0.437100	-0.905230	1
H	0.570000	0.422000	0.878310	1
H	2.819870	-0.454840	-0.824290	1
H	2.576740	1.891640	0.934570	1
H	2.535290	1.938630	-0.837230	1
H	6.658080	1.421490	-0.057320	1
Es	2.451098	0.004565	0.007316	99
Es	2.924471	1.385584	0.026168	99
Es	0.997000	-0.048832	-0.013308	99
Es	4.391265	1.402514	-0.008403	99
Es	5.593650	1.416058	-0.037223	99
Es	2.639969	0.610614	-0.032805	99
Es	3.716902	1.403449	0.016837	99
Es	5.322611	1.376784	-0.043672	99
Es	0.772675	-0.762495	-0.020892	99
Es	5.899741	1.407880	-0.066246	99
Es	2.635331	-0.223664	-0.502036	99
Es	2.683303	1.758928	-0.559670	99
Es	2.704297	1.719588	0.626894	99
Es	0.721549	0.292029	-0.625794	99
Es	1.827169	0.016717	-0.043498	99
Es	0.716346	0.286926	0.587913	99
Es	5.016916	1.408006	-0.020110	99
Es	4.994414	1.453695	-0.006648	99
Es	2.595439	-0.173843	0.322882	99
