30
Properties=species:S:1:pos:R:3:Z:I:1 energy=-226.0516279828837 field_type=dipole dipole="0.000000 0.000000 0.000000" charge=0
C	0.969190	-0.024680	-0.009900	6
N	2.424410	0.014390	0.013490	7
C	2.915780	1.400870	0.029760	6
C	4.393150	1.474720	0.005520	6
N	5.550840	1.545730	-0.037360	7
H	0.632510	-1.065990	-0.011780	1
H	0.568430	0.460190	-0.906000	1
H	0.545830	0.456470	0.877680	1
H	2.790420	-0.461420	-0.812180	1
H	2.554650	1.907380	0.932410	1
H	2.524130	1.946050	-0.837330	1
Es	2.425104	0.013853	0.014235	99
Es	5.553078	1.545928	-0.037467	99
Es	2.916556	1.400886	0.029743	99
Es	4.392383	1.474754	0.005536	99
Es	0.969697	-0.024660	-0.009882	99
Es	1.811706	0.037191	-0.038242	99
Es	4.989727	1.508729	-0.011301	99
Es	3.736373	1.455290	0.021420	99
Es	2.608375	-0.220316	-0.492458	99
Es	2.685422	1.727823	0.611999	99
Es	2.671684	1.761610	-0.542846	99
Es	2.631092	0.632962	-0.028833	99
Es	0.700052	0.315188	-0.624298	99
Es	0.692658	0.317862	0.587714	99
Es	5.891087	1.566303	-0.051300	99
Es	0.742018	-0.732082	-0.013783	99
Es	5.020517	1.507273	-0.023591	99
Es	5.043161	1.514999	-0.020660	99
Es	2.562857	-0.164212	0.332225	99
