27
Properties=species:S:1:pos:R:3:Z:I:1 energy=-224.84795128380654 field_type=dipole dipole="0.000000 0.000000 0.000000" charge=0
N	0.958890	-0.049820	-0.116520	7
C	2.119210	-0.014680	-0.083660	6
C	3.555060	-0.000290	-0.010630	6
C	4.340470	-0.770320	-1.043620	6
N	4.347690	0.685800	-1.041550	7
H	3.963510	0.044810	0.993150	1
H	3.812960	-1.237870	-1.867240	1
H	5.254390	-1.264610	-0.738860	1
H	5.213700	1.052430	-0.643350	1
Es	4.347903	0.685622	-1.041229	99
Es	0.956592	-0.049919	-0.116636	99
Es	3.554875	-0.000260	-0.010761	99
Es	4.339723	-0.769574	-1.043193	99
Es	2.120037	-0.014687	-0.083543	99
Es	3.971464	0.481479	-0.538349	99
Es	1.508073	0.041664	-0.272615	99
Es	2.793435	-0.001228	-0.043574	99
Es	4.951107	-1.095692	-0.824189	99
Es	3.819694	0.033639	0.650244	99
Es	4.838378	0.848157	-0.770929	99
Es	3.972548	-1.069352	-1.585794	99
Es	0.617583	-0.061037	-0.138611	99
Es	3.846273	-0.538614	-0.432592	99
Es	4.432385	0.051302	-1.091919	99
Es	1.470959	-0.041607	-0.104831	99
Es	1.510595	-0.110243	0.065524	99
Es	4.159186	0.878985	-1.313488	99
