30
Properties=species:S:1:pos:R:3:Z:I:1 energy=-229.8732684719881 field_type=dipole dipole="0.000000 0.000000 0.000000" charge=0
C	-1.211320	0.015930	-0.153330	6
C	-0.373420	-1.237490	0.086550	6
C	0.997610	-0.694080	-0.021250	6
C	0.921200	0.627840	-0.089480	6
O	-0.345620	1.169090	-0.061570	8
H	-1.658590	0.007200	-1.154140	1
H	-2.017240	0.113580	0.581080	1
H	-0.586130	-2.010010	-0.657450	1
H	-0.549650	-1.652050	1.084420	1
H	1.907570	-1.274070	-0.005930	1
H	1.721420	1.348620	-0.134180	1
Es	-0.345549	1.168646	-0.061714	99
Es	0.922103	0.629123	-0.089537	99
Es	-1.210500	0.015659	-0.153126	99
Es	-0.373017	-1.237027	0.086444	99
Es	0.997675	-0.694154	-0.021256	99
Es	0.159829	0.927213	-0.079130	99
Es	0.383076	-0.964508	0.028743	99
Es	-1.509944	0.006288	-0.841069	99
Es	0.964999	0.056370	-0.107169	99
Es	1.419365	1.032416	-0.125253	99
Es	1.568076	-1.107765	-0.012093	99
Es	-0.298925	1.112627	-0.080646	99
Es	-0.454871	1.467118	-0.023175	99
Es	-0.497222	-1.509675	0.751339	99
Es	-0.616782	0.744087	-0.088026	99
Es	-0.522850	-1.751040	-0.410392	99
Es	-0.793916	-0.635148	-0.027963	99
Es	-1.759388	0.081105	0.350969	99
Es	0.995991	-0.109413	-0.016982	99
