33
Properties=species:S:1:pos:R:3:Z:I:1 energy=-231.0607745706827 field_type=dipole dipole="0.000000 0.000000 0.000000" charge=0
C	-0.795590	-0.999820	-0.199130	6
C	-1.189030	0.384760	0.247350	6
C	0.004570	1.203670	-0.193450	6
O	1.150540	0.345290	-0.097400	8
C	0.694150	-1.004720	0.068400	6
H	-1.326370	-1.799340	0.324200	1
H	-0.982540	-1.109870	-1.274140	1
H	-1.277750	0.410790	1.339690	1
H	-2.130370	0.735870	-0.182610	1
H	-0.092410	1.514570	-1.239220	1
H	0.156500	2.093690	0.423310	1
H	1.240710	-1.664310	-0.611030	1
H	0.910960	-1.306240	1.098500	1
Es	1.150046	0.345137	-0.097379	99
Es	0.004373	1.202928	-0.193167	99
Es	0.693531	-1.004214	0.068172	99
Es	-0.795406	-0.999466	-0.198703	99
Es	-1.188734	0.384554	0.246905	99
Es	1.457104	0.438942	-0.111524	99
Es	-0.055162	-1.026196	-0.066311	99
Es	0.836305	-1.216207	0.779229	99
Es	-1.019371	-0.316117	0.026086	99
Es	-1.151644	-1.539161	0.156525	99
Es	1.065690	-1.457268	-0.399991	99
Es	0.106920	1.812638	0.231685	99
Es	-1.248150	0.401679	0.987444	99
Es	-0.070879	1.416405	-0.914187	99
Es	0.706729	0.627234	-0.123357	99
Es	-1.822865	0.622278	-0.045654	99
Es	-0.609889	0.812502	0.029430	99
Es	-0.921913	-1.072920	-0.927752	99
Es	0.944851	-0.135392	-0.043166	99
Es	1.112101	0.333701	-0.094673	99
