38
Properties=species:S:1:pos:R:3:Z:I:1 energy=-196.40400484910333 field_type=dipole dipole="0.000000 0.000000 0.000000" charge=0
C	0.988680	-0.011000	-0.005440	6
C	2.523680	-0.007510	0.010670	6
C	3.023750	-0.719060	1.275630	6
C	3.050110	-0.740850	-1.230920	6
C	3.032180	1.440900	0.003430	6
H	0.600630	0.492600	-0.898180	1
H	0.582010	0.505400	0.871570	1
H	0.594700	-1.033730	-0.002200	1
H	2.664930	-0.216460	2.181090	1
H	4.118940	-0.734370	1.314950	1
H	2.674650	-1.757390	1.310450	1
H	2.707750	-0.256090	-2.152340	1
H	2.704380	-1.780640	-1.253290	1
H	4.145890	-0.753730	-1.248650	1
H	2.691730	1.975930	-0.890470	1
H	4.127530	1.476390	0.015900	1
H	2.671060	1.992040	0.879240	1
Es	2.523680	-0.007510	0.010670	99
Es	3.023636	-0.718898	1.275342	99
Es	3.049990	-0.740683	-1.230638	99
Es	0.989029	-0.010999	-0.005436	99
Es	3.032064	1.440571	0.003432	99
Es	1.738646	-0.009293	0.002436	99
Es	0.726492	-0.715724	-0.003089	99
Es	2.780273	1.811901	0.606989	99
Es	3.783887	1.456583	0.012049	99
Es	2.780179	-1.430251	1.291951	99
Es	2.808666	-1.452904	-1.238825	99
Es	3.802003	-0.745298	-1.235603	99
Es	3.775396	-0.725281	1.295073	99
Es	0.730579	0.336028	-0.620524	99
Es	2.773446	-0.368429	1.891903	99
Es	0.717747	0.344880	0.598980	99
Es	2.811022	-0.402357	-1.858332	99
Es	2.794487	1.800811	-0.612487	99
Es	2.792905	-0.382559	-0.624311	99
Es	2.779430	-0.371415	0.657601	99
Es	2.783741	0.733241	0.006966	99
