33
Properties=species:S:1:pos:R:3:Z:I:1 energy=-231.03436541262602 field_type=dipole dipole="0.000000 0.000000 0.000000" charge=0
C	0.835490	-0.017060	-0.230180	6
C	2.288920	-0.127230	0.101900	6
C	2.665220	-0.058290	1.545840	6
C	3.233630	-0.771730	-0.887050	6
O	3.136250	0.654330	-0.753850	8
H	0.661870	-0.009890	-1.311650	1
H	0.415280	0.905660	0.182750	1
H	0.285640	-0.864160	0.192890	1
H	3.750910	-0.086820	1.687820	1
H	2.232500	-0.903990	2.090880	1
H	2.292590	0.867430	1.997110	1
H	2.828870	-1.217410	-1.787200	1
H	4.134480	-1.247000	-0.519820	1
Es	3.136173	0.653852	-0.753782	99
Es	2.289441	-0.126952	0.101369	99
Es	3.233399	-0.771095	-0.886797	99
Es	2.665121	-0.058330	1.545490	99
Es	0.835841	-0.017110	-0.230092	99
Es	3.193049	0.914418	-0.805745	99
Es	2.480173	-0.094173	0.817960	99
Es	0.723410	-0.016875	-0.960637	99
Es	3.848863	-1.085489	-0.627596	99
Es	3.398327	-0.082113	1.636520	99
Es	2.948786	-1.065173	-1.501203	99
Es	3.145777	0.071953	-0.777034	99
Es	0.477588	-0.591108	0.060595	99
Es	2.402643	0.566060	1.842450	99
Es	2.367529	-0.630926	1.900328	99
Es	0.560001	0.604896	0.059329	99
Es	1.567968	-0.073618	-0.067416	99
Es	2.905067	0.480393	-0.519451	99
Es	3.121534	0.605650	-0.740393	99
Es	2.704783	-0.672634	-0.339385	99
