33
Properties=species:S:1:pos:R:3:Z:I:1 energy=-231.03071587972204 field_type=dipole dipole="0.000000 0.000000 0.000000" charge=0
C	0.935170	-0.009590	0.043350	6
C	2.447920	0.021590	0.003810	6
C	3.144120	1.014350	0.941360	6
O	4.007300	-0.029160	1.458570	8
C	3.184140	-1.041170	0.829870	6
H	0.553550	-0.869100	-0.517290	1
H	0.520500	0.896770	-0.408730	1
H	0.556890	-0.079740	1.068150	1
H	2.824000	0.084740	-1.025270	1
H	2.529840	1.445200	1.738420	1
H	3.713340	1.804490	0.443940	1
H	3.780860	-1.750260	0.250110	1
H	2.587500	-1.578970	1.573280	1
Es	4.006816	-0.029159	1.458371	99
Es	3.144274	1.013678	0.941270	99
Es	3.184267	-1.040485	0.829853	99
Es	2.447973	0.021587	0.003888	99
Es	0.935728	-0.009581	0.043369	99
Es	4.252230	-0.034685	1.643807	99
Es	2.755345	-0.585086	0.371309	99
Es	3.531837	1.563449	0.605526	99
Es	0.676741	-0.596106	-0.335629	99
Es	2.775453	-1.400956	1.329748	99
Es	3.591151	-1.535365	0.436760	99
Es	1.707543	0.006036	0.027825	99
Es	3.700409	0.354089	1.276324	99
Es	0.686430	-0.056693	0.735883	99
Es	2.723674	1.301821	1.476902	99
Es	0.654381	0.608523	-0.261616	99
Es	2.690151	0.063746	-0.684040	99
Es	2.732701	0.595293	0.435779	99
Es	3.715150	-0.401322	1.235341	99
Es	3.974899	-0.027878	1.422310	99
