33
Properties=species:S:1:pos:R:3:Z:I:1 energy=-231.0346017341638 field_type=dipole dipole="0.000000 0.000000 0.000000" charge=0
C	1.016470	-0.029040	-0.076190	6
C	2.488020	0.140930	0.049010	6
O	3.244610	-0.485100	-0.997240	8
C	3.270840	0.947670	-0.954340	6
C	4.595810	1.527750	-0.610960	6
H	0.499810	0.663050	0.595440	1
H	0.729090	-1.048770	0.197860	1
H	0.665470	0.162070	-1.096320	1
H	2.848200	0.039800	1.063430	1
H	2.753510	1.489050	-1.734490	1
H	5.107550	0.953170	0.167990	1
H	4.474250	2.554530	-0.252300	1
H	5.238880	1.549550	-1.496180	1
Es	3.244427	-0.484674	-0.997042	99
Es	3.270771	0.946915	-0.954214	99
Es	2.488401	0.140742	0.048384	99
Es	1.017271	-0.028917	-0.076155	99
Es	4.595111	1.527424	-0.611107	99
Es	3.328198	-0.717882	-1.119066	99
Es	1.768217	0.069795	-0.031967	99
Es	4.932347	1.149761	-0.092760	99
Es	3.080147	-0.012340	-0.752045	99
Es	2.924877	1.300947	-1.493731	99
Es	3.917362	1.221343	-0.764156	99
Es	2.738608	0.056749	0.731034	99
Es	3.226545	-0.438930	-0.973789	99
Es	5.028810	1.547198	-1.208774	99
Es	4.509492	2.213812	-0.371248	99
Es	0.822333	-0.713413	0.113949	99
Es	0.784203	0.099273	-0.752014	99
Es	0.674255	0.438834	0.374610	99
Es	3.167396	-0.273220	-0.881450	99
Es	2.799726	0.765833	-0.334829	99
