33
Properties=species:S:1:pos:R:3:Z:I:1 energy=-231.04988731277905 field_type=dipole dipole="0.000000 0.000000 0.000000" charge=0
C	0.958210	0.011010	0.046010	6
C	2.459830	-0.042120	0.026860	6
C	3.127880	-1.203770	0.137980	6
C	3.165940	1.273230	-0.144800	6
O	2.913710	2.089690	0.988000	8
H	0.605430	0.609050	0.892270	1
H	0.513140	-0.985660	0.135600	1
H	0.582540	0.460160	-0.879120	1
H	2.606330	-2.149380	0.253160	1
H	4.212860	-1.241930	0.114940	1
H	2.805710	1.791960	-1.038860	1
H	4.249730	1.151450	-0.243470	1
H	3.101800	1.543050	1.769910	1
Es	2.914023	2.089491	0.988272	99
Es	3.165695	1.273297	-0.144375	99
Es	2.459890	-0.042234	0.026863	99
Es	3.126781	-1.201863	0.137838	99
Es	0.958534	0.011109	0.045961	99
Es	2.866715	2.400876	0.969409	99
Es	2.922845	-0.781781	0.109770	99
Es	1.710727	-0.015886	0.046369	99
Es	3.901625	1.173294	-0.208842	99
Es	3.750670	-1.108481	0.137031	99
Es	3.015940	1.779007	1.366801	99
Es	2.815380	0.586611	-0.070748	99
Es	2.919406	1.619148	-0.749455	99
Es	2.756604	-1.782726	0.202207	99
Es	0.722309	0.317135	-0.582031	99
Es	0.667917	-0.663978	0.103998	99
Es	0.730825	0.408554	0.615484	99
Es	2.992731	1.754734	0.611733	99
Es	2.891737	2.045202	0.985712	99
Es	2.823292	-0.646948	0.069896	99
