30
Properties=species:S:1:pos:R:3:Z:I:1 energy=-229.887158736104 field_type=dipole dipole="0.000000 0.000000 0.000000" charge=0
C	0.991940	0.036470	0.024540	6
C	2.484550	-0.043420	0.008110	6
C	3.184750	-1.176370	0.172400	6
C	3.229640	1.224220	-0.205470	6
O	2.667120	2.300380	-0.363540	8
H	0.652170	0.698910	0.827080	1
H	0.534810	-0.945130	0.187760	1
H	0.618030	0.422900	-0.928850	1
H	2.679380	-2.125160	0.331240	1
H	4.269430	-1.200240	0.155050	1
H	4.329740	1.141790	-0.213910	1
Es	2.667039	2.299677	-0.363428	99
Es	3.229788	1.223483	-0.205357	99
Es	2.484724	-0.043294	0.008087	99
Es	3.183657	-1.174729	0.172163	99
Es	0.992285	0.036537	0.024523	99
Es	2.668392	2.583661	-0.408057	99
Es	2.904172	-0.716577	0.105639	99
Es	1.762378	-0.014265	0.017555	99
Es	2.880302	0.620494	-0.103860	99
Es	3.955645	1.122354	-0.203589	99
Es	2.814170	-1.774252	0.273506	99
Es	2.908241	1.876921	-0.301733	99
Es	3.876191	-1.109823	0.148498	99
Es	0.774827	0.471566	0.559970	99
Es	0.695345	-0.627501	0.134689	99
Es	0.752077	0.287707	-0.609811	99
Es	2.835053	1.961237	-0.313535	99
Es	2.556990	2.170920	-0.341067	99
Es	2.862032	-0.528316	0.076938	99
