36
Properties=species:S:1:pos:R:3:Z:I:1 energy=-232.24694831366577 field_type=dipole dipole="0.000000 0.000000 0.000000" charge=0
C	0.985950	-0.001970	-0.006040	6
C	2.513590	-0.034770	0.006050	6
C	3.026460	-0.714670	1.273810	6
C	3.053660	-0.739210	-1.237850	6
O	2.997120	1.309240	0.013170	8
H	0.613070	0.521150	-0.893920	1
H	0.601340	0.547330	0.860760	1
H	0.560890	-1.010760	0.004890	1
H	2.681440	-0.183380	2.168210	1
H	4.121780	-0.699220	1.308920	1
H	2.692090	-1.755140	1.337840	1
H	2.719870	-0.232190	-2.150260	1
H	2.727650	-1.783260	-1.283480	1
H	4.149160	-0.715470	-1.254080	1
H	2.674350	1.748510	-0.792210	1
Es	2.996808	1.309206	0.012666	99
Es	2.513769	-0.034563	0.006226	99
Es	0.986684	-0.001966	-0.006052	99
Es	3.053395	-0.738850	-1.237268	99
Es	3.026207	-0.714294	1.273161	99
Es	3.175513	1.429500	0.240686	99
Es	2.784754	-0.403029	-0.629104	99
Es	0.730913	0.365927	0.587366	99
Es	3.772146	-0.706753	1.284177	99
Es	2.809899	1.494982	-0.412591	99
Es	3.796856	-0.725744	-1.240001	99
Es	2.810878	0.844287	-0.021140	99
Es	0.742465	0.356602	-0.622847	99
Es	2.814055	-0.383519	-1.857773	99
Es	2.827024	-1.444327	-1.263707	99
Es	2.789978	-1.421320	1.301497	99
Es	1.731017	-0.027309	-0.001333	99
Es	0.705156	-0.687808	-0.001229	99
Es	2.779425	-0.351258	1.876446	99
Es	2.772844	-0.381664	0.648781	99
Es	2.977880	1.294935	-0.010477	99
