35
Properties=species:S:1:pos:R:3:Z:I:1 energy=-247.82180776661116 field_type=dipole dipole="0.000000 0.000000 0.000000" charge=0
C	-1.358320	0.096230	-0.390120	6
C	-0.467970	-0.682360	0.652350	6
N	-0.549690	0.626220	1.452180	7
C	-0.298060	1.180290	0.042150	6
C	1.039270	0.622820	-0.272070	6
C	0.923630	-0.643770	0.143000	6
H	-1.323900	-0.247180	-1.428660	1
H	-2.400640	0.284320	-0.106340	1
H	-0.836080	-1.587780	1.133050	1
H	-1.476930	0.831270	1.819810	1
H	-0.486870	2.240350	-0.121370	1
H	1.888070	1.123690	-0.703940	1
H	1.654460	-1.433130	0.133980	1
Es	-0.550208	0.626184	1.451926	99
Es	-0.297784	1.179957	0.042186	99
Es	-0.467642	-0.682121	0.652199	99
Es	-1.357885	0.096252	-0.389931	99
Es	1.040229	0.623887	-0.272729	99
Es	0.924368	-0.645163	0.143146	99
Es	-0.543702	0.051890	1.139302	99
Es	0.982530	-0.040569	-0.156033	99
Es	-0.937223	-0.395979	0.089037	99
Es	0.471520	0.904845	-0.156169	99
Es	-1.339865	-0.133358	-1.085693	99
Es	1.526888	0.979890	-0.537032	99
Es	-0.729033	-1.297776	0.980091	99
Es	0.324527	-0.706344	0.371697	99
Es	-1.122223	0.729470	1.607881	99
Es	1.331195	-1.162118	0.164904	99
Es	-0.437038	1.903198	-0.068734	99
Es	-2.059877	0.228016	-0.183253	99
Es	-0.466632	0.896713	0.862521	99
Es	-0.837354	0.699033	-0.269738	99
Es	-0.253545	0.689529	1.727857	99
Es	1.007958	0.001672	-0.020045	99
