38
Properties=species:S:1:pos:R:3:Z:I:1 energy=-249.0309049611781 field_type=dipole dipole="0.000000 0.000000 0.000000" charge=0
C	-0.020550	0.849470	-0.062130	6
C	-0.732980	-0.465670	-0.123870	6
C	0.776580	-0.435440	-0.045260	6
C	1.552450	-0.884100	1.186530	6
C	1.162780	-2.080810	2.021850	6
N	2.290910	-2.148730	1.109400	7
H	0.014570	1.453390	-0.962040	1
H	-0.093650	1.422420	0.854890	1
H	-1.179790	-0.763800	-1.065610	1
H	-1.290590	-0.781000	0.749710	1
H	1.291010	-0.661030	-0.981790	1
H	2.082760	-0.087270	1.703360	1
H	0.288390	-2.651570	1.735520	1
H	1.386680	-2.067610	3.080500	1
H	3.177170	-2.073960	1.610290	1
Es	2.291027	-2.148449	1.109913	99
Es	1.552561	-0.884647	1.186605	99
Es	1.163229	-2.080554	2.021407	99
Es	0.776147	-0.435260	-0.045101	99
Es	-0.020486	0.848742	-0.062253	99
Es	-0.732331	-0.465285	-0.123825	99
Es	2.259990	-2.342289	0.774708	99
Es	-0.525520	0.276476	-0.093085	99
Es	1.163466	-1.380770	1.687474	99
Es	1.315688	-2.059388	2.748846	99
Es	-1.092934	-0.673825	0.456648	99
Es	1.146106	-0.658895	0.565013	99
Es	2.779752	-2.061908	1.436595	99
Es	1.123755	-0.585272	-0.672210	99
Es	-0.061984	1.223553	0.553185	99
Es	0.585576	-2.469463	1.826745	99
Es	0.003301	1.258824	-0.662336	99
Es	-1.031072	-0.678777	-0.759342	99
Es	1.831048	-2.168782	1.557106	99
Es	1.916450	-0.344526	1.534772	99
Es	0.542396	0.339320	-0.025938	99
Es	0.000919	-0.668928	-0.063497	99
Es	2.087282	-1.619766	1.094123	99
