38
Properties=species:S:1:pos:R:3:Z:I:1 energy=-249.0577346255494 field_type=dipole dipole="0.000000 0.000000 0.000000" charge=0
C	0.724710	1.339870	-0.562700	6
C	-0.457990	0.970300	0.284140	6
C	-1.479670	-0.003480	-0.208990	6
C	-0.825790	-1.349860	0.052880	6
C	0.671640	-1.065770	-0.022420	6
N	0.854140	0.313580	0.469960	7
H	0.755200	1.037300	-1.601300	1
H	1.223430	2.278250	-0.351870	1
H	-0.783510	1.619690	1.084810	1
H	-2.430920	0.089650	0.324260	1
H	-1.667980	0.143230	-1.278480	1
H	-1.083710	-1.691810	1.062840	1
H	-1.148050	-2.115930	-0.657610	1
H	1.226920	-1.767270	0.608880	1
H	1.045620	-1.182260	-1.047260	1
Es	0.853613	0.313264	0.469349	99
Es	0.724346	1.339418	-0.562056	99
Es	-0.458213	0.970260	0.284883	99
Es	0.671180	-1.065200	-0.022162	99
Es	-1.479120	-0.003433	-0.208552	99
Es	-0.825723	-1.349205	0.052321	99
Es	1.070961	0.373297	0.783256	99
Es	-1.181201	-0.676056	-0.088876	99
Es	-2.120041	0.063788	0.151955	99
Es	0.760401	1.125088	-1.255376	99
Es	-1.000832	-1.588124	0.742160	99
Es	-0.672975	1.414438	0.829019	99
Es	-0.006372	1.290527	-0.272475	99
Es	0.924792	-1.136591	-0.727434	99
Es	1.063045	1.966987	-0.410920	99
Es	1.043148	-1.536767	0.407850	99
Es	-1.605182	0.083810	-0.926293	99
Es	-0.957757	0.513048	0.023492	99
Es	-0.080076	-1.220817	0.001449	99
Es	-1.037901	-1.863466	-0.428858	99
Es	0.854478	0.726980	-0.049181	99
Es	0.292049	0.500945	0.462476	99
Es	0.750761	-0.235493	0.211810	99
