38
Properties=species:S:1:pos:R:3:Z:I:1 energy=-249.060889268293 field_type=dipole dipole="0.000000 0.000000 0.000000" charge=0
C	0.774480	1.359540	-0.094930	6
C	-0.722140	1.178390	0.188560	6
C	-0.993640	-0.245840	-0.196550	6
N	-0.745830	-1.344580	0.722830	7
C	0.312460	-0.983130	-0.205980	6
C	1.395810	-0.016860	0.172990	6
H	0.912470	1.617970	-1.152350	1
H	1.226240	2.152220	0.507870	1
H	-1.321310	1.881150	-0.398450	1
H	-0.939540	1.343180	1.250070	1
H	-1.688440	-0.393650	-1.010450	1
H	-0.549730	-1.009410	1.667120	1
H	0.535990	-1.649020	-1.026750	1
H	1.661170	-0.124630	1.230940	1
H	2.300480	-0.163040	-0.425140	1
Es	-0.745746	-1.344434	0.723012	99
Es	0.312119	-0.983251	-0.206398	99
Es	-0.993574	-0.246191	-0.196972	99
Es	1.395311	-0.016804	0.172548	99
Es	-0.721839	1.177995	0.188112	99
Es	0.774243	1.359115	-0.094481	99
Es	-0.934065	-1.677516	0.677731	99
Es	2.000028	-0.116891	-0.228565	99
Es	-0.885594	0.437299	0.013344	99
Es	-0.296983	-0.535099	-0.357490	99
Es	1.079829	1.895250	0.316912	99
Es	-0.930745	-0.813753	0.401386	99
Es	0.843859	-0.538780	0.000745	99
Es	0.869719	1.537760	-0.817020	99
Es	0.479068	-1.454769	-0.736863	99
Es	1.571248	-0.086145	0.894382	99
Es	1.107720	0.674943	0.048139	99
Es	-1.124415	1.646529	-0.205546	99
Es	0.017680	1.290089	0.056142	99
Es	-0.863965	1.288191	0.912286	99
Es	-1.489425	-0.343705	-0.722497	99
Es	-0.609257	-1.109203	1.230243	99
Es	-0.199492	-1.226543	0.396091	99
