32
Properties=species:S:1:pos:R:3:Z:I:1 energy=-246.77741693126566 field_type=dipole dipole="0.000000 0.000000 0.000000" charge=0
C	-1.397680	-0.076400	-0.017850	6
C	-0.759060	1.158980	0.004910	6
C	0.626510	1.180240	0.043590	6
N	1.394390	0.069430	0.060510	7
C	0.746150	-1.115780	0.037680	6
C	-0.633160	-1.237660	-0.001240	6
H	-2.482420	-0.132620	-0.048300	1
H	-1.325530	2.083150	-0.007150	1
H	1.171160	2.119570	0.062540	1
H	1.385730	-1.993240	0.051960	1
H	-1.101310	-2.216380	-0.018220	1
Es	1.395579	0.069492	0.060543	99
Es	0.626425	1.179916	0.043586	99
Es	0.746034	-1.115469	0.037678	99
Es	-1.398900	-0.076462	-0.017884	99
Es	-0.759310	1.159534	0.004905	99
Es	-0.633351	-1.238232	-0.001248	99
Es	1.042977	-0.446658	0.048644	99
Es	-1.067292	0.518582	-0.006254	99
Es	-0.069811	1.153336	0.024089	99
Es	0.051208	-1.160894	0.018146	99
Es	-1.006940	-0.632811	-0.009214	99
Es	-1.140791	1.782295	-0.003214	99
Es	0.991281	0.545938	0.051198	99
Es	0.982144	1.807873	0.056020	99
Es	1.165290	-1.702890	0.046990	99
Es	-2.119028	-0.114149	-0.038100	99
Es	-0.433368	-0.877010	0.005775	99
Es	-0.948370	-1.897798	-0.012679	99
Es	1.790311	0.090011	0.071624	99
Es	1.009312	0.051222	0.049708	99
Es	-0.526248	0.818247	0.010023	99
