34
Properties=species:S:1:pos:R:3:Z:I:1 energy=-263.87815263595087 field_type=dipole dipole="0.000000 0.000000 0.000000" charge=0
C	0.315320	-1.420270	0.097280	6
C	-1.102180	-0.953500	-0.091140	6
C	-1.243120	0.522870	0.062110	6
N	-0.275050	1.379390	0.068040	7
N	1.038680	0.945190	-0.081120	7
C	1.307750	-0.319040	-0.066170	6
H	0.556360	-2.215080	-0.616960	1
H	0.458390	-1.843390	1.097920	1
H	-1.766800	-1.442870	0.628700	1
H	-1.471080	-1.215150	-1.088780	1
H	-2.271760	0.913400	0.139570	1
H	2.366010	-0.618480	-0.143520	1
Es	-0.274726	1.379178	0.067994	99
Es	1.038294	0.945214	-0.081073	99
Es	-1.243225	0.522712	0.062090	99
Es	1.307742	-0.319228	-0.066148	99
Es	0.315415	-1.419533	0.097183	99
Es	-1.101817	-0.952849	-0.091048	99
Es	-0.693443	0.911124	0.086258	99
Es	0.350447	1.067265	-0.006164	99
Es	-1.208906	-0.069234	-0.002850	99
Es	-1.851537	0.665924	0.099625	99
Es	1.881882	-0.566401	-0.102993	99
Es	0.927117	-0.774299	0.002983	99
Es	0.404470	-1.688723	0.753199	99
Es	1.096574	0.319806	-0.094423	99
Es	0.473471	-1.945663	-0.378999	99
Es	-1.540567	-1.277720	0.388718	99
Es	-1.335025	-1.120657	-0.745052	99
Es	-0.393901	-1.187960	0.003047	99
Es	1.113172	0.429379	-0.048575	99
Es	1.299177	1.228837	-0.129830	99
Es	-0.315421	1.762637	0.113978	99
Es	-0.641577	1.008855	0.038928	99
