40
Properties=species:S:1:pos:R:3:Z:I:1 energy=-266.26382611868564 field_type=dipole dipole="0.000000 0.000000 0.000000" charge=0
C	0.723490	1.198730	-0.236540	6
C	-0.749390	1.206030	0.228910	6
N	-1.485230	0.001180	-0.181780	7
C	-0.750080	-1.208360	0.213520	6
C	0.722110	-1.196150	-0.251760	6
N	1.457840	-0.001950	0.203590	7
H	0.770140	1.271440	-1.330500	1
H	1.231450	2.084840	0.159520	1
H	-1.252600	2.085260	-0.187430	1
H	-0.786910	1.300140	1.321410	1
H	-2.407330	-0.000570	0.250450	1
H	-0.788130	-1.316170	1.304780	1
H	-1.254320	-2.081630	-0.213920	1
H	1.229590	-2.087480	0.133340	1
H	0.769110	-1.255180	-1.346370	1
H	1.466180	-0.008200	1.223210	1
Es	1.457851	-0.001951	0.203741	99
Es	-1.485339	0.001181	-0.181890	99
Es	0.723409	1.198206	-0.236280	99
Es	0.722030	-1.195629	-0.251493	99
Es	-0.749302	1.205526	0.228592	99
Es	-0.749992	-1.207851	0.213208	99
Es	1.822070	-0.001190	0.047408	99
Es	-1.509824	0.003704	-0.581468	99
Es	-0.025619	1.188911	-0.009504	99
Es	1.058137	-1.803394	0.022099	99
Es	1.404268	-0.005610	0.801622	99
Es	-1.092097	1.803983	-0.051433	99
Es	-1.996875	-0.000291	0.124423	99
Es	-0.764907	-1.280797	0.975978	99
Es	-1.093347	-1.802388	-0.074354	99
Es	1.059908	1.802258	0.044826	99
Es	-1.177975	0.478712	0.040342	99
Es	-0.026635	-1.188627	-0.024653	99
Es	-0.764013	1.268831	0.992186	99
Es	0.749201	-1.230363	-0.994825	99
Es	0.750408	1.242255	-0.979212	99
Es	1.109235	0.468640	0.047920	99
Es	-1.178356	-0.478924	0.034331	99
Es	1.108639	-0.470077	0.042001	99
