38
Properties=species:S:1:pos:R:3:Z:I:1 energy=-249.04909031696485 field_type=dipole dipole="0.000000 0.000000 0.000000" charge=0
C	0.931440	-0.008640	0.961760	6
C	0.290840	-1.021570	-0.028830	6
C	0.758080	-0.027150	-1.130120	6
C	0.289350	0.998630	-0.047370	6
N	-1.165760	0.745870	0.066180	7
C	-1.189420	-0.721880	0.094100	6
H	2.026990	-0.007930	1.001890	1
H	0.546830	-0.001280	1.986640	1
H	0.650940	-2.048160	-0.048980	1
H	0.209990	-0.038500	-2.077850	1
H	1.832190	-0.029270	-1.350040	1
H	0.632150	2.030880	-0.088300	1
H	-1.579960	1.110010	0.923880	1
H	-1.765630	-1.121640	-0.745920	1
H	-1.608080	-1.101160	1.032080	1
Es	-1.165694	0.745451	0.066597	99
Es	0.289616	0.999011	-0.047383	99
Es	-1.188478	-0.721441	0.094016	99
Es	0.291374	-1.023404	-0.028778	99
Es	0.757404	-0.027153	-1.129883	99
Es	0.930620	-0.008732	0.961922	99
Es	-1.169928	0.149747	0.119948	99
Es	0.521524	-0.604815	-0.660008	99
Es	0.632726	0.573606	0.542902	99
Es	0.674027	-0.006073	1.656923	99
Es	-1.578925	-0.995313	-0.472387	99
Es	0.395824	-0.038220	-1.765275	99
Es	0.523974	-1.725035	-0.041135	99
Es	-1.479758	-0.975649	0.730564	99
Es	-0.425860	-0.925872	0.030689	99
Es	-1.357683	0.928852	0.591496	99
Es	1.487112	-0.022465	-1.258937	99
Es	0.507803	1.708699	-0.068401	99
Es	1.672493	-0.006798	0.971352	99
Es	-0.538374	0.838440	0.075174	99
Es	0.620192	-0.591272	0.547834	99
Es	0.515944	0.563424	-0.670158	99
Es	-1.360599	0.884254	-0.255182	99
