42
Properties=species:S:1:pos:R:3:Z:I:1 energy=-234.24363011473378 field_type=dipole dipole="0.000000 0.000000 0.000000" charge=0
C	2.316290	-0.455600	-1.456300	6
C	2.473360	0.042520	-0.029160	6
C	3.253380	1.348160	-0.001710	6
C	2.529620	2.627160	-0.505480	6
C	3.256450	3.392780	0.617820	6
C	3.340350	2.054100	1.378450	6
H	1.772770	-1.405530	-1.470640	1
H	3.292450	-0.612520	-1.927510	1
H	1.761360	0.263910	-2.067450	1
H	3.002820	-0.715300	0.559030	1
H	1.483310	0.169910	0.422950	1
H	4.248920	1.229850	-0.455430	1
H	1.439750	2.608620	-0.389040	1
H	2.772990	2.939600	-1.524280	1
H	4.232730	3.793190	0.319940	1
H	2.680310	4.182640	1.106460	1
H	4.263210	1.885970	1.939810	1
H	2.484340	1.871660	2.038640	1
Es	3.252852	1.347381	-0.001546	99
Es	3.256119	3.392034	0.617839	99
Es	2.530207	2.627032	-0.505073	99
Es	3.340564	2.054210	1.377900	99
Es	2.473409	0.042632	-0.029402	99
Es	2.316379	-0.455373	-1.455650	99
Es	2.860356	1.932844	-0.350822	99
Es	2.395532	-0.199944	-0.742668	99
Es	2.876092	3.099878	0.014077	99
Es	3.323372	1.607190	0.746143	99
Es	2.832952	-0.469723	0.376494	99
Es	3.903220	1.269706	-0.301950	99
Es	2.688110	2.838125	-1.201170	99
Es	2.872261	0.701219	-0.022942	99
Es	2.979206	-0.555277	-1.773670	99
Es	1.944738	-1.110007	-1.469947	99
Es	2.757812	1.933611	1.813549	99
Es	3.911311	3.656247	0.413076	99
Es	1.942955	0.034009	-1.867857	99
Es	1.802459	0.142731	0.281134	99
Es	3.335760	2.766211	1.066643	99
Es	1.797404	2.610853	-0.418565	99
Es	3.965274	1.934791	1.767196	99
Es	2.862630	3.938245	0.951701	99
