41
Properties=species:S:1:pos:R:3:Z:I:1 energy=-250.2427914668892 field_type=dipole dipole="0.000000 0.000000 0.000000" charge=0
C	1.064760	0.103330	-0.115410	6
C	2.553890	0.073280	-0.050060	6
C	3.343270	-0.628660	-1.122460	6
C	3.450360	0.872800	-0.982820	6
C	2.858760	1.713030	-2.088930	6
N	4.691240	1.417080	-0.409170	7
H	0.678840	0.903060	0.522940	1
H	0.659860	-0.845140	0.250860	1
H	0.679980	0.257030	-1.126080	1
H	2.883180	-0.070640	0.974250	1
H	2.812830	-1.032590	-1.977510	1
H	4.188370	-1.236740	-0.819760	1
H	2.037690	1.210870	-2.609900	1
H	3.623020	1.941220	-2.839690	1
H	2.481230	2.658150	-1.686690	1
H	5.049040	0.820130	0.333710	1
H	4.513100	2.323330	0.022170	1
Es	4.691355	1.417211	-0.409061	99
Es	3.450344	0.872898	-0.983038	99
Es	2.553818	0.073182	-0.049954	99
Es	2.858956	1.712668	-2.088435	99
Es	3.343545	-0.628069	-1.121684	99
Es	1.065314	0.103416	-0.115539	99
Es	4.962271	1.457388	-0.700929	99
Es	2.875458	-0.462181	-0.533608	99
Es	2.602421	2.346155	-1.803945	99
Es	0.806944	0.652590	0.309123	99
Es	2.996132	-0.876823	-1.672801	99
Es	2.779282	-0.010715	0.601379	99
Es	4.157189	1.192958	-0.589678	99
Es	4.829545	1.077849	0.028760	99
Es	3.158598	1.274168	-1.503673	99
Es	0.785193	-0.543608	0.129441	99
Es	3.374277	1.861789	-2.597015	99
Es	0.819830	0.208091	-0.784509	99
Es	2.306480	1.368242	-2.420004	99
Es	3.879017	-1.017495	-0.928103	99
Es	1.862045	0.091392	-0.104782	99
Es	4.535151	1.895588	-0.129347	99
Es	3.545787	0.098687	-1.225029	99
Es	2.893972	0.664328	-0.398199	99
