41
Properties=species:S:1:pos:R:3:Z:I:1 energy=-250.27212029821385 field_type=dipole dipole="0.000000 0.000000 0.000000" charge=0
C	1.026180	-0.015950	-0.024270	6
C	2.542340	-0.007520	0.063580	6
C	3.084120	1.144870	0.892390	6
C	4.483470	0.669150	1.230310	6
C	4.348400	-0.843610	1.336550	6
N	3.040600	-1.187960	0.773570	7
H	0.674160	-0.868760	-0.614640	1
H	0.662960	0.899500	-0.502710	1
H	0.563970	-0.080730	0.967240	1
H	2.972240	0.024540	-0.945860	1
H	2.503300	1.286700	1.812300	1
H	3.092490	2.091200	0.343160	1
H	5.168820	0.924670	0.412850	1
H	4.863480	1.124310	2.149460	1
H	5.160530	-1.345180	0.800330	1
H	4.384790	-1.165130	2.382300	1
H	3.113740	-1.985090	0.143700	1
Es	3.040997	-1.187929	0.773102	99
Es	2.542075	-0.007618	0.063863	99
Es	4.347740	-0.842956	1.336120	99
Es	4.482735	0.668718	1.230590	99
Es	3.084440	1.144125	0.891856	99
Es	1.026979	-0.015973	-0.024181	99
Es	2.869506	-0.715469	0.446745	99
Es	3.089406	1.783109	0.517777	99
Es	0.719120	-0.051563	0.646649	99
Es	4.377680	-1.063333	2.056326	99
Es	4.946096	0.842688	0.675495	99
Es	2.842073	0.017991	-0.630436	99
Es	3.114874	-1.624555	0.372601	99
Es	2.687154	1.237105	1.514631	99
Es	4.908994	-1.185024	0.961214	99
Es	3.792718	0.926420	1.066339	99
Es	0.788042	0.608593	-0.352166	99
Es	0.790428	-0.604376	-0.432873	99
Es	1.784092	-0.011082	0.017249	99
Es	3.603810	-1.043560	0.943815	99
Es	4.428940	-0.093527	1.293502	99
Es	4.741900	0.979600	1.852142	99
Es	2.785273	0.588447	0.472379	99
Es	2.796945	-1.250565	1.078082	99
