41
Properties=species:S:1:pos:R:3:Z:I:1 energy=-250.23266414168648 field_type=dipole dipole="0.000000 0.000000 0.000000" charge=0
C	1.013280	0.012490	-0.063580	6
C	2.503840	0.028470	-0.031490	6
C	3.343460	-0.734600	-1.042410	6
C	2.737610	-1.544930	-2.136030	6
N	3.227100	0.719850	-1.095240	7
C	4.427580	1.409840	-0.633370	6
H	0.617400	0.774060	0.615560	1
H	0.640380	-0.961450	0.267520	1
H	0.609370	0.215350	-1.060480	1
H	2.879750	0.088470	0.984980	1
H	4.276640	-1.167200	-0.695330	1
H	1.869170	-1.060390	-2.594190	1
H	2.421860	-2.518890	-1.750210	1
H	3.475870	-1.717410	-2.925590	1
H	4.181400	2.450130	-0.397720	1
H	5.177830	1.419240	-1.430910	1
H	4.889630	0.965870	0.256770	1
Es	3.227508	0.719466	-1.094592	99
Es	2.503304	0.028351	-0.031893	99
Es	3.343085	-0.734699	-1.042739	99
Es	4.427278	1.409687	-0.633459	99
Es	2.737908	-1.544454	-2.135407	99
Es	1.014000	0.012467	-0.063602	99
Es	3.015722	0.866031	-1.383525	99
Es	4.940717	1.408762	-1.179120	99
Es	3.233859	-1.666442	-2.676060	99
Es	0.769801	-0.645507	0.158876	99
Es	2.832160	-0.547092	-0.469348	99
Es	2.776484	0.086088	0.655342	99
Es	3.750973	0.970433	-0.854911	99
Es	3.034229	-1.096247	-1.582737	99
Es	4.255930	2.116372	-0.467025	99
Es	2.524721	-2.197324	-1.866138	99
Es	0.747827	0.134678	-0.714929	99
Es	0.738058	0.527613	0.396884	99
Es	2.166832	-1.233993	-2.427779	99
Es	4.733807	1.090484	-0.018085	99
Es	1.790500	0.035425	-0.080116	99
Es	3.372867	0.089364	-1.135379	99
Es	3.990824	-1.007027	-0.803685	99
Es	2.906634	0.529288	-0.572684	99
