38
Properties=species:S:1:pos:R:3:Z:I:1 energy=-249.08633266359914 field_type=dipole dipole="0.000000 0.000000 0.000000" charge=0
C	0.999620	0.032310	0.028510	6
C	2.482150	-0.023250	-0.018290	6
C	3.261720	-1.103120	-0.088430	6
C	4.692880	-0.710580	-0.078700	6
N	4.701080	0.760410	-0.187350	7
C	3.313950	1.209780	0.043700	6
H	0.558630	-0.968540	-0.019990	1
H	0.612970	0.611900	-0.815470	1
H	0.664120	0.504480	0.956980	1
H	2.919950	-2.127710	-0.119270	1
H	5.172710	-1.022060	0.854670	1
H	5.233820	-1.158460	-0.918320	1
H	4.940840	0.994150	-1.149710	1
H	3.019830	1.934500	-0.722450	1
H	3.235280	1.683670	1.027710	1
Es	4.700747	0.760203	-0.187565	99
Es	3.314029	1.209167	0.043670	99
Es	4.692156	-0.710270	-0.078694	99
Es	2.481810	-0.023172	-0.018265	99
Es	0.999968	0.032364	0.028501	99
Es	3.261612	-1.106134	-0.088627	99
Es	4.103302	0.917698	-0.130055	99
Es	2.927973	-0.663356	-0.097228	99
Es	3.073634	-1.640225	-0.117743	99
Es	0.710139	-0.633206	-0.004541	99
Es	2.834419	0.582439	0.009644	99
Es	3.118288	1.699472	-0.473775	99
Es	4.798540	0.865550	-0.757831	99
Es	5.010467	-0.921048	0.547154	99
Es	0.783982	0.349862	0.655414	99
Es	0.746566	0.425174	-0.540410	99
Es	1.766894	-0.027875	0.001078	99
Es	3.253871	1.525807	0.709247	99
Es	4.670658	0.134523	-0.175293	99
Es	5.064203	-1.008544	-0.643661	99
Es	3.852427	-0.961298	-0.084229	99
Es	4.952367	0.930147	0.070467	99
Es	2.889184	-0.586729	-0.020352	99
