41
Properties=species:S:1:pos:R:3:Z:I:1 energy=-250.23435459852635 field_type=dipole dipole="0.000000 0.000000 0.000000" charge=0
C	0.899850	-0.018960	0.106840	6
C	2.417210	-0.005400	-0.035150	6
C	2.847650	0.020670	-1.502540	6
C	3.137100	1.029020	0.866180	6
N	4.122850	-0.010590	1.233570	7
C	3.157560	-1.056240	0.830030	6
H	0.592230	-0.038970	1.157980	1
H	0.469720	-0.899820	-0.381290	1
H	0.457760	0.872540	-0.350610	1
H	3.937820	0.034000	-1.609890	1
H	2.454340	0.909130	-2.006570	1
H	2.474300	-0.862730	-2.031520	1
H	2.554350	1.383930	1.725260	1
H	3.561220	1.900880	0.359230	1
H	4.957620	0.007980	0.646920	1
H	3.599570	-1.901220	0.293120	1
H	2.581950	-1.452470	1.675320	1
Es	4.122959	-0.010584	1.233296	99
Es	3.157809	-1.055846	0.829839	99
Es	3.137356	1.028637	0.865974	99
Es	2.416982	-0.005402	-0.035149	99
Es	2.847653	0.020661	-1.501892	99
Es	0.900327	-0.018958	0.106873	99
Es	3.462819	-1.633940	0.463858	99
Es	2.576467	0.630103	-1.831464	99
Es	0.606601	0.593793	-0.207190	99
Es	3.430293	1.625072	0.520551	99
Es	4.556471	0.000635	0.836133	99
Es	2.729025	-0.613475	0.350310	99
Es	3.754916	0.442308	1.051127	99
Es	2.637903	0.008281	-0.779409	99
Es	2.589867	-0.585541	-1.848201	99
Es	0.710987	-0.032578	0.828309	99
Es	2.734477	1.255582	1.455181	99
Es	3.597665	0.029328	-1.548437	99
Es	0.614485	-0.624246	-0.228185	99
Es	3.763734	-0.464105	1.035391	99
Es	1.646369	-0.012572	0.019921	99
Es	2.759677	-1.311247	1.410318	99
Es	2.717909	0.594985	0.370632	99
Es	4.209986	-0.016354	1.617407	99
