42
Properties=species:S:1:pos:R:3:Z:I:1 energy=-234.24644099901943 field_type=dipole dipole="0.000000 0.000000 0.000000" charge=0
C	1.132300	-0.226230	-0.513180	6
C	2.595710	0.056540	-0.809290	6
C	3.387990	0.314320	0.471120	6
C	4.827550	0.608000	0.168860	6
C	5.892410	0.283720	1.184030	6
C	5.799230	-0.514330	-0.087300	6
H	0.585890	-0.414680	-1.443370	1
H	0.661700	0.625030	-0.009570	1
H	1.024060	-1.107540	0.128100	1
H	2.669760	0.923340	-1.476290	1
H	3.025570	-0.795270	-1.349070	1
H	3.302950	-0.552570	1.137880	1
H	2.961340	1.171250	1.005720	1
H	4.947280	1.522290	-0.403390	1
H	5.602200	-0.201980	2.108710	1
H	6.720760	0.975490	1.289360	1
H	6.562410	-0.360270	-0.841650	1
H	5.443400	-1.536020	-0.020130	1
Es	4.827754	0.607932	0.168989	99
Es	5.799008	-0.513620	-0.086736	99
Es	5.892283	0.283517	1.183451	99
Es	3.388156	0.314212	0.470837	99
Es	2.595614	0.056530	-0.808894	99
Es	1.132799	-0.226143	-0.513243	99
Es	5.302589	0.584903	0.830858	99
Es	2.888407	-0.516942	-1.172736	99
Es	0.817172	0.351425	-0.167207	99
Es	5.554312	-1.190589	-0.042614	99
Es	5.686675	-0.033373	1.800427	99
Es	3.333841	-0.273142	0.917239	99
Es	4.914268	1.215166	-0.215619	99
Es	6.445123	0.751540	1.254495	99
Es	2.653215	0.647355	-1.257292	99
Es	0.755407	-0.355928	-1.152436	99
Es	3.105738	0.893058	0.836990	99
Es	1.063013	-0.822837	-0.073797	99
Es	6.306647	-0.411337	-0.598147	99
Es	3.005354	0.186254	-0.164420	99
Es	1.853680	-0.086179	-0.660911	99
Es	4.149711	0.450962	0.320838	99
Es	5.969553	-0.208065	0.600427	99
Es	5.222249	-0.023813	-0.155924	99
