41
Properties=species:S:1:pos:R:3:Z:I:1 energy=-250.24295207748656 field_type=dipole dipole="0.000000 0.000000 0.000000" charge=0
C	0.834470	0.294130	-0.335320	6
C	2.267310	0.085430	0.086740	6
C	2.517320	0.172530	1.575780	6
N	2.118760	-1.075740	2.208850	7
C	3.115770	-0.867960	-0.732450	6
C	3.344670	0.610850	-0.843530	6
H	0.722070	0.270390	-1.424570	1
H	0.470860	1.264640	0.016340	1
H	0.189000	-0.487670	0.079890	1
H	1.959780	1.010980	2.008190	1
H	3.579260	0.347760	1.784820	1
H	1.120920	-1.219890	2.074060	1
H	2.262880	-1.000250	3.213450	1
H	2.656490	-1.380670	-1.570170	1
H	3.859210	-1.464560	-0.214040	1
H	4.258210	1.011110	-0.417960	1
H	3.046910	1.100280	-1.764710	1
Es	2.118768	-1.075764	2.208759	99
Es	2.517252	0.172116	1.575159	99
Es	2.267833	0.085609	0.086909	99
Es	3.344634	0.610048	-0.843560	99
Es	0.834827	0.294036	-0.335268	99
Es	3.115896	-0.867009	-0.732375	99
Es	2.170519	-0.980532	2.789037	99
Es	3.328868	-0.149213	-0.871640	99
Es	0.774578	0.271670	-1.081139	99
Es	3.247594	0.290940	1.709046	99
Es	2.800450	-1.206560	-1.277511	99
Es	2.813297	0.555348	-0.363589	99
Es	1.536031	-1.106703	2.147890	99
Es	3.594603	-1.255652	-0.385412	99
Es	2.242857	-0.546067	1.970801	99
Es	1.549123	0.190208	-0.124205	99
Es	0.597976	0.952824	-0.088057	99
Es	2.132440	0.750015	1.852368	99
Es	0.409705	-0.242173	-0.038803	99
Es	3.137596	0.939166	-1.440231	99
Es	2.394582	0.129117	0.798655	99
Es	3.928318	0.888209	-0.538340	99
Es	2.607635	-0.576006	-0.256248	99
Es	2.328622	-1.378340	2.054852	99
