41
Properties=species:S:1:pos:R:3:Z:I:1 energy=-250.22573188515918 field_type=dipole dipole="0.000000 0.000000 0.000000" charge=0
C	0.943940	-0.021310	0.059190	6
C	2.456940	-0.001050	-0.012120	6
C	3.185710	1.029990	0.876460	6
N	4.145380	-0.016790	1.290620	7
C	5.345150	0.022820	0.453780	6
C	3.213140	-1.062910	0.816290	6
H	0.545910	-0.889110	-0.476160	1
H	0.525960	0.879030	-0.402060	1
H	0.587050	-0.068540	1.093130	1
H	2.795700	0.034060	-1.057270	1
H	2.586900	1.406210	1.715260	1
H	3.601710	1.895670	0.349400	1
H	5.973940	-0.848820	0.666260	1
H	5.937100	0.912970	0.693900	1
H	5.139000	0.035310	-0.623050	1
H	3.651370	-1.885650	0.240670	1
H	2.625020	-1.502260	1.631650	1
Es	4.144889	-0.016776	1.289913	99
Es	3.213362	-1.062508	0.816110	99
Es	3.185946	1.029600	0.876258	99
Es	5.344824	0.022809	0.453998	99
Es	2.456394	-0.001061	-0.011880	99
Es	0.944481	-0.021306	0.059235	99
Es	3.797508	-0.473282	1.067147	99
Es	1.711092	-0.011351	0.025500	99
Es	0.710044	-0.052966	0.759009	99
Es	3.525405	-1.629417	0.431957	99
Es	2.772199	-0.612822	0.359220	99
Es	2.784395	1.269718	1.440101	99
Es	3.482598	1.625661	0.525402	99
Es	0.674109	-0.616637	-0.303905	99
Es	5.742317	0.638522	0.612463	99
Es	4.619946	0.001173	0.885807	99
Es	0.661205	0.595902	-0.253001	99
Es	5.185678	0.031434	-0.285661	99
Es	2.818589	-1.345066	1.364890	99
Es	2.676829	0.022218	-0.710976	99
Es	3.785455	0.442037	1.093563	99
Es	5.767697	-0.580551	0.592480	99
Es	2.756958	0.595755	0.394309	99
Es	4.217187	-0.026393	1.676216	99
