34
Properties=species:S:1:pos:R:3:Z:I:1 energy=-263.91782571127123 field_type=dipole dipole="0.000000 0.000000 0.000000" charge=0
C	1.088240	0.051080	0.157930	6
C	2.410980	0.031720	-0.018600	6
C	3.291520	-1.205620	-0.082010	6
N	4.677420	-0.687760	-0.386700	7
C	4.509810	0.603020	-0.429390	6
N	3.262140	1.072870	-0.207360	7
H	0.533100	0.982070	0.179900	1
H	0.529300	-0.870620	0.283970	1
H	2.978300	-1.881860	-0.883390	1
H	3.312710	-1.731640	0.877660	1
H	5.298420	1.342090	-0.635450	1
H	2.958690	2.029380	-0.295210	1
Es	3.262161	1.072764	-0.207275	99
Es	4.676897	-0.688081	-0.386574	99
Es	4.510464	0.604233	-0.429635	99
Es	2.411358	0.031815	-0.018655	99
Es	3.291672	-1.205191	-0.082054	99
Es	1.088535	0.051132	0.157932	99
Es	3.849481	0.866857	-0.330367	99
Es	4.566219	-0.062919	-0.397870	99
Es	2.811789	-0.588975	-0.046415	99
Es	3.074010	-1.646707	-0.612799	99
Es	2.873344	0.651089	-0.137577	99
Es	3.075038	1.633614	-0.275914	99
Es	4.996229	1.079997	-0.559715	99
Es	3.295120	-1.545515	0.558063	99
Es	0.747911	0.678212	0.167403	99
Es	1.706234	0.065002	0.050293	99
Es	4.088404	-0.857275	-0.260778	99
Es	3.309583	0.997906	-0.130019	99
Es	0.758646	-0.568288	0.244121	99
Es	4.977352	-0.919588	-0.428611	99
Es	4.609579	-0.246950	-0.404438	99
Es	1.627329	0.038268	0.106971	99
