42
Properties=species:S:1:pos:R:3:Z:I:1 energy=-234.24725844256852 field_type=dipole dipole="0.000000 0.000000 0.000000" charge=0
C	1.170150	0.203400	0.149930	6
C	2.660780	-0.030600	-0.090650	6
C	2.876160	-0.786330	-1.401020	6
C	3.400180	1.282910	-0.115340	6
C	3.841990	1.929160	1.173090	6
C	4.863590	1.336640	0.243390	6
H	1.005990	0.724060	1.100130	1
H	0.625850	-0.746340	0.187210	1
H	0.729250	0.818390	-0.643300	1
H	3.042500	-0.654010	0.727210	1
H	2.506160	-0.212370	-2.258480	1
H	2.356980	-1.750570	-1.386560	1
H	3.941720	-0.979130	-1.568630	1
H	3.057630	1.938730	-0.909990	1
H	3.648300	1.415070	2.107620	1
H	3.784550	3.009680	1.243250	1
H	5.497230	2.016030	-0.315440	1
H	5.358960	0.422450	0.550920	1
Es	3.400349	1.283110	-0.115283	99
Es	2.660714	-0.030558	-0.090749	99
Es	4.862966	1.336913	0.243688	99
Es	3.842340	1.928869	1.172501	99
Es	1.170807	0.203313	0.149809	99
Es	2.876061	-0.785978	-1.400453	99
Es	4.466453	1.665391	0.812426	99
Es	0.880471	0.621274	-0.393526	99
Es	3.598402	-0.912416	-1.515966	99
Es	3.177018	1.716106	-0.636804	99
Es	3.794859	2.657205	1.218619	99
Es	2.921517	-0.438354	0.456436	99
Es	5.288430	1.790748	-0.140654	99
Es	3.704360	1.582276	1.788860	99
Es	1.060255	0.560125	0.791415	99
Es	2.780787	-0.404661	-0.744204	99
Es	0.799901	-0.453889	0.176134	99
Es	2.517686	-1.450392	-1.385520	99
Es	5.184893	0.723338	0.441563	99
Es	1.919730	0.094852	0.038548	99
Es	2.621734	-0.388862	-1.976412	99
Es	3.054387	0.660249	-0.098532	99
Es	4.211941	1.195207	-0.109322	99
Es	3.419930	1.654511	0.611280	99
