37
Properties=species:S:1:pos:R:3:Z:I:1 energy=-265.10363564963205 field_type=dipole dipole="0.000000 0.000000 0.000000" charge=0
C	1.049000	0.064950	0.023480	6
C	2.569810	-0.017070	-0.018780	6
C	3.072500	-1.219290	-0.847000	6
N	3.427710	-0.683520	-2.197290	7
C	3.434370	0.600300	-2.016140	6
N	3.115820	1.086370	-0.787420	7
H	0.727010	0.971790	0.544700	1
H	0.631170	-0.798470	0.550250	1
H	0.616450	0.092050	-0.982310	1
H	2.976940	-0.035810	0.997220	1
H	2.321370	-2.010810	-0.936010	1
H	3.976600	-1.647440	-0.398760	1
H	3.648110	1.345530	-2.798570	1
H	2.655460	1.986500	-0.735310	1
Es	3.116830	1.086567	-0.786856	99
Es	3.427743	-0.684013	-2.197205	99
Es	3.434349	0.600517	-2.016235	99
Es	2.569812	-0.016813	-0.019135	99
Es	3.072338	-1.218256	-0.846894	99
Es	1.049830	0.064921	0.023458	99
Es	3.445201	1.124632	-0.680251	99
Es	3.268252	-0.867254	-1.624834	99
Es	1.806108	0.018856	-0.004273	99
Es	2.799522	-0.617550	-0.412166	99
Es	2.832086	0.655818	-0.503414	99
Es	2.810739	1.558758	-0.803730	99
Es	3.557521	1.071378	-2.510492	99
Es	3.687127	-1.503614	-0.539349	99
Es	0.770876	-0.519235	0.380684	99
Es	0.834481	0.691030	0.378249	99
Es	3.432087	-0.052715	-2.073063	99
Es	2.563451	-1.745716	-0.904333	99
Es	2.846720	-0.025166	0.674996	99
Es	0.766610	0.081877	-0.654409	99
Es	3.199210	0.874439	-1.368525	99
Es	3.514793	-0.913383	-2.494484	99
Es	3.407244	-0.246126	-2.130504	99
