34
Properties=species:S:1:pos:R:3:Z:I:1 energy=-263.88076855182817 field_type=dipole dipole="0.000000 0.000000 0.000000" charge=0
C	1.022310	0.024990	-0.172570	6
C	2.337080	-0.057380	0.037090	6
C	3.246150	-1.230600	0.149840	6
N	4.484810	-0.598760	0.626510	7
N	4.463870	0.764530	0.517750	7
C	3.238360	1.087010	0.239080	6
H	0.421650	-0.870000	-0.300610	1
H	0.512500	0.982090	-0.214520	1
H	3.406230	-1.690760	-0.829930	1
H	2.888870	-1.974350	0.866390	1
H	5.322020	-1.005440	0.210010	1
H	2.868010	2.115980	0.126420	1
Es	4.464042	0.763970	0.517816	99
Es	4.484962	-0.598501	0.626507	99
Es	3.246365	-1.230029	0.150014	99
Es	3.238271	1.086844	0.239092	99
Es	2.337101	-0.057372	0.037096	99
Es	1.023587	0.024954	-0.172365	99
Es	3.987171	-0.822521	0.361899	99
Es	3.894435	0.870614	0.414716	99
Es	0.657598	-0.595127	-0.257272	99
Es	3.345620	-1.532565	-0.508253	99
Es	2.964861	1.720742	0.160937	99
Es	2.821695	0.569849	0.146138	99
Es	0.765518	0.675128	-0.187654	99
Es	2.999850	-1.721732	0.624031	99
Es	4.438079	0.062736	0.511232	99
Es	1.581466	-0.003933	-0.071576	99
Es	4.929748	-0.793329	0.328263	99
Es	2.732489	-0.669489	0.081998	99
Es	3.862014	0.895764	0.347466	99
Es	4.777322	0.970457	0.569115	99
Es	1.684090	0.012649	-0.072940	99
Es	4.473034	-0.646591	0.994288	99
