45
Properties=species:S:1:pos:R:3:Z:I:1 energy=-235.45065420244427 field_type=dipole dipole="0.000000 0.000000 0.000000" charge=0
C	0.596790	0.306280	0.574050	6
C	1.925360	-0.364160	0.263760	6
C	3.020440	0.665100	-0.016470	6
C	4.359680	-0.012880	-0.310190	6
C	5.452320	1.016250	-0.597730	6
C	6.787830	0.346600	-0.880300	6
H	-0.172600	-0.447980	0.766120	1
H	0.263970	0.925450	-0.264990	1
H	0.676860	0.943080	1.460880	1
H	1.802580	-1.022130	-0.604500	1
H	2.215670	-0.996130	1.111290	1
H	3.128220	1.331630	0.847920	1
H	2.728120	1.288260	-0.870420	1
H	4.251320	-0.684130	-1.170870	1
H	4.653480	-0.631340	0.546750	1
H	5.563220	1.691570	0.258490	1
H	5.168170	1.629810	-1.460480	1
H	7.117720	-0.248030	-0.022370	1
H	7.554150	1.100720	-1.085550	1
H	6.719430	-0.313960	-1.750640	1
Es	1.925404	-0.363855	0.263743	99
Es	5.452277	1.015945	-0.597710	99
Es	3.020426	0.664826	-0.016458	99
Es	4.359694	-0.012606	-0.310196	99
Es	6.787273	0.346825	-0.880180	99
Es	0.597346	0.306055	0.573920	99
Es	4.912279	0.492824	-0.454968	99
Es	1.260875	-0.024999	0.418771	99
Es	7.316557	0.864227	-1.021777	99
Es	2.466757	0.159348	0.125368	99
Es	2.126060	-0.792857	0.837258	99
Es	4.556679	-0.430067	0.264448	99
Es	4.287254	-0.465171	-0.886761	99
Es	0.653644	0.740335	1.171483	99
Es	6.120361	0.677447	-0.738989	99
Es	6.738972	-0.103332	-1.466484	99
Es	7.007512	-0.058964	-0.300818	99
Es	2.824482	1.085388	-0.588755	99
Es	0.065942	-0.211410	0.706527	99
Es	1.846227	-0.811530	-0.326165	99
Es	5.523418	1.474562	-0.016432	99
Es	5.255416	1.433274	-1.181887	99
Es	0.375047	0.728238	0.007547	99
Es	3.092715	1.114347	0.562866	99
Es	3.689879	0.326097	-0.163990	99
