40
Properties=species:S:1:pos:R:3:Z:I:1 energy=-266.24032819041923 field_type=dipole dipole="0.000000 0.000000 0.000000" charge=0
C	1.093020	-0.125230	-0.018900	6
C	2.575400	0.005710	-0.069790	6
N	3.307570	-0.446260	-1.249400	7
C	3.228730	1.000920	-0.996240	6
C	4.466470	1.736100	-0.584620	6
N	5.318550	1.876320	-1.760580	7
H	0.679870	0.576270	0.713440	1
H	0.812470	-1.138730	0.286810	1
H	0.622360	0.080970	-0.986840	1
H	3.041610	-0.206400	0.884800	1
H	2.677580	-0.698800	-2.012670	1
H	2.611920	1.575860	-1.677490	1
H	5.009910	1.200150	0.202100	1
H	4.201920	2.725730	-0.198200	1
H	5.480700	0.935810	-2.127200	1
H	6.230440	2.221220	-1.467980	1
Es	3.307239	-0.446185	-1.249549	99
Es	5.318284	1.876503	-1.760731	99
Es	2.575373	0.005634	-0.070119	99
Es	3.229172	1.000421	-0.995533	99
Es	4.466158	1.735605	-0.585374	99
Es	1.093685	-0.125146	-0.019002	99
Es	2.827922	0.679239	-0.390939	99
Es	5.850175	2.035668	-1.549614	99
Es	1.847510	-0.049461	-0.064110	99
Es	3.836817	1.342476	-0.790637	99
Es	2.913656	-0.546605	-1.673875	99
Es	2.814373	1.373711	-1.468495	99
Es	0.820424	0.345921	0.465816	99
Es	2.904297	-0.146831	0.572147	99
Es	5.424261	1.331873	-1.922117	99
Es	5.010621	1.789703	-1.268081	99
Es	0.901277	-0.815381	0.188720	99
Es	4.276024	2.400210	-0.320345	99
Es	0.783231	0.014813	-0.673953	99
Es	4.825163	1.362969	-0.044674	99
Es	3.648152	-0.633492	-1.202064	99
Es	3.329643	0.178674	-1.241965	99
Es	5.134997	2.113048	-2.029175	99
Es	2.928595	-0.334447	-0.754793	99
