40
Properties=species:S:1:pos:R:3:Z:I:1 energy=-266.2242812130361 field_type=dipole dipole="0.000000 0.000000 0.000000" charge=0
C	0.984040	0.037430	0.069310	6
C	2.496390	-0.070410	0.017640	6
N	3.173820	0.972670	0.840020	7
C	4.184530	-0.043570	1.238190	6
C	3.148630	-1.144650	0.927290	6
N	3.754110	-2.208770	0.123420	7
H	0.524530	-0.815550	-0.439910	1
H	0.641030	0.948430	-0.432380	1
H	0.607430	0.054010	1.098740	1
H	2.854370	-0.063230	-1.021970	1
H	2.614890	1.299790	1.628910	1
H	5.079190	-0.019790	0.603540	1
H	4.502310	0.020510	2.283610	1
H	2.555420	-1.476530	1.785830	1
H	4.332190	-1.872870	-0.647010	1
H	3.072080	-2.838700	-0.295650	1
Es	3.754314	-2.209021	0.123582	99
Es	3.173592	0.972485	0.840263	99
Es	3.148435	-1.145007	0.927288	99
Es	2.496278	-0.070037	0.017988	99
Es	4.183874	-0.043419	1.238012	99
Es	0.984673	0.037365	0.069336	99
Es	3.585361	0.575045	1.051106	99
Es	3.473826	-1.773454	0.391600	99
Es	1.737857	-0.017029	0.038188	99
Es	3.724342	-0.659253	1.125391	99
Es	2.759378	-0.075470	-0.682683	99
Es	2.842476	1.091248	1.309327	99
Es	0.752688	0.659832	-0.272023	99
Es	3.333520	-2.513289	-0.143289	99
Es	4.026940	-1.978830	-0.323935	99
Es	0.677025	-0.545615	-0.272314	99
Es	4.399668	0.003779	1.952662	99
Es	2.748661	-1.372254	1.491524	99
Es	0.739831	0.047875	0.770849	99
Es	4.782830	-0.033666	0.796766	99
Es	3.321846	1.272784	0.626705	99
Es	2.737780	-0.670035	0.446599	99
Es	3.988768	-2.423845	0.370662	99
Es	2.846555	0.562662	0.529138	99
