14
Properties=species:S:1:pos:R:3:Z:I:1 energy=-78.06427871623754 field_type=dipole dipole="0.000000 0.000000 0.000000" charge=0
C	0.989160	0.000100	0.000000	6
C	2.324920	-0.000170	-0.000000	6
H	0.429410	0.930140	0.000000	1
H	0.429070	-0.929850	0.000000	1
H	2.885000	0.929800	-0.000000	1
H	2.884670	-0.930200	0.000000	1
Es	0.988083	0.023443	0.006619	99
Es	2.744363	0.583853	0.005522	99
Es	2.311730	0.003245	-0.001166	99
Es	0.581862	0.559847	-0.004262	99
Es	2.676802	-0.594042	-0.001548	99
Es	1.671303	0.000366	-0.038773	99
Es	1.641303	-0.000218	0.030472	99
Es	0.640869	-0.576759	0.003137	99
