11
Properties=species:S:1:pos:R:3:Z:I:1 energy=-76.85022881978499 field_type=dipole dipole="0.000000 0.000000 0.000000" charge=0
C	0.994950	0.000000	0.000000	6
C	2.195210	0.000000	0.000000	6
H	-0.070710	0.000000	0.000000	1
H	3.260870	0.000000	0.000000	1
Es	1.595079	0.000082	0.000462	99
Es	1.595078	-0.000291	-0.000511	99
Es	2.195480	0.000005	0.000011	99
Es	2.892135	0.000001	0.000166	99
Es	0.298025	0.000022	-0.000055	99
Es	1.595080	0.000171	-0.000097	99
Es	0.994684	0.000010	0.000025	99
