22
Properties=species:S:1:pos:R:3:Z:I:1 energy=-154.12775982568516 field_type=dipole dipole="0.000000 0.000000 0.000000" charge=0
C	0.982700	-0.001790	0.004550	6
O	2.403300	0.023630	0.000000	8
C	2.901470	1.354260	-0.004550	6
H	0.656500	-1.045550	0.003120	1
H	0.587590	0.488860	-0.890200	1
H	0.593620	0.484720	0.904440	1
H	3.994240	1.313340	-0.003120	1
H	2.570850	1.890490	0.890200	1
H	2.572750	1.883420	-0.904440	1
Es	2.411366	0.242651	-0.033393	99
Es	0.850443	-0.019836	-0.058323	99
Es	2.476654	0.296032	0.021169	99
Es	2.761515	1.603282	-0.040178	99
Es	0.755277	-0.498695	-0.132355	99
Es	3.233534	1.339550	-0.011491	99
Es	2.146239	-0.020339	0.013222	99
Es	2.399139	0.191547	0.059020	99
Es	2.695203	1.479603	0.028263	99
Es	3.149414	1.381254	-0.060356	99
Es	0.894981	0.093843	0.201484	99
Es	0.931696	0.384489	-0.016591	99
Es	2.138381	0.058335	0.029530	99
