18
Properties=species:S:1:pos:R:3:Z:I:1 energy=-115.90932296110606 field_type=dipole dipole="0.000000 0.000000 0.000000" charge=0
C	1.000000	0.000000	0.000000	6
C	2.444000	0.000000	0.000000	6
C	3.634160	0.000000	0.000000	6
H	0.598380	1.018180	0.035300	1
H	0.619550	-0.508000	0.893100	1
H	0.563040	-0.497070	-0.870590	1
H	4.700540	-0.000000	-0.000000	1
Es	3.796605	0.012438	0.009664	99
Es	4.166518	-0.010696	0.002576	99
Es	1.763374	0.008596	-0.005298	99
Es	2.892522	-0.135996	-0.141292	99
Es	2.848477	0.025669	-0.021388	99
Es	0.755570	-0.028995	0.055337	99
Es	2.789048	0.134591	0.142445	99
Es	0.819403	0.149136	-0.165693	99
Es	3.060343	-0.019814	0.017663	99
Es	0.840793	-0.013548	0.077961	99
Es	0.821606	-0.115224	0.055422	99
