25
Properties=species:S:1:pos:R:3:Z:I:1 energy=-154.9571690096687 field_type=dipole dipole="0.000000 0.000000 0.000000" charge=0
C	1.000120	-0.054800	0.002960	6
C	2.520000	0.000000	0.000000	6
C	3.002020	1.361170	0.000000	6
C	3.399300	2.483070	0.000000	6
H	0.658160	-1.094070	0.002060	1
H	0.584950	0.441120	-0.880590	1
H	0.588560	0.438410	0.889710	1
H	2.895760	-0.532790	-0.880760	1
H	2.899280	-0.534150	0.878430	1
H	3.754860	3.487710	0.000000	1
Es	3.519343	1.873265	0.044497	99
Es	3.354845	2.393849	0.001834	99
Es	0.873455	-0.332672	-0.070905	99
Es	0.957867	-0.412732	-0.007684	99
Es	3.617204	3.070017	-0.031304	99
Es	0.961059	0.111101	0.101911	99
Es	1.042558	0.302415	0.081537	99
Es	2.619040	-0.173794	-0.072146	99
Es	2.968651	1.665165	0.063171	99
Es	3.057955	1.791913	0.150533	99
Es	2.751178	0.719994	0.008258	99
Es	2.579600	-0.150408	0.243946	99
Es	1.353443	0.003649	-0.138117	99
Es	3.112391	1.954603	-0.229041	99
Es	2.721596	-0.272775	-0.133201	99
