18
Properties=species:S:1:pos:R:3:Z:I:1 energy=-168.5903033827901 field_type=dipole dipole="0.000000 0.000000 0.000000" charge=0
C	0.939530	0.000000	0.000000	6
C	2.140230	0.000000	0.000000	6
C	3.676370	0.000000	0.000000	6
N	4.836330	0.000000	0.000000	7
H	-0.126000	0.000000	0.000000	1
Es	5.207412	-0.000018	-0.000075	99
Es	0.252035	0.000001	0.000002	99
Es	4.835851	-0.000000	-0.000000	99
Es	2.140793	0.000001	0.000012	99
Es	4.288444	-0.000372	-0.000062	99
Es	1.592132	0.000406	0.000466	99
Es	4.271496	0.000458	-0.000283	99
Es	2.924392	0.000014	0.000021	99
Es	1.592132	-0.000130	0.000113	99
Es	0.939331	0.000000	0.000001	99
Es	1.550574	-0.000294	-0.000591	99
Es	4.288444	-0.000067	0.000397	99
Es	3.675748	-0.000001	-0.000000	99
