30
Properties=species:S:1:pos:R:3:Z:I:1 energy=-173.3551935435059 field_type=dipole dipole="0.000000 0.000000 0.000000" charge=0
C	0.995150	0.008560	0.004170	6
C	2.519840	0.006210	0.002970	6
C	3.066090	-0.733630	-1.214010	6
N	3.008080	1.385270	0.019190	7
H	0.603520	0.528440	0.886150	1
H	0.607740	-1.015900	0.024190	1
H	0.590140	0.502890	-0.886750	1
H	2.871910	-0.494290	0.911140	1
H	2.741040	-0.265900	-2.150770	1
H	2.720490	-1.773120	-1.220610	1
H	4.161930	-0.748460	-1.206440	1
H	2.700350	1.871020	-0.823500	1
H	4.027570	1.387710	-0.012270	1
Es	2.515077	-0.093413	-0.219611	99
Es	0.887988	0.166009	0.078459	99
Es	2.824151	1.435209	0.021030	99
Es	1.490920	0.301972	0.059033	99
Es	3.350225	1.378439	-0.022525	99
Es	3.013944	-0.427109	-0.764862	99
Es	3.581702	-0.660903	-1.310391	99
Es	0.970000	0.193763	0.011286	99
Es	2.758776	-1.299043	-1.275718	99
Es	3.121271	1.292115	-0.027998	99
Es	2.759445	0.598895	-0.040248	99
Es	2.815617	-0.297759	-0.839849	99
Es	1.538843	0.104361	-0.081876	99
Es	3.053446	-0.692063	-1.315333	99
Es	2.530888	0.443897	0.144633	99
Es	0.725959	-0.682824	0.029417	99
Es	2.799017	1.002795	-0.130407	99
