28
Properties=species:S:1:pos:R:3:Z:I:1 energy=-156.1470153173096 field_type=dipole dipole="0.000000 0.000000 0.000000" charge=0
C	0.337230	1.022780	-0.130480	6
C	0.996070	-0.330620	0.211200	6
C	-0.329850	-0.996290	-0.211340	6
C	-1.020690	0.340490	0.130550	6
H	0.587670	1.854830	0.531910	1
H	0.483160	1.334570	-1.170720	1
H	1.231930	-0.451040	1.274870	1
H	1.873610	-0.596750	-0.382850	1
H	-0.374140	-1.257300	-1.274790	1
H	-0.640580	-1.858720	0.382910	1
H	-1.838650	0.637070	-0.532210	1
H	-1.358670	0.410020	1.170840	1
Es	-0.004338	-0.203441	-0.099142	99
Es	-0.525145	-1.529951	-0.069143	99
Es	1.210173	-0.448909	0.144562	99
Es	0.798286	0.051390	0.183240	99
Es	0.453231	0.959070	-0.180725	99
Es	0.849490	0.278390	0.253572	99
Es	0.523512	1.299572	-0.114792	99
Es	-0.734807	0.342005	0.129464	99
Es	-0.201498	-0.560024	-0.018125	99
Es	-0.150907	-0.934736	-0.155368	99
Es	-0.876718	0.408410	-0.008108	99
Es	-1.432702	0.489524	0.125708	99
Es	0.055697	0.942635	-0.073425	99
Es	-0.363800	-0.936767	-0.282451	99
Es	-0.841585	0.491714	0.026183	99
Es	1.171449	-0.503413	0.138270	99
