24
Properties=species:S:1:pos:R:3:Z:I:1 energy=-170.95003817801356 field_type=dipole dipole="0.000000 0.000000 0.000000" charge=0
N	1.014680	-0.015170	0.018190	7
C	2.470000	0.000000	0.000000	6
C	2.952020	1.361170	0.000000	6
C	3.349300	2.483070	0.000000	6
H	0.691170	-0.976210	-0.074410	1
H	0.669540	0.485690	-0.799120	1
H	2.826590	-0.532030	-0.888360	1
H	2.844630	-0.539730	0.875600	1
H	3.697870	3.489080	0.006240	1
Es	2.405652	-0.096025	-0.146844	99
Es	2.988585	1.436369	0.028007	99
Es	2.448688	-0.152730	-0.024062	99
Es	3.348239	2.421388	-0.011456	99
Es	2.870387	1.953443	-0.088972	99
Es	1.822674	-0.140305	0.041355	99
Es	0.848011	0.189399	-0.096527	99
Es	3.300668	1.796239	0.095030	99
Es	2.668764	-0.283678	0.095660	99
Es	3.169038	1.918274	-0.032367	99
Es	2.809350	0.817350	0.039396	99
Es	0.990274	-0.024217	-0.023792	99
Es	1.132348	0.057393	-0.149509	99
Es	3.585355	3.117562	-0.000800	99
Es	0.822509	-0.452517	0.022576	99
