26
Properties=species:S:1:pos:R:3:Z:I:1 energy=-191.98129564908626 field_type=dipole dipole="0.000000 0.000000 0.000000" charge=0
C	0.351110	1.065650	-0.073450	6
C	0.971410	-0.300400	0.200130	6
O	-0.324770	-0.944290	0.135860	8
C	-0.981350	0.345060	0.115910	6
H	0.574870	1.838880	0.664060	1
H	0.520330	1.446480	-1.084410	1
H	1.424290	-0.422250	1.188670	1
H	1.649920	-0.671030	-0.572240	1
H	-1.684000	0.433360	-0.715860	1
H	-1.492030	0.543560	1.062920	1
Es	-0.349460	-1.049019	0.192830	99
Es	-0.237621	-0.912774	0.102618	99
Es	-0.230614	0.972222	-0.148260	99
Es	-0.355953	-0.538676	0.256735	99
Es	0.946362	-0.319309	0.343825	99
Es	0.392349	1.098817	0.009118	99
Es	0.300194	0.972918	-0.035201	99
Es	0.287931	-0.621885	0.120493	99
Es	0.691550	0.710673	-0.141894	99
Es	1.071076	-0.347479	0.328907	99
Es	-0.595534	-0.500404	0.236432	99
Es	-0.771528	-0.043516	0.097437	99
Es	-1.476778	0.432160	-0.041190	99
Es	1.246091	-0.601781	-0.045366	99
Es	0.397460	1.277686	0.082933	99
Es	-1.166403	0.392687	0.183594	99
