26
Properties=species:S:1:pos:R:3:Z:I:1 energy=-191.97913084696498 field_type=dipole dipole="0.000000 0.000000 0.000000" charge=0
C	1.004100	-0.004480	-0.058220	6
C	2.480660	-0.142480	0.047430	6
C	3.283140	-0.770870	-1.058960	6
O	3.222880	0.653650	-0.881720	8
H	0.649400	0.782050	0.615320	1
H	0.517640	-0.942500	0.227080	1
H	0.685640	0.249710	-1.074840	1
H	2.838820	-0.215100	1.064520	1
H	2.763530	-1.192500	-1.909890	1
H	4.211810	-1.264790	-0.803040	1
Es	1.914890	-0.011560	-0.151902	99
Es	1.212007	-0.127628	-0.155026	99
Es	3.371344	0.164452	-0.959640	99
Es	0.666427	-0.035962	0.073743	99
Es	1.261569	-0.164875	0.082279	99
Es	3.119952	0.277841	-0.716269	99
Es	2.122658	-0.114258	-0.150375	99
Es	3.476784	-0.835325	-0.934094	99
Es	2.800607	-0.430168	-0.603938	99
Es	3.216561	-0.804033	-1.163566	99
Es	0.856868	0.223797	0.162696	99
Es	2.556633	0.119913	-0.254194	99
Es	3.122861	0.678000	-0.866437	99
Es	3.174956	0.250378	-0.739266	99
Es	2.854284	0.173978	-0.389789	99
Es	3.386940	-0.593043	-0.989317	99
