29
Properties=species:S:1:pos:R:3:Z:I:1 energy=-193.1911914174028 field_type=dipole dipole="0.000000 0.000000 0.000000" charge=0
C	0.990770	-0.028520	-0.005260	6
C	2.507390	0.023660	0.010200	6
C	3.023640	1.455220	0.016160	6
O	4.444960	1.456050	0.012370	8
H	0.646630	-1.067620	-0.009130	1
H	0.589630	0.465040	-0.896880	1
H	0.571710	0.464630	0.878010	1
H	2.907720	-0.506850	-0.861280	1
H	2.887980	-0.509130	0.888880	1
H	2.678420	2.001070	0.900990	1
H	2.684200	1.996620	-0.873580	1
H	4.739640	0.988920	0.812970	1
Es	2.759229	-0.286055	0.299085	99
Es	0.798590	0.210338	0.042344	99
Es	0.893040	0.027871	-0.041670	99
Es	2.803291	1.232413	0.093854	99
Es	2.904566	1.417252	0.120946	99
Es	2.579557	-0.038101	-0.105756	99
Es	4.365541	1.403802	-0.189703	99
Es	4.319440	1.421576	0.110200	99
Es	3.596109	1.495035	0.085510	99
Es	4.667036	1.546272	0.205001	99
Es	0.690490	-0.482175	0.026992	99
Es	3.330060	1.418529	-0.040377	99
Es	4.425064	1.229507	0.129958	99
Es	2.636313	-0.060430	-0.143535	99
Es	1.274523	0.143279	-0.074420	99
Es	2.878476	1.525024	-0.104800	99
Es	1.400461	-0.021256	-0.001317	99
