28
Properties=species:S:1:pos:R:3:Z:I:1 energy=-156.15077722315445 field_type=dipole dipole="0.000000 0.000000 0.000000" charge=0
C	1.023610	0.012930	-0.075360	6
C	2.510840	-0.045760	0.002370	6
C	3.296290	-0.734340	-1.080970	6
C	3.355610	0.762940	-0.945110	6
H	0.641860	0.787150	0.598340	1
H	0.592060	-0.945480	0.229400	1
H	0.671040	0.239650	-1.086800	1
H	2.856580	-0.159490	1.023310	1
H	2.763400	-1.147160	-1.928940	1
H	4.170210	-1.305440	-0.786790	1
H	4.268830	1.202800	-0.560930	1
H	2.863660	1.359210	-1.705570	1
Es	3.283458	-0.171382	-1.055803	99
Es	3.781671	0.911235	-0.767636	99
Es	1.278564	0.018022	-0.129839	99
Es	2.790217	0.286006	-0.383443	99
Es	2.168609	-0.089814	0.136227	99
Es	0.754299	-0.490287	0.215610	99
Es	2.793441	-0.313485	-0.473630	99
Es	3.173281	-0.240898	-0.643508	99
Es	1.039846	0.431070	-0.005406	99
Es	1.721611	0.096059	-0.230030	99
Es	3.429956	-0.098119	-1.098556	99
Es	2.926365	0.426268	-0.823098	99
Es	3.095374	0.798860	-0.922921	99
Es	3.420090	-0.649422	-0.957821	99
Es	1.022025	0.050613	-0.131381	99
Es	3.297472	-0.960671	-1.147677	99
