26
Properties=species:S:1:pos:R:3:Z:I:1 energy=-192.02137804713269 field_type=dipole dipole="0.000000 0.000000 0.000000" charge=0
C	0.984690	-0.032190	-0.053830	6
C	2.493930	0.024130	0.074180	6
C	2.969730	1.451610	0.037400	6
O	3.716710	1.935590	0.882450	8
H	0.636930	-1.069200	-0.025510	1
H	0.652260	0.415480	-0.996170	1
H	0.502040	0.515490	0.762210	1
H	2.967430	-0.513260	-0.753430	1
H	2.813600	-0.435390	1.014780	1
H	2.653620	2.042540	-0.839390	1
Es	3.359917	1.705615	0.541492	99
Es	3.571572	1.636114	0.531840	99
Es	0.896230	0.192513	-0.289227	99
Es	3.874823	1.862693	1.094823	99
Es	2.778682	1.346009	-0.181619	99
Es	2.502956	0.069613	0.109459	99
Es	3.645188	1.895819	0.791637	99
Es	2.549148	0.147466	0.016339	99
Es	2.626850	0.846899	-0.025170	99
Es	2.642448	-0.214647	0.351319	99
Es	0.722093	-0.547391	-0.084312	99
Es	3.011590	1.578771	0.130938	99
Es	3.613587	2.145082	0.634817	99
Es	1.011187	-0.042046	-0.068073	99
Es	1.543264	-0.114146	-0.061773	99
Es	1.195699	0.232419	0.003258	99
