29
Properties=species:S:1:pos:R:3:Z:I:1 energy=-193.18083544153006 field_type=dipole dipole="0.000000 0.000000 0.000000" charge=0
C	0.965540	-0.097900	-0.001570	6
C	2.479920	-0.033100	-0.011600	6
O	2.873470	1.336220	0.027170	8
C	4.287940	1.475050	0.019440	6
H	0.618820	-1.134730	-0.031270	1
H	0.550770	0.438430	-0.861510	1
H	0.564680	0.383540	0.897260	1
H	2.866070	-0.503520	-0.922160	1
H	2.880590	-0.558170	0.862240	1
H	4.529930	2.540750	0.049970	1
H	4.710040	1.046840	-0.894990	1
H	4.725170	0.991970	0.898700	1
Es	2.683353	1.157606	0.078745	99
Es	1.320103	-0.037241	0.022469	99
Es	1.074596	0.026649	-0.184458	99
Es	2.891556	1.191029	0.040119	99
Es	0.817189	0.230775	-0.068308	99
Es	2.861471	1.232904	0.154880	99
Es	4.464880	1.157484	-0.000029	99
Es	3.035629	1.233638	-0.194117	99
Es	2.708178	-0.334958	-0.226969	99
Es	2.692382	-0.011613	0.300881	99
Es	4.503726	1.360373	0.073840	99
Es	2.499856	-0.102312	-0.140036	99
Es	3.309224	1.208598	0.086211	99
Es	0.800732	-0.325853	0.242108	99
Es	4.291347	1.539814	0.036085	99
Es	0.954073	-0.416580	-0.047750	99
Es	4.418841	1.986045	-0.042642	99
