26
Properties=species:S:1:pos:R:3:Z:I:1 energy=-191.9897946529144 field_type=dipole dipole="0.000000 0.000000 0.000000" charge=0
C	1.004830	-0.122270	0.050170	6
O	2.413170	-0.020520	-0.138870	8
C	2.843850	1.276610	-0.162630	6
C	4.065810	1.596680	-0.589440	6
H	0.733650	-1.181580	0.021900	1
H	0.465790	0.392820	-0.752360	1
H	0.713830	0.280940	1.026120	1
H	2.142370	2.016770	0.199250	1
H	4.749650	0.829780	-0.937740	1
H	4.403830	2.626460	-0.596940	1
Es	4.508424	1.096778	-0.799731	99
Es	2.431833	-0.062673	-0.098672	99
Es	0.804493	-0.837935	0.012256	99
Es	2.606029	0.329599	-0.340761	99
Es	0.772092	0.105817	0.036323	99
Es	3.761458	1.519895	-0.499621	99
Es	2.305645	0.021054	-0.129799	99
Es	3.738820	1.504891	-0.511111	99
Es	2.454772	0.252506	-0.069492	99
Es	2.399991	1.496947	0.031618	99
Es	4.309540	2.265525	-0.542589	99
Es	1.768268	-0.066475	0.020041	99
Es	0.699470	0.273644	0.190936	99
Es	2.804556	1.300959	-0.150069	99
Es	3.532572	1.500159	-0.413641	99
Es	1.279633	-0.104415	0.048409	99
