26
Properties=species:S:1:pos:R:3:Z:I:1 energy=-191.99776960110373 field_type=dipole dipole="0.000000 0.000000 0.000000" charge=0
O	0.988160	-0.071040	-0.301560	8
C	2.351230	-0.030470	0.086460	6
C	2.787880	1.394410	0.053990	6
C	3.340850	2.047660	1.084440	6
H	0.707030	-0.998310	-0.234500	1
H	2.937510	-0.620640	-0.624230	1
H	2.448870	-0.469920	1.084220	1
H	2.629350	1.922930	-0.883110	1
H	3.509980	1.566470	2.042420	1
H	3.626680	3.090590	0.988300	1
Es	1.087101	-0.023552	-0.373137	99
Es	2.806719	1.430550	0.082987	99
Es	2.393325	-0.100035	0.288382	99
Es	2.616913	1.842478	0.057250	99
Es	1.901167	-0.157170	-0.131084	99
Es	3.355991	1.783515	0.703137	99
Es	3.518853	2.530051	0.965942	99
Es	1.091793	-0.060836	-0.279663	99
Es	3.462648	1.975575	1.522617	99
Es	3.359862	1.847312	0.956189	99
Es	2.684150	1.101729	0.123154	99
Es	2.618788	0.918942	0.214644	99
Es	2.462841	0.052845	0.442474	99
Es	1.197362	-0.094087	-0.461519	99
Es	1.785965	-0.190531	-0.194331	99
Es	0.887596	-0.510192	-0.305548	99
