25
Properties=species:S:1:pos:R:3:Z:I:1 energy=-208.0410842097285 field_type=dipole dipole="0.000000 0.000000 0.000000" charge=0
C	0.989840	-0.002050	0.001680	6
N	2.427020	0.040740	0.003810	7
C	3.145060	1.197300	-0.070310	6
O	4.357260	1.238820	0.084400	8
H	0.670160	-0.955810	-0.424090	1
H	0.583330	0.827490	-0.582820	1
H	0.640090	0.075680	1.034330	1
H	2.959790	-0.778240	0.273060	1
H	2.537960	2.089460	-0.294760	1
Es	0.740782	0.161402	-0.218005	99
Es	4.118080	1.379271	-0.069976	99
Es	1.948221	0.021973	0.031575	99
Es	3.923802	1.098975	0.155030	99
Es	2.502307	0.075400	0.034874	99
Es	2.324192	0.061183	0.018935	99
Es	0.859624	0.169372	0.020358	99
Es	2.741769	1.763537	-0.219617	99
Es	3.162903	1.213898	-0.067868	99
Es	4.332927	1.146450	0.062250	99
Es	0.808656	-0.233794	0.122263	99
Es	4.598778	1.307906	0.128338	99
Es	2.727236	0.549755	0.017172	99
Es	0.883718	-0.122909	0.059595	99
Es	2.676602	-0.381396	0.012466	99
Es	4.122654	1.238866	0.067776	99
