22
Properties=species:S:1:pos:R:3:Z:I:1 energy=-153.76520893781185 field_type=dipole dipole="0.000000 0.000000 0.000000" charge=0
C	0.975710	-0.012720	-0.000000	6
C	2.312760	0.003460	-0.000000	6
C	3.037060	1.224250	0.000000	6
C	3.645990	2.258930	0.000000	6
H	0.433290	-0.952370	-0.000000	1
H	0.394400	0.903820	-0.000000	1
H	2.873080	-0.926680	-0.000000	1
H	4.179120	3.180030	0.000000	1
Es	1.657634	-0.012395	-0.001417	99
Es	2.312789	0.003546	-0.000186	99
Es	0.596551	-0.648241	0.000209	99
Es	0.626775	0.534461	0.000867	99
Es	3.324627	1.726545	0.001559	99
Es	2.645895	-0.527156	0.001186	99
Es	3.029411	1.929824	-0.002231	99
Es	4.003452	2.856946	0.000268	99
Es	3.646179	2.259086	0.000001	99
Es	2.693020	0.635271	-0.001174	99
Es	1.697982	0.022680	0.000160	99
Es	0.975207	-0.012025	-0.000056	99
Es	3.036935	1.224013	0.000009	99
Es	3.657375	1.564432	0.000806	99
