28
Properties=species:S:1:pos:R:3:Z:I:1 energy=-156.16489103701167 field_type=dipole dipole="0.000000 0.000000 0.000000" charge=0
C	0.992170	-0.018990	-0.016140	6
C	2.492490	0.026850	-0.001750	6
C	3.209730	-1.292210	-0.006910	6
C	3.171210	1.184890	0.018680	6
H	0.550030	0.981220	-0.013270	1
H	0.621160	-0.550620	0.867020	1
H	0.637600	-0.539610	-0.911200	1
H	2.506060	-2.128150	0.055510	1
H	3.887840	-1.368230	0.849830	1
H	3.786230	-1.411410	-0.929460	1
H	2.661800	2.143200	0.021990	1
H	4.255970	1.203060	0.027230	1
Es	3.901250	1.192431	0.031978	99
Es	2.814347	1.831353	0.020885	99
Es	2.528791	0.384299	0.001973	99
Es	0.888937	-0.182264	-0.006489	99
Es	0.703140	0.595754	-0.075076	99
Es	0.929040	-0.041441	0.034590	99
Es	2.510975	0.092820	0.027869	99
Es	0.690538	-0.469706	-0.048965	99
Es	2.960164	0.837710	0.035525	99
Es	3.036356	0.980515	-0.030350	99
Es	2.620590	-0.082738	0.002024	99
Es	3.433945	-1.363510	0.026675	99
Es	3.547925	-1.319986	-0.066764	99
Es	2.553430	-0.699681	0.067379	99
Es	3.123032	-1.681618	-0.044423	99
Es	2.835763	-1.149564	-0.009810	99
