33
Properties=species:S:1:pos:R:3:Z:I:1 energy=-231.07937362321695 field_type=dipole dipole="0.000000 0.000000 0.000000" charge=0
C	0.970700	-0.102760	-0.066620	6
C	2.479500	-0.018350	0.048690	6
C	2.953550	1.417540	0.007060	6
C	2.963960	2.104990	-1.332730	6
O	3.281250	2.013150	1.033840	8
H	0.638480	-1.141370	0.026330	1
H	0.624590	0.278810	-1.032530	1
H	0.483430	0.485990	0.717690	1
H	2.966570	-0.577640	-0.756820	1
H	2.809860	-0.462630	0.994110	1
H	3.482560	1.480480	-2.064740	1
H	3.497220	3.056710	-1.252170	1
H	1.939190	2.296470	-1.659080	1
Es	0.820665	-0.789042	-0.043205	99
Es	1.403201	-0.099988	-0.240781	99
Es	2.961312	1.426635	0.316516	99
Es	3.120095	1.947552	1.165700	99
Es	2.723143	0.528332	-0.032415	99
Es	3.057720	2.252051	-0.978935	99
Es	2.968240	2.053409	-1.315162	99
Es	3.163425	2.217334	-1.329341	99
Es	3.499225	1.897571	0.820851	99
Es	2.014920	-0.035565	-0.099555	99
Es	0.833648	0.055988	-0.466195	99
Es	1.818648	0.032491	0.406343	99
Es	3.253770	1.988203	0.831373	99
Es	1.578316	-0.041763	-0.204331	99
Es	2.749719	0.957550	0.105743	99
Es	1.801439	0.010417	0.438296	99
Es	2.633922	1.965503	-1.717668	99
Es	3.046006	1.674200	-0.046406	99
Es	3.026896	1.439458	-0.156375	99
Es	3.092713	1.667680	0.432371	99
