27
Properties=species:S:1:pos:R:3:Z:I:1 energy=-228.67020761304408 field_type=dipole dipole="0.000000 0.000000 0.000000" charge=0
C	0.991760	-0.003400	-0.005880	6
C	2.490880	-0.055360	0.001670	6
O	3.128080	-1.101280	0.006470	8
C	3.189940	1.210750	0.000400	6
C	3.777250	2.259680	-0.000540	6
H	0.629670	1.028610	0.007200	1
H	0.610140	-0.518700	0.879620	1
H	0.619910	-0.493720	-0.909480	1
H	4.306780	3.184010	-0.000880	1
Es	0.693979	-0.397962	-0.025794	99
Es	2.816869	-0.605921	0.040150	99
Es	3.013316	-1.170600	-0.023123	99
Es	1.621960	-0.070777	0.006798	99
Es	4.090497	2.870304	0.003462	99
Es	2.860606	-0.570217	-0.143465	99
Es	2.859317	0.617637	-0.001514	99
Es	3.427535	1.654328	0.022227	99
Es	3.365878	1.313296	0.012918	99
Es	3.583047	1.482716	0.041976	99
Es	0.908135	0.173969	0.035275	99
Es	3.777039	2.259626	-0.000977	99
Es	0.957601	0.470096	-0.031185	99
Es	3.223939	1.905432	-0.077897	99
Es	0.883167	-0.175825	0.000380	99
Es	2.619243	-0.299612	0.084035	99
Es	3.225061	-1.009258	0.029366	99
Es	3.204952	-1.325263	0.030090	99
