33
Properties=species:S:1:pos:R:3:Z:I:1 energy=-231.0485480238837 field_type=dipole dipole="0.000000 0.000000 0.000000" charge=0
C	0.890680	-0.124920	-0.082780	6
C	2.392180	0.059230	0.087060	6
O	3.068830	-0.717760	-0.893590	8
C	2.798340	1.493790	-0.083620	6
C	3.440420	2.211500	0.848380	6
H	0.329720	0.445830	0.664310	1
H	0.624620	-1.183240	0.015630	1
H	0.560870	0.187490	-1.080540	1
H	2.692750	-0.321580	1.069130	1
H	2.900280	-0.313330	-1.760250	1
H	2.549280	1.973960	-1.026930	1
H	3.719530	1.782670	1.806090	1
H	3.710040	3.247100	0.665550	1
Es	2.991045	1.525072	0.260164	99
Es	0.734240	-0.012862	-0.117111	99
Es	2.634660	0.659245	0.052344	99
Es	0.947221	-0.174938	-0.103611	99
Es	1.893515	-0.288151	-0.281810	99
Es	0.606047	-0.017381	0.278871	99
Es	2.823368	-0.503831	-0.667964	99
Es	1.986048	-0.368160	-0.399201	99
Es	3.382128	-0.767084	-0.871593	99
Es	2.527347	0.481290	0.004487	99
Es	2.779289	1.502296	0.103774	99
Es	1.599724	-0.194897	-0.293667	99
Es	3.617905	2.667758	0.997094	99
Es	2.823448	1.541581	0.109219	99
Es	2.645962	-0.504413	-0.498139	99
Es	2.583980	-0.309555	-0.513478	99
Es	2.835878	-0.537073	-1.142793	99
Es	3.262047	2.056423	0.694926	99
Es	3.387956	2.065890	0.858883	99
Es	3.433901	2.000532	0.458995	99
