30
Properties=species:S:1:pos:R:3:Z:I:1 energy=-229.83890728002524 field_type=dipole dipole="0.000000 0.000000 0.000000" charge=0
C	1.000610	-0.058770	-0.000780	6
C	2.520000	0.000000	0.000000	6
O	3.002370	-0.678520	-1.155930	8
C	3.002020	1.361170	0.000000	6
C	3.399300	2.483070	0.000000	6
H	0.578000	0.430960	0.883720	1
H	0.657220	-1.099660	-0.020740	1
H	0.583260	0.425910	-0.892340	1
H	2.899500	-0.539420	0.873880	1
H	2.796810	-0.114010	-1.920440	1
H	3.760760	3.485720	0.001640	1
Es	2.849194	-0.585809	-0.928858	99
Es	2.595718	-0.218700	-0.456340	99
Es	2.405602	-0.204027	-0.121157	99
Es	2.917318	-0.557349	-1.031305	99
Es	2.607091	-0.195533	-0.350044	99
Es	2.944201	1.268868	0.011352	99
Es	1.088982	0.104555	0.105575	99
Es	0.742544	-0.663180	-0.029789	99
Es	3.220978	-0.770742	-1.231099	99
Es	1.100957	-0.008190	0.010330	99
Es	2.941253	1.702847	0.065409	99
Es	3.267803	2.255651	0.052774	99
Es	3.280844	1.839670	-0.143175	99
Es	1.815839	-0.003897	-0.119328	99
Es	2.887151	-0.623470	-1.255907	99
Es	0.934064	0.123370	0.197499	99
Es	3.232785	1.944023	0.030122	99
Es	3.598269	3.005044	0.071073	99
Es	3.094198	1.396379	-0.056504	99
