33
Properties=species:S:1:pos:R:3:Z:I:1 energy=-231.04527708856517 field_type=dipole dipole="0.000000 0.000000 0.000000" charge=0
C	0.957780	-1.093720	-0.017150	6
C	2.063170	-0.054290	0.020190	6
O	1.457040	1.234950	0.119020	8
C	2.289880	2.314370	0.169420	6
C	3.626290	2.354200	0.141720	6
H	1.373340	-2.102230	-0.095460	1
H	0.291880	-0.918280	-0.868660	1
H	0.341910	-1.034300	0.886540	1
H	2.655940	-0.123100	-0.898760	1
H	2.703150	-0.238450	0.890810	1
H	1.694070	3.219390	0.241300	1
H	4.243250	1.466530	0.070850	1
H	4.140670	3.308160	0.191530	1
Es	1.775953	0.792553	0.138280	99
Es	3.937624	2.962189	0.180453	99
Es	2.920408	2.337457	0.181418	99
Es	2.115985	2.173179	0.137318	99
Es	1.932247	-0.161798	0.036925	99
Es	2.501336	-0.105506	0.000917	99
Es	3.970696	1.829573	0.062332	99
Es	1.830634	1.652298	0.058156	99
Es	2.121056	2.638755	0.228356	99
Es	2.360256	-0.135621	-0.003186	99
Es	3.568156	2.317480	0.180550	99
Es	0.992841	-1.270473	0.028622	99
Es	1.153096	1.220817	0.034797	99
Es	1.497597	1.250355	0.164541	99
Es	1.637585	1.486997	0.249678	99
Es	0.490274	-1.069821	-0.050800	99
Es	2.989623	2.429825	0.090541	99
Es	0.794289	-1.083203	-0.044925	99
Es	1.034074	-1.441417	-0.028517	99
Es	1.681072	-0.440811	-0.010351	99
