33
Properties=species:S:1:pos:R:3:Z:I:1 energy=-231.03946303579096 field_type=dipole dipole="0.000000 0.000000 0.000000" charge=0
C	1.184480	0.161850	-0.798370	6
O	2.284660	0.162990	0.106540	8
C	3.055330	1.311600	0.058980	6
C	2.364760	2.643790	0.058150	6
C	4.386590	1.189780	0.111320	6
H	0.766920	-0.849140	-0.819440	1
H	1.506360	0.419080	-1.813260	1
H	0.398750	0.843410	-0.457830	1
H	1.603890	2.678600	0.844760	1
H	1.883770	2.833360	-0.906480	1
H	3.066370	3.464290	0.244190	1
H	4.848410	0.208550	0.152810	1
H	5.041210	2.054030	0.117410	1
Es	2.240004	0.241351	0.128393	99
Es	1.939908	0.136345	-0.301570	99
Es	4.518278	0.707114	0.220143	99
Es	0.914157	-0.355641	-0.802022	99
Es	2.747014	0.834608	0.052021	99
Es	2.779619	1.995521	0.104071	99
Es	4.246520	1.210064	0.179530	99
Es	1.608956	0.124348	-0.804728	99
Es	1.872329	2.721496	-0.178560	99
Es	4.005643	1.136865	-0.005338	99
Es	3.376022	1.244072	0.114704	99
Es	4.847326	1.750021	0.149695	99
Es	1.928820	0.173956	-0.294389	99
Es	2.227948	2.730333	0.049549	99
Es	1.079341	0.252578	-0.757562	99
Es	0.849413	0.578482	-0.776457	99
Es	2.645658	2.914176	0.191837	99
Es	2.366392	2.617957	0.049865	99
Es	3.223367	1.079401	0.046717	99
Es	2.382484	0.189135	0.132668	99
