33
Properties=species:S:1:pos:R:3:Z:I:1 energy=-231.03446173525413 field_type=dipole dipole="0.000000 0.000000 0.000000" charge=0
C	2.233270	-0.842310	-0.247470	6
O	3.454980	-0.118750	-0.218030	8
C	3.240620	1.258190	0.073820	6
C	4.576600	1.929440	0.075820	6
C	4.901800	2.987600	-0.678250	6
H	2.457380	-1.888400	-0.474190	1
H	1.573410	-0.450170	-1.027680	1
H	1.735610	-0.794880	0.725990	1
H	2.782910	1.358350	1.064570	1
H	2.571950	1.698130	-0.675630	1
H	5.322780	1.503960	0.741600	1
H	4.193340	3.439830	-1.365340	1
H	5.897510	3.416870	-0.628500	1
Es	4.540034	1.925099	0.084610	99
Es	1.961242	-0.649724	-0.520790	99
Es	4.244506	1.661367	0.035729	99
Es	3.399903	-0.130282	-0.204440	99
Es	4.901777	3.079859	-0.716420	99
Es	2.229049	-0.837746	-0.243303	99
Es	3.201568	0.624726	0.037936	99
Es	2.203317	-1.375865	-0.132908	99
Es	3.644061	-0.136649	-0.073428	99
Es	5.369068	3.235374	-0.642406	99
Es	2.939353	1.438093	-0.152633	99
Es	4.621013	2.542053	-0.149052	99
Es	4.845493	1.840592	0.285631	99
Es	3.143353	1.236820	0.058840	99
Es	3.332084	-0.043668	-0.145488	99
Es	4.676048	2.210931	-0.396085	99
Es	2.130060	-0.867782	-0.045673	99
Es	3.118168	1.009465	0.130570	99
Es	2.969420	-0.277674	-0.324305	99
Es	4.617373	3.141101	-0.935249	99
