27
Properties=species:S:1:pos:R:3:Z:I:1 energy=-228.66636984899782 field_type=dipole dipole="0.000000 0.000000 0.000000" charge=0
O	1.295270	-0.340830	0.730610	8
C	2.244760	-0.057240	0.004230	6
C	3.003390	1.239380	0.096860	6
C	4.450100	1.014880	-0.013470	6
C	5.635690	0.839960	-0.103270	6
H	2.527830	-0.723070	-0.829540	1
H	2.761170	1.724970	1.047460	1
H	2.658090	1.884210	-0.717630	1
H	6.688169	0.689460	-0.178380	1
Es	5.618792	0.852734	-0.109158	99
Es	2.476073	-0.224937	-0.316279	99
Es	6.308012	0.740108	-0.189678	99
Es	2.616986	0.460506	0.024935	99
Es	1.308912	-0.487839	0.621385	99
Es	4.354775	1.032352	-0.021772	99
Es	5.098847	1.216086	0.018009	99
Es	1.117774	-0.230520	0.889527	99
Es	1.284568	-0.284189	0.643431	99
Es	5.064501	0.929555	-0.105804	99
Es	4.731972	0.800605	-0.067234	99
Es	2.935454	1.323649	0.063836	99
Es	1.742970	-0.195489	0.434109	99
Es	1.579712	-0.246323	0.572439	99
Es	2.273885	-0.085898	-0.088056	99
Es	2.766563	1.626668	0.340388	99
Es	2.907902	1.257837	0.001799	99
Es	4.093633	0.923031	0.001498	99
