32
Properties=species:S:1:pos:R:3:Z:I:1 energy=-247.02056951311687 field_type=dipole dipole="0.000000 0.000000 0.000000" charge=0
C	1.002620	0.008060	-0.004780	6
C	2.508470	0.031310	-0.002030	6
C	3.226920	-1.295360	-0.006150	6
N	3.109280	1.183930	0.000760	7
O	4.500100	1.031600	0.000500	8
H	0.598790	1.024210	0.003720	1
H	0.647710	-0.525290	0.881280	1
H	0.651120	-0.509180	-0.901680	1
H	2.507180	-2.118400	0.003290	1
H	3.860850	-1.374240	0.881320	1
H	3.842030	-1.377590	-0.906450	1
H	4.810440	1.956280	0.002880	1
Es	2.927991	-1.624741	-0.050228	99
Es	3.017291	-1.383637	0.014430	99
Es	0.899411	0.092104	0.122951	99
Es	3.084314	1.520392	-0.000753	99
Es	2.519118	0.022067	0.000283	99
Es	0.881678	0.115165	-0.132421	99
Es	4.507854	1.046789	0.124825	99
Es	3.156808	-0.943186	-0.131973	99
Es	1.492329	0.048709	0.050431	99
Es	2.860558	0.722448	0.012116	99
Es	3.100671	1.203050	0.006701	99
Es	4.665209	0.823307	-0.116119	99
Es	4.381757	1.050124	0.025683	99
Es	4.595136	1.476706	0.005129	99
Es	3.742217	0.911139	-0.056203	99
Es	0.626243	-0.173747	0.052959	99
Es	3.753092	-1.377838	0.031449	99
Es	3.041982	0.796627	-0.014898	99
Es	1.182622	-0.120153	-0.111193	99
Es	3.195321	-1.054172	0.115361	99
