32
Properties=species:S:1:pos:R:3:Z:I:1 energy=-247.10810026394876 field_type=dipole dipole="0.000000 0.000000 0.000000" charge=0
C	1.008330	-0.112730	-0.086740	6
C	2.511980	0.014550	0.073540	6
C	2.963190	1.454290	0.004810	6
N	2.828210	2.052440	-1.211770	7
O	3.427470	2.062350	0.961760	8
H	0.700740	-1.156860	0.026350	1
H	0.680580	0.231690	-1.073050	1
H	0.482660	0.484300	0.665740	1
H	3.030210	-0.556870	-0.704080	1
H	2.820270	-0.396710	1.041150	1
H	2.511750	1.563800	-2.036530	1
H	3.141820	3.010170	-1.300070	1
Es	1.691413	-0.054966	0.126606	99
Es	1.685654	-0.055171	-0.011129	99
Es	3.542985	2.127596	1.095248	99
Es	2.712081	0.230642	0.374926	99
Es	3.480049	1.762240	0.556489	99
Es	3.092941	1.734382	0.250303	99
Es	3.104814	1.582872	0.626050	99
Es	3.383923	2.052310	0.812397	99
Es	0.972567	0.066896	-0.686706	99
Es	2.794813	0.814083	0.351576	99
Es	2.697187	2.110984	-1.573277	99
Es	3.011069	2.086049	-0.827668	99
Es	1.920839	0.012337	0.162532	99
Es	2.934573	1.906818	-0.994636	99
Es	2.816004	2.017844	-1.126847	99
Es	2.094577	-0.056766	-0.237701	99
Es	3.189133	1.832776	0.332417	99
Es	1.097350	-0.084998	-0.081313	99
Es	2.793669	1.809186	-0.850818	99
Es	0.890184	-0.627786	-0.030301	99
