32
Properties=species:S:1:pos:R:3:Z:I:1 energy=-247.08238968612682 field_type=dipole dipole="0.000000 0.000000 0.000000" charge=0
C	1.020790	0.018050	-0.154330	6
N	2.451600	0.016000	0.071880	7
C	3.144460	-1.257080	0.023600	6
C	3.163070	1.193060	0.175930	6
O	4.379310	1.292620	0.272890	8
H	0.607660	1.025490	-0.055970	1
H	0.543550	-0.639300	0.578050	1
H	0.823310	-0.351720	-1.164280	1
H	2.676100	-1.943520	0.734100	1
H	4.202600	-1.148360	0.277740	1
H	3.061340	-1.662980	-0.988050	1
H	2.516190	2.085830	0.174560	1
Es	4.235200	1.271637	0.245429	99
Es	3.048207	-1.392972	-0.015509	99
Es	2.592858	0.320233	-0.125648	99
Es	4.267696	1.272000	0.258970	99
Es	0.751731	0.708421	-0.099586	99
Es	1.382557	0.000598	-0.090053	99
Es	4.234848	1.554206	0.211818	99
Es	2.992541	-1.109709	-0.031098	99
Es	0.895834	-0.177675	-0.193986	99
Es	0.762322	-0.426689	-0.189513	99
Es	4.232160	1.154091	0.178359	99
Es	2.539852	-0.108896	0.108195	99
Es	2.842055	-0.681994	-0.041064	99
Es	2.968061	1.411656	0.176792	99
Es	4.283969	1.128040	0.428416	99
Es	3.811395	-1.130844	0.143867	99
Es	2.868860	-1.691791	0.021917	99
Es	2.671384	0.392719	0.274982	99
Es	2.863297	1.436440	0.170378	99
Es	1.470185	0.007518	-0.122914	99
