32
Properties=species:S:1:pos:R:3:Z:I:1 energy=-247.0264471569448 field_type=dipole dipole="0.000000 0.000000 0.000000" charge=0
N	1.012010	-0.067590	-0.115940	7
C	2.469370	-0.025880	-0.012810	6
C	3.287900	-0.705650	-1.071390	6
C	3.263690	0.793170	-0.998100	6
O	4.447160	1.430680	-0.492670	8
H	0.596170	0.718810	0.383790	1
H	0.640440	-0.910150	0.321380	1
H	2.850260	-0.068980	1.004780	1
H	2.771250	-1.171280	-1.903460	1
H	4.185500	-1.228280	-0.766680	1
H	2.714270	1.319070	-1.773030	1
H	4.955050	0.854110	0.101950	1
Es	3.731059	-0.460951	-1.031389	99
Es	3.093572	0.523024	-0.657409	99
Es	2.994592	-0.809341	-1.294431	99
Es	3.176417	-0.126206	-0.733732	99
Es	1.057360	0.003142	-0.135533	99
Es	4.580043	1.605698	-0.571750	99
Es	0.887835	0.181443	-0.106844	99
Es	4.168422	1.458614	-0.523964	99
Es	3.715721	0.717866	-0.811756	99
Es	2.862782	0.472906	-0.448057	99
Es	4.346285	1.311346	-0.472251	99
Es	4.125464	0.859756	-0.699887	99
Es	3.003036	0.105858	-0.659209	99
Es	0.736237	-0.481063	0.091769	99
Es	4.173156	1.210302	-0.526032	99
Es	3.199007	-0.559671	-0.965359	99
Es	2.498714	-0.303992	-0.273548	99
Es	1.944240	0.032442	0.069256	99
Es	1.248195	-0.089283	-0.116032	99
Es	2.247691	-0.048399	-0.244403	99
