26
Properties=species:S:1:pos:R:3:Z:I:1 energy=-244.69786860780923 field_type=dipole dipole="0.000000 0.000000 0.000000" charge=0
N	1.027940	0.014560	0.000000	7
C	2.385570	-0.057320	-0.000000	6
O	2.996410	-1.115250	0.000000	8
C	3.085470	1.203140	-0.000000	6
C	3.668920	2.254220	-0.000000	6
H	0.536460	0.895860	-0.000000	1
H	0.507150	-0.850620	0.000000	1
H	4.197230	3.178750	-0.000000	1
Es	2.385481	-0.057088	0.000005	99
Es	3.085986	1.203470	-0.000432	99
Es	2.872140	-0.862943	-0.013165	99
Es	3.986957	2.813125	-0.002906	99
Es	3.693413	2.297756	-0.000320	99
Es	3.001150	-1.109491	-0.007366	99
Es	3.337125	1.750023	0.000890	99
Es	2.780943	-0.633939	-0.015021	99
Es	3.363343	1.688396	-0.017670	99
Es	3.378683	1.702354	0.017211	99
Es	0.721783	-0.489308	0.005943	99
Es	1.095933	0.017790	-0.008092	99
Es	3.161274	-1.010374	0.060641	99
Es	2.860940	-1.416975	-0.026764	99
Es	2.732487	0.608289	0.003245	99
Es	1.618586	-0.005503	-0.012793	99
Es	0.736226	0.537865	0.006762	99
Es	1.089861	0.018465	0.009830	99
