29
Properties=species:S:1:pos:R:3:Z:I:1 energy=-245.8991973719797 field_type=dipole dipole="0.000000 0.000000 0.000000" charge=0
O	1.175690	-0.205350	0.291160	8
C	2.362770	-0.044850	0.156770	6
C	3.343980	1.119160	-0.064060	6
C	4.294630	0.012310	-0.555230	6
N	3.373030	-0.952220	0.055950	7
H	3.642890	1.627410	0.857230	1
H	3.032460	1.840500	-0.821220	1
H	4.365360	-0.105740	-1.640510	1
H	5.287750	0.006220	-0.100890	1
H	3.123150	-1.879800	-0.259210	1
Es	2.371596	-0.051013	0.153683	99
Es	1.371544	-0.329659	0.347108	99
Es	1.450164	-0.183092	0.149601	99
Es	3.583931	0.285302	-0.201293	99
Es	3.357852	1.140865	-0.020706	99
Es	4.207283	-0.161959	-0.454782	99
Es	0.995856	-0.019035	0.363262	99
Es	4.301050	-0.286905	-0.506177	99
Es	3.031581	1.146878	-0.325100	99
Es	3.533329	1.326768	0.026919	99
Es	3.022572	-0.660758	-0.077924	99
Es	3.219931	1.092710	0.183237	99
Es	3.309779	-0.972244	0.055874	99
Es	1.560028	-0.053110	0.268290	99
Es	3.270603	-1.430906	0.047990	99
Es	4.499923	0.072421	-0.651918	99
Es	4.389406	0.076411	-0.654009	99
Es	1.102549	-0.358064	0.274581	99
Es	3.256230	-0.823247	0.172021	99
