32
Properties=species:S:1:pos:R:3:Z:I:1 energy=-247.0224926993796 field_type=dipole dipole="0.000000 0.000000 0.000000" charge=0
O	0.914360	0.011060	-0.011300	8
C	2.356600	0.020020	-0.008300	6
C	3.047840	1.025050	0.938700	6
N	4.048420	-0.015980	1.273000	7
C	3.071240	-1.045280	0.851880	6
H	0.671200	-0.798680	-0.491350	1
H	2.742800	0.069770	-1.035210	1
H	2.438780	1.338400	1.794590	1
H	3.462280	1.915930	0.458210	1
H	4.878850	0.021950	0.681610	1
H	3.504010	-1.883500	0.298490	1
H	2.469820	-1.442650	1.677440	1
Es	3.406749	0.362604	1.108518	99
Es	3.465707	-0.347150	0.889603	99
Es	2.873114	1.190565	1.022153	99
Es	3.207087	-1.572517	0.702438	99
Es	2.383166	-0.198252	0.157399	99
Es	3.085930	-0.664737	0.738794	99
Es	2.966848	0.514448	0.572313	99
Es	3.944587	-0.142450	1.319300	99
Es	0.915132	0.138568	-0.095794	99
Es	2.629447	-0.081922	0.294658	99
Es	4.457617	0.002228	1.335222	99
Es	3.999218	0.025498	1.198177	99
Es	1.358611	-0.029933	0.123703	99
Es	3.043520	-1.089827	0.954970	99
Es	1.165736	0.130272	-0.031292	99
Es	0.771114	-0.405913	-0.291527	99
Es	3.207244	1.376735	0.672696	99
Es	1.039901	0.005756	0.005713	99
Es	2.358082	-0.249812	0.187403	99
Es	2.981996	0.750757	0.799647	99
