29
Properties=species:S:1:pos:R:3:Z:I:1 energy=-245.86172483789946 field_type=dipole dipole="0.000000 0.000000 0.000000" charge=0
O	1.039170	0.005620	0.211180	8
C	2.244490	-0.005770	0.080190	6
C	3.345650	1.062070	0.004600	6
N	4.232960	-0.008760	-0.496280	7
C	3.316020	-1.092680	-0.081410	6
H	3.632390	1.465830	0.978750	1
H	3.154970	1.870410	-0.704010	1
H	4.365760	0.029280	-1.510200	1
H	3.105580	-1.836720	-0.850470	1
H	3.591910	-1.579870	0.858590	1
Es	4.213801	0.072316	-0.542493	99
Es	2.906972	0.712672	0.009008	99
Es	3.597400	0.929392	-0.028298	99
Es	1.429722	-0.233975	0.116058	99
Es	3.894590	-0.395160	-0.314719	99
Es	1.238871	0.021601	0.189783	99
Es	1.288901	0.079812	0.207695	99
Es	0.853810	0.167992	0.253615	99
Es	3.581421	0.733642	-0.204567	99
Es	2.201345	-0.126025	0.074775	99
Es	1.274409	-0.006806	0.282712	99
Es	3.420611	-1.099416	-0.097529	99
Es	3.386816	0.935747	-0.110044	99
Es	3.921860	-0.365488	-0.440606	99
Es	3.407029	-1.062423	-0.004455	99
Es	2.593555	-0.535557	0.031476	99
Es	3.305944	-1.532164	-0.176971	99
Es	3.349126	1.538876	0.059615	99
Es	4.526964	0.021199	-0.693513	99
