26
Properties=species:S:1:pos:R:3:Z:I:1 energy=-244.6053224183889 field_type=dipole dipole="0.000000 0.000000 0.000000" charge=0
O	0.962240	0.075370	0.000000	8
N	2.357900	-0.048300	-0.000000	7
C	2.879440	1.127480	0.000000	6
C	4.313620	1.092510	0.000000	6
C	5.514840	1.069440	0.000000	6
H	0.671350	-0.856370	-0.000000	1
H	2.336460	2.084830	0.000000	1
H	6.579590	1.038460	-0.000000	1
Es	1.577802	0.029473	-0.000700	99
Es	6.208703	1.064251	-0.000322	99
Es	2.637979	0.494811	0.002062	99
Es	1.002443	0.053333	0.000267	99
Es	2.360451	-0.053072	0.000024	99
Es	2.556850	1.697489	-0.000492	99
Es	0.967638	0.071996	-0.001117	99
Es	2.584416	0.477745	-0.003728	99
Es	3.620263	1.122003	0.000996	99
Es	4.923380	1.433290	-0.000577	99
Es	5.514802	1.069466	-0.000038	99
Es	0.872530	0.248688	0.002191	99
Es	4.880305	1.079661	0.001555	99
Es	4.313321	1.092490	-0.000003	99
Es	4.904199	0.733332	-0.000731	99
Es	2.879574	1.127468	0.000005	99
Es	2.466700	-0.308579	0.001441	99
Es	0.729825	-0.328152	-0.000833	99
