30
Properties=species:S:1:pos:R:3:Z:I:1 energy=-567.3773093775268 field_type=dipole dipole="0.000000 0.000000 0.000000" charge=0
S	-0.394880	-1.165770	0.004570	16
C	-1.306010	0.284300	-0.023540	6
C	-0.434490	1.352600	-0.040750	6
C	0.911330	0.886670	-0.029330	6
N	1.093940	-0.430280	-0.005260	7
H	-2.386330	0.280050	-0.025920	1
H	-0.736610	2.390560	-0.060080	1
H	1.797720	1.508560	-0.038480	1
Es	-0.480313	-0.902440	0.000928	99
Es	-0.613172	0.802143	-0.032517	99
Es	1.224623	-0.524608	-0.003273	99
Es	1.014145	0.155916	-0.016477	99
Es	-0.515266	-1.649807	0.014384	99
Es	-0.368240	-1.032349	-0.001410	99
Es	-0.494654	-1.215611	-0.016011	99
Es	-0.390824	-1.167958	-0.010630	99
Es	-0.903724	0.825353	-0.031112	99
Es	-1.305993	0.284124	-0.023537	99
Es	0.935338	0.107255	-0.014896	99
Es	0.250540	1.152826	-0.035972	99
Es	1.391104	1.287314	-0.035428	99
Es	0.911337	0.886616	-0.029329	99
Es	0.452602	-0.730117	-0.001916	99
Es	-1.912661	0.298041	-0.024852	99
Es	-0.629181	2.041226	-0.052978	99
Es	-0.434481	1.352609	-0.040751	99
Es	-0.353502	-1.180262	0.012557	99
Es	-0.920510	-0.408404	-0.009089	99
Es	1.234509	-0.532125	-0.003127	99
Es	-0.366751	-1.229382	0.034684	99
