26
Properties=species:S:1:pos:R:3:Z:I:1 energy=-191.5983906975393 field_type=dipole dipole="0.000000 0.000000 0.000000" charge=0
C	1.000000	0.000000	0.000000	6
C	2.190160	0.000000	0.000000	6
C	3.634160	0.000000	0.000000	6
C	4.116180	1.361170	0.000000	6
C	4.513460	2.483070	0.000000	6
H	-0.065100	0.005800	0.000000	1
H	4.011960	-0.534570	-0.878530	1
H	4.011960	-0.534570	0.878530	1
H	4.863510	3.488950	0.000000	1
Es	4.028345	1.034439	-0.009282	99
Es	1.034977	0.000387	-0.000996	99
Es	2.186096	-0.001863	-0.000171	99
Es	1.603504	-0.009634	-0.064771	99
Es	4.390930	1.973132	-0.037574	99
Es	4.323511	1.940065	0.005953	99
Es	4.318683	1.927155	-0.000799	99
Es	1.548385	-0.017901	0.056905	99
Es	4.763125	3.130843	-0.000504	99
Es	3.248754	-0.031928	0.002517	99
Es	3.797338	-0.228897	0.026722	99
Es	1.579720	0.004520	0.003629	99
Es	3.977724	1.037196	-0.005468	99
Es	0.310733	0.034738	0.002229	99
Es	3.676111	-0.086519	-0.036104	99
Es	3.512392	-0.309894	0.019830	99
Es	4.444177	2.390084	0.037884	99
