35
Properties=species:S:1:pos:R:3:Z:I:1 energy=-195.21434506339656 field_type=dipole dipole="0.000000 0.000000 0.000000" charge=0
C	0.927100	-0.119570	0.005790	6
C	2.417390	0.004830	0.001430	6
C	3.112300	1.158770	0.000170	6
C	2.483820	2.524740	0.004230	6
C	4.617840	1.158240	-0.004790	6
H	0.644420	-1.176990	-0.006030	1
H	0.491300	0.348600	-0.881450	1
H	0.499240	0.327180	0.907810	1
H	2.959820	-0.939200	-0.000920	1
H	1.390660	2.492660	0.004730	1
H	2.796270	3.085950	-0.882500	1
H	2.797220	3.080820	0.893850	1
H	5.032060	0.144840	-0.004030	1
H	4.999550	1.674590	0.881650	1
H	4.993530	1.670960	-0.895890	1
Es	0.921020	-0.103985	0.009049	99
Es	2.720686	0.492244	-0.096732	99
Es	2.040867	2.488802	-0.011677	99
Es	4.772572	1.104691	-0.027794	99
Es	2.504361	2.545887	-0.032059	99
Es	2.999129	1.464110	0.000585	99
Es	4.586176	1.273413	0.121325	99
Es	3.051089	1.405444	0.014200	99
Es	2.501706	0.153167	0.063223	99
Es	0.775563	-0.219168	0.069468	99
Es	2.804174	-0.482322	0.017635	99
Es	0.580058	-0.331883	-0.011628	99
Es	4.782007	0.959724	-0.049830	99
Es	2.595497	2.975970	0.029876	99
Es	2.704147	0.500246	0.023447	99
Es	0.723381	0.098501	-0.038589	99
Es	4.871669	1.250857	-0.064410	99
Es	3.662426	1.278484	0.002451	99
Es	2.632495	2.779241	0.026690	99
Es	1.751099	-0.125514	-0.016276	99
