35
Properties=species:S:1:pos:R:3:Z:I:1 energy=-195.2286963556507 field_type=dipole dipole="0.000000 0.000000 0.000000" charge=0
C	-0.780440	-0.988640	-0.189520	6
C	-1.173920	0.406540	0.263320	6
C	-0.003160	1.254700	-0.203710	6
C	1.220020	0.386280	0.066850	6
C	0.720950	-1.058570	0.068710	6
H	-1.329920	-1.771370	0.341890	1
H	-0.978500	-1.105340	-1.261580	1
H	-1.259330	0.443520	1.355320	1
H	-2.123580	0.732780	-0.169000	1
H	-0.088620	1.452740	-1.279520	1
H	0.048300	2.217850	0.313100	1
H	1.998430	0.548340	-0.685010	1
H	1.651480	0.630470	1.044180	1
H	1.226960	-1.666160	-0.688520	1
H	0.919500	-1.518590	1.044240	1
Es	0.740843	-1.183944	0.114816	99
Es	-0.603419	0.688981	0.092385	99
Es	-0.028880	1.590499	-0.296479	99
Es	1.232856	0.524875	0.245883	99
Es	0.650052	0.825006	-0.163850	99
Es	-0.957143	0.243584	0.129672	99
Es	0.012308	1.518518	-0.141967	99
Es	-0.485934	0.709724	0.086923	99
Es	1.323788	0.279354	-0.019699	99
Es	-0.896334	-1.155396	-0.324013	99
Es	1.046851	-1.508144	-0.050679	99
Es	0.452553	-1.145493	0.092689	99
Es	-1.150129	0.116974	0.163852	99
Es	1.494347	0.274338	-0.235787	99
Es	-1.024685	-1.358801	0.007238	99
Es	0.284259	-1.087954	-0.091828	99
Es	-1.012946	0.594384	0.076711	99
Es	1.063249	0.322258	0.291010	99
Es	-1.103796	-0.424017	-0.149785	99
Es	-1.053099	0.157537	0.197459	99
