29
Properties=species:S:1:pos:R:3:Z:I:1 energy=-192.82295532626603 field_type=dipole dipole="0.000000 0.000000 0.000000" charge=0
C	1.000000	0.000000	0.000000	6
C	2.444000	0.000000	0.000000	6
C	3.634160	0.000000	0.000000	6
C	5.040160	0.000000	0.000000	6
C	5.741920	1.137870	0.000000	6
H	0.605990	1.020880	0.011680	1
H	0.605920	-0.520520	0.878250	1
H	0.605920	-0.500290	-0.889930	1
H	5.554470	-0.956340	-0.000000	1
H	5.255610	2.108800	0.000000	1
H	6.826820	1.118970	0.000000	1
Es	5.459773	1.691463	-0.018821	99
Es	6.478205	1.152248	-0.008873	99
Es	4.966354	-0.002245	0.000429	99
Es	0.653921	-0.409421	-0.030831	99
Es	5.396719	0.544834	-0.017145	99
Es	3.634329	-0.000022	0.000051	99
Es	2.981182	-0.214868	0.118063	99
Es	0.921249	-0.100546	-0.009281	99
Es	0.779623	0.530898	0.043692	99
Es	5.334352	-0.568590	-0.002572	99
Es	2.778337	0.080369	0.024236	99
Es	4.386753	-0.000706	-0.001414	99
Es	5.443957	0.736100	0.052127	99
Es	0.897690	-0.037819	-0.003346	99
Es	2.906584	0.044045	-0.247047	99
Es	1.759958	-0.011949	0.009443	99
Es	2.946022	0.105969	0.092178	99
Es	5.633668	0.998405	-0.000886	99
