35
Properties=species:S:1:pos:R:3:Z:I:1 energy=-195.21523734180846 field_type=dipole dipole="0.000000 0.000000 0.000000" charge=0
C	2.217980	-0.593650	1.417490	6
C	2.712630	-0.098500	0.067400	6
C	3.152550	1.335490	0.136840	6
C	4.405290	1.747250	-0.111760	6
C	4.842850	3.174500	-0.049020	6
H	1.890680	-1.635330	1.340920	1
H	1.369850	0.001500	1.772100	1
H	3.010200	-0.542070	2.171790	1
H	1.906100	-0.183380	-0.670060	1
H	3.529250	-0.744160	-0.276700	1
H	2.387460	2.064490	0.397070	1
H	5.171360	1.021470	-0.376650	1
H	4.023550	3.847330	0.222830	1
H	5.233100	3.487400	-1.022180	1
H	5.638340	3.287670	0.693710	1
Es	2.247521	-0.478314	1.256111	99
Es	4.796451	3.312354	0.124055	99
Es	1.917298	-1.237711	1.386411	99
Es	4.102048	2.000587	-0.031042	99
Es	4.850505	3.184925	0.144653	99
Es	4.818622	3.274542	0.057712	99
Es	2.578034	-0.286659	0.924192	99
Es	3.742927	1.523699	-0.173669	99
Es	3.019159	0.062980	0.015090	99
Es	1.876263	-0.306078	1.471888	99
Es	3.300610	0.979308	0.087345	99
Es	2.252394	-0.515799	1.139753	99
Es	2.424176	-0.292367	0.446450	99
Es	3.194727	0.850915	0.081648	99
Es	4.294578	1.870679	-0.066350	99
Es	4.567685	1.209823	-0.189396	99
Es	3.157963	1.419621	0.038021	99
Es	5.203535	3.409958	-0.553342	99
Es	2.732614	-0.101162	0.139246	99
Es	3.993373	2.118559	0.214962	99
