35
Properties=species:S:1:pos:R:3:Z:I:1 energy=-195.21444986803473 field_type=dipole dipole="0.000000 0.000000 0.000000" charge=0
C	2.089170	-0.318150	1.491470	6
C	2.486260	0.047380	0.068150	6
C	3.076250	1.433680	-0.036070	6
C	2.131770	2.589560	0.140390	6
C	4.378540	1.626300	-0.307580	6
H	1.715660	-1.346820	1.524870	1
H	1.296250	0.335640	1.868060	1
H	2.944500	-0.246870	2.171830	1
H	1.611200	-0.024630	-0.588910	1
H	3.202230	-0.700380	-0.295710	1
H	1.301200	2.512960	-0.568790	1
H	2.624910	3.552140	-0.031060	1
H	1.723880	2.603610	1.155780	1
H	5.059290	0.792180	-0.446850	1
H	4.799850	2.622930	-0.395090	1
Es	2.297995	-0.191043	0.973582	99
Es	1.646255	2.624329	0.181681	99
Es	2.778047	2.099750	0.100141	99
Es	3.653250	1.580225	-0.353385	99
Es	2.283021	-0.146453	1.121961	99
Es	4.179259	1.551864	-0.338858	99
Es	3.574201	1.288197	-0.194624	99
Es	2.745602	1.035179	0.055407	99
Es	1.995361	-0.609082	1.422403	99
Es	2.750752	0.495873	0.030377	99
Es	4.644079	1.107987	-0.351710	99
Es	4.593892	2.207122	-0.359001	99
Es	2.276745	-0.073480	0.775152	99
Es	2.353194	2.102846	0.196522	99
Es	2.894736	-0.251472	-0.050229	99
Es	2.732021	1.379186	0.156312	99
Es	1.701727	0.082415	1.358748	99
Es	2.248274	2.483992	0.071154	99
Es	1.974516	-0.608060	1.417241	99
Es	2.361800	3.041021	0.041303	99
