32
Properties=species:S:1:pos:R:3:Z:I:1 energy=-194.01381282099365 field_type=dipole dipole="0.000000 0.000000 0.000000" charge=0
C	1.000100	-0.054430	0.003300	6
C	2.520000	0.000000	0.000000	6
C	3.002020	1.361170	0.000000	6
C	3.399300	2.483070	0.000000	6
C	3.881320	3.844240	0.000000	6
H	0.658010	-1.093690	0.002930	1
H	0.585000	0.441080	-0.880450	1
H	0.588880	0.439250	0.889780	1
H	2.895610	-0.532710	-0.880860	1
H	2.899470	-0.534100	0.878360	1
H	3.087590	4.543290	-0.280880	1
H	4.704760	3.970710	-0.709590	1
H	4.246140	4.133100	0.990470	1
Es	0.886260	0.087639	0.006944	99
Es	3.134361	1.863819	0.018539	99
Es	3.778602	4.191416	0.035846	99
Es	3.870798	3.996121	0.050321	99
Es	1.591293	0.195365	0.057775	99
Es	2.383879	0.191716	0.003502	99
Es	0.988881	0.091366	-0.234428	99
Es	3.590822	3.170649	-0.018030	99
Es	0.769275	-0.712763	0.015797	99
Es	4.181707	3.902406	-0.062900	99
Es	3.963150	3.916692	-0.000955	99
Es	1.064428	0.060133	0.214011	99
Es	2.687963	0.304833	-0.073366	99
Es	2.610065	-0.110209	0.032792	99
Es	3.112487	1.946649	-0.252480	99
Es	2.904945	-0.219679	0.026637	99
Es	3.036123	1.347112	-0.033218	99
Es	3.339225	2.234100	0.097907	99
Es	3.350184	2.124834	0.130067	99
