28
Properties=species:S:1:pos:R:3:Z:I:1 energy=-208.88606122989316 field_type=dipole dipole="0.000000 0.000000 0.000000" charge=0
N	-1.132550	-0.000110	0.000540	7
C	-0.339850	1.118170	0.000220	6
C	0.974360	0.707850	-0.000140	6
C	0.974390	-0.708020	-0.000040	6
C	-0.339970	-1.118460	0.000380	6
H	-2.144610	-0.000140	0.000840	1
H	-0.778180	2.106730	0.000280	1
H	1.840060	1.357210	-0.000440	1
H	1.840150	-1.357610	-0.000240	1
H	-0.778210	-2.107140	0.000590	1
Es	-0.340181	-1.118366	0.000380	99
Es	0.383591	-0.794331	0.000172	99
Es	-0.633673	-1.780700	0.000551	99
Es	0.974396	0.707866	-0.000140	99
Es	-0.825750	-0.498601	0.001276	99
Es	0.321360	0.960569	0.000092	99
Es	-1.001253	-0.012883	0.003669	99
Es	-0.641551	1.786863	0.000322	99
Es	1.556415	1.142467	-0.000402	99
Es	0.974426	-0.708036	-0.000040	99
Es	-1.106971	-0.001948	-0.004489	99
Es	1.022432	0.000330	-0.000236	99
Es	-0.823497	0.500402	0.001147	99
Es	1.562057	-1.146281	-0.000272	99
Es	0.321171	-0.961885	0.000212	99
Es	0.359025	0.808695	0.000019	99
Es	-1.734928	-0.004488	0.001125	99
Es	-0.340062	1.118076	0.000220	99
