35
Properties=species:S:1:pos:R:3:Z:I:1 energy=-195.1968026626224 field_type=dipole dipole="0.000000 0.000000 0.000000" charge=0
C	0.968550	-0.010700	0.013230	6
C	2.482920	0.017310	0.020920	6
C	3.152800	1.050480	0.962350	6
C	4.242060	-0.008840	1.228730	6
C	3.193050	-1.077930	0.857450	6
H	0.602100	-0.870470	-0.558020	1
H	0.568830	0.896520	-0.452000	1
H	0.559450	-0.079220	1.026400	1
H	2.878160	0.075690	-1.003370	1
H	2.564630	1.306320	1.851540	1
H	3.497200	1.972660	0.487000	1
H	5.086610	0.041240	0.531550	1
H	4.624840	-0.052040	2.251460	1
H	3.571070	-1.934960	0.294740	1
H	2.616940	-1.441390	1.716350	1
Es	2.761645	0.044714	0.435844	99
Es	4.705811	-0.004763	1.409840	99
Es	3.210454	1.020669	1.010795	99
Es	0.991130	0.091084	0.125828	99
Es	0.721247	0.430046	-0.144610	99
Es	4.443800	0.011844	1.299451	99
Es	3.107654	-0.760145	0.743682	99
Es	1.470438	0.016523	0.101014	99
Es	2.800418	0.123002	0.502165	99
Es	3.265036	-0.496327	0.942523	99
Es	3.316274	1.496856	0.760667	99
Es	3.140429	-0.062178	0.768236	99
Es	1.983636	0.067781	0.090306	99
Es	2.006995	0.244837	0.286959	99
Es	2.540933	0.543636	0.656649	99
Es	3.310752	-1.653859	0.621832	99
Es	4.051015	-0.000532	1.176259	99
Es	3.893853	0.274173	1.105635	99
Es	0.753485	-0.599009	-0.360423	99
Es	2.925566	-0.920704	0.797670	99
