28
Properties=species:S:1:pos:R:3:Z:I:1 energy=-208.7873893656514 field_type=dipole dipole="0.000000 0.000000 0.000000" charge=0
C	0.989480	-0.009530	-0.070330	6
C	2.189930	-0.016690	-0.031260	6
C	3.620100	-0.023800	0.017620	6
C	4.381150	-0.775280	-1.044030	6
N	4.350080	0.680620	-1.035330	7
H	-0.074310	0.003600	-0.113370	1
H	4.062980	0.023500	1.007470	1
H	3.830390	-1.255010	-1.843980	1
H	5.317660	-1.246060	-0.774630	1
H	5.216940	1.069270	-0.663770	1
Es	2.040072	0.141272	-0.074518	99
Es	2.251061	0.015470	-0.047718	99
Es	1.370729	-0.180445	-0.024359	99
Es	1.313796	-0.108376	0.050061	99
Es	2.095810	-0.116995	-0.177822	99
Es	4.428038	-0.363138	-1.074960	99
Es	4.060434	0.251001	-0.680059	99
Es	4.103344	0.077316	-0.678841	99
Es	4.002911	-0.801573	-0.914186	99
Es	4.695270	0.758486	-0.878281	99
Es	3.952025	0.027808	-0.349067	99
Es	0.393283	-0.021154	0.014161	99
Es	4.848191	-0.807351	-0.977906	99
Es	3.801146	0.245548	-0.327663	99
Es	4.165503	0.276400	-0.715723	99
Es	4.361224	-0.093913	-0.901696	99
Es	1.785060	0.177997	0.083180	99
Es	4.130628	-0.175254	-0.628519	99
