37
Properties=species:S:1:pos:R:3:Z:I:1 energy=-212.4000269254836 field_type=dipole dipole="0.000000 0.000000 0.000000" charge=0
C	1.009800	-0.022160	0.018290	6
C	2.538770	-0.006200	-0.039880	6
C	3.020240	-0.799120	-1.258020	6
C	3.046710	1.445580	-0.055620	6
N	4.502680	1.516570	-0.006390	7
H	0.648970	0.506330	0.906690	1
H	0.633210	-1.049200	0.065670	1
H	0.573400	0.458720	-0.863500	1
H	2.914500	-0.504680	0.863750	1
H	2.693880	-0.328100	-2.191310	1
H	2.621760	-1.819010	-1.237580	1
H	4.111860	-0.874690	-1.278730	1
H	2.640660	1.989650	0.805000	1
H	2.697240	1.958350	-0.959010	1
H	4.838770	1.069580	0.845530	1
H	4.792330	2.491610	0.048180	1
Es	3.361787	-0.664425	-1.419005	99
Es	1.378706	0.160901	0.200411	99
Es	0.929285	-0.343268	-0.029965	99
Es	3.290343	-0.788491	-1.097852	99
Es	2.722504	-0.204944	-0.512217	99
Es	3.383220	1.164074	-0.099866	99
Es	2.837340	-0.921118	-1.397245	99
Es	2.780297	-1.090436	-1.090906	99
Es	3.126529	1.478260	0.188110	99
Es	2.593443	-0.094787	-0.279635	99
Es	4.463411	1.807039	0.035599	99
Es	2.900061	1.180429	0.007529	99
Es	0.871412	0.046188	-0.156696	99
Es	4.492714	1.537636	0.051905	99
Es	1.249434	0.118912	0.019137	99
Es	2.809391	-0.122193	-0.172127	99
Es	4.459026	1.472805	-0.059032	99
Es	3.116411	1.307951	0.175952	99
Es	4.520657	1.635299	0.147618	99
Es	0.747770	-0.036386	0.051296	99
Es	3.197141	1.405718	-0.210027	99
