31
Properties=species:S:1:pos:R:3:Z:I:1 energy=-210.07047842207794 field_type=dipole dipole="0.000000 0.000000 0.000000" charge=0
C	0.993260	-0.029940	0.010760	6
C	2.520000	0.000000	0.000000	6
C	3.059850	-0.762120	-1.208950	6
C	3.002020	1.361170	0.000000	6
N	3.386230	2.446160	0.000000	7
H	0.596440	0.489730	0.890760	1
H	0.623380	-1.060860	0.036040	1
H	0.574530	0.458010	-0.877500	1
H	2.875360	-0.505970	0.906020	1
H	2.732020	-0.306670	-2.150500	1
H	2.716850	-1.802100	-1.198580	1
H	4.155640	-0.770530	-1.209700	1
Es	3.356529	2.374138	0.000525	99
Es	3.093265	-0.700885	-1.351635	99
Es	2.775230	-0.495869	-0.762942	99
Es	0.693339	0.271766	0.510258	99
Es	3.249141	2.026068	-0.040215	99
Es	3.472598	2.568950	0.157247	99
Es	2.594621	-0.296056	-0.372425	99
Es	0.964659	-0.082919	-0.067662	99
Es	0.941522	-0.134199	-0.206265	99
Es	3.016086	1.507968	-0.047241	99
Es	2.783471	-1.399206	-1.189824	99
Es	1.113354	-0.266446	-0.025514	99
Es	2.656744	1.371157	-0.060679	99
Es	2.591360	-0.316654	-0.555028	99
Es	3.586957	-0.627599	-1.356355	99
Es	2.438422	0.040226	-0.034179	99
Es	3.466470	1.977168	-0.024217	99
Es	2.926079	1.267021	-0.005345	99
Es	2.153373	-0.140013	0.049612	99
