37
Properties=species:S:1:pos:R:3:Z:I:1 energy=-212.4007502531623 field_type=dipole dipole="0.000000 0.000000 0.000000" charge=0
C	0.970200	-0.079790	0.060600	6
C	2.489240	0.015520	0.088870	6
C	3.009650	1.459820	0.030250	6
C	2.592630	2.292150	1.242500	6
N	4.472850	1.427120	-0.057660	7
H	0.661290	-1.128780	0.002280	1
H	0.558790	0.442670	-0.809330	1
H	0.523340	0.345140	0.964580	1
H	2.880490	-0.545400	-0.769350	1
H	2.859860	-0.487950	0.990150	1
H	2.628940	1.942190	-0.878130	1
H	2.909190	1.822240	2.179600	1
H	1.506970	2.422300	1.276920	1
H	3.034500	3.293940	1.200870	1
H	4.858910	1.000910	0.784470	1
H	4.835960	2.379480	-0.082810	1
Es	2.512232	1.805291	0.556055	99
Es	4.097565	1.436515	0.230401	99
Es	2.596993	0.101134	0.106562	99
Es	0.811717	-0.655386	0.033826	99
Es	2.641594	2.416171	1.184408	99
Es	4.510875	1.352295	-0.147034	99
Es	4.395385	1.369393	-0.011463	99
Es	2.785005	-0.278120	-0.258627	99
Es	4.226371	1.311318	-0.072800	99
Es	2.978501	1.636786	0.476766	99
Es	1.107170	0.017778	-0.061874	99
Es	2.776797	0.744140	0.034633	99
Es	0.824436	0.059212	-0.115813	99
Es	2.533050	0.136470	0.090027	99
Es	2.779301	2.639806	1.163925	99
Es	4.484693	1.720588	-0.048518	99
Es	2.470450	2.157230	1.469069	99
Es	2.942454	1.689343	0.358032	99
Es	2.791245	1.864004	0.873782	99
Es	0.751306	0.187943	0.589670	99
Es	1.500634	0.022732	-0.064542	99
