31
Properties=species:S:1:pos:R:3:Z:I:1 energy=-210.0696960896681 field_type=dipole dipole="0.000000 0.000000 0.000000" charge=0
C	0.960290	-0.046560	-0.004030	6
C	2.480370	-0.011390	-0.002790	6
C	3.007940	1.421820	0.008120	6
C	4.475740	1.444300	0.009160	6
N	5.637400	1.464130	0.009990	7
H	0.605150	-1.081810	-0.011890	1
H	0.556950	0.457600	-0.888040	1
H	0.555810	0.444530	0.886790	1
H	2.853680	-0.542830	-0.886960	1
H	2.852550	-0.555810	0.873910	1
H	2.634030	1.949300	0.893340	1
H	2.635080	1.962330	-0.869660	1
Es	5.183815	1.478186	0.008325	99
Es	0.821661	-0.570379	0.009977	99
Es	5.115829	1.419416	0.253181	99
Es	0.868271	0.111061	0.036127	99
Es	3.281928	1.485273	-0.074392	99
Es	4.798574	1.416698	-0.119809	99
Es	2.670501	0.097862	-0.265591	99
Es	0.830062	0.084301	-0.025622	99
Es	5.578673	1.475311	0.017053	99
Es	5.835268	1.480486	0.016575	99
Es	2.880430	1.363049	0.041754	99
Es	2.676502	-0.261681	0.310121	99
Es	4.787163	1.418784	-0.120120	99
Es	2.880162	1.858670	0.154513	99
Es	2.711033	0.276743	-0.182486	99
Es	3.314078	1.446378	-0.013086	99
Es	0.786103	0.195447	0.030992	99
Es	2.660751	0.123944	0.062277	99
Es	1.637013	0.013313	-0.074074	99
