34
Properties=species:S:1:pos:R:3:Z:I:1 energy=-211.20834105254823 field_type=dipole dipole="0.000000 0.000000 0.000000" charge=0
C	0.897680	-0.090540	-0.101450	6
C	2.414300	0.036010	0.029170	6
N	3.079220	-0.705930	-1.037720	7
C	2.841070	1.472970	-0.038530	6
C	3.431270	2.135930	0.966700	6
H	0.391310	0.447700	0.707830	1
H	0.586650	-1.139870	-0.046120	1
H	0.534380	0.317960	-1.051900	1
H	2.719100	-0.401620	0.987600	1
H	2.712070	-0.408030	-1.939520	1
H	2.842450	-1.692980	-0.954800	1
H	2.656410	2.003330	-0.969900	1
H	3.649040	1.656130	1.915110	1
H	3.721200	3.175240	0.850100	1
Es	2.904651	-0.888701	-0.982354	99
Es	2.727078	-0.452972	-0.595430	99
Es	2.541236	0.166402	-0.019666	99
Es	3.367411	1.975046	0.924605	99
Es	2.884790	-0.486363	-0.786327	99
Es	0.807869	-0.389477	-0.196309	99
Es	3.627509	2.828166	0.896032	99
Es	1.613727	0.157804	0.093942	99
Es	0.825489	-0.146351	-0.010072	99
Es	2.942131	1.335762	0.145287	99
Es	2.895353	1.474500	0.108042	99
Es	2.701111	0.467764	0.091897	99
Es	1.871593	0.126535	-0.061046	99
Es	3.292556	1.740558	0.358594	99
Es	0.902212	-0.092542	-0.385037	99
Es	2.776574	1.857656	0.621800	99
Es	1.463454	0.076786	-0.067489	99
Es	3.227440	-0.816939	-1.285071	99
Es	2.713291	-0.531911	-1.158859	99
Es	3.504868	1.816954	1.005907	99
