31
Properties=species:S:1:pos:R:3:Z:I:1 energy=-209.99963608788102 field_type=dipole dipole="0.000000 0.000000 0.000000" charge=0
C	0.992360	-0.041010	-0.013300	6
C	2.520000	0.000000	0.000000	6
N	3.052150	-0.704450	-1.163190	7
C	3.002020	1.361170	0.000000	6
C	3.399300	2.483070	0.000000	6
H	0.582890	0.470910	0.864140	1
H	0.627420	-1.073170	0.002990	1
H	0.581130	0.450200	-0.902340	1
H	2.874050	-0.514520	0.900340	1
H	2.745330	-0.225720	-2.008670	1
H	2.652040	-1.639060	-1.204770	1
H	3.763430	3.484260	-0.003080	1
Es	2.951711	2.068809	0.116413	99
Es	2.938406	-0.596197	-1.126078	99
Es	0.924857	0.078968	0.079941	99
Es	2.998663	1.527660	-0.110623	99
Es	3.313689	1.704776	-0.226977	99
Es	2.884435	-0.473702	-0.730396	99
Es	2.812690	-1.278857	-1.204735	99
Es	2.867744	-0.134006	-0.432328	99
Es	2.117186	-0.167487	0.028518	99
Es	0.962952	-0.537091	-0.040521	99
Es	2.689037	0.701208	-0.056693	99
Es	3.394263	2.329869	0.088475	99
Es	3.590528	2.531633	0.177026	99
Es	3.046771	-0.433271	-1.244300	99
Es	3.361000	2.431283	0.007020	99
Es	0.946422	0.253272	0.206365	99
Es	2.906787	-0.444553	-0.724831	99
Es	1.167249	-0.081433	0.003241	99
Es	1.632630	-0.015157	-0.090011	99
