34
Properties=species:S:1:pos:R:3:Z:I:1 energy=-211.17805162430503 field_type=dipole dipole="0.000000 0.000000 0.000000" charge=0
C	1.068100	-0.003810	0.067900	6
N	2.522880	0.030370	-0.020450	7
C	3.082210	1.029950	0.926380	6
C	4.173990	-0.004650	1.261490	6
C	3.124520	-1.041830	0.814540	6
H	0.681100	-0.855040	-0.502950	1
H	0.646070	0.904250	-0.376270	1
H	0.688600	-0.085030	1.093940	1
H	2.446860	1.290240	1.782870	1
H	3.441370	1.951630	0.459450	1
H	5.056330	0.048160	0.613070	1
H	4.491310	-0.054300	2.305450	1
H	3.520360	-1.892530	0.252520	1
H	2.503550	-1.418200	1.637510	1
Es	4.205839	0.356823	1.173292	99
Es	1.846407	0.079844	0.187294	99
Es	3.866418	-0.361854	1.229867	99
Es	3.172367	-1.297301	0.705727	99
Es	3.200211	-1.152438	0.667744	99
Es	2.761938	-0.512429	0.548311	99
Es	3.793564	-0.177783	0.973997	99
Es	0.742596	0.412930	-0.140156	99
Es	2.807362	-0.833602	0.829794	99
Es	3.336007	0.233589	0.698885	99
Es	1.725852	0.069031	0.161852	99
Es	1.809177	-0.010937	0.072538	99
Es	1.037273	0.014313	0.214811	99
Es	2.838626	0.997668	0.925231	99
Es	2.566023	0.126937	0.246420	99
Es	3.054338	1.570172	0.854702	99
Es	4.208223	0.016680	1.344052	99
Es	0.836986	-0.444979	-0.132431	99
Es	4.123037	0.155812	1.319879	99
Es	3.007396	0.754765	0.761107	99
