37
Properties=species:S:1:pos:R:3:Z:I:1 energy=-212.39231886926564 field_type=dipole dipole="0.000000 0.000000 0.000000" charge=0
C	0.980400	-0.043850	0.028040	6
N	2.427110	0.053340	0.177870	7
C	2.921230	1.433650	0.071720	6
C	2.527310	2.279250	1.284630	6
C	4.447500	1.392260	-0.051780	6
H	0.688620	-1.098520	0.039800	1
H	0.643840	0.384660	-0.920780	1
H	0.451880	0.442200	0.852910	1
H	2.865080	-0.515270	-0.547150	1
H	2.526450	1.901660	-0.839610	1
H	2.862350	1.817190	2.219190	1
H	1.444310	2.421350	1.343410	1
H	2.980390	3.274620	1.222820	1
H	4.909230	0.930890	0.827820	1
H	4.853870	2.404100	-0.153670	1
H	4.755940	0.823390	-0.935350	1
Es	1.668890	-0.015199	-0.118893	99
Es	2.711324	1.779790	0.783453	99
Es	4.099943	1.314836	-0.075404	99
Es	1.153436	0.056614	-0.171942	99
Es	2.812785	1.625882	0.819682	99
Es	2.355517	0.002157	0.153337	99
Es	1.565976	0.037561	-0.009148	99
Es	4.606567	1.435364	0.143584	99
Es	1.841905	0.037163	0.103091	99
Es	0.754545	-0.630501	-0.119403	99
Es	2.594103	0.080796	-0.167201	99
Es	3.762993	1.381661	0.016356	99
Es	2.804835	1.358195	0.021196	99
Es	1.825746	2.388751	1.313147	99
Es	2.670226	2.471706	1.399129	99
Es	4.741124	1.804218	0.159587	99
Es	2.666105	2.409200	1.254610	99
Es	2.856013	1.622440	0.564579	99
Es	4.639064	1.037377	-0.403212	99
Es	0.659523	0.283744	0.538757	99
Es	2.846011	1.247112	0.075248	99
