31
Properties=species:S:1:pos:R:3:Z:I:1 energy=-209.98900187975642 field_type=dipole dipole="0.000000 0.000000 0.000000" charge=0
C	0.996500	-0.048860	-0.013320	6
N	2.450330	0.004980	0.006740	7
C	2.923660	1.385920	0.026200	6
C	4.392130	1.402460	-0.008380	6
C	5.592380	1.416140	-0.037320	6
H	0.670450	-1.093670	-0.020950	1
H	0.587640	0.437100	-0.905230	1
H	0.570000	0.422000	0.878310	1
H	2.819870	-0.454840	-0.824290	1
H	2.576740	1.891640	0.934570	1
H	2.535290	1.938630	-0.837230	1
H	6.658080	1.421490	-0.057320	1
Es	5.339959	1.502276	-0.122386	99
Es	6.266704	1.457525	-0.063661	99
Es	3.634418	1.438491	0.065601	99
Es	2.651217	-0.027680	-0.137800	99
Es	0.672088	0.272792	0.073545	99
Es	2.525837	-0.014341	-0.261596	99
Es	2.401773	0.000455	0.028987	99
Es	2.747115	0.822346	0.071841	99
Es	4.402563	1.389434	-0.018844	99
Es	5.005078	1.422574	-0.006764	99
Es	5.249636	1.549809	-0.104002	99
Es	2.628937	1.726316	0.033036	99
Es	2.861116	1.154275	0.086958	99
Es	0.899579	-0.481910	-0.022587	99
Es	1.170949	0.024828	-0.092677	99
Es	4.986485	1.149959	0.143736	99
Es	2.759198	1.440372	-0.035556	99
Es	1.041301	-0.053969	-0.042163	99
Es	1.360194	-0.039049	0.012034	99
