27
Properties=species:S:1:pos:R:3:Z:I:1 energy=-224.84795128380665 field_type=dipole dipole="0.000000 0.000000 0.000000" charge=0
N	0.958890	-0.049820	-0.116520	7
C	2.119210	-0.014680	-0.083660	6
C	3.555060	-0.000290	-0.010630	6
C	4.340470	-0.770320	-1.043620	6
N	4.347690	0.685800	-1.041550	7
H	3.963510	0.044810	0.993150	1
H	3.812960	-1.237870	-1.867240	1
H	5.254390	-1.264610	-0.738860	1
H	5.213700	1.052430	-0.643350	1
Es	4.124435	-0.417945	-0.927453	99
Es	1.180247	-0.044463	-0.114597	99
Es	2.827251	0.069151	-0.100617	99
Es	3.911286	0.317214	-0.447435	99
Es	4.150385	0.095764	-0.780278	99
Es	3.405957	0.061556	-0.090513	99
Es	4.474514	0.223837	-0.828982	99
Es	3.741382	-0.542510	-0.529778	99
Es	4.611816	-1.063390	-1.149642	99
Es	1.135196	-0.096862	0.006277	99
Es	1.674019	-0.106919	-0.125668	99
Es	4.149563	0.367969	-0.569765	99
Es	1.002206	-0.045247	-0.071082	99
Es	1.811720	0.042796	-0.081890	99
Es	4.339419	-0.460463	-0.967345	99
Es	1.596711	-0.044799	-0.071907	99
Es	4.590297	0.251436	-0.977757	99
Es	4.484408	0.661509	-0.868055	99
