27
Properties=species:S:1:pos:R:3:Z:I:1 energy=-224.89096664315335 field_type=dipole dipole="0.000000 0.000000 0.000000" charge=0
N	0.981130	-0.098330	0.000000	7
C	2.336590	0.008380	0.000000	6
C	3.053520	1.137990	0.000000	6
C	4.459520	1.137990	0.000000	6
N	5.610530	1.137990	0.000000	7
H	0.541680	-1.013380	0.000000	1
H	0.390260	0.725670	0.000000	1
H	2.835350	-0.961790	0.000000	1
H	2.559320	2.101760	-0.000000	1
Es	5.066224	0.838642	0.024583	99
Es	4.459124	1.138116	-0.000017	99
Es	5.609499	1.137497	-0.000183	99
Es	3.042296	1.123421	-0.009697	99
Es	1.576703	-0.039517	-0.006465	99
Es	2.725489	1.764622	0.007944	99
Es	5.123697	1.131716	-0.001067	99
Es	2.635468	-0.588099	0.000014	99
Es	1.096092	-0.090253	-0.017959	99
Es	2.342466	0.004856	0.000131	99
Es	0.829547	0.113586	-0.004840	99
Es	3.792845	1.131274	0.005477	99
Es	0.676045	-0.586252	0.023308	99
Es	5.990460	1.148634	-0.001313	99
Es	2.893633	0.757551	0.088228	99
Es	5.069511	1.427611	-0.022087	99
Es	0.827243	0.125024	0.007382	99
Es	2.726134	0.554503	-0.093440	99
