30
Properties=species:S:1:pos:R:3:Z:I:1 energy=-229.87326847198776 field_type=dipole dipole="0.000000 0.000000 0.000000" charge=0
C	-1.211320	0.015930	-0.153330	6
C	-0.373420	-1.237490	0.086550	6
C	0.997610	-0.694080	-0.021250	6
C	0.921200	0.627840	-0.089480	6
O	-0.345620	1.169090	-0.061570	8
H	-1.658590	0.007200	-1.154140	1
H	-2.017240	0.113580	0.581080	1
H	-0.586130	-2.010010	-0.657450	1
H	-0.549650	-1.652050	1.084420	1
H	1.907570	-1.274070	-0.005930	1
H	1.721420	1.348620	-0.134180	1
Es	-0.353400	1.173124	-0.089339	99
Es	1.460808	1.116245	-0.104391	99
Es	-0.538029	-1.666635	0.138197	99
Es	-0.406642	-1.388267	-0.070904	99
Es	0.847480	0.642201	-0.079439	99
Es	1.095125	-0.437248	-0.048470	99
Es	-0.278103	1.111892	-0.095684	99
Es	0.754985	-0.395964	-0.110625	99
Es	-0.914250	-0.628471	-0.038814	99
Es	-1.497409	0.005972	0.023095	99
Es	-1.193691	0.229856	-0.408319	99
Es	-1.406610	-0.012996	-0.088480	99
Es	-0.307105	1.434822	-0.037079	99
Es	1.352350	-1.045003	0.052266	99
Es	0.904096	-0.394875	0.009102	99
Es	-0.476354	-1.328833	0.213990	99
Es	0.138202	0.878998	-0.040935	99
Es	0.710024	-0.631206	-0.000981	99
Es	-0.863326	0.568309	-0.143228	99
