27
Properties=species:S:1:pos:R:3:Z:I:1 energy=-228.70709881397886 field_type=dipole dipole="0.000000 0.000000 0.000000" charge=0
O	-0.356660	-1.084960	-0.004270	8
C	-1.138610	0.025200	-0.002180	6
C	-0.361770	1.159620	0.001080	6
C	0.983220	0.717060	0.000980	6
C	0.932560	-0.658210	-0.002330	6
H	-2.204650	-0.154330	-0.003360	1
H	-0.721390	2.179360	0.003260	1
H	1.878800	1.321310	0.003060	1
H	1.682380	-1.436310	-0.003650	1
Es	1.439803	-1.171717	-0.014875	99
Es	-1.130192	0.039584	-0.003416	99
Es	0.999315	0.019725	0.000567	99
Es	-0.782985	0.593428	-0.126920	99
Es	-0.664794	0.591630	0.111030	99
Es	-0.613409	1.840157	0.005838	99
Es	-0.347707	-1.062466	0.001790	99
Es	-0.281885	-0.970446	-0.067763	99
Es	-0.002893	-0.963552	0.070184	99
Es	1.580731	1.121547	-0.001878	99
Es	-1.857443	-0.086662	0.013586	99
Es	0.331661	0.998546	0.007542	99
Es	-0.476308	-1.398114	0.000991	99
Es	0.903420	0.124839	0.003174	99
Es	0.935740	-0.662231	-0.002272	99
Es	-0.548839	-0.625776	-0.024346	99
Es	-0.362979	1.160545	0.000982	99
Es	0.991326	0.722929	0.000816	99
