30
Properties=species:S:1:pos:R:3:Z:I:1 energy=-229.8281417870699 field_type=dipole dipole="0.000000 0.000000 0.000000" charge=0
C	2.156180	-0.911160	-1.164720	6
C	2.155480	0.124990	-0.315980	6
C	3.252030	1.074760	-0.113030	6
C	3.425730	2.202270	-1.099430	6
O	3.008640	2.444090	0.248240	8
H	1.292630	-1.563990	-1.244580	1
H	3.013270	-1.127090	-1.794140	1
H	1.267710	0.292710	0.291950	1
H	4.151380	0.629040	0.299960	1
H	2.688850	2.342550	-1.880540	1
H	4.432540	2.492310	-1.371800	1
Es	3.214911	1.408035	-0.365104	99
Es	2.166651	-0.172228	-0.904348	99
Es	3.286751	2.215012	-1.061852	99
Es	2.158157	0.419711	0.116291	99
Es	3.024313	2.067147	0.326498	99
Es	2.086882	-0.852731	-0.729628	99
Es	2.350102	0.349980	-0.167710	99
Es	2.101415	-0.909609	-1.010406	99
Es	3.268712	1.446394	-0.601099	99
Es	3.264648	2.610005	0.082537	99
Es	3.885999	2.353338	-1.259165	99
Es	3.102545	2.223893	0.141856	99
Es	3.250149	1.851365	-0.661847	99
Es	2.173831	0.140257	-0.327394	99
Es	3.129315	2.075627	-0.069125	99
Es	2.401205	-0.919086	-1.350477	99
Es	2.164159	-1.192980	-1.355766	99
Es	3.127513	1.664600	-0.037747	99
Es	3.206941	2.142587	-0.540649	99
