38
Properties=species:S:1:pos:R:3:Z:I:1 energy=-196.40193772928896 field_type=dipole dipole="0.000000 0.000000 0.000000" charge=0
C	0.971440	-0.078260	0.040720	6
C	2.489440	0.016080	0.100710	6
C	3.018840	1.459090	0.043470	6
C	2.569950	2.292590	1.244560	6
C	4.547300	1.448800	-0.036160	6
H	0.663070	-1.127300	-0.020070	1
H	0.579290	0.441000	-0.839660	1
H	0.505920	0.350140	0.933290	1
H	2.899280	-0.550080	-0.744890	1
H	2.843260	-0.479910	1.012710	1
H	2.638520	1.938110	-0.867590	1
H	2.872070	1.824910	2.187820	1
H	1.483100	2.418210	1.258410	1
H	3.011160	3.294820	1.208390	1
H	4.988970	0.984270	0.852290	1
H	4.940380	2.468090	-0.116540	1
H	4.887860	0.891250	-0.915320	1
Es	2.012939	-0.012726	0.047981	99
Es	4.501624	1.539021	0.040579	99
Es	0.663950	0.229538	0.316578	99
Es	2.966596	1.429389	0.353862	99
Es	3.047713	1.233197	0.116797	99
Es	4.768950	1.059383	-0.264440	99
Es	4.790512	1.977069	-0.143536	99
Es	1.590537	0.068639	0.092853	99
Es	0.875590	-0.101334	-0.096055	99
Es	2.903688	0.391416	-0.287856	99
Es	2.538058	2.251113	1.266066	99
Es	2.948550	1.721907	0.395175	99
Es	1.404419	0.093013	-0.090427	99
Es	2.921902	2.928848	1.254031	99
Es	3.729199	1.312798	0.189894	99
Es	4.240896	1.365855	0.104776	99
Es	0.853846	-0.634989	0.003396	99
Es	1.895934	2.351513	1.289277	99
Es	2.795196	1.859285	1.226411	99
Es	2.783320	0.037620	0.172976	99
Es	2.717122	0.542104	0.174656	99
