30
Properties=species:S:1:pos:R:3:Z:I:1 energy=-229.8758964858118 field_type=dipole dipole="0.000000 0.000000 0.000000" charge=0
C	1.787570	-0.739130	-0.786460	6
C	2.657670	-0.214710	0.086340	6
C	3.183140	1.187550	0.019320	6
C	4.697000	1.231280	-0.050210	6
O	5.451720	0.332530	0.310780	8
H	1.455490	-1.768370	-0.683900	1
H	1.390020	-0.167060	-1.618810	1
H	3.028800	-0.837700	0.899930	1
H	2.870980	1.752780	0.903710	1
H	2.800640	1.706030	-0.866280	1
H	5.112810	2.193280	-0.397320	1
Es	4.913352	0.932762	-0.011213	99
Es	5.100971	0.434063	0.144945	99
Es	5.315084	0.767098	0.227339	99
Es	3.192422	1.271243	0.017400	99
Es	1.779630	-0.745812	-0.757714	99
Es	1.796003	-0.762526	-0.577527	99
Es	2.877618	-0.666340	0.383432	99
Es	2.893782	1.565464	-0.391241	99
Es	2.168977	-0.627384	-0.365141	99
Es	4.575504	1.754686	-0.112326	99
Es	3.243617	1.274046	0.128255	99
Es	2.898384	0.437087	0.086496	99
Es	4.168254	1.394433	0.035544	99
Es	5.434373	0.449431	0.331610	99
Es	2.696898	-0.140424	0.060246	99
Es	5.552508	0.148749	0.458774	99
Es	1.439723	-0.727872	-1.091614	99
Es	2.123438	-0.519726	-0.502461	99
Es	5.168677	0.701780	0.173098	99
