30
Properties=species:S:1:pos:R:3:Z:I:1 energy=-229.88832944355343 field_type=dipole dipole="0.000000 0.000000 0.000000" charge=0
C	0.961240	-0.004830	-0.026980	6
C	2.450100	0.053220	-0.152210	6
C	3.175150	1.128400	0.182050	6
C	4.645290	1.121220	0.034040	6
O	5.319860	2.097760	0.336050	8
H	0.675870	-0.818730	0.646360	1
H	0.512500	-0.194640	-1.006700	1
H	0.542460	0.926780	0.366130	1
H	2.930370	-0.843360	-0.538170	1
H	2.739610	2.041940	0.569990	1
H	5.093380	0.194600	-0.360080	1
Es	0.602098	-0.303417	-0.103123	99
Es	0.761466	0.477244	0.187963	99
Es	3.106457	1.022791	0.106635	99
Es	2.881958	1.740795	0.455882	99
Es	2.445886	0.053178	-0.151821	99
Es	4.536519	1.119257	0.045302	99
Es	1.697745	-0.003039	-0.117540	99
Es	2.784805	-0.541572	-0.424256	99
Es	4.692042	0.687488	-0.130621	99
Es	5.425858	2.299956	0.294529	99
Es	2.822235	0.577590	0.112311	99
Es	5.178064	1.902811	0.325387	99
Es	2.984376	0.786302	0.018324	99
Es	5.169690	2.056889	0.287974	99
Es	0.802694	-0.180725	-0.112771	99
Es	5.138718	1.642756	0.238204	99
Es	0.967538	-0.033506	-0.013109	99
Es	5.313386	2.053856	0.386865	99
Es	4.250674	0.895251	-0.026978	99
