33
Properties=species:S:1:pos:R:3:Z:I:1 energy=-231.0498873127788 field_type=dipole dipole="0.000000 0.000000 0.000000" charge=0
C	0.958210	0.011010	0.046010	6
C	2.459830	-0.042120	0.026860	6
C	3.127880	-1.203770	0.137980	6
C	3.165940	1.273230	-0.144800	6
O	2.913710	2.089690	0.988000	8
H	0.605430	0.609050	0.892270	1
H	0.513140	-0.985660	0.135600	1
H	0.582540	0.460160	-0.879120	1
H	2.606330	-2.149380	0.253160	1
H	4.212860	-1.241930	0.114940	1
H	2.805710	1.791960	-1.038860	1
H	4.249730	1.151450	-0.243470	1
H	3.101800	1.543050	1.769910	1
Es	3.252579	1.115754	-0.148340	99
Es	0.895333	0.071762	-0.047779	99
Es	3.067903	1.846700	0.688680	99
Es	2.918595	2.003898	0.881023	99
Es	2.918068	-1.669638	0.160387	99
Es	2.846100	-0.713272	0.091825	99
Es	2.693630	1.092643	-0.169864	99
Es	1.395302	0.026819	-0.117936	99
Es	3.037173	1.657153	0.602350	99
Es	2.929016	2.415158	1.011348	99
Es	1.796955	-0.033376	0.090846	99
Es	2.728371	-1.016067	0.212049	99
Es	0.727648	0.475209	0.472294	99
Es	3.369028	1.207483	0.108883	99
Es	3.039063	1.287217	0.316801	99
Es	2.383523	0.249332	-0.014537	99
Es	3.716998	-1.172822	0.019440	99
Es	2.924941	-0.775487	-0.035209	99
Es	0.639118	-0.522599	-0.080715	99
Es	2.834303	1.668694	0.620346	99
