33
Properties=species:S:1:pos:R:3:Z:I:1 energy=-231.0698569281269 field_type=dipole dipole="0.000000 0.000000 0.000000" charge=0
C	0.972270	-0.008510	-0.039790	6
C	2.494370	0.002820	0.001520	6
C	3.089140	-0.752360	-1.178860	6
C	2.982600	1.433510	-0.024030	6
O	3.641650	1.936650	0.881090	8
H	0.556580	0.548610	0.807030	1
H	0.588650	-1.032670	0.006360	1
H	0.593060	0.457610	-0.956190	1
H	2.835500	-0.457370	0.936670	1
H	2.780250	-0.311350	-2.133120	1
H	2.774600	-1.800620	-1.169380	1
H	4.183730	-0.725550	-1.144850	1
H	2.711670	2.021480	-0.918570	1
Es	2.951039	-0.796927	-1.365962	99
Es	2.582405	0.291128	0.045504	99
Es	1.454328	-0.322229	-0.494468	99
Es	2.429866	-0.830942	-0.984631	99
Es	1.982993	0.182461	0.146799	99
Es	0.880563	0.148434	0.226554	99
Es	2.764414	-0.432577	-0.767081	99
Es	2.968685	-0.638256	-1.080627	99
Es	3.170746	1.780923	0.653908	99
Es	2.925564	1.472536	0.019941	99
Es	3.428596	1.831145	0.544363	99
Es	3.797864	2.117431	0.858556	99
Es	2.759089	0.669931	0.118925	99
Es	2.875767	1.242606	0.213088	99
Es	2.414601	0.103720	-0.076083	99
Es	3.765591	-0.767365	-1.210508	99
Es	0.725145	-0.135094	-0.044476	99
Es	3.588734	1.830185	0.710267	99
Es	3.491642	1.684029	0.447593	99
Es	0.927540	-0.104253	-0.222088	99
