39
Properties=species:S:1:pos:R:3:Z:I:1 energy=-233.06179720083486 field_type=dipole dipole="0.000000 0.000000 0.000000" charge=0
C	0.949430	0.005840	0.022730	6
C	2.470310	0.009820	0.022710	6
C	3.027390	1.432820	0.000000	6
C	4.471390	1.432820	0.000000	6
C	5.661550	1.432820	0.000000	6
C	7.105550	1.432820	0.000000	6
H	0.572830	-1.022280	0.039110	1
H	0.555390	0.497240	-0.872760	1
H	0.555340	0.525540	0.902080	1
H	2.830820	-0.549780	-0.848910	1
H	2.830770	-0.521670	0.911760	1
H	2.655720	1.985760	0.870830	1
H	2.655720	1.957690	-0.888030	1
H	7.499640	2.453650	-0.011680	1
H	7.499570	0.912240	-0.878240	1
H	7.499570	0.932470	0.889920	1
Es	0.787270	0.168695	0.098470	99
Es	5.052446	1.381123	-0.292347	99
Es	3.464581	1.563926	-0.074951	99
Es	3.040928	1.501776	-0.126074	99
Es	0.812627	-0.043022	0.180302	99
Es	5.472737	1.478783	0.148235	99
Es	1.837855	0.095415	0.017639	99
Es	0.713703	-0.295211	-0.011394	99
Es	2.841735	1.442599	0.105137	99
Es	7.239763	1.243362	0.004410	99
Es	2.553030	-0.068390	-0.012806	99
Es	5.348937	1.551461	0.133518	99
Es	7.263843	1.904920	-0.062355	99
Es	2.710765	0.805387	0.181230	99
Es	7.297782	1.099963	-0.070563	99
Es	2.400589	0.034994	0.043019	99
Es	6.358993	1.364796	-0.009065	99
Es	3.035822	1.435176	-0.030347	99
Es	4.890293	1.365120	0.026336	99
Es	2.800583	-0.316063	-0.009040	99
Es	7.218788	1.532219	0.121179	99
Es	0.823887	0.187888	-0.180029	99
Es	4.667032	1.406465	0.012615	99
