42
Properties=species:S:1:pos:R:3:Z:I:1 energy=-234.25961495409865 field_type=dipole dipole="0.000000 0.000000 0.000000" charge=0
C	1.179280	-0.671100	-0.060440	6
C	2.695820	-0.565450	-0.075170	6
C	3.154990	0.885880	-0.207810	6
C	4.682100	0.986090	-0.210640	6
C	5.136940	2.409600	-0.357520	6
C	5.869350	3.061540	0.554190	6
H	0.872260	-1.718420	0.030040	1
H	0.747890	-0.269560	-0.983600	1
H	0.755290	-0.119210	0.785330	1
H	3.088690	-1.158280	-0.909100	1
H	3.094260	-1.000360	0.848560	1
H	2.747140	1.477880	0.621150	1
H	2.752920	1.313860	-1.135000	1
H	5.091220	0.403580	-1.045480	1
H	5.082140	0.545120	0.711090	1
H	4.853390	2.925380	-1.272820	1
H	6.181680	2.589030	1.480370	1
H	6.173310	4.090550	0.389280	1
Es	5.067112	2.478969	-0.540291	99
Es	5.394333	2.785089	0.143925	99
Es	5.972671	3.140656	0.661287	99
Es	4.833003	1.653916	-0.315018	99
Es	3.236200	0.950900	-0.392060	99
Es	5.852937	2.993095	0.535037	99
Es	4.730296	0.955325	-0.221284	99
Es	5.621117	2.698487	-0.055548	99
Es	5.013313	0.803403	0.055103	99
Es	3.117636	1.124941	-0.381020	99
Es	5.137061	2.648136	-0.329901	99
Es	1.960165	-0.584300	-0.057874	99
Es	2.646945	-0.762875	-0.108344	99
Es	2.950824	0.439209	0.025412	99
Es	4.505858	0.858140	-0.275337	99
Es	3.798529	0.902616	-0.372038	99
Es	2.976898	-0.684305	0.147164	99
Es	1.048767	-1.022492	-0.100098	99
Es	6.083069	3.223456	0.749073	99
Es	2.551478	-0.586480	-0.130258	99
Es	3.001161	0.723374	-0.088794	99
Es	1.022563	-0.637350	-0.344840	99
Es	1.282332	-0.563754	0.031103	99
Es	1.097413	-0.637568	0.068738	99
