38
Properties=species:S:1:pos:R:3:Z:I:1 energy=-249.02232579482074 field_type=dipole dipole="0.000000 0.000000 0.000000" charge=0
C	0.233070	0.777200	-0.209250	6
C	-0.858780	-0.240180	-0.066930	6
C	0.582090	-0.663960	0.058040	6
N	1.101180	-1.013100	1.389780	7
C	0.971400	-2.447470	1.628010	6
C	2.306100	-1.830990	1.308440	6
H	0.438430	1.172220	-1.196790	1
H	0.366370	1.493510	0.593270	1
H	-1.397120	-0.539220	-0.957890	1
H	-1.464020	-0.211780	0.831660	1
H	0.987400	-1.211050	-0.792240	1
H	0.483770	-3.057220	0.877420	1
H	0.773310	-2.732840	2.653710	1
H	3.013140	-1.702680	2.118890	1
H	2.752140	-2.021560	0.341040	1
Es	-0.157160	0.569639	-0.130218	99
Es	1.845815	-1.501545	1.126223	99
Es	1.232648	-2.333904	1.732304	99
Es	1.951070	-1.976247	1.439779	99
Es	0.870571	-0.666838	0.375494	99
Es	-1.063533	-0.298270	-0.152456	99
Es	1.569341	-1.370929	1.284286	99
Es	0.969029	-1.622741	1.391505	99
Es	-1.054622	-0.336463	0.374140	99
Es	-0.190713	-0.389118	0.011986	99
Es	-0.425456	0.016966	-0.120694	99
Es	0.611837	-0.344171	0.121570	99
Es	1.756911	-1.963458	1.473555	99
Es	1.607103	-1.378565	1.175367	99
Es	0.243396	0.726979	-0.454321	99
Es	0.604930	-0.090698	-0.087680	99
Es	2.645210	-1.781148	1.682238	99
Es	1.042703	-1.241529	1.058968	99
Es	0.287132	0.846158	-0.440331	99
Es	0.868439	-2.619179	1.626686	99
Es	-0.529662	0.386655	-0.247915	99
Es	1.069447	-0.996287	0.792509	99
Es	0.754927	-2.696191	1.321031	99
