38
Properties=species:S:1:pos:R:3:Z:I:1 energy=-249.0608892682926 field_type=dipole dipole="0.000000 0.000000 0.000000" charge=0
C	0.774480	1.359540	-0.094930	6
C	-0.722140	1.178390	0.188560	6
C	-0.993640	-0.245840	-0.196550	6
N	-0.745830	-1.344580	0.722830	7
C	0.312460	-0.983130	-0.205980	6
C	1.395810	-0.016860	0.172990	6
H	0.912470	1.617970	-1.152350	1
H	1.226240	2.152220	0.507870	1
H	-1.321310	1.881150	-0.398450	1
H	-0.939540	1.343180	1.250070	1
H	-1.688440	-0.393650	-1.010450	1
H	-0.549730	-1.009410	1.667120	1
H	0.535990	-1.649020	-1.026750	1
H	1.661170	-0.124630	1.230940	1
H	2.300480	-0.163040	-0.425140	1
Es	-1.043635	1.617310	-0.049488	99
Es	-1.101753	-0.646939	0.105863	99
Es	0.174251	-0.163584	-0.036008	99
Es	-0.385858	0.877198	0.034675	99
Es	-0.247871	-1.109776	0.193331	99
Es	0.770077	-0.053694	0.004509	99
Es	0.850157	0.966718	0.050563	99
Es	0.038112	-0.693540	-0.022601	99
Es	-0.400948	-1.439851	0.501758	99
Es	-1.001216	-1.046243	0.322627	99
Es	-0.559169	-0.017386	-0.025460	99
Es	-0.757937	1.175814	0.131625	99
Es	1.432197	-0.044740	0.311733	99
Es	1.191709	0.213430	0.076362	99
Es	-0.883545	-0.769954	0.221769	99
Es	0.838187	1.366597	-0.464770	99
Es	0.984594	1.828351	0.122221	99
Es	-0.920781	0.354898	0.214326	99
Es	1.207092	-0.405485	-0.013664	99
Es	-0.018471	-1.268934	0.037655	99
Es	-0.326471	1.256610	0.186307	99
Es	-0.704065	-1.334211	0.592196	99
Es	1.521070	0.151497	-0.030291	99
