35
Properties=species:S:1:pos:R:3:Z:I:1 energy=-247.8746643815143 field_type=dipole dipole="0.000000 0.000000 0.000000" charge=0
C	0.993120	-0.964980	-0.032220	6
C	-0.444080	-1.405650	-0.184320	6
C	-1.257260	-0.343290	-0.047300	6
C	-0.549400	0.915450	0.220190	6
N	0.368070	1.453010	-0.770380	7
C	0.920120	0.529850	0.216430	6
H	1.454680	-1.472770	0.820200	1
H	1.568250	-1.183580	-0.936880	1
H	-0.756800	-2.420040	-0.380450	1
H	-2.336780	-0.389400	-0.117020	1
H	-0.912110	1.569020	1.003030	1
H	0.228820	0.991730	-1.670820	1
H	1.581150	0.921630	0.974460	1
Es	-0.632947	-1.631714	-0.105024	99
Es	0.098460	0.398696	0.134905	99
Es	0.478089	1.200487	-0.394439	99
Es	0.274711	0.973314	-0.254869	99
Es	0.903735	-1.002252	-0.068799	99
Es	0.716709	0.657790	0.053013	99
Es	-1.792176	-0.257137	-0.060615	99
Es	1.425213	-1.291078	0.022174	99
Es	1.212723	-1.114405	-0.077074	99
Es	-0.571783	-0.214824	-0.201135	99
Es	-0.066094	1.409145	-0.300312	99
Es	0.822426	1.059343	-0.121864	99
Es	-0.083206	0.516604	0.104381	99
Es	-1.224650	-0.204359	-0.043965	99
Es	-0.520579	-1.706154	-0.240192	99
Es	-0.340840	1.132485	-0.095264	99
Es	0.346549	-1.016101	-0.040914	99
Es	-0.796460	-0.998530	0.065708	99
Es	0.795154	0.190852	0.005671	99
Es	0.320014	1.394331	-0.567163	99
Es	-1.015873	-0.046480	0.007182	99
Es	0.362223	1.031865	-0.185492	99
