32
Properties=species:S:1:pos:R:3:Z:I:1 energy=-246.77741693126575 field_type=dipole dipole="0.000000 0.000000 0.000000" charge=0
C	-1.397680	-0.076400	-0.017850	6
C	-0.759060	1.158980	0.004910	6
C	0.626510	1.180240	0.043590	6
N	1.394390	0.069430	0.060510	7
C	0.746150	-1.115780	0.037680	6
C	-0.633160	-1.237660	-0.001240	6
H	-2.482420	-0.132620	-0.048300	1
H	-1.325530	2.083150	-0.007150	1
H	1.171160	2.119570	0.062540	1
H	1.385730	-1.993240	0.051960	1
H	-1.101310	-2.216380	-0.018220	1
Es	-0.068638	1.173870	0.024018	99
Es	1.022233	0.052126	0.049532	99
Es	0.746218	-1.115711	0.037677	99
Es	-1.143973	1.788166	-0.003293	99
Es	-2.134970	-0.114750	-0.038561	99
Es	0.626582	1.180181	0.043592	99
Es	-0.950875	-1.903904	-0.012723	99
Es	1.070221	-0.447128	0.049540	99
Es	-0.633184	-1.237675	-0.001274	99
Es	1.018397	0.549213	0.052409	99
Es	1.173811	-1.721619	0.047213	99
Es	1.393782	0.069400	0.060493	99
Es	0.054517	-1.181006	0.018085	99
Es	-0.440238	-0.867475	0.005560	99
Es	-0.532284	0.807807	0.009817	99
Es	0.988765	1.827338	0.056279	99
Es	-1.025633	-0.660159	-0.009831	99
Es	1.778069	0.089468	0.071287	99
Es	-0.759090	1.158998	0.004912	99
Es	-1.397721	-0.076401	-0.017851	99
Es	-1.088837	0.543334	-0.006544	99
