41
Properties=species:S:1:pos:R:3:Z:I:1 energy=-250.2756733613293 field_type=dipole dipole="0.000000 0.000000 0.000000" charge=0
C	0.735800	1.274050	-0.200990	6
C	-0.729230	1.238530	0.223440	6
C	-1.409330	-0.046800	-0.245290	6
N	-0.700680	-1.240360	0.223290	7
C	0.686190	-1.245030	-0.248030	6
C	1.449420	-0.006750	0.220430	6
H	0.797040	1.383370	-1.290950	1
H	1.234580	2.144780	0.238270	1
H	-1.254600	2.108040	-0.187180	1
H	-0.793910	1.311840	1.316420	1
H	-2.436790	-0.073990	0.134500	1
H	-1.479860	-0.062830	-1.339650	1
H	-0.701960	-1.244500	1.243500	1
H	1.184460	-2.144440	0.129770	1
H	0.705680	-1.312700	-1.342440	1
H	1.548680	-0.027150	1.312950	1
H	2.464950	-0.018450	-0.192980	1
Es	-0.518000	-1.333269	0.240589	99
Es	0.741722	-1.104414	-0.275486	99
Es	1.335450	-0.215066	0.154719	99
Es	-0.557328	1.025587	0.056587	99
Es	0.996738	0.770895	0.118947	99
Es	1.049779	1.881969	0.069640	99
Es	-0.524300	1.255491	0.037608	99
Es	0.335914	-1.208152	-0.188626	99
Es	0.603408	1.012460	-0.146887	99
Es	1.009388	-1.850356	0.020377	99
Es	-1.210487	-0.350860	-0.217700	99
Es	-0.559701	-0.715741	0.059765	99
Es	0.650290	0.861855	0.076040	99
Es	-0.824976	-1.304889	0.051787	99
Es	-2.019246	-0.079413	0.016286	99
Es	1.096075	0.646330	-0.014075	99
Es	-0.603664	0.912968	-0.001121	99
Es	-0.675504	-1.237477	0.219119	99
Es	-1.169546	1.173449	0.000708	99
Es	-0.110802	-0.665908	-0.227034	99
Es	-1.079323	0.418363	-0.187696	99
Es	1.173701	-0.555078	0.106623	99
Es	-0.908448	0.882822	0.091001	99
Es	2.084709	-0.001667	-0.066040	99
