34
Properties=species:S:1:pos:R:3:Z:I:1 energy=-263.8781526359511 field_type=dipole dipole="0.000000 0.000000 0.000000" charge=0
C	0.315320	-1.420270	0.097280	6
C	-1.102180	-0.953500	-0.091140	6
C	-1.243120	0.522870	0.062110	6
N	-0.275050	1.379390	0.068040	7
N	1.038680	0.945190	-0.081120	7
C	1.307750	-0.319040	-0.066170	6
H	0.556360	-2.215080	-0.616960	1
H	0.458390	-1.843390	1.097920	1
H	-1.766800	-1.442870	0.628700	1
H	-1.471080	-1.215150	-1.088780	1
H	-2.271760	0.913400	0.139570	1
H	2.366010	-0.618480	-0.143520	1
Es	0.413887	1.085181	-0.046258	99
Es	-1.161783	-1.136044	-0.127450	99
Es	0.384689	-1.367032	0.104827	99
Es	1.016471	0.950810	-0.075933	99
Es	-0.298868	1.449840	0.052444	99
Es	-1.926568	0.791575	0.129110	99
Es	1.073941	0.399273	0.164244	99
Es	-0.495463	-1.217540	0.073816	99
Es	-1.120403	-0.832516	-0.110685	99
Es	-1.494596	-1.279196	-0.178891	99
Es	1.129787	0.205267	-0.255115	99
Es	0.721063	-0.896404	0.073317	99
Es	-0.329446	1.691843	0.107338	99
Es	1.208991	-0.150675	-0.136873	99
Es	-0.761024	0.692175	0.239664	99
Es	0.475343	-1.964281	0.040696	99
Es	2.004436	-0.532963	-0.113183	99
Es	-1.065770	0.389702	0.048541	99
Es	-0.628121	1.008129	-0.156353	99
Es	1.322080	1.176477	-0.072347	99
Es	-1.178423	0.049400	0.013653	99
Es	0.317393	-1.594357	0.192285	99
