31
Properties=species:S:1:pos:R:3:Z:I:1 energy=-262.76714240443636 field_type=dipole dipole="0.000000 0.000000 0.000000" charge=0
C	-0.745110	1.105380	0.030750	6
C	0.638290	1.175320	0.033250	6
N	1.420200	0.071270	0.035760	7
C	0.753550	-1.105740	0.035670	6
C	-0.629950	-1.175600	0.033170	6
N	-1.411890	-0.071700	0.030660	7
H	-1.357780	1.999340	0.028760	1
H	1.157720	2.126470	0.033290	1
H	1.366110	-1.999680	0.037670	1
H	-1.149520	-2.126790	0.033130	1
Es	0.985997	-0.023732	0.035108	99
Es	-1.411270	-0.071668	0.030661	99
Es	-0.053438	1.141093	0.031842	99
Es	1.159601	-1.720837	0.036980	99
Es	1.045996	0.551387	0.034629	99
Es	0.753620	-1.105657	0.035670	99
Es	-0.630028	-1.175524	0.033162	99
Es	-1.087996	0.443635	0.030943	99
Es	0.061809	-1.141439	0.034452	99
Es	-1.787818	-0.090690	0.029913	99
Es	1.096328	-0.443935	0.035570	99
Es	-1.151203	1.720482	0.029424	99
Es	0.638368	1.175244	0.033250	99
Es	1.796247	0.090190	0.036487	99
Es	-0.448442	0.734093	0.031666	99
Es	-0.525007	-0.710806	0.033069	99
Es	0.980284	1.828229	0.033253	99
Es	-1.037765	-0.551774	0.031683	99
Es	-0.971995	-1.828545	0.033151	99
Es	-0.745181	1.105296	0.030742	99
Es	1.419568	0.071239	0.035759	99
