34
Properties=species:S:1:pos:R:3:Z:I:1 energy=-263.87942989543717 field_type=dipole dipole="0.000000 0.000000 0.000000" charge=0
C	0.266340	-1.402160	0.062940	6
N	-1.025340	-0.824690	-0.311040	7
N	-1.343340	0.456700	0.015570	7
C	-0.337570	1.274740	0.078230	6
C	1.092480	0.922570	-0.080820	6
C	1.364800	-0.387950	-0.045790	6
H	0.479310	-2.242510	-0.605400	1
H	0.229040	-1.786300	1.088060	1
H	-1.790240	-1.461300	-0.086860	1
H	-0.534920	2.337180	0.295540	1
H	1.833420	1.704080	-0.153280	1
H	2.388330	-0.741900	-0.097180	1
Es	-1.553547	0.493809	0.030238	99
Es	0.357488	-1.920073	0.005189	99
Es	1.326719	-0.310785	-0.052722	99
Es	-1.143910	0.525518	-0.002944	99
Es	0.143771	1.156099	0.036160	99
Es	0.273460	-1.446527	0.110789	99
Es	1.102262	0.869440	-0.073274	99
Es	-1.143748	-0.259427	-0.236034	99
Es	1.172113	0.355890	-0.046867	99
Es	-1.268650	-1.235934	-0.266797	99
Es	-1.061221	-0.710490	-0.202683	99
Es	-1.000885	-0.821675	-0.292967	99
Es	1.283676	0.136294	-0.080776	99
Es	-0.472364	1.954720	0.208669	99
Es	1.579815	1.435915	-0.118972	99
Es	0.203254	-1.562845	0.185876	99
Es	0.811232	-0.832053	0.000008	99
Es	-1.173645	0.790298	-0.043538	99
Es	2.047768	-0.657436	-0.081113	99
Es	-0.841782	0.823894	0.131812	99
Es	-0.110608	1.220005	0.061395	99
Es	-0.577783	-1.038756	-0.112747	99
