41
Properties=species:S:1:pos:R:3:Z:I:1 energy=-250.24470978631382 field_type=dipole dipole="0.000000 0.000000 0.000000" charge=0
C	0.937870	-0.032210	0.152060	6
C	2.448170	0.040360	-0.028000	6
C	2.863240	0.013550	-1.496990	6
C	3.156630	1.103890	0.848120	6
C	4.146120	-0.015410	1.203670	6
N	3.135810	-1.002260	0.776160	7
H	0.652900	-0.057120	1.210250	1
H	0.524690	-0.928020	-0.324460	1
H	0.453150	0.840750	-0.298500	1
H	3.951500	0.036140	-1.622340	1
H	2.455540	0.881780	-2.026500	1
H	2.490020	-0.887890	-1.995660	1
H	2.572890	1.460100	1.705490	1
H	3.581610	1.966130	0.327130	1
H	5.056130	-0.021460	0.592920	1
H	4.428330	-0.077510	2.257990	1
H	3.505980	-1.790630	0.247620	1
Es	1.108301	0.071888	0.041558	99
Es	3.717426	0.058971	0.866498	99
Es	2.571476	-0.064998	-1.148858	99
Es	2.235473	0.006888	0.422944	99
Es	2.081384	-0.012716	0.235183	99
Es	3.383745	0.144704	0.912731	99
Es	2.786547	-0.142813	-0.902518	99
Es	4.249404	-0.016094	1.324992	99
Es	3.276361	0.166183	0.737873	99
Es	3.473133	0.182881	0.738940	99
Es	2.553703	0.101676	0.146223	99
Es	3.381813	0.034045	0.947409	99
Es	3.203745	-0.054012	-0.684064	99
Es	2.650455	-0.048558	-0.133710	99
Es	3.057592	-0.015407	0.185901	99
Es	3.505148	0.046812	0.619162	99
Es	2.179029	-0.069959	-0.463715	99
Es	1.107368	0.264710	-0.233970	99
Es	3.965745	0.038588	1.395985	99
Es	3.147508	0.074321	0.489275	99
Es	1.999689	-0.005038	0.158183	99
Es	2.788079	-0.016729	0.562355	99
Es	1.222737	-0.197404	-0.105773	99
Es	2.748389	-0.073627	-1.209951	99
