38
Properties=species:S:1:pos:R:3:Z:I:1 energy=-249.08633266359874 field_type=dipole dipole="0.000000 0.000000 0.000000" charge=0
C	0.999620	0.032310	0.028510	6
C	2.482150	-0.023250	-0.018290	6
C	3.261720	-1.103120	-0.088430	6
C	4.692880	-0.710580	-0.078700	6
N	4.701080	0.760410	-0.187350	7
C	3.313950	1.209780	0.043700	6
H	0.558630	-0.968540	-0.019990	1
H	0.612970	0.611900	-0.815470	1
H	0.664120	0.504480	0.956980	1
H	2.919950	-2.127710	-0.119270	1
H	5.172710	-1.022060	0.854670	1
H	5.233820	-1.158460	-0.918320	1
H	4.940840	0.994150	-1.149710	1
H	3.019830	1.934500	-0.722450	1
H	3.235280	1.683670	1.027710	1
Es	3.190038	-1.328665	-0.101605	99
Es	4.174027	-0.862272	-0.100029	99
Es	4.969973	0.978636	-0.207981	99
Es	3.073099	-1.527084	-0.053625	99
Es	0.629168	0.058720	0.083875	99
Es	2.508812	0.577947	0.083721	99
Es	2.821926	-0.563712	-0.127638	99
Es	4.996224	-0.885506	-0.055172	99
Es	4.711349	0.642656	-0.207006	99
Es	2.313185	0.101544	0.009633	99
Es	4.715938	0.290293	-0.104869	99
Es	3.268689	1.357066	-0.140803	99
Es	2.855723	-0.567875	0.033668	99
Es	3.766348	1.098913	-0.024736	99
Es	4.703636	0.505420	-0.487231	99
Es	0.877425	0.226412	-0.092062	99
Es	3.199728	1.605786	0.138566	99
Es	0.933233	-0.015317	0.134212	99
Es	2.378514	-0.063525	-0.063183	99
Es	4.911493	-0.919216	-0.151345	99
Es	4.589737	-0.686278	-0.014738	99
Es	0.941494	-0.111341	0.021613	99
Es	3.477477	1.237946	0.073641	99
