37
Properties=species:S:1:pos:R:3:Z:I:1 energy=-265.0508982888805 field_type=dipole dipole="0.000000 0.000000 0.000000" charge=0
C	1.257160	0.265590	0.022510	6
C	2.686570	-0.148490	0.003050	6
C	3.255280	-0.937580	-1.132870	6
N	3.690700	0.448500	-0.888320	7
C	3.303230	1.394790	-1.799550	6
N	3.954660	2.474960	-2.066510	7
H	1.158650	1.275490	0.432980	1
H	0.684450	-0.414010	0.662040	1
H	0.795380	0.246940	-0.969510	1
H	3.078470	-0.317010	0.999150	1
H	2.677290	-1.092490	-2.033250	1
H	4.033330	-1.659420	-0.925710	1
H	2.365480	1.182100	-2.339700	1
H	4.789070	2.474530	-1.468100	1
Es	0.852297	-0.066374	0.445539	99
Es	3.529379	0.799275	-1.223279	99
Es	2.932942	-0.148805	-0.457564	99
Es	1.428822	0.668570	0.015263	99
Es	3.906740	2.396384	-2.035453	99
Es	1.452525	0.221700	-0.188742	99
Es	3.295788	-0.770815	-1.001244	99
Es	3.404268	0.718776	-1.294438	99
Es	3.908378	2.379060	-2.142651	99
Es	2.283518	-0.040900	-0.050520	99
Es	3.872576	2.499242	-1.884837	99
Es	3.439725	0.078697	-1.058661	99
Es	3.427471	-0.835236	-0.805314	99
Es	1.929364	0.050674	-0.137918	99
Es	3.406870	1.089091	-1.477081	99
Es	3.863447	2.179677	-1.976671	99
Es	2.956695	-0.315892	-0.621893	99
Es	3.465093	0.011941	-0.940805	99
Es	3.264636	1.216568	-1.702696	99
Es	3.004221	-0.693753	-0.671718	99
Es	3.669071	2.002721	-1.887991	99
Es	3.358336	-0.459547	-0.842949	99
Es	1.583648	0.153929	-0.113294	99
