34
Properties=species:S:1:pos:R:3:Z:I:1 energy=-263.88667873509803 field_type=dipole dipole="0.000000 0.000000 0.000000" charge=0
C	0.944350	0.000370	0.040280	6
C	2.454670	0.000370	0.111880	6
C	3.050480	1.115540	-0.675700	6
N	3.784320	0.712570	-1.660720	7
N	3.784340	-0.716160	-1.658830	7
C	3.050510	-1.116400	-0.673050	6
H	0.532630	0.890600	0.527420	1
H	0.532390	-0.885870	0.534380	1
H	0.586920	-0.003660	-0.996200	1
H	2.824110	0.001710	1.139140	1
H	2.874560	2.167610	-0.418140	1
H	2.874640	-2.168410	-0.412890	1
Es	1.493587	0.004000	0.026803	99
Es	1.580655	-0.000502	-0.106472	99
Es	2.918292	-1.796100	-0.514043	99
Es	0.701263	-0.562146	0.342321	99
Es	3.766990	0.174362	-1.398649	99
Es	3.483603	0.908440	-1.176847	99
Es	3.687839	0.658036	-1.609157	99
Es	3.130664	1.039761	-0.917745	99
Es	3.769094	-0.661690	-1.637388	99
Es	2.910009	1.758257	-0.556337	99
Es	3.326953	-0.307436	-1.232177	99
Es	3.650699	-0.762466	-1.311285	99
Es	2.481654	0.393983	-0.134478	99
Es	0.644943	0.558566	0.406174	99
Es	2.361987	0.118459	0.027085	99
Es	3.860313	0.189718	-1.624753	99
Es	1.455661	0.014419	-0.010258	99
Es	2.747581	-0.545012	-0.433857	99
Es	3.272041	-0.920261	-1.016382	99
Es	3.316003	-0.874586	-1.096030	99
Es	1.916246	0.038662	0.114190	99
Es	3.961394	0.561035	-1.579697	99
