45
Properties=species:S:1:pos:R:3:Z:I:1 energy=-235.45065420244387 field_type=dipole dipole="0.000000 0.000000 0.000000" charge=0
C	0.596790	0.306280	0.574050	6
C	1.925360	-0.364160	0.263760	6
C	3.020440	0.665100	-0.016470	6
C	4.359680	-0.012880	-0.310190	6
C	5.452320	1.016250	-0.597730	6
C	6.787830	0.346600	-0.880300	6
H	-0.172600	-0.447980	0.766120	1
H	0.263970	0.925450	-0.264990	1
H	0.676860	0.943080	1.460880	1
H	1.802580	-1.022130	-0.604500	1
H	2.215670	-0.996130	1.111290	1
H	3.128220	1.331630	0.847920	1
H	2.728120	1.288260	-0.870420	1
H	4.251320	-0.684130	-1.170870	1
H	4.653480	-0.631340	0.546750	1
H	5.563220	1.691570	0.258490	1
H	5.168170	1.629810	-1.460480	1
H	7.117720	-0.248030	-0.022370	1
H	7.554150	1.100720	-1.085550	1
H	6.719430	-0.313960	-1.750640	1
Es	7.197876	0.728959	-1.071069	99
Es	4.991776	0.679491	-0.551723	99
Es	3.063813	0.722870	-0.509247	99
Es	3.228390	0.508184	-0.092129	99
Es	1.961145	-0.457614	0.354239	99
Es	4.900303	0.666115	-0.512170	99
Es	0.520837	0.618590	0.548605	99
Es	2.003359	-0.806354	0.296625	99
Es	6.852676	0.069020	-0.911831	99
Es	4.550597	0.150535	-0.337553	99
Es	0.389862	0.580797	0.631780	99
Es	6.611091	0.440304	-0.852677	99
Es	3.350678	0.623145	0.188898	99
Es	3.975997	0.086642	-0.403318	99
Es	2.701483	0.375763	0.138249	99
Es	5.508192	1.269612	-0.479191	99
Es	0.979770	0.199556	0.505501	99
Es	6.900395	-0.101637	-0.736174	99
Es	3.157214	0.710515	0.216323	99
Es	4.672843	-0.188889	-0.270127	99
Es	0.834980	0.180587	0.528616	99
Es	0.328863	-0.036369	0.635448	99
Es	6.196991	0.633262	-0.861456	99
Es	5.440510	1.172820	-0.568727	99
Es	1.942852	-0.670955	0.093469	99
