34
Properties=species:S:1:pos:R:3:Z:I:1 energy=-263.90097906476194 field_type=dipole dipole="0.000000 0.000000 0.000000" charge=0
C	1.047650	0.000830	-0.069310	6
C	2.535130	0.021560	0.003950	6
N	3.323850	-0.671150	-1.006220	7
C	3.350080	0.801720	-1.003250	6
C	4.516100	1.509210	-0.544010	6
N	5.437270	2.109770	-0.176560	7
H	0.630600	0.784130	0.571400	1
H	0.664580	-0.963140	0.280270	1
H	0.679210	0.165530	-1.087450	1
H	2.898390	-0.066790	1.022400	1
H	2.740190	-1.016790	-1.769260	1
H	2.828260	1.270730	-1.830230	1
Es	5.420821	2.050582	-0.517163	99
Es	5.442337	2.082224	-0.126142	99
Es	3.107709	0.383419	-0.521818	99
Es	3.669792	0.929908	-0.879020	99
Es	4.715791	1.722134	-0.348846	99
Es	5.119730	1.798066	-0.299485	99
Es	1.183798	0.012033	-0.125360	99
Es	2.879817	-0.603598	-0.957351	99
Es	0.832901	-0.482395	0.032006	99
Es	3.493438	-0.254358	-1.065593	99
Es	3.262117	0.515193	-0.640718	99
Es	5.083246	2.011585	-0.345659	99
Es	4.852004	1.769342	-0.242473	99
Es	2.697192	-0.310384	-0.531192	99
Es	3.229006	-0.260507	-1.093566	99
Es	2.239036	0.007269	-0.332590	99
Es	0.826152	0.436861	0.220939	99
Es	2.700856	0.150264	-0.107500	99
Es	2.460237	-0.301457	-0.633868	99
Es	3.177866	0.012389	-0.769346	99
Es	3.373764	0.661398	-0.913855	99
Es	1.003909	-0.048644	-0.061477	99
