40
Properties=species:S:1:pos:R:3:Z:I:1 energy=-266.2242812130358 field_type=dipole dipole="0.000000 0.000000 0.000000" charge=0
C	0.984040	0.037430	0.069310	6
C	2.496390	-0.070410	0.017640	6
N	3.173820	0.972670	0.840020	7
C	4.184530	-0.043570	1.238190	6
C	3.148630	-1.144650	0.927290	6
N	3.754110	-2.208770	0.123420	7
H	0.524530	-0.815550	-0.439910	1
H	0.641030	0.948430	-0.432380	1
H	0.607430	0.054010	1.098740	1
H	2.854370	-0.063230	-1.021970	1
H	2.614890	1.299790	1.628910	1
H	5.079190	-0.019790	0.603540	1
H	4.502310	0.020510	2.283610	1
H	2.555420	-1.476530	1.785830	1
H	4.332190	-1.872870	-0.647010	1
H	3.072080	-2.838700	-0.295650	1
Es	3.335523	-0.654613	0.834953	99
Es	3.919740	-0.127655	1.118188	99
Es	3.643174	-2.175357	0.103276	99
Es	3.583101	-1.971539	0.176934	99
Es	3.197062	-1.274184	0.614476	99
Es	3.093564	0.582337	0.674435	99
Es	0.880314	0.267697	-0.015992	99
Es	3.098592	0.801498	0.966801	99
Es	3.073326	-1.034770	0.502387	99
Es	1.794511	0.032733	0.096745	99
Es	3.250598	1.300810	0.896656	99
Es	1.168465	-0.227593	0.175270	99
Es	3.105539	0.688282	1.008079	99
Es	3.176010	0.391700	0.715385	99
Es	0.939040	-0.254583	-0.050121	99
Es	2.629697	-0.075132	0.370806	99
Es	3.343390	-1.308751	0.528874	99
Es	2.345996	-0.226275	0.071195	99
Es	3.201396	-0.673453	0.759562	99
Es	4.416435	-0.113699	1.219450	99
Es	4.093751	-2.352173	0.038637	99
Es	0.750287	0.367275	-0.035419	99
Es	4.546036	-0.003255	1.589078	99
Es	3.634972	-2.266452	0.063085	99
