27
Properties=species:S:1:pos:R:3:Z:I:1 energy=-172.15869190080335 field_type=dipole dipole="0.000000 0.000000 0.000000" charge=0
N	-1.425706	-0.857731	-0.424904	7
C	-0.012166	-0.746121	-0.104294	6
C	0.410474	0.685479	-0.157484	6
C	0.949874	1.355269	0.871456	6
H	-1.704706	-1.834271	-0.356194	1
H	-1.572816	-0.590591	-1.395864	1
H	0.576464	-1.327031	-0.823254	1
H	0.166064	-1.174331	0.888126	1
H	0.273704	1.205949	-1.101704	1
H	1.104254	0.886159	1.837656	1
H	1.234555	2.397219	0.766456	1
Es	0.402435	-1.137456	-0.600228	99
Es	0.987711	0.929898	0.267968	99
Es	1.146994	2.062391	0.807659	99
Es	-0.803136	-0.820421	-0.305245	99
Es	-1.575568	-1.455651	-0.397225	99
Es	-1.622303	-0.659348	-0.211987	99
Es	-1.495840	-0.707620	-1.020498	99
Es	-1.425418	-0.858047	-0.425240	99
Es	-0.012294	-0.746090	-0.104339	99
Es	0.110009	-1.035750	0.574928	99
Es	1.058315	1.039981	1.529050	99
Es	0.201804	-0.024379	-0.130219	99
Es	0.410441	0.685409	-0.157572	99
Es	0.310115	1.027976	-0.806937	99
Es	0.949922	1.355318	0.871531	99
Es	0.391969	1.116388	0.460645	99
27
Properties=species:S:1:pos:R:3:Z:I:1 energy=-172.15869190080335 field_type=dipole dipole="0.000000 0.000000 0.000000" charge=0
N	-1.425706	-0.857731	-0.424904	7
C	-0.012166	-0.746121	-0.104294	6
C	0.410474	0.685479	-0.157484	6
C	0.949874	1.355269	0.871456	6
H	-1.704706	-1.834271	-0.356194	1
H	-1.572816	-0.590591	-1.395864	1
H	0.576464	-1.327031	-0.823254	1
H	0.166064	-1.174331	0.888126	1
H	0.273704	1.205949	-1.101704	1
H	1.104254	0.886159	1.837656	1
H	1.234555	2.397219	0.766456	1
Es	0.109969	-1.035628	0.574927	99
Es	-1.575471	-1.455630	-0.397180	99
Es	-1.622264	-0.659740	-0.212124	99
Es	-0.012291	-0.746090	-0.104337	99
Es	0.201747	-0.024436	-0.130183	99
Es	-1.496119	-0.707493	-1.020526	99
Es	0.392061	1.116357	0.460608	99
Es	-0.803062	-0.820151	-0.305099	99
Es	1.058322	1.040017	1.529061	99
Es	0.310128	1.028031	-0.806979	99
Es	0.987641	0.929860	0.268023	99
Es	0.410434	0.685411	-0.157571	99
Es	1.147006	2.062389	0.807615	99
Es	0.949926	1.355315	0.871528	99
Es	0.402502	-1.137543	-0.600202	99
Es	-1.425374	-0.858071	-0.425271	99
27
Properties=species:S:1:pos:R:3:Z:I:1 energy=-172.15869190080335 field_type=dipole dipole="0.000000 0.000000 0.000000" charge=0
N	-1.425706	-0.857731	-0.424904	7
C	-0.012166	-0.746121	-0.104294	6
C	0.410474	0.685479	-0.157484	6
C	0.949874	1.355269	0.871456	6
H	-1.704706	-1.834271	-0.356194	1
H	-1.572816	-0.590591	-1.395864	1
H	0.576464	-1.327031	-0.823254	1
H	0.166064	-1.174331	0.888126	1
H	0.273704	1.205949	-1.101704	1
H	1.104254	0.886159	1.837656	1
H	1.234555	2.397219	0.766456	1
Es	-1.575579	-1.455635	-0.397109	99
Es	0.392165	1.116343	0.460547	99
Es	0.110067	-1.035684	0.574850	99
Es	-0.803037	-0.820194	-0.305131	99
Es	-1.622242	-0.659643	-0.212221	99
Es	0.410434	0.685411	-0.157569	99
Es	0.949927	1.355314	0.871527	99
Es	0.987597	0.929900	0.268024	99
Es	-0.012288	-0.746092	-0.104337	99
Es	0.201706	-0.024462	-0.130157	99
Es	0.310184	1.028084	-0.806960	99
Es	-1.425363	-0.858079	-0.425274	99
Es	1.058307	1.039973	1.529065	99
Es	0.402462	-1.137453	-0.600195	99
Es	-1.496149	-0.707587	-1.020427	99
Es	1.146964	2.062403	0.807658	99
27
Properties=species:S:1:pos:R:3:Z:I:1 energy=-172.15869190080335 field_type=dipole dipole="0.000000 0.000000 0.000000" charge=0
N	-1.425706	-0.857731	-0.424904	7
C	-0.012166	-0.746121	-0.104294	6
C	0.410474	0.685479	-0.157484	6
C	0.949874	1.355269	0.871456	6
H	-1.704706	-1.834271	-0.356194	1
H	-1.572816	-0.590591	-1.395864	1
H	0.576464	-1.327031	-0.823254	1
H	0.166064	-1.174331	0.888126	1
H	0.273704	1.205949	-1.101704	1
H	1.104254	0.886159	1.837656	1
H	1.234555	2.397219	0.766456	1
Es	0.987457	0.929932	0.268048	99
Es	0.410442	0.685412	-0.157569	99
Es	0.949921	1.355316	0.871529	99
Es	0.402395	-1.137479	-0.600022	99
Es	-1.575878	-1.455534	-0.396950	99
Es	1.058353	1.039975	1.529064	99
Es	-1.425380	-0.858062	-0.425260	99
Es	-0.803035	-0.820300	-0.305065	99
Es	-1.495933	-0.707745	-1.020493	99
Es	1.146978	2.062412	0.807618	99
Es	0.201881	-0.024541	-0.130281	99
Es	0.110053	-1.035659	0.574907	99
Es	-0.012288	-0.746091	-0.104338	99
Es	0.392216	1.116286	0.460567	99
Es	-1.622188	-0.659479	-0.212500	99
Es	0.310163	1.028156	-0.806964	99
27
Properties=species:S:1:pos:R:3:Z:I:1 energy=-172.15869190080335 field_type=dipole dipole="0.000000 0.000000 0.000000" charge=0
N	-1.425706	-0.857731	-0.424904	7
C	-0.012166	-0.746121	-0.104294	6
C	0.410474	0.685479	-0.157484	6
C	0.949874	1.355269	0.871456	6
H	-1.704706	-1.834271	-0.356194	1
H	-1.572816	-0.590591	-1.395864	1
H	0.576464	-1.327031	-0.823254	1
H	0.166064	-1.174331	0.888126	1
H	0.273704	1.205949	-1.101704	1
H	1.104254	0.886159	1.837656	1
H	1.234555	2.397219	0.766456	1
Es	0.410435	0.685412	-0.157570	99
Es	-0.012291	-0.746091	-0.104338	99
Es	-0.802974	-0.820279	-0.305106	99
Es	1.146992	2.062418	0.807617	99
Es	-1.575798	-1.455512	-0.397048	99
Es	0.392304	1.116299	0.460505	99
Es	-1.496053	-0.707712	-1.020415	99
Es	0.402487	-1.137388	-0.600098	99
Es	1.058352	1.039948	1.529068	99
Es	0.310194	1.028172	-0.806974	99
Es	0.949921	1.355317	0.871529	99
Es	0.201760	-0.024621	-0.130114	99
Es	-1.425384	-0.858045	-0.425246	99
Es	-1.622245	-0.659601	-0.212450	99
Es	0.110081	-1.035684	0.574860	99
Es	0.987374	0.929964	0.268069	99
27
Properties=species:S:1:pos:R:3:Z:I:1 energy=-172.15869190080335 field_type=dipole dipole="0.000000 0.000000 0.000000" charge=0
N	-1.425706	-0.857731	-0.424904	7
C	-0.012166	-0.746121	-0.104294	6
C	0.410474	0.685479	-0.157484	6
C	0.949874	1.355269	0.871456	6
H	-1.704706	-1.834271	-0.356194	1
H	-1.572816	-0.590591	-1.395864	1
H	0.576464	-1.327031	-0.823254	1
H	0.166064	-1.174331	0.888126	1
H	0.273704	1.205949	-1.101704	1
H	1.104254	0.886159	1.837656	1
H	1.234555	2.397219	0.766456	1
Es	-1.622137	-0.659889	-0.212537	99
Es	0.410439	0.685411	-0.157570	99
Es	-1.496250	-0.707515	-1.020351	99
Es	0.402535	-1.137430	-0.600060	99
Es	0.110057	-1.035618	0.574830	99
Es	-0.802914	-0.820154	-0.305030	99
Es	-1.575829	-1.455511	-0.397101	99
Es	0.949922	1.355318	0.871531	99
Es	0.310269	1.028174	-0.807034	99
Es	-0.012289	-0.746091	-0.104338	99
Es	0.201754	-0.024669	-0.130034	99
Es	0.987181	0.929987	0.268104	99
Es	0.392364	1.116352	0.460475	99
Es	1.058428	1.039896	1.529092	99
Es	1.147002	2.062406	0.807582	99
Es	-1.425375	-0.858067	-0.425268	99
27
Properties=species:S:1:pos:R:3:Z:I:1 energy=-172.15869190080335 field_type=dipole dipole="0.000000 0.000000 0.000000" charge=0
N	-1.425706	-0.857731	-0.424904	7
C	-0.012166	-0.746121	-0.104294	6
C	0.410474	0.685479	-0.157484	6
C	0.949874	1.355269	0.871456	6
H	-1.704706	-1.834271	-0.356194	1
H	-1.572816	-0.590591	-1.395864	1
H	0.576464	-1.327031	-0.823254	1
H	0.166064	-1.174331	0.888126	1
H	0.273704	1.205949	-1.101704	1
H	1.104254	0.886159	1.837656	1
H	1.234555	2.397219	0.766456	1
Es	0.410438	0.685412	-0.157570	99
Es	0.201763	-0.024752	-0.130080	99
Es	0.949923	1.355316	0.871529	99
Es	0.392455	1.116233	0.460448	99
Es	1.146989	2.062452	0.807605	99
Es	-0.802864	-0.820198	-0.305000	99
Es	-1.575956	-1.455438	-0.397005	99
Es	0.402499	-1.137356	-0.600055	99
Es	0.310203	1.028255	-0.806965	99
Es	-1.496247	-0.707584	-1.020363	99
Es	-1.425372	-0.858065	-0.425266	99
Es	-1.622096	-0.659857	-0.212657	99
Es	-0.012291	-0.746091	-0.104338	99
Es	0.987228	0.930030	0.268102	99
Es	1.058371	1.039911	1.529066	99
Es	0.110112	-1.035668	0.574842	99
27
Properties=species:S:1:pos:R:3:Z:I:1 energy=-172.15869190080335 field_type=dipole dipole="0.000000 0.000000 0.000000" charge=0
N	-1.425706	-0.857731	-0.424904	7
C	-0.012166	-0.746121	-0.104294	6
C	0.410474	0.685479	-0.157484	6
C	0.949874	1.355269	0.871456	6
H	-1.704706	-1.834271	-0.356194	1
H	-1.572816	-0.590591	-1.395864	1
H	0.576464	-1.327031	-0.823254	1
H	0.166064	-1.174331	0.888126	1
H	0.273704	1.205949	-1.101704	1
H	1.104254	0.886159	1.837656	1
H	1.234555	2.397219	0.766456	1
Es	-1.622056	-0.659965	-0.212798	99
Es	-1.425368	-0.858068	-0.425260	99
Es	0.201758	-0.024830	-0.130030	99
Es	0.392537	1.116252	0.460383	99
Es	0.949920	1.355316	0.871529	99
Es	0.402549	-1.137323	-0.600006	99
Es	0.410431	0.685414	-0.157566	99
Es	0.110116	-1.035640	0.574821	99
Es	-1.496271	-0.707532	-1.020369	99
Es	-0.012289	-0.746093	-0.104337	99
Es	1.147036	2.062425	0.807609	99
Es	-0.802898	-0.820166	-0.304930	99
Es	1.058318	1.039914	1.529078	99
Es	-1.575996	-1.455453	-0.396977	99
Es	0.310183	1.028292	-0.806955	99
Es	0.987186	0.930055	0.268099	99
27
Properties=species:S:1:pos:R:3:Z:I:1 energy=-172.15869190080335 field_type=dipole dipole="0.000000 0.000000 0.000000" charge=0
N	-1.425706	-0.857731	-0.424904	7
C	-0.012166	-0.746121	-0.104294	6
C	0.410474	0.685479	-0.157484	6
C	0.949874	1.355269	0.871456	6
H	-1.704706	-1.834271	-0.356194	1
H	-1.572816	-0.590591	-1.395864	1
H	0.576464	-1.327031	-0.823254	1
H	0.166064	-1.174331	0.888126	1
H	0.273704	1.205949	-1.101704	1
H	1.104254	0.886159	1.837656	1
H	1.234555	2.397219	0.766456	1
Es	-1.425416	-0.858044	-0.425241	99
Es	0.310213	1.028340	-0.806973	99
Es	-0.802880	-0.820133	-0.304906	99
Es	0.201760	-0.024867	-0.130000	99
Es	1.147000	2.062446	0.807590	99
Es	0.987081	0.930069	0.268124	99
Es	0.110143	-1.035647	0.574791	99
Es	-1.621854	-0.660090	-0.212959	99
Es	1.058351	1.039900	1.529091	99
Es	-1.576102	-1.455435	-0.396876	99
Es	0.949920	1.355316	0.871529	99
Es	0.410435	0.685413	-0.157569	99
Es	-1.496368	-0.707501	-1.020358	99
Es	0.402541	-1.137301	-0.599986	99
Es	-0.012289	-0.746091	-0.104338	99
Es	0.392619	1.116225	0.460372	99
27
Properties=species:S:1:pos:R:3:Z:I:1 energy=-172.15869190080335 field_type=dipole dipole="0.000000 0.000000 0.000000" charge=0
N	-1.425706	-0.857731	-0.424904	7
C	-0.012166	-0.746121	-0.104294	6
C	0.410474	0.685479	-0.157484	6
C	0.949874	1.355269	0.871456	6
H	-1.704706	-1.834271	-0.356194	1
H	-1.572816	-0.590591	-1.395864	1
H	0.576464	-1.327031	-0.823254	1
H	0.166064	-1.174331	0.888126	1
H	0.273704	1.205949	-1.101704	1
H	1.104254	0.886159	1.837656	1
H	1.234555	2.397219	0.766456	1
Es	0.949917	1.355315	0.871527	99
Es	0.986981	0.930092	0.268149	99
Es	-0.802948	-0.820027	-0.304516	99
Es	0.201762	-0.024929	-0.129972	99
Es	0.410435	0.685411	-0.157571	99
Es	0.110170	-1.035643	0.574770	99
Es	0.402551	-1.137276	-0.599971	99
Es	0.310229	1.028380	-0.806975	99
Es	1.147014	2.062456	0.807577	99
Es	-1.621583	-0.660221	-0.213532	99
Es	-1.425388	-0.858043	-0.425243	99
Es	1.058359	1.039882	1.529093	99
Es	0.392695	1.116212	0.460347	99
Es	-0.012291	-0.746091	-0.104338	99
Es	-1.496336	-0.707591	-1.020704	99
Es	-1.576410	-1.455330	-0.396351	99
27
Properties=species:S:1:pos:R:3:Z:I:1 energy=-172.15869190080335 field_type=dipole dipole="0.000000 0.000000 0.000000" charge=0
N	-1.425706	-0.857731	-0.424904	7
C	-0.012166	-0.746121	-0.104294	6
C	0.410474	0.685479	-0.157484	6
C	0.949874	1.355269	0.871456	6
H	-1.704706	-1.834271	-0.356194	1
H	-1.572816	-0.590591	-1.395864	1
H	0.576464	-1.327031	-0.823254	1
H	0.166064	-1.174331	0.888126	1
H	0.273704	1.205949	-1.101704	1
H	1.104254	0.886159	1.837656	1
H	1.234555	2.397219	0.766456	1
Es	-1.496465	-0.707397	-1.020335	99
Es	0.392797	1.116165	0.460301	99
Es	-0.012289	-0.746092	-0.104338	99
Es	0.986945	0.930118	0.268160	99
Es	0.410436	0.685413	-0.157568	99
Es	0.949920	1.355316	0.871528	99
Es	-1.425371	-0.858060	-0.425255	99
Es	0.402571	-1.137261	-0.599940	99
Es	-1.621810	-0.660313	-0.213202	99
Es	0.310207	1.028417	-0.806967	99
Es	1.147006	2.062479	0.807568	99
Es	0.201745	-0.024978	-0.129943	99
Es	1.058347	1.039866	1.529101	99
Es	0.110173	-1.035628	0.574763	99
Es	-1.576219	-1.455434	-0.396837	99
Es	-0.802835	-0.820013	-0.304744	99
27
Properties=species:S:1:pos:R:3:Z:I:1 energy=-172.15869190080335 field_type=dipole dipole="0.000000 0.000000 0.000000" charge=0
N	-1.425706	-0.857731	-0.424904	7
C	-0.012166	-0.746121	-0.104294	6
C	0.410474	0.685479	-0.157484	6
C	0.949874	1.355269	0.871456	6
H	-1.704706	-1.834271	-0.356194	1
H	-1.572816	-0.590591	-1.395864	1
H	0.576464	-1.327031	-0.823254	1
H	0.166064	-1.174331	0.888126	1
H	0.273704	1.205949	-1.101704	1
H	1.104254	0.886159	1.837656	1
H	1.234555	2.397219	0.766456	1
Es	0.949920	1.355316	0.871528	99
Es	0.310228	1.028472	-0.806971	99
Es	0.392866	1.116136	0.460278	99
Es	-0.802835	-0.820144	-0.304910	99
Es	1.147010	2.062479	0.807544	99
Es	0.402579	-1.137236	-0.599902	99
Es	0.410436	0.685413	-0.157568	99
Es	-1.425384	-0.858056	-0.425252	99
Es	-0.012288	-0.746092	-0.104338	99
Es	0.986869	0.930117	0.268193	99
Es	0.201747	-0.025033	-0.129935	99
Es	-1.576230	-1.455374	-0.396823	99
Es	-1.621855	-0.660128	-0.213101	99
Es	0.110186	-1.035621	0.574750	99
Es	1.058343	1.039884	1.529110	99
Es	-1.496438	-0.707534	-1.020313	99
27
Properties=species:S:1:pos:R:3:Z:I:1 energy=-172.15869190080335 field_type=dipole dipole="0.000000 0.000000 0.000000" charge=0
N	-1.425706	-0.857731	-0.424904	7
C	-0.012166	-0.746121	-0.104294	6
C	0.410474	0.685479	-0.157484	6
C	0.949874	1.355269	0.871456	6
H	-1.704706	-1.834271	-0.356194	1
H	-1.572816	-0.590591	-1.395864	1
H	0.576464	-1.327031	-0.823254	1
H	0.166064	-1.174331	0.888126	1
H	0.273704	1.205949	-1.101704	1
H	1.104254	0.886159	1.837656	1
H	1.234555	2.397219	0.766456	1
Es	1.058374	1.039892	1.529135	99
Es	0.402615	-1.137226	-0.599887	99
Es	1.146972	2.062455	0.807536	99
Es	-1.425381	-0.858063	-0.425260	99
Es	0.201709	-0.025104	-0.129871	99
Es	0.310246	1.028484	-0.807009	99
Es	-1.576298	-1.455290	-0.396797	99
Es	0.410436	0.685413	-0.157568	99
Es	0.110210	-1.035573	0.574751	99
Es	0.986802	0.930156	0.268184	99
Es	-1.496501	-0.707538	-1.020312	99
Es	-0.802777	-0.820197	-0.304880	99
Es	0.392935	1.116141	0.460232	99
Es	-1.621816	-0.660174	-0.213154	99
Es	0.949920	1.355315	0.871528	99
Es	-0.012288	-0.746092	-0.104338	99
27
Properties=species:S:1:pos:R:3:Z:I:1 energy=-172.15869190080335 field_type=dipole dipole="0.000000 0.000000 0.000000" charge=0
N	-1.425706	-0.857731	-0.424904	7
C	-0.012166	-0.746121	-0.104294	6
C	0.410474	0.685479	-0.157484	6
C	0.949874	1.355269	0.871456	6
H	-1.704706	-1.834271	-0.356194	1
H	-1.572816	-0.590591	-1.395864	1
H	0.576464	-1.327031	-0.823254	1
H	0.166064	-1.174331	0.888126	1
H	0.273704	1.205949	-1.101704	1
H	1.104254	0.886159	1.837656	1
H	1.234555	2.397219	0.766456	1
Es	-0.802812	-0.820095	-0.304807	99
Es	0.392948	1.116177	0.460248	99
Es	0.310280	1.028522	-0.806988	99
Es	0.110211	-1.035609	0.574719	99
Es	0.201775	-0.025162	-0.129864	99
Es	0.410436	0.685413	-0.157568	99
Es	-1.425400	-0.858066	-0.425260	99
Es	-1.576437	-1.455326	-0.396623	99
Es	-1.621755	-0.660097	-0.213424	99
Es	0.986620	0.930185	0.268217	99
Es	-1.496403	-0.707675	-1.020320	99
Es	-0.012287	-0.746092	-0.104338	99
Es	0.949920	1.355315	0.871527	99
Es	1.058385	1.039827	1.529108	99
Es	1.147064	2.062474	0.807526	99
Es	0.402610	-1.137192	-0.599864	99
27
Properties=species:S:1:pos:R:3:Z:I:1 energy=-172.15869190080335 field_type=dipole dipole="0.000000 0.000000 0.000000" charge=0
N	-1.425706	-0.857731	-0.424904	7
C	-0.012166	-0.746121	-0.104294	6
C	0.410474	0.685479	-0.157484	6
C	0.949874	1.355269	0.871456	6
H	-1.704706	-1.834271	-0.356194	1
H	-1.572816	-0.590591	-1.395864	1
H	0.576464	-1.327031	-0.823254	1
H	0.166064	-1.174331	0.888126	1
H	0.273704	1.205949	-1.101704	1
H	1.104254	0.886159	1.837656	1
H	1.234555	2.397219	0.766456	1
Es	0.949919	1.355315	0.871527	99
Es	0.393164	1.116030	0.460131	99
Es	-1.496572	-0.707474	-1.020252	99
Es	0.310191	1.028587	-0.806952	99
Es	-0.802788	-0.820099	-0.304868	99
Es	1.146957	2.062518	0.807548	99
Es	0.402625	-1.137177	-0.599839	99
Es	-1.425388	-0.858062	-0.425258	99
Es	-0.012287	-0.746092	-0.104338	99
Es	0.410436	0.685413	-0.157567	99
Es	0.201707	-0.025193	-0.129824	99
Es	1.058297	1.039848	1.529143	99
Es	0.110221	-1.035600	0.574704	99
Es	0.986765	0.930218	0.268205	99
Es	-1.621700	-0.660296	-0.213328	99
Es	-1.576390	-1.455338	-0.396742	99
