33
Properties=species:S:1:pos:R:3:Z:I:1 energy=-231.03446168095607 field_type=dipole dipole="0.000000 0.000000 0.000000" charge=0
C	-1.223819	-1.880607	-0.044909	6
O	-0.002109	-1.157047	-0.015469	8
C	-0.216469	0.219893	0.276381	6
C	1.119511	0.891143	0.278381	6
C	1.444711	1.949303	-0.475689	6
H	-0.999709	-2.926697	-0.271629	1
H	-1.883679	-1.488467	-0.825119	1
H	-1.721479	-1.833177	0.928551	1
H	-0.674179	0.320053	1.267131	1
H	-0.885139	0.659833	-0.473069	1
H	1.865691	0.465663	0.944161	1
H	0.736251	2.401533	-1.162779	1
H	2.440421	2.378573	-0.425939	1
Es	2.116406	2.247450	-0.445907	99
Es	1.444728	1.949392	-0.475739	99
Es	-0.117936	-0.636713	0.098662	99
Es	-0.531288	0.292200	0.956506	99
Es	-1.223638	-1.880490	-0.044903	99
Es	0.105595	-1.163412	-0.300598	99
Es	0.452156	0.562364	0.273678	99
Es	1.119454	0.891060	0.278439	99
Es	1.174518	1.629045	0.137510	99
Es	0.156761	-1.267221	0.222575	99
Es	-1.683535	-1.605761	-0.577556	99
Es	-0.486988	-1.403803	-0.018437	99
Es	-0.002462	-1.156898	-0.015366	99
Es	1.616964	0.598598	0.733234	99
Es	-1.572125	-1.842267	0.624210	99
Es	-0.216396	0.219696	0.276343	99
Es	0.965989	2.260045	-0.942934	99
Es	-1.073359	-2.592280	-0.198869	99
Es	1.378701	1.232702	-0.340119	99
Es	-0.678438	0.526428	-0.238362	99
33
Properties=species:S:1:pos:R:3:Z:I:1 energy=-231.03446168095607 field_type=dipole dipole="0.000000 0.000000 0.000000" charge=0
C	-1.223819	-1.880607	-0.044909	6
O	-0.002109	-1.157047	-0.015469	8
C	-0.216469	0.219893	0.276381	6
C	1.119511	0.891143	0.278381	6
C	1.444711	1.949303	-0.475689	6
H	-0.999709	-2.926697	-0.271629	1
H	-1.883679	-1.488467	-0.825119	1
H	-1.721479	-1.833177	0.928551	1
H	-0.674179	0.320053	1.267131	1
H	-0.885139	0.659833	-0.473069	1
H	1.865691	0.465663	0.944161	1
H	0.736251	2.401533	-1.162779	1
H	2.440421	2.378573	-0.425939	1
Es	-0.216396	0.219695	0.276343	99
Es	0.452134	0.562589	0.273751	99
Es	2.116425	2.247390	-0.445971	99
Es	-0.486698	-1.404080	-0.017364	99
Es	1.174631	1.628953	0.137443	99
Es	-1.683303	-1.605797	-0.577515	99
Es	-0.117949	-0.637075	0.099540	99
Es	1.444728	1.949390	-0.475736	99
Es	0.103103	-1.162093	-0.301293	99
Es	0.159094	-1.267977	0.221301	99
Es	1.616958	0.598586	0.733340	99
Es	-1.572326	-1.842092	0.624167	99
Es	-0.678439	0.526397	-0.238313	99
Es	-1.073506	-2.592355	-0.198889	99
Es	1.119451	0.891056	0.278440	99
Es	0.965962	2.260116	-0.942861	99
Es	-1.223640	-1.880491	-0.044903	99
Es	1.378654	1.232670	-0.340185	99
Es	-0.531343	0.292168	0.956415	99
Es	-0.002431	-1.156917	-0.015344	99
33
Properties=species:S:1:pos:R:3:Z:I:1 energy=-231.03446168095607 field_type=dipole dipole="0.000000 0.000000 0.000000" charge=0
C	-1.223819	-1.880607	-0.044909	6
O	-0.002109	-1.157047	-0.015469	8
C	-0.216469	0.219893	0.276381	6
C	1.119511	0.891143	0.278381	6
C	1.444711	1.949303	-0.475689	6
H	-0.999709	-2.926697	-0.271629	1
H	-1.883679	-1.488467	-0.825119	1
H	-1.721479	-1.833177	0.928551	1
H	-0.674179	0.320053	1.267131	1
H	-0.885139	0.659833	-0.473069	1
H	1.865691	0.465663	0.944161	1
H	0.736251	2.401533	-1.162779	1
H	2.440421	2.378573	-0.425939	1
Es	-1.073495	-2.592325	-0.198862	99
Es	0.965854	2.260074	-0.942849	99
Es	-0.117366	-0.636623	0.099745	99
Es	1.174679	1.628827	0.137323	99
Es	0.103242	-1.162594	-0.301082	99
Es	-1.683384	-1.605828	-0.577504	99
Es	2.116495	2.247438	-0.445965	99
Es	-0.678470	0.526366	-0.238295	99
Es	-1.223637	-1.880490	-0.044903	99
Es	0.158387	-1.268049	0.220902	99
Es	-0.486785	-1.403874	-0.017273	99
Es	-0.216396	0.219698	0.276343	99
Es	1.119454	0.891059	0.278437	99
Es	0.452058	0.562544	0.273578	99
Es	-1.572273	-1.842152	0.624146	99
Es	-0.002345	-1.156979	-0.015422	99
Es	1.616951	0.598622	0.733373	99
Es	-0.531274	0.292238	0.956449	99
Es	1.378686	1.232792	-0.340038	99
Es	1.444729	1.949392	-0.475737	99
33
Properties=species:S:1:pos:R:3:Z:I:1 energy=-231.03446168095607 field_type=dipole dipole="0.000000 0.000000 0.000000" charge=0
C	-1.223819	-1.880607	-0.044909	6
O	-0.002109	-1.157047	-0.015469	8
C	-0.216469	0.219893	0.276381	6
C	1.119511	0.891143	0.278381	6
C	1.444711	1.949303	-0.475689	6
H	-0.999709	-2.926697	-0.271629	1
H	-1.883679	-1.488467	-0.825119	1
H	-1.721479	-1.833177	0.928551	1
H	-0.674179	0.320053	1.267131	1
H	-0.885139	0.659833	-0.473069	1
H	1.865691	0.465663	0.944161	1
H	0.736251	2.401533	-1.162779	1
H	2.440421	2.378573	-0.425939	1
Es	-0.216396	0.219698	0.276342	99
Es	-0.002444	-1.156897	-0.015384	99
Es	1.378590	1.232884	-0.339927	99
Es	-0.531265	0.292195	0.956364	99
Es	-0.117934	-0.636694	0.098290	99
Es	-1.223640	-1.880492	-0.044903	99
Es	1.617061	0.598614	0.733351	99
Es	-0.678517	0.526368	-0.238222	99
Es	-0.486870	-1.404062	-0.018274	99
Es	0.452040	0.562587	0.273572	99
Es	0.965918	2.260063	-0.942855	99
Es	-1.683320	-1.605870	-0.577450	99
Es	0.106622	-1.164038	-0.300535	99
Es	1.119453	0.891058	0.278439	99
Es	1.444728	1.949399	-0.475735	99
Es	1.174649	1.628774	0.137250	99
Es	2.116512	2.247441	-0.445934	99
Es	-1.073506	-2.592315	-0.198932	99
Es	-1.572332	-1.842159	0.624171	99
Es	0.155760	-1.266416	0.222739	99
33
Properties=species:S:1:pos:R:3:Z:I:1 energy=-231.03446168095607 field_type=dipole dipole="0.000000 0.000000 0.000000" charge=0
C	-1.223819	-1.880607	-0.044909	6
O	-0.002109	-1.157047	-0.015469	8
C	-0.216469	0.219893	0.276381	6
C	1.119511	0.891143	0.278381	6
C	1.444711	1.949303	-0.475689	6
H	-0.999709	-2.926697	-0.271629	1
H	-1.883679	-1.488467	-0.825119	1
H	-1.721479	-1.833177	0.928551	1
H	-0.674179	0.320053	1.267131	1
H	-0.885139	0.659833	-0.473069	1
H	1.865691	0.465663	0.944161	1
H	0.736251	2.401533	-1.162779	1
H	2.440421	2.378573	-0.425939	1
Es	-0.117148	-0.636464	0.099645	99
Es	-0.531279	0.292245	0.956380	99
Es	-1.683355	-1.605888	-0.577494	99
Es	1.378624	1.232894	-0.339895	99
Es	-0.487113	-1.403947	-0.018432	99
Es	-1.223637	-1.880491	-0.044903	99
Es	-1.572317	-1.842121	0.624120	99
Es	1.174674	1.628781	0.137266	99
Es	1.444728	1.949393	-0.475731	99
Es	-0.678448	0.526400	-0.238256	99
Es	1.617046	0.598638	0.733331	99
Es	-0.216397	0.219699	0.276344	99
Es	0.105860	-1.163496	-0.300277	99
Es	-1.073532	-2.592321	-0.198834	99
Es	0.156054	-1.267377	0.221314	99
Es	0.451977	0.562510	0.273598	99
Es	0.965868	2.260032	-0.942859	99
Es	1.119456	0.891066	0.278434	99
Es	2.116518	2.247462	-0.445961	99
Es	-0.002470	-1.156879	-0.015425	99
33
Properties=species:S:1:pos:R:3:Z:I:1 energy=-231.03446168095607 field_type=dipole dipole="0.000000 0.000000 0.000000" charge=0
C	-1.223819	-1.880607	-0.044909	6
O	-0.002109	-1.157047	-0.015469	8
C	-0.216469	0.219893	0.276381	6
C	1.119511	0.891143	0.278381	6
C	1.444711	1.949303	-0.475689	6
H	-0.999709	-2.926697	-0.271629	1
H	-1.883679	-1.488467	-0.825119	1
H	-1.721479	-1.833177	0.928551	1
H	-0.674179	0.320053	1.267131	1
H	-0.885139	0.659833	-0.473069	1
H	1.865691	0.465663	0.944161	1
H	0.736251	2.401533	-1.162779	1
H	2.440421	2.378573	-0.425939	1
Es	-1.223638	-1.880491	-0.044903	99
Es	0.104452	-1.163014	-0.299985	99
Es	1.617063	0.598669	0.733346	99
Es	-1.572296	-1.842175	0.624067	99
Es	-0.486921	-1.404611	-0.017758	99
Es	-0.678424	0.526390	-0.238223	99
Es	-1.683392	-1.605896	-0.577455	99
Es	1.444729	1.949391	-0.475738	99
Es	0.157621	-1.267214	0.220782	99
Es	-0.117455	-0.636422	0.099260	99
Es	-0.002470	-1.156876	-0.015471	99
Es	0.451927	0.562534	0.273589	99
Es	-1.073558	-2.592312	-0.198840	99
Es	0.965831	2.260076	-0.942827	99
Es	2.116536	2.247448	-0.445949	99
Es	1.174745	1.628693	0.137180	99
Es	1.378612	1.232942	-0.339837	99
Es	-0.531311	0.292244	0.956345	99
Es	-0.216396	0.219698	0.276343	99
Es	1.119455	0.891061	0.278437	99
33
Properties=species:S:1:pos:R:3:Z:I:1 energy=-231.03446168095607 field_type=dipole dipole="0.000000 0.000000 0.000000" charge=0
C	-1.223819	-1.880607	-0.044909	6
O	-0.002109	-1.157047	-0.015469	8
C	-0.216469	0.219893	0.276381	6
C	1.119511	0.891143	0.278381	6
C	1.444711	1.949303	-0.475689	6
H	-0.999709	-2.926697	-0.271629	1
H	-1.883679	-1.488467	-0.825119	1
H	-1.721479	-1.833177	0.928551	1
H	-0.674179	0.320053	1.267131	1
H	-0.885139	0.659833	-0.473069	1
H	1.865691	0.465663	0.944161	1
H	0.736251	2.401533	-1.162779	1
H	2.440421	2.378573	-0.425939	1
Es	2.116550	2.247431	-0.445912	99
Es	-1.073512	-2.592337	-0.198846	99
Es	1.444728	1.949391	-0.475737	99
Es	-0.488656	-1.409211	-0.027683	99
Es	1.378592	1.232995	-0.339782	99
Es	0.038277	-1.155707	-0.143211	99
Es	0.451880	0.562516	0.273588	99
Es	-0.531338	0.292205	0.956388	99
Es	0.187936	-1.280084	0.206544	99
Es	0.031625	-1.152715	-0.142189	99
Es	0.965838	2.260085	-0.942860	99
Es	-1.683380	-1.605882	-0.577467	99
Es	-1.572265	-1.842113	0.624159	99
Es	-0.678417	0.526401	-0.238227	99
Es	-0.114001	-0.630442	0.093258	99
Es	1.617114	0.598707	0.733364	99
Es	1.119455	0.891061	0.278437	99
Es	-1.223639	-1.880492	-0.044903	99
Es	-0.216396	0.219699	0.276344	99
Es	1.174721	1.628627	0.137100	99
33
Properties=species:S:1:pos:R:3:Z:I:1 energy=-231.03446168095607 field_type=dipole dipole="0.000000 0.000000 0.000000" charge=0
C	-1.223819	-1.880607	-0.044909	6
O	-0.002109	-1.157047	-0.015469	8
C	-0.216469	0.219893	0.276381	6
C	1.119511	0.891143	0.278381	6
C	1.444711	1.949303	-0.475689	6
H	-0.999709	-2.926697	-0.271629	1
H	-1.883679	-1.488467	-0.825119	1
H	-1.721479	-1.833177	0.928551	1
H	-0.674179	0.320053	1.267131	1
H	-0.885139	0.659833	-0.473069	1
H	1.865691	0.465663	0.944161	1
H	0.736251	2.401533	-1.162779	1
H	2.440421	2.378573	-0.425939	1
Es	-0.117413	-0.635537	0.096682	99
Es	0.154063	-1.265707	0.223070	99
Es	0.451788	0.562541	0.273575	99
Es	-1.073589	-2.592313	-0.198829	99
Es	-1.683391	-1.605924	-0.577427	99
Es	-0.216397	0.219706	0.276346	99
Es	-0.531357	0.292249	0.956302	99
Es	-0.002412	-1.156934	-0.015346	99
Es	0.965866	2.260035	-0.942899	99
Es	0.108155	-1.165394	-0.297794	99
Es	1.444729	1.949386	-0.475737	99
Es	-0.678357	0.526409	-0.238181	99
Es	1.617134	0.598682	0.733334	99
Es	2.116578	2.247400	-0.445959	99
Es	-1.572307	-1.842170	0.624039	99
Es	1.174768	1.628641	0.137130	99
Es	1.378551	1.233097	-0.339629	99
Es	-1.223638	-1.880491	-0.044903	99
Es	-0.487116	-1.404603	-0.019843	99
Es	1.119455	0.891062	0.278436	99
33
Properties=species:S:1:pos:R:3:Z:I:1 energy=-231.03446168095607 field_type=dipole dipole="0.000000 0.000000 0.000000" charge=0
C	-1.223819	-1.880607	-0.044909	6
O	-0.002109	-1.157047	-0.015469	8
C	-0.216469	0.219893	0.276381	6
C	1.119511	0.891143	0.278381	6
C	1.444711	1.949303	-0.475689	6
H	-0.999709	-2.926697	-0.271629	1
H	-1.883679	-1.488467	-0.825119	1
H	-1.721479	-1.833177	0.928551	1
H	-0.674179	0.320053	1.267131	1
H	-0.885139	0.659833	-0.473069	1
H	1.865691	0.465663	0.944161	1
H	0.736251	2.401533	-1.162779	1
H	2.440421	2.378573	-0.425939	1
Es	-0.117438	-0.635836	0.097872	99
Es	-0.678425	0.526406	-0.238162	99
Es	1.174769	1.628592	0.137079	99
Es	-1.073638	-2.592342	-0.198866	99
Es	1.617187	0.598707	0.733325	99
Es	-0.486856	-1.405427	-0.017119	99
Es	-1.223643	-1.880494	-0.044903	99
Es	0.106794	-1.164930	-0.299525	99
Es	-1.683388	-1.605899	-0.577359	99
Es	-1.572296	-1.842168	0.624009	99
Es	0.451762	0.562530	0.273559	99
Es	0.965839	2.259972	-0.942848	99
Es	1.119455	0.891062	0.278437	99
Es	-0.531286	0.292259	0.956314	99
Es	2.116566	2.247501	-0.445975	99
Es	-0.216397	0.219701	0.276344	99
Es	1.378554	1.233095	-0.339630	99
Es	-0.002448	-1.156901	-0.015345	99
Es	1.444727	1.949388	-0.475737	99
Es	0.155269	-1.265081	0.220895	99
