32
Properties=species:S:1:pos:R:3:Z:I:1 energy=-247.08238966949875 field_type=dipole dipole="0.000000 0.000000 0.000000" charge=0
C	-1.361708	0.132376	-0.149840	6
N	0.069102	0.130326	0.076370	7
C	0.761962	-1.142754	0.028090	6
C	0.780572	1.307386	0.180420	6
O	1.996812	1.406946	0.277380	8
H	-1.774838	1.139816	-0.051480	1
H	-1.838948	-0.524974	0.582540	1
H	-1.559188	-0.237394	-1.159790	1
H	0.293602	-1.829194	0.738590	1
H	1.820102	-1.034034	0.282230	1
H	0.678842	-1.548654	-0.983560	1
H	0.133692	2.200156	0.179050	1
Es	1.608162	1.384627	-0.002691	99
Es	-1.631112	0.817708	-0.081917	99
Es	0.435153	-1.609785	0.509149	99
Es	0.699448	-1.421488	-0.661849	99
Es	0.780463	1.307249	0.180412	99
Es	0.186348	0.375942	0.384851	99
Es	-0.541131	0.134886	-0.026790	99
Es	1.458211	-1.068934	0.197890	99
Es	2.133414	1.128374	0.271716	99
Es	-1.686997	-0.316453	0.346152	99
Es	0.321454	1.910292	0.176295	99
Es	0.320784	0.526139	-0.128516	99
Es	2.081233	1.701214	0.300213	99
Es	0.069172	0.130418	0.076088	99
Es	1.996466	1.406899	0.277356	99
Es	0.360804	-0.408415	0.047795	99
Es	0.761842	-1.142593	0.028092	99
Es	1.571911	1.356823	0.492526	99
Es	-1.361528	0.132389	-0.149809	99
Es	-1.499036	-0.121772	-0.837411	99
32
Properties=species:S:1:pos:R:3:Z:I:1 energy=-247.08238966949875 field_type=dipole dipole="0.000000 0.000000 0.000000" charge=0
C	-1.361708	0.132376	-0.149840	6
N	0.069102	0.130326	0.076370	7
C	0.761962	-1.142754	0.028090	6
C	0.780572	1.307386	0.180420	6
O	1.996812	1.406946	0.277380	8
H	-1.774838	1.139816	-0.051480	1
H	-1.838948	-0.524974	0.582540	1
H	-1.559188	-0.237394	-1.159790	1
H	0.293602	-1.829194	0.738590	1
H	1.820102	-1.034034	0.282230	1
H	0.678842	-1.548654	-0.983560	1
H	0.133692	2.200156	0.179050	1
Es	0.699402	-1.421525	-0.661795	99
Es	1.570715	1.358050	0.492533	99
Es	1.458281	-1.068957	0.197897	99
Es	0.321418	1.910318	0.176338	99
Es	1.609005	1.387301	-0.002445	99
Es	0.361002	-0.408216	0.046774	99
Es	-1.361529	0.132387	-0.149809	99
Es	-1.499057	-0.121764	-0.837369	99
Es	-1.631118	0.817700	-0.081941	99
Es	0.185987	0.374645	0.384625	99
Es	0.069148	0.130393	0.076192	99
Es	-1.687025	-0.316435	0.346143	99
Es	0.435163	-1.609734	0.509113	99
Es	0.321199	0.527181	-0.127367	99
Es	0.761841	-1.142591	0.028091	99
Es	-0.541305	0.134952	-0.026830	99
Es	2.083769	1.699376	0.300924	99
Es	1.996448	1.406891	0.277351	99
Es	2.131249	1.126300	0.270719	99
Es	0.780466	1.307249	0.180410	99
32
Properties=species:S:1:pos:R:3:Z:I:1 energy=-247.08238966949875 field_type=dipole dipole="0.000000 0.000000 0.000000" charge=0
C	-1.361708	0.132376	-0.149840	6
N	0.069102	0.130326	0.076370	7
C	0.761962	-1.142754	0.028090	6
C	0.780572	1.307386	0.180420	6
O	1.996812	1.406946	0.277380	8
H	-1.774838	1.139816	-0.051480	1
H	-1.838948	-0.524974	0.582540	1
H	-1.559188	-0.237394	-1.159790	1
H	0.293602	-1.829194	0.738590	1
H	1.820102	-1.034034	0.282230	1
H	0.678842	-1.548654	-0.983560	1
H	0.133692	2.200156	0.179050	1
Es	0.780467	1.307249	0.180411	99
Es	-0.541204	0.134775	-0.026344	99
Es	0.320379	0.525585	-0.129004	99
Es	2.081910	1.700192	0.302565	99
Es	-1.499049	-0.121629	-0.837389	99
Es	-1.631122	0.817701	-0.081841	99
Es	1.458272	-1.068944	0.197918	99
Es	-1.361530	0.132387	-0.149810	99
Es	0.321390	1.910359	0.176402	99
Es	0.761841	-1.142592	0.028092	99
Es	1.996484	1.406894	0.277353	99
Es	0.360741	-0.408385	0.047808	99
Es	0.699441	-1.421488	-0.661800	99
Es	0.186946	0.376551	0.384767	99
Es	0.069164	0.130407	0.076108	99
Es	1.610317	1.386296	-0.004345	99
Es	2.132614	1.129042	0.271312	99
Es	-1.687021	-0.316556	0.346082	99
Es	1.569874	1.355450	0.492182	99
Es	0.435147	-1.609773	0.509088	99
32
Properties=species:S:1:pos:R:3:Z:I:1 energy=-247.08238966949875 field_type=dipole dipole="0.000000 0.000000 0.000000" charge=0
C	-1.361708	0.132376	-0.149840	6
N	0.069102	0.130326	0.076370	7
C	0.761962	-1.142754	0.028090	6
C	0.780572	1.307386	0.180420	6
O	1.996812	1.406946	0.277380	8
H	-1.774838	1.139816	-0.051480	1
H	-1.838948	-0.524974	0.582540	1
H	-1.559188	-0.237394	-1.159790	1
H	0.293602	-1.829194	0.738590	1
H	1.820102	-1.034034	0.282230	1
H	0.678842	-1.548654	-0.983560	1
H	0.133692	2.200156	0.179050	1
Es	2.081310	1.699772	0.303410	99
Es	-1.631126	0.817666	-0.081935	99
Es	1.569431	1.356294	0.490624	99
Es	0.761844	-1.142596	0.028093	99
Es	0.321396	1.910374	0.176469	99
Es	0.069122	0.130367	0.076292	99
Es	2.133185	1.127881	0.272432	99
Es	1.458291	-1.068968	0.197868	99
Es	-1.499074	-0.121730	-0.837360	99
Es	0.780469	1.307251	0.180411	99
Es	0.360602	-0.408540	0.049124	99
Es	0.435211	-1.609789	0.509057	99
Es	0.699405	-1.421482	-0.661761	99
Es	0.188189	0.379334	0.384968	99
Es	-1.361531	0.132387	-0.149810	99
Es	1.610811	1.387001	-0.004813	99
Es	-0.541131	0.134754	-0.026434	99
Es	1.996471	1.406908	0.277359	99
Es	-1.687044	-0.316434	0.346122	99
Es	0.319231	0.523072	-0.130564	99
32
Properties=species:S:1:pos:R:3:Z:I:1 energy=-247.08238966949875 field_type=dipole dipole="0.000000 0.000000 0.000000" charge=0
C	-1.361708	0.132376	-0.149840	6
N	0.069102	0.130326	0.076370	7
C	0.761962	-1.142754	0.028090	6
C	0.780572	1.307386	0.180420	6
O	1.996812	1.406946	0.277380	8
H	-1.774838	1.139816	-0.051480	1
H	-1.838948	-0.524974	0.582540	1
H	-1.559188	-0.237394	-1.159790	1
H	0.293602	-1.829194	0.738590	1
H	1.820102	-1.034034	0.282230	1
H	0.678842	-1.548654	-0.983560	1
H	0.133692	2.200156	0.179050	1
Es	-1.361530	0.132387	-0.149810	99
Es	1.996460	1.406873	0.277350	99
Es	0.435153	-1.609702	0.509025	99
Es	0.360890	-0.408393	0.047494	99
Es	0.780466	1.307249	0.180409	99
Es	2.081128	1.699860	0.302264	99
Es	0.761843	-1.142594	0.028092	99
Es	-1.499089	-0.121669	-0.837294	99
Es	2.133573	1.128220	0.271133	99
Es	-1.631104	0.817653	-0.081982	99
Es	1.610044	1.386804	-0.003692	99
Es	-0.541113	0.134904	-0.026577	99
Es	0.069143	0.130380	0.076155	99
Es	1.569992	1.356104	0.492006	99
Es	0.186949	0.376563	0.384729	99
Es	1.458301	-1.069029	0.197951	99
Es	0.320274	0.525516	-0.128521	99
Es	0.699414	-1.421544	-0.661757	99
Es	0.321363	1.910403	0.176431	99
Es	-1.687097	-0.316464	0.346146	99
32
Properties=species:S:1:pos:R:3:Z:I:1 energy=-247.08238966949875 field_type=dipole dipole="0.000000 0.000000 0.000000" charge=0
C	-1.361708	0.132376	-0.149840	6
N	0.069102	0.130326	0.076370	7
C	0.761962	-1.142754	0.028090	6
C	0.780572	1.307386	0.180420	6
O	1.996812	1.406946	0.277380	8
H	-1.774838	1.139816	-0.051480	1
H	-1.838948	-0.524974	0.582540	1
H	-1.559188	-0.237394	-1.159790	1
H	0.293602	-1.829194	0.738590	1
H	1.820102	-1.034034	0.282230	1
H	0.678842	-1.548654	-0.983560	1
H	0.133692	2.200156	0.179050	1
Es	0.360871	-0.408276	0.047396	99
Es	-1.631133	0.817697	-0.081966	99
Es	-1.499041	-0.121714	-0.837320	99
Es	0.435150	-1.609838	0.509018	99
Es	-0.541131	0.134841	-0.026697	99
Es	0.320573	0.525938	-0.128218	99
Es	1.996552	1.406911	0.277342	99
Es	0.780466	1.307249	0.180410	99
Es	-1.361531	0.132387	-0.149810	99
Es	0.761844	-1.142596	0.028093	99
Es	2.079125	1.700213	0.302530	99
Es	0.069170	0.130420	0.076127	99
Es	0.699454	-1.421436	-0.661696	99
Es	0.186645	0.376055	0.384758	99
Es	-1.687094	-0.316430	0.346070	99
Es	1.570692	1.354684	0.492611	99
Es	1.609440	1.386634	-0.003540	99
Es	2.135398	1.129379	0.270184	99
Es	0.321324	1.910427	0.176389	99
Es	1.458290	-1.069025	0.197872	99
32
Properties=species:S:1:pos:R:3:Z:I:1 energy=-247.08238966949875 field_type=dipole dipole="0.000000 0.000000 0.000000" charge=0
C	-1.361708	0.132376	-0.149840	6
N	0.069102	0.130326	0.076370	7
C	0.761962	-1.142754	0.028090	6
C	0.780572	1.307386	0.180420	6
O	1.996812	1.406946	0.277380	8
H	-1.774838	1.139816	-0.051480	1
H	-1.838948	-0.524974	0.582540	1
H	-1.559188	-0.237394	-1.159790	1
H	0.293602	-1.829194	0.738590	1
H	1.820102	-1.034034	0.282230	1
H	0.678842	-1.548654	-0.983560	1
H	0.133692	2.200156	0.179050	1
Es	0.780463	1.307248	0.180403	99
Es	-0.540975	0.135087	-0.027725	99
Es	1.611627	1.386618	-0.004760	99
Es	0.435205	-1.609791	0.509004	99
Es	-1.631139	0.817645	-0.081937	99
Es	-1.499114	-0.121710	-0.837329	99
Es	0.322985	0.530110	-0.124994	99
Es	2.134488	1.129235	0.271900	99
Es	0.183827	0.371544	0.383693	99
Es	1.996438	1.406910	0.277354	99
Es	0.761844	-1.142594	0.028093	99
Es	-1.361530	0.132387	-0.149809	99
Es	0.069201	0.130452	0.076028	99
Es	0.321300	1.910465	0.176477	99
Es	1.458223	-1.069017	0.197934	99
Es	0.699512	-1.421503	-0.661752	99
Es	2.079940	1.700154	0.303507	99
Es	0.361099	-0.408173	0.046331	99
Es	-1.687059	-0.316414	0.346090	99
Es	1.568726	1.354869	0.491045	99
32
Properties=species:S:1:pos:R:3:Z:I:1 energy=-247.08238966949875 field_type=dipole dipole="0.000000 0.000000 0.000000" charge=0
C	-1.361708	0.132376	-0.149840	6
N	0.069102	0.130326	0.076370	7
C	0.761962	-1.142754	0.028090	6
C	0.780572	1.307386	0.180420	6
O	1.996812	1.406946	0.277380	8
H	-1.774838	1.139816	-0.051480	1
H	-1.838948	-0.524974	0.582540	1
H	-1.559188	-0.237394	-1.159790	1
H	0.293602	-1.829194	0.738590	1
H	1.820102	-1.034034	0.282230	1
H	0.678842	-1.548654	-0.983560	1
H	0.133692	2.200156	0.179050	1
Es	-1.361534	0.132387	-0.149810	99
Es	-0.540825	0.135065	-0.027940	99
Es	2.135559	1.129647	0.271214	99
Es	0.323610	0.531242	-0.124479	99
Es	1.610510	1.386187	-0.004089	99
Es	1.458235	-1.068968	0.197833	99
Es	1.996464	1.406909	0.277352	99
Es	-1.687110	-0.316398	0.346081	99
Es	0.069182	0.130434	0.076094	99
Es	0.183118	0.370400	0.383413	99
Es	-1.499092	-0.121701	-0.837323	99
Es	0.780467	1.307249	0.180411	99
Es	0.761844	-1.142597	0.028092	99
Es	0.361031	-0.408148	0.046176	99
Es	1.569722	1.354768	0.492116	99
Es	0.699439	-1.421559	-0.661721	99
Es	-1.631124	0.817640	-0.081974	99
Es	2.078949	1.700268	0.302544	99
Es	0.435303	-1.609770	0.509083	99
Es	0.321314	1.910465	0.176477	99
32
Properties=species:S:1:pos:R:3:Z:I:1 energy=-247.08238966949875 field_type=dipole dipole="0.000000 0.000000 0.000000" charge=0
C	-1.361708	0.132376	-0.149840	6
N	0.069102	0.130326	0.076370	7
C	0.761962	-1.142754	0.028090	6
C	0.780572	1.307386	0.180420	6
O	1.996812	1.406946	0.277380	8
H	-1.774838	1.139816	-0.051480	1
H	-1.838948	-0.524974	0.582540	1
H	-1.559188	-0.237394	-1.159790	1
H	0.293602	-1.829194	0.738590	1
H	1.820102	-1.034034	0.282230	1
H	0.678842	-1.548654	-0.983560	1
H	0.133692	2.200156	0.179050	1
Es	-1.631123	0.817660	-0.082007	99
Es	0.699573	-1.421512	-0.661745	99
Es	1.609565	1.386196	-0.003498	99
Es	-1.361533	0.132387	-0.149810	99
Es	2.135515	1.129586	0.270537	99
Es	0.322228	0.528718	-0.126158	99
Es	-1.687102	-0.316390	0.346114	99
Es	0.321275	1.910524	0.176416	99
Es	-1.499118	-0.121716	-0.837269	99
Es	2.079054	1.700197	0.302095	99
Es	1.458173	-1.069038	0.197966	99
Es	1.996514	1.406877	0.277354	99
Es	1.570561	1.354876	0.492661	99
Es	0.184723	0.373114	0.383564	99
Es	0.780466	1.307249	0.180411	99
Es	0.361034	-0.408316	0.047109	99
Es	0.435197	-1.609799	0.508989	99
Es	-0.541009	0.135005	-0.027304	99
Es	0.069225	0.130499	0.076034	99
Es	0.761845	-1.142597	0.028093	99
32
Properties=species:S:1:pos:R:3:Z:I:1 energy=-247.08238966949875 field_type=dipole dipole="0.000000 0.000000 0.000000" charge=0
C	-1.361708	0.132376	-0.149840	6
N	0.069102	0.130326	0.076370	7
C	0.761962	-1.142754	0.028090	6
C	0.780572	1.307386	0.180420	6
O	1.996812	1.406946	0.277380	8
H	-1.774838	1.139816	-0.051480	1
H	-1.838948	-0.524974	0.582540	1
H	-1.559188	-0.237394	-1.159790	1
H	0.293602	-1.829194	0.738590	1
H	1.820102	-1.034034	0.282230	1
H	0.678842	-1.548654	-0.983560	1
H	0.133692	2.200156	0.179050	1
Es	-0.540670	0.135174	-0.028343	99
Es	-1.499144	-0.121651	-0.837335	99
Es	2.079437	1.699762	0.300033	99
Es	-1.631137	0.817559	-0.081937	99
Es	0.761845	-1.142597	0.028092	99
Es	0.321258	1.910563	0.176447	99
Es	1.610091	1.384569	-0.004021	99
Es	1.458176	-1.069006	0.197836	99
Es	0.361106	-0.408067	0.045828	99
Es	-1.687113	-0.316390	0.346057	99
Es	-1.361536	0.132387	-0.149810	99
Es	0.780465	1.307249	0.180409	99
Es	1.996488	1.406868	0.277349	99
Es	0.069169	0.130417	0.076083	99
Es	1.570011	1.357186	0.492740	99
Es	2.135177	1.129323	0.273055	99
Es	0.699536	-1.421497	-0.661687	99
Es	0.323428	0.530873	-0.124167	99
Es	0.183215	0.370653	0.383866	99
Es	0.435260	-1.609856	0.509059	99
32
Properties=species:S:1:pos:R:3:Z:I:1 energy=-247.08238966949875 field_type=dipole dipole="0.000000 0.000000 0.000000" charge=0
C	-1.361708	0.132376	-0.149840	6
N	0.069102	0.130326	0.076370	7
C	0.761962	-1.142754	0.028090	6
C	0.780572	1.307386	0.180420	6
O	1.996812	1.406946	0.277380	8
H	-1.774838	1.139816	-0.051480	1
H	-1.838948	-0.524974	0.582540	1
H	-1.559188	-0.237394	-1.159790	1
H	0.293602	-1.829194	0.738590	1
H	1.820102	-1.034034	0.282230	1
H	0.678842	-1.548654	-0.983560	1
H	0.133692	2.200156	0.179050	1
Es	-1.631147	0.817585	-0.081970	99
Es	0.319341	0.523842	-0.129334	99
Es	0.069215	0.130496	0.076101	99
Es	0.699529	-1.421534	-0.661701	99
Es	0.360932	-0.408503	0.048269	99
Es	2.081682	1.698713	0.302531	99
Es	-0.541113	0.134843	-0.026264	99
Es	-1.361532	0.132387	-0.149810	99
Es	2.132951	1.128212	0.272633	99
Es	0.780465	1.307249	0.180412	99
Es	0.761845	-1.142598	0.028092	99
Es	0.435224	-1.609791	0.509036	99
Es	-1.687151	-0.316412	0.346046	99
Es	-1.499138	-0.121617	-0.837262	99
Es	0.321242	1.910557	0.176566	99
Es	1.458184	-1.069045	0.197895	99
Es	1.568951	1.356992	0.491600	99
Es	0.187943	0.378355	0.384398	99
Es	1.611159	1.386901	-0.005035	99
Es	1.996481	1.406890	0.277351	99
32
Properties=species:S:1:pos:R:3:Z:I:1 energy=-247.08238966949875 field_type=dipole dipole="0.000000 0.000000 0.000000" charge=0
C	-1.361708	0.132376	-0.149840	6
N	0.069102	0.130326	0.076370	7
C	0.761962	-1.142754	0.028090	6
C	0.780572	1.307386	0.180420	6
O	1.996812	1.406946	0.277380	8
H	-1.774838	1.139816	-0.051480	1
H	-1.838948	-0.524974	0.582540	1
H	-1.559188	-0.237394	-1.159790	1
H	0.293602	-1.829194	0.738590	1
H	1.820102	-1.034034	0.282230	1
H	0.678842	-1.548654	-0.983560	1
H	0.133692	2.200156	0.179050	1
Es	1.610317	1.386849	-0.004199	99
Es	-1.499123	-0.121633	-0.837266	99
Es	0.322992	0.529896	-0.125224	99
Es	1.458173	-1.069068	0.197889	99
Es	0.761846	-1.142600	0.028093	99
Es	0.361099	-0.408106	0.046917	99
Es	-1.687145	-0.316405	0.346022	99
Es	2.077413	1.699370	0.302727	99
Es	0.435218	-1.609877	0.508972	99
Es	-1.361531	0.132386	-0.149811	99
Es	-0.540687	0.134855	-0.028149	99
Es	0.069172	0.130422	0.076088	99
Es	1.996572	1.406913	0.277375	99
Es	2.137067	1.129932	0.270735	99
Es	-1.631136	0.817637	-0.081959	99
Es	0.780465	1.307249	0.180410	99
Es	0.699589	-1.421461	-0.661661	99
Es	0.183707	0.371940	0.383545	99
Es	0.321219	1.910609	0.176534	99
Es	1.569833	1.354610	0.492515	99
32
Properties=species:S:1:pos:R:3:Z:I:1 energy=-247.08238966949875 field_type=dipole dipole="0.000000 0.000000 0.000000" charge=0
C	-1.361708	0.132376	-0.149840	6
N	0.069102	0.130326	0.076370	7
C	0.761962	-1.142754	0.028090	6
C	0.780572	1.307386	0.180420	6
O	1.996812	1.406946	0.277380	8
H	-1.774838	1.139816	-0.051480	1
H	-1.838948	-0.524974	0.582540	1
H	-1.559188	-0.237394	-1.159790	1
H	0.293602	-1.829194	0.738590	1
H	1.820102	-1.034034	0.282230	1
H	0.678842	-1.548654	-0.983560	1
H	0.133692	2.200156	0.179050	1
Es	0.435303	-1.609813	0.509033	99
Es	1.610519	1.386867	-0.004410	99
Es	2.079438	1.699460	0.303040	99
Es	0.321151	0.526919	-0.127397	99
Es	0.185872	0.375086	0.384424	99
Es	1.569655	1.354888	0.492134	99
Es	-1.631178	0.817551	-0.081896	99
Es	1.458082	-1.069038	0.197898	99
Es	0.360826	-0.408250	0.047101	99
Es	-1.687091	-0.316419	0.346013	99
Es	2.135129	1.129523	0.271021	99
Es	-1.499186	-0.121599	-0.837290	99
Es	-1.361535	0.132387	-0.149809	99
Es	-0.540645	0.134970	-0.027333	99
Es	1.996473	1.406915	0.277353	99
Es	0.780466	1.307250	0.180408	99
Es	0.699607	-1.421567	-0.661723	99
Es	0.069122	0.130369	0.076340	99
Es	0.761848	-1.142601	0.028093	99
Es	0.321205	1.910623	0.176553	99
32
Properties=species:S:1:pos:R:3:Z:I:1 energy=-247.08238966949875 field_type=dipole dipole="0.000000 0.000000 0.000000" charge=0
C	-1.361708	0.132376	-0.149840	6
N	0.069102	0.130326	0.076370	7
C	0.761962	-1.142754	0.028090	6
C	0.780572	1.307386	0.180420	6
O	1.996812	1.406946	0.277380	8
H	-1.774838	1.139816	-0.051480	1
H	-1.838948	-0.524974	0.582540	1
H	-1.559188	-0.237394	-1.159790	1
H	0.293602	-1.829194	0.738590	1
H	1.820102	-1.034034	0.282230	1
H	0.678842	-1.548654	-0.983560	1
H	0.133692	2.200156	0.179050	1
Es	2.080076	1.699035	0.302487	99
Es	-1.687026	-0.316550	0.346026	99
Es	0.761848	-1.142601	0.028093	99
Es	-1.631211	0.817554	-0.081873	99
Es	0.103786	0.204960	0.134580	99
Es	0.435196	-1.609789	0.509041	99
Es	-1.499063	-0.121612	-0.837339	99
Es	0.367834	-0.410477	0.049897	99
Es	1.458121	-1.069108	0.197847	99
Es	1.569355	1.356030	0.492736	99
Es	0.320380	1.910707	0.176700	99
Es	-1.361536	0.132388	-0.149811	99
Es	1.996500	1.406886	0.277355	99
Es	0.699451	-1.421483	-0.661787	99
Es	0.377832	0.634447	0.052969	99
Es	0.780466	1.307251	0.180409	99
Es	2.134591	1.129084	0.271439	99
Es	-0.546512	0.140163	-0.026338	99
Es	1.610228	1.387095	-0.005011	99
Es	0.094744	0.189539	0.142135	99
32
Properties=species:S:1:pos:R:3:Z:I:1 energy=-247.08238966949875 field_type=dipole dipole="0.000000 0.000000 0.000000" charge=0
C	-1.361708	0.132376	-0.149840	6
N	0.069102	0.130326	0.076370	7
C	0.761962	-1.142754	0.028090	6
C	0.780572	1.307386	0.180420	6
O	1.996812	1.406946	0.277380	8
H	-1.774838	1.139816	-0.051480	1
H	-1.838948	-0.524974	0.582540	1
H	-1.559188	-0.237394	-1.159790	1
H	0.293602	-1.829194	0.738590	1
H	1.820102	-1.034034	0.282230	1
H	0.678842	-1.548654	-0.983560	1
H	0.133692	2.200156	0.179050	1
Es	1.572797	1.356086	0.494286	99
Es	0.435282	-1.609831	0.509007	99
Es	0.069194	0.130456	0.076065	99
Es	-1.499165	-0.121565	-0.837277	99
Es	1.996464	1.406933	0.277357	99
Es	-1.631169	0.817529	-0.081930	99
Es	2.080249	1.699306	0.300617	99
Es	0.699612	-1.421547	-0.661656	99
Es	0.321165	1.910680	0.176459	99
Es	2.134610	1.129418	0.270034	99
Es	-0.540464	0.135194	-0.028761	99
Es	0.361151	-0.407964	0.045618	99
Es	-1.687138	-0.316432	0.346019	99
Es	0.780466	1.307248	0.180417	99
Es	1.458104	-1.069082	0.197876	99
Es	0.324218	0.532178	-0.123202	99
Es	0.182313	0.369255	0.383350	99
Es	0.761846	-1.142600	0.028093	99
Es	1.607065	1.385873	-0.003007	99
Es	-1.361537	0.132386	-0.149811	99
32
Properties=species:S:1:pos:R:3:Z:I:1 energy=-247.08238966949875 field_type=dipole dipole="0.000000 0.000000 0.000000" charge=0
C	-1.361708	0.132376	-0.149840	6
N	0.069102	0.130326	0.076370	7
C	0.761962	-1.142754	0.028090	6
C	0.780572	1.307386	0.180420	6
O	1.996812	1.406946	0.277380	8
H	-1.774838	1.139816	-0.051480	1
H	-1.838948	-0.524974	0.582540	1
H	-1.559188	-0.237394	-1.159790	1
H	0.293602	-1.829194	0.738590	1
H	1.820102	-1.034034	0.282230	1
H	0.678842	-1.548654	-0.983560	1
H	0.133692	2.200156	0.179050	1
Es	2.134974	1.129388	0.270748	99
Es	0.069161	0.130434	0.076155	99
Es	0.321145	1.910700	0.176429	99
Es	2.079747	1.699148	0.301213	99
Es	0.435309	-1.609847	0.508975	99
Es	-1.499163	-0.121651	-0.837263	99
Es	0.184926	0.373475	0.384146	99
Es	-1.687152	-0.316360	0.346086	99
Es	1.571311	1.356042	0.493529	99
Es	1.608633	1.386106	-0.003552	99
Es	1.996543	1.406907	0.277358	99
Es	0.699637	-1.421538	-0.661688	99
Es	0.780461	1.307246	0.180419	99
Es	1.458073	-1.069078	0.197904	99
Es	0.321960	0.528270	-0.125877	99
Es	-1.361537	0.132388	-0.149811	99
Es	0.761846	-1.142600	0.028093	99
Es	-1.631138	0.817538	-0.082009	99
Es	-0.540669	0.135101	-0.027865	99
Es	0.360994	-0.408151	0.046564	99
32
Properties=species:S:1:pos:R:3:Z:I:1 energy=-247.08238966949875 field_type=dipole dipole="0.000000 0.000000 0.000000" charge=0
C	-1.361708	0.132376	-0.149840	6
N	0.069102	0.130326	0.076370	7
C	0.761962	-1.142754	0.028090	6
C	0.780572	1.307386	0.180420	6
O	1.996812	1.406946	0.277380	8
H	-1.774838	1.139816	-0.051480	1
H	-1.838948	-0.524974	0.582540	1
H	-1.559188	-0.237394	-1.159790	1
H	0.293602	-1.829194	0.738590	1
H	1.820102	-1.034034	0.282230	1
H	0.678842	-1.548654	-0.983560	1
H	0.133692	2.200156	0.179050	1
Es	1.458102	-1.069069	0.197807	99
Es	0.361302	-0.407946	0.045279	99
Es	0.699598	-1.421548	-0.661608	99
Es	-0.540408	0.135239	-0.029093	99
Es	1.996436	1.406869	0.277343	99
Es	2.080641	1.698595	0.302118	99
Es	2.134217	1.129145	0.270248	99
Es	1.570985	1.355780	0.493372	99
Es	0.435320	-1.609856	0.509040	99
Es	-1.361536	0.132387	-0.149811	99
Es	-1.631177	0.817571	-0.082055	99
Es	0.325226	0.533941	-0.121842	99
Es	0.069162	0.130397	0.076200	99
Es	-1.499175	-0.121659	-0.837180	99
Es	0.321120	1.910750	0.176522	99
Es	-1.687158	-0.316354	0.346064	99
Es	0.181193	0.367459	0.382467	99
Es	0.780468	1.307251	0.180407	99
Es	1.608899	1.387172	-0.003819	99
Es	0.761848	-1.142603	0.028093	99
32
Properties=species:S:1:pos:R:3:Z:I:1 energy=-247.08238966949875 field_type=dipole dipole="0.000000 0.000000 0.000000" charge=0
C	-1.361708	0.132376	-0.149840	6
N	0.069102	0.130326	0.076370	7
C	0.761962	-1.142754	0.028090	6
C	0.780572	1.307386	0.180420	6
O	1.996812	1.406946	0.277380	8
H	-1.774838	1.139816	-0.051480	1
H	-1.838948	-0.524974	0.582540	1
H	-1.559188	-0.237394	-1.159790	1
H	0.293602	-1.829194	0.738590	1
H	1.820102	-1.034034	0.282230	1
H	0.678842	-1.548654	-0.983560	1
H	0.133692	2.200156	0.179050	1
Es	-1.499245	-0.121594	-0.837222	99
Es	-0.540234	0.135372	-0.029826	99
Es	0.180043	0.365787	0.382252	99
Es	1.569045	1.355596	0.492072	99
Es	0.761847	-1.142601	0.028093	99
Es	-1.687080	-0.316392	0.346025	99
Es	0.321099	1.910730	0.176629	99
Es	0.780465	1.307250	0.180411	99
Es	2.135586	1.129871	0.272401	99
Es	2.078912	1.699170	0.302316	99
Es	1.611161	1.386028	-0.004929	99
Es	0.326191	0.535418	-0.120559	99
Es	1.458114	-1.069031	0.197781	99
Es	0.069170	0.130419	0.076117	99
Es	0.361272	-0.407904	0.044948	99
Es	-1.631202	0.817530	-0.081925	99
Es	1.996491	1.406906	0.277354	99
Es	0.435367	-1.609884	0.509034	99
Es	0.699594	-1.421535	-0.661608	99
Es	-1.361536	0.132387	-0.149810	99
32
Properties=species:S:1:pos:R:3:Z:I:1 energy=-247.08238966949875 field_type=dipole dipole="0.000000 0.000000 0.000000" charge=0
C	-1.361708	0.132376	-0.149840	6
N	0.069102	0.130326	0.076370	7
C	0.761962	-1.142754	0.028090	6
C	0.780572	1.307386	0.180420	6
O	1.996812	1.406946	0.277380	8
H	-1.774838	1.139816	-0.051480	1
H	-1.838948	-0.524974	0.582540	1
H	-1.559188	-0.237394	-1.159790	1
H	0.293602	-1.829194	0.738590	1
H	1.820102	-1.034034	0.282230	1
H	0.678842	-1.548654	-0.983560	1
H	0.133692	2.200156	0.179050	1
Es	-1.361537	0.132387	-0.149811	99
Es	-1.631201	0.817539	-0.081950	99
Es	-1.687147	-0.316396	0.345973	99
Es	0.324320	0.532367	-0.122877	99
Es	0.361172	-0.407986	0.045552	99
Es	0.069174	0.130445	0.076110	99
Es	0.435299	-1.609898	0.508957	99
Es	0.761848	-1.142605	0.028092	99
Es	1.610608	1.386880	-0.005506	99
Es	1.569513	1.356562	0.492162	99
Es	1.996449	1.406893	0.277358	99
Es	2.132940	1.129021	0.272414	99
Es	2.081687	1.698194	0.302764	99
Es	0.699764	-1.421526	-0.661653	99
Es	0.780465	1.307249	0.180410	99
Es	0.182251	0.369072	0.382919	99
Es	0.321077	1.910760	0.176631	99
Es	-1.499188	-0.121569	-0.837214	99
Es	1.458009	-1.069066	0.197937	99
Es	-0.540444	0.135196	-0.028717	99
32
Properties=species:S:1:pos:R:3:Z:I:1 energy=-247.08238966949875 field_type=dipole dipole="0.000000 0.000000 0.000000" charge=0
C	-1.361708	0.132376	-0.149840	6
N	0.069102	0.130326	0.076370	7
C	0.761962	-1.142754	0.028090	6
C	0.780572	1.307386	0.180420	6
O	1.996812	1.406946	0.277380	8
H	-1.774838	1.139816	-0.051480	1
H	-1.838948	-0.524974	0.582540	1
H	-1.559188	-0.237394	-1.159790	1
H	0.293602	-1.829194	0.738590	1
H	1.820102	-1.034034	0.282230	1
H	0.678842	-1.548654	-0.983560	1
H	0.133692	2.200156	0.179050	1
Es	-1.631204	0.817550	-0.081978	99
Es	2.081097	1.698571	0.302848	99
Es	1.996416	1.407001	0.277354	99
Es	0.699709	-1.421567	-0.661645	99
Es	0.069177	0.130438	0.076162	99
Es	0.780469	1.307251	0.180411	99
Es	-1.687173	-0.316392	0.345967	99
Es	0.435347	-1.609874	0.509001	99
Es	0.183478	0.370954	0.383408	99
Es	1.570165	1.355313	0.492842	99
Es	1.609818	1.387323	-0.004218	99
Es	-1.361536	0.132386	-0.149810	99
Es	2.133691	1.129297	0.270415	99
Es	0.761845	-1.142596	0.028092	99
Es	-1.499183	-0.121564	-0.837182	99
Es	0.361084	-0.407970	0.045899	99
Es	0.321080	1.910795	0.176617	99
Es	-0.540495	0.135113	-0.028256	99
Es	0.323282	0.530602	-0.124245	99
Es	1.457993	-1.069110	0.197871	99
32
Properties=species:S:1:pos:R:3:Z:I:1 energy=-247.08238966949875 field_type=dipole dipole="0.000000 0.000000 0.000000" charge=0
C	-1.361708	0.132376	-0.149840	6
N	0.069102	0.130326	0.076370	7
C	0.761962	-1.142754	0.028090	6
C	0.780572	1.307386	0.180420	6
O	1.996812	1.406946	0.277380	8
H	-1.774838	1.139816	-0.051480	1
H	-1.838948	-0.524974	0.582540	1
H	-1.559188	-0.237394	-1.159790	1
H	0.293602	-1.829194	0.738590	1
H	1.820102	-1.034034	0.282230	1
H	0.678842	-1.548654	-0.983560	1
H	0.133692	2.200156	0.179050	1
Es	0.699590	-1.421600	-0.661578	99
Es	2.080025	1.698606	0.303568	99
Es	0.761853	-1.142608	0.028090	99
Es	-1.361537	0.132387	-0.149811	99
Es	0.321036	1.910805	0.176634	99
Es	0.180332	0.365845	0.382078	99
Es	1.458084	-1.069117	0.197808	99
Es	0.435368	-1.609814	0.509018	99
Es	-1.499216	-0.121573	-0.837204	99
Es	1.996451	1.406946	0.277355	99
Es	-1.687142	-0.316377	0.345981	99
Es	-1.631208	0.817517	-0.081958	99
Es	0.069178	0.130430	0.076106	99
Es	0.326033	0.535321	-0.120523	99
Es	2.134627	1.129356	0.270875	99
Es	1.569252	1.354972	0.492098	99
Es	-0.540327	0.135300	-0.029437	99
Es	0.780462	1.307251	0.180409	99
Es	1.610823	1.387644	-0.004653	99
Es	0.361377	-0.407770	0.044699	99
