29
Properties=species:S:1:pos:R:3:Z:I:1 energy=-192.8147952435218 field_type=dipole dipole="0.000000 0.000000 0.000000" charge=0
C	-1.861959	-0.535585	0.005443	6
C	-0.369839	-0.500255	0.015153	6
C	0.333931	0.640924	-0.008037	6
C	1.739931	0.640924	-0.008037	6
C	2.930091	0.640924	-0.008037	6
H	-2.209119	-1.571025	-0.064937	1
H	-2.262309	0.008395	-0.856757	1
H	-2.267409	-0.106835	0.925713	1
H	0.146071	-1.457355	0.038663	1
H	-0.174489	1.600594	-0.031167	1
H	3.995100	0.639295	-0.007997	1
Es	1.739668	0.640927	-0.008027	99
Es	2.341510	0.969046	-0.150244	99
Es	-2.095295	-1.238845	-0.041809	99
Es	2.336667	0.349510	-0.216090	99
Es	-1.113919	-0.516660	0.010290	99
Es	0.028190	0.108058	0.324214	99
Es	-2.122877	-0.242379	0.623554	99
Es	1.058014	0.647970	-0.007481	99
Es	-2.121165	-0.163443	-0.572801	99
Es	0.003974	1.288251	-0.023914	99
Es	2.330688	0.595613	0.342645	99
Es	2.930358	0.640928	-0.008051	99
Es	0.031060	0.092990	-0.318143	99
Es	-1.861909	-0.535587	0.005443	99
Es	0.334075	0.641011	-0.008035	99
Es	-0.369922	-0.500329	0.015156	99
Es	3.626329	0.639657	-0.008080	99
Es	-0.026848	-1.148990	0.031604	99
29
Properties=species:S:1:pos:R:3:Z:I:1 energy=-192.8147952435218 field_type=dipole dipole="0.000000 0.000000 0.000000" charge=0
C	-1.861959	-0.535585	0.005443	6
C	-0.369839	-0.500255	0.015153	6
C	0.333931	0.640924	-0.008037	6
C	1.739931	0.640924	-0.008037	6
C	2.930091	0.640924	-0.008037	6
H	-2.209119	-1.571025	-0.064937	1
H	-2.262309	0.008395	-0.856757	1
H	-2.267409	-0.106835	0.925713	1
H	0.146071	-1.457355	0.038663	1
H	-0.174489	1.600594	-0.031167	1
H	3.995100	0.639295	-0.007997	1
Es	2.330355	0.596984	-0.358938	99
Es	-0.369921	-0.500328	0.015156	99
Es	-0.026718	-1.148909	0.031674	99
Es	2.341305	0.968349	0.135017	99
Es	-2.095323	-1.238845	-0.041859	99
Es	0.028238	0.108058	0.324112	99
Es	-2.122882	-0.242374	0.623583	99
Es	0.004028	1.288334	-0.023930	99
Es	2.337252	0.348834	0.199480	99
Es	-2.121087	-0.163380	-0.572827	99
Es	2.930351	0.640910	-0.008009	99
Es	3.626299	0.639722	-0.008046	99
Es	0.031044	0.092848	-0.317904	99
Es	0.334077	0.641014	-0.008032	99
Es	1.739671	0.640929	-0.008037	99
Es	-1.114135	-0.516726	0.010414	99
Es	-1.861908	-0.535587	0.005443	99
Es	1.057954	0.647896	-0.007069	99
29
Properties=species:S:1:pos:R:3:Z:I:1 energy=-192.8147952435218 field_type=dipole dipole="0.000000 0.000000 0.000000" charge=0
C	-1.861959	-0.535585	0.005443	6
C	-0.369839	-0.500255	0.015153	6
C	0.333931	0.640924	-0.008037	6
C	1.739931	0.640924	-0.008037	6
C	2.930091	0.640924	-0.008037	6
H	-2.209119	-1.571025	-0.064937	1
H	-2.262309	0.008395	-0.856757	1
H	-2.267409	-0.106835	0.925713	1
H	0.146071	-1.457355	0.038663	1
H	-0.174489	1.600594	-0.031167	1
H	3.995100	0.639295	-0.007997	1
Es	2.340275	0.285603	-0.066183	99
Es	-0.369921	-0.500328	0.015158	99
Es	-1.114132	-0.516743	0.010295	99
Es	1.739674	0.640931	-0.008037	99
Es	-2.095321	-1.238767	-0.041964	99
Es	2.336133	0.867063	-0.281878	99
Es	1.057957	0.647505	-0.007428	99
Es	0.334077	0.641013	-0.008038	99
Es	0.031152	0.092687	-0.317838	99
Es	0.028218	0.107807	0.324082	99
Es	-1.861909	-0.535587	0.005443	99
Es	-2.122905	-0.242466	0.623653	99
Es	-2.121108	-0.163307	-0.572787	99
Es	3.626291	0.639752	-0.008057	99
Es	2.332332	0.762084	0.324182	99
Es	-0.026664	-1.148917	0.031660	99
Es	0.004092	1.288470	-0.023990	99
Es	2.930356	0.640926	-0.008043	99
29
Properties=species:S:1:pos:R:3:Z:I:1 energy=-192.8147952435218 field_type=dipole dipole="0.000000 0.000000 0.000000" charge=0
C	-1.861959	-0.535585	0.005443	6
C	-0.369839	-0.500255	0.015153	6
C	0.333931	0.640924	-0.008037	6
C	1.739931	0.640924	-0.008037	6
C	2.930091	0.640924	-0.008037	6
H	-2.209119	-1.571025	-0.064937	1
H	-2.262309	0.008395	-0.856757	1
H	-2.267409	-0.106835	0.925713	1
H	0.146071	-1.457355	0.038663	1
H	-0.174489	1.600594	-0.031167	1
H	3.995100	0.639295	-0.007997	1
Es	-2.122915	-0.242389	0.623614	99
Es	1.739676	0.640928	-0.008041	99
Es	0.334078	0.641013	-0.008036	99
Es	-2.121070	-0.163343	-0.572857	99
Es	2.335043	0.401280	0.256498	99
Es	-0.369917	-0.500321	0.015157	99
Es	1.057829	0.647974	-0.007171	99
Es	2.331114	0.520318	-0.341769	99
Es	-0.026651	-1.148933	0.031763	99
Es	0.031221	0.092833	-0.317906	99
Es	2.342841	0.992347	0.061041	99
Es	2.930354	0.640929	-0.008038	99
Es	-2.095299	-1.238822	-0.041895	99
Es	0.004027	1.288387	-0.023837	99
Es	3.626210	0.639804	-0.008061	99
Es	0.028241	0.107942	0.323921	99
Es	-1.861908	-0.535586	0.005443	99
Es	-1.114277	-0.516634	0.010404	99
29
Properties=species:S:1:pos:R:3:Z:I:1 energy=-192.8147952435218 field_type=dipole dipole="0.000000 0.000000 0.000000" charge=0
C	-1.861959	-0.535585	0.005443	6
C	-0.369839	-0.500255	0.015153	6
C	0.333931	0.640924	-0.008037	6
C	1.739931	0.640924	-0.008037	6
C	2.930091	0.640924	-0.008037	6
H	-2.209119	-1.571025	-0.064937	1
H	-2.262309	0.008395	-0.856757	1
H	-2.267409	-0.106835	0.925713	1
H	0.146071	-1.457355	0.038663	1
H	-0.174489	1.600594	-0.031167	1
H	3.995100	0.639295	-0.007997	1
Es	2.342940	0.992343	-0.077877	99
Es	2.334500	0.399286	-0.271560	99
Es	-0.026572	-1.148907	0.031662	99
Es	-2.095361	-1.238812	-0.041867	99
Es	-1.861909	-0.535587	0.005442	99
Es	3.626188	0.639753	-0.008138	99
Es	-0.369921	-0.500326	0.015156	99
Es	0.004032	1.288425	-0.023952	99
Es	-2.121097	-0.163388	-0.572793	99
Es	-1.114259	-0.516668	0.010299	99
Es	1.057798	0.647960	-0.007402	99
Es	0.028279	0.107928	0.323892	99
Es	0.031192	0.092815	-0.317800	99
Es	2.331566	0.522404	0.325682	99
Es	-2.122894	-0.242339	0.623594	99
Es	1.739686	0.640907	-0.008032	99
Es	2.930355	0.640922	-0.008038	99
Es	0.334077	0.641012	-0.008038	99
29
Properties=species:S:1:pos:R:3:Z:I:1 energy=-192.8147952435218 field_type=dipole dipole="0.000000 0.000000 0.000000" charge=0
C	-1.861959	-0.535585	0.005443	6
C	-0.369839	-0.500255	0.015153	6
C	0.333931	0.640924	-0.008037	6
C	1.739931	0.640924	-0.008037	6
C	2.930091	0.640924	-0.008037	6
H	-2.209119	-1.571025	-0.064937	1
H	-2.262309	0.008395	-0.856757	1
H	-2.267409	-0.106835	0.925713	1
H	0.146071	-1.457355	0.038663	1
H	-0.174489	1.600594	-0.031167	1
H	3.995100	0.639295	-0.007997	1
Es	-2.095344	-1.238855	-0.041941	99
Es	1.057722	0.647960	-0.007279	99
Es	-0.026518	-1.148892	0.031684	99
Es	0.334074	0.641010	-0.008037	99
Es	-2.121156	-0.163333	-0.572688	99
Es	-0.369919	-0.500331	0.015153	99
Es	0.004031	1.288452	-0.024010	99
Es	2.332639	0.475198	0.306309	99
Es	2.333093	0.439931	-0.302228	99
Es	-2.122902	-0.242436	0.623571	99
Es	2.343352	0.998867	-0.028076	99
Es	0.031287	0.092781	-0.317717	99
Es	-1.861912	-0.535588	0.005441	99
Es	3.626144	0.639772	-0.008057	99
Es	-1.114267	-0.516564	0.010288	99
Es	1.739673	0.640926	-0.008036	99
Es	2.930352	0.640922	-0.008036	99
Es	0.028250	0.107907	0.323889	99
29
Properties=species:S:1:pos:R:3:Z:I:1 energy=-192.8147952435218 field_type=dipole dipole="0.000000 0.000000 0.000000" charge=0
C	-1.861959	-0.535585	0.005443	6
C	-0.369839	-0.500255	0.015153	6
C	0.333931	0.640924	-0.008037	6
C	1.739931	0.640924	-0.008037	6
C	2.930091	0.640924	-0.008037	6
H	-2.209119	-1.571025	-0.064937	1
H	-2.262309	0.008395	-0.856757	1
H	-2.267409	-0.106835	0.925713	1
H	0.146071	-1.457355	0.038663	1
H	-0.174489	1.600594	-0.031167	1
H	3.995100	0.639295	-0.007997	1
Es	-2.121098	-0.163320	-0.572759	99
Es	2.339877	0.297045	0.098363	99
Es	-0.369921	-0.500328	0.015157	99
Es	1.057902	0.647524	-0.007206	99
Es	-1.861911	-0.535586	0.005445	99
Es	-1.114412	-0.516475	0.010314	99
Es	0.031188	0.092275	-0.317440	99
Es	0.334073	0.641011	-0.008048	99
Es	3.626244	0.639926	-0.008106	99
Es	2.930352	0.640918	-0.008036	99
Es	0.004070	1.288539	-0.024058	99
Es	-2.095416	-1.238844	-0.041880	99
Es	0.028575	0.107747	0.323853	99
Es	2.331195	0.713764	-0.354217	99
Es	2.337607	0.903858	0.231591	99
Es	1.739671	0.640931	-0.008035	99
Es	-0.026536	-1.148916	0.031735	99
Es	-2.122862	-0.242341	0.623555	99
29
Properties=species:S:1:pos:R:3:Z:I:1 energy=-192.8147952435218 field_type=dipole dipole="0.000000 0.000000 0.000000" charge=0
C	-1.861959	-0.535585	0.005443	6
C	-0.369839	-0.500255	0.015153	6
C	0.333931	0.640924	-0.008037	6
C	1.739931	0.640924	-0.008037	6
C	2.930091	0.640924	-0.008037	6
H	-2.209119	-1.571025	-0.064937	1
H	-2.262309	0.008395	-0.856757	1
H	-2.267409	-0.106835	0.925713	1
H	0.146071	-1.457355	0.038663	1
H	-0.174489	1.600594	-0.031167	1
H	3.995100	0.639295	-0.007997	1
Es	2.333434	0.801282	-0.324708	99
Es	0.004105	1.288580	-0.023894	99
Es	-0.026397	-1.148858	0.031672	99
Es	0.031241	0.092351	-0.317583	99
Es	0.028480	0.107575	0.323761	99
Es	3.626253	0.639935	-0.008092	99
Es	2.340681	0.281150	0.010721	99
Es	-0.369919	-0.500323	0.015156	99
Es	1.057891	0.647417	-0.007270	99
Es	-1.114441	-0.516557	0.010301	99
Es	2.334453	0.832458	0.289896	99
Es	-2.095389	-1.238867	-0.041872	99
Es	-2.121112	-0.163330	-0.572755	99
Es	0.334073	0.641009	-0.008040	99
Es	1.739676	0.640920	-0.008008	99
Es	2.930355	0.640921	-0.008039	99
Es	-2.122875	-0.242350	0.623542	99
Es	-1.861909	-0.535587	0.005442	99
