29
Properties=species:S:1:pos:R:3:Z:I:1 energy=-192.81319929536596 field_type=dipole dipole="0.000000 0.000000 0.000000" charge=0
C	-1.440354	-0.200146	-0.004593	6
C	0.060525	-0.211656	-0.000503	6
C	0.745795	-1.364916	0.007357	6
C	0.776056	1.022484	-0.002003	6
C	1.375565	2.061674	-0.001953	6
H	-1.834454	0.821664	0.022177	1
H	-1.833385	-0.728286	0.870697	1
H	-1.826774	-0.680636	-0.909703	1
H	0.235836	-2.322796	0.009297	1
H	1.831655	-1.382296	0.011147	1
H	1.909535	2.984914	-0.001923	1
Es	1.091987	1.515062	0.350062	99
Es	1.723771	2.663368	-0.001740	99
Es	0.418091	-0.766004	-0.317726	99
Es	0.060496	-0.211465	-0.000498	99
Es	0.775926	1.022266	-0.002002	99
Es	0.421414	0.432449	-0.002310	99
Es	0.745831	-1.364994	0.007364	99
Es	0.799480	1.711147	-0.158918	99
Es	-1.701715	0.490528	0.013475	99
Es	-1.689403	-0.528803	-0.613441	99
Es	0.399888	-2.015131	0.008830	99
Es	0.416183	-0.763050	0.324503	99
Es	1.476840	-1.383158	0.009738	99
Es	-0.675776	-0.186362	-0.002441	99
Es	1.337445	1.395312	-0.196679	99
Es	-1.694156	-0.561561	0.583935	99
Es	-1.440288	-0.200149	-0.004593	99
Es	1.375690	2.061880	-0.001950	99
29
Properties=species:S:1:pos:R:3:Z:I:1 energy=-192.81319929536596 field_type=dipole dipole="0.000000 0.000000 0.000000" charge=0
C	-1.440354	-0.200146	-0.004593	6
C	0.060525	-0.211656	-0.000503	6
C	0.745795	-1.364916	0.007357	6
C	0.776056	1.022484	-0.002003	6
C	1.375565	2.061674	-0.001953	6
H	-1.834454	0.821664	0.022177	1
H	-1.833385	-0.728286	0.870697	1
H	-1.826774	-0.680636	-0.909703	1
H	0.235836	-2.322796	0.009297	1
H	1.831655	-1.382296	0.011147	1
H	1.909535	2.984914	-0.001923	1
Es	0.965292	1.592229	0.332113	99
Es	1.476866	-1.383157	0.009751	99
Es	1.723465	2.663528	-0.001748	99
Es	0.421878	0.432203	-0.002108	99
Es	0.060501	-0.211468	-0.000498	99
Es	-1.440287	-0.200149	-0.004593	99
Es	-1.689481	-0.528848	-0.613430	99
Es	0.745830	-1.364993	0.007356	99
Es	1.388394	1.374788	-0.063340	99
Es	-1.694099	-0.561495	0.583949	99
Es	1.375682	2.061898	-0.001939	99
Es	-1.701739	0.490469	0.013485	99
Es	0.874754	1.654620	-0.274694	99
Es	0.775934	1.022267	-0.002006	99
Es	0.416484	-0.763001	0.324443	99
Es	-0.675916	-0.186365	-0.002471	99
Es	0.399818	-2.015137	0.008784	99
Es	0.418329	-0.766056	-0.317448	99
29
Properties=species:S:1:pos:R:3:Z:I:1 energy=-192.81319929536596 field_type=dipole dipole="0.000000 0.000000 0.000000" charge=0
C	-1.440354	-0.200146	-0.004593	6
C	0.060525	-0.211656	-0.000503	6
C	0.745795	-1.364916	0.007357	6
C	0.776056	1.022484	-0.002003	6
C	1.375565	2.061674	-0.001953	6
H	-1.834454	0.821664	0.022177	1
H	-1.833385	-0.728286	0.870697	1
H	-1.826774	-0.680636	-0.909703	1
H	0.235836	-2.322796	0.009297	1
H	1.831655	-1.382296	0.011147	1
H	1.909535	2.984914	-0.001923	1
Es	1.393407	1.372796	0.015333	99
Es	0.416532	-0.762999	0.324341	99
Es	0.422019	0.432092	-0.001773	99
Es	0.904568	1.633313	0.296964	99
Es	1.375692	2.061879	-0.001950	99
Es	-1.701742	0.490406	0.013406	99
Es	0.930333	1.615565	-0.318383	99
Es	0.775938	1.022266	-0.002002	99
Es	-1.440287	-0.200149	-0.004593	99
Es	0.418422	-0.766042	-0.317456	99
Es	-0.676037	-0.186237	-0.002524	99
Es	-1.694115	-0.561571	0.584091	99
Es	-1.689438	-0.528793	-0.613393	99
Es	0.745831	-1.364993	0.007349	99
Es	0.399792	-2.015111	0.008835	99
Es	1.476896	-1.383172	0.009827	99
Es	0.060497	-0.211464	-0.000494	99
Es	1.723396	2.663549	-0.001970	99
29
Properties=species:S:1:pos:R:3:Z:I:1 energy=-192.81319929536596 field_type=dipole dipole="0.000000 0.000000 0.000000" charge=0
C	-1.440354	-0.200146	-0.004593	6
C	0.060525	-0.211656	-0.000503	6
C	0.745795	-1.364916	0.007357	6
C	0.776056	1.022484	-0.002003	6
C	1.375565	2.061674	-0.001953	6
H	-1.834454	0.821664	0.022177	1
H	-1.833385	-0.728286	0.870697	1
H	-1.826774	-0.680636	-0.909703	1
H	0.235836	-2.322796	0.009297	1
H	1.831655	-1.382296	0.011147	1
H	1.909535	2.984914	-0.001923	1
Es	0.745831	-1.364993	0.007362	99
Es	-1.689493	-0.528850	-0.613355	99
Es	-0.676008	-0.186326	-0.002433	99
Es	0.399746	-2.015110	0.008832	99
Es	1.375666	2.061885	-0.001960	99
Es	1.723459	2.663511	-0.002115	99
Es	0.421789	0.432156	-0.001258	99
Es	-1.701766	0.490415	0.013407	99
Es	1.379379	1.378353	0.099588	99
Es	1.000424	1.569660	-0.347377	99
Es	0.775929	1.022270	-0.002002	99
Es	0.848742	1.673607	0.241406	99
Es	0.418551	-0.765952	-0.317493	99
Es	-1.694098	-0.561471	0.584023	99
Es	-1.440288	-0.200149	-0.004593	99
Es	0.416413	-0.763041	0.324124	99
Es	1.476933	-1.383169	0.009956	99
Es	0.060495	-0.211462	-0.000505	99
29
Properties=species:S:1:pos:R:3:Z:I:1 energy=-192.81319929536596 field_type=dipole dipole="0.000000 0.000000 0.000000" charge=0
C	-1.440354	-0.200146	-0.004593	6
C	0.060525	-0.211656	-0.000503	6
C	0.745795	-1.364916	0.007357	6
C	0.776056	1.022484	-0.002003	6
C	1.375565	2.061674	-0.001953	6
H	-1.834454	0.821664	0.022177	1
H	-1.833385	-0.728286	0.870697	1
H	-1.826774	-0.680636	-0.909703	1
H	0.235836	-2.322796	0.009297	1
H	1.831655	-1.382296	0.011147	1
H	1.909535	2.984914	-0.001923	1
Es	0.399713	-2.015126	0.008892	99
Es	0.775936	1.022265	-0.002007	99
Es	0.060499	-0.211468	-0.000492	99
Es	-1.694168	-0.561434	0.583863	99
Es	1.476926	-1.383190	0.009900	99
Es	-1.701763	0.490431	0.013474	99
Es	0.416359	-0.762884	0.324076	99
Es	-0.675984	-0.186474	-0.002312	99
Es	1.375695	2.061880	-0.001957	99
Es	1.193354	1.461196	-0.326285	99
Es	1.723780	2.663225	-0.002067	99
Es	0.745831	-1.364994	0.007355	99
Es	0.418309	-0.765869	-0.317373	99
Es	-1.440289	-0.200149	-0.004593	99
Es	0.421105	0.432454	-0.001624	99
Es	0.772619	1.732451	0.042708	99
Es	-1.689492	-0.528838	-0.613400	99
Es	1.263275	1.427858	0.277451	99
29
Properties=species:S:1:pos:R:3:Z:I:1 energy=-192.81319929536596 field_type=dipole dipole="0.000000 0.000000 0.000000" charge=0
C	-1.440354	-0.200146	-0.004593	6
C	0.060525	-0.211656	-0.000503	6
C	0.745795	-1.364916	0.007357	6
C	0.776056	1.022484	-0.002003	6
C	1.375565	2.061674	-0.001953	6
H	-1.834454	0.821664	0.022177	1
H	-1.833385	-0.728286	0.870697	1
H	-1.826774	-0.680636	-0.909703	1
H	0.235836	-2.322796	0.009297	1
H	1.831655	-1.382296	0.011147	1
H	1.909535	2.984914	-0.001923	1
Es	-1.689506	-0.528797	-0.613370	99
Es	1.018156	1.558561	0.347398	99
Es	0.837070	1.682369	-0.229371	99
Es	-0.676142	-0.186328	-0.002451	99
Es	-1.701752	0.490408	0.013450	99
Es	0.399728	-2.015157	0.008815	99
Es	-1.440288	-0.200149	-0.004593	99
Es	1.373208	1.380716	-0.123700	99
Es	1.375689	2.061882	-0.001944	99
Es	0.418504	-0.765932	-0.317203	99
Es	0.416585	-0.762996	0.323990	99
Es	0.775936	1.022269	-0.002005	99
Es	-1.694172	-0.561452	0.583922	99
Es	0.421950	0.432028	-0.002350	99
Es	1.476975	-1.383097	0.009822	99
Es	0.745831	-1.364993	0.007357	99
Es	0.060494	-0.211462	-0.000505	99
Es	1.723440	2.663464	-0.001654	99
29
Properties=species:S:1:pos:R:3:Z:I:1 energy=-192.81319929536596 field_type=dipole dipole="0.000000 0.000000 0.000000" charge=0
C	-1.440354	-0.200146	-0.004593	6
C	0.060525	-0.211656	-0.000503	6
C	0.745795	-1.364916	0.007357	6
C	0.776056	1.022484	-0.002003	6
C	1.375565	2.061674	-0.001953	6
H	-1.834454	0.821664	0.022177	1
H	-1.833385	-0.728286	0.870697	1
H	-1.826774	-0.680636	-0.909703	1
H	0.235836	-2.322796	0.009297	1
H	1.831655	-1.382296	0.011147	1
H	1.909535	2.984914	-0.001923	1
Es	0.745829	-1.364987	0.007357	99
Es	0.418391	-0.765989	-0.316883	99
Es	1.313212	1.405704	0.227160	99
Es	1.723686	2.663255	-0.002228	99
Es	0.060495	-0.211463	-0.000505	99
Es	0.775937	1.022271	-0.001996	99
Es	1.477063	-1.383086	0.009814	99
Es	-1.701731	0.490321	0.013449	99
Es	0.399700	-2.015130	0.008587	99
Es	0.416373	-0.762914	0.324165	99
Es	-1.440288	-0.200148	-0.004593	99
Es	0.785905	1.721789	0.114582	99
Es	-1.694261	-0.561373	0.583864	99
Es	1.129850	1.494105	-0.348049	99
Es	-1.689551	-0.528772	-0.613385	99
Es	1.375674	2.061885	-0.001960	99
Es	-0.675983	-0.186392	-0.002359	99
Es	0.421405	0.432260	-0.001413	99
29
Properties=species:S:1:pos:R:3:Z:I:1 energy=-192.81319929536596 field_type=dipole dipole="0.000000 0.000000 0.000000" charge=0
C	-1.440354	-0.200146	-0.004593	6
C	0.060525	-0.211656	-0.000503	6
C	0.745795	-1.364916	0.007357	6
C	0.776056	1.022484	-0.002003	6
C	1.375565	2.061674	-0.001953	6
H	-1.834454	0.821664	0.022177	1
H	-1.833385	-0.728286	0.870697	1
H	-1.826774	-0.680636	-0.909703	1
H	0.235836	-2.322796	0.009297	1
H	1.831655	-1.382296	0.011147	1
H	1.909535	2.984914	-0.001923	1
Es	0.421681	0.432063	-0.001259	99
Es	-1.694252	-0.561343	0.583926	99
Es	-0.676267	-0.186382	-0.002241	99
Es	-1.689434	-0.528885	-0.613300	99
Es	1.083949	1.519551	-0.355138	99
Es	1.375689	2.061883	-0.001952	99
Es	-1.701768	0.490432	0.013290	99
Es	1.341967	1.393554	0.185983	99
Es	-1.440288	-0.200149	-0.004593	99
Es	0.775930	1.022270	-0.002003	99
Es	1.723518	2.663333	-0.002285	99
Es	0.745829	-1.364989	0.007357	99
Es	0.418530	-0.765936	-0.316972	99
Es	1.477027	-1.383099	0.009867	99
Es	0.399641	-2.015161	0.008855	99
Es	0.416621	-0.762860	0.323846	99
Es	0.060497	-0.211466	-0.000504	99
Es	0.802837	1.708517	0.162730	99
29
Properties=species:S:1:pos:R:3:Z:I:1 energy=-192.81319929536596 field_type=dipole dipole="0.000000 0.000000 0.000000" charge=0
C	-1.440354	-0.200146	-0.004593	6
C	0.060525	-0.211656	-0.000503	6
C	0.745795	-1.364916	0.007357	6
C	0.776056	1.022484	-0.002003	6
C	1.375565	2.061674	-0.001953	6
H	-1.834454	0.821664	0.022177	1
H	-1.833385	-0.728286	0.870697	1
H	-1.826774	-0.680636	-0.909703	1
H	0.235836	-2.322796	0.009297	1
H	1.831655	-1.382296	0.011147	1
H	1.909535	2.984914	-0.001923	1
Es	0.060496	-0.211465	-0.000504	99
Es	1.723191	2.663605	-0.001825	99
Es	-0.676376	-0.186300	-0.002486	99
Es	1.375672	2.061887	-0.001952	99
Es	0.418667	-0.766003	-0.316804	99
Es	0.399646	-2.015188	0.008779	99
Es	0.942712	1.607019	0.321473	99
Es	-1.701779	0.490415	0.013449	99
Es	-1.440289	-0.200149	-0.004593	99
Es	0.422345	0.431772	-0.002077	99
Es	0.745829	-1.364990	0.007357	99
Es	0.892891	1.641455	-0.291993	99
Es	0.775932	1.022272	-0.001999	99
Es	0.416865	-0.762880	0.323849	99
Es	-1.694166	-0.561432	0.583895	99
Es	1.392542	1.373138	-0.035402	99
Es	-1.689519	-0.528783	-0.613328	99
Es	1.477046	-1.383038	0.009770	99
29
Properties=species:S:1:pos:R:3:Z:I:1 energy=-192.81319929536596 field_type=dipole dipole="0.000000 0.000000 0.000000" charge=0
C	-1.440354	-0.200146	-0.004593	6
C	0.060525	-0.211656	-0.000503	6
C	0.745795	-1.364916	0.007357	6
C	0.776056	1.022484	-0.002003	6
C	1.375565	2.061674	-0.001953	6
H	-1.834454	0.821664	0.022177	1
H	-1.833385	-0.728286	0.870697	1
H	-1.826774	-0.680636	-0.909703	1
H	0.235836	-2.322796	0.009297	1
H	1.831655	-1.382296	0.011147	1
H	1.909535	2.984914	-0.001923	1
Es	-1.694168	-0.561442	0.583875	99
Es	1.205214	1.455418	0.316468	99
Es	0.418465	-0.765865	-0.316815	99
Es	0.745829	-1.364989	0.007360	99
Es	0.399625	-2.015200	0.008817	99
Es	0.775930	1.022271	-0.002003	99
Es	-1.440290	-0.200149	-0.004593	99
Es	1.252623	1.432724	-0.290196	99
Es	1.375684	2.061880	-0.001953	99
Es	0.421301	0.432104	-0.002008	99
Es	-1.689513	-0.528774	-0.613304	99
Es	0.771295	1.733568	-0.032198	99
Es	-0.676365	-0.186354	-0.002450	99
Es	1.477080	-1.383031	0.009852	99
Es	1.723732	2.663071	-0.001839	99
Es	-1.701795	0.490416	0.013450	99
Es	0.416562	-0.762848	0.323651	99
Es	0.060496	-0.211465	-0.000504	99
29
Properties=species:S:1:pos:R:3:Z:I:1 energy=-192.81319929536596 field_type=dipole dipole="0.000000 0.000000 0.000000" charge=0
C	-1.440354	-0.200146	-0.004593	6
C	0.060525	-0.211656	-0.000503	6
C	0.745795	-1.364916	0.007357	6
C	0.776056	1.022484	-0.002003	6
C	1.375565	2.061674	-0.001953	6
H	-1.834454	0.821664	0.022177	1
H	-1.833385	-0.728286	0.870697	1
H	-1.826774	-0.680636	-0.909703	1
H	0.235836	-2.322796	0.009297	1
H	1.831655	-1.382296	0.011147	1
H	1.909535	2.984914	-0.001923	1
Es	1.054162	1.536775	-0.355587	99
Es	0.399592	-2.015199	0.008854	99
Es	-0.676481	-0.186320	-0.002373	99
Es	-1.694167	-0.561424	0.583865	99
Es	-1.440290	-0.200148	-0.004593	99
Es	0.816689	1.697757	0.192100	99
Es	0.060496	-0.211466	-0.000504	99
Es	0.418720	-0.765900	-0.316730	99
Es	1.723352	2.663391	-0.002354	99
Es	-1.701800	0.490419	0.013450	99
Es	0.745829	-1.364989	0.007357	99
Es	-1.689516	-0.528778	-0.613303	99
Es	0.416758	-0.762870	0.323573	99
Es	1.477103	-1.383014	0.009887	99
Es	1.357668	1.387115	0.157108	99
Es	1.375685	2.061882	-0.001954	99
Es	0.775932	1.022272	-0.002002	99
Es	0.421973	0.431832	-0.001183	99
29
Properties=species:S:1:pos:R:3:Z:I:1 energy=-192.81319929536596 field_type=dipole dipole="0.000000 0.000000 0.000000" charge=0
C	-1.440354	-0.200146	-0.004593	6
C	0.060525	-0.211656	-0.000503	6
C	0.745795	-1.364916	0.007357	6
C	0.776056	1.022484	-0.002003	6
C	1.375565	2.061674	-0.001953	6
H	-1.834454	0.821664	0.022177	1
H	-1.833385	-0.728286	0.870697	1
H	-1.826774	-0.680636	-0.909703	1
H	0.235836	-2.322796	0.009297	1
H	1.831655	-1.382296	0.011147	1
H	1.909535	2.984914	-0.001923	1
Es	-1.689516	-0.528771	-0.613288	99
Es	0.060496	-0.211466	-0.000504	99
Es	1.723178	2.663524	-0.001577	99
Es	0.418797	-0.765881	-0.316650	99
Es	0.416911	-0.762902	0.323477	99
Es	0.745829	-1.364989	0.007357	99
Es	0.775933	1.022273	-0.002004	99
Es	0.399573	-2.015217	0.008815	99
Es	-1.694168	-0.561414	0.583858	99
Es	1.001889	1.568556	0.344089	99
Es	-0.676565	-0.186303	-0.002465	99
Es	1.477121	-1.382984	0.009806	99
Es	1.379128	1.378425	-0.105783	99
Es	0.847230	1.674643	-0.244076	99
Es	0.422284	0.431684	-0.002345	99
Es	1.375684	2.061882	-0.001952	99
Es	-1.701809	0.490421	0.013443	99
Es	-1.440289	-0.200148	-0.004593	99
29
Properties=species:S:1:pos:R:3:Z:I:1 energy=-192.81319929536596 field_type=dipole dipole="0.000000 0.000000 0.000000" charge=0
C	-1.440354	-0.200146	-0.004593	6
C	0.060525	-0.211656	-0.000503	6
C	0.745795	-1.364916	0.007357	6
C	0.776056	1.022484	-0.002003	6
C	1.375565	2.061674	-0.001953	6
H	-1.834454	0.821664	0.022177	1
H	-1.833385	-0.728286	0.870697	1
H	-1.826774	-0.680636	-0.909703	1
H	0.235836	-2.322796	0.009297	1
H	1.831655	-1.382296	0.011147	1
H	1.909535	2.984914	-0.001923	1
Es	-1.701812	0.490424	0.013450	99
Es	1.477141	-1.382966	0.009867	99
Es	1.723065	2.663605	-0.002213	99
Es	1.387496	1.375170	0.067473	99
Es	0.399547	-2.015223	0.008844	99
Es	-1.694168	-0.561410	0.583847	99
Es	-1.689520	-0.528763	-0.613281	99
Es	0.060496	-0.211467	-0.000504	99
Es	0.775934	1.022274	-0.002002	99
Es	-1.440290	-0.200148	-0.004593	99
Es	-0.676642	-0.186301	-0.002402	99
Es	0.418905	-0.765895	-0.316554	99
Es	0.868748	1.658711	0.265260	99
Es	0.971883	1.587700	-0.338922	99
Es	0.422446	0.431603	-0.001468	99
Es	0.745829	-1.364989	0.007357	99
Es	1.375684	2.061882	-0.001954	99
Es	0.416966	-0.762873	0.323402	99
29
Properties=species:S:1:pos:R:3:Z:I:1 energy=-192.81319929536596 field_type=dipole dipole="0.000000 0.000000 0.000000" charge=0
C	-1.440354	-0.200146	-0.004593	6
C	0.060525	-0.211656	-0.000503	6
C	0.745795	-1.364916	0.007357	6
C	0.776056	1.022484	-0.002003	6
C	1.375565	2.061674	-0.001953	6
H	-1.834454	0.821664	0.022177	1
H	-1.833385	-0.728286	0.870697	1
H	-1.826774	-0.680636	-0.909703	1
H	0.235836	-2.322796	0.009297	1
H	1.831655	-1.382296	0.011147	1
H	1.909535	2.984914	-0.001923	1
Es	0.416764	-0.762810	0.323330	99
Es	-1.440296	-0.200149	-0.004593	99
Es	0.421546	0.431842	-0.001419	99
Es	0.775932	1.022273	-0.002002	99
Es	0.399517	-2.015244	0.008833	99
Es	0.777987	1.728180	0.080790	99
Es	1.477170	-1.382952	0.009865	99
Es	1.160453	1.477937	-0.339901	99
Es	0.745829	-1.364988	0.007357	99
Es	1.723629	2.663036	-0.002252	99
Es	0.418707	-0.765815	-0.316420	99
Es	-0.676656	-0.186331	-0.002418	99
Es	-1.689493	-0.528763	-0.613262	99
Es	-1.694177	-0.561425	0.583852	99
Es	1.375685	2.061879	-0.001954	99
Es	-1.701827	0.490417	0.013427	99
Es	1.290439	1.415713	0.252880	99
Es	0.060496	-0.211468	-0.000504	99
29
Properties=species:S:1:pos:R:3:Z:I:1 energy=-192.81319929536596 field_type=dipole dipole="0.000000 0.000000 0.000000" charge=0
C	-1.440354	-0.200146	-0.004593	6
C	0.060525	-0.211656	-0.000503	6
C	0.745795	-1.364916	0.007357	6
C	0.776056	1.022484	-0.002003	6
C	1.375565	2.061674	-0.001953	6
H	-1.834454	0.821664	0.022177	1
H	-1.833385	-0.728286	0.870697	1
H	-1.826774	-0.680636	-0.909703	1
H	0.235836	-2.322796	0.009297	1
H	1.831655	-1.382296	0.011147	1
H	1.909535	2.984914	-0.001923	1
Es	-1.689516	-0.528762	-0.613265	99
Es	0.399501	-2.015245	0.008845	99
Es	1.180469	1.467684	-0.332271	99
Es	0.774163	1.731250	0.057753	99
Es	0.416787	-0.762794	0.323222	99
Es	-1.440291	-0.200148	-0.004593	99
Es	0.421483	0.431821	-0.001507	99
Es	0.418728	-0.765802	-0.316386	99
Es	1.274297	1.422931	0.268360	99
Es	0.775931	1.022273	-0.002003	99
Es	-1.701825	0.490429	0.013451	99
Es	-1.694167	-0.561409	0.583826	99
Es	0.745828	-1.364988	0.007357	99
Es	1.375684	2.061879	-0.001954	99
Es	0.060496	-0.211468	-0.000504	99
Es	-0.676712	-0.186353	-0.002402	99
Es	1.477195	-1.382940	0.009866	99
Es	1.723653	2.662977	-0.002186	99
