34
Properties=species:S:1:pos:R:3:Z:I:1 energy=-211.19728785381676 field_type=dipole dipole="0.000000 0.000000 0.000000" charge=0
C	-1.541908	0.110104	-0.046296	6
C	-0.060078	0.052804	0.222304	6
N	0.312782	0.019394	1.642794	7
C	0.806752	-0.703606	-0.753576	6
C	0.850682	0.797854	-0.721506	6
H	-1.763798	0.142734	-1.118586	1
H	-1.978788	1.002834	0.413784	1
H	-2.039218	-0.771786	0.371554	1
H	1.323502	-0.026726	1.761264	1
H	-0.059728	-0.818586	2.089004	1
H	0.335562	-1.176776	-1.607966	1
H	1.670682	-1.242336	-0.382486	1
H	1.736412	1.276194	-0.319656	1
H	0.407142	1.337894	-1.550626	1
Es	0.312518	-0.508883	-0.220543	99
Es	0.544103	1.160955	-1.283801	99
Es	0.850634	0.797697	-0.721461	99
Es	0.482950	-1.022613	-1.336211	99
Es	1.453436	1.115856	-0.442529	99
Es	-0.059936	0.052798	0.222332	99
Es	0.806730	-0.703446	-0.753546	99
Es	-1.876577	-0.494186	0.241494	99
Es	0.187118	0.302604	1.806793	99
Es	1.394247	-1.066384	-0.492035	99
Es	0.953795	0.046239	-0.873684	99
Es	0.925395	-0.025750	1.692568	99
Es	-0.799368	0.078444	0.085071	99
Es	-1.836496	0.714826	0.265153	99
Es	-1.541880	0.110090	-0.046298	99
Es	0.312994	0.018917	1.642509	99
Es	0.095462	-0.502420	1.890388	99
Es	0.344782	0.601186	-0.183071	99
Es	0.169689	0.008105	1.019662	99
Es	-1.681821	0.129730	-0.778329	99
34
Properties=species:S:1:pos:R:3:Z:I:1 energy=-211.19728785381676 field_type=dipole dipole="0.000000 0.000000 0.000000" charge=0
C	-1.541908	0.110104	-0.046296	6
C	-0.060078	0.052804	0.222304	6
N	0.312782	0.019394	1.642794	7
C	0.806752	-0.703606	-0.753576	6
C	0.850682	0.797854	-0.721506	6
H	-1.763798	0.142734	-1.118586	1
H	-1.978788	1.002834	0.413784	1
H	-2.039218	-0.771786	0.371554	1
H	1.323502	-0.026726	1.761264	1
H	-0.059728	-0.818586	2.089004	1
H	0.335562	-1.176776	-1.607966	1
H	1.670682	-1.242336	-0.382486	1
H	1.736412	1.276194	-0.319656	1
H	0.407142	1.337894	-1.550626	1
Es	-0.059940	0.052795	0.222333	99
Es	0.954112	0.046179	-0.873944	99
Es	-1.541880	0.110090	-0.046298	99
Es	0.095228	-0.502330	1.890652	99
Es	0.344695	0.601284	-0.183057	99
Es	-1.681620	0.129733	-0.778236	99
Es	0.544247	1.160954	-1.283702	99
Es	-1.836584	0.714821	0.264943	99
Es	0.850635	0.797695	-0.721462	99
Es	0.806732	-0.703446	-0.753549	99
Es	-1.876841	-0.494097	0.241337	99
Es	0.312356	-0.508839	-0.220448	99
Es	0.483014	-1.022653	-1.336154	99
Es	1.394126	-1.066344	-0.492076	99
Es	-0.799176	0.078357	0.085334	99
Es	0.312997	0.018904	1.642509	99
Es	0.169844	0.007727	1.019804	99
Es	1.453246	1.115886	-0.442527	99
Es	0.187167	0.302807	1.806419	99
Es	0.925417	-0.025760	1.692583	99
34
Properties=species:S:1:pos:R:3:Z:I:1 energy=-211.19728785381676 field_type=dipole dipole="0.000000 0.000000 0.000000" charge=0
C	-1.541908	0.110104	-0.046296	6
C	-0.060078	0.052804	0.222304	6
N	0.312782	0.019394	1.642794	7
C	0.806752	-0.703606	-0.753576	6
C	0.850682	0.797854	-0.721506	6
H	-1.763798	0.142734	-1.118586	1
H	-1.978788	1.002834	0.413784	1
H	-2.039218	-0.771786	0.371554	1
H	1.323502	-0.026726	1.761264	1
H	-0.059728	-0.818586	2.089004	1
H	0.335562	-1.176776	-1.607966	1
H	1.670682	-1.242336	-0.382486	1
H	1.736412	1.276194	-0.319656	1
H	0.407142	1.337894	-1.550626	1
Es	0.954165	0.046167	-0.874116	99
Es	0.186953	0.302774	1.806698	99
Es	0.312393	-0.509121	-0.220439	99
Es	-1.876846	-0.494133	0.241296	99
Es	-1.541880	0.110090	-0.046297	99
Es	0.312991	0.018910	1.642515	99
Es	0.850638	0.797695	-0.721464	99
Es	-1.836601	0.714831	0.264959	99
Es	0.169737	0.007700	1.019583	99
Es	-0.059928	0.052795	0.222318	99
Es	-0.799163	0.078305	0.085342	99
Es	0.344632	0.601571	-0.182916	99
Es	1.394015	-1.066351	-0.492170	99
Es	0.095654	-0.502417	1.890519	99
Es	0.544274	1.160981	-1.283562	99
Es	-1.681608	0.129760	-0.778196	99
Es	0.483121	-1.022626	-1.336031	99
Es	0.925281	-0.025576	1.692594	99
Es	0.806728	-0.703446	-0.753544	99
Es	1.453218	1.115856	-0.442627	99
34
Properties=species:S:1:pos:R:3:Z:I:1 energy=-211.19728785381676 field_type=dipole dipole="0.000000 0.000000 0.000000" charge=0
C	-1.541908	0.110104	-0.046296	6
C	-0.060078	0.052804	0.222304	6
N	0.312782	0.019394	1.642794	7
C	0.806752	-0.703606	-0.753576	6
C	0.850682	0.797854	-0.721506	6
H	-1.763798	0.142734	-1.118586	1
H	-1.978788	1.002834	0.413784	1
H	-2.039218	-0.771786	0.371554	1
H	1.323502	-0.026726	1.761264	1
H	-0.059728	-0.818586	2.089004	1
H	0.335562	-1.176776	-1.607966	1
H	1.670682	-1.242336	-0.382486	1
H	1.736412	1.276194	-0.319656	1
H	0.407142	1.337894	-1.550626	1
Es	1.393969	-1.066331	-0.492258	99
Es	1.453178	1.115822	-0.442741	99
Es	0.806730	-0.703445	-0.753545	99
Es	0.187365	0.302937	1.806553	99
Es	-1.836570	0.714759	0.264942	99
Es	0.483209	-1.022606	-1.335945	99
Es	0.344526	0.601688	-0.182852	99
Es	-1.681636	0.129827	-0.778189	99
Es	-1.541881	0.110091	-0.046298	99
Es	0.312995	0.018905	1.642499	99
Es	0.312278	-0.509391	-0.220395	99
Es	0.169745	0.007720	1.019595	99
Es	0.954232	0.046374	-0.874250	99
Es	-0.059932	0.052800	0.222324	99
Es	-1.876858	-0.494197	0.241336	99
Es	-0.799062	0.078325	0.085372	99
Es	0.544324	1.160964	-1.283495	99
Es	0.850637	0.797688	-0.721466	99
Es	0.925256	-0.025961	1.692512	99
Es	0.095267	-0.502204	1.890762	99
34
Properties=species:S:1:pos:R:3:Z:I:1 energy=-211.19728785381676 field_type=dipole dipole="0.000000 0.000000 0.000000" charge=0
C	-1.541908	0.110104	-0.046296	6
C	-0.060078	0.052804	0.222304	6
N	0.312782	0.019394	1.642794	7
C	0.806752	-0.703606	-0.753576	6
C	0.850682	0.797854	-0.721506	6
H	-1.763798	0.142734	-1.118586	1
H	-1.978788	1.002834	0.413784	1
H	-2.039218	-0.771786	0.371554	1
H	1.323502	-0.026726	1.761264	1
H	-0.059728	-0.818586	2.089004	1
H	0.335562	-1.176776	-1.607966	1
H	1.670682	-1.242336	-0.382486	1
H	1.736412	1.276194	-0.319656	1
H	0.407142	1.337894	-1.550626	1
Es	-0.059930	0.052796	0.222319	99
Es	0.169679	0.007716	1.019476	99
Es	0.850632	0.797690	-0.721460	99
Es	0.954453	0.046368	-0.874560	99
Es	0.312143	-0.509342	-0.220305	99
Es	-1.836701	0.714804	0.264892	99
Es	1.453125	1.115798	-0.442817	99
Es	-1.541880	0.110090	-0.046298	99
Es	-1.681511	0.129748	-0.778181	99
Es	0.544428	1.160934	-1.283463	99
Es	0.806731	-0.703438	-0.753548	99
Es	-1.876864	-0.494154	0.241243	99
Es	0.483260	-1.022688	-1.335779	99
Es	0.344475	0.601739	-0.182748	99
Es	1.393857	-1.066320	-0.492246	99
Es	0.187310	0.302658	1.806472	99
Es	0.312987	0.018935	1.642521	99
Es	0.925240	-0.025701	1.692646	99
Es	0.095376	-0.502247	1.890811	99
Es	-0.799035	0.078380	0.085488	99
34
Properties=species:S:1:pos:R:3:Z:I:1 energy=-211.19728785381676 field_type=dipole dipole="0.000000 0.000000 0.000000" charge=0
C	-1.541908	0.110104	-0.046296	6
C	-0.060078	0.052804	0.222304	6
N	0.312782	0.019394	1.642794	7
C	0.806752	-0.703606	-0.753576	6
C	0.850682	0.797854	-0.721506	6
H	-1.763798	0.142734	-1.118586	1
H	-1.978788	1.002834	0.413784	1
H	-2.039218	-0.771786	0.371554	1
H	1.323502	-0.026726	1.761264	1
H	-0.059728	-0.818586	2.089004	1
H	0.335562	-1.176776	-1.607966	1
H	1.670682	-1.242336	-0.382486	1
H	1.736412	1.276194	-0.319656	1
H	0.407142	1.337894	-1.550626	1
Es	-1.541880	0.110089	-0.046297	99
Es	0.483452	-1.022680	-1.335661	99
Es	0.344346	0.601841	-0.182715	99
Es	-1.836587	0.714829	0.264929	99
Es	0.925193	-0.025536	1.692904	99
Es	-0.059931	0.052798	0.222321	99
Es	-1.876909	-0.494046	0.241271	99
Es	0.095440	-0.502300	1.890673	99
Es	1.452916	1.115893	-0.442850	99
Es	0.850633	0.797691	-0.721460	99
Es	0.806726	-0.703437	-0.753542	99
Es	0.187338	0.302243	1.806584	99
Es	0.169632	0.008018	1.019251	99
Es	0.311956	-0.509520	-0.220315	99
Es	-1.681582	0.129751	-0.778227	99
Es	0.544519	1.160920	-1.283198	99
Es	0.312977	0.018936	1.642521	99
Es	1.393831	-1.066288	-0.492236	99
Es	0.954691	0.046345	-0.874982	99
Es	-0.798986	0.078218	0.085492	99
34
Properties=species:S:1:pos:R:3:Z:I:1 energy=-211.19728785381676 field_type=dipole dipole="0.000000 0.000000 0.000000" charge=0
C	-1.541908	0.110104	-0.046296	6
C	-0.060078	0.052804	0.222304	6
N	0.312782	0.019394	1.642794	7
C	0.806752	-0.703606	-0.753576	6
C	0.850682	0.797854	-0.721506	6
H	-1.763798	0.142734	-1.118586	1
H	-1.978788	1.002834	0.413784	1
H	-2.039218	-0.771786	0.371554	1
H	1.323502	-0.026726	1.761264	1
H	-0.059728	-0.818586	2.089004	1
H	0.335562	-1.176776	-1.607966	1
H	1.670682	-1.242336	-0.382486	1
H	1.736412	1.276194	-0.319656	1
H	0.407142	1.337894	-1.550626	1
Es	-1.541881	0.110090	-0.046298	99
Es	0.925377	-0.025672	1.692737	99
Es	-1.681626	0.129776	-0.778172	99
Es	0.095426	-0.502144	1.890685	99
Es	-1.836622	0.714792	0.264937	99
Es	0.187313	0.302365	1.806582	99
Es	0.483422	-1.022644	-1.335629	99
Es	-0.059929	0.052799	0.222318	99
Es	0.850635	0.797683	-0.721463	99
Es	0.544618	1.160907	-1.283278	99
Es	0.344199	0.601882	-0.182551	99
Es	1.452884	1.115809	-0.442913	99
Es	-1.876869	-0.494121	0.241270	99
Es	0.806727	-0.703443	-0.753543	99
Es	0.955041	0.046484	-0.875039	99
Es	-0.798919	0.078293	0.085439	99
Es	0.311945	-0.509527	-0.220161	99
Es	0.169457	0.007872	1.019416	99
Es	0.312995	0.018900	1.642507	99
Es	1.393581	-1.066335	-0.492383	99
34
Properties=species:S:1:pos:R:3:Z:I:1 energy=-211.19728785381676 field_type=dipole dipole="0.000000 0.000000 0.000000" charge=0
C	-1.541908	0.110104	-0.046296	6
C	-0.060078	0.052804	0.222304	6
N	0.312782	0.019394	1.642794	7
C	0.806752	-0.703606	-0.753576	6
C	0.850682	0.797854	-0.721506	6
H	-1.763798	0.142734	-1.118586	1
H	-1.978788	1.002834	0.413784	1
H	-2.039218	-0.771786	0.371554	1
H	1.323502	-0.026726	1.761264	1
H	-0.059728	-0.818586	2.089004	1
H	0.335562	-1.176776	-1.607966	1
H	1.670682	-1.242336	-0.382486	1
H	1.736412	1.276194	-0.319656	1
H	0.407142	1.337894	-1.550626	1
Es	0.344220	0.602128	-0.182615	99
Es	0.850633	0.797692	-0.721460	99
Es	0.806728	-0.703440	-0.753545	99
Es	0.312987	0.018900	1.642511	99
Es	-1.876934	-0.494180	0.241224	99
Es	0.483463	-1.022639	-1.335542	99
Es	1.393589	-1.066303	-0.492461	99
Es	0.311915	-0.509704	-0.220150	99
Es	0.544621	1.160935	-1.283082	99
Es	-1.541880	0.110090	-0.046298	99
Es	0.187503	0.302240	1.806423	99
Es	-1.681519	0.129827	-0.778154	99
Es	0.095335	-0.502170	1.890883	99
Es	1.452784	1.115862	-0.442944	99
Es	-0.059930	0.052802	0.222318	99
Es	-0.798887	0.078288	0.085506	99
Es	0.169426	0.007945	1.019389	99
Es	0.955032	0.046257	-0.875212	99
Es	-1.836622	0.714810	0.264915	99
Es	0.925312	-0.025575	1.692755	99
34
Properties=species:S:1:pos:R:3:Z:I:1 energy=-211.19728785381676 field_type=dipole dipole="0.000000 0.000000 0.000000" charge=0
C	-1.541908	0.110104	-0.046296	6
C	-0.060078	0.052804	0.222304	6
N	0.312782	0.019394	1.642794	7
C	0.806752	-0.703606	-0.753576	6
C	0.850682	0.797854	-0.721506	6
H	-1.763798	0.142734	-1.118586	1
H	-1.978788	1.002834	0.413784	1
H	-2.039218	-0.771786	0.371554	1
H	1.323502	-0.026726	1.761264	1
H	-0.059728	-0.818586	2.089004	1
H	0.335562	-1.176776	-1.607966	1
H	1.670682	-1.242336	-0.382486	1
H	1.736412	1.276194	-0.319656	1
H	0.407142	1.337894	-1.550626	1
Es	0.169481	0.007955	1.019311	99
Es	-0.059926	0.052798	0.222313	99
Es	0.955242	0.046479	-0.875309	99
Es	0.311849	-0.509953	-0.220032	99
Es	-0.798826	0.078210	0.085544	99
Es	-1.836657	0.714778	0.264887	99
Es	0.483558	-1.022609	-1.335497	99
Es	0.544623	1.160954	-1.283031	99
Es	0.806729	-0.703442	-0.753545	99
Es	-1.541881	0.110090	-0.046298	99
Es	-1.681587	0.129762	-0.778165	99
Es	0.187481	0.302441	1.806609	99
Es	0.095395	-0.502172	1.890761	99
Es	1.452653	1.115868	-0.443007	99
Es	0.850632	0.797686	-0.721460	99
Es	1.393510	-1.066279	-0.492543	99
Es	0.344212	0.602156	-0.182555	99
Es	-1.876896	-0.494103	0.241253	99
Es	0.312990	0.018910	1.642523	99
Es	0.925194	-0.025765	1.692704	99
34
Properties=species:S:1:pos:R:3:Z:I:1 energy=-211.19728785381676 field_type=dipole dipole="0.000000 0.000000 0.000000" charge=0
C	-1.541908	0.110104	-0.046296	6
C	-0.060078	0.052804	0.222304	6
N	0.312782	0.019394	1.642794	7
C	0.806752	-0.703606	-0.753576	6
C	0.850682	0.797854	-0.721506	6
H	-1.763798	0.142734	-1.118586	1
H	-1.978788	1.002834	0.413784	1
H	-2.039218	-0.771786	0.371554	1
H	1.323502	-0.026726	1.761264	1
H	-0.059728	-0.818586	2.089004	1
H	0.335562	-1.176776	-1.607966	1
H	1.670682	-1.242336	-0.382486	1
H	1.736412	1.276194	-0.319656	1
H	0.407142	1.337894	-1.550626	1
Es	-1.876907	-0.494072	0.241243	99
Es	0.095669	-0.502381	1.890565	99
Es	0.544736	1.160928	-1.282981	99
Es	0.806727	-0.703436	-0.753543	99
Es	0.955366	0.046390	-0.875456	99
Es	0.344121	0.602368	-0.182441	99
Es	0.169278	0.008235	1.019204	99
Es	1.452600	1.115832	-0.443071	99
Es	-1.541881	0.110090	-0.046298	99
Es	-0.798776	0.078239	0.085564	99
Es	-1.836657	0.714785	0.264882	99
Es	-1.681596	0.129749	-0.778162	99
Es	0.850631	0.797687	-0.721459	99
Es	0.925254	-0.025387	1.692812	99
Es	0.483589	-1.022634	-1.335409	99
Es	-0.059928	0.052798	0.222315	99
Es	0.312979	0.018948	1.642527	99
Es	0.311827	-0.509980	-0.220073	99
Es	0.187350	0.301895	1.806801	99
Es	1.393391	-1.066291	-0.492558	99
34
Properties=species:S:1:pos:R:3:Z:I:1 energy=-211.19728785381676 field_type=dipole dipole="0.000000 0.000000 0.000000" charge=0
C	-1.541908	0.110104	-0.046296	6
C	-0.060078	0.052804	0.222304	6
N	0.312782	0.019394	1.642794	7
C	0.806752	-0.703606	-0.753576	6
C	0.850682	0.797854	-0.721506	6
H	-1.763798	0.142734	-1.118586	1
H	-1.978788	1.002834	0.413784	1
H	-2.039218	-0.771786	0.371554	1
H	1.323502	-0.026726	1.761264	1
H	-0.059728	-0.818586	2.089004	1
H	0.335562	-1.176776	-1.607966	1
H	1.670682	-1.242336	-0.382486	1
H	1.736412	1.276194	-0.319656	1
H	0.407142	1.337894	-1.550626	1
Es	0.483716	-1.022629	-1.335329	99
Es	0.544881	1.160942	-1.282916	99
Es	0.850631	0.797687	-0.721458	99
Es	0.095378	-0.502132	1.890894	99
Es	0.311661	-0.510112	-0.220074	99
Es	0.187639	0.302328	1.806561	99
Es	-1.836634	0.714789	0.264928	99
Es	-0.059926	0.052799	0.222311	99
Es	-0.798686	0.078225	0.085556	99
Es	0.344000	0.602490	-0.182347	99
Es	-1.876921	-0.494035	0.241203	99
Es	0.312952	0.018988	1.642542	99
Es	-1.681650	0.129774	-0.778131	99
Es	-1.541881	0.110090	-0.046298	99
Es	0.955408	0.046423	-0.875646	99
Es	1.393377	-1.066237	-0.492605	99
Es	0.169436	0.007816	1.019187	99
Es	1.452546	1.115756	-0.443099	99
Es	0.925122	-0.025759	1.692726	99
Es	0.806727	-0.703437	-0.753543	99
34
Properties=species:S:1:pos:R:3:Z:I:1 energy=-211.19728785381676 field_type=dipole dipole="0.000000 0.000000 0.000000" charge=0
C	-1.541908	0.110104	-0.046296	6
C	-0.060078	0.052804	0.222304	6
N	0.312782	0.019394	1.642794	7
C	0.806752	-0.703606	-0.753576	6
C	0.850682	0.797854	-0.721506	6
H	-1.763798	0.142734	-1.118586	1
H	-1.978788	1.002834	0.413784	1
H	-2.039218	-0.771786	0.371554	1
H	1.323502	-0.026726	1.761264	1
H	-0.059728	-0.818586	2.089004	1
H	0.335562	-1.176776	-1.607966	1
H	1.670682	-1.242336	-0.382486	1
H	1.736412	1.276194	-0.319656	1
H	0.407142	1.337894	-1.550626	1
Es	0.169321	0.007882	1.019024	99
Es	0.955652	0.046500	-0.875771	99
Es	0.187773	0.302229	1.806515	99
Es	0.312982	0.018922	1.642497	99
Es	-1.541881	0.110090	-0.046298	99
Es	0.483731	-1.022609	-1.335269	99
Es	-0.059925	0.052798	0.222312	99
Es	-1.836693	0.714789	0.264867	99
Es	1.452431	1.115855	-0.443156	99
Es	1.393246	-1.066257	-0.492683	99
Es	0.095328	-0.502008	1.891045	99
Es	0.544838	1.160911	-1.282799	99
Es	0.344014	0.602570	-0.182339	99
Es	0.850631	0.797687	-0.721459	99
Es	0.311700	-0.510287	-0.219978	99
Es	0.806725	-0.703433	-0.753541	99
Es	-1.876913	-0.494038	0.241209	99
Es	-0.798690	0.078185	0.085637	99
Es	-1.681593	0.129727	-0.778141	99
Es	0.925098	-0.025748	1.692789	99
34
Properties=species:S:1:pos:R:3:Z:I:1 energy=-211.19728785381676 field_type=dipole dipole="0.000000 0.000000 0.000000" charge=0
C	-1.541908	0.110104	-0.046296	6
C	-0.060078	0.052804	0.222304	6
N	0.312782	0.019394	1.642794	7
C	0.806752	-0.703606	-0.753576	6
C	0.850682	0.797854	-0.721506	6
H	-1.763798	0.142734	-1.118586	1
H	-1.978788	1.002834	0.413784	1
H	-2.039218	-0.771786	0.371554	1
H	1.323502	-0.026726	1.761264	1
H	-0.059728	-0.818586	2.089004	1
H	0.335562	-1.176776	-1.607966	1
H	1.670682	-1.242336	-0.382486	1
H	1.736412	1.276194	-0.319656	1
H	0.407142	1.337894	-1.550626	1
Es	1.393225	-1.066206	-0.492689	99
Es	0.955698	0.046459	-0.875974	99
Es	0.850632	0.797690	-0.721458	99
Es	1.452367	1.115790	-0.443239	99
Es	-0.798601	0.078220	0.085672	99
Es	-0.059924	0.052798	0.222307	99
Es	0.483788	-1.022670	-1.335154	99
Es	0.187905	0.301773	1.806854	99
Es	-1.541883	0.110089	-0.046297	99
Es	0.544922	1.160917	-1.282746	99
Es	0.095463	-0.502250	1.890783	99
Es	0.806725	-0.703429	-0.753540	99
Es	-1.836656	0.714754	0.264814	99
Es	-1.681583	0.129754	-0.778145	99
Es	0.313004	0.018961	1.642555	99
Es	0.168995	0.008547	1.019059	99
Es	0.311633	-0.510369	-0.219966	99
Es	0.343939	0.602672	-0.182253	99
Es	-1.876987	-0.494018	0.241221	99
Es	0.925113	-0.025718	1.692660	99
34
Properties=species:S:1:pos:R:3:Z:I:1 energy=-211.19728785381676 field_type=dipole dipole="0.000000 0.000000 0.000000" charge=0
C	-1.541908	0.110104	-0.046296	6
C	-0.060078	0.052804	0.222304	6
N	0.312782	0.019394	1.642794	7
C	0.806752	-0.703606	-0.753576	6
C	0.850682	0.797854	-0.721506	6
H	-1.763798	0.142734	-1.118586	1
H	-1.978788	1.002834	0.413784	1
H	-2.039218	-0.771786	0.371554	1
H	1.323502	-0.026726	1.761264	1
H	-0.059728	-0.818586	2.089004	1
H	0.335562	-1.176776	-1.607966	1
H	1.670682	-1.242336	-0.382486	1
H	1.736412	1.276194	-0.319656	1
H	0.407142	1.337894	-1.550626	1
Es	1.452303	1.115815	-0.443284	99
Es	0.925347	-0.025382	1.692866	99
Es	0.187574	0.301825	1.806441	99
Es	-0.798602	0.078157	0.085628	99
Es	-1.876968	-0.493986	0.241276	99
Es	0.095533	-0.501943	1.891046	99
Es	0.483803	-1.022632	-1.335120	99
Es	0.312999	0.018892	1.642490	99
Es	-1.836650	0.714824	0.264782	99
Es	-1.541880	0.110089	-0.046297	99
Es	-1.681597	0.129667	-0.778135	99
Es	0.850630	0.797685	-0.721458	99
Es	-0.059925	0.052798	0.222308	99
Es	0.169005	0.007836	1.019069	99
Es	0.806727	-0.703438	-0.753543	99
Es	0.544957	1.160900	-1.282650	99
Es	1.393116	-1.066218	-0.492782	99
Es	0.311625	-0.510359	-0.219900	99
Es	0.343879	0.602779	-0.182162	99
Es	0.955899	0.046456	-0.876114	99
34
Properties=species:S:1:pos:R:3:Z:I:1 energy=-211.19728785381676 field_type=dipole dipole="0.000000 0.000000 0.000000" charge=0
C	-1.541908	0.110104	-0.046296	6
C	-0.060078	0.052804	0.222304	6
N	0.312782	0.019394	1.642794	7
C	0.806752	-0.703606	-0.753576	6
C	0.850682	0.797854	-0.721506	6
H	-1.763798	0.142734	-1.118586	1
H	-1.978788	1.002834	0.413784	1
H	-2.039218	-0.771786	0.371554	1
H	1.323502	-0.026726	1.761264	1
H	-0.059728	-0.818586	2.089004	1
H	0.335562	-1.176776	-1.607966	1
H	1.670682	-1.242336	-0.382486	1
H	1.736412	1.276194	-0.319656	1
H	0.407142	1.337894	-1.550626	1
Es	0.956050	0.046522	-0.876280	99
Es	0.850630	0.797683	-0.721457	99
Es	0.312995	0.018929	1.642518	99
Es	1.393012	-1.066296	-0.492806	99
Es	0.343825	0.602924	-0.182101	99
Es	0.311549	-0.510505	-0.219916	99
Es	0.187774	0.302022	1.806448	99
Es	0.095338	-0.502058	1.891067	99
Es	0.483834	-1.022596	-1.334984	99
Es	-1.681596	0.129730	-0.778136	99
Es	-1.836714	0.714753	0.264834	99
Es	-0.798527	0.078207	0.085701	99
Es	0.806725	-0.703433	-0.753541	99
Es	0.545052	1.160878	-1.282585	99
Es	1.452232	1.115786	-0.443357	99
Es	0.925131	-0.025607	1.692826	99
Es	-0.059924	0.052797	0.222308	99
Es	0.169215	0.007933	1.019036	99
Es	-1.876945	-0.493995	0.241184	99
Es	-1.541882	0.110090	-0.046298	99
34
Properties=species:S:1:pos:R:3:Z:I:1 energy=-211.19728785381676 field_type=dipole dipole="0.000000 0.000000 0.000000" charge=0
C	-1.541908	0.110104	-0.046296	6
C	-0.060078	0.052804	0.222304	6
N	0.312782	0.019394	1.642794	7
C	0.806752	-0.703606	-0.753576	6
C	0.850682	0.797854	-0.721506	6
H	-1.763798	0.142734	-1.118586	1
H	-1.978788	1.002834	0.413784	1
H	-2.039218	-0.771786	0.371554	1
H	1.323502	-0.026726	1.761264	1
H	-0.059728	-0.818586	2.089004	1
H	0.335562	-1.176776	-1.607966	1
H	1.670682	-1.242336	-0.382486	1
H	1.736412	1.276194	-0.319656	1
H	0.407142	1.337894	-1.550626	1
Es	0.312966	0.018950	1.642529	99
Es	0.483912	-1.022660	-1.334918	99
Es	-1.681580	0.129765	-0.778112	99
Es	-0.798493	0.078225	0.085714	99
Es	0.806725	-0.703433	-0.753541	99
Es	-1.836712	0.714739	0.264829	99
Es	0.925033	-0.026192	1.692614	99
Es	0.343831	0.602930	-0.182113	99
Es	0.169063	0.008088	1.018982	99
Es	0.311452	-0.510619	-0.219814	99
Es	0.094997	-0.501819	1.891275	99
Es	0.956165	0.046582	-0.876424	99
Es	-1.876963	-0.494035	0.241170	99
Es	-1.541882	0.110090	-0.046297	99
Es	-0.059922	0.052798	0.222303	99
Es	0.850622	0.797682	-0.721449	99
Es	1.452184	1.115805	-0.443380	99
Es	0.545048	1.160871	-1.282562	99
Es	0.188385	0.302208	1.806490	99
Es	1.392944	-1.066210	-0.492835	99
34
Properties=species:S:1:pos:R:3:Z:I:1 energy=-211.19728785381676 field_type=dipole dipole="0.000000 0.000000 0.000000" charge=0
C	-1.541908	0.110104	-0.046296	6
C	-0.060078	0.052804	0.222304	6
N	0.312782	0.019394	1.642794	7
C	0.806752	-0.703606	-0.753576	6
C	0.850682	0.797854	-0.721506	6
H	-1.763798	0.142734	-1.118586	1
H	-1.978788	1.002834	0.413784	1
H	-2.039218	-0.771786	0.371554	1
H	1.323502	-0.026726	1.761264	1
H	-0.059728	-0.818586	2.089004	1
H	0.335562	-1.176776	-1.607966	1
H	1.670682	-1.242336	-0.382486	1
H	1.736412	1.276194	-0.319656	1
H	0.407142	1.337894	-1.550626	1
Es	0.187952	0.301908	1.806467	99
Es	-0.059922	0.052800	0.222300	99
Es	0.343816	0.603257	-0.182087	99
Es	0.095310	-0.501927	1.891136	99
Es	0.169042	0.007950	1.018931	99
Es	0.312975	0.018939	1.642524	99
Es	0.925134	-0.025686	1.692835	99
Es	0.956159	0.046439	-0.876310	99
Es	0.545176	1.160801	-1.282606	99
Es	1.452110	1.115774	-0.443445	99
Es	0.850629	0.797682	-0.721457	99
Es	0.806726	-0.703430	-0.753543	99
Es	-1.541883	0.110089	-0.046298	99
Es	0.311344	-0.510777	-0.219752	99
Es	-1.681542	0.129785	-0.778165	99
Es	1.392910	-1.066161	-0.492928	99
Es	-1.836666	0.714728	0.264812	99
Es	-1.877032	-0.493986	0.241157	99
Es	0.484019	-1.022606	-1.334901	99
Es	-0.798480	0.078185	0.085791	99
34
Properties=species:S:1:pos:R:3:Z:I:1 energy=-211.19728785381676 field_type=dipole dipole="0.000000 0.000000 0.000000" charge=0
C	-1.541908	0.110104	-0.046296	6
C	-0.060078	0.052804	0.222304	6
N	0.312782	0.019394	1.642794	7
C	0.806752	-0.703606	-0.753576	6
C	0.850682	0.797854	-0.721506	6
H	-1.763798	0.142734	-1.118586	1
H	-1.978788	1.002834	0.413784	1
H	-2.039218	-0.771786	0.371554	1
H	1.323502	-0.026726	1.761264	1
H	-0.059728	-0.818586	2.089004	1
H	0.335562	-1.176776	-1.607966	1
H	1.670682	-1.242336	-0.382486	1
H	1.736412	1.276194	-0.319656	1
H	0.407142	1.337894	-1.550626	1
Es	-0.059923	0.052798	0.222305	99
Es	0.095427	-0.502014	1.891055	99
Es	0.484045	-1.022587	-1.334814	99
Es	1.392822	-1.066220	-0.492927	99
Es	-0.798454	0.078210	0.085760	99
Es	0.187896	0.301854	1.806567	99
Es	0.850630	0.797682	-0.721456	99
Es	-1.836682	0.714719	0.264762	99
Es	1.452040	1.115797	-0.443485	99
Es	-1.877015	-0.494039	0.241210	99
Es	0.956383	0.046527	-0.876639	99
Es	-1.541882	0.110090	-0.046298	99
Es	-1.681564	0.129769	-0.778116	99
Es	0.311342	-0.510774	-0.219788	99
Es	0.169072	0.007999	1.018917	99
Es	0.343710	0.603189	-0.181999	99
Es	0.545162	1.160837	-1.282410	99
Es	0.806724	-0.703429	-0.753539	99
Es	0.925080	-0.025635	1.692823	99
Es	0.312960	0.018990	1.642535	99
34
Properties=species:S:1:pos:R:3:Z:I:1 energy=-211.19728785381676 field_type=dipole dipole="0.000000 0.000000 0.000000" charge=0
C	-1.541908	0.110104	-0.046296	6
C	-0.060078	0.052804	0.222304	6
N	0.312782	0.019394	1.642794	7
C	0.806752	-0.703606	-0.753576	6
C	0.850682	0.797854	-0.721506	6
H	-1.763798	0.142734	-1.118586	1
H	-1.978788	1.002834	0.413784	1
H	-2.039218	-0.771786	0.371554	1
H	1.323502	-0.026726	1.761264	1
H	-0.059728	-0.818586	2.089004	1
H	0.335562	-1.176776	-1.607966	1
H	1.670682	-1.242336	-0.382486	1
H	1.736412	1.276194	-0.319656	1
H	0.407142	1.337894	-1.550626	1
Es	0.484095	-1.022575	-1.334758	99
Es	0.956413	0.046541	-0.876764	99
Es	0.925105	-0.025534	1.692987	99
Es	-0.059918	0.052798	0.222302	99
Es	0.343650	0.603338	-0.181880	99
Es	0.187757	0.302212	1.806007	99
Es	0.806727	-0.703434	-0.753542	99
Es	-1.876982	-0.494021	0.241277	99
Es	1.451995	1.115733	-0.443578	99
Es	0.311325	-0.510947	-0.219743	99
Es	-1.681694	0.129739	-0.778058	99
Es	1.392790	-1.066157	-0.493040	99
Es	0.095208	-0.501796	1.891423	99
Es	0.850629	0.797682	-0.721455	99
Es	0.169343	0.007360	1.018990	99
Es	-1.836637	0.714742	0.264777	99
Es	-0.798316	0.078186	0.085617	99
Es	-1.541880	0.110087	-0.046298	99
Es	0.545186	1.160875	-1.282322	99
Es	0.312977	0.018935	1.642521	99
34
Properties=species:S:1:pos:R:3:Z:I:1 energy=-211.19728785381676 field_type=dipole dipole="0.000000 0.000000 0.000000" charge=0
C	-1.541908	0.110104	-0.046296	6
C	-0.060078	0.052804	0.222304	6
N	0.312782	0.019394	1.642794	7
C	0.806752	-0.703606	-0.753576	6
C	0.850682	0.797854	-0.721506	6
H	-1.763798	0.142734	-1.118586	1
H	-1.978788	1.002834	0.413784	1
H	-2.039218	-0.771786	0.371554	1
H	1.323502	-0.026726	1.761264	1
H	-0.059728	-0.818586	2.089004	1
H	0.335562	-1.176776	-1.607966	1
H	1.670682	-1.242336	-0.382486	1
H	1.736412	1.276194	-0.319656	1
H	0.407142	1.337894	-1.550626	1
Es	0.850634	0.797685	-0.721459	99
Es	0.484152	-1.022584	-1.334715	99
Es	1.451913	1.115751	-0.443581	99
Es	0.545269	1.160834	-1.282291	99
Es	0.188539	0.301624	1.806750	99
Es	1.392689	-1.066171	-0.493014	99
Es	0.925051	-0.026026	1.692568	99
Es	-0.059927	0.052798	0.222308	99
Es	0.956584	0.046530	-0.876867	99
Es	-0.798385	0.078190	0.085799	99
Es	-1.836734	0.714733	0.264773	99
Es	0.311246	-0.510969	-0.219703	99
Es	-1.681554	0.129741	-0.778100	99
Es	-1.876997	-0.494003	0.241159	99
Es	0.168624	0.008533	1.018853	99
Es	0.312990	0.018951	1.642524	99
Es	0.095203	-0.501896	1.891194	99
Es	0.806722	-0.703428	-0.753538	99
Es	-1.541883	0.110090	-0.046298	99
Es	0.343639	0.603381	-0.181897	99
34
Properties=species:S:1:pos:R:3:Z:I:1 energy=-211.19728785381676 field_type=dipole dipole="0.000000 0.000000 0.000000" charge=0
C	-1.541908	0.110104	-0.046296	6
C	-0.060078	0.052804	0.222304	6
N	0.312782	0.019394	1.642794	7
C	0.806752	-0.703606	-0.753576	6
C	0.850682	0.797854	-0.721506	6
H	-1.763798	0.142734	-1.118586	1
H	-1.978788	1.002834	0.413784	1
H	-2.039218	-0.771786	0.371554	1
H	1.323502	-0.026726	1.761264	1
H	-0.059728	-0.818586	2.089004	1
H	0.335562	-1.176776	-1.607966	1
H	1.670682	-1.242336	-0.382486	1
H	1.736412	1.276194	-0.319656	1
H	0.407142	1.337894	-1.550626	1
Es	0.187670	0.301574	1.805803	99
Es	0.169261	0.007452	1.018779	99
Es	-0.059922	0.052809	0.222302	99
Es	0.095300	-0.501914	1.891424	99
Es	0.545436	1.160827	-1.282282	99
Es	-1.876999	-0.494057	0.241202	99
Es	0.850627	0.797677	-0.721454	99
Es	0.312964	0.018949	1.642565	99
Es	0.484200	-1.022612	-1.334638	99
Es	0.925147	-0.025015	1.693316	99
Es	0.343617	0.603787	-0.181901	99
Es	0.806723	-0.703426	-0.753539	99
Es	-1.836725	0.714682	0.264740	99
Es	1.392506	-1.066215	-0.492969	99
Es	0.956802	0.046137	-0.877075	99
Es	-1.681571	0.129768	-0.778094	99
Es	-0.798269	0.078302	0.085800	99
Es	1.451883	1.115664	-0.443604	99
Es	0.311007	-0.510716	-0.219615	99
Es	-1.541883	0.110091	-0.046297	99
34
Properties=species:S:1:pos:R:3:Z:I:1 energy=-211.19728785381676 field_type=dipole dipole="0.000000 0.000000 0.000000" charge=0
C	-1.541908	0.110104	-0.046296	6
C	-0.060078	0.052804	0.222304	6
N	0.312782	0.019394	1.642794	7
C	0.806752	-0.703606	-0.753576	6
C	0.850682	0.797854	-0.721506	6
H	-1.763798	0.142734	-1.118586	1
H	-1.978788	1.002834	0.413784	1
H	-2.039218	-0.771786	0.371554	1
H	1.323502	-0.026726	1.761264	1
H	-0.059728	-0.818586	2.089004	1
H	0.335562	-1.176776	-1.607966	1
H	1.670682	-1.242336	-0.382486	1
H	1.736412	1.276194	-0.319656	1
H	0.407142	1.337894	-1.550626	1
Es	0.956801	0.046591	-0.877106	99
Es	-1.541883	0.110091	-0.046297	99
Es	-0.798291	0.078184	0.085853	99
Es	0.545343	1.160823	-1.282176	99
Es	0.925041	-0.025641	1.692896	99
Es	-1.877014	-0.493993	0.241145	99
Es	1.392564	-1.066137	-0.493096	99
Es	0.806723	-0.703427	-0.753539	99
Es	0.343552	0.603545	-0.181808	99
Es	0.484249	-1.022580	-1.334597	99
Es	0.311142	-0.511164	-0.219652	99
Es	0.188105	0.301802	1.806353	99
Es	-0.059920	0.052798	0.222300	99
Es	-1.681550	0.129737	-0.778087	99
Es	-1.836751	0.714724	0.264748	99
Es	0.095285	-0.501844	1.891327	99
Es	0.168979	0.007885	1.018777	99
Es	1.451799	1.115749	-0.443652	99
Es	0.312975	0.018945	1.642528	99
Es	0.850627	0.797677	-0.721455	99
34
Properties=species:S:1:pos:R:3:Z:I:1 energy=-211.19728785381676 field_type=dipole dipole="0.000000 0.000000 0.000000" charge=0
C	-1.541908	0.110104	-0.046296	6
C	-0.060078	0.052804	0.222304	6
N	0.312782	0.019394	1.642794	7
C	0.806752	-0.703606	-0.753576	6
C	0.850682	0.797854	-0.721506	6
H	-1.763798	0.142734	-1.118586	1
H	-1.978788	1.002834	0.413784	1
H	-2.039218	-0.771786	0.371554	1
H	1.323502	-0.026726	1.761264	1
H	-0.059728	-0.818586	2.089004	1
H	0.335562	-1.176776	-1.607966	1
H	1.670682	-1.242336	-0.382486	1
H	1.736412	1.276194	-0.319656	1
H	0.407142	1.337894	-1.550626	1
Es	0.312967	0.018962	1.642533	99
Es	-1.541883	0.110090	-0.046297	99
Es	-0.798247	0.078177	0.085879	99
Es	0.168943	0.007838	1.018731	99
Es	0.925034	-0.025638	1.692910	99
Es	0.956904	0.046585	-0.877231	99
Es	0.850627	0.797676	-0.721454	99
Es	1.451719	1.115741	-0.443697	99
Es	1.392521	-1.066126	-0.493134	99
Es	0.806722	-0.703426	-0.753538	99
Es	-1.877023	-0.493976	0.241129	99
Es	0.188148	0.301769	1.806315	99
Es	0.095274	-0.501800	1.891385	99
Es	0.343501	0.603660	-0.181748	99
Es	-0.059920	0.052797	0.222299	99
Es	-1.836760	0.714709	0.264743	99
Es	0.484293	-1.022577	-1.334540	99
Es	0.311100	-0.511242	-0.219627	99
Es	0.545403	1.160806	-1.282112	99
Es	-1.681547	0.129740	-0.778082	99
34
Properties=species:S:1:pos:R:3:Z:I:1 energy=-211.19728785381676 field_type=dipole dipole="0.000000 0.000000 0.000000" charge=0
C	-1.541908	0.110104	-0.046296	6
C	-0.060078	0.052804	0.222304	6
N	0.312782	0.019394	1.642794	7
C	0.806752	-0.703606	-0.753576	6
C	0.850682	0.797854	-0.721506	6
H	-1.763798	0.142734	-1.118586	1
H	-1.978788	1.002834	0.413784	1
H	-2.039218	-0.771786	0.371554	1
H	1.323502	-0.026726	1.761264	1
H	-0.059728	-0.818586	2.089004	1
H	0.335562	-1.176776	-1.607966	1
H	1.670682	-1.242336	-0.382486	1
H	1.736412	1.276194	-0.319656	1
H	0.407142	1.337894	-1.550626	1
Es	0.484343	-1.022568	-1.334487	99
Es	-0.059920	0.052798	0.222298	99
Es	-1.836769	0.714706	0.264734	99
Es	-1.541883	0.110090	-0.046297	99
Es	0.806722	-0.703425	-0.753538	99
Es	0.545442	1.160799	-1.282054	99
Es	1.392460	-1.066116	-0.493168	99
Es	-1.681542	0.129740	-0.778073	99
Es	0.343463	0.603750	-0.181707	99
Es	-1.877033	-0.493972	0.241121	99
Es	0.311053	-0.511327	-0.219600	99
Es	0.850627	0.797675	-0.721454	99
Es	0.095275	-0.501780	1.891420	99
Es	0.312976	0.018937	1.642522	99
Es	0.168924	0.007837	1.018703	99
Es	0.188157	0.301717	1.806277	99
Es	-0.798213	0.078162	0.085902	99
Es	0.925023	-0.025584	1.692947	99
Es	1.451672	1.115727	-0.443748	99
Es	0.956997	0.046598	-0.877335	99
34
Properties=species:S:1:pos:R:3:Z:I:1 energy=-211.19728785381676 field_type=dipole dipole="0.000000 0.000000 0.000000" charge=0
C	-1.541908	0.110104	-0.046296	6
C	-0.060078	0.052804	0.222304	6
N	0.312782	0.019394	1.642794	7
C	0.806752	-0.703606	-0.753576	6
C	0.850682	0.797854	-0.721506	6
H	-1.763798	0.142734	-1.118586	1
H	-1.978788	1.002834	0.413784	1
H	-2.039218	-0.771786	0.371554	1
H	1.323502	-0.026726	1.761264	1
H	-0.059728	-0.818586	2.089004	1
H	0.335562	-1.176776	-1.607966	1
H	1.670682	-1.242336	-0.382486	1
H	1.736412	1.276194	-0.319656	1
H	0.407142	1.337894	-1.550626	1
Es	-1.877023	-0.493973	0.241123	99
Es	-1.541883	0.110090	-0.046297	99
Es	0.806723	-0.703426	-0.753538	99
Es	-0.798182	0.078176	0.085907	99
Es	0.957069	0.046620	-0.877438	99
Es	0.484392	-1.022565	-1.334428	99
Es	0.095593	-0.501979	1.891161	99
Es	0.925067	-0.025164	1.693138	99
Es	0.545496	1.160788	-1.282002	99
Es	-1.836777	0.714701	0.264726	99
Es	0.312964	0.018923	1.642535	99
Es	1.392398	-1.066091	-0.493212	99
Es	0.311013	-0.511424	-0.219574	99
Es	0.168930	0.007903	1.018659	99
Es	0.343417	0.603835	-0.181673	99
Es	-1.681552	0.129731	-0.778068	99
Es	0.850626	0.797674	-0.721454	99
Es	0.187796	0.301432	1.806380	99
Es	-0.059919	0.052798	0.222297	99
Es	1.451627	1.115714	-0.443778	99
34
Properties=species:S:1:pos:R:3:Z:I:1 energy=-211.19728785381676 field_type=dipole dipole="0.000000 0.000000 0.000000" charge=0
C	-1.541908	0.110104	-0.046296	6
C	-0.060078	0.052804	0.222304	6
N	0.312782	0.019394	1.642794	7
C	0.806752	-0.703606	-0.753576	6
C	0.850682	0.797854	-0.721506	6
H	-1.763798	0.142734	-1.118586	1
H	-1.978788	1.002834	0.413784	1
H	-2.039218	-0.771786	0.371554	1
H	1.323502	-0.026726	1.761264	1
H	-0.059728	-0.818586	2.089004	1
H	0.335562	-1.176776	-1.607966	1
H	1.670682	-1.242336	-0.382486	1
H	1.736412	1.276194	-0.319656	1
H	0.407142	1.337894	-1.550626	1
Es	0.806721	-0.703425	-0.753537	99
Es	0.168914	0.007418	1.018603	99
Es	0.094707	-0.501279	1.892152	99
Es	-1.541880	0.110090	-0.046296	99
Es	0.957219	0.046632	-0.877478	99
Es	0.484437	-1.022563	-1.334376	99
Es	1.392307	-1.066077	-0.493254	99
Es	-0.798130	0.078139	0.085952	99
Es	0.850625	0.797672	-0.721452	99
Es	0.311027	-0.511497	-0.219622	99
Es	0.312972	0.018930	1.642530	99
Es	0.925056	-0.025824	1.692981	99
Es	-1.681580	0.129738	-0.778073	99
Es	0.545594	1.160704	-1.282000	99
Es	0.343253	0.604043	-0.181548	99
Es	0.188716	0.301812	1.805588	99
Es	1.451540	1.115722	-0.443856	99
Es	-1.877028	-0.493954	0.241126	99
Es	-1.836769	0.714686	0.264727	99
Es	-0.059925	0.052798	0.222297	99
34
Properties=species:S:1:pos:R:3:Z:I:1 energy=-211.19728785381676 field_type=dipole dipole="0.000000 0.000000 0.000000" charge=0
C	-1.541908	0.110104	-0.046296	6
C	-0.060078	0.052804	0.222304	6
N	0.312782	0.019394	1.642794	7
C	0.806752	-0.703606	-0.753576	6
C	0.850682	0.797854	-0.721506	6
H	-1.763798	0.142734	-1.118586	1
H	-1.978788	1.002834	0.413784	1
H	-2.039218	-0.771786	0.371554	1
H	1.323502	-0.026726	1.761264	1
H	-0.059728	-0.818586	2.089004	1
H	0.335562	-1.176776	-1.607966	1
H	1.670682	-1.242336	-0.382486	1
H	1.736412	1.276194	-0.319656	1
H	0.407142	1.337894	-1.550626	1
Es	1.392312	-1.066054	-0.493309	99
Es	0.168853	0.007807	1.018592	99
Es	0.850625	0.797675	-0.721454	99
Es	0.312970	0.018953	1.642532	99
Es	0.957206	0.046762	-0.877562	99
Es	-1.836792	0.714698	0.264702	99
Es	0.925026	-0.025384	1.693070	99
Es	0.188063	0.301506	1.806265	99
Es	-1.541884	0.110091	-0.046296	99
Es	0.806721	-0.703422	-0.753537	99
Es	-1.877036	-0.493920	0.241114	99
Es	-1.681549	0.129700	-0.778083	99
Es	-0.798101	0.078154	0.085972	99
Es	0.545558	1.160747	-1.281888	99
Es	0.343395	0.603988	-0.181609	99
Es	0.310893	-0.511751	-0.219520	99
Es	1.451513	1.115723	-0.443885	99
Es	-0.059917	0.052798	0.222293	99
Es	0.095408	-0.501789	1.891405	99
Es	0.484510	-1.022517	-1.334340	99
34
Properties=species:S:1:pos:R:3:Z:I:1 energy=-211.19728785381676 field_type=dipole dipole="0.000000 0.000000 0.000000" charge=0
C	-1.541908	0.110104	-0.046296	6
C	-0.060078	0.052804	0.222304	6
N	0.312782	0.019394	1.642794	7
C	0.806752	-0.703606	-0.753576	6
C	0.850682	0.797854	-0.721506	6
H	-1.763798	0.142734	-1.118586	1
H	-1.978788	1.002834	0.413784	1
H	-2.039218	-0.771786	0.371554	1
H	1.323502	-0.026726	1.761264	1
H	-0.059728	-0.818586	2.089004	1
H	0.335562	-1.176776	-1.607966	1
H	1.670682	-1.242336	-0.382486	1
H	1.736412	1.276194	-0.319656	1
H	0.407142	1.337894	-1.550626	1
Es	-1.541885	0.110093	-0.046296	99
Es	0.343453	0.604347	-0.181645	99
Es	1.392216	-1.066034	-0.493348	99
Es	-0.059912	0.052792	0.222289	99
Es	0.957129	0.046666	-0.877498	99
Es	1.451528	1.115686	-0.443947	99
Es	0.188373	0.301402	1.806170	99
Es	-1.877070	-0.493928	0.241099	99
Es	0.484532	-1.022541	-1.334279	99
Es	0.545648	1.160688	-1.281881	99
Es	-1.681524	0.129719	-0.778070	99
Es	-1.836788	0.714689	0.264678	99
Es	0.806722	-0.703426	-0.753537	99
Es	0.925022	-0.025528	1.693040	99
Es	0.168740	0.007897	1.018553	99
Es	-0.798078	0.078162	0.085994	99
Es	0.312969	0.018955	1.642538	99
Es	0.310870	-0.511868	-0.219507	99
Es	0.095204	-0.501681	1.891563	99
Es	0.850627	0.797674	-0.721453	99
34
Properties=species:S:1:pos:R:3:Z:I:1 energy=-211.19728785381676 field_type=dipole dipole="0.000000 0.000000 0.000000" charge=0
C	-1.541908	0.110104	-0.046296	6
C	-0.060078	0.052804	0.222304	6
N	0.312782	0.019394	1.642794	7
C	0.806752	-0.703606	-0.753576	6
C	0.850682	0.797854	-0.721506	6
H	-1.763798	0.142734	-1.118586	1
H	-1.978788	1.002834	0.413784	1
H	-2.039218	-0.771786	0.371554	1
H	1.323502	-0.026726	1.761264	1
H	-0.059728	-0.818586	2.089004	1
H	0.335562	-1.176776	-1.607966	1
H	1.670682	-1.242336	-0.382486	1
H	1.736412	1.276194	-0.319656	1
H	0.407142	1.337894	-1.550626	1
Es	-0.059917	0.052798	0.222292	99
Es	1.392090	-1.066007	-0.493294	99
Es	0.850624	0.797670	-0.721452	99
Es	0.188405	0.301549	1.806214	99
Es	0.924942	-0.025590	1.692949	99
Es	0.484633	-1.022570	-1.334284	99
Es	0.806720	-0.703420	-0.753536	99
Es	-1.836781	0.714740	0.264659	99
Es	0.545570	1.160652	-1.281750	99
Es	-1.681432	0.129726	-0.778075	99
Es	-1.541883	0.110091	-0.046297	99
Es	0.168656	0.007807	1.018566	99
Es	0.310806	-0.511748	-0.219472	99
Es	0.957516	0.046654	-0.877796	99
Es	1.451429	1.115761	-0.444068	99
Es	0.312977	0.018939	1.642528	99
Es	-1.877117	-0.493945	0.241079	99
Es	0.343286	0.604246	-0.181487	99
Es	-0.798034	0.078019	0.086030	99
Es	0.095283	-0.501607	1.891657	99
34
Properties=species:S:1:pos:R:3:Z:I:1 energy=-211.19728785381676 field_type=dipole dipole="0.000000 0.000000 0.000000" charge=0
C	-1.541908	0.110104	-0.046296	6
C	-0.060078	0.052804	0.222304	6
N	0.312782	0.019394	1.642794	7
C	0.806752	-0.703606	-0.753576	6
C	0.850682	0.797854	-0.721506	6
H	-1.763798	0.142734	-1.118586	1
H	-1.978788	1.002834	0.413784	1
H	-2.039218	-0.771786	0.371554	1
H	1.323502	-0.026726	1.761264	1
H	-0.059728	-0.818586	2.089004	1
H	0.335562	-1.176776	-1.607966	1
H	1.670682	-1.242336	-0.382486	1
H	1.736412	1.276194	-0.319656	1
H	0.407142	1.337894	-1.550626	1
Es	0.545647	1.160758	-1.281759	99
Es	0.484614	-1.022559	-1.334190	99
Es	0.343370	0.604278	-0.181478	99
Es	-1.681502	0.129739	-0.778057	99
Es	-1.836777	0.714668	0.264632	99
Es	0.850624	0.797669	-0.721451	99
Es	-1.877130	-0.493918	0.241093	99
Es	1.451372	1.115636	-0.444034	99
Es	0.188166	0.301238	1.806077	99
Es	0.095357	-0.501777	1.891566	99
Es	0.957570	0.046549	-0.877932	99
Es	-1.541882	0.110089	-0.046294	99
Es	0.312976	0.018940	1.642536	99
Es	0.806720	-0.703419	-0.753535	99
Es	0.310740	-0.511738	-0.219367	99
Es	0.168772	0.007868	1.018505	99
Es	1.392063	-1.066010	-0.493377	99
Es	-0.059919	0.052796	0.222304	99
Es	0.925020	-0.025190	1.693173	99
Es	-0.798025	0.078148	0.086050	99
