31
Properties=species:S:1:pos:R:3:Z:I:1 energy=-209.99963598432316 field_type=dipole dipole="0.000000 0.000000 0.000000" charge=0
C	-1.240317	-0.378650	0.280690	6
C	0.287323	-0.337640	0.293990	6
N	0.819473	-1.042090	-0.869200	7
C	0.769343	1.023530	0.293990	6
C	1.166623	2.145430	0.293990	6
H	-1.649787	0.133270	1.158130	1
H	-1.605257	-1.410810	0.296980	1
H	-1.651547	0.112560	-0.608350	1
H	0.641373	-0.852160	1.194330	1
H	0.512653	-0.563360	-1.714680	1
H	0.419363	-1.976700	-0.910780	1
H	1.530753	3.146620	0.290910	1
Es	-0.477096	-0.337815	0.289703	99
Es	0.818882	-1.042051	-0.869204	99
Es	0.536321	0.371921	0.291973	99
Es	1.166698	2.145684	0.293989	99
Es	0.769254	1.023289	0.293996	99
Es	-1.515775	-0.032218	0.879212	99
Es	1.170263	-1.061243	-0.861593	99
Es	0.818060	1.643637	-0.032493	99
Es	0.774622	1.658587	0.591584	99
Es	0.609242	-0.752702	-1.369615	99
Es	-1.477440	-1.088174	0.289747	99
Es	-1.510467	-0.046474	-0.328998	99
Es	1.306284	1.481086	0.320355	99
Es	0.527192	-0.671768	0.902938	99
Es	0.552998	-1.598246	-0.886095	99
Es	0.287368	-0.337588	0.293864	99
Es	1.402946	2.800288	0.292307	99
Es	0.567100	-0.727002	-0.367054	99
Es	-1.240296	-0.378654	0.280695	99
31
Properties=species:S:1:pos:R:3:Z:I:1 energy=-209.99963598432316 field_type=dipole dipole="0.000000 0.000000 0.000000" charge=0
C	-1.240317	-0.378650	0.280690	6
C	0.287323	-0.337640	0.293990	6
N	0.819473	-1.042090	-0.869200	7
C	0.769343	1.023530	0.293990	6
C	1.166623	2.145430	0.293990	6
H	-1.649787	0.133270	1.158130	1
H	-1.605257	-1.410810	0.296980	1
H	-1.651547	0.112560	-0.608350	1
H	0.641373	-0.852160	1.194330	1
H	0.512653	-0.563360	-1.714680	1
H	0.419363	-1.976700	-0.910780	1
H	1.530753	3.146620	0.290910	1
Es	0.536010	0.371847	0.292011	99
Es	1.074105	1.554376	0.630000	99
Es	1.187065	1.512058	0.026744	99
Es	1.166705	2.145682	0.293989	99
Es	0.553207	-1.598501	-0.886009	99
Es	0.608739	-0.752857	-1.369298	99
Es	0.818865	-1.042063	-0.869204	99
Es	0.567643	-0.726803	-0.366665	99
Es	0.287368	-0.337587	0.293863	99
Es	0.527125	-0.671789	0.902912	99
Es	0.769257	1.023291	0.293997	99
Es	-0.476984	-0.337734	0.289859	99
Es	1.403294	2.800185	0.292265	99
Es	0.637791	1.716979	0.222753	99
Es	-1.240295	-0.378653	0.280694	99
Es	-1.510334	-0.046536	-0.329012	99
Es	1.170026	-1.060976	-0.862384	99
Es	-1.477372	-1.088079	0.289569	99
Es	-1.516060	-0.032282	0.879223	99
31
Properties=species:S:1:pos:R:3:Z:I:1 energy=-209.99963598432316 field_type=dipole dipole="0.000000 0.000000 0.000000" charge=0
C	-1.240317	-0.378650	0.280690	6
C	0.287323	-0.337640	0.293990	6
N	0.819473	-1.042090	-0.869200	7
C	0.769343	1.023530	0.293990	6
C	1.166623	2.145430	0.293990	6
H	-1.649787	0.133270	1.158130	1
H	-1.605257	-1.410810	0.296980	1
H	-1.651547	0.112560	-0.608350	1
H	0.641373	-0.852160	1.194330	1
H	0.512653	-0.563360	-1.714680	1
H	0.419363	-1.976700	-0.910780	1
H	1.530753	3.146620	0.290910	1
Es	1.170138	-1.061149	-0.861694	99
Es	0.609325	-0.752806	-1.369553	99
Es	-1.510387	-0.046553	-0.328985	99
Es	0.567154	-0.726851	-0.367125	99
Es	0.553071	-1.598340	-0.886136	99
Es	0.536336	0.371622	0.292125	99
Es	1.304376	1.481992	0.342563	99
Es	-1.240296	-0.378653	0.280695	99
Es	-1.477404	-1.088088	0.289632	99
Es	0.757682	1.665209	0.578344	99
Es	-0.477094	-0.337536	0.289921	99
Es	0.818877	-1.042067	-0.869203	99
Es	1.166705	2.145674	0.293988	99
Es	1.402942	2.800247	0.292244	99
Es	-1.516050	-0.032292	0.879135	99
Es	0.769254	1.023291	0.294013	99
Es	0.527247	-0.671699	0.902952	99
Es	0.836908	1.636146	-0.041470	99
Es	0.287369	-0.337590	0.293862	99
31
Properties=species:S:1:pos:R:3:Z:I:1 energy=-209.99963598432316 field_type=dipole dipole="0.000000 0.000000 0.000000" charge=0
C	-1.240317	-0.378650	0.280690	6
C	0.287323	-0.337640	0.293990	6
N	0.819473	-1.042090	-0.869200	7
C	0.769343	1.023530	0.293990	6
C	1.166623	2.145430	0.293990	6
H	-1.649787	0.133270	1.158130	1
H	-1.605257	-1.410810	0.296980	1
H	-1.651547	0.112560	-0.608350	1
H	0.641373	-0.852160	1.194330	1
H	0.512653	-0.563360	-1.714680	1
H	0.419363	-1.976700	-0.910780	1
H	1.530753	3.146620	0.290910	1
Es	0.830604	1.638631	-0.038802	99
Es	1.166689	2.145683	0.293969	99
Es	-1.516093	-0.032259	0.879081	99
Es	0.763361	1.662974	0.583103	99
Es	1.170025	-1.061405	-0.861621	99
Es	0.609544	-0.752745	-1.369653	99
Es	-0.477072	-0.337444	0.289901	99
Es	0.536333	0.371513	0.292067	99
Es	0.818853	-1.042062	-0.869206	99
Es	0.552977	-1.598187	-0.886223	99
Es	0.287367	-0.337586	0.293865	99
Es	0.567215	-0.726851	-0.367021	99
Es	0.527258	-0.671627	0.903035	99
Es	-1.477408	-1.088075	0.289673	99
Es	1.305089	1.481736	0.335174	99
Es	-1.510386	-0.046625	-0.328988	99
Es	-1.240297	-0.378653	0.280695	99
Es	1.402841	2.800253	0.292262	99
Es	0.769252	1.023288	0.293998	99
31
Properties=species:S:1:pos:R:3:Z:I:1 energy=-209.99963598432316 field_type=dipole dipole="0.000000 0.000000 0.000000" charge=0
C	-1.240317	-0.378650	0.280690	6
C	0.287323	-0.337640	0.293990	6
N	0.819473	-1.042090	-0.869200	7
C	0.769343	1.023530	0.293990	6
C	1.166623	2.145430	0.293990	6
H	-1.649787	0.133270	1.158130	1
H	-1.605257	-1.410810	0.296980	1
H	-1.651547	0.112560	-0.608350	1
H	0.641373	-0.852160	1.194330	1
H	0.512653	-0.563360	-1.714680	1
H	0.419363	-1.976700	-0.910780	1
H	1.530753	3.146620	0.290910	1
Es	0.842175	1.634101	-0.043986	99
Es	-1.240297	-0.378653	0.280695	99
Es	0.609550	-0.752729	-1.369697	99
Es	0.527309	-0.671633	0.903016	99
Es	1.166704	2.145681	0.293984	99
Es	0.553034	-1.598211	-0.886205	99
Es	0.536294	0.371506	0.292083	99
Es	-0.476997	-0.337450	0.289971	99
Es	-1.477396	-1.088007	0.289700	99
Es	1.169884	-1.061408	-0.861653	99
Es	-1.516136	-0.032278	0.879060	99
Es	0.769244	1.023273	0.293994	99
Es	0.287367	-0.337587	0.293864	99
Es	0.818871	-1.042065	-0.869207	99
Es	-1.510430	-0.046678	-0.329000	99
Es	0.567255	-0.726811	-0.367020	99
Es	0.753569	1.666805	0.575196	99
Es	1.303205	1.482506	0.348185	99
Es	1.402951	2.800195	0.292329	99
31
Properties=species:S:1:pos:R:3:Z:I:1 energy=-209.99963598432316 field_type=dipole dipole="0.000000 0.000000 0.000000" charge=0
C	-1.240317	-0.378650	0.280690	6
C	0.287323	-0.337640	0.293990	6
N	0.819473	-1.042090	-0.869200	7
C	0.769343	1.023530	0.293990	6
C	1.166623	2.145430	0.293990	6
H	-1.649787	0.133270	1.158130	1
H	-1.605257	-1.410810	0.296980	1
H	-1.651547	0.112560	-0.608350	1
H	0.641373	-0.852160	1.194330	1
H	0.512653	-0.563360	-1.714680	1
H	0.419363	-1.976700	-0.910780	1
H	1.530753	3.146620	0.290910	1
Es	0.567414	-0.726791	-0.366969	99
Es	0.527320	-0.671509	0.902999	99
Es	1.166701	2.145681	0.293987	99
Es	-1.516125	-0.032263	0.879087	99
Es	0.818871	-1.042065	-0.869213	99
Es	-1.510391	-0.046654	-0.328982	99
Es	1.169628	-1.061388	-0.861675	99
Es	1.305096	1.481730	0.336194	99
Es	-1.477419	-1.088015	0.289664	99
Es	0.831381	1.638361	-0.039249	99
Es	-1.240297	-0.378653	0.280695	99
Es	1.402881	2.800169	0.292284	99
Es	0.553121	-1.598305	-0.886245	99
Es	0.762512	1.663315	0.582511	99
Es	0.769251	1.023290	0.293995	99
Es	0.536328	0.371347	0.292112	99
Es	0.287367	-0.337587	0.293866	99
Es	0.609661	-0.752711	-1.369729	99
Es	-0.477147	-0.337395	0.289978	99
31
Properties=species:S:1:pos:R:3:Z:I:1 energy=-209.99963598432316 field_type=dipole dipole="0.000000 0.000000 0.000000" charge=0
C	-1.240317	-0.378650	0.280690	6
C	0.287323	-0.337640	0.293990	6
N	0.819473	-1.042090	-0.869200	7
C	0.769343	1.023530	0.293990	6
C	1.166623	2.145430	0.293990	6
H	-1.649787	0.133270	1.158130	1
H	-1.605257	-1.410810	0.296980	1
H	-1.651547	0.112560	-0.608350	1
H	0.641373	-0.852160	1.194330	1
H	0.512653	-0.563360	-1.714680	1
H	0.419363	-1.976700	-0.910780	1
H	1.530753	3.146620	0.290910	1
Es	0.527352	-0.671479	0.902982	99
Es	0.834110	1.637300	-0.040337	99
Es	1.304884	1.481826	0.339152	99
Es	-0.477171	-0.337360	0.290007	99
Es	0.287367	-0.337587	0.293865	99
Es	0.609647	-0.752793	-1.369684	99
Es	-1.516125	-0.032250	0.879075	99
Es	-1.477447	-1.087998	0.289672	99
Es	-1.510393	-0.046669	-0.328965	99
Es	0.818900	-1.042059	-0.869204	99
Es	1.169712	-1.061428	-0.861733	99
Es	0.567346	-0.726736	-0.366992	99
Es	1.166701	2.145682	0.293988	99
Es	0.769251	1.023291	0.293995	99
Es	0.759979	1.664306	0.580586	99
Es	0.536334	0.371253	0.292185	99
Es	0.553113	-1.598225	-0.886285	99
Es	1.402890	2.800139	0.292308	99
Es	-1.240297	-0.378653	0.280695	99
31
Properties=species:S:1:pos:R:3:Z:I:1 energy=-209.99963598432316 field_type=dipole dipole="0.000000 0.000000 0.000000" charge=0
C	-1.240317	-0.378650	0.280690	6
C	0.287323	-0.337640	0.293990	6
N	0.819473	-1.042090	-0.869200	7
C	0.769343	1.023530	0.293990	6
C	1.166623	2.145430	0.293990	6
H	-1.649787	0.133270	1.158130	1
H	-1.605257	-1.410810	0.296980	1
H	-1.651547	0.112560	-0.608350	1
H	0.641373	-0.852160	1.194330	1
H	0.512653	-0.563360	-1.714680	1
H	0.419363	-1.976700	-0.910780	1
H	1.530753	3.146620	0.290910	1
Es	0.610313	-0.752568	-1.369973	99
Es	0.552708	-1.597990	-0.886372	99
Es	-1.516149	-0.032255	0.879064	99
Es	1.301308	1.483257	0.363073	99
Es	-0.477189	-0.337293	0.290015	99
Es	0.769246	1.023281	0.293993	99
Es	0.567499	-0.726648	-0.366997	99
Es	0.527385	-0.671393	0.903018	99
Es	-1.510405	-0.046694	-0.328957	99
Es	1.169331	-1.061998	-0.861357	99
Es	0.854809	1.629136	-0.048910	99
Es	-1.240298	-0.378653	0.280696	99
Es	0.818917	-1.042069	-0.869224	99
Es	0.536307	0.371140	0.292174	99
Es	1.402890	2.800106	0.292234	99
Es	0.742858	1.671085	0.565320	99
Es	1.166706	2.145674	0.293975	99
Es	0.287367	-0.337587	0.293866	99
Es	-1.477447	-1.087972	0.289671	99
31
Properties=species:S:1:pos:R:3:Z:I:1 energy=-209.99963598432316 field_type=dipole dipole="0.000000 0.000000 0.000000" charge=0
C	-1.240317	-0.378650	0.280690	6
C	0.287323	-0.337640	0.293990	6
N	0.819473	-1.042090	-0.869200	7
C	0.769343	1.023530	0.293990	6
C	1.166623	2.145430	0.293990	6
H	-1.649787	0.133270	1.158130	1
H	-1.605257	-1.410810	0.296980	1
H	-1.651547	0.112560	-0.608350	1
H	0.641373	-0.852160	1.194330	1
H	0.512653	-0.563360	-1.714680	1
H	0.419363	-1.976700	-0.910780	1
H	1.530753	3.146620	0.290910	1
Es	0.638033	1.715560	0.368044	99
Es	1.166704	2.145680	0.293985	99
Es	0.769250	1.023294	0.293997	99
Es	-0.477152	-0.337278	0.290060	99
Es	-1.516158	-0.032261	0.879052	99
Es	1.068362	1.550542	-0.046715	99
Es	1.169411	-1.060716	-0.861654	99
Es	0.553835	-1.598703	-0.886240	99
Es	1.403175	2.799976	0.292061	99
Es	-1.477456	-1.087965	0.289668	99
Es	0.567065	-0.726857	-0.367055	99
Es	0.609552	-0.752939	-1.369749	99
Es	0.527399	-0.671329	0.903010	99
Es	0.287367	-0.337588	0.293865	99
Es	-1.240298	-0.378654	0.280695	99
Es	-1.510410	-0.046702	-0.328945	99
Es	1.192727	1.517535	0.558125	99
Es	0.535866	0.371038	0.292314	99
Es	0.818881	-1.042078	-0.869207	99
31
Properties=species:S:1:pos:R:3:Z:I:1 energy=-209.99963598432316 field_type=dipole dipole="0.000000 0.000000 0.000000" charge=0
C	-1.240317	-0.378650	0.280690	6
C	0.287323	-0.337640	0.293990	6
N	0.819473	-1.042090	-0.869200	7
C	0.769343	1.023530	0.293990	6
C	1.166623	2.145430	0.293990	6
H	-1.649787	0.133270	1.158130	1
H	-1.605257	-1.410810	0.296980	1
H	-1.651547	0.112560	-0.608350	1
H	0.641373	-0.852160	1.194330	1
H	0.512653	-0.563360	-1.714680	1
H	0.419363	-1.976700	-0.910780	1
H	1.530753	3.146620	0.290910	1
Es	0.536165	0.370942	0.292326	99
Es	1.402875	2.800039	0.292133	99
Es	-1.510340	-0.046637	-0.328910	99
Es	-0.477229	-0.337257	0.290116	99
Es	0.287366	-0.337587	0.293867	99
Es	0.769244	1.023299	0.294004	99
Es	0.700394	1.688317	0.516971	99
Es	1.166700	2.145681	0.293985	99
Es	0.567722	-0.726578	-0.366822	99
Es	0.527445	-0.671281	0.903030	99
Es	1.283107	1.489515	0.426426	99
Es	-1.516188	-0.032290	0.879052	99
Es	0.818877	-1.042064	-0.869215	99
Es	-1.240297	-0.378653	0.280695	99
Es	-1.477527	-1.087941	0.289580	99
Es	0.610092	-0.752683	-1.369925	99
Es	1.169162	-1.061846	-0.861697	99
Es	0.552980	-1.598112	-0.886327	99
Es	0.915608	1.605694	-0.063977	99
31
Properties=species:S:1:pos:R:3:Z:I:1 energy=-209.99963598432316 field_type=dipole dipole="0.000000 0.000000 0.000000" charge=0
C	-1.240317	-0.378650	0.280690	6
C	0.287323	-0.337640	0.293990	6
N	0.819473	-1.042090	-0.869200	7
C	0.769343	1.023530	0.293990	6
C	1.166623	2.145430	0.293990	6
H	-1.649787	0.133270	1.158130	1
H	-1.605257	-1.410810	0.296980	1
H	-1.651547	0.112560	-0.608350	1
H	0.641373	-0.852160	1.194330	1
H	0.512653	-0.563360	-1.714680	1
H	0.419363	-1.976700	-0.910780	1
H	1.530753	3.146620	0.290910	1
Es	0.780271	1.656457	0.595492	99
Es	0.567570	-0.726654	-0.366984	99
Es	0.769255	1.023292	0.293990	99
Es	0.527478	-0.671223	0.903073	99
Es	0.818938	-1.042059	-0.869197	99
Es	-1.477472	-1.087954	0.289671	99
Es	-1.516172	-0.032270	0.879026	99
Es	-0.477258	-0.337114	0.290083	99
Es	1.166709	2.145677	0.293986	99
Es	0.553248	-1.598259	-0.886285	99
Es	1.307009	1.480784	0.313514	99
Es	0.287366	-0.337588	0.293867	99
Es	0.536159	0.370884	0.292223	99
Es	1.402805	2.800102	0.292483	99
Es	-1.510419	-0.046717	-0.328922	99
Es	0.609769	-0.752846	-1.369777	99
Es	1.169340	-1.061474	-0.861826	99
Es	0.811856	1.646171	-0.029802	99
Es	-1.240298	-0.378653	0.280696	99
31
Properties=species:S:1:pos:R:3:Z:I:1 energy=-209.99963598432316 field_type=dipole dipole="0.000000 0.000000 0.000000" charge=0
C	-1.240317	-0.378650	0.280690	6
C	0.287323	-0.337640	0.293990	6
N	0.819473	-1.042090	-0.869200	7
C	0.769343	1.023530	0.293990	6
C	1.166623	2.145430	0.293990	6
H	-1.649787	0.133270	1.158130	1
H	-1.605257	-1.410810	0.296980	1
H	-1.651547	0.112560	-0.608350	1
H	0.641373	-0.852160	1.194330	1
H	0.512653	-0.563360	-1.714680	1
H	0.419363	-1.976700	-0.910780	1
H	1.530753	3.146620	0.290910	1
Es	0.567609	-0.726629	-0.366950	99
Es	-1.477450	-1.087918	0.289655	99
Es	-1.516212	-0.032292	0.879034	99
Es	0.287366	-0.337588	0.293867	99
Es	-0.477242	-0.337088	0.290091	99
Es	0.527500	-0.671161	0.903078	99
Es	1.169181	-1.061465	-0.861776	99
Es	-1.240298	-0.378653	0.280696	99
Es	1.293506	1.482616	0.199095	99
Es	0.536091	0.370793	0.291902	99
Es	0.769250	1.023293	0.293994	99
Es	0.879787	1.619672	0.641159	99
Es	0.818882	-1.042062	-0.869207	99
Es	0.609904	-0.752808	-1.369840	99
Es	-1.510443	-0.046756	-0.328904	99
Es	1.403026	2.799976	0.292518	99
Es	0.553317	-1.598319	-0.886325	99
Es	0.725678	1.681268	0.039232	99
Es	1.166702	2.145678	0.293988	99
31
Properties=species:S:1:pos:R:3:Z:I:1 energy=-209.99963598432316 field_type=dipole dipole="0.000000 0.000000 0.000000" charge=0
C	-1.240317	-0.378650	0.280690	6
C	0.287323	-0.337640	0.293990	6
N	0.819473	-1.042090	-0.869200	7
C	0.769343	1.023530	0.293990	6
C	1.166623	2.145430	0.293990	6
H	-1.649787	0.133270	1.158130	1
H	-1.605257	-1.410810	0.296980	1
H	-1.651547	0.112560	-0.608350	1
H	0.641373	-0.852160	1.194330	1
H	0.512653	-0.563360	-1.714680	1
H	0.419363	-1.976700	-0.910780	1
H	1.530753	3.146620	0.290910	1
Es	1.402845	2.800013	0.292373	99
Es	0.287366	-0.337588	0.293867	99
Es	0.780933	1.656208	0.596356	99
Es	0.567697	-0.726582	-0.366969	99
Es	0.769252	1.023293	0.293994	99
Es	-1.510437	-0.046747	-0.328881	99
Es	-0.477306	-0.337009	0.290098	99
Es	0.818936	-1.042059	-0.869198	99
Es	1.169137	-1.061498	-0.861856	99
Es	1.166701	2.145678	0.293987	99
Es	-1.240298	-0.378653	0.280696	99
Es	0.811017	1.646528	-0.029270	99
Es	0.609884	-0.752846	-1.369809	99
Es	-1.477485	-1.087932	0.289659	99
Es	1.307060	1.480772	0.312368	99
Es	0.553287	-1.598305	-0.886312	99
Es	0.536226	0.370675	0.292107	99
Es	0.527536	-0.671116	0.903084	99
Es	-1.516196	-0.032273	0.879014	99
31
Properties=species:S:1:pos:R:3:Z:I:1 energy=-209.99963598432316 field_type=dipole dipole="0.000000 0.000000 0.000000" charge=0
C	-1.240317	-0.378650	0.280690	6
C	0.287323	-0.337640	0.293990	6
N	0.819473	-1.042090	-0.869200	7
C	0.769343	1.023530	0.293990	6
C	1.166623	2.145430	0.293990	6
H	-1.649787	0.133270	1.158130	1
H	-1.605257	-1.410810	0.296980	1
H	-1.651547	0.112560	-0.608350	1
H	0.641373	-0.852160	1.194330	1
H	0.512653	-0.563360	-1.714680	1
H	0.419363	-1.976700	-0.910780	1
H	1.530753	3.146620	0.290910	1
Es	1.168748	-1.060466	-0.861955	99
Es	0.554360	-1.599006	-0.886253	99
Es	-1.510445	-0.046765	-0.328874	99
Es	0.818877	-1.042064	-0.869208	99
Es	0.609523	-0.753041	-1.369784	99
Es	0.567443	-0.726714	-0.366985	99
Es	-1.240299	-0.378653	0.280696	99
Es	-1.516213	-0.032281	0.879009	99
Es	-1.477498	-1.087886	0.289663	99
Es	-0.477314	-0.336976	0.290125	99
Es	0.287365	-0.337588	0.293868	99
Es	0.832241	1.638093	-0.039933	99
Es	1.305238	1.481733	0.337390	99
Es	0.761539	1.663728	0.581969	99
Es	0.536225	0.370580	0.292166	99
Es	1.166705	2.145672	0.293998	99
Es	0.769253	1.023293	0.293997	99
Es	1.402827	2.799974	0.292330	99
Es	0.527579	-0.671076	0.903088	99
31
Properties=species:S:1:pos:R:3:Z:I:1 energy=-209.99963598432316 field_type=dipole dipole="0.000000 0.000000 0.000000" charge=0
C	-1.240317	-0.378650	0.280690	6
C	0.287323	-0.337640	0.293990	6
N	0.819473	-1.042090	-0.869200	7
C	0.769343	1.023530	0.293990	6
C	1.166623	2.145430	0.293990	6
H	-1.649787	0.133270	1.158130	1
H	-1.605257	-1.410810	0.296980	1
H	-1.651547	0.112560	-0.608350	1
H	0.641373	-0.852160	1.194330	1
H	0.512653	-0.563360	-1.714680	1
H	0.419363	-1.976700	-0.910780	1
H	1.530753	3.146620	0.290910	1
Es	0.849421	1.631305	-0.047164	99
Es	1.166701	2.145677	0.293987	99
Es	0.818885	-1.042062	-0.869207	99
Es	0.287365	-0.337588	0.293868	99
Es	-0.477340	-0.336937	0.290132	99
Es	0.553397	-1.598325	-0.886355	99
Es	-1.516218	-0.032280	0.879011	99
Es	1.302479	1.482874	0.356885	99
Es	0.536186	0.370489	0.292213	99
Es	0.567775	-0.726550	-0.366920	99
Es	0.747151	1.669390	0.569722	99
Es	-1.240299	-0.378652	0.280696	99
Es	0.609953	-0.752865	-1.369838	99
Es	1.168992	-1.061499	-0.861896	99
Es	0.527597	-0.671013	0.903101	99
Es	-1.477504	-1.087877	0.289655	99
Es	-1.510450	-0.046774	-0.328865	99
Es	1.402810	2.799953	0.292289	99
Es	0.769252	1.023293	0.293995	99
31
Properties=species:S:1:pos:R:3:Z:I:1 energy=-209.99963598432316 field_type=dipole dipole="0.000000 0.000000 0.000000" charge=0
C	-1.240317	-0.378650	0.280690	6
C	0.287323	-0.337640	0.293990	6
N	0.819473	-1.042090	-0.869200	7
C	0.769343	1.023530	0.293990	6
C	1.166623	2.145430	0.293990	6
H	-1.649787	0.133270	1.158130	1
H	-1.605257	-1.410810	0.296980	1
H	-1.651547	0.112560	-0.608350	1
H	0.641373	-0.852160	1.194330	1
H	0.512653	-0.563360	-1.714680	1
H	0.419363	-1.976700	-0.910780	1
H	1.530753	3.146620	0.290910	1
Es	0.834859	1.637057	-0.041213	99
Es	-1.477514	-1.087865	0.289653	99
Es	1.402804	2.799933	0.292330	99
Es	0.287365	-0.337588	0.293868	99
Es	-0.477356	-0.336884	0.290157	99
Es	1.166700	2.145677	0.293987	99
Es	0.536180	0.370403	0.292177	99
Es	0.609947	-0.752881	-1.369825	99
Es	0.567824	-0.726526	-0.366917	99
Es	0.769252	1.023294	0.293995	99
Es	-1.510453	-0.046783	-0.328857	99
Es	1.168909	-1.061502	-0.861951	99
Es	1.304896	1.481900	0.340461	99
Es	0.553412	-1.598329	-0.886362	99
Es	0.527624	-0.670962	0.903113	99
Es	0.818942	-1.042061	-0.869201	99
Es	0.759295	1.664615	0.580203	99
Es	-1.240299	-0.378652	0.280696	99
Es	-1.516234	-0.032287	0.878995	99
