37
Properties=species:S:1:pos:R:3:Z:I:1 energy=-212.39231874584624 field_type=dipole dipole="0.000000 0.000000 0.000000" charge=0
C	-1.662444	-1.162657	-0.260702	6
N	-0.215734	-1.065468	-0.110872	7
C	0.278386	0.314842	-0.217022	6
C	-0.115534	1.160443	0.995888	6
C	1.804656	0.273452	-0.340522	6
H	-1.954224	-2.217328	-0.248942	1
H	-1.999004	-0.734148	-1.209522	1
H	-2.190964	-0.676608	0.564168	1
H	0.222236	-1.634078	-0.835892	1
H	-0.116394	0.782852	-1.128352	1
H	0.219506	0.698382	1.930448	1
H	-1.198534	1.302542	1.054668	1
H	0.337546	2.155813	0.934078	1
H	2.266386	-0.187918	0.539078	1
H	2.211026	1.285293	-0.442412	1
H	2.113096	-0.295418	-1.224092	1
Es	-0.855926	1.253963	1.033044	99
Es	-0.115533	1.160445	0.995864	99
Es	1.050992	0.291686	-0.277690	99
Es	0.115195	0.844509	1.627804	99
Es	1.804647	0.273457	-0.340536	99
Es	0.072100	0.736782	0.397506	99
Es	-0.215913	-1.065239	-0.111420	99
Es	-0.022632	-0.462861	-0.181983	99
Es	0.038341	-1.393145	-0.572312	99
Es	-2.020075	-0.823364	0.299325	99
Es	-0.850380	-1.088209	-0.198882	99
Es	-0.120022	-1.192968	0.203340	99
Es	0.278376	0.314726	-0.216971	99
Es	2.009641	-0.120239	-0.947572	99
Es	0.000370	0.644570	-0.849573	99
Es	2.077612	0.966581	-0.411324	99
Es	-1.897704	-0.859904	-0.917562	99
Es	0.195829	1.838541	0.945537	99
Es	-1.662320	-1.162650	-0.260690	99
Es	-1.860587	-1.883485	-0.257692	99
Es	2.114898	-0.039287	0.258767	99
37
Properties=species:S:1:pos:R:3:Z:I:1 energy=-212.39231874584624 field_type=dipole dipole="0.000000 0.000000 0.000000" charge=0
C	-1.662444	-1.162657	-0.260702	6
N	-0.215734	-1.065468	-0.110872	7
C	0.278386	0.314842	-0.217022	6
C	-0.115534	1.160443	0.995888	6
C	1.804656	0.273452	-0.340522	6
H	-1.954224	-2.217328	-0.248942	1
H	-1.999004	-0.734148	-1.209522	1
H	-2.190964	-0.676608	0.564168	1
H	0.222236	-1.634078	-0.835892	1
H	-0.116394	0.782852	-1.128352	1
H	0.219506	0.698382	1.930448	1
H	-1.198534	1.302542	1.054668	1
H	0.337546	2.155813	0.934078	1
H	2.266386	-0.187918	0.539078	1
H	2.211026	1.285293	-0.442412	1
H	2.113096	-0.295418	-1.224092	1
Es	-0.215900	-1.065258	-0.111398	99
Es	2.009667	-0.120265	-0.947503	99
Es	0.115081	0.844505	1.627758	99
Es	-0.856059	1.254190	1.032986	99
Es	-0.850211	-1.088143	-0.199112	99
Es	-1.860602	-1.883525	-0.257926	99
Es	0.000412	0.644525	-0.849546	99
Es	0.038513	-1.393435	-0.572100	99
Es	0.195990	1.838330	0.945665	99
Es	2.077637	0.966521	-0.411397	99
Es	1.804647	0.273458	-0.340536	99
Es	-0.120396	-1.192799	0.203377	99
Es	-2.020124	-0.823469	0.299394	99
Es	-0.115537	1.160447	0.995868	99
Es	-1.662320	-1.162651	-0.260691	99
Es	1.050882	0.291661	-0.277748	99
Es	-1.897673	-0.859773	-0.917394	99
Es	2.114937	-0.039214	0.258768	99
Es	-0.022603	-0.462759	-0.182039	99
Es	0.278378	0.314732	-0.216972	99
Es	0.072191	0.736834	0.397528	99
37
Properties=species:S:1:pos:R:3:Z:I:1 energy=-212.39231874584624 field_type=dipole dipole="0.000000 0.000000 0.000000" charge=0
C	-1.662444	-1.162657	-0.260702	6
N	-0.215734	-1.065468	-0.110872	7
C	0.278386	0.314842	-0.217022	6
C	-0.115534	1.160443	0.995888	6
C	1.804656	0.273452	-0.340522	6
H	-1.954224	-2.217328	-0.248942	1
H	-1.999004	-0.734148	-1.209522	1
H	-2.190964	-0.676608	0.564168	1
H	0.222236	-1.634078	-0.835892	1
H	-0.116394	0.782852	-1.128352	1
H	0.219506	0.698382	1.930448	1
H	-1.198534	1.302542	1.054668	1
H	0.337546	2.155813	0.934078	1
H	2.266386	-0.187918	0.539078	1
H	2.211026	1.285293	-0.442412	1
H	2.113096	-0.295418	-1.224092	1
Es	0.000474	0.644483	-0.849504	99
Es	1.804648	0.273459	-0.340535	99
Es	1.050862	0.291691	-0.277713	99
Es	0.115166	0.844605	1.627755	99
Es	2.114967	-0.039339	0.258677	99
Es	-0.215912	-1.065239	-0.111426	99
Es	-0.855992	1.254139	1.033123	99
Es	0.072096	0.736809	0.397382	99
Es	-0.115537	1.160445	0.995866	99
Es	0.038729	-1.393645	-0.571973	99
Es	2.009632	-0.120147	-0.947509	99
Es	-0.120488	-1.192513	0.203329	99
Es	2.077701	0.966515	-0.411317	99
Es	-0.850234	-1.088106	-0.199136	99
Es	-1.662319	-1.162651	-0.260691	99
Es	-2.020093	-0.823360	0.299260	99
Es	-1.897738	-0.859958	-0.917493	99
Es	0.278376	0.314725	-0.216970	99
Es	0.195873	1.838356	0.945626	99
Es	-1.860638	-1.883471	-0.257679	99
Es	-0.022662	-0.462888	-0.182090	99
37
Properties=species:S:1:pos:R:3:Z:I:1 energy=-212.39231874584624 field_type=dipole dipole="0.000000 0.000000 0.000000" charge=0
C	-1.662444	-1.162657	-0.260702	6
N	-0.215734	-1.065468	-0.110872	7
C	0.278386	0.314842	-0.217022	6
C	-0.115534	1.160443	0.995888	6
C	1.804656	0.273452	-0.340522	6
H	-1.954224	-2.217328	-0.248942	1
H	-1.999004	-0.734148	-1.209522	1
H	-2.190964	-0.676608	0.564168	1
H	0.222236	-1.634078	-0.835892	1
H	-0.116394	0.782852	-1.128352	1
H	0.219506	0.698382	1.930448	1
H	-1.198534	1.302542	1.054668	1
H	0.337546	2.155813	0.934078	1
H	2.266386	-0.187918	0.539078	1
H	2.211026	1.285293	-0.442412	1
H	2.113096	-0.295418	-1.224092	1
Es	0.278377	0.314730	-0.216972	99
Es	-0.215909	-1.065242	-0.111408	99
Es	2.077651	0.966486	-0.411382	99
Es	-0.850343	-1.088241	-0.199175	99
Es	-1.897725	-0.859981	-0.917428	99
Es	2.009681	-0.120268	-0.947514	99
Es	0.038765	-1.393376	-0.571946	99
Es	-1.662320	-1.162651	-0.260691	99
Es	0.115040	0.844461	1.627715	99
Es	-1.860688	-1.883502	-0.257682	99
Es	-0.115537	1.160445	0.995866	99
Es	-0.855942	1.254233	1.033086	99
Es	-2.020103	-0.823331	0.299199	99
Es	0.000401	0.644524	-0.849367	99
Es	0.195978	1.838352	0.945773	99
Es	2.114977	-0.039177	0.258696	99
Es	1.804646	0.273457	-0.340536	99
Es	1.050911	0.291728	-0.277763	99
Es	-0.120546	-1.192782	0.202862	99
Es	0.072101	0.736797	0.397333	99
Es	-0.022506	-0.462752	-0.181684	99
37
Properties=species:S:1:pos:R:3:Z:I:1 energy=-212.39231874584624 field_type=dipole dipole="0.000000 0.000000 0.000000" charge=0
C	-1.662444	-1.162657	-0.260702	6
N	-0.215734	-1.065468	-0.110872	7
C	0.278386	0.314842	-0.217022	6
C	-0.115534	1.160443	0.995888	6
C	1.804656	0.273452	-0.340522	6
H	-1.954224	-2.217328	-0.248942	1
H	-1.999004	-0.734148	-1.209522	1
H	-2.190964	-0.676608	0.564168	1
H	0.222236	-1.634078	-0.835892	1
H	-0.116394	0.782852	-1.128352	1
H	0.219506	0.698382	1.930448	1
H	-1.198534	1.302542	1.054668	1
H	0.337546	2.155813	0.934078	1
H	2.266386	-0.187918	0.539078	1
H	2.211026	1.285293	-0.442412	1
H	2.113096	-0.295418	-1.224092	1
Es	0.072142	0.736809	0.397373	99
Es	0.038852	-1.393706	-0.571631	99
Es	1.804647	0.273457	-0.340536	99
Es	0.195917	1.838334	0.945732	99
Es	0.000466	0.644474	-0.849390	99
Es	2.077685	0.966452	-0.411388	99
Es	-0.120721	-1.192435	0.203313	99
Es	2.114963	-0.039163	0.258696	99
Es	-1.662320	-1.162651	-0.260691	99
Es	-0.022592	-0.462836	-0.182218	99
Es	-0.855966	1.254204	1.033057	99
Es	-0.115536	1.160445	0.995866	99
Es	-1.860649	-1.883441	-0.257753	99
Es	0.278377	0.314729	-0.216972	99
Es	-1.897744	-0.860000	-0.917397	99
Es	-2.020160	-0.823370	0.299266	99
Es	1.050774	0.291700	-0.277833	99
Es	-0.215871	-1.065261	-0.111399	99
Es	-0.850166	-1.088165	-0.199445	99
Es	2.009765	-0.120232	-0.947424	99
Es	0.115043	0.844567	1.627755	99
37
Properties=species:S:1:pos:R:3:Z:I:1 energy=-212.39231874584624 field_type=dipole dipole="0.000000 0.000000 0.000000" charge=0
C	-1.662444	-1.162657	-0.260702	6
N	-0.215734	-1.065468	-0.110872	7
C	0.278386	0.314842	-0.217022	6
C	-0.115534	1.160443	0.995888	6
C	1.804656	0.273452	-0.340522	6
H	-1.954224	-2.217328	-0.248942	1
H	-1.999004	-0.734148	-1.209522	1
H	-2.190964	-0.676608	0.564168	1
H	0.222236	-1.634078	-0.835892	1
H	-0.116394	0.782852	-1.128352	1
H	0.219506	0.698382	1.930448	1
H	-1.198534	1.302542	1.054668	1
H	0.337546	2.155813	0.934078	1
H	2.266386	-0.187918	0.539078	1
H	2.211026	1.285293	-0.442412	1
H	2.113096	-0.295418	-1.224092	1
Es	2.009780	-0.120180	-0.947434	99
Es	0.000508	0.644457	-0.849369	99
Es	-0.215910	-1.065241	-0.111424	99
Es	-0.115537	1.160446	0.995866	99
Es	-0.120603	-1.192464	0.202813	99
Es	0.038818	-1.393675	-0.571743	99
Es	0.195911	1.838328	0.945736	99
Es	-2.020082	-0.823362	0.299185	99
Es	-0.022578	-0.462708	-0.181961	99
Es	-1.860726	-1.883506	-0.257707	99
Es	-0.855940	1.254219	1.033083	99
Es	0.072105	0.736798	0.397333	99
Es	0.278377	0.314729	-0.216972	99
Es	2.114978	-0.039194	0.258636	99
Es	1.804647	0.273458	-0.340536	99
Es	-0.850251	-1.088313	-0.199064	99
Es	-1.662320	-1.162651	-0.260691	99
Es	0.115034	0.844591	1.627757	99
Es	2.077700	0.966444	-0.411338	99
Es	-1.897747	-0.859939	-0.917382	99
Es	1.050745	0.291673	-0.277808	99
37
Properties=species:S:1:pos:R:3:Z:I:1 energy=-212.39231874584624 field_type=dipole dipole="0.000000 0.000000 0.000000" charge=0
C	-1.662444	-1.162657	-0.260702	6
N	-0.215734	-1.065468	-0.110872	7
C	0.278386	0.314842	-0.217022	6
C	-0.115534	1.160443	0.995888	6
C	1.804656	0.273452	-0.340522	6
H	-1.954224	-2.217328	-0.248942	1
H	-1.999004	-0.734148	-1.209522	1
H	-2.190964	-0.676608	0.564168	1
H	0.222236	-1.634078	-0.835892	1
H	-0.116394	0.782852	-1.128352	1
H	0.219506	0.698382	1.930448	1
H	-1.198534	1.302542	1.054668	1
H	0.337546	2.155813	0.934078	1
H	2.266386	-0.187918	0.539078	1
H	2.211026	1.285293	-0.442412	1
H	2.113096	-0.295418	-1.224092	1
Es	-0.215910	-1.065232	-0.111427	99
Es	0.195924	1.838293	0.945743	99
Es	0.278378	0.314731	-0.216973	99
Es	-0.120537	-1.192457	0.202703	99
Es	1.050681	0.291723	-0.277908	99
Es	-1.662320	-1.162651	-0.260691	99
Es	-0.022500	-0.462754	-0.181907	99
Es	-0.855913	1.254274	1.033100	99
Es	0.000475	0.644397	-0.849311	99
Es	0.072106	0.736839	0.397289	99
Es	-2.020145	-0.823433	0.299170	99
Es	1.804647	0.273457	-0.340536	99
Es	-1.897772	-0.859954	-0.917334	99
Es	2.009793	-0.120130	-0.947422	99
Es	2.077699	0.966406	-0.411336	99
Es	0.115023	0.844585	1.627767	99
Es	-0.850291	-1.088299	-0.198964	99
Es	2.115019	-0.039207	0.258626	99
Es	-1.860712	-1.883469	-0.257759	99
Es	0.038805	-1.393659	-0.571721	99
Es	-0.115538	1.160451	0.995872	99
37
Properties=species:S:1:pos:R:3:Z:I:1 energy=-212.39231874584624 field_type=dipole dipole="0.000000 0.000000 0.000000" charge=0
C	-1.662444	-1.162657	-0.260702	6
N	-0.215734	-1.065468	-0.110872	7
C	0.278386	0.314842	-0.217022	6
C	-0.115534	1.160443	0.995888	6
C	1.804656	0.273452	-0.340522	6
H	-1.954224	-2.217328	-0.248942	1
H	-1.999004	-0.734148	-1.209522	1
H	-2.190964	-0.676608	0.564168	1
H	0.222236	-1.634078	-0.835892	1
H	-0.116394	0.782852	-1.128352	1
H	0.219506	0.698382	1.930448	1
H	-1.198534	1.302542	1.054668	1
H	0.337546	2.155813	0.934078	1
H	2.266386	-0.187918	0.539078	1
H	2.211026	1.285293	-0.442412	1
H	2.113096	-0.295418	-1.224092	1
Es	-2.020122	-0.823420	0.299127	99
Es	1.804648	0.273458	-0.340536	99
Es	-0.855896	1.254242	1.033130	99
Es	1.050695	0.291710	-0.277874	99
Es	-0.022540	-0.462701	-0.182042	99
Es	-0.120618	-1.192334	0.202659	99
Es	-1.662324	-1.162652	-0.260692	99
Es	0.000507	0.644416	-0.849262	99
Es	-0.215891	-1.065234	-0.111421	99
Es	0.038899	-1.393738	-0.571574	99
Es	-0.850281	-1.088375	-0.199016	99
Es	-1.860761	-1.883461	-0.257723	99
Es	2.077736	0.966392	-0.411326	99
Es	0.278378	0.314732	-0.216972	99
Es	2.115014	-0.039194	0.258578	99
Es	2.009811	-0.120135	-0.947402	99
Es	0.115011	0.844644	1.627747	99
Es	0.072083	0.736763	0.397266	99
Es	-1.897786	-0.859965	-0.917315	99
Es	0.195884	1.838318	0.945762	99
Es	-0.115537	1.160446	0.995867	99
37
Properties=species:S:1:pos:R:3:Z:I:1 energy=-212.39231874584624 field_type=dipole dipole="0.000000 0.000000 0.000000" charge=0
C	-1.662444	-1.162657	-0.260702	6
N	-0.215734	-1.065468	-0.110872	7
C	0.278386	0.314842	-0.217022	6
C	-0.115534	1.160443	0.995888	6
C	1.804656	0.273452	-0.340522	6
H	-1.954224	-2.217328	-0.248942	1
H	-1.999004	-0.734148	-1.209522	1
H	-2.190964	-0.676608	0.564168	1
H	0.222236	-1.634078	-0.835892	1
H	-0.116394	0.782852	-1.128352	1
H	0.219506	0.698382	1.930448	1
H	-1.198534	1.302542	1.054668	1
H	0.337546	2.155813	0.934078	1
H	2.266386	-0.187918	0.539078	1
H	2.211026	1.285293	-0.442412	1
H	2.113096	-0.295418	-1.224092	1
Es	-0.855873	1.254252	1.033154	99
Es	0.072066	0.736753	0.397227	99
Es	-0.022475	-0.462708	-0.182008	99
Es	-1.860778	-1.883458	-0.257726	99
Es	2.077751	0.966377	-0.411324	99
Es	0.038889	-1.393688	-0.571520	99
Es	-1.662322	-1.162652	-0.260691	99
Es	-2.020124	-0.823430	0.299105	99
Es	0.278378	0.314731	-0.216973	99
Es	0.195870	1.838313	0.945780	99
Es	0.000516	0.644396	-0.849217	99
Es	-0.850290	-1.088333	-0.199126	99
Es	-0.115537	1.160446	0.995867	99
Es	-0.120638	-1.192398	0.202622	99
Es	0.115002	0.844657	1.627746	99
Es	1.050665	0.291717	-0.277899	99
Es	-1.897805	-0.859970	-0.917289	99
Es	2.115027	-0.039182	0.258555	99
Es	1.804648	0.273458	-0.340536	99
Es	-0.215891	-1.065250	-0.111384	99
Es	2.009830	-0.120122	-0.947383	99
37
Properties=species:S:1:pos:R:3:Z:I:1 energy=-212.39231874584624 field_type=dipole dipole="0.000000 0.000000 0.000000" charge=0
C	-1.662444	-1.162657	-0.260702	6
N	-0.215734	-1.065468	-0.110872	7
C	0.278386	0.314842	-0.217022	6
C	-0.115534	1.160443	0.995888	6
C	1.804656	0.273452	-0.340522	6
H	-1.954224	-2.217328	-0.248942	1
H	-1.999004	-0.734148	-1.209522	1
H	-2.190964	-0.676608	0.564168	1
H	0.222236	-1.634078	-0.835892	1
H	-0.116394	0.782852	-1.128352	1
H	0.219506	0.698382	1.930448	1
H	-1.198534	1.302542	1.054668	1
H	0.337546	2.155813	0.934078	1
H	2.266386	-0.187918	0.539078	1
H	2.211026	1.285293	-0.442412	1
H	2.113096	-0.295418	-1.224092	1
Es	0.278378	0.314732	-0.216973	99
Es	-1.897777	-0.859974	-0.917271	99
Es	0.000514	0.644392	-0.849176	99
Es	-1.860808	-1.883450	-0.257744	99
Es	-0.115537	1.160446	0.995868	99
Es	-0.855884	1.254213	1.033211	99
Es	-0.850415	-1.088434	-0.198548	99
Es	0.115060	0.844716	1.627727	99
Es	-0.120078	-1.192437	0.202525	99
Es	-0.022480	-0.462745	-0.182284	99
Es	1.050663	0.291748	-0.278015	99
Es	1.804649	0.273457	-0.340535	99
Es	-2.020172	-0.823457	0.299037	99
Es	2.009909	-0.120151	-0.947371	99
Es	-1.662321	-1.162652	-0.260691	99
Es	0.072077	0.736736	0.397230	99
Es	0.195822	1.838319	0.945751	99
Es	2.114937	-0.039162	0.258585	99
Es	-0.215917	-1.065228	-0.111440	99
Es	0.038522	-1.393520	-0.571618	99
Es	2.077769	0.966363	-0.411286	99
37
Properties=species:S:1:pos:R:3:Z:I:1 energy=-212.39231874584624 field_type=dipole dipole="0.000000 0.000000 0.000000" charge=0
C	-1.662444	-1.162657	-0.260702	6
N	-0.215734	-1.065468	-0.110872	7
C	0.278386	0.314842	-0.217022	6
C	-0.115534	1.160443	0.995888	6
C	1.804656	0.273452	-0.340522	6
H	-1.954224	-2.217328	-0.248942	1
H	-1.999004	-0.734148	-1.209522	1
H	-2.190964	-0.676608	0.564168	1
H	0.222236	-1.634078	-0.835892	1
H	-0.116394	0.782852	-1.128352	1
H	0.219506	0.698382	1.930448	1
H	-1.198534	1.302542	1.054668	1
H	0.337546	2.155813	0.934078	1
H	2.266386	-0.187918	0.539078	1
H	2.211026	1.285293	-0.442412	1
H	2.113096	-0.295418	-1.224092	1
Es	-1.662323	-1.162652	-0.260691	99
Es	-0.121081	-1.191875	0.201789	99
Es	-1.897824	-0.859981	-0.917230	99
Es	0.039280	-1.394215	-0.571161	99
Es	-0.215897	-1.065255	-0.111389	99
Es	0.000537	0.644357	-0.849135	99
Es	2.115065	-0.039144	0.258497	99
Es	2.077783	0.966300	-0.411322	99
Es	-0.855829	1.254273	1.033197	99
Es	0.195851	1.838307	0.945809	99
Es	1.804648	0.273458	-0.340536	99
Es	0.072030	0.736733	0.397159	99
Es	0.278379	0.314732	-0.216973	99
Es	2.009888	-0.120090	-0.947341	99
Es	-1.860840	-1.883422	-0.257734	99
Es	0.114979	0.844694	1.627739	99
Es	-0.022295	-0.462512	-0.181763	99
Es	1.050593	0.291720	-0.277937	99
Es	-2.020140	-0.823456	0.299047	99
Es	-0.115537	1.160446	0.995867	99
Es	-0.850357	-1.088507	-0.198912	99
37
Properties=species:S:1:pos:R:3:Z:I:1 energy=-212.39231874584624 field_type=dipole dipole="0.000000 0.000000 0.000000" charge=0
C	-1.662444	-1.162657	-0.260702	6
N	-0.215734	-1.065468	-0.110872	7
C	0.278386	0.314842	-0.217022	6
C	-0.115534	1.160443	0.995888	6
C	1.804656	0.273452	-0.340522	6
H	-1.954224	-2.217328	-0.248942	1
H	-1.999004	-0.734148	-1.209522	1
H	-2.190964	-0.676608	0.564168	1
H	0.222236	-1.634078	-0.835892	1
H	-0.116394	0.782852	-1.128352	1
H	0.219506	0.698382	1.930448	1
H	-1.198534	1.302542	1.054668	1
H	0.337546	2.155813	0.934078	1
H	2.266386	-0.187918	0.539078	1
H	2.211026	1.285293	-0.442412	1
H	2.113096	-0.295418	-1.224092	1
Es	2.077781	0.966330	-0.411330	99
Es	0.039108	-1.394036	-0.571186	99
Es	1.804648	0.273458	-0.340536	99
Es	2.115056	-0.039134	0.258488	99
Es	-1.662323	-1.162652	-0.260691	99
Es	0.278379	0.314733	-0.216973	99
Es	-0.022450	-0.462624	-0.182135	99
Es	-2.020123	-0.823457	0.299019	99
Es	0.000558	0.644349	-0.849098	99
Es	-0.215906	-1.065247	-0.111392	99
Es	-0.855815	1.254292	1.033223	99
Es	0.114965	0.844712	1.627725	99
Es	2.009898	-0.120100	-0.947318	99
Es	1.050595	0.291709	-0.277955	99
Es	-0.850232	-1.088404	-0.199131	99
Es	-0.120869	-1.192049	0.202377	99
Es	0.195851	1.838298	0.945830	99
Es	-1.860852	-1.883452	-0.257724	99
Es	0.072014	0.736717	0.397128	99
Es	-1.897837	-0.859978	-0.917205	99
Es	-0.115537	1.160446	0.995867	99
37
Properties=species:S:1:pos:R:3:Z:I:1 energy=-212.39231874584624 field_type=dipole dipole="0.000000 0.000000 0.000000" charge=0
C	-1.662444	-1.162657	-0.260702	6
N	-0.215734	-1.065468	-0.110872	7
C	0.278386	0.314842	-0.217022	6
C	-0.115534	1.160443	0.995888	6
C	1.804656	0.273452	-0.340522	6
H	-1.954224	-2.217328	-0.248942	1
H	-1.999004	-0.734148	-1.209522	1
H	-2.190964	-0.676608	0.564168	1
H	0.222236	-1.634078	-0.835892	1
H	-0.116394	0.782852	-1.128352	1
H	0.219506	0.698382	1.930448	1
H	-1.198534	1.302542	1.054668	1
H	0.337546	2.155813	0.934078	1
H	2.266386	-0.187918	0.539078	1
H	2.211026	1.285293	-0.442412	1
H	2.113096	-0.295418	-1.224092	1
Es	-0.121003	-1.192016	0.202236	99
Es	-1.897820	-0.860023	-0.917157	99
Es	0.071856	0.736689	0.397119	99
Es	-0.115537	1.160448	0.995867	99
Es	-2.020176	-0.823434	0.299035	99
Es	1.804648	0.273457	-0.340536	99
Es	2.077838	0.966303	-0.411274	99
Es	-0.855718	1.254338	1.033262	99
Es	-1.662320	-1.162652	-0.260692	99
Es	1.050532	0.291684	-0.277962	99
Es	0.000557	0.644297	-0.849093	99
Es	2.009910	-0.120006	-0.947295	99
Es	0.114950	0.844693	1.627761	99
Es	-0.022353	-0.462556	-0.182017	99
Es	-1.860856	-1.883424	-0.257766	99
Es	-0.215901	-1.065263	-0.111378	99
Es	-0.850244	-1.088414	-0.199252	99
Es	0.195887	1.838323	0.945773	99
Es	2.115088	-0.039196	0.258395	99
Es	0.039192	-1.394071	-0.571073	99
Es	0.278379	0.314734	-0.216973	99
37
Properties=species:S:1:pos:R:3:Z:I:1 energy=-212.39231874584624 field_type=dipole dipole="0.000000 0.000000 0.000000" charge=0
C	-1.662444	-1.162657	-0.260702	6
N	-0.215734	-1.065468	-0.110872	7
C	0.278386	0.314842	-0.217022	6
C	-0.115534	1.160443	0.995888	6
C	1.804656	0.273452	-0.340522	6
H	-1.954224	-2.217328	-0.248942	1
H	-1.999004	-0.734148	-1.209522	1
H	-2.190964	-0.676608	0.564168	1
H	0.222236	-1.634078	-0.835892	1
H	-0.116394	0.782852	-1.128352	1
H	0.219506	0.698382	1.930448	1
H	-1.198534	1.302542	1.054668	1
H	0.337546	2.155813	0.934078	1
H	2.266386	-0.187918	0.539078	1
H	2.211026	1.285293	-0.442412	1
H	2.113096	-0.295418	-1.224092	1
Es	-0.215914	-1.065237	-0.111409	99
Es	-2.020170	-0.823498	0.298980	99
Es	-1.662324	-1.162652	-0.260691	99
Es	-0.115537	1.160446	0.995867	99
Es	1.804648	0.273458	-0.340536	99
Es	-0.855771	1.254297	1.033261	99
Es	0.039113	-1.393928	-0.571169	99
Es	-1.897879	-0.860024	-0.917147	99
Es	-0.120947	-1.192224	0.202707	99
Es	0.114942	0.844749	1.627714	99
Es	1.050540	0.291728	-0.277999	99
Es	0.071977	0.736692	0.397070	99
Es	2.009942	-0.120060	-0.947289	99
Es	2.115093	-0.039118	0.258438	99
Es	0.278380	0.314734	-0.216973	99
Es	-1.860875	-1.883391	-0.257738	99
Es	-0.022544	-0.462649	-0.182185	99
Es	-0.849983	-1.088293	-0.199452	99
Es	0.195831	1.838307	0.945853	99
Es	0.000580	0.644312	-0.849002	99
Es	2.077809	0.966263	-0.411318	99
