38
Properties=species:S:1:pos:R:3:Z:I:1 energy=-196.40193774007383 field_type=dipole dipole="0.000000 0.000000 0.000000" charge=0
C	-1.729139	-1.113072	-0.273524	6
C	-0.211139	-1.018732	-0.213534	6
C	0.318261	0.424278	-0.270774	6
C	-0.130629	1.257778	0.930316	6
C	1.846721	0.413988	-0.350404	6
H	-2.037509	-2.162112	-0.334314	1
H	-2.121289	-0.593812	-1.153903	1
H	-2.194659	-0.684672	0.619046	1
H	0.198701	-1.584893	-1.059134	1
H	0.142681	-1.514722	0.698466	1
H	-0.062059	0.903297	-1.181834	1
H	0.171491	0.790097	1.873576	1
H	-1.217479	1.383398	0.944166	1
H	0.310581	2.260007	0.894146	1
H	2.288391	-0.050542	0.538046	1
H	2.239801	1.433278	-0.430784	1
H	2.187281	-0.143562	-1.229563	1
Es	1.092741	0.417455	-0.307406	99
Es	0.318284	0.424269	-0.270734	99
Es	-0.977992	-1.057562	-0.240433	99
Es	0.071576	-1.404686	-0.797296	99
Es	2.113660	1.113063	-0.403957	99
Es	-1.938472	-1.830418	-0.315398	99
Es	2.144056	0.095296	0.259929	99
Es	1.846716	0.413988	-0.350405	99
Es	-1.729120	-1.113073	-0.273524	99
Es	-2.045005	-0.817495	0.336139	99
Es	0.088490	0.840493	0.340591	99
Es	-0.211176	-1.018715	-0.213536	99
Es	-0.130626	1.257770	0.930311	99
Es	0.033153	-1.354305	0.416600	99
Es	-1.994241	-0.755108	-0.876254	99
Es	-0.873584	1.340477	0.939293	99
Es	2.077620	0.030412	-0.952324	99
Es	0.173911	1.941370	0.902464	99
Es	0.078402	0.933051	1.573172	99
Es	0.046213	-0.297126	-0.234719	99
Es	0.053772	0.752446	-0.898631	99
38
Properties=species:S:1:pos:R:3:Z:I:1 energy=-196.40193774007383 field_type=dipole dipole="0.000000 0.000000 0.000000" charge=0
C	-1.729139	-1.113072	-0.273524	6
C	-0.211139	-1.018732	-0.213534	6
C	0.318261	0.424278	-0.270774	6
C	-0.130629	1.257778	0.930316	6
C	1.846721	0.413988	-0.350404	6
H	-2.037509	-2.162112	-0.334314	1
H	-2.121289	-0.593812	-1.153903	1
H	-2.194659	-0.684672	0.619046	1
H	0.198701	-1.584893	-1.059134	1
H	0.142681	-1.514722	0.698466	1
H	-0.062059	0.903297	-1.181834	1
H	0.171491	0.790097	1.873576	1
H	-1.217479	1.383398	0.944166	1
H	0.310581	2.260007	0.894146	1
H	2.288391	-0.050542	0.538046	1
H	2.239801	1.433278	-0.430784	1
H	2.187281	-0.143562	-1.229563	1
Es	0.078354	0.932928	1.573196	99
Es	0.046221	-0.297066	-0.234775	99
Es	-0.130628	1.257774	0.930309	99
Es	0.033067	-1.354231	0.416547	99
Es	0.088416	0.840642	0.340507	99
Es	2.144046	0.095344	0.259911	99
Es	0.053860	0.752402	-0.898586	99
Es	0.071666	-1.404749	-0.797125	99
Es	0.173890	1.941420	0.902541	99
Es	-0.978010	-1.057487	-0.240528	99
Es	-2.045117	-0.817504	0.336105	99
Es	1.846716	0.413987	-0.350406	99
Es	-1.994320	-0.755261	-0.876274	99
Es	-1.729121	-1.113072	-0.273524	99
Es	1.092797	0.417334	-0.307389	99
Es	2.113597	1.113093	-0.403921	99
Es	-0.873495	1.340466	0.939248	99
Es	-1.938359	-1.830379	-0.315339	99
Es	2.077688	0.030409	-0.952345	99
Es	-0.211176	-1.018715	-0.213536	99
Es	0.318286	0.424270	-0.270735	99
38
Properties=species:S:1:pos:R:3:Z:I:1 energy=-196.40193774007383 field_type=dipole dipole="0.000000 0.000000 0.000000" charge=0
C	-1.729139	-1.113072	-0.273524	6
C	-0.211139	-1.018732	-0.213534	6
C	0.318261	0.424278	-0.270774	6
C	-0.130629	1.257778	0.930316	6
C	1.846721	0.413988	-0.350404	6
H	-2.037509	-2.162112	-0.334314	1
H	-2.121289	-0.593812	-1.153903	1
H	-2.194659	-0.684672	0.619046	1
H	0.198701	-1.584893	-1.059134	1
H	0.142681	-1.514722	0.698466	1
H	-0.062059	0.903297	-1.181834	1
H	0.171491	0.790097	1.873576	1
H	-1.217479	1.383398	0.944166	1
H	0.310581	2.260007	0.894146	1
H	2.288391	-0.050542	0.538046	1
H	2.239801	1.433278	-0.430784	1
H	2.187281	-0.143562	-1.229563	1
Es	2.113735	1.112975	-0.403883	99
Es	0.078378	0.933152	1.573095	99
Es	-1.994276	-0.755285	-0.876214	99
Es	-0.211177	-1.018715	-0.213535	99
Es	0.033067	-1.354325	0.416468	99
Es	0.318286	0.424269	-0.270735	99
Es	-2.045106	-0.817436	0.336136	99
Es	1.846716	0.413988	-0.350405	99
Es	2.144074	0.095275	0.259841	99
Es	0.173861	1.941369	0.902543	99
Es	-0.130629	1.257773	0.930308	99
Es	-1.938500	-1.830284	-0.315366	99
Es	0.046176	-0.296990	-0.234699	99
Es	0.071705	-1.404626	-0.797080	99
Es	-0.873497	1.340506	0.939471	99
Es	0.088371	0.840496	0.340378	99
Es	0.053878	0.752313	-0.898489	99
Es	-1.729122	-1.113073	-0.273524	99
Es	2.077663	0.030481	-0.952320	99
Es	-0.977951	-1.057729	-0.240657	99
Es	1.092724	0.417469	-0.307451	99
38
Properties=species:S:1:pos:R:3:Z:I:1 energy=-196.40193774007383 field_type=dipole dipole="0.000000 0.000000 0.000000" charge=0
C	-1.729139	-1.113072	-0.273524	6
C	-0.211139	-1.018732	-0.213534	6
C	0.318261	0.424278	-0.270774	6
C	-0.130629	1.257778	0.930316	6
C	1.846721	0.413988	-0.350404	6
H	-2.037509	-2.162112	-0.334314	1
H	-2.121289	-0.593812	-1.153903	1
H	-2.194659	-0.684672	0.619046	1
H	0.198701	-1.584893	-1.059134	1
H	0.142681	-1.514722	0.698466	1
H	-0.062059	0.903297	-1.181834	1
H	0.171491	0.790097	1.873576	1
H	-1.217479	1.383398	0.944166	1
H	0.310581	2.260007	0.894146	1
H	2.288391	-0.050542	0.538046	1
H	2.239801	1.433278	-0.430784	1
H	2.187281	-0.143562	-1.229563	1
Es	0.088369	0.840473	0.340351	99
Es	-2.045091	-0.817492	0.336014	99
Es	-1.729121	-1.113075	-0.273525	99
Es	-0.977951	-1.057558	-0.240528	99
Es	0.071649	-1.404711	-0.797059	99
Es	0.046230	-0.297055	-0.234834	99
Es	-1.994292	-0.755232	-0.876116	99
Es	-0.873466	1.340505	0.939389	99
Es	0.173835	1.941373	0.902563	99
Es	0.033104	-1.354252	0.416456	99
Es	-1.938553	-1.830385	-0.315391	99
Es	2.113751	1.113003	-0.403928	99
Es	-0.211177	-1.018716	-0.213536	99
Es	2.144073	0.095367	0.259788	99
Es	-0.130627	1.257773	0.930308	99
Es	0.318282	0.424271	-0.270734	99
Es	1.092705	0.417442	-0.307366	99
Es	1.846721	0.413989	-0.350406	99
Es	0.078326	0.933137	1.573151	99
Es	0.053914	0.752334	-0.898465	99
Es	2.077698	0.030413	-0.952252	99
38
Properties=species:S:1:pos:R:3:Z:I:1 energy=-196.40193774007383 field_type=dipole dipole="0.000000 0.000000 0.000000" charge=0
C	-1.729139	-1.113072	-0.273524	6
C	-0.211139	-1.018732	-0.213534	6
C	0.318261	0.424278	-0.270774	6
C	-0.130629	1.257778	0.930316	6
C	1.846721	0.413988	-0.350404	6
H	-2.037509	-2.162112	-0.334314	1
H	-2.121289	-0.593812	-1.153903	1
H	-2.194659	-0.684672	0.619046	1
H	0.198701	-1.584893	-1.059134	1
H	0.142681	-1.514722	0.698466	1
H	-0.062059	0.903297	-1.181834	1
H	0.171491	0.790097	1.873576	1
H	-1.217479	1.383398	0.944166	1
H	0.310581	2.260007	0.894146	1
H	2.288391	-0.050542	0.538046	1
H	2.239801	1.433278	-0.430784	1
H	2.187281	-0.143562	-1.229563	1
Es	0.078313	0.933159	1.573167	99
Es	-1.938535	-1.830265	-0.315412	99
Es	0.088368	0.840471	0.340288	99
Es	2.113838	1.112942	-0.403999	99
Es	0.046256	-0.297016	-0.234821	99
Es	0.053921	0.752309	-0.898436	99
Es	2.077649	0.030458	-0.952162	99
Es	0.318284	0.424269	-0.270734	99
Es	-1.729121	-1.113072	-0.273524	99
Es	0.173827	1.941285	0.902603	99
Es	0.071701	-1.404743	-0.797013	99
Es	-0.977951	-1.057681	-0.240473	99
Es	-0.211174	-1.018716	-0.213536	99
Es	1.846716	0.413989	-0.350405	99
Es	-0.873455	1.340598	0.939416	99
Es	1.092616	0.417499	-0.307420	99
Es	-0.130628	1.257773	0.930310	99
Es	-1.994319	-0.755195	-0.876175	99
Es	2.144130	0.095330	0.259787	99
Es	-2.045126	-0.817582	0.336041	99
Es	0.033066	-1.354209	0.416381	99
38
Properties=species:S:1:pos:R:3:Z:I:1 energy=-196.40193774007383 field_type=dipole dipole="0.000000 0.000000 0.000000" charge=0
C	-1.729139	-1.113072	-0.273524	6
C	-0.211139	-1.018732	-0.213534	6
C	0.318261	0.424278	-0.270774	6
C	-0.130629	1.257778	0.930316	6
C	1.846721	0.413988	-0.350404	6
H	-2.037509	-2.162112	-0.334314	1
H	-2.121289	-0.593812	-1.153903	1
H	-2.194659	-0.684672	0.619046	1
H	0.198701	-1.584893	-1.059134	1
H	0.142681	-1.514722	0.698466	1
H	-0.062059	0.903297	-1.181834	1
H	0.171491	0.790097	1.873576	1
H	-1.217479	1.383398	0.944166	1
H	0.310581	2.260007	0.894146	1
H	2.288391	-0.050542	0.538046	1
H	2.239801	1.433278	-0.430784	1
H	2.187281	-0.143562	-1.229563	1
Es	-1.938575	-1.830253	-0.315389	99
Es	0.046246	-0.297013	-0.234826	99
Es	2.144140	0.095371	0.259781	99
Es	2.113782	1.112915	-0.403956	99
Es	1.846714	0.413988	-0.350404	99
Es	-0.977910	-1.057706	-0.240488	99
Es	0.071689	-1.404703	-0.796979	99
Es	-0.130629	1.257773	0.930308	99
Es	1.092604	0.417481	-0.307463	99
Es	-1.729122	-1.113073	-0.273524	99
Es	-2.045110	-0.817592	0.335995	99
Es	-1.994355	-0.755208	-0.876143	99
Es	0.053926	0.752267	-0.898397	99
Es	-0.211176	-1.018716	-0.213538	99
Es	0.078277	0.933174	1.573166	99
Es	-0.873404	1.340588	0.939433	99
Es	0.088366	0.840479	0.340255	99
Es	0.173809	1.941314	0.902623	99
Es	0.318283	0.424270	-0.270735	99
Es	2.077722	0.030472	-0.952203	99
Es	0.033100	-1.354226	0.416365	99
38
Properties=species:S:1:pos:R:3:Z:I:1 energy=-196.40193774007383 field_type=dipole dipole="0.000000 0.000000 0.000000" charge=0
C	-1.729139	-1.113072	-0.273524	6
C	-0.211139	-1.018732	-0.213534	6
C	0.318261	0.424278	-0.270774	6
C	-0.130629	1.257778	0.930316	6
C	1.846721	0.413988	-0.350404	6
H	-2.037509	-2.162112	-0.334314	1
H	-2.121289	-0.593812	-1.153903	1
H	-2.194659	-0.684672	0.619046	1
H	0.198701	-1.584893	-1.059134	1
H	0.142681	-1.514722	0.698466	1
H	-0.062059	0.903297	-1.181834	1
H	0.171491	0.790097	1.873576	1
H	-1.217479	1.383398	0.944166	1
H	0.310581	2.260007	0.894146	1
H	2.288391	-0.050542	0.538046	1
H	2.239801	1.433278	-0.430784	1
H	2.187281	-0.143562	-1.229563	1
Es	0.046283	-0.296992	-0.234877	99
Es	-0.977860	-1.057696	-0.240469	99
Es	-2.045151	-0.817608	0.335942	99
Es	0.088360	0.840465	0.340224	99
Es	0.071676	-1.404713	-0.796932	99
Es	0.053951	0.752253	-0.898342	99
Es	-1.994358	-0.755228	-0.876107	99
Es	-0.211176	-1.018716	-0.213536	99
Es	2.144151	0.095388	0.259751	99
Es	-0.873391	1.340599	0.939458	99
Es	0.033088	-1.354236	0.416328	99
Es	0.318284	0.424268	-0.270736	99
Es	1.092562	0.417471	-0.307490	99
Es	1.846716	0.413989	-0.350404	99
Es	2.077757	0.030492	-0.952174	99
Es	0.078263	0.933202	1.573153	99
Es	2.113800	1.112882	-0.403946	99
Es	-1.729122	-1.113073	-0.273524	99
Es	-1.938619	-1.830219	-0.315400	99
Es	0.173792	1.941303	0.902656	99
Es	-0.130628	1.257773	0.930309	99
38
Properties=species:S:1:pos:R:3:Z:I:1 energy=-196.40193774007383 field_type=dipole dipole="0.000000 0.000000 0.000000" charge=0
C	-1.729139	-1.113072	-0.273524	6
C	-0.211139	-1.018732	-0.213534	6
C	0.318261	0.424278	-0.270774	6
C	-0.130629	1.257778	0.930316	6
C	1.846721	0.413988	-0.350404	6
H	-2.037509	-2.162112	-0.334314	1
H	-2.121289	-0.593812	-1.153903	1
H	-2.194659	-0.684672	0.619046	1
H	0.198701	-1.584893	-1.059134	1
H	0.142681	-1.514722	0.698466	1
H	-0.062059	0.903297	-1.181834	1
H	0.171491	0.790097	1.873576	1
H	-1.217479	1.383398	0.944166	1
H	0.310581	2.260007	0.894146	1
H	2.288391	-0.050542	0.538046	1
H	2.239801	1.433278	-0.430784	1
H	2.187281	-0.143562	-1.229563	1
Es	2.113781	1.112849	-0.403772	99
Es	-0.211175	-1.018716	-0.213536	99
Es	-1.938677	-1.830188	-0.315323	99
Es	-0.130628	1.257773	0.930309	99
Es	2.144268	0.095226	0.259611	99
Es	-0.873369	1.340672	0.939529	99
Es	0.318284	0.424270	-0.270735	99
Es	0.071645	-1.404692	-0.796903	99
Es	-0.977856	-1.057814	-0.240373	99
Es	0.033173	-1.354216	0.416293	99
Es	0.078260	0.933199	1.573123	99
Es	0.088210	0.840431	0.340149	99
Es	-1.729122	-1.113073	-0.273524	99
Es	1.092535	0.417456	-0.307302	99
Es	0.173830	1.941269	0.902677	99
Es	-2.045210	-0.817481	0.335875	99
Es	-1.994276	-0.755336	-0.876159	99
Es	0.046239	-0.296965	-0.234997	99
Es	0.054046	0.752251	-0.898338	99
Es	2.077706	0.030701	-0.952315	99
Es	1.846717	0.413988	-0.350405	99
38
Properties=species:S:1:pos:R:3:Z:I:1 energy=-196.40193774007383 field_type=dipole dipole="0.000000 0.000000 0.000000" charge=0
C	-1.729139	-1.113072	-0.273524	6
C	-0.211139	-1.018732	-0.213534	6
C	0.318261	0.424278	-0.270774	6
C	-0.130629	1.257778	0.930316	6
C	1.846721	0.413988	-0.350404	6
H	-2.037509	-2.162112	-0.334314	1
H	-2.121289	-0.593812	-1.153903	1
H	-2.194659	-0.684672	0.619046	1
H	0.198701	-1.584893	-1.059134	1
H	0.142681	-1.514722	0.698466	1
H	-0.062059	0.903297	-1.181834	1
H	0.171491	0.790097	1.873576	1
H	-1.217479	1.383398	0.944166	1
H	0.310581	2.260007	0.894146	1
H	2.288391	-0.050542	0.538046	1
H	2.239801	1.433278	-0.430784	1
H	2.187281	-0.143562	-1.229563	1
Es	1.846716	0.413988	-0.350403	99
Es	-1.994440	-0.755266	-0.876096	99
Es	-0.130628	1.257773	0.930309	99
Es	0.078187	0.933274	1.573187	99
Es	-0.211175	-1.018717	-0.213536	99
Es	2.113849	1.112776	-0.403990	99
Es	-1.729124	-1.113073	-0.273523	99
Es	2.077809	0.030497	-0.952101	99
Es	2.144184	0.095447	0.259743	99
Es	0.088463	0.840390	0.340196	99
Es	-1.938660	-1.830172	-0.315325	99
Es	0.173685	1.941367	0.902695	99
Es	0.071700	-1.404746	-0.796878	99
Es	0.318284	0.424269	-0.270735	99
Es	-0.873277	1.340538	0.939455	99
Es	-0.977818	-1.057703	-0.240436	99
Es	-2.045139	-0.817636	0.335850	99
Es	0.046405	-0.296918	-0.234791	99
Es	0.033018	-1.354237	0.416163	99
Es	1.092450	0.417520	-0.307613	99
Es	0.053888	0.752231	-0.898288	99
38
Properties=species:S:1:pos:R:3:Z:I:1 energy=-196.40193774007383 field_type=dipole dipole="0.000000 0.000000 0.000000" charge=0
C	-1.729139	-1.113072	-0.273524	6
C	-0.211139	-1.018732	-0.213534	6
C	0.318261	0.424278	-0.270774	6
C	-0.130629	1.257778	0.930316	6
C	1.846721	0.413988	-0.350404	6
H	-2.037509	-2.162112	-0.334314	1
H	-2.121289	-0.593812	-1.153903	1
H	-2.194659	-0.684672	0.619046	1
H	0.198701	-1.584893	-1.059134	1
H	0.142681	-1.514722	0.698466	1
H	-0.062059	0.903297	-1.181834	1
H	0.171491	0.790097	1.873576	1
H	-1.217479	1.383398	0.944166	1
H	0.310581	2.260007	0.894146	1
H	2.288391	-0.050542	0.538046	1
H	2.239801	1.433278	-0.430784	1
H	2.187281	-0.143562	-1.229563	1
Es	0.318284	0.424270	-0.270735	99
Es	-1.994407	-0.755270	-0.876030	99
Es	0.078217	0.933280	1.573131	99
Es	2.077823	0.030528	-0.952105	99
Es	-0.130628	1.257773	0.930309	99
Es	2.144188	0.095428	0.259672	99
Es	0.173738	1.941282	0.902727	99
Es	-0.873317	1.340635	0.939540	99
Es	0.088337	0.840431	0.340094	99
Es	1.846717	0.413988	-0.350405	99
Es	-0.977805	-1.057743	-0.240443	99
Es	-0.211175	-1.018717	-0.213536	99
Es	-1.938685	-1.830164	-0.315399	99
Es	2.113861	1.112805	-0.403939	99
Es	0.046323	-0.296953	-0.234935	99
Es	-2.045197	-0.817655	0.335846	99
Es	-1.729122	-1.113073	-0.273524	99
Es	0.071684	-1.404709	-0.796807	99
Es	0.033102	-1.354213	0.416206	99
Es	0.053987	0.752183	-0.898230	99
Es	1.092453	0.417497	-0.307554	99
38
Properties=species:S:1:pos:R:3:Z:I:1 energy=-196.40193774007383 field_type=dipole dipole="0.000000 0.000000 0.000000" charge=0
C	-1.729139	-1.113072	-0.273524	6
C	-0.211139	-1.018732	-0.213534	6
C	0.318261	0.424278	-0.270774	6
C	-0.130629	1.257778	0.930316	6
C	1.846721	0.413988	-0.350404	6
H	-2.037509	-2.162112	-0.334314	1
H	-2.121289	-0.593812	-1.153903	1
H	-2.194659	-0.684672	0.619046	1
H	0.198701	-1.584893	-1.059134	1
H	0.142681	-1.514722	0.698466	1
H	-0.062059	0.903297	-1.181834	1
H	0.171491	0.790097	1.873576	1
H	-1.217479	1.383398	0.944166	1
H	0.310581	2.260007	0.894146	1
H	2.288391	-0.050542	0.538046	1
H	2.239801	1.433278	-0.430784	1
H	2.187281	-0.143562	-1.229563	1
Es	0.054005	0.752167	-0.898193	99
Es	-0.211175	-1.018716	-0.213536	99
Es	1.846717	0.413989	-0.350405	99
Es	0.046329	-0.296939	-0.234956	99
Es	-1.994420	-0.755282	-0.876006	99
Es	0.071690	-1.404704	-0.796771	99
Es	-1.729122	-1.113073	-0.273524	99
Es	2.144204	0.095437	0.259648	99
Es	-1.938710	-1.830143	-0.315399	99
Es	-0.130628	1.257773	0.930309	99
Es	0.173720	1.941275	0.902752	99
Es	-0.873293	1.340650	0.939565	99
Es	2.077839	0.030544	-0.952083	99
Es	0.033101	-1.354215	0.416176	99
Es	-0.977777	-1.057762	-0.240445	99
Es	0.318284	0.424270	-0.270734	99
Es	0.088329	0.840416	0.340054	99
Es	0.078198	0.933302	1.573127	99
Es	1.092417	0.417505	-0.307570	99
Es	2.113880	1.112777	-0.403939	99
Es	-2.045207	-0.817667	0.335812	99
38
Properties=species:S:1:pos:R:3:Z:I:1 energy=-196.40193774007383 field_type=dipole dipole="0.000000 0.000000 0.000000" charge=0
C	-1.729139	-1.113072	-0.273524	6
C	-0.211139	-1.018732	-0.213534	6
C	0.318261	0.424278	-0.270774	6
C	-0.130629	1.257778	0.930316	6
C	1.846721	0.413988	-0.350404	6
H	-2.037509	-2.162112	-0.334314	1
H	-2.121289	-0.593812	-1.153903	1
H	-2.194659	-0.684672	0.619046	1
H	0.198701	-1.584893	-1.059134	1
H	0.142681	-1.514722	0.698466	1
H	-0.062059	0.903297	-1.181834	1
H	0.171491	0.790097	1.873576	1
H	-1.217479	1.383398	0.944166	1
H	0.310581	2.260007	0.894146	1
H	2.288391	-0.050542	0.538046	1
H	2.239801	1.433278	-0.430784	1
H	2.187281	-0.143562	-1.229563	1
Es	-1.938721	-1.830156	-0.315421	99
Es	0.078127	0.933289	1.573167	99
Es	0.033151	-1.354239	0.416226	99
Es	2.144206	0.095447	0.259589	99
Es	2.113921	1.112738	-0.403905	99
Es	-1.994422	-0.755340	-0.875936	99
Es	0.071629	-1.404670	-0.796710	99
Es	0.318285	0.424270	-0.270735	99
Es	-1.729123	-1.113073	-0.273523	99
Es	-2.045246	-0.817645	0.335801	99
Es	2.077855	0.030550	-0.952088	99
Es	1.092382	0.417515	-0.307596	99
Es	-0.211171	-1.018723	-0.213542	99
Es	-0.873152	1.340666	0.939577	99
Es	0.054026	0.752207	-0.898088	99
Es	-0.130628	1.257772	0.930309	99
Es	0.046303	-0.296956	-0.235146	99
Es	-0.977745	-1.057696	-0.240506	99
Es	0.088248	0.840318	0.340085	99
Es	0.173738	1.941341	0.902729	99
Es	1.846718	0.413988	-0.350405	99
38
Properties=species:S:1:pos:R:3:Z:I:1 energy=-196.40193774007383 field_type=dipole dipole="0.000000 0.000000 0.000000" charge=0
C	-1.729139	-1.113072	-0.273524	6
C	-0.211139	-1.018732	-0.213534	6
C	0.318261	0.424278	-0.270774	6
C	-0.130629	1.257778	0.930316	6
C	1.846721	0.413988	-0.350404	6
H	-2.037509	-2.162112	-0.334314	1
H	-2.121289	-0.593812	-1.153903	1
H	-2.194659	-0.684672	0.619046	1
H	0.198701	-1.584893	-1.059134	1
H	0.142681	-1.514722	0.698466	1
H	-0.062059	0.903297	-1.181834	1
H	0.171491	0.790097	1.873576	1
H	-1.217479	1.383398	0.944166	1
H	0.310581	2.260007	0.894146	1
H	2.288391	-0.050542	0.538046	1
H	2.239801	1.433278	-0.430784	1
H	2.187281	-0.143562	-1.229563	1
Es	1.092360	0.417518	-0.307577	99
Es	-0.211175	-1.018717	-0.213536	99
Es	-0.977725	-1.057790	-0.240446	99
Es	0.033110	-1.354209	0.416135	99
Es	0.078172	0.933304	1.573162	99
Es	-1.729122	-1.113073	-0.273524	99
Es	2.077875	0.030586	-0.952031	99
Es	-2.045236	-0.817680	0.335784	99
Es	0.088302	0.840364	0.339944	99
Es	2.113911	1.112712	-0.403947	99
Es	0.071686	-1.404702	-0.796727	99
Es	-1.994440	-0.755314	-0.875960	99
Es	-0.130628	1.257774	0.930309	99
Es	2.144242	0.095452	0.259620	99
Es	0.318284	0.424270	-0.270736	99
Es	0.173682	1.941289	0.902762	99
Es	-0.873198	1.340665	0.939585	99
Es	0.053974	0.752165	-0.898187	99
Es	0.046330	-0.296888	-0.234936	99
Es	1.846717	0.413988	-0.350405	99
Es	-1.938743	-1.830109	-0.315408	99
38
Properties=species:S:1:pos:R:3:Z:I:1 energy=-196.40193774007383 field_type=dipole dipole="0.000000 0.000000 0.000000" charge=0
C	-1.729139	-1.113072	-0.273524	6
C	-0.211139	-1.018732	-0.213534	6
C	0.318261	0.424278	-0.270774	6
C	-0.130629	1.257778	0.930316	6
C	1.846721	0.413988	-0.350404	6
H	-2.037509	-2.162112	-0.334314	1
H	-2.121289	-0.593812	-1.153903	1
H	-2.194659	-0.684672	0.619046	1
H	0.198701	-1.584893	-1.059134	1
H	0.142681	-1.514722	0.698466	1
H	-0.062059	0.903297	-1.181834	1
H	0.171491	0.790097	1.873576	1
H	-1.217479	1.383398	0.944166	1
H	0.310581	2.260007	0.894146	1
H	2.288391	-0.050542	0.538046	1
H	2.239801	1.433278	-0.430784	1
H	2.187281	-0.143562	-1.229563	1
Es	1.846717	0.413988	-0.350405	99
Es	0.054029	0.752096	-0.898090	99
Es	0.046382	-0.296904	-0.234999	99
Es	-1.994463	-0.755315	-0.875935	99
Es	2.077894	0.030578	-0.952022	99
Es	-0.873220	1.340680	0.939635	99
Es	0.078155	0.933371	1.573108	99
Es	-0.211175	-1.018717	-0.213536	99
Es	-0.977730	-1.057801	-0.240425	99
Es	1.092328	0.417531	-0.307632	99
Es	2.113930	1.112709	-0.403933	99
Es	0.071689	-1.404699	-0.796657	99
Es	0.173676	1.941256	0.902814	99
Es	0.033113	-1.354202	0.416066	99
Es	-0.130628	1.257774	0.930309	99
Es	2.144236	0.095472	0.259577	99
Es	-2.045245	-0.817709	0.335727	99
Es	0.088304	0.840392	0.339938	99
Es	-1.729122	-1.113073	-0.273524	99
Es	-1.938778	-1.830093	-0.315399	99
Es	0.318284	0.424270	-0.270736	99
