33
Properties=species:S:1:pos:R:3:Z:I:1 energy=-231.04988719497874 field_type=dipole dipole="0.000000 0.000000 0.000000" charge=0
C	-1.449721	-0.243355	-0.112335	6
C	0.051899	-0.296485	-0.131485	6
C	0.719949	-1.458135	-0.020365	6
C	0.758008	1.018865	-0.303145	6
O	0.505779	1.835325	0.829655	8
H	-1.802501	0.354685	0.733925	1
H	-1.894791	-1.240025	-0.022745	1
H	-1.825391	0.205795	-1.037465	1
H	0.198399	-2.403745	0.094815	1
H	1.804929	-1.496295	-0.043405	1
H	0.397779	1.537595	-1.197205	1
H	1.841798	0.897085	-0.401815	1
H	0.693869	1.288685	1.611565	1
Es	-0.696639	-0.269065	-0.118866	99
Es	0.504876	1.365989	-0.910765	99
Es	-1.677772	0.157831	0.455976	99
Es	0.604174	1.504231	0.411964	99
Es	1.458218	-1.487345	-0.035555	99
Es	0.369345	-2.103055	0.059157	99
Es	0.505873	1.834995	0.829690	99
Es	0.757933	1.018956	-0.302953	99
Es	0.720005	-1.458222	-0.020352	99
Es	0.712703	2.059230	0.822863	99
Es	-1.745022	-0.923971	-0.051759	99
Es	-1.691740	0.063247	-0.739282	99
Es	0.403912	0.348998	-0.222223	99
Es	0.204050	1.886726	0.834067	99
Es	0.614471	1.525655	1.237811	99
Es	0.392430	-0.927537	-0.396119	99
Es	0.051826	-0.296379	-0.131495	99
Es	1.504120	0.921074	-0.374381	99
Es	-1.449673	-0.243356	-0.112341	99
Es	0.411951	-0.850796	0.259559	99
33
Properties=species:S:1:pos:R:3:Z:I:1 energy=-231.04988719497874 field_type=dipole dipole="0.000000 0.000000 0.000000" charge=0
C	-1.449721	-0.243355	-0.112335	6
C	0.051899	-0.296485	-0.131485	6
C	0.719949	-1.458135	-0.020365	6
C	0.758008	1.018865	-0.303145	6
O	0.505779	1.835325	0.829655	8
H	-1.802501	0.354685	0.733925	1
H	-1.894791	-1.240025	-0.022745	1
H	-1.825391	0.205795	-1.037465	1
H	0.198399	-2.403745	0.094815	1
H	1.804929	-1.496295	-0.043405	1
H	0.397779	1.537595	-1.197205	1
H	1.841798	0.897085	-0.401815	1
H	0.693869	1.288685	1.611565	1
Es	0.505873	1.834965	0.829636	99
Es	0.713762	2.058203	0.822183	99
Es	1.504124	0.921046	-0.374407	99
Es	-1.691816	0.063117	-0.739312	99
Es	-1.449674	-0.243356	-0.112342	99
Es	-1.744845	-0.923971	-0.051729	99
Es	0.369328	-2.103084	0.059155	99
Es	0.203928	1.888101	0.834470	99
Es	0.504854	1.365935	-0.910774	99
Es	0.614696	1.525676	1.237826	99
Es	0.051827	-0.296381	-0.131489	99
Es	-0.696725	-0.268954	-0.118885	99
Es	-1.677867	0.157855	0.456023	99
Es	0.720002	-1.458218	-0.020352	99
Es	1.458273	-1.487288	-0.035581	99
Es	0.404087	0.349058	-0.222168	99
Es	0.757933	1.018956	-0.302954	99
Es	0.603008	1.503930	0.412314	99
Es	0.411869	-0.850839	0.259293	99
Es	0.392402	-0.927547	-0.395912	99
33
Properties=species:S:1:pos:R:3:Z:I:1 energy=-231.04988719497874 field_type=dipole dipole="0.000000 0.000000 0.000000" charge=0
C	-1.449721	-0.243355	-0.112335	6
C	0.051899	-0.296485	-0.131485	6
C	0.719949	-1.458135	-0.020365	6
C	0.758008	1.018865	-0.303145	6
O	0.505779	1.835325	0.829655	8
H	-1.802501	0.354685	0.733925	1
H	-1.894791	-1.240025	-0.022745	1
H	-1.825391	0.205795	-1.037465	1
H	0.198399	-2.403745	0.094815	1
H	1.804929	-1.496295	-0.043405	1
H	0.397779	1.537595	-1.197205	1
H	1.841798	0.897085	-0.401815	1
H	0.693869	1.288685	1.611565	1
Es	0.369326	-2.103063	0.059136	99
Es	0.757934	1.018955	-0.302953	99
Es	0.710284	2.061569	0.822806	99
Es	-0.696764	-0.269249	-0.118825	99
Es	0.411868	-0.850782	0.259161	99
Es	1.504099	0.921065	-0.374429	99
Es	-1.744976	-0.923914	-0.051799	99
Es	0.404055	0.349121	-0.222127	99
Es	0.615950	1.526102	1.237819	99
Es	0.505956	1.835015	0.829669	99
Es	-1.677832	0.157821	0.456023	99
Es	1.458262	-1.487310	-0.035473	99
Es	0.392568	-0.927499	-0.395922	99
Es	-1.449675	-0.243355	-0.112340	99
Es	0.504825	1.365930	-0.910787	99
Es	-1.691761	0.063209	-0.739274	99
Es	0.719999	-1.458213	-0.020347	99
Es	0.204023	1.883465	0.834438	99
Es	0.605070	1.504724	0.411713	99
Es	0.051827	-0.296384	-0.131493	99
33
Properties=species:S:1:pos:R:3:Z:I:1 energy=-231.04988719497874 field_type=dipole dipole="0.000000 0.000000 0.000000" charge=0
C	-1.449721	-0.243355	-0.112335	6
C	0.051899	-0.296485	-0.131485	6
C	0.719949	-1.458135	-0.020365	6
C	0.758008	1.018865	-0.303145	6
O	0.505779	1.835325	0.829655	8
H	-1.802501	0.354685	0.733925	1
H	-1.894791	-1.240025	-0.022745	1
H	-1.825391	0.205795	-1.037465	1
H	0.198399	-2.403745	0.094815	1
H	1.804929	-1.496295	-0.043405	1
H	0.397779	1.537595	-1.197205	1
H	1.841798	0.897085	-0.401815	1
H	0.693869	1.288685	1.611565	1
Es	-1.449675	-0.243356	-0.112340	99
Es	0.411788	-0.850760	0.258984	99
Es	0.504862	1.365888	-0.910771	99
Es	0.711978	2.058470	0.823320	99
Es	0.369283	-2.103039	0.059127	99
Es	0.506092	1.834985	0.829651	99
Es	0.757933	1.018957	-0.302951	99
Es	0.203929	1.887183	0.833973	99
Es	1.504079	0.921050	-0.374450	99
Es	0.614474	1.525691	1.237969	99
Es	-1.677968	0.157818	0.455919	99
Es	-1.691709	0.063149	-0.739337	99
Es	-0.696801	-0.269100	-0.118639	99
Es	1.458320	-1.487316	-0.035447	99
Es	0.051826	-0.296379	-0.131494	99
Es	0.392621	-0.927556	-0.395839	99
Es	0.404125	0.349074	-0.222112	99
Es	0.719995	-1.458210	-0.020352	99
Es	0.604811	1.504595	0.411565	99
Es	-1.744923	-0.923937	-0.051779	99
33
Properties=species:S:1:pos:R:3:Z:I:1 energy=-231.04988719497874 field_type=dipole dipole="0.000000 0.000000 0.000000" charge=0
C	-1.449721	-0.243355	-0.112335	6
C	0.051899	-0.296485	-0.131485	6
C	0.719949	-1.458135	-0.020365	6
C	0.758008	1.018865	-0.303145	6
O	0.505779	1.835325	0.829655	8
H	-1.802501	0.354685	0.733925	1
H	-1.894791	-1.240025	-0.022745	1
H	-1.825391	0.205795	-1.037465	1
H	0.198399	-2.403745	0.094815	1
H	1.804929	-1.496295	-0.043405	1
H	0.397779	1.537595	-1.197205	1
H	1.841798	0.897085	-0.401815	1
H	0.693869	1.288685	1.611565	1
Es	0.392570	-0.927478	-0.395746	99
Es	0.615435	1.526152	1.238342	99
Es	-0.696830	-0.269268	-0.118727	99
Es	0.505876	1.834990	0.829665	99
Es	-1.449676	-0.243356	-0.112340	99
Es	1.458298	-1.487281	-0.035444	99
Es	-1.677888	0.157892	0.455959	99
Es	0.204865	1.883903	0.834233	99
Es	1.504066	0.921025	-0.374450	99
Es	0.369292	-2.103079	0.059131	99
Es	0.504901	1.365889	-0.910762	99
Es	0.757933	1.018957	-0.302952	99
Es	-1.744988	-0.923824	-0.051721	99
Es	0.719997	-1.458213	-0.020376	99
Es	0.051830	-0.296384	-0.131482	99
Es	0.605057	1.504664	0.411299	99
Es	-1.691746	0.063102	-0.739338	99
Es	0.411845	-0.850807	0.258912	99
Es	0.710061	2.061240	0.822941	99
Es	0.404142	0.349083	-0.222147	99
33
Properties=species:S:1:pos:R:3:Z:I:1 energy=-231.04988719497874 field_type=dipole dipole="0.000000 0.000000 0.000000" charge=0
C	-1.449721	-0.243355	-0.112335	6
C	0.051899	-0.296485	-0.131485	6
C	0.719949	-1.458135	-0.020365	6
C	0.758008	1.018865	-0.303145	6
O	0.505779	1.835325	0.829655	8
H	-1.802501	0.354685	0.733925	1
H	-1.894791	-1.240025	-0.022745	1
H	-1.825391	0.205795	-1.037465	1
H	0.198399	-2.403745	0.094815	1
H	1.804929	-1.496295	-0.043405	1
H	0.397779	1.537595	-1.197205	1
H	1.841798	0.897085	-0.401815	1
H	0.693869	1.288685	1.611565	1
Es	0.411833	-0.850756	0.258789	99
Es	-0.696945	-0.269228	-0.118688	99
Es	0.369232	-2.103071	0.059130	99
Es	0.713871	2.055994	0.822955	99
Es	1.504009	0.921043	-0.374465	99
Es	0.504898	1.365867	-0.910790	99
Es	-1.449675	-0.243356	-0.112340	99
Es	-1.691707	0.063145	-0.739348	99
Es	0.603011	1.503980	0.411261	99
Es	0.720001	-1.458217	-0.020354	99
Es	0.613588	1.525586	1.238371	99
Es	1.458299	-1.487324	-0.035489	99
Es	0.392602	-0.927486	-0.395550	99
Es	0.404333	0.349062	-0.222209	99
Es	-1.744980	-0.923873	-0.051751	99
Es	0.505855	1.835035	0.829650	99
Es	0.204951	1.890359	0.834316	99
Es	0.051828	-0.296379	-0.131497	99
Es	0.757933	1.018957	-0.302952	99
Es	-1.677898	0.157868	0.455956	99
33
Properties=species:S:1:pos:R:3:Z:I:1 energy=-231.04988719497874 field_type=dipole dipole="0.000000 0.000000 0.000000" charge=0
C	-1.449721	-0.243355	-0.112335	6
C	0.051899	-0.296485	-0.131485	6
C	0.719949	-1.458135	-0.020365	6
C	0.758008	1.018865	-0.303145	6
O	0.505779	1.835325	0.829655	8
H	-1.802501	0.354685	0.733925	1
H	-1.894791	-1.240025	-0.022745	1
H	-1.825391	0.205795	-1.037465	1
H	0.198399	-2.403745	0.094815	1
H	1.804929	-1.496295	-0.043405	1
H	0.397779	1.537595	-1.197205	1
H	1.841798	0.897085	-0.401815	1
H	0.693869	1.288685	1.611565	1
Es	-0.696993	-0.269343	-0.118754	99
Es	0.411864	-0.850816	0.258621	99
Es	0.604008	1.504692	0.410765	99
Es	-1.745025	-0.923864	-0.051687	99
Es	-1.449673	-0.243355	-0.112341	99
Es	0.504900	1.365848	-0.910796	99
Es	0.392585	-0.927396	-0.395432	99
Es	1.503994	0.921036	-0.374474	99
Es	0.505881	1.834984	0.829659	99
Es	0.612594	1.524902	1.237803	99
Es	0.404380	0.349120	-0.222161	99
Es	-1.677809	0.157871	0.455931	99
Es	0.712758	2.059571	0.824353	99
Es	0.051828	-0.296385	-0.131496	99
Es	1.458285	-1.487222	-0.035498	99
Es	0.757934	1.018955	-0.302955	99
Es	0.206036	1.886825	0.833992	99
Es	0.720001	-1.458217	-0.020353	99
Es	-1.691770	0.063158	-0.739331	99
Es	0.369262	-2.103156	0.059151	99
33
Properties=species:S:1:pos:R:3:Z:I:1 energy=-231.04988719497874 field_type=dipole dipole="0.000000 0.000000 0.000000" charge=0
C	-1.449721	-0.243355	-0.112335	6
C	0.051899	-0.296485	-0.131485	6
C	0.719949	-1.458135	-0.020365	6
C	0.758008	1.018865	-0.303145	6
O	0.505779	1.835325	0.829655	8
H	-1.802501	0.354685	0.733925	1
H	-1.894791	-1.240025	-0.022745	1
H	-1.825391	0.205795	-1.037465	1
H	0.198399	-2.403745	0.094815	1
H	1.804929	-1.496295	-0.043405	1
H	0.397779	1.537595	-1.197205	1
H	1.841798	0.897085	-0.401815	1
H	0.693869	1.288685	1.611565	1
Es	-1.449676	-0.243355	-0.112341	99
Es	-1.677856	0.157874	0.455932	99
Es	-1.745024	-0.923870	-0.051729	99
Es	0.411833	-0.850803	0.258566	99
Es	0.505857	1.834972	0.829663	99
Es	0.504918	1.365836	-0.910795	99
Es	0.051827	-0.296383	-0.131494	99
Es	0.369247	-2.103087	0.059109	99
Es	0.601984	1.503642	0.411121	99
Es	0.614527	1.525955	1.238443	99
Es	-1.691722	0.063155	-0.739329	99
Es	0.392609	-0.927396	-0.395368	99
Es	1.503979	0.921040	-0.374475	99
Es	-0.697050	-0.269356	-0.118703	99
Es	0.720001	-1.458217	-0.020352	99
Es	0.713018	2.057844	0.822237	99
Es	1.458322	-1.487283	-0.035494	99
Es	0.757934	1.018955	-0.302956	99
Es	0.205871	1.888567	0.835143	99
Es	0.404438	0.349116	-0.222183	99
33
Properties=species:S:1:pos:R:3:Z:I:1 energy=-231.04988719497874 field_type=dipole dipole="0.000000 0.000000 0.000000" charge=0
C	-1.449721	-0.243355	-0.112335	6
C	0.051899	-0.296485	-0.131485	6
C	0.719949	-1.458135	-0.020365	6
C	0.758008	1.018865	-0.303145	6
O	0.505779	1.835325	0.829655	8
H	-1.802501	0.354685	0.733925	1
H	-1.894791	-1.240025	-0.022745	1
H	-1.825391	0.205795	-1.037465	1
H	0.198399	-2.403745	0.094815	1
H	1.804929	-1.496295	-0.043405	1
H	0.397779	1.537595	-1.197205	1
H	1.841798	0.897085	-0.401815	1
H	0.693869	1.288685	1.611565	1
Es	0.720000	-1.458216	-0.020352	99
Es	-1.449676	-0.243356	-0.112340	99
Es	0.757935	1.018955	-0.302957	99
Es	0.369254	-2.103071	0.059071	99
Es	0.205577	1.886001	0.834277	99
Es	0.505784	1.834908	0.829659	99
Es	-1.691724	0.063143	-0.739324	99
Es	0.051829	-0.296385	-0.131497	99
Es	0.404495	0.349093	-0.222158	99
Es	0.614478	1.525840	1.238449	99
Es	-1.677870	0.157878	0.455940	99
Es	0.392619	-0.927377	-0.395289	99
Es	0.411819	-0.850798	0.258526	99
Es	-1.745026	-0.923842	-0.051736	99
Es	1.458333	-1.487295	-0.035521	99
Es	0.710611	2.059460	0.823662	99
Es	0.504928	1.365833	-0.910809	99
Es	-0.697091	-0.269393	-0.118698	99
Es	1.503922	0.921034	-0.374493	99
Es	0.604843	1.504796	0.410588	99
33
Properties=species:S:1:pos:R:3:Z:I:1 energy=-231.04988719497874 field_type=dipole dipole="0.000000 0.000000 0.000000" charge=0
C	-1.449721	-0.243355	-0.112335	6
C	0.051899	-0.296485	-0.131485	6
C	0.719949	-1.458135	-0.020365	6
C	0.758008	1.018865	-0.303145	6
O	0.505779	1.835325	0.829655	8
H	-1.802501	0.354685	0.733925	1
H	-1.894791	-1.240025	-0.022745	1
H	-1.825391	0.205795	-1.037465	1
H	0.198399	-2.403745	0.094815	1
H	1.804929	-1.496295	-0.043405	1
H	0.397779	1.537595	-1.197205	1
H	1.841798	0.897085	-0.401815	1
H	0.693869	1.288685	1.611565	1
Es	-1.449676	-0.243355	-0.112340	99
Es	0.615050	1.526241	1.239085	99
Es	-0.697164	-0.269422	-0.118668	99
Es	0.601729	1.503659	0.410711	99
Es	0.051828	-0.296384	-0.131494	99
Es	-1.677842	0.157863	0.455915	99
Es	0.411834	-0.850806	0.258291	99
Es	0.207213	1.887753	0.835343	99
Es	1.503938	0.921034	-0.374505	99
Es	0.720001	-1.458216	-0.020353	99
Es	-1.745037	-0.923866	-0.051716	99
Es	1.458327	-1.487235	-0.035505	99
Es	0.757934	1.018955	-0.302957	99
Es	0.369209	-2.103142	0.059097	99
Es	0.505581	1.834795	0.829655	99
Es	0.504940	1.365796	-0.910793	99
Es	0.711678	2.058567	0.821880	99
Es	-1.691731	0.063168	-0.739330	99
Es	0.404575	0.349140	-0.222187	99
Es	0.392654	-0.927338	-0.395133	99
33
Properties=species:S:1:pos:R:3:Z:I:1 energy=-231.04988719497874 field_type=dipole dipole="0.000000 0.000000 0.000000" charge=0
C	-1.449721	-0.243355	-0.112335	6
C	0.051899	-0.296485	-0.131485	6
C	0.719949	-1.458135	-0.020365	6
C	0.758008	1.018865	-0.303145	6
O	0.505779	1.835325	0.829655	8
H	-1.802501	0.354685	0.733925	1
H	-1.894791	-1.240025	-0.022745	1
H	-1.825391	0.205795	-1.037465	1
H	0.198399	-2.403745	0.094815	1
H	1.804929	-1.496295	-0.043405	1
H	0.397779	1.537595	-1.197205	1
H	1.841798	0.897085	-0.401815	1
H	0.693869	1.288685	1.611565	1
Es	0.720001	-1.458216	-0.020351	99
Es	-0.697192	-0.269460	-0.118679	99
Es	0.757931	1.018953	-0.302956	99
Es	0.504910	1.365770	-0.910748	99
Es	0.369227	-2.103103	0.059092	99
Es	0.712174	2.057096	0.823061	99
Es	-1.677870	0.157824	0.455970	99
Es	-1.691737	0.063191	-0.739289	99
Es	0.505851	1.834980	0.829654	99
Es	0.205918	1.888908	0.834431	99
Es	0.613966	1.525839	1.238864	99
Es	0.051827	-0.296383	-0.131492	99
Es	0.392649	-0.927337	-0.395076	99
Es	0.603355	1.504200	0.410669	99
Es	1.458355	-1.487251	-0.035497	99
Es	-1.449676	-0.243356	-0.112341	99
Es	-1.745027	-0.923842	-0.051793	99
Es	0.411792	-0.850810	0.258204	99
Es	0.404634	0.349130	-0.222165	99
Es	1.503950	0.921074	-0.374563	99
33
Properties=species:S:1:pos:R:3:Z:I:1 energy=-231.04988719497874 field_type=dipole dipole="0.000000 0.000000 0.000000" charge=0
C	-1.449721	-0.243355	-0.112335	6
C	0.051899	-0.296485	-0.131485	6
C	0.719949	-1.458135	-0.020365	6
C	0.758008	1.018865	-0.303145	6
O	0.505779	1.835325	0.829655	8
H	-1.802501	0.354685	0.733925	1
H	-1.894791	-1.240025	-0.022745	1
H	-1.825391	0.205795	-1.037465	1
H	0.198399	-2.403745	0.094815	1
H	1.804929	-1.496295	-0.043405	1
H	0.397779	1.537595	-1.197205	1
H	1.841798	0.897085	-0.401815	1
H	0.693869	1.288685	1.611565	1
Es	-0.697269	-0.269511	-0.118576	99
Es	0.505886	1.835026	0.829677	99
Es	0.051828	-0.296385	-0.131494	99
Es	-1.449677	-0.243356	-0.112341	99
Es	0.411803	-0.850829	0.258080	99
Es	0.369208	-2.103116	0.059057	99
Es	0.404709	0.349140	-0.222191	99
Es	0.719999	-1.458212	-0.020350	99
Es	0.504965	1.365780	-0.910787	99
Es	0.613777	1.526079	1.239209	99
Es	0.711087	2.058700	0.823178	99
Es	1.503885	0.921039	-0.374534	99
Es	0.603732	1.504173	0.410450	99
Es	-1.691679	0.063219	-0.739317	99
Es	0.206784	1.887064	0.834201	99
Es	0.392647	-0.927289	-0.394886	99
Es	0.757935	1.018954	-0.302957	99
Es	1.458379	-1.487233	-0.035534	99
Es	-1.745059	-0.923846	-0.051802	99
Es	-1.677901	0.157810	0.455916	99
33
Properties=species:S:1:pos:R:3:Z:I:1 energy=-231.04988719497874 field_type=dipole dipole="0.000000 0.000000 0.000000" charge=0
C	-1.449721	-0.243355	-0.112335	6
C	0.051899	-0.296485	-0.131485	6
C	0.719949	-1.458135	-0.020365	6
C	0.758008	1.018865	-0.303145	6
O	0.505779	1.835325	0.829655	8
H	-1.802501	0.354685	0.733925	1
H	-1.894791	-1.240025	-0.022745	1
H	-1.825391	0.205795	-1.037465	1
H	0.198399	-2.403745	0.094815	1
H	1.804929	-1.496295	-0.043405	1
H	0.397779	1.537595	-1.197205	1
H	1.841798	0.897085	-0.401815	1
H	0.693869	1.288685	1.611565	1
Es	1.458349	-1.487263	-0.035498	99
Es	0.411786	-0.850821	0.258025	99
Es	0.757935	1.018954	-0.302958	99
Es	1.503847	0.921058	-0.374584	99
Es	-1.677888	0.157939	0.455890	99
Es	0.708893	2.061324	0.823164	99
Es	0.504936	1.365755	-0.910786	99
Es	0.614704	1.526781	1.239281	99
Es	0.720001	-1.458216	-0.020354	99
Es	0.505833	1.835135	0.829651	99
Es	0.206401	1.883461	0.833855	99
Es	-1.691654	0.063106	-0.739322	99
Es	0.392669	-0.927268	-0.394893	99
Es	0.369215	-2.103102	0.059048	99
Es	0.605469	1.504361	0.410800	99
Es	-0.697328	-0.269531	-0.118613	99
Es	0.051829	-0.296385	-0.131495	99
Es	0.404796	0.349127	-0.222152	99
Es	-1.449677	-0.243355	-0.112343	99
Es	-1.745076	-0.923854	-0.051722	99
33
Properties=species:S:1:pos:R:3:Z:I:1 energy=-231.04988719497874 field_type=dipole dipole="0.000000 0.000000 0.000000" charge=0
C	-1.449721	-0.243355	-0.112335	6
C	0.051899	-0.296485	-0.131485	6
C	0.719949	-1.458135	-0.020365	6
C	0.758008	1.018865	-0.303145	6
O	0.505779	1.835325	0.829655	8
H	-1.802501	0.354685	0.733925	1
H	-1.894791	-1.240025	-0.022745	1
H	-1.825391	0.205795	-1.037465	1
H	0.198399	-2.403745	0.094815	1
H	1.804929	-1.496295	-0.043405	1
H	0.397779	1.537595	-1.197205	1
H	1.841798	0.897085	-0.401815	1
H	0.693869	1.288685	1.611565	1
Es	0.604236	1.504240	0.410273	99
Es	0.411760	-0.850809	0.257890	99
Es	-1.745050	-0.923807	-0.051830	99
Es	0.504969	1.365771	-0.910787	99
Es	0.711060	2.055789	0.823090	99
Es	-1.677842	0.157758	0.455989	99
Es	-1.449677	-0.243355	-0.112341	99
Es	0.205792	1.889580	0.834257	99
Es	0.404827	0.349128	-0.222166	99
Es	0.369203	-2.103104	0.059063	99
Es	0.614370	1.526469	1.239483	99
Es	0.505829	1.834977	0.829665	99
Es	0.720000	-1.458214	-0.020352	99
Es	0.051830	-0.296388	-0.131496	99
Es	1.458381	-1.487241	-0.035505	99
Es	0.757937	1.018956	-0.302958	99
Es	0.392697	-0.927265	-0.394788	99
Es	-1.691772	0.063254	-0.739260	99
Es	-0.697342	-0.269578	-0.118667	99
Es	1.503832	0.921047	-0.374565	99
33
Properties=species:S:1:pos:R:3:Z:I:1 energy=-231.04988719497874 field_type=dipole dipole="0.000000 0.000000 0.000000" charge=0
C	-1.449721	-0.243355	-0.112335	6
C	0.051899	-0.296485	-0.131485	6
C	0.719949	-1.458135	-0.020365	6
C	0.758008	1.018865	-0.303145	6
O	0.505779	1.835325	0.829655	8
H	-1.802501	0.354685	0.733925	1
H	-1.894791	-1.240025	-0.022745	1
H	-1.825391	0.205795	-1.037465	1
H	0.198399	-2.403745	0.094815	1
H	1.804929	-1.496295	-0.043405	1
H	0.397779	1.537595	-1.197205	1
H	1.841798	0.897085	-0.401815	1
H	0.693869	1.288685	1.611565	1
Es	0.392678	-0.927236	-0.394652	99
Es	0.505062	1.365692	-0.910874	99
Es	-0.697381	-0.269626	-0.118669	99
Es	0.720000	-1.458214	-0.020353	99
Es	0.404915	0.349165	-0.222172	99
Es	1.503803	0.921034	-0.374462	99
Es	1.458396	-1.487253	-0.035545	99
Es	-1.677857	0.157842	0.455944	99
Es	0.711009	2.057274	0.823279	99
Es	0.051828	-0.296385	-0.131494	99
Es	-1.745048	-0.923801	-0.051753	99
Es	0.505765	1.834930	0.829659	99
Es	0.757935	1.018954	-0.302959	99
Es	0.206936	1.888472	0.834386	99
Es	0.613873	1.526146	1.239369	99
Es	0.369181	-2.103095	0.059056	99
Es	0.603602	1.504319	0.410059	99
Es	0.411771	-0.850821	0.257820	99
Es	-1.691751	0.063168	-0.739304	99
Es	-1.449677	-0.243355	-0.112340	99
33
Properties=species:S:1:pos:R:3:Z:I:1 energy=-231.04988719497874 field_type=dipole dipole="0.000000 0.000000 0.000000" charge=0
C	-1.449721	-0.243355	-0.112335	6
C	0.051899	-0.296485	-0.131485	6
C	0.719949	-1.458135	-0.020365	6
C	0.758008	1.018865	-0.303145	6
O	0.505779	1.835325	0.829655	8
H	-1.802501	0.354685	0.733925	1
H	-1.894791	-1.240025	-0.022745	1
H	-1.825391	0.205795	-1.037465	1
H	0.198399	-2.403745	0.094815	1
H	1.804929	-1.496295	-0.043405	1
H	0.397779	1.537595	-1.197205	1
H	1.841798	0.897085	-0.401815	1
H	0.693869	1.288685	1.611565	1
Es	0.720001	-1.458212	-0.020353	99
Es	0.392683	-0.927227	-0.394638	99
Es	0.603428	1.503683	0.410429	99
Es	0.505019	1.365698	-0.910757	99
Es	0.709916	2.058290	0.822168	99
Es	1.458407	-1.487240	-0.035491	99
Es	-1.745039	-0.923842	-0.051801	99
Es	0.369187	-2.103093	0.059034	99
Es	-1.449671	-0.243354	-0.112341	99
Es	-1.691699	0.063188	-0.739302	99
Es	0.051830	-0.296384	-0.131495	99
Es	0.505920	1.835003	0.829686	99
Es	1.503801	0.921063	-0.374596	99
Es	0.615295	1.527182	1.239738	99
Es	0.404945	0.349136	-0.222178	99
Es	0.757935	1.018953	-0.302960	99
Es	-0.697399	-0.269550	-0.118492	99
Es	0.411734	-0.850837	0.257675	99
Es	0.206704	1.886968	0.834794	99
Es	-1.677958	0.157782	0.455877	99
33
Properties=species:S:1:pos:R:3:Z:I:1 energy=-231.04988719497874 field_type=dipole dipole="0.000000 0.000000 0.000000" charge=0
C	-1.449721	-0.243355	-0.112335	6
C	0.051899	-0.296485	-0.131485	6
C	0.719949	-1.458135	-0.020365	6
C	0.758008	1.018865	-0.303145	6
O	0.505779	1.835325	0.829655	8
H	-1.802501	0.354685	0.733925	1
H	-1.894791	-1.240025	-0.022745	1
H	-1.825391	0.205795	-1.037465	1
H	0.198399	-2.403745	0.094815	1
H	1.804929	-1.496295	-0.043405	1
H	0.397779	1.537595	-1.197205	1
H	1.841798	0.897085	-0.401815	1
H	0.693869	1.288685	1.611565	1
Es	0.614343	1.526347	1.239284	99
Es	0.369199	-2.103118	0.059039	99
Es	0.051830	-0.296387	-0.131494	99
Es	0.504912	1.365685	-0.910758	99
Es	0.207125	1.887950	0.834929	99
Es	-1.677884	0.157912	0.455891	99
Es	0.603104	1.504049	0.409957	99
Es	-1.691690	0.063102	-0.739353	99
Es	0.505846	1.834999	0.829663	99
Es	0.757937	1.018955	-0.302961	99
Es	1.458391	-1.487218	-0.035520	99
Es	0.392686	-0.927211	-0.394525	99
Es	1.503813	0.921119	-0.374652	99
Es	0.720001	-1.458216	-0.020351	99
Es	0.405098	0.349177	-0.222200	99
Es	-0.697484	-0.269671	-0.118591	99
Es	-1.745061	-0.923801	-0.051704	99
Es	-1.449679	-0.243354	-0.112341	99
Es	0.411726	-0.850829	0.257635	99
Es	0.710826	2.057716	0.823048	99
33
Properties=species:S:1:pos:R:3:Z:I:1 energy=-231.04988719497874 field_type=dipole dipole="0.000000 0.000000 0.000000" charge=0
C	-1.449721	-0.243355	-0.112335	6
C	0.051899	-0.296485	-0.131485	6
C	0.719949	-1.458135	-0.020365	6
C	0.758008	1.018865	-0.303145	6
O	0.505779	1.835325	0.829655	8
H	-1.802501	0.354685	0.733925	1
H	-1.894791	-1.240025	-0.022745	1
H	-1.825391	0.205795	-1.037465	1
H	0.198399	-2.403745	0.094815	1
H	1.804929	-1.496295	-0.043405	1
H	0.397779	1.537595	-1.197205	1
H	1.841798	0.897085	-0.401815	1
H	0.693869	1.288685	1.611565	1
Es	0.404977	0.349206	-0.222220	99
Es	0.613255	1.526336	1.239919	99
Es	0.719999	-1.458212	-0.020356	99
Es	0.757935	1.018955	-0.302960	99
Es	1.503749	0.920988	-0.374542	99
Es	0.369111	-2.103080	0.059004	99
Es	0.505087	1.365741	-0.910807	99
Es	0.711326	2.056800	0.823039	99
Es	0.392770	-0.927133	-0.394410	99
Es	0.207995	1.889234	0.834402	99
Es	0.602791	1.503796	0.409824	99
Es	-0.697531	-0.269772	-0.118563	99
Es	-1.449677	-0.243355	-0.112340	99
Es	-1.691682	0.063188	-0.739315	99
Es	0.505900	1.834947	0.829667	99
Es	0.051827	-0.296385	-0.131495	99
Es	-1.677882	0.157843	0.455912	99
Es	-1.745102	-0.923783	-0.051782	99
Es	1.458429	-1.487277	-0.035471	99
Es	0.411761	-0.850829	0.257490	99
33
Properties=species:S:1:pos:R:3:Z:I:1 energy=-231.04988719497874 field_type=dipole dipole="0.000000 0.000000 0.000000" charge=0
C	-1.449721	-0.243355	-0.112335	6
C	0.051899	-0.296485	-0.131485	6
C	0.719949	-1.458135	-0.020365	6
C	0.758008	1.018865	-0.303145	6
O	0.505779	1.835325	0.829655	8
H	-1.802501	0.354685	0.733925	1
H	-1.894791	-1.240025	-0.022745	1
H	-1.825391	0.205795	-1.037465	1
H	0.198399	-2.403745	0.094815	1
H	1.804929	-1.496295	-0.043405	1
H	0.397779	1.537595	-1.197205	1
H	1.841798	0.897085	-0.401815	1
H	0.693869	1.288685	1.611565	1
Es	-0.697567	-0.269749	-0.118572	99
Es	0.369138	-2.103133	0.059024	99
Es	0.411726	-0.850842	0.257361	99
Es	-1.449678	-0.243355	-0.112340	99
Es	-1.677864	0.157852	0.455918	99
Es	0.405122	0.349190	-0.222181	99
Es	0.613241	1.526153	1.239707	99
Es	0.506004	1.835003	0.829655	99
Es	0.603039	1.504065	0.409729	99
Es	0.719999	-1.458213	-0.020353	99
Es	-1.745076	-0.923779	-0.051747	99
Es	0.711319	2.056269	0.823354	99
Es	1.458438	-1.487197	-0.035514	99
Es	1.503752	0.921046	-0.374615	99
Es	-1.691720	0.063162	-0.739324	99
Es	0.505025	1.365657	-0.910778	99
Es	0.757935	1.018953	-0.302961	99
Es	0.051829	-0.296386	-0.131495	99
Es	0.207651	1.889664	0.834432	99
Es	0.392725	-0.927153	-0.394304	99
