40
Properties=species:S:1:pos:R:3:Z:I:1 energy=-266.26382611244725 field_type=dipole dipole="0.000000 0.000000 0.000000" charge=0
C	0.792495	1.199234	-0.317192	6
C	-0.680385	1.206534	0.148258	6
N	-1.416225	0.001684	-0.262432	7
C	-0.681075	-1.207856	0.132868	6
C	0.791115	-1.195646	-0.332412	6
N	1.526845	-0.001446	0.122938	7
H	0.839145	1.271944	-1.411152	1
H	1.300455	2.085345	0.078868	1
H	-1.183595	2.085764	-0.268082	1
H	-0.717905	1.300644	1.240758	1
H	-2.338325	-0.000066	0.169798	1
H	-0.719125	-1.315666	1.224128	1
H	-1.185315	-2.081125	-0.294572	1
H	1.298595	-2.086976	0.052688	1
H	0.838115	-1.254676	-1.427022	1
H	1.535185	-0.007696	1.142558	1
Es	1.183440	0.513053	-0.056087	99
Es	-1.094225	-0.513725	-0.061688	99
Es	-0.681120	-1.207731	0.132826	99
Es	0.043235	-1.190632	-0.098803	99
Es	-0.696731	-1.280632	0.896904	99
Es	-0.695846	1.269659	0.913080	99
Es	-1.025591	-1.808513	-0.157664	99
Es	-1.416133	0.001682	-0.261792	99
Es	-1.093571	0.515365	-0.056206	99
Es	0.792512	1.199116	-0.317121	99
Es	0.816419	-1.228590	-1.080182	99
Es	1.504343	-0.005324	0.744729	99
Es	1.526235	-0.001452	0.123150	99
Es	0.044250	1.191789	-0.083551	99
Es	0.817587	1.241506	-1.064556	99
Es	1.130478	-1.807571	-0.060745	99
Es	1.132252	1.807527	-0.037992	99
Es	-1.024328	1.811197	-0.134704	99
Es	-1.963436	0.000387	0.024220	99
Es	1.182836	-0.513150	-0.062596	99
Es	0.791132	-1.195528	-0.332340	99
Es	-0.680430	1.206408	0.148216	99
Es	1.860812	-0.000839	-0.001916	99
Es	-1.447128	0.003209	-0.617275	99
40
Properties=species:S:1:pos:R:3:Z:I:1 energy=-266.26382611244725 field_type=dipole dipole="0.000000 0.000000 0.000000" charge=0
C	0.792495	1.199234	-0.317192	6
C	-0.680385	1.206534	0.148258	6
N	-1.416225	0.001684	-0.262432	7
C	-0.681075	-1.207856	0.132868	6
C	0.791115	-1.195646	-0.332412	6
N	1.526845	-0.001446	0.122938	7
H	0.839145	1.271944	-1.411152	1
H	1.300455	2.085345	0.078868	1
H	-1.183595	2.085764	-0.268082	1
H	-0.717905	1.300644	1.240758	1
H	-2.338325	-0.000066	0.169798	1
H	-0.719125	-1.315666	1.224128	1
H	-1.185315	-2.081125	-0.294572	1
H	1.298595	-2.086976	0.052688	1
H	0.838115	-1.254676	-1.427022	1
H	1.535185	-0.007696	1.142558	1
Es	-1.093463	0.515255	-0.056381	99
Es	-1.094053	-0.514187	-0.062519	99
Es	0.816413	-1.228506	-1.080048	99
Es	0.817674	1.241536	-1.064512	99
Es	1.132158	1.807542	-0.037988	99
Es	-0.681120	-1.207733	0.132825	99
Es	-1.416116	0.001671	-0.261750	99
Es	1.860601	-0.000869	-0.001830	99
Es	0.043159	-1.190625	-0.098805	99
Es	-1.025545	-1.808568	-0.157616	99
Es	1.504450	-0.005277	0.744741	99
Es	-1.963680	0.000471	0.024269	99
Es	-0.680432	1.206409	0.148213	99
Es	0.791133	-1.195527	-0.332340	99
Es	1.130459	-1.807687	-0.060870	99
Es	-1.447304	0.003753	-0.616369	99
Es	-0.695855	1.269730	0.913070	99
Es	-0.696697	-1.280628	0.896825	99
Es	1.526253	-0.001448	0.123144	99
Es	0.792513	1.199113	-0.317116	99
Es	1.183581	0.513101	-0.056081	99
Es	1.182903	-0.513248	-0.062582	99
Es	0.044262	1.191835	-0.083723	99
Es	-1.024301	1.811100	-0.134649	99
40
Properties=species:S:1:pos:R:3:Z:I:1 energy=-266.26382611244725 field_type=dipole dipole="0.000000 0.000000 0.000000" charge=0
C	0.792495	1.199234	-0.317192	6
C	-0.680385	1.206534	0.148258	6
N	-1.416225	0.001684	-0.262432	7
C	-0.681075	-1.207856	0.132868	6
C	0.791115	-1.195646	-0.332412	6
N	1.526845	-0.001446	0.122938	7
H	0.839145	1.271944	-1.411152	1
H	1.300455	2.085345	0.078868	1
H	-1.183595	2.085764	-0.268082	1
H	-0.717905	1.300644	1.240758	1
H	-2.338325	-0.000066	0.169798	1
H	-0.719125	-1.315666	1.224128	1
H	-1.185315	-2.081125	-0.294572	1
H	1.298595	-2.086976	0.052688	1
H	0.838115	-1.254676	-1.427022	1
H	1.535185	-0.007696	1.142558	1
Es	1.860168	-0.000915	-0.002147	99
Es	1.130443	-1.807677	-0.060927	99
Es	1.183518	0.513168	-0.055993	99
Es	0.816385	-1.228493	-1.080053	99
Es	1.526266	-0.001443	0.123151	99
Es	0.044251	1.191818	-0.083676	99
Es	0.792513	1.199118	-0.317120	99
Es	0.817644	1.241525	-1.064439	99
Es	-1.025492	-1.808455	-0.157640	99
Es	-1.963852	0.000333	0.023833	99
Es	-1.024292	1.811132	-0.134631	99
Es	-1.093738	0.515331	-0.056110	99
Es	0.791132	-1.195529	-0.332340	99
Es	-1.446994	0.003916	-0.616191	99
Es	0.043221	-1.190653	-0.098788	99
Es	-1.416123	0.001680	-0.261814	99
Es	-0.681121	-1.207732	0.132824	99
Es	-0.696804	-1.280679	0.896902	99
Es	1.505004	-0.005406	0.744883	99
Es	1.132202	1.807561	-0.038040	99
Es	1.182897	-0.513171	-0.062515	99
Es	-0.695867	1.269706	0.913036	99
Es	-1.093938	-0.514333	-0.062510	99
Es	-0.680431	1.206410	0.148214	99
40
Properties=species:S:1:pos:R:3:Z:I:1 energy=-266.26382611244725 field_type=dipole dipole="0.000000 0.000000 0.000000" charge=0
C	0.792495	1.199234	-0.317192	6
C	-0.680385	1.206534	0.148258	6
N	-1.416225	0.001684	-0.262432	7
C	-0.681075	-1.207856	0.132868	6
C	0.791115	-1.195646	-0.332412	6
N	1.526845	-0.001446	0.122938	7
H	0.839145	1.271944	-1.411152	1
H	1.300455	2.085345	0.078868	1
H	-1.183595	2.085764	-0.268082	1
H	-0.717905	1.300644	1.240758	1
H	-2.338325	-0.000066	0.169798	1
H	-0.719125	-1.315666	1.224128	1
H	-1.185315	-2.081125	-0.294572	1
H	1.298595	-2.086976	0.052688	1
H	0.838115	-1.254676	-1.427022	1
H	1.535185	-0.007696	1.142558	1
Es	-1.416110	0.001685	-0.261812	99
Es	1.183777	0.513307	-0.056243	99
Es	0.817670	1.241534	-1.064415	99
Es	0.791132	-1.195529	-0.332341	99
Es	-1.025471	-1.808463	-0.157588	99
Es	-1.024189	1.811124	-0.134634	99
Es	1.130436	-1.807640	-0.060854	99
Es	1.182952	-0.513322	-0.062649	99
Es	-1.446949	0.003837	-0.616272	99
Es	0.044255	1.191853	-0.083610	99
Es	-0.681120	-1.207734	0.132826	99
Es	1.504757	-0.005266	0.744765	99
Es	-1.963814	0.000327	0.023676	99
Es	-1.093657	0.515379	-0.055962	99
Es	-0.680429	1.206411	0.148216	99
Es	0.792512	1.199117	-0.317122	99
Es	-0.695942	1.269737	0.913015	99
Es	1.526280	-0.001455	0.123124	99
Es	0.816497	-1.228596	-1.079966	99
Es	1.860077	-0.000983	-0.001629	99
Es	1.132196	1.807524	-0.038091	99
Es	0.043128	-1.190676	-0.098916	99
Es	-1.094237	-0.514267	-0.062472	99
Es	-0.696757	-1.280692	0.896862	99
40
Properties=species:S:1:pos:R:3:Z:I:1 energy=-266.26382611244725 field_type=dipole dipole="0.000000 0.000000 0.000000" charge=0
C	0.792495	1.199234	-0.317192	6
C	-0.680385	1.206534	0.148258	6
N	-1.416225	0.001684	-0.262432	7
C	-0.681075	-1.207856	0.132868	6
C	0.791115	-1.195646	-0.332412	6
N	1.526845	-0.001446	0.122938	7
H	0.839145	1.271944	-1.411152	1
H	1.300455	2.085345	0.078868	1
H	-1.183595	2.085764	-0.268082	1
H	-0.717905	1.300644	1.240758	1
H	-2.338325	-0.000066	0.169798	1
H	-0.719125	-1.315666	1.224128	1
H	-1.185315	-2.081125	-0.294572	1
H	1.298595	-2.086976	0.052688	1
H	0.838115	-1.254676	-1.427022	1
H	1.535185	-0.007696	1.142558	1
Es	0.816518	-1.228731	-1.079960	99
Es	0.817724	1.241524	-1.064340	99
Es	0.043221	-1.190643	-0.098900	99
Es	0.792511	1.199120	-0.317123	99
Es	-1.093633	0.515394	-0.056048	99
Es	-0.681120	-1.207734	0.132826	99
Es	1.183830	0.513528	-0.056198	99
Es	-0.680430	1.206412	0.148214	99
Es	0.791134	-1.195532	-0.332342	99
Es	1.130333	-1.807575	-0.060828	99
Es	-1.964008	0.000324	0.023645	99
Es	-1.094114	-0.514449	-0.062756	99
Es	-1.416123	0.001685	-0.261770	99
Es	-1.025553	-1.808464	-0.157563	99
Es	-1.446935	0.004012	-0.615746	99
Es	-1.024291	1.811117	-0.134512	99
Es	0.044215	1.191831	-0.083808	99
Es	1.183086	-0.513477	-0.062725	99
Es	1.132148	1.807590	-0.038088	99
Es	-0.696773	-1.280721	0.896717	99
Es	-0.695822	1.269711	0.912949	99
Es	1.526253	-0.001447	0.123143	99
Es	1.859785	-0.000955	-0.001526	99
Es	1.505039	-0.005304	0.744646	99
40
Properties=species:S:1:pos:R:3:Z:I:1 energy=-266.26382611244725 field_type=dipole dipole="0.000000 0.000000 0.000000" charge=0
C	0.792495	1.199234	-0.317192	6
C	-0.680385	1.206534	0.148258	6
N	-1.416225	0.001684	-0.262432	7
C	-0.681075	-1.207856	0.132868	6
C	0.791115	-1.195646	-0.332412	6
N	1.526845	-0.001446	0.122938	7
H	0.839145	1.271944	-1.411152	1
H	1.300455	2.085345	0.078868	1
H	-1.183595	2.085764	-0.268082	1
H	-0.717905	1.300644	1.240758	1
H	-2.338325	-0.000066	0.169798	1
H	-0.719125	-1.315666	1.224128	1
H	-1.185315	-2.081125	-0.294572	1
H	1.298595	-2.086976	0.052688	1
H	0.838115	-1.254676	-1.427022	1
H	1.535185	-0.007696	1.142558	1
Es	1.132119	1.807504	-0.038088	99
Es	0.792511	1.199117	-0.317121	99
Es	0.817708	1.241618	-1.064370	99
Es	-1.025527	-1.808483	-0.157536	99
Es	1.859856	-0.000761	-0.001436	99
Es	0.044239	1.191958	-0.083796	99
Es	-0.696794	-1.280680	0.896727	99
Es	-1.447799	0.003843	-0.615070	99
Es	-1.093433	0.515723	-0.056800	99
Es	-1.963564	0.000424	0.024178	99
Es	1.504776	-0.005243	0.744803	99
Es	0.043250	-1.190725	-0.098859	99
Es	-1.024362	1.811107	-0.134478	99
Es	0.816490	-1.228704	-1.079964	99
Es	1.130364	-1.807560	-0.060882	99
Es	-0.695771	1.269718	0.912902	99
Es	-0.680430	1.206412	0.148214	99
Es	1.526261	-0.001451	0.123140	99
Es	-1.093865	-0.514786	-0.063136	99
Es	-1.416140	0.001682	-0.261864	99
Es	1.183335	-0.513476	-0.062807	99
Es	-0.681120	-1.207735	0.132826	99
Es	1.183756	0.513239	-0.056338	99
Es	0.791134	-1.195530	-0.332336	99
40
Properties=species:S:1:pos:R:3:Z:I:1 energy=-266.26382611244725 field_type=dipole dipole="0.000000 0.000000 0.000000" charge=0
C	0.792495	1.199234	-0.317192	6
C	-0.680385	1.206534	0.148258	6
N	-1.416225	0.001684	-0.262432	7
C	-0.681075	-1.207856	0.132868	6
C	0.791115	-1.195646	-0.332412	6
N	1.526845	-0.001446	0.122938	7
H	0.839145	1.271944	-1.411152	1
H	1.300455	2.085345	0.078868	1
H	-1.183595	2.085764	-0.268082	1
H	-0.717905	1.300644	1.240758	1
H	-2.338325	-0.000066	0.169798	1
H	-0.719125	-1.315666	1.224128	1
H	-1.185315	-2.081125	-0.294572	1
H	1.298595	-2.086976	0.052688	1
H	0.838115	-1.254676	-1.427022	1
H	1.535185	-0.007696	1.142558	1
Es	1.183215	-0.513592	-0.062749	99
Es	-1.447043	0.003866	-0.615460	99
Es	-0.695841	1.269754	0.912880	99
Es	1.132112	1.807488	-0.038134	99
Es	1.130351	-1.807597	-0.060930	99
Es	-1.093708	0.515560	-0.056231	99
Es	-0.681121	-1.207734	0.132826	99
Es	-1.416131	0.001679	-0.261895	99
Es	-1.094130	-0.514536	-0.062596	99
Es	0.792512	1.199118	-0.317122	99
Es	-1.025530	-1.808454	-0.157488	99
Es	-0.680430	1.206413	0.148214	99
Es	1.859478	-0.000860	-0.001420	99
Es	0.816507	-1.228662	-1.079924	99
Es	1.183886	0.513464	-0.056242	99
Es	1.505179	-0.005287	0.744705	99
Es	-0.696772	-1.280728	0.896658	99
Es	0.791132	-1.195531	-0.332341	99
Es	1.526261	-0.001447	0.123147	99
Es	0.044271	1.191961	-0.083735	99
Es	-1.024274	1.811103	-0.134496	99
Es	0.043266	-1.190762	-0.098923	99
Es	0.817703	1.241624	-1.064348	99
Es	-1.963902	0.000372	0.023511	99
40
Properties=species:S:1:pos:R:3:Z:I:1 energy=-266.26382611244725 field_type=dipole dipole="0.000000 0.000000 0.000000" charge=0
C	0.792495	1.199234	-0.317192	6
C	-0.680385	1.206534	0.148258	6
N	-1.416225	0.001684	-0.262432	7
C	-0.681075	-1.207856	0.132868	6
C	0.791115	-1.195646	-0.332412	6
N	1.526845	-0.001446	0.122938	7
H	0.839145	1.271944	-1.411152	1
H	1.300455	2.085345	0.078868	1
H	-1.183595	2.085764	-0.268082	1
H	-0.717905	1.300644	1.240758	1
H	-2.338325	-0.000066	0.169798	1
H	-0.719125	-1.315666	1.224128	1
H	-1.185315	-2.081125	-0.294572	1
H	1.298595	-2.086976	0.052688	1
H	0.838115	-1.254676	-1.427022	1
H	1.535185	-0.007696	1.142558	1
Es	0.791133	-1.195532	-0.332342	99
Es	1.132104	1.807506	-0.038195	99
Es	-0.681117	-1.207735	0.132827	99
Es	-1.093758	0.515548	-0.056164	99
Es	1.859296	-0.000818	-0.001219	99
Es	1.183951	0.513626	-0.056233	99
Es	-1.094179	-0.514542	-0.062627	99
Es	0.044295	1.191972	-0.083738	99
Es	-0.695862	1.269788	0.912832	99
Es	0.792510	1.199118	-0.317122	99
Es	1.505179	-0.005386	0.744696	99
Es	1.130333	-1.807600	-0.060906	99
Es	0.816540	-1.228697	-1.079888	99
Es	0.817715	1.241573	-1.064333	99
Es	-1.416105	0.001686	-0.261810	99
Es	1.183369	-0.513631	-0.062922	99
Es	0.043244	-1.190748	-0.098952	99
Es	-0.680430	1.206412	0.148214	99
Es	1.526248	-0.001444	0.123158	99
Es	-1.024249	1.811075	-0.134458	99
Es	-1.447082	0.003886	-0.615505	99
Es	-0.696784	-1.280755	0.896657	99
Es	-1.963871	0.000364	0.023442	99
Es	-1.025487	-1.808453	-0.157504	99
40
Properties=species:S:1:pos:R:3:Z:I:1 energy=-266.26382611244725 field_type=dipole dipole="0.000000 0.000000 0.000000" charge=0
C	0.792495	1.199234	-0.317192	6
C	-0.680385	1.206534	0.148258	6
N	-1.416225	0.001684	-0.262432	7
C	-0.681075	-1.207856	0.132868	6
C	0.791115	-1.195646	-0.332412	6
N	1.526845	-0.001446	0.122938	7
H	0.839145	1.271944	-1.411152	1
H	1.300455	2.085345	0.078868	1
H	-1.183595	2.085764	-0.268082	1
H	-0.717905	1.300644	1.240758	1
H	-2.338325	-0.000066	0.169798	1
H	-0.719125	-1.315666	1.224128	1
H	-1.185315	-2.081125	-0.294572	1
H	1.298595	-2.086976	0.052688	1
H	0.838115	-1.254676	-1.427022	1
H	1.535185	-0.007696	1.142558	1
Es	1.189872	-0.519715	-0.068962	99
Es	-1.094166	-0.514611	-0.062785	99
Es	-1.024247	1.811130	-0.134406	99
Es	1.681487	-0.001193	0.065058	99
Es	-0.696813	-1.280830	0.896595	99
Es	-0.680430	1.206414	0.148215	99
Es	-1.964096	0.000310	0.023279	99
Es	0.043183	-1.190710	-0.098718	99
Es	1.678477	-0.001260	0.065235	99
Es	1.132171	1.807709	-0.038176	99
Es	-1.093776	0.515662	-0.056301	99
Es	-1.025399	-1.808490	-0.157576	99
Es	1.517502	-0.005306	0.748596	99
Es	0.044171	1.191818	-0.083883	99
Es	1.130454	-1.807583	-0.061053	99
Es	0.817732	1.241506	-1.064107	99
Es	0.791132	-1.195533	-0.332342	99
Es	0.816487	-1.228588	-1.079864	99
Es	-0.695802	1.269735	0.912813	99
Es	-1.416132	0.001682	-0.261906	99
Es	-1.446930	0.003926	-0.614924	99
Es	0.792513	1.199119	-0.317123	99
Es	1.190722	0.519757	-0.062586	99
Es	-0.681120	-1.207735	0.132827	99
40
Properties=species:S:1:pos:R:3:Z:I:1 energy=-266.26382611244725 field_type=dipole dipole="0.000000 0.000000 0.000000" charge=0
C	0.792495	1.199234	-0.317192	6
C	-0.680385	1.206534	0.148258	6
N	-1.416225	0.001684	-0.262432	7
C	-0.681075	-1.207856	0.132868	6
C	0.791115	-1.195646	-0.332412	6
N	1.526845	-0.001446	0.122938	7
H	0.839145	1.271944	-1.411152	1
H	1.300455	2.085345	0.078868	1
H	-1.183595	2.085764	-0.268082	1
H	-0.717905	1.300644	1.240758	1
H	-2.338325	-0.000066	0.169798	1
H	-0.719125	-1.315666	1.224128	1
H	-1.185315	-2.081125	-0.294572	1
H	1.298595	-2.086976	0.052688	1
H	0.838115	-1.254676	-1.427022	1
H	1.535185	-0.007696	1.142558	1
Es	0.791132	-1.195533	-0.332342	99
Es	-1.447016	0.004046	-0.614757	99
Es	-1.093780	0.515702	-0.056256	99
Es	0.792511	1.199120	-0.317123	99
Es	-0.696760	-1.280763	0.896570	99
Es	0.816550	-1.228722	-1.079785	99
Es	1.130325	-1.807569	-0.061022	99
Es	1.183452	-0.513832	-0.062820	99
Es	1.132068	1.807450	-0.038231	99
Es	1.505528	-0.005206	0.744677	99
Es	1.526272	-0.001448	0.123138	99
Es	-0.695826	1.269790	0.912744	99
Es	-0.681120	-1.207736	0.132826	99
Es	-0.680430	1.206414	0.148215	99
Es	1.184037	0.513584	-0.056373	99
Es	-1.024260	1.811108	-0.134418	99
Es	-1.025493	-1.808441	-0.157417	99
Es	-1.964064	0.000310	0.023158	99
Es	0.044266	1.192052	-0.083731	99
Es	1.858887	-0.000809	-0.001159	99
Es	-1.094108	-0.514816	-0.062964	99
Es	-1.416126	0.001680	-0.261816	99
Es	0.043213	-1.190848	-0.098959	99
Es	0.817732	1.241679	-1.064248	99
40
Properties=species:S:1:pos:R:3:Z:I:1 energy=-266.26382611244725 field_type=dipole dipole="0.000000 0.000000 0.000000" charge=0
C	0.792495	1.199234	-0.317192	6
C	-0.680385	1.206534	0.148258	6
N	-1.416225	0.001684	-0.262432	7
C	-0.681075	-1.207856	0.132868	6
C	0.791115	-1.195646	-0.332412	6
N	1.526845	-0.001446	0.122938	7
H	0.839145	1.271944	-1.411152	1
H	1.300455	2.085345	0.078868	1
H	-1.183595	2.085764	-0.268082	1
H	-0.717905	1.300644	1.240758	1
H	-2.338325	-0.000066	0.169798	1
H	-0.719125	-1.315666	1.224128	1
H	-1.185315	-2.081125	-0.294572	1
H	1.298595	-2.086976	0.052688	1
H	0.838115	-1.254676	-1.427022	1
H	1.535185	-0.007696	1.142558	1
Es	-1.093846	0.515709	-0.056231	99
Es	0.816539	-1.228732	-1.079794	99
Es	-1.447030	0.003900	-0.615029	99
Es	1.858718	-0.000867	-0.001095	99
Es	-1.025485	-1.808429	-0.157403	99
Es	0.792511	1.199120	-0.317123	99
Es	1.132068	1.807449	-0.038247	99
Es	0.043255	-1.190869	-0.098946	99
Es	1.183453	-0.513839	-0.062849	99
Es	-1.024225	1.811069	-0.134395	99
Es	-1.963938	0.000329	0.023171	99
Es	0.817739	1.241692	-1.064212	99
Es	-0.680430	1.206414	0.148215	99
Es	-0.695848	1.269816	0.912745	99
Es	1.184126	0.513708	-0.056372	99
Es	1.505653	-0.005272	0.744650	99
Es	0.044266	1.192076	-0.083755	99
Es	1.526261	-0.001445	0.123145	99
Es	0.791132	-1.195533	-0.332342	99
Es	-1.416130	0.001681	-0.261864	99
Es	-1.094205	-0.514688	-0.062683	99
Es	-0.696774	-1.280783	0.896538	99
Es	1.130302	-1.807558	-0.061041	99
Es	-0.681120	-1.207736	0.132827	99
40
Properties=species:S:1:pos:R:3:Z:I:1 energy=-266.26382611244725 field_type=dipole dipole="0.000000 0.000000 0.000000" charge=0
C	0.792495	1.199234	-0.317192	6
C	-0.680385	1.206534	0.148258	6
N	-1.416225	0.001684	-0.262432	7
C	-0.681075	-1.207856	0.132868	6
C	0.791115	-1.195646	-0.332412	6
N	1.526845	-0.001446	0.122938	7
H	0.839145	1.271944	-1.411152	1
H	1.300455	2.085345	0.078868	1
H	-1.183595	2.085764	-0.268082	1
H	-0.717905	1.300644	1.240758	1
H	-2.338325	-0.000066	0.169798	1
H	-0.719125	-1.315666	1.224128	1
H	-1.185315	-2.081125	-0.294572	1
H	1.298595	-2.086976	0.052688	1
H	0.838115	-1.254676	-1.427022	1
H	1.535185	-0.007696	1.142558	1
Es	0.043254	-1.190860	-0.098954	99
Es	-0.696789	-1.280809	0.896495	99
Es	0.044196	1.192144	-0.083721	99
Es	-1.093842	0.515758	-0.056285	99
Es	-1.025480	-1.808425	-0.157407	99
Es	0.791132	-1.195533	-0.332342	99
Es	-1.447051	0.003895	-0.614866	99
Es	0.816569	-1.228784	-1.079752	99
Es	1.184063	0.513733	-0.056173	99
Es	1.132087	1.807446	-0.038379	99
Es	0.817733	1.241655	-1.064139	99
Es	1.130279	-1.807530	-0.061049	99
Es	1.183408	-0.513870	-0.062793	99
Es	-1.094229	-0.514771	-0.062714	99
Es	1.506106	-0.005305	0.744636	99
Es	-0.695820	1.269813	0.912698	99
Es	0.792512	1.199117	-0.317121	99
Es	-1.416127	0.001680	-0.261820	99
Es	-0.681120	-1.207736	0.132827	99
Es	-0.680423	1.206414	0.148213	99
Es	-1.024233	1.811083	-0.134351	99
Es	-1.963950	0.000341	0.023085	99
Es	1.858437	-0.000798	-0.001319	99
Es	1.526280	-0.001447	0.123138	99
40
Properties=species:S:1:pos:R:3:Z:I:1 energy=-266.26382611244725 field_type=dipole dipole="0.000000 0.000000 0.000000" charge=0
C	0.792495	1.199234	-0.317192	6
C	-0.680385	1.206534	0.148258	6
N	-1.416225	0.001684	-0.262432	7
C	-0.681075	-1.207856	0.132868	6
C	0.791115	-1.195646	-0.332412	6
N	1.526845	-0.001446	0.122938	7
H	0.839145	1.271944	-1.411152	1
H	1.300455	2.085345	0.078868	1
H	-1.183595	2.085764	-0.268082	1
H	-0.717905	1.300644	1.240758	1
H	-2.338325	-0.000066	0.169798	1
H	-0.719125	-1.315666	1.224128	1
H	-1.185315	-2.081125	-0.294572	1
H	1.298595	-2.086976	0.052688	1
H	0.838115	-1.254676	-1.427022	1
H	1.535185	-0.007696	1.142558	1
Es	0.043260	-1.190920	-0.098949	99
Es	0.816552	-1.228758	-1.079742	99
Es	0.044272	1.192124	-0.083760	99
Es	1.505809	-0.005278	0.744609	99
Es	0.792511	1.199120	-0.317124	99
Es	-1.963813	0.000338	0.023303	99
Es	1.130277	-1.807541	-0.061092	99
Es	-1.024207	1.811058	-0.134351	99
Es	-1.093758	0.515908	-0.056537	99
Es	-0.696776	-1.280802	0.896474	99
Es	-0.681120	-1.207736	0.132827	99
Es	1.184226	0.513808	-0.056406	99
Es	-0.695851	1.269834	0.912687	99
Es	0.817751	1.241718	-1.064160	99
Es	1.183576	-0.513960	-0.062922	99
Es	1.132044	1.807432	-0.038299	99
Es	-1.025458	-1.808421	-0.157352	99
Es	1.858419	-0.000838	-0.000916	99
Es	-1.094268	-0.514684	-0.062779	99
Es	-1.416143	0.001689	-0.261824	99
Es	0.791132	-1.195534	-0.332342	99
Es	-1.447281	0.003688	-0.614795	99
Es	-0.680429	1.206415	0.148215	99
Es	1.526268	-0.001448	0.123141	99
40
Properties=species:S:1:pos:R:3:Z:I:1 energy=-266.26382611244725 field_type=dipole dipole="0.000000 0.000000 0.000000" charge=0
C	0.792495	1.199234	-0.317192	6
C	-0.680385	1.206534	0.148258	6
N	-1.416225	0.001684	-0.262432	7
C	-0.681075	-1.207856	0.132868	6
C	0.791115	-1.195646	-0.332412	6
N	1.526845	-0.001446	0.122938	7
H	0.839145	1.271944	-1.411152	1
H	1.300455	2.085345	0.078868	1
H	-1.183595	2.085764	-0.268082	1
H	-0.717905	1.300644	1.240758	1
H	-2.338325	-0.000066	0.169798	1
H	-0.719125	-1.315666	1.224128	1
H	-1.185315	-2.081125	-0.294572	1
H	1.298595	-2.086976	0.052688	1
H	0.838115	-1.254676	-1.427022	1
H	1.535185	-0.007696	1.142558	1
Es	1.184298	0.513878	-0.056455	99
Es	1.526262	-0.001444	0.123141	99
Es	0.792511	1.199121	-0.317124	99
Es	1.858202	-0.000839	-0.000817	99
Es	0.044254	1.192108	-0.083725	99
Es	-0.696799	-1.280837	0.896444	99
Es	1.130263	-1.807567	-0.061054	99
Es	0.817763	1.241743	-1.064127	99
Es	-0.680429	1.206416	0.148215	99
Es	-1.094345	-0.514783	-0.062798	99
Es	1.505922	-0.005285	0.744612	99
Es	-1.024200	1.811076	-0.134398	99
Es	-1.416131	0.001688	-0.261808	99
Es	-1.025432	-1.808411	-0.157366	99
Es	0.816561	-1.228786	-1.079710	99
Es	1.183643	-0.514019	-0.062998	99
Es	1.132026	1.807420	-0.038320	99
Es	-1.446850	0.004110	-0.614942	99
Es	0.791132	-1.195534	-0.332342	99
Es	-1.093963	0.515657	-0.055843	99
Es	-0.681120	-1.207737	0.132827	99
Es	-1.964000	0.000243	0.022823	99
Es	-0.695860	1.269876	0.912644	99
Es	0.043283	-1.190879	-0.098972	99
40
Properties=species:S:1:pos:R:3:Z:I:1 energy=-266.26382611244725 field_type=dipole dipole="0.000000 0.000000 0.000000" charge=0
C	0.792495	1.199234	-0.317192	6
C	-0.680385	1.206534	0.148258	6
N	-1.416225	0.001684	-0.262432	7
C	-0.681075	-1.207856	0.132868	6
C	0.791115	-1.195646	-0.332412	6
N	1.526845	-0.001446	0.122938	7
H	0.839145	1.271944	-1.411152	1
H	1.300455	2.085345	0.078868	1
H	-1.183595	2.085764	-0.268082	1
H	-0.717905	1.300644	1.240758	1
H	-2.338325	-0.000066	0.169798	1
H	-0.719125	-1.315666	1.224128	1
H	-1.185315	-2.081125	-0.294572	1
H	1.298595	-2.086976	0.052688	1
H	0.838115	-1.254676	-1.427022	1
H	1.535185	-0.007696	1.142558	1
Es	-1.447029	0.003900	-0.614574	99
Es	1.526297	-0.001458	0.123125	99
Es	1.130279	-1.807584	-0.061086	99
Es	-1.094325	-0.514904	-0.062696	99
Es	-0.695883	1.269874	0.912596	99
Es	-1.024183	1.811030	-0.134301	99
Es	-1.025487	-1.808423	-0.157268	99
Es	0.044306	1.192167	-0.083730	99
Es	0.817716	1.241721	-1.064059	99
Es	0.816605	-1.228765	-1.079642	99
Es	-0.696710	-1.280789	0.896413	99
Es	-1.963948	0.000361	0.022801	99
Es	-1.416127	0.001680	-0.261828	99
Es	0.792512	1.199121	-0.317124	99
Es	-0.680430	1.206416	0.148216	99
Es	-1.093957	0.515875	-0.056282	99
Es	1.505805	-0.005136	0.744553	99
Es	0.043240	-1.190951	-0.099123	99
Es	1.132026	1.807456	-0.038405	99
Es	1.184979	0.514213	-0.056830	99
Es	1.183130	-0.513776	-0.062715	99
Es	0.791132	-1.195534	-0.332342	99
Es	-0.681117	-1.207741	0.132828	99
Es	1.858162	-0.001540	-0.000619	99
40
Properties=species:S:1:pos:R:3:Z:I:1 energy=-266.26382611244725 field_type=dipole dipole="0.000000 0.000000 0.000000" charge=0
C	0.792495	1.199234	-0.317192	6
C	-0.680385	1.206534	0.148258	6
N	-1.416225	0.001684	-0.262432	7
C	-0.681075	-1.207856	0.132868	6
C	0.791115	-1.195646	-0.332412	6
N	1.526845	-0.001446	0.122938	7
H	0.839145	1.271944	-1.411152	1
H	1.300455	2.085345	0.078868	1
H	-1.183595	2.085764	-0.268082	1
H	-0.717905	1.300644	1.240758	1
H	-2.338325	-0.000066	0.169798	1
H	-0.719125	-1.315666	1.224128	1
H	-1.185315	-2.081125	-0.294572	1
H	1.298595	-2.086976	0.052688	1
H	0.838115	-1.254676	-1.427022	1
H	1.535185	-0.007696	1.142558	1
Es	-1.094019	0.515602	-0.055617	99
Es	-1.963835	0.000123	0.022926	99
Es	1.132016	1.807407	-0.038380	99
Es	-1.094243	-0.514922	-0.063195	99
Es	1.184301	0.513922	-0.056383	99
Es	0.817750	1.241756	-1.064085	99
Es	-0.680430	1.206414	0.148215	99
Es	1.130261	-1.807522	-0.061183	99
Es	0.816554	-1.228777	-1.079665	99
Es	0.791131	-1.195535	-0.332343	99
Es	1.857877	-0.000832	-0.000922	99
Es	0.043292	-1.191076	-0.098952	99
Es	-0.695870	1.269904	0.912587	99
Es	-1.447075	0.004448	-0.614791	99
Es	1.526270	-0.001447	0.123144	99
Es	-1.025494	-1.808369	-0.157287	99
Es	0.044309	1.192236	-0.083757	99
Es	1.183652	-0.514073	-0.062897	99
Es	1.506307	-0.005288	0.744601	99
Es	-1.416139	0.001682	-0.261898	99
Es	-0.696803	-1.280828	0.896388	99
Es	-1.024208	1.811002	-0.134304	99
Es	-0.681121	-1.207735	0.132827	99
Es	0.792510	1.199122	-0.317124	99
40
Properties=species:S:1:pos:R:3:Z:I:1 energy=-266.26382611244725 field_type=dipole dipole="0.000000 0.000000 0.000000" charge=0
C	0.792495	1.199234	-0.317192	6
C	-0.680385	1.206534	0.148258	6
N	-1.416225	0.001684	-0.262432	7
C	-0.681075	-1.207856	0.132868	6
C	0.791115	-1.195646	-0.332412	6
N	1.526845	-0.001446	0.122938	7
H	0.839145	1.271944	-1.411152	1
H	1.300455	2.085345	0.078868	1
H	-1.183595	2.085764	-0.268082	1
H	-0.717905	1.300644	1.240758	1
H	-2.338325	-0.000066	0.169798	1
H	-0.719125	-1.315666	1.224128	1
H	-1.185315	-2.081125	-0.294572	1
H	1.298595	-2.086976	0.052688	1
H	0.838115	-1.254676	-1.427022	1
H	1.535185	-0.007696	1.142558	1
Es	-1.094351	-0.514914	-0.062768	99
Es	-1.093985	0.515948	-0.056306	99
Es	0.816579	-1.228824	-1.079634	99
Es	0.043278	-1.191026	-0.098975	99
Es	0.792511	1.199122	-0.317124	99
Es	-1.025432	-1.808383	-0.157275	99
Es	-0.681119	-1.207738	0.132827	99
Es	-0.680429	1.206417	0.148216	99
Es	-1.963985	0.000327	0.022705	99
Es	1.506248	-0.005377	0.744528	99
Es	0.791132	-1.195535	-0.332343	99
Es	1.131997	1.807385	-0.038380	99
Es	1.857956	-0.000842	-0.000880	99
Es	-0.696784	-1.280858	0.896352	99
Es	-1.447022	0.003896	-0.614371	99
Es	1.526259	-0.001447	0.123151	99
Es	0.044301	1.192228	-0.083780	99
Es	0.817768	1.241802	-1.064054	99
Es	-1.024174	1.811020	-0.134258	99
Es	-1.416127	0.001680	-0.261830	99
Es	-0.695855	1.269885	0.912566	99
Es	1.130233	-1.807498	-0.061184	99
Es	1.184313	0.513954	-0.056339	99
Es	1.183679	-0.514009	-0.062938	99
40
Properties=species:S:1:pos:R:3:Z:I:1 energy=-266.26382611244725 field_type=dipole dipole="0.000000 0.000000 0.000000" charge=0
C	0.792495	1.199234	-0.317192	6
C	-0.680385	1.206534	0.148258	6
N	-1.416225	0.001684	-0.262432	7
C	-0.681075	-1.207856	0.132868	6
C	0.791115	-1.195646	-0.332412	6
N	1.526845	-0.001446	0.122938	7
H	0.839145	1.271944	-1.411152	1
H	1.300455	2.085345	0.078868	1
H	-1.183595	2.085764	-0.268082	1
H	-0.717905	1.300644	1.240758	1
H	-2.338325	-0.000066	0.169798	1
H	-0.719125	-1.315666	1.224128	1
H	-1.185315	-2.081125	-0.294572	1
H	1.298595	-2.086976	0.052688	1
H	0.838115	-1.254676	-1.427022	1
H	1.535185	-0.007696	1.142558	1
Es	1.506472	-0.005281	0.744587	99
Es	1.184421	0.514039	-0.056483	99
Es	-1.094475	-0.514915	-0.062687	99
Es	0.816603	-1.228827	-1.079596	99
Es	-1.446929	0.003804	-0.614284	99
Es	-1.416132	0.001706	-0.261892	99
Es	-0.681119	-1.207739	0.132828	99
Es	-1.025442	-1.808375	-0.157209	99
Es	0.792511	1.199123	-0.317124	99
Es	1.130235	-1.807491	-0.061209	99
Es	0.817796	1.241798	-1.064010	99
Es	-1.964028	0.000371	0.022570	99
Es	-0.695872	1.269919	0.912529	99
Es	-0.696733	-1.280843	0.896341	99
Es	1.131997	1.807391	-0.038397	99
Es	0.043239	-1.191074	-0.099047	99
Es	0.791132	-1.195536	-0.332343	99
Es	-0.680430	1.206414	0.148216	99
Es	0.044269	1.192218	-0.083765	99
Es	1.183771	-0.514182	-0.062968	99
Es	1.526271	-0.001450	0.123140	99
Es	-1.024151	1.811030	-0.134287	99
Es	-1.093951	0.515953	-0.056267	99
Es	1.857537	-0.000842	-0.000734	99
40
Properties=species:S:1:pos:R:3:Z:I:1 energy=-266.26382611244725 field_type=dipole dipole="0.000000 0.000000 0.000000" charge=0
C	0.792495	1.199234	-0.317192	6
C	-0.680385	1.206534	0.148258	6
N	-1.416225	0.001684	-0.262432	7
C	-0.681075	-1.207856	0.132868	6
C	0.791115	-1.195646	-0.332412	6
N	1.526845	-0.001446	0.122938	7
H	0.839145	1.271944	-1.411152	1
H	1.300455	2.085345	0.078868	1
H	-1.183595	2.085764	-0.268082	1
H	-0.717905	1.300644	1.240758	1
H	-2.338325	-0.000066	0.169798	1
H	-0.719125	-1.315666	1.224128	1
H	-1.185315	-2.081125	-0.294572	1
H	1.298595	-2.086976	0.052688	1
H	0.838115	-1.254676	-1.427022	1
H	1.535185	-0.007696	1.142558	1
Es	0.043294	-1.191084	-0.098992	99
Es	0.791131	-1.195536	-0.332343	99
Es	1.857556	-0.000705	-0.000710	99
Es	1.526298	-0.001461	0.123123	99
Es	-1.446957	0.003929	-0.614132	99
Es	1.131984	1.807361	-0.038440	99
Es	-0.680430	1.206417	0.148217	99
Es	-1.964026	0.000323	0.022495	99
Es	0.792511	1.199123	-0.317125	99
Es	-0.681119	-1.207739	0.132828	99
Es	-0.696788	-1.280886	0.896286	99
Es	0.816587	-1.228868	-1.079565	99
Es	-1.094429	-0.514976	-0.062796	99
Es	0.817806	1.241806	-1.064004	99
Es	0.044270	1.192252	-0.083715	99
Es	-1.094050	0.515961	-0.056259	99
Es	-1.024105	1.811009	-0.134278	99
Es	-1.416124	0.001687	-0.261867	99
Es	1.183940	-0.514202	-0.062959	99
Es	-0.695907	1.269949	0.912504	99
Es	1.506485	-0.005329	0.744497	99
Es	-1.025395	-1.808367	-0.157227	99
Es	1.130180	-1.807480	-0.061253	99
Es	1.184280	0.514028	-0.056378	99
40
Properties=species:S:1:pos:R:3:Z:I:1 energy=-266.26382611244725 field_type=dipole dipole="0.000000 0.000000 0.000000" charge=0
C	0.792495	1.199234	-0.317192	6
C	-0.680385	1.206534	0.148258	6
N	-1.416225	0.001684	-0.262432	7
C	-0.681075	-1.207856	0.132868	6
C	0.791115	-1.195646	-0.332412	6
N	1.526845	-0.001446	0.122938	7
H	0.839145	1.271944	-1.411152	1
H	1.300455	2.085345	0.078868	1
H	-1.183595	2.085764	-0.268082	1
H	-0.717905	1.300644	1.240758	1
H	-2.338325	-0.000066	0.169798	1
H	-0.719125	-1.315666	1.224128	1
H	-1.185315	-2.081125	-0.294572	1
H	1.298595	-2.086976	0.052688	1
H	0.838115	-1.254676	-1.427022	1
H	1.535185	-0.007696	1.142558	1
Es	1.184481	0.514057	-0.056525	99
Es	1.183890	-0.514262	-0.062997	99
Es	-1.416121	0.001675	-0.261832	99
Es	0.817787	1.241837	-1.063987	99
Es	1.506464	-0.005255	0.744524	99
Es	-1.446683	0.003932	-0.614195	99
Es	-0.695854	1.269932	0.912470	99
Es	0.816592	-1.228856	-1.079566	99
Es	-0.681119	-1.207740	0.132828	99
Es	-1.094116	0.515933	-0.056093	99
Es	-0.680430	1.206415	0.148215	99
Es	1.130204	-1.807478	-0.061247	99
Es	0.043292	-1.191071	-0.098983	99
Es	-1.025405	-1.808368	-0.157220	99
Es	0.792510	1.199141	-0.317121	99
Es	-0.696782	-1.280894	0.896259	99
Es	1.131957	1.807342	-0.038444	99
Es	-1.964182	0.000360	0.022210	99
Es	-1.024148	1.811002	-0.134207	99
Es	0.791131	-1.195536	-0.332344	99
Es	1.857388	-0.000819	-0.000543	99
Es	0.044322	1.192278	-0.083789	99
Es	-1.094528	-0.514972	-0.062599	99
Es	1.526339	-0.001443	0.123092	99
40
Properties=species:S:1:pos:R:3:Z:I:1 energy=-266.26382611244725 field_type=dipole dipole="0.000000 0.000000 0.000000" charge=0
C	0.792495	1.199234	-0.317192	6
C	-0.680385	1.206534	0.148258	6
N	-1.416225	0.001684	-0.262432	7
C	-0.681075	-1.207856	0.132868	6
C	0.791115	-1.195646	-0.332412	6
N	1.526845	-0.001446	0.122938	7
H	0.839145	1.271944	-1.411152	1
H	1.300455	2.085345	0.078868	1
H	-1.183595	2.085764	-0.268082	1
H	-0.717905	1.300644	1.240758	1
H	-2.338325	-0.000066	0.169798	1
H	-0.719125	-1.315666	1.224128	1
H	-1.185315	-2.081125	-0.294572	1
H	1.298595	-2.086976	0.052688	1
H	0.838115	-1.254676	-1.427022	1
H	1.535185	-0.007696	1.142558	1
Es	-0.695861	1.269936	0.912447	99
Es	-1.094081	0.516070	-0.056308	99
Es	0.817777	1.241780	-1.063925	99
Es	-1.446983	0.003885	-0.614014	99
Es	1.506823	-0.005279	0.744603	99
Es	-1.025451	-1.808435	-0.157252	99
Es	1.184537	0.514201	-0.056601	99
Es	-1.416127	0.001680	-0.261836	99
Es	1.183918	-0.514342	-0.063059	99
Es	-0.696748	-1.280861	0.896233	99
Es	-0.681119	-1.207740	0.132828	99
Es	0.043228	-1.191054	-0.098949	99
Es	0.791131	-1.195536	-0.332343	99
Es	0.044337	1.192251	-0.083851	99
Es	1.130197	-1.807469	-0.061258	99
Es	1.526293	-0.001447	0.123134	99
Es	0.792511	1.199123	-0.317125	99
Es	1.132019	1.807461	-0.038404	99
Es	1.856960	-0.000873	-0.000557	99
Es	-1.964024	0.000332	0.022420	99
Es	-1.024140	1.810997	-0.134192	99
Es	-1.094384	-0.515020	-0.062751	99
Es	-0.680428	1.206418	0.148216	99
Es	0.816610	-1.228868	-1.079549	99
