34
Properties=species:S:1:pos:R:3:Z:I:1 energy=-263.92860406228743 field_type=dipole dipole="0.000000 0.000000 0.000000" charge=0
C	-1.883202	0.246511	0.001351	6
C	-0.403622	0.153251	0.000141	6
N	0.351897	1.258191	-0.005179	7
N	1.611038	0.792971	-0.004889	7
C	1.686237	-0.568149	0.000141	6
C	0.388638	-1.018179	0.003461	6
H	-2.222142	1.287601	0.015341	1
H	-2.295362	-0.255569	0.882311	1
H	-2.294922	-0.231989	-0.892839	1
H	2.370968	1.464471	-0.008379	1
H	2.635877	-1.083049	0.000861	1
H	0.054598	-2.046059	0.007681	1
Es	2.064435	1.183683	-0.007060	99
Es	-2.106662	0.946011	0.010802	99
Es	-0.051330	-0.473189	0.001779	99
Es	0.070662	0.770715	0.272636	99
Es	1.616660	0.397036	-0.267013	99
Es	0.913896	-0.789496	-0.296635	99
Es	0.388638	-1.018209	0.003463	99
Es	-1.142305	0.197066	0.000809	99
Es	0.281603	1.630073	-0.006826	99
Es	2.326520	-0.909678	0.000600	99
Es	0.352129	1.257608	-0.005174	99
Es	0.069655	0.768530	-0.277914	99
Es	0.914223	-0.787095	0.300714	99
Es	1.616057	0.402107	0.260526	99
Es	-2.151512	-0.081341	-0.601636	99
Es	1.610978	0.792934	-0.004826	99
Es	0.157821	-1.711336	0.006335	99
Es	1.016297	1.017608	-0.005339	99
Es	-2.152064	-0.097700	0.595407	99
Es	1.686343	-0.567959	0.000141	99
Es	-1.883152	0.246489	0.001351	99
Es	-0.403643	0.153312	0.000140	99
34
Properties=species:S:1:pos:R:3:Z:I:1 energy=-263.92860406228743 field_type=dipole dipole="0.000000 0.000000 0.000000" charge=0
C	-1.883202	0.246511	0.001351	6
C	-0.403622	0.153251	0.000141	6
N	0.351897	1.258191	-0.005179	7
N	1.611038	0.792971	-0.004889	7
C	1.686237	-0.568149	0.000141	6
C	0.388638	-1.018179	0.003461	6
H	-2.222142	1.287601	0.015341	1
H	-2.295362	-0.255569	0.882311	1
H	-2.294922	-0.231989	-0.892839	1
H	2.370968	1.464471	-0.008379	1
H	2.635877	-1.083049	0.000861	1
H	0.054598	-2.046059	0.007681	1
Es	0.281628	1.629859	-0.006935	99
Es	-1.883152	0.246488	0.001351	99
Es	0.071080	0.770715	0.272938	99
Es	-2.152077	-0.097525	0.595484	99
Es	1.610975	0.792952	-0.005004	99
Es	-0.403644	0.153310	0.000142	99
Es	-2.106585	0.945911	0.010727	99
Es	1.016345	1.017791	-0.007070	99
Es	0.352126	1.257643	-0.005186	99
Es	-2.151591	-0.081449	-0.601697	99
Es	2.064631	1.183575	-0.008710	99
Es	0.916909	-0.790602	-0.295912	99
Es	0.157793	-1.711328	0.006275	99
Es	0.388639	-1.018208	0.003455	99
Es	1.686342	-0.567961	0.000146	99
Es	-1.142352	0.197125	0.000867	99
Es	-0.051167	-0.473364	0.000235	99
Es	1.620084	0.387711	-0.264918	99
Es	2.326620	-0.909783	0.000536	99
Es	1.612406	0.411313	0.261608	99
Es	0.069053	0.768624	-0.277562	99
Es	0.911185	-0.785629	0.301509	99
34
Properties=species:S:1:pos:R:3:Z:I:1 energy=-263.92860406228743 field_type=dipole dipole="0.000000 0.000000 0.000000" charge=0
C	-1.883202	0.246511	0.001351	6
C	-0.403622	0.153251	0.000141	6
N	0.351897	1.258191	-0.005179	7
N	1.611038	0.792971	-0.004889	7
C	1.686237	-0.568149	0.000141	6
C	0.388638	-1.018179	0.003461	6
H	-2.222142	1.287601	0.015341	1
H	-2.295362	-0.255569	0.882311	1
H	-2.294922	-0.231989	-0.892839	1
H	2.370968	1.464471	-0.008379	1
H	2.635877	-1.083049	0.000861	1
H	0.054598	-2.046059	0.007681	1
Es	0.281539	1.629849	-0.006674	99
Es	2.326697	-0.909858	0.000583	99
Es	0.352115	1.257612	-0.005177	99
Es	0.069296	0.768366	-0.277610	99
Es	-2.152095	-0.097505	0.595520	99
Es	0.070484	0.770423	0.272555	99
Es	-2.151599	-0.081449	-0.601715	99
Es	-1.883152	0.246489	0.001351	99
Es	-2.106547	0.945900	0.010706	99
Es	1.686342	-0.567961	0.000137	99
Es	0.912827	-0.786162	0.300985	99
Es	1.616432	0.397601	-0.266554	99
Es	1.016317	1.017834	-0.005435	99
Es	2.064618	1.183565	-0.007276	99
Es	1.610982	0.792951	-0.004913	99
Es	0.388638	-1.018209	0.003461	99
Es	-0.403642	0.153312	0.000140	99
Es	-1.142449	0.197179	0.000880	99
Es	-0.051189	-0.473389	0.001204	99
Es	0.157843	-1.711352	0.006182	99
Es	0.915539	-0.789707	-0.296345	99
Es	1.616254	0.401683	0.260273	99
34
Properties=species:S:1:pos:R:3:Z:I:1 energy=-263.92860406228743 field_type=dipole dipole="0.000000 0.000000 0.000000" charge=0
C	-1.883202	0.246511	0.001351	6
C	-0.403622	0.153251	0.000141	6
N	0.351897	1.258191	-0.005179	7
N	1.611038	0.792971	-0.004889	7
C	1.686237	-0.568149	0.000141	6
C	0.388638	-1.018179	0.003461	6
H	-2.222142	1.287601	0.015341	1
H	-2.295362	-0.255569	0.882311	1
H	-2.294922	-0.231989	-0.892839	1
H	2.370968	1.464471	-0.008379	1
H	2.635877	-1.083049	0.000861	1
H	0.054598	-2.046059	0.007681	1
Es	-1.142530	0.197230	0.000897	99
Es	0.069435	0.768533	-0.277364	99
Es	2.064631	1.183501	-0.008089	99
Es	-0.403642	0.153312	0.000141	99
Es	2.326775	-0.909949	0.000614	99
Es	1.686343	-0.567961	0.000137	99
Es	1.612811	0.410238	0.261211	99
Es	1.016410	1.017884	-0.007390	99
Es	1.610982	0.792941	-0.004886	99
Es	0.388640	-1.018208	0.003460	99
Es	0.070347	0.770154	0.272240	99
Es	-2.106537	0.945895	0.010680	99
Es	0.352112	1.257611	-0.005177	99
Es	0.157928	-1.711416	0.006284	99
Es	-0.051175	-0.473451	0.001132	99
Es	-2.152061	-0.097475	0.595564	99
Es	0.915229	-0.789527	-0.296175	99
Es	1.619899	0.388913	-0.265135	99
Es	-1.883152	0.246489	0.001351	99
Es	0.913061	-0.785952	0.301001	99
Es	-2.151625	-0.081496	-0.601708	99
Es	0.281370	1.629904	-0.006510	99
34
Properties=species:S:1:pos:R:3:Z:I:1 energy=-263.92860406228743 field_type=dipole dipole="0.000000 0.000000 0.000000" charge=0
C	-1.883202	0.246511	0.001351	6
C	-0.403622	0.153251	0.000141	6
N	0.351897	1.258191	-0.005179	7
N	1.611038	0.792971	-0.004889	7
C	1.686237	-0.568149	0.000141	6
C	0.388638	-1.018179	0.003461	6
H	-2.222142	1.287601	0.015341	1
H	-2.295362	-0.255569	0.882311	1
H	-2.294922	-0.231989	-0.892839	1
H	2.370968	1.464471	-0.008379	1
H	2.635877	-1.083049	0.000861	1
H	0.054598	-2.046059	0.007681	1
Es	0.914397	-0.788812	-0.296566	99
Es	0.352108	1.257610	-0.005176	99
Es	0.070434	0.770341	0.271897	99
Es	1.610982	0.792940	-0.004904	99
Es	0.069238	0.768121	-0.277285	99
Es	1.016425	1.018004	-0.004907	99
Es	0.913821	-0.786175	0.300670	99
Es	-2.106619	0.945891	0.010627	99
Es	1.615790	0.399283	-0.266761	99
Es	2.326853	-0.910052	0.000624	99
Es	0.281213	1.629889	-0.006665	99
Es	-0.051097	-0.473616	0.001705	99
Es	-1.142603	0.197385	0.000947	99
Es	-0.403642	0.153312	0.000140	99
Es	1.617141	0.399764	0.259958	99
Es	1.686343	-0.567963	0.000137	99
Es	-1.883150	0.246490	0.001351	99
Es	0.388649	-1.018204	0.003449	99
Es	-2.151606	-0.081656	-0.601714	99
Es	2.064625	1.183452	-0.007056	99
Es	0.157924	-1.711437	0.006234	99
Es	-2.151977	-0.097397	0.595571	99
34
Properties=species:S:1:pos:R:3:Z:I:1 energy=-263.92860406228743 field_type=dipole dipole="0.000000 0.000000 0.000000" charge=0
C	-1.883202	0.246511	0.001351	6
C	-0.403622	0.153251	0.000141	6
N	0.351897	1.258191	-0.005179	7
N	1.611038	0.792971	-0.004889	7
C	1.686237	-0.568149	0.000141	6
C	0.388638	-1.018179	0.003461	6
H	-2.222142	1.287601	0.015341	1
H	-2.295362	-0.255569	0.882311	1
H	-2.294922	-0.231989	-0.892839	1
H	2.370968	1.464471	-0.008379	1
H	2.635877	-1.083049	0.000861	1
H	0.054598	-2.046059	0.007681	1
Es	-2.152087	-0.097596	0.595532	99
Es	0.913445	-0.785761	0.300831	99
Es	-1.142686	0.197308	0.000910	99
Es	1.016520	1.018038	-0.006094	99
Es	-2.106554	0.945919	0.010739	99
Es	0.070244	0.770078	0.271826	99
Es	1.610970	0.792959	-0.004766	99
Es	0.915071	-0.789020	-0.296302	99
Es	2.064664	1.183446	-0.007910	99
Es	1.686343	-0.567961	0.000142	99
Es	-0.403642	0.153312	0.000140	99
Es	0.069074	0.768117	-0.277191	99
Es	-0.051043	-0.473569	0.001370	99
Es	0.281198	1.629744	-0.006570	99
Es	0.388643	-1.018207	0.003470	99
Es	0.352093	1.257614	-0.005177	99
Es	1.618589	0.392133	-0.265667	99
Es	0.157917	-1.711425	0.006276	99
Es	2.326916	-0.910149	0.000613	99
Es	-1.883152	0.246487	0.001352	99
Es	1.614279	0.407119	0.260497	99
Es	-2.151553	-0.081417	-0.601743	99
34
Properties=species:S:1:pos:R:3:Z:I:1 energy=-263.92860406228743 field_type=dipole dipole="0.000000 0.000000 0.000000" charge=0
C	-1.883202	0.246511	0.001351	6
C	-0.403622	0.153251	0.000141	6
N	0.351897	1.258191	-0.005179	7
N	1.611038	0.792971	-0.004889	7
C	1.686237	-0.568149	0.000141	6
C	0.388638	-1.018179	0.003461	6
H	-2.222142	1.287601	0.015341	1
H	-2.295362	-0.255569	0.882311	1
H	-2.294922	-0.231989	-0.892839	1
H	2.370968	1.464471	-0.008379	1
H	2.635877	-1.083049	0.000861	1
H	0.054598	-2.046059	0.007681	1
Es	0.352123	1.257611	-0.005178	99
Es	0.070203	0.770265	0.271975	99
Es	0.068879	0.768205	-0.276949	99
Es	-1.142689	0.197381	0.001027	99
Es	-0.050978	-0.473786	0.001378	99
Es	-0.403641	0.153312	0.000142	99
Es	1.613459	0.409758	0.260761	99
Es	2.064743	1.183423	-0.008639	99
Es	-2.151481	-0.081475	-0.601768	99
Es	1.016526	1.017947	-0.006327	99
Es	0.157982	-1.711504	0.006202	99
Es	-2.152156	-0.097547	0.595476	99
Es	0.913663	-0.785676	0.300936	99
Es	-2.106597	0.945903	0.010687	99
Es	2.326981	-0.910166	0.000619	99
Es	0.281276	1.629574	-0.006959	99
Es	1.610983	0.792948	-0.004882	99
Es	-1.883153	0.246488	0.001351	99
Es	0.388641	-1.018207	0.003460	99
Es	0.914613	-0.788658	-0.296318	99
Es	1.619527	0.389333	-0.264861	99
Es	1.686344	-0.567961	0.000143	99
34
Properties=species:S:1:pos:R:3:Z:I:1 energy=-263.92860406228743 field_type=dipole dipole="0.000000 0.000000 0.000000" charge=0
C	-1.883202	0.246511	0.001351	6
C	-0.403622	0.153251	0.000141	6
N	0.351897	1.258191	-0.005179	7
N	1.611038	0.792971	-0.004889	7
C	1.686237	-0.568149	0.000141	6
C	0.388638	-1.018179	0.003461	6
H	-2.222142	1.287601	0.015341	1
H	-2.295362	-0.255569	0.882311	1
H	-2.294922	-0.231989	-0.892839	1
H	2.370968	1.464471	-0.008379	1
H	2.635877	-1.083049	0.000861	1
H	0.054598	-2.046059	0.007681	1
Es	-2.152050	-0.097568	0.595568	99
Es	0.913465	-0.785466	0.300854	99
Es	0.070183	0.769764	0.271469	99
Es	-0.403642	0.153312	0.000141	99
Es	1.016774	1.018227	-0.008367	99
Es	2.327033	-0.910296	0.000557	99
Es	0.915070	-0.788727	-0.296111	99
Es	2.064857	1.183365	-0.007937	99
Es	-2.151556	-0.081483	-0.601782	99
Es	-1.142847	0.197436	0.000923	99
Es	-2.106545	0.945918	0.010725	99
Es	0.157962	-1.711467	0.006290	99
Es	0.068837	0.768322	-0.276998	99
Es	0.352114	1.257612	-0.005177	99
Es	1.686342	-0.567962	0.000140	99
Es	1.620988	0.386664	-0.264244	99
Es	0.388642	-1.018207	0.003461	99
Es	-0.050950	-0.473706	0.001300	99
Es	1.611748	0.412504	0.261059	99
Es	0.280995	1.629486	-0.006060	99
Es	-1.883153	0.246489	0.001351	99
Es	1.610981	0.792955	-0.004883	99
34
Properties=species:S:1:pos:R:3:Z:I:1 energy=-263.92860406228743 field_type=dipole dipole="0.000000 0.000000 0.000000" charge=0
C	-1.883202	0.246511	0.001351	6
C	-0.403622	0.153251	0.000141	6
N	0.351897	1.258191	-0.005179	7
N	1.611038	0.792971	-0.004889	7
C	1.686237	-0.568149	0.000141	6
C	0.388638	-1.018179	0.003461	6
H	-2.222142	1.287601	0.015341	1
H	-2.295362	-0.255569	0.882311	1
H	-2.294922	-0.231989	-0.892839	1
H	2.370968	1.464471	-0.008379	1
H	2.635877	-1.083049	0.000861	1
H	0.054598	-2.046059	0.007681	1
Es	0.388642	-1.018206	0.003462	99
Es	0.915144	-0.785962	0.300393	99
Es	0.069829	0.769814	0.271113	99
Es	-1.883154	0.246489	0.001350	99
Es	0.158013	-1.711487	0.006400	99
Es	1.686345	-0.567963	0.000149	99
Es	-2.151523	-0.081424	-0.601819	99
Es	2.064859	1.183386	-0.006883	99
Es	-2.106557	0.945934	0.010796	99
Es	1.610985	0.792900	-0.004928	99
Es	0.069021	0.767977	-0.277125	99
Es	-0.050941	-0.473760	0.001915	99
Es	0.913403	-0.787889	-0.296537	99
Es	-0.403640	0.153311	0.000134	99
Es	-2.152064	-0.097648	0.595516	99
Es	1.016704	1.018350	-0.005180	99
Es	1.616214	0.402174	0.259513	99
Es	1.616817	0.397040	-0.266218	99
Es	-1.142900	0.197465	0.000991	99
Es	0.280858	1.629402	-0.006199	99
Es	0.352115	1.257614	-0.005178	99
Es	2.327078	-0.910348	0.000612	99
34
Properties=species:S:1:pos:R:3:Z:I:1 energy=-263.92860406228743 field_type=dipole dipole="0.000000 0.000000 0.000000" charge=0
C	-1.883202	0.246511	0.001351	6
C	-0.403622	0.153251	0.000141	6
N	0.351897	1.258191	-0.005179	7
N	1.611038	0.792971	-0.004889	7
C	1.686237	-0.568149	0.000141	6
C	0.388638	-1.018179	0.003461	6
H	-2.222142	1.287601	0.015341	1
H	-2.295362	-0.255569	0.882311	1
H	-2.294922	-0.231989	-0.892839	1
H	2.370968	1.464471	-0.008379	1
H	2.635877	-1.083049	0.000861	1
H	0.054598	-2.046059	0.007681	1
Es	0.070322	0.770041	0.271541	99
Es	1.610984	0.792930	-0.004840	99
Es	-0.403641	0.153313	0.000139	99
Es	-0.050891	-0.473865	0.002219	99
Es	1.016796	1.018463	-0.004666	99
Es	0.068249	0.767611	-0.276508	99
Es	1.618045	0.397307	0.259017	99
Es	-2.106614	0.945912	0.010642	99
Es	-1.142985	0.197581	0.001022	99
Es	1.614960	0.401930	-0.266701	99
Es	0.916854	-0.786392	0.300068	99
Es	0.280848	1.629244	-0.007053	99
Es	2.327154	-0.910447	0.000650	99
Es	-2.151407	-0.081557	-0.601818	99
Es	2.064870	1.183272	-0.006469	99
Es	0.352133	1.257671	-0.005195	99
Es	-1.883153	0.246489	0.001351	99
Es	-2.152092	-0.097584	0.595578	99
Es	1.686342	-0.567962	0.000140	99
Es	0.388644	-1.018206	0.003464	99
Es	0.158065	-1.711525	0.006498	99
Es	0.911765	-0.787055	-0.296801	99
34
Properties=species:S:1:pos:R:3:Z:I:1 energy=-263.92860406228743 field_type=dipole dipole="0.000000 0.000000 0.000000" charge=0
C	-1.883202	0.246511	0.001351	6
C	-0.403622	0.153251	0.000141	6
N	0.351897	1.258191	-0.005179	7
N	1.611038	0.792971	-0.004889	7
C	1.686237	-0.568149	0.000141	6
C	0.388638	-1.018179	0.003461	6
H	-2.222142	1.287601	0.015341	1
H	-2.295362	-0.255569	0.882311	1
H	-2.294922	-0.231989	-0.892839	1
H	2.370968	1.464471	-0.008379	1
H	2.635877	-1.083049	0.000861	1
H	0.054598	-2.046059	0.007681	1
Es	-1.883153	0.246489	0.001351	99
Es	-2.152022	-0.097606	0.595619	99
Es	2.327217	-0.910521	0.000660	99
Es	-1.143070	0.197570	0.000888	99
Es	1.686342	-0.567962	0.000140	99
Es	1.618241	0.393523	-0.265568	99
Es	0.070133	0.769661	0.271122	99
Es	-0.403642	0.153312	0.000146	99
Es	-2.106543	0.945935	0.010713	99
Es	0.388644	-1.018206	0.003470	99
Es	1.016857	1.018451	-0.006266	99
Es	0.158066	-1.711537	0.006409	99
Es	-0.050835	-0.473907	0.002669	99
Es	1.610993	0.792851	-0.004802	99
Es	1.614838	0.405887	0.260062	99
Es	0.911785	-0.786862	-0.296790	99
Es	2.064835	1.183294	-0.007458	99
Es	0.068327	0.767674	-0.276513	99
Es	0.280742	1.629309	-0.006605	99
Es	0.352109	1.257615	-0.005177	99
Es	0.916911	-0.786301	0.300011	99
Es	-2.151525	-0.081501	-0.601801	99
34
Properties=species:S:1:pos:R:3:Z:I:1 energy=-263.92860406228743 field_type=dipole dipole="0.000000 0.000000 0.000000" charge=0
C	-1.883202	0.246511	0.001351	6
C	-0.403622	0.153251	0.000141	6
N	0.351897	1.258191	-0.005179	7
N	1.611038	0.792971	-0.004889	7
C	1.686237	-0.568149	0.000141	6
C	0.388638	-1.018179	0.003461	6
H	-2.222142	1.287601	0.015341	1
H	-2.295362	-0.255569	0.882311	1
H	-2.294922	-0.231989	-0.892839	1
H	2.370968	1.464471	-0.008379	1
H	2.635877	-1.083049	0.000861	1
H	0.054598	-2.046059	0.007681	1
Es	1.615723	0.399699	-0.266503	99
Es	0.913381	-0.787289	-0.296544	99
Es	1.686342	-0.567962	0.000141	99
Es	1.610979	0.792935	-0.004988	99
Es	1.617322	0.399587	0.259161	99
Es	-1.143131	0.197644	0.000926	99
Es	2.327249	-0.910594	0.000712	99
Es	-2.106549	0.945922	0.010675	99
Es	-1.883153	0.246488	0.001351	99
Es	0.158103	-1.711609	0.006380	99
Es	-2.151530	-0.081578	-0.601809	99
Es	0.915429	-0.785518	0.300147	99
Es	-0.050821	-0.473953	0.002136	99
Es	0.352105	1.257617	-0.005177	99
Es	0.388650	-1.018201	0.003455	99
Es	-0.403642	0.153311	0.000141	99
Es	0.280690	1.629028	-0.006573	99
Es	-2.151993	-0.097557	0.595657	99
Es	2.064884	1.183226	-0.006855	99
Es	1.017041	1.018711	-0.004540	99
Es	0.069440	0.769702	0.271037	99
Es	0.068731	0.767562	-0.276651	99
34
Properties=species:S:1:pos:R:3:Z:I:1 energy=-263.92860406228743 field_type=dipole dipole="0.000000 0.000000 0.000000" charge=0
C	-1.883202	0.246511	0.001351	6
C	-0.403622	0.153251	0.000141	6
N	0.351897	1.258191	-0.005179	7
N	1.611038	0.792971	-0.004889	7
C	1.686237	-0.568149	0.000141	6
C	0.388638	-1.018179	0.003461	6
H	-2.222142	1.287601	0.015341	1
H	-2.295362	-0.255569	0.882311	1
H	-2.294922	-0.231989	-0.892839	1
H	2.370968	1.464471	-0.008379	1
H	2.635877	-1.083049	0.000861	1
H	0.054598	-2.046059	0.007681	1
Es	1.686342	-0.567962	0.000140	99
Es	1.563163	0.695418	-0.025028	99
Es	0.063576	0.753556	-0.276432	99
Es	0.158029	-1.711467	0.006431	99
Es	1.578163	0.727240	0.005059	99
Es	0.388643	-1.018206	0.003462	99
Es	2.328455	-0.909909	0.000672	99
Es	0.929458	-0.788095	0.303032	99
Es	0.925449	-0.788972	-0.300075	99
Es	1.011396	1.015342	-0.003459	99
Es	-2.106551	0.945945	0.010701	99
Es	-0.403642	0.153312	0.000141	99
Es	1.685727	0.203431	0.005863	99
Es	-1.883154	0.246489	0.001351	99
Es	-2.151524	-0.081557	-0.601829	99
Es	-1.143189	0.197646	0.000925	99
Es	-0.051205	-0.473311	0.002682	99
Es	0.352109	1.257614	-0.005177	99
Es	0.064220	0.755725	0.270386	99
Es	-2.151981	-0.097587	0.595658	99
Es	2.071399	1.182501	-0.005956	99
Es	0.280365	1.630016	-0.006269	99
