34
Properties=species:S:1:pos:R:3:Z:I:1 energy=-263.9009788822856 field_type=dipole dipole="0.000000 0.000000 0.000000" charge=0
C	-1.506626	-0.327971	0.398046	6
C	-0.019146	-0.307241	0.471306	6
N	0.769574	-0.999951	-0.538864	7
C	0.795804	0.472919	-0.535894	6
C	1.961824	1.180409	-0.076654	6
N	2.882994	1.780969	0.290796	7
H	-1.923676	0.455329	1.038756	1
H	-1.889696	-1.291941	0.747626	1
H	-1.875066	-0.163271	-0.620094	1
H	0.344114	-0.395591	1.489756	1
H	0.185914	-1.345591	-1.301904	1
H	0.273984	0.941929	-1.362874	1
Es	0.233024	-0.361333	1.154014	99
Es	0.363477	0.308074	0.041360	99
Es	-1.780947	0.201050	0.830997	99
Es	2.882632	1.780736	0.290654	99
Es	3.174482	1.971230	0.408057	99
Es	0.404999	-1.179845	-0.993592	99
Es	-1.506591	-0.327968	0.398041	99
Es	0.769083	-0.999546	-0.538978	99
Es	-1.754939	-0.980840	0.633566	99
Es	2.612135	1.240864	0.151034	99
Es	1.961531	1.180232	-0.076764	99
Es	2.465737	1.662356	-0.142745	99
Es	-1.744915	-0.217744	-0.300288	99
Es	1.060813	-1.173670	-0.444959	99
Es	-0.019019	-0.307257	0.471075	99
Es	-0.758467	-0.312141	0.414158	99
Es	0.454711	0.796077	-1.082637	99
Es	2.300011	1.617023	0.362943	99
Es	0.369419	-0.827549	-0.066898	99
Es	0.795938	0.472732	-0.535811	99
Es	1.422492	0.830138	-0.303851	99
Es	0.871826	-0.324927	-0.647597	99
34
Properties=species:S:1:pos:R:3:Z:I:1 energy=-263.9009788822856 field_type=dipole dipole="0.000000 0.000000 0.000000" charge=0
C	-1.506626	-0.327971	0.398046	6
C	-0.019146	-0.307241	0.471306	6
N	0.769574	-0.999951	-0.538864	7
C	0.795804	0.472919	-0.535894	6
C	1.961824	1.180409	-0.076654	6
N	2.882994	1.780969	0.290796	7
H	-1.923676	0.455329	1.038756	1
H	-1.889696	-1.291941	0.747626	1
H	-1.875066	-0.163271	-0.620094	1
H	0.344114	-0.395591	1.489756	1
H	0.185914	-1.345591	-1.301904	1
H	0.273984	0.941929	-1.362874	1
Es	1.961539	1.180217	-0.076774	99
Es	-1.754971	-0.980845	0.633642	99
Es	1.422633	0.830037	-0.304335	99
Es	0.369622	-0.827995	-0.066705	99
Es	0.871998	-0.324977	-0.647361	99
Es	0.454867	0.796048	-1.082669	99
Es	-1.506590	-0.327969	0.398040	99
Es	-0.758506	-0.312310	0.414165	99
Es	1.060453	-1.173412	-0.445113	99
Es	0.233000	-0.361246	1.153962	99
Es	-0.019020	-0.307263	0.471073	99
Es	-1.744923	-0.217748	-0.300319	99
Es	0.769089	-0.999537	-0.538967	99
Es	2.275639	1.752335	0.165769	99
Es	2.606472	1.466712	-0.145986	99
Es	2.882631	1.780735	0.290654	99
Es	3.173173	1.972040	0.408752	99
Es	0.795935	0.472728	-0.535807	99
Es	2.496782	1.300510	0.351035	99
Es	-1.780850	0.201106	0.830979	99
Es	0.363405	0.308504	0.041453	99
Es	0.405051	-1.179978	-0.993710	99
34
Properties=species:S:1:pos:R:3:Z:I:1 energy=-263.9009788822856 field_type=dipole dipole="0.000000 0.000000 0.000000" charge=0
C	-1.506626	-0.327971	0.398046	6
C	-0.019146	-0.307241	0.471306	6
N	0.769574	-0.999951	-0.538864	7
C	0.795804	0.472919	-0.535894	6
C	1.961824	1.180409	-0.076654	6
N	2.882994	1.780969	0.290796	7
H	-1.923676	0.455329	1.038756	1
H	-1.889696	-1.291941	0.747626	1
H	-1.875066	-0.163271	-0.620094	1
H	0.344114	-0.395591	1.489756	1
H	0.185914	-1.345591	-1.301904	1
H	0.273984	0.941929	-1.362874	1
Es	0.405242	-1.180200	-0.993551	99
Es	1.060021	-1.173206	-0.445219	99
Es	0.232968	-0.361334	1.153855	99
Es	1.422296	0.830101	-0.304288	99
Es	0.454892	0.796039	-1.082564	99
Es	2.524564	1.596319	-0.165059	99
Es	-0.019015	-0.307265	0.471072	99
Es	-1.744885	-0.217677	-0.300294	99
Es	2.575832	1.242599	0.234595	99
Es	3.173890	1.970780	0.408386	99
Es	-1.755017	-0.980896	0.633596	99
Es	-1.506590	-0.327969	0.398040	99
Es	-0.758478	-0.312243	0.414270	99
Es	0.795923	0.472725	-0.535797	99
Es	0.769108	-0.999540	-0.538959	99
Es	0.369514	-0.828178	-0.066511	99
Es	2.882658	1.780754	0.290663	99
Es	0.872342	-0.324894	-0.647785	99
Es	-1.780850	0.201072	0.830967	99
Es	0.363459	0.308735	0.041631	99
Es	2.278028	1.681747	0.301492	99
Es	1.961529	1.180223	-0.076762	99
34
Properties=species:S:1:pos:R:3:Z:I:1 energy=-263.9009788822856 field_type=dipole dipole="0.000000 0.000000 0.000000" charge=0
C	-1.506626	-0.327971	0.398046	6
C	-0.019146	-0.307241	0.471306	6
N	0.769574	-0.999951	-0.538864	7
C	0.795804	0.472919	-0.535894	6
C	1.961824	1.180409	-0.076654	6
N	2.882994	1.780969	0.290796	7
H	-1.923676	0.455329	1.038756	1
H	-1.889696	-1.291941	0.747626	1
H	-1.875066	-0.163271	-0.620094	1
H	0.344114	-0.395591	1.489756	1
H	0.185914	-1.345591	-1.301904	1
H	0.273984	0.941929	-1.362874	1
Es	0.795932	0.472724	-0.535805	99
Es	2.882631	1.780736	0.290654	99
Es	-1.506589	-0.327969	0.398040	99
Es	0.872811	-0.324907	-0.648022	99
Es	0.363299	0.308947	0.041717	99
Es	0.769150	-0.999567	-0.538951	99
Es	1.059490	-1.173090	-0.445752	99
Es	-1.780887	0.201109	0.831033	99
Es	2.539652	1.576887	-0.166908	99
Es	0.232950	-0.361265	1.153860	99
Es	0.369676	-0.828535	-0.065991	99
Es	-1.744911	-0.217716	-0.300250	99
Es	1.961532	1.180229	-0.076763	99
Es	-1.754998	-0.980835	0.633534	99
Es	-0.019016	-0.307264	0.471070	99
Es	2.274426	1.696438	0.282121	99
Es	-0.758364	-0.312333	0.414248	99
Es	2.564591	1.247302	0.255279	99
Es	1.422268	0.830029	-0.304450	99
Es	3.173597	1.970818	0.409008	99
Es	0.455051	0.796067	-1.082528	99
Es	0.405140	-1.180111	-0.993366	99
34
Properties=species:S:1:pos:R:3:Z:I:1 energy=-263.9009788822856 field_type=dipole dipole="0.000000 0.000000 0.000000" charge=0
C	-1.506626	-0.327971	0.398046	6
C	-0.019146	-0.307241	0.471306	6
N	0.769574	-0.999951	-0.538864	7
C	0.795804	0.472919	-0.535894	6
C	1.961824	1.180409	-0.076654	6
N	2.882994	1.780969	0.290796	7
H	-1.923676	0.455329	1.038756	1
H	-1.889696	-1.291941	0.747626	1
H	-1.875066	-0.163271	-0.620094	1
H	0.344114	-0.395591	1.489756	1
H	0.185914	-1.345591	-1.301904	1
H	0.273984	0.941929	-1.362874	1
Es	0.405532	-1.180474	-0.993437	99
Es	1.422198	0.829465	-0.304093	99
Es	0.363379	0.309227	0.041732	99
Es	-1.744836	-0.217745	-0.300252	99
Es	1.059124	-1.172687	-0.445671	99
Es	0.232840	-0.361212	1.153771	99
Es	1.961521	1.180227	-0.076758	99
Es	-1.506590	-0.327969	0.398040	99
Es	2.359097	1.494563	0.416697	99
Es	2.646246	1.286511	0.016531	99
Es	-1.755074	-0.980829	0.633562	99
Es	0.872932	-0.324707	-0.648181	99
Es	2.882632	1.780736	0.290654	99
Es	0.795929	0.472719	-0.535805	99
Es	0.455113	0.796158	-1.082409	99
Es	-0.758376	-0.312452	0.414264	99
Es	-0.019020	-0.307264	0.471076	99
Es	0.769083	-0.999550	-0.538980	99
Es	0.369612	-0.828986	-0.065813	99
Es	-1.780860	0.201195	0.830980	99
Es	2.373801	1.739101	-0.061553	99
Es	3.173145	1.971668	0.407421	99
34
Properties=species:S:1:pos:R:3:Z:I:1 energy=-263.9009788822856 field_type=dipole dipole="0.000000 0.000000 0.000000" charge=0
C	-1.506626	-0.327971	0.398046	6
C	-0.019146	-0.307241	0.471306	6
N	0.769574	-0.999951	-0.538864	7
C	0.795804	0.472919	-0.535894	6
C	1.961824	1.180409	-0.076654	6
N	2.882994	1.780969	0.290796	7
H	-1.923676	0.455329	1.038756	1
H	-1.889696	-1.291941	0.747626	1
H	-1.875066	-0.163271	-0.620094	1
H	0.344114	-0.395591	1.489756	1
H	0.185914	-1.345591	-1.301904	1
H	0.273984	0.941929	-1.362874	1
Es	0.369599	-0.829220	-0.065799	99
Es	0.405837	-1.180837	-0.993456	99
Es	0.769080	-0.999545	-0.538976	99
Es	-1.780910	0.201156	0.830928	99
Es	3.173464	1.970480	0.407897	99
Es	0.232807	-0.361215	1.153592	99
Es	-1.754954	-0.980910	0.633642	99
Es	0.363264	0.309535	0.042060	99
Es	1.421945	0.829770	-0.304494	99
Es	-1.506591	-0.327969	0.398041	99
Es	2.285018	1.657767	0.329298	99
Es	0.795934	0.472726	-0.535807	99
Es	-1.744891	-0.217804	-0.300237	99
Es	0.455229	0.796155	-1.082421	99
Es	2.882637	1.780738	0.290655	99
Es	-0.758391	-0.312341	0.414329	99
Es	2.592293	1.238488	0.201731	99
Es	2.501612	1.624730	-0.159579	99
Es	1.058663	-1.172353	-0.445562	99
Es	1.961530	1.180225	-0.076763	99
Es	0.873271	-0.324619	-0.648373	99
Es	-0.019016	-0.307263	0.471072	99
34
Properties=species:S:1:pos:R:3:Z:I:1 energy=-263.9009788822856 field_type=dipole dipole="0.000000 0.000000 0.000000" charge=0
C	-1.506626	-0.327971	0.398046	6
C	-0.019146	-0.307241	0.471306	6
N	0.769574	-0.999951	-0.538864	7
C	0.795804	0.472919	-0.535894	6
C	1.961824	1.180409	-0.076654	6
N	2.882994	1.780969	0.290796	7
H	-1.923676	0.455329	1.038756	1
H	-1.889696	-1.291941	0.747626	1
H	-1.875066	-0.163271	-0.620094	1
H	0.344114	-0.395591	1.489756	1
H	0.185914	-1.345591	-1.301904	1
H	0.273984	0.941929	-1.362874	1
Es	2.551548	1.254244	0.278799	99
Es	0.232797	-0.361302	1.153597	99
Es	0.363209	0.309865	0.042131	99
Es	-0.758318	-0.312377	0.414428	99
Es	2.555902	1.554674	-0.167343	99
Es	1.058338	-1.172164	-0.445830	99
Es	2.882676	1.780764	0.290671	99
Es	0.769077	-0.999554	-0.538982	99
Es	0.455406	0.796058	-1.082406	99
Es	2.271873	1.712051	0.259430	99
Es	-1.744839	-0.217754	-0.300262	99
Es	3.172880	1.970541	0.408529	99
Es	-1.755007	-0.980857	0.633544	99
Es	0.795928	0.472725	-0.535802	99
Es	1.421968	0.829736	-0.304698	99
Es	-1.506591	-0.327969	0.398040	99
Es	0.405875	-1.180898	-0.993378	99
Es	-1.780934	0.201139	0.830973	99
Es	1.961535	1.180225	-0.076766	99
Es	0.369589	-0.829415	-0.065511	99
Es	0.873535	-0.324774	-0.648459	99
Es	-0.019016	-0.307264	0.471072	99
34
Properties=species:S:1:pos:R:3:Z:I:1 energy=-263.9009788822856 field_type=dipole dipole="0.000000 0.000000 0.000000" charge=0
C	-1.506626	-0.327971	0.398046	6
C	-0.019146	-0.307241	0.471306	6
N	0.769574	-0.999951	-0.538864	7
C	0.795804	0.472919	-0.535894	6
C	1.961824	1.180409	-0.076654	6
N	2.882994	1.780969	0.290796	7
H	-1.923676	0.455329	1.038756	1
H	-1.889696	-1.291941	0.747626	1
H	-1.875066	-0.163271	-0.620094	1
H	0.344114	-0.395591	1.489756	1
H	0.185914	-1.345591	-1.301904	1
H	0.273984	0.941929	-1.362874	1
Es	2.882632	1.780736	0.290654	99
Es	0.873785	-0.324742	-0.648577	99
Es	1.422033	0.829440	-0.304799	99
Es	-1.780948	0.201145	0.830952	99
Es	-1.506591	-0.327969	0.398040	99
Es	0.363195	0.310105	0.042259	99
Es	-0.758286	-0.312384	0.414479	99
Es	0.769082	-0.999548	-0.538977	99
Es	-1.755031	-0.980878	0.633528	99
Es	1.058010	-1.172010	-0.445931	99
Es	0.455496	0.796075	-1.082361	99
Es	0.232759	-0.361307	1.153530	99
Es	-0.019016	-0.307264	0.471072	99
Es	-1.744808	-0.217746	-0.300240	99
Es	2.277225	1.755576	0.156754	99
Es	1.961537	1.180224	-0.076764	99
Es	2.610156	1.460462	-0.143547	99
Es	3.172362	1.971216	0.408517	99
Es	0.369554	-0.829696	-0.065356	99
Es	0.406028	-1.180990	-0.993339	99
Es	0.795929	0.472721	-0.535803	99
Es	2.492327	1.304528	0.357687	99
34
Properties=species:S:1:pos:R:3:Z:I:1 energy=-263.9009788822856 field_type=dipole dipole="0.000000 0.000000 0.000000" charge=0
C	-1.506626	-0.327971	0.398046	6
C	-0.019146	-0.307241	0.471306	6
N	0.769574	-0.999951	-0.538864	7
C	0.795804	0.472919	-0.535894	6
C	1.961824	1.180409	-0.076654	6
N	2.882994	1.780969	0.290796	7
H	-1.923676	0.455329	1.038756	1
H	-1.889696	-1.291941	0.747626	1
H	-1.875066	-0.163271	-0.620094	1
H	0.344114	-0.395591	1.489756	1
H	0.185914	-1.345591	-1.301904	1
H	0.273984	0.941929	-1.362874	1
Es	-1.506592	-0.327969	0.398040	99
Es	-1.754986	-0.980820	0.633528	99
Es	0.363163	0.310373	0.042258	99
Es	0.406238	-1.181326	-0.993238	99
Es	1.057352	-1.171532	-0.446185	99
Es	0.769088	-0.999548	-0.538973	99
Es	3.173007	1.970116	0.407358	99
Es	-0.019016	-0.307264	0.471073	99
Es	-1.744840	-0.217784	-0.300279	99
Es	2.291708	1.638676	0.348083	99
Es	-1.780975	0.201129	0.830972	99
Es	1.961532	1.180221	-0.076762	99
Es	0.369502	-0.829971	-0.064801	99
Es	2.882632	1.780736	0.290654	99
Es	0.455626	0.796028	-1.082347	99
Es	0.232742	-0.361282	1.153529	99
Es	-0.758218	-0.312406	0.414513	99
Es	0.795929	0.472724	-0.535803	99
Es	2.603523	1.238029	0.176835	99
Es	2.484244	1.644697	-0.152987	99
Es	1.421540	0.829569	-0.304747	99
Es	0.874232	-0.324703	-0.648945	99
34
Properties=species:S:1:pos:R:3:Z:I:1 energy=-263.9009788822856 field_type=dipole dipole="0.000000 0.000000 0.000000" charge=0
C	-1.506626	-0.327971	0.398046	6
C	-0.019146	-0.307241	0.471306	6
N	0.769574	-0.999951	-0.538864	7
C	0.795804	0.472919	-0.535894	6
C	1.961824	1.180409	-0.076654	6
N	2.882994	1.780969	0.290796	7
H	-1.923676	0.455329	1.038756	1
H	-1.889696	-1.291941	0.747626	1
H	-1.875066	-0.163271	-0.620094	1
H	0.344114	-0.395591	1.489756	1
H	0.185914	-1.345591	-1.301904	1
H	0.273984	0.941929	-1.362874	1
Es	1.057518	-1.171772	-0.446488	99
Es	1.961532	1.180220	-0.076766	99
Es	3.172497	1.970092	0.408297	99
Es	2.559232	1.249785	0.266747	99
Es	-1.506591	-0.327969	0.398040	99
Es	0.363248	0.310892	0.042283	99
Es	-1.744814	-0.217731	-0.300200	99
Es	0.769082	-0.999545	-0.538975	99
Es	2.547687	1.567162	-0.168221	99
Es	0.873910	-0.324631	-0.648540	99
Es	-1.755035	-0.980873	0.633476	99
Es	0.406147	-1.180977	-0.993088	99
Es	2.272876	1.704503	0.272603	99
Es	0.369689	-0.830569	-0.064898	99
Es	0.455741	0.796013	-1.082341	99
Es	0.232685	-0.361316	1.153394	99
Es	2.882632	1.780736	0.290654	99
Es	0.795927	0.472720	-0.535802	99
Es	-0.019017	-0.307265	0.471073	99
Es	-1.780965	0.201145	0.830984	99
Es	-0.758206	-0.312451	0.414531	99
Es	1.421654	0.829524	-0.304984	99
34
Properties=species:S:1:pos:R:3:Z:I:1 energy=-263.9009788822856 field_type=dipole dipole="0.000000 0.000000 0.000000" charge=0
C	-1.506626	-0.327971	0.398046	6
C	-0.019146	-0.307241	0.471306	6
N	0.769574	-0.999951	-0.538864	7
C	0.795804	0.472919	-0.535894	6
C	1.961824	1.180409	-0.076654	6
N	2.882994	1.780969	0.290796	7
H	-1.923676	0.455329	1.038756	1
H	-1.889696	-1.291941	0.747626	1
H	-1.875066	-0.163271	-0.620094	1
H	0.344114	-0.395591	1.489756	1
H	0.185914	-1.345591	-1.301904	1
H	0.273984	0.941929	-1.362874	1
Es	2.882632	1.780736	0.290654	99
Es	3.171566	1.971416	0.407729	99
Es	0.769095	-0.999553	-0.538967	99
Es	0.874474	-0.324495	-0.649108	99
Es	0.232665	-0.361290	1.153309	99
Es	-1.755042	-0.980869	0.633516	99
Es	-1.780953	0.201150	0.830946	99
Es	0.406487	-1.181415	-0.993191	99
Es	2.636521	1.393759	-0.105267	99
Es	0.363155	0.310746	0.042604	99
Es	0.795927	0.472715	-0.535802	99
Es	-1.744814	-0.217752	-0.300222	99
Es	2.296902	1.768004	0.079528	99
Es	0.369516	-0.830592	-0.064739	99
Es	1.421808	0.829044	-0.305057	99
Es	-1.506593	-0.327969	0.398039	99
Es	1.056969	-1.171334	-0.446300	99
Es	1.961527	1.180203	-0.076735	99
Es	-0.758210	-0.312425	0.414603	99
Es	0.455745	0.796092	-1.082172	99
Es	-0.019017	-0.307264	0.471073	99
Es	2.447068	1.358784	0.397337	99
