35
Properties=species:S:1:pos:R:3:Z:I:1 energy=-247.83628899377248 field_type=dipole dipole="0.000000 0.000000 0.000000" charge=0
C	-2.803754	-0.194459	-0.528135	6
C	-1.604674	-0.130469	-0.551815	6
C	-0.165284	-0.051959	-0.586995	6
C	0.497126	0.994761	0.334405	6
C	1.495636	-0.131449	0.651965	6
N	0.434836	-1.094869	0.282345	7
H	-3.866964	-0.256159	-0.500305	1
H	0.248996	-0.052019	-1.603935	1
H	-0.102344	1.312811	1.196555	1
H	0.914516	1.876881	-0.158085	1
H	2.368576	-0.159459	-0.010765	1
H	1.830736	-0.190939	1.690624	1
H	0.752596	-1.922669	-0.215855	1
Es	-3.498231	-0.234303	-0.510024	99
Es	-2.192582	-0.506306	-0.642782	99
Es	-1.604444	-0.130449	-0.551820	99
Es	-2.803992	-0.194473	-0.528123	99
Es	0.435215	-1.094690	0.281873	99
Es	-2.234201	0.098764	-0.791759	99
Es	0.639526	-1.586671	-0.035827	99
Es	1.733354	-0.174942	1.364032	99
Es	0.089877	0.533797	-0.171898	99
Es	1.052748	0.495330	0.529628	99
Es	1.495515	-0.131521	0.651910	99
Es	0.224069	-1.158502	0.556148	99
Es	0.089006	1.198073	0.914028	99
Es	0.780521	1.599558	-0.005695	99
Es	0.497132	0.994696	0.334361	99
Es	0.146990	-0.684105	-0.149623	99
Es	-2.214214	-0.074064	-0.192183	99
Es	2.092580	-0.147383	0.186307	99
Es	0.945530	-0.731300	0.442833	99
Es	0.105954	-0.049424	-1.277581	99
Es	-0.919202	-0.086935	-0.585959	99
Es	-0.165335	-0.052044	-0.586897	99
35
Properties=species:S:1:pos:R:3:Z:I:1 energy=-247.83628899377248 field_type=dipole dipole="0.000000 0.000000 0.000000" charge=0
C	-2.803754	-0.194459	-0.528135	6
C	-1.604674	-0.130469	-0.551815	6
C	-0.165284	-0.051959	-0.586995	6
C	0.497126	0.994761	0.334405	6
C	1.495636	-0.131449	0.651965	6
N	0.434836	-1.094869	0.282345	7
H	-3.866964	-0.256159	-0.500305	1
H	0.248996	-0.052019	-1.603935	1
H	-0.102344	1.312811	1.196555	1
H	0.914516	1.876881	-0.158085	1
H	2.368576	-0.159459	-0.010765	1
H	1.830736	-0.190939	1.690624	1
H	0.752596	-1.922669	-0.215855	1
Es	0.435216	-1.094698	0.281875	99
Es	-1.604450	-0.130452	-0.551821	99
Es	-2.198877	-0.477778	-0.713326	99
Es	0.146418	-0.683988	-0.149507	99
Es	0.497133	0.994696	0.334362	99
Es	-2.209588	-0.149249	-0.181731	99
Es	0.089027	1.198195	0.913923	99
Es	-2.803994	-0.194474	-0.528117	99
Es	2.092534	-0.147440	0.186413	99
Es	0.639599	-1.586531	-0.035817	99
Es	0.780500	1.599463	-0.005679	99
Es	0.089728	0.533905	-0.171925	99
Es	-0.919081	-0.087029	-0.585992	99
Es	-0.165334	-0.052046	-0.586896	99
Es	0.224591	-1.158745	0.556082	99
Es	-2.232512	0.145519	-0.731772	99
Es	0.105932	-0.049463	-1.277540	99
Es	1.733388	-0.174963	1.363951	99
Es	0.945481	-0.731456	0.442863	99
Es	1.052816	0.495497	0.529738	99
Es	1.495514	-0.131521	0.651909	99
Es	-3.498222	-0.234335	-0.510042	99
35
Properties=species:S:1:pos:R:3:Z:I:1 energy=-247.83628899377248 field_type=dipole dipole="0.000000 0.000000 0.000000" charge=0
C	-2.803754	-0.194459	-0.528135	6
C	-1.604674	-0.130469	-0.551815	6
C	-0.165284	-0.051959	-0.586995	6
C	0.497126	0.994761	0.334405	6
C	1.495636	-0.131449	0.651965	6
N	0.434836	-1.094869	0.282345	7
H	-3.866964	-0.256159	-0.500305	1
H	0.248996	-0.052019	-1.603935	1
H	-0.102344	1.312811	1.196555	1
H	0.914516	1.876881	-0.158085	1
H	2.368576	-0.159459	-0.010765	1
H	1.830736	-0.190939	1.690624	1
H	0.752596	-1.922669	-0.215855	1
Es	-3.498169	-0.234270	-0.510018	99
Es	0.105803	-0.049414	-1.277525	99
Es	-0.165335	-0.052045	-0.586897	99
Es	-0.918978	-0.087034	-0.586022	99
Es	-2.233179	0.130122	-0.754713	99
Es	0.146465	-0.684220	-0.149710	99
Es	-2.803995	-0.194472	-0.528122	99
Es	1.052907	0.495568	0.529711	99
Es	0.780374	1.599433	-0.005627	99
Es	-2.196521	-0.489694	-0.688878	99
Es	-1.604446	-0.130451	-0.551823	99
Es	2.092498	-0.147407	0.186495	99
Es	0.497132	0.994694	0.334360	99
Es	0.945781	-0.731473	0.443260	99
Es	1.733412	-0.175005	1.363882	99
Es	0.435205	-1.094698	0.281862	99
Es	-2.211321	-0.121984	-0.183222	99
Es	0.224620	-1.158555	0.555518	99
Es	0.089707	0.534038	-0.171934	99
Es	1.495513	-0.131521	0.651908	99
Es	0.639319	-1.586696	-0.035491	99
Es	0.089025	1.198190	0.913934	99
35
Properties=species:S:1:pos:R:3:Z:I:1 energy=-247.83628899377248 field_type=dipole dipole="0.000000 0.000000 0.000000" charge=0
C	-2.803754	-0.194459	-0.528135	6
C	-1.604674	-0.130469	-0.551815	6
C	-0.165284	-0.051959	-0.586995	6
C	0.497126	0.994761	0.334405	6
C	1.495636	-0.131449	0.651965	6
N	0.434836	-1.094869	0.282345	7
H	-3.866964	-0.256159	-0.500305	1
H	0.248996	-0.052019	-1.603935	1
H	-0.102344	1.312811	1.196555	1
H	0.914516	1.876881	-0.158085	1
H	2.368576	-0.159459	-0.010765	1
H	1.830736	-0.190939	1.690624	1
H	0.752596	-1.922669	-0.215855	1
Es	1.495512	-0.131521	0.651908	99
Es	1.733440	-0.174967	1.363782	99
Es	0.224921	-1.158614	0.555297	99
Es	0.089096	1.198180	0.913853	99
Es	-3.498140	-0.234317	-0.510028	99
Es	-1.604448	-0.130457	-0.551817	99
Es	-2.212824	-0.097668	-0.186641	99
Es	-2.194481	-0.498820	-0.666199	99
Es	2.092489	-0.147438	0.186527	99
Es	0.497132	0.994694	0.334360	99
Es	-0.165333	-0.052046	-0.586895	99
Es	0.105700	-0.049432	-1.277506	99
Es	0.146181	-0.684193	-0.149733	99
Es	0.435193	-1.094700	0.281889	99
Es	0.945679	-0.731574	0.443467	99
Es	0.089610	0.534144	-0.171985	99
Es	0.639373	-1.586719	-0.035427	99
Es	-2.803998	-0.194469	-0.528120	99
Es	-0.918866	-0.087007	-0.586018	99
Es	0.780325	1.599440	-0.005542	99
Es	-2.233730	0.114931	-0.774009	99
Es	1.052986	0.495658	0.529786	99
35
Properties=species:S:1:pos:R:3:Z:I:1 energy=-247.83628899377248 field_type=dipole dipole="0.000000 0.000000 0.000000" charge=0
C	-2.803754	-0.194459	-0.528135	6
C	-1.604674	-0.130469	-0.551815	6
C	-0.165284	-0.051959	-0.586995	6
C	0.497126	0.994761	0.334405	6
C	1.495636	-0.131449	0.651965	6
N	0.434836	-1.094869	0.282345	7
H	-3.866964	-0.256159	-0.500305	1
H	0.248996	-0.052019	-1.603935	1
H	-0.102344	1.312811	1.196555	1
H	0.914516	1.876881	-0.158085	1
H	2.368576	-0.159459	-0.010765	1
H	1.830736	-0.190939	1.690624	1
H	0.752596	-1.922669	-0.215855	1
Es	-2.212775	-0.098542	-0.186405	99
Es	-1.604448	-0.130452	-0.551824	99
Es	1.053050	0.495749	0.529853	99
Es	0.435183	-1.094702	0.281902	99
Es	-2.803999	-0.194472	-0.528121	99
Es	-0.165339	-0.052045	-0.586900	99
Es	0.945791	-0.731659	0.443572	99
Es	-2.233713	0.115497	-0.773513	99
Es	2.092432	-0.147421	0.186574	99
Es	0.780268	1.599415	-0.005490	99
Es	0.497132	0.994694	0.334360	99
Es	0.105594	-0.049452	-1.277460	99
Es	0.089128	1.198192	0.913821	99
Es	0.089575	0.534303	-0.171970	99
Es	-3.498119	-0.234307	-0.510060	99
Es	0.225033	-1.158465	0.555066	99
Es	0.146102	-0.684306	-0.149796	99
Es	0.639203	-1.586856	-0.035284	99
Es	-2.194546	-0.498505	-0.666922	99
Es	1.733505	-0.175002	1.363683	99
Es	-0.918754	-0.087038	-0.586049	99
Es	1.495513	-0.131521	0.651910	99
35
Properties=species:S:1:pos:R:3:Z:I:1 energy=-247.83628899377248 field_type=dipole dipole="0.000000 0.000000 0.000000" charge=0
C	-2.803754	-0.194459	-0.528135	6
C	-1.604674	-0.130469	-0.551815	6
C	-0.165284	-0.051959	-0.586995	6
C	0.497126	0.994761	0.334405	6
C	1.495636	-0.131449	0.651965	6
N	0.434836	-1.094869	0.282345	7
H	-3.866964	-0.256159	-0.500305	1
H	0.248996	-0.052019	-1.603935	1
H	-0.102344	1.312811	1.196555	1
H	0.914516	1.876881	-0.158085	1
H	2.368576	-0.159459	-0.010765	1
H	1.830736	-0.190939	1.690624	1
H	0.752596	-1.922669	-0.215855	1
Es	0.089449	0.534372	-0.172081	99
Es	-2.803997	-0.194472	-0.528123	99
Es	2.092428	-0.147454	0.186669	99
Es	0.435197	-1.094700	0.281885	99
Es	0.089159	1.198220	0.913742	99
Es	0.945849	-0.731774	0.443648	99
Es	0.639159	-1.586754	-0.035125	99
Es	-3.498101	-0.234241	-0.510048	99
Es	0.105527	-0.049453	-1.277476	99
Es	-2.211868	-0.113770	-0.184148	99
Es	0.225019	-1.158529	0.555024	99
Es	1.053132	0.495851	0.529890	99
Es	0.497133	0.994694	0.334360	99
Es	-2.195821	-0.493169	-0.681732	99
Es	1.733495	-0.174967	1.363611	99
Es	0.780233	1.599379	-0.005407	99
Es	-2.233354	0.125315	-0.761001	99
Es	-0.918657	-0.087043	-0.586036	99
Es	1.495514	-0.131520	0.651909	99
Es	0.146103	-0.684382	-0.149895	99
Es	-0.165334	-0.052045	-0.586896	99
Es	-1.604447	-0.130452	-0.551823	99
35
Properties=species:S:1:pos:R:3:Z:I:1 energy=-247.83628899377248 field_type=dipole dipole="0.000000 0.000000 0.000000" charge=0
C	-2.803754	-0.194459	-0.528135	6
C	-1.604674	-0.130469	-0.551815	6
C	-0.165284	-0.051959	-0.586995	6
C	0.497126	0.994761	0.334405	6
C	1.495636	-0.131449	0.651965	6
N	0.434836	-1.094869	0.282345	7
H	-3.866964	-0.256159	-0.500305	1
H	0.248996	-0.052019	-1.603935	1
H	-0.102344	1.312811	1.196555	1
H	0.914516	1.876881	-0.158085	1
H	2.368576	-0.159459	-0.010765	1
H	1.830736	-0.190939	1.690624	1
H	0.752596	-1.922669	-0.215855	1
Es	-2.803995	-0.194470	-0.528121	99
Es	-3.498066	-0.234199	-0.510052	99
Es	0.946006	-0.731888	0.443856	99
Es	-0.918513	-0.087090	-0.586057	99
Es	-2.232878	0.137486	-0.744370	99
Es	0.105455	-0.049436	-1.277474	99
Es	0.435213	-1.094699	0.281873	99
Es	1.495509	-0.131520	0.651906	99
Es	-0.165334	-0.052046	-0.586895	99
Es	0.638999	-1.586807	-0.035002	99
Es	0.225359	-1.158526	0.554670	99
Es	0.089240	1.198202	0.913695	99
Es	-1.604446	-0.130451	-0.551826	99
Es	1.733478	-0.174999	1.363576	99
Es	0.089318	0.534493	-0.172079	99
Es	0.497133	0.994693	0.334359	99
Es	1.053159	0.495907	0.529896	99
Es	2.092425	-0.147461	0.186748	99
Es	-2.197624	-0.484644	-0.700509	99
Es	0.780191	1.599388	-0.005312	99
Es	-2.210573	-0.134457	-0.182025	99
Es	0.145760	-0.684371	-0.149909	99
35
Properties=species:S:1:pos:R:3:Z:I:1 energy=-247.83628899377248 field_type=dipole dipole="0.000000 0.000000 0.000000" charge=0
C	-2.803754	-0.194459	-0.528135	6
C	-1.604674	-0.130469	-0.551815	6
C	-0.165284	-0.051959	-0.586995	6
C	0.497126	0.994761	0.334405	6
C	1.495636	-0.131449	0.651965	6
N	0.434836	-1.094869	0.282345	7
H	-3.866964	-0.256159	-0.500305	1
H	0.248996	-0.052019	-1.603935	1
H	-0.102344	1.312811	1.196555	1
H	0.914516	1.876881	-0.158085	1
H	2.368576	-0.159459	-0.010765	1
H	1.830736	-0.190939	1.690624	1
H	0.752596	-1.922669	-0.215855	1
Es	-2.235185	0.050541	-0.833031	99
Es	0.945991	-0.731881	0.444034	99
Es	0.638952	-1.586948	-0.034806	99
Es	0.497133	0.994693	0.334360	99
Es	-2.803996	-0.194473	-0.528122	99
Es	0.089275	0.534548	-0.172170	99
Es	-0.918397	-0.086944	-0.586268	99
Es	0.780142	1.599312	-0.005285	99
Es	0.225477	-1.158397	0.554415	99
Es	-0.165333	-0.052045	-0.586896	99
Es	2.092403	-0.147472	0.186779	99
Es	0.089218	1.198275	0.913625	99
Es	0.105394	-0.049424	-1.277436	99
Es	1.053250	0.495995	0.529999	99
Es	1.495514	-0.131519	0.651909	99
Es	-1.604448	-0.130451	-0.551823	99
Es	0.435204	-1.094696	0.281879	99
Es	-3.498017	-0.234437	-0.510017	99
Es	-2.188637	-0.517286	-0.581480	99
Es	-2.217345	-0.014831	-0.212217	99
Es	1.733506	-0.174999	1.363500	99
Es	0.145718	-0.684454	-0.150001	99
35
Properties=species:S:1:pos:R:3:Z:I:1 energy=-247.83628899377248 field_type=dipole dipole="0.000000 0.000000 0.000000" charge=0
C	-2.803754	-0.194459	-0.528135	6
C	-1.604674	-0.130469	-0.551815	6
C	-0.165284	-0.051959	-0.586995	6
C	0.497126	0.994761	0.334405	6
C	1.495636	-0.131449	0.651965	6
N	0.434836	-1.094869	0.282345	7
H	-3.866964	-0.256159	-0.500305	1
H	0.248996	-0.052019	-1.603935	1
H	-0.102344	1.312811	1.196555	1
H	0.914516	1.876881	-0.158085	1
H	2.368576	-0.159459	-0.010765	1
H	1.830736	-0.190939	1.690624	1
H	0.752596	-1.922669	-0.215855	1
Es	-2.196396	-0.490472	-0.687789	99
Es	0.497134	0.994699	0.334362	99
Es	-2.233219	0.129339	-0.756024	99
Es	0.945890	-0.731780	0.444425	99
Es	0.105298	-0.049434	-1.277497	99
Es	1.733549	-0.175037	1.363430	99
Es	0.435209	-1.094690	0.281881	99
Es	-2.211467	-0.120453	-0.183078	99
Es	0.089238	0.534619	-0.172125	99
Es	2.092356	-0.147516	0.186831	99
Es	0.780015	1.599316	-0.005203	99
Es	0.089219	1.198235	0.913548	99
Es	1.495514	-0.131519	0.651910	99
Es	0.639098	-1.586826	-0.034864	99
Es	0.145565	-0.684565	-0.150002	99
Es	-3.498015	-0.234254	-0.510108	99
Es	0.225498	-1.158624	0.554054	99
Es	-2.804001	-0.194471	-0.528124	99
Es	-0.165330	-0.052042	-0.586893	99
Es	-1.604451	-0.130452	-0.551822	99
Es	1.053418	0.496172	0.530082	99
Es	-0.918305	-0.087140	-0.586046	99
