35
Properties=species:S:1:pos:R:3:Z:I:1 energy=-247.83234818478323 field_type=dipole dipole="0.000000 0.000000 0.000000" charge=0
C	-2.697310	-0.013152	-0.536477	6
C	-1.497831	0.000768	-0.538277	6
C	-0.049941	0.017878	-0.545807	6
C	0.634299	1.028908	0.400353	6
N	1.651659	-0.005142	0.719383	7
C	0.658509	-1.038702	0.330173	6
H	-3.763641	-0.025542	-0.533087	1
H	0.364059	0.057248	-1.563427	1
H	0.045019	1.334558	1.273883	1
H	1.035339	1.927348	-0.078757	1
H	2.462500	0.025378	0.099963	1
H	1.080090	-1.892962	-0.208427	1
H	0.077250	-1.416592	1.180503	1
Es	1.260590	-0.495920	0.551423	99
Es	1.249175	0.486719	0.584620	99
Es	-0.808997	0.009310	-0.553618	99
Es	0.257430	-1.281981	0.906832	99
Es	-2.106797	0.032369	-0.176593	99
Es	-3.393340	-0.021274	-0.533619	99
Es	0.219471	-0.568626	-0.155978	99
Es	0.205761	0.582687	-0.116971	99
Es	0.910079	1.645134	0.069663	99
Es	0.228158	1.223188	0.991939	99
Es	1.769245	-0.015318	1.060826	99
Es	-2.114168	0.283319	-0.748100	99
Es	-2.697560	-0.013154	-0.536465	99
Es	-1.497590	0.000774	-0.538279	99
Es	0.948403	-1.624572	-0.041220	99
Es	0.221901	0.044232	-1.227579	99
Es	1.651452	-0.005126	0.718775	99
Es	2.111250	0.014060	0.310044	99
Es	0.634376	1.028775	0.400337	99
Es	0.658584	-1.038566	0.330165	99
Es	-2.105007	-0.334978	-0.681024	99
Es	-0.050050	0.017877	-0.545777	99
35
Properties=species:S:1:pos:R:3:Z:I:1 energy=-247.83234818478323 field_type=dipole dipole="0.000000 0.000000 0.000000" charge=0
C	-2.697310	-0.013152	-0.536477	6
C	-1.497831	0.000768	-0.538277	6
C	-0.049941	0.017878	-0.545807	6
C	0.634299	1.028908	0.400353	6
N	1.651659	-0.005142	0.719383	7
C	0.658509	-1.038702	0.330173	6
H	-3.763641	-0.025542	-0.533087	1
H	0.364059	0.057248	-1.563427	1
H	0.045019	1.334558	1.273883	1
H	1.035339	1.927348	-0.078757	1
H	2.462500	0.025378	0.099963	1
H	1.080090	-1.892962	-0.208427	1
H	0.077250	-1.416592	1.180503	1
Es	0.910039	1.645209	0.069817	99
Es	-2.108582	-0.257963	-0.791925	99
Es	1.249155	0.486943	0.585298	99
Es	1.769303	-0.015577	1.060156	99
Es	0.228157	1.223107	0.991787	99
Es	1.651448	-0.005127	0.718838	99
Es	-2.697559	-0.013154	-0.536462	99
Es	0.257463	-1.282022	0.906777	99
Es	-3.393316	-0.021264	-0.533627	99
Es	0.221642	0.044215	-1.227518	99
Es	-2.112206	0.341312	-0.626076	99
Es	-1.497591	0.000767	-0.538277	99
Es	2.111320	0.014210	0.310044	99
Es	-0.808953	0.009189	-0.553508	99
Es	0.634378	1.028775	0.400336	99
Es	0.658584	-1.038566	0.330164	99
Es	0.205912	0.582850	-0.117040	99
Es	1.260625	-0.496139	0.551506	99
Es	0.948337	-1.624536	-0.041171	99
Es	-0.050049	0.017875	-0.545776	99
Es	0.219444	-0.568733	-0.156187	99
Es	-2.105187	-0.102444	-0.187754	99
35
Properties=species:S:1:pos:R:3:Z:I:1 energy=-247.83234818478323 field_type=dipole dipole="0.000000 0.000000 0.000000" charge=0
C	-2.697310	-0.013152	-0.536477	6
C	-1.497831	0.000768	-0.538277	6
C	-0.049941	0.017878	-0.545807	6
C	0.634299	1.028908	0.400353	6
N	1.651659	-0.005142	0.719383	7
C	0.658509	-1.038702	0.330173	6
H	-3.763641	-0.025542	-0.533087	1
H	0.364059	0.057248	-1.563427	1
H	0.045019	1.334558	1.273883	1
H	1.035339	1.927348	-0.078757	1
H	2.462500	0.025378	0.099963	1
H	1.080090	-1.892962	-0.208427	1
H	0.077250	-1.416592	1.180503	1
Es	-0.808826	0.009307	-0.553492	99
Es	0.219350	-0.568858	-0.156240	99
Es	1.260768	-0.496469	0.551772	99
Es	-0.050050	0.017876	-0.545777	99
Es	0.221545	0.044173	-1.227543	99
Es	1.651421	-0.005122	0.718765	99
Es	-2.107083	-0.294048	-0.751152	99
Es	1.249171	0.487116	0.584816	99
Es	-2.697557	-0.013152	-0.536463	99
Es	0.948315	-1.624457	-0.041060	99
Es	0.228174	1.223121	0.991748	99
Es	2.111440	0.014006	0.310573	99
Es	-3.393293	-0.021195	-0.533602	99
Es	1.769143	-0.015196	1.059984	99
Es	0.634377	1.028776	0.400336	99
Es	0.658584	-1.038564	0.330166	99
Es	-2.113004	0.323800	-0.677861	99
Es	0.257488	-1.282089	0.906729	99
Es	0.910017	1.645183	0.069909	99
Es	-2.105880	-0.049055	-0.176822	99
Es	0.205853	0.583001	-0.117108	99
Es	-1.497588	0.000772	-0.538277	99
35
Properties=species:S:1:pos:R:3:Z:I:1 energy=-247.83234818478323 field_type=dipole dipole="0.000000 0.000000 0.000000" charge=0
C	-2.697310	-0.013152	-0.536477	6
C	-1.497831	0.000768	-0.538277	6
C	-0.049941	0.017878	-0.545807	6
C	0.634299	1.028908	0.400353	6
N	1.651659	-0.005142	0.719383	7
C	0.658509	-1.038702	0.330173	6
H	-3.763641	-0.025542	-0.533087	1
H	0.364059	0.057248	-1.563427	1
H	0.045019	1.334558	1.273883	1
H	1.035339	1.927348	-0.078757	1
H	2.462500	0.025378	0.099963	1
H	1.080090	-1.892962	-0.208427	1
H	0.077250	-1.416592	1.180503	1
Es	2.111469	0.014082	0.310725	99
Es	0.658584	-1.038566	0.330164	99
Es	-2.105342	-0.091165	-0.184718	99
Es	-2.697560	-0.013159	-0.536445	99
Es	0.221431	0.044133	-1.227534	99
Es	-0.808691	0.009223	-0.553570	99
Es	0.909984	1.645075	0.069971	99
Es	0.205789	0.583150	-0.117191	99
Es	0.948267	-1.624494	-0.040988	99
Es	1.249311	0.487257	0.584994	99
Es	0.257530	-1.282049	0.906675	99
Es	1.651439	-0.005116	0.718804	99
Es	1.260752	-0.496542	0.551623	99
Es	0.634377	1.028774	0.400336	99
Es	1.769093	-0.015337	1.059791	99
Es	-0.050051	0.017875	-0.545776	99
Es	-3.393266	-0.021268	-0.533630	99
Es	-2.108264	-0.266292	-0.783783	99
Es	0.219284	-0.568976	-0.156242	99
Es	0.228208	1.223212	0.991732	99
Es	-2.112388	0.338345	-0.637257	99
Es	-1.497591	0.000764	-0.538278	99
35
Properties=species:S:1:pos:R:3:Z:I:1 energy=-247.83234818478323 field_type=dipole dipole="0.000000 0.000000 0.000000" charge=0
C	-2.697310	-0.013152	-0.536477	6
C	-1.497831	0.000768	-0.538277	6
C	-0.049941	0.017878	-0.545807	6
C	0.634299	1.028908	0.400353	6
N	1.651659	-0.005142	0.719383	7
C	0.658509	-1.038702	0.330173	6
H	-3.763641	-0.025542	-0.533087	1
H	0.364059	0.057248	-1.563427	1
H	0.045019	1.334558	1.273883	1
H	1.035339	1.927348	-0.078757	1
H	2.462500	0.025378	0.099963	1
H	1.080090	-1.892962	-0.208427	1
H	0.077250	-1.416592	1.180503	1
Es	0.221421	0.044197	-1.227517	99
Es	0.634377	1.028777	0.400336	99
Es	0.909951	1.645041	0.070019	99
Es	-3.393233	-0.021281	-0.533637	99
Es	0.219183	-0.569088	-0.156201	99
Es	-0.050050	0.017876	-0.545775	99
Es	-0.808547	0.009247	-0.553631	99
Es	-2.106789	0.028544	-0.176009	99
Es	0.658584	-1.038568	0.330165	99
Es	-1.497590	0.000770	-0.538278	99
Es	0.257605	-1.282069	0.906615	99
Es	-2.697559	-0.013156	-0.536465	99
Es	0.948250	-1.624487	-0.040961	99
Es	1.249245	0.487355	0.585209	99
Es	1.769615	-0.015337	1.059698	99
Es	-2.105119	-0.333513	-0.684964	99
Es	1.260819	-0.496608	0.551852	99
Es	0.228239	1.223247	0.991689	99
Es	-2.114119	0.285792	-0.744816	99
Es	2.111034	0.014070	0.310487	99
Es	0.205623	0.583248	-0.117173	99
Es	1.651424	-0.005127	0.718757	99
35
Properties=species:S:1:pos:R:3:Z:I:1 energy=-247.83234818478323 field_type=dipole dipole="0.000000 0.000000 0.000000" charge=0
C	-2.697310	-0.013152	-0.536477	6
C	-1.497831	0.000768	-0.538277	6
C	-0.049941	0.017878	-0.545807	6
C	0.634299	1.028908	0.400353	6
N	1.651659	-0.005142	0.719383	7
C	0.658509	-1.038702	0.330173	6
H	-3.763641	-0.025542	-0.533087	1
H	0.364059	0.057248	-1.563427	1
H	0.045019	1.334558	1.273883	1
H	1.035339	1.927348	-0.078757	1
H	2.462500	0.025378	0.099963	1
H	1.080090	-1.892962	-0.208427	1
H	0.077250	-1.416592	1.180503	1
Es	2.111753	0.013968	0.311049	99
Es	1.651449	-0.005129	0.718814	99
Es	-3.393195	-0.021271	-0.533608	99
Es	0.909951	1.645047	0.070070	99
Es	0.257590	-1.282083	0.906586	99
Es	-1.497591	0.000770	-0.538275	99
Es	-0.050049	0.017876	-0.545776	99
Es	1.260794	-0.496909	0.552056	99
Es	-2.108830	0.266418	-0.303705	99
Es	0.228290	1.223263	0.991585	99
Es	0.948208	-1.624442	-0.040852	99
Es	0.658584	-1.038566	0.330165	99
Es	-0.808324	0.009339	-0.553809	99
Es	-2.697559	-0.013155	-0.536465	99
Es	0.634376	1.028779	0.400335	99
Es	0.205646	0.583214	-0.117178	99
Es	-2.115526	0.057342	-0.886821	99
Es	0.221312	0.044237	-1.227490	99
Es	1.768887	-0.015200	1.058923	99
Es	1.249336	0.487592	0.585273	99
Es	-2.101869	-0.342984	-0.414998	99
Es	0.219133	-0.569180	-0.156477	99
35
Properties=species:S:1:pos:R:3:Z:I:1 energy=-247.83234818478323 field_type=dipole dipole="0.000000 0.000000 0.000000" charge=0
C	-2.697310	-0.013152	-0.536477	6
C	-1.497831	0.000768	-0.538277	6
C	-0.049941	0.017878	-0.545807	6
C	0.634299	1.028908	0.400353	6
N	1.651659	-0.005142	0.719383	7
C	0.658509	-1.038702	0.330173	6
H	-3.763641	-0.025542	-0.533087	1
H	0.364059	0.057248	-1.563427	1
H	0.045019	1.334558	1.273883	1
H	1.035339	1.927348	-0.078757	1
H	2.462500	0.025378	0.099963	1
H	1.080090	-1.892962	-0.208427	1
H	0.077250	-1.416592	1.180503	1
Es	0.228295	1.223214	0.991576	99
Es	0.658584	-1.038568	0.330164	99
Es	0.205549	0.583452	-0.117242	99
Es	-2.697558	-0.013155	-0.536465	99
Es	1.249328	0.487652	0.585475	99
Es	0.634377	1.028777	0.400335	99
Es	-0.808295	0.009193	-0.553607	99
Es	-2.104784	-0.131532	-0.196807	99
Es	0.948173	-1.624428	-0.040789	99
Es	0.219043	-0.569300	-0.156366	99
Es	0.909886	1.645050	0.070186	99
Es	-1.497591	0.000772	-0.538274	99
Es	-3.393171	-0.021243	-0.533598	99
Es	-2.109483	-0.234981	-0.812179	99
Es	1.260869	-0.497056	0.552167	99
Es	-0.050047	0.017876	-0.545774	99
Es	1.769179	-0.015227	1.058698	99
Es	1.651422	-0.005119	0.718812	99
Es	2.111544	0.014091	0.310956	99
Es	-2.111828	0.347396	-0.596868	99
Es	0.257640	-1.282104	0.906536	99
Es	0.221234	0.044168	-1.227535	99
35
Properties=species:S:1:pos:R:3:Z:I:1 energy=-247.83234818478323 field_type=dipole dipole="0.000000 0.000000 0.000000" charge=0
C	-2.697310	-0.013152	-0.536477	6
C	-1.497831	0.000768	-0.538277	6
C	-0.049941	0.017878	-0.545807	6
C	0.634299	1.028908	0.400353	6
N	1.651659	-0.005142	0.719383	7
C	0.658509	-1.038702	0.330173	6
H	-3.763641	-0.025542	-0.533087	1
H	0.364059	0.057248	-1.563427	1
H	0.045019	1.334558	1.273883	1
H	1.035339	1.927348	-0.078757	1
H	2.462500	0.025378	0.099963	1
H	1.080090	-1.892962	-0.208427	1
H	0.077250	-1.416592	1.180503	1
Es	0.634377	1.028776	0.400335	99
Es	0.205494	0.583529	-0.117300	99
Es	-0.808113	0.009199	-0.553812	99
Es	-2.112283	-0.143811	-0.866039	99
Es	-2.110481	0.348905	-0.489578	99
Es	0.257673	-1.282115	0.906489	99
Es	1.260913	-0.497147	0.552142	99
Es	0.221162	0.044160	-1.227524	99
Es	0.909851	1.645022	0.070248	99
Es	1.651447	-0.005124	0.718795	99
Es	0.228325	1.223235	0.991529	99
Es	-0.050048	0.017876	-0.545775	99
Es	1.768834	-0.015272	1.058418	99
Es	2.111855	0.014104	0.311239	99
Es	-1.497592	0.000771	-0.538276	99
Es	0.658584	-1.038567	0.330164	99
Es	-2.103416	-0.224243	-0.249992	99
Es	0.218978	-0.569378	-0.156427	99
Es	0.948138	-1.624410	-0.040719	99
Es	-2.697556	-0.013154	-0.536463	99
Es	-3.393166	-0.021208	-0.533625	99
Es	1.249390	0.487779	0.585574	99
35
Properties=species:S:1:pos:R:3:Z:I:1 energy=-247.83234818478323 field_type=dipole dipole="0.000000 0.000000 0.000000" charge=0
C	-2.697310	-0.013152	-0.536477	6
C	-1.497831	0.000768	-0.538277	6
C	-0.049941	0.017878	-0.545807	6
C	0.634299	1.028908	0.400353	6
N	1.651659	-0.005142	0.719383	7
C	0.658509	-1.038702	0.330173	6
H	-3.763641	-0.025542	-0.533087	1
H	0.364059	0.057248	-1.563427	1
H	0.045019	1.334558	1.273883	1
H	1.035339	1.927348	-0.078757	1
H	2.462500	0.025378	0.099963	1
H	1.080090	-1.892962	-0.208427	1
H	0.077250	-1.416592	1.180503	1
Es	1.249416	0.487918	0.585679	99
Es	-1.497593	0.000771	-0.538275	99
Es	-2.697556	-0.013156	-0.536465	99
Es	0.909815	1.645010	0.070317	99
Es	0.658584	-1.038568	0.330164	99
Es	-0.808005	0.009402	-0.553768	99
Es	1.260948	-0.497278	0.552241	99
Es	0.205426	0.583608	-0.117327	99
Es	-2.108166	0.178545	-0.227286	99
Es	1.768752	-0.015266	1.058102	99
Es	0.221084	0.044200	-1.227515	99
Es	2.111957	0.014097	0.311392	99
Es	-2.115654	0.166985	-0.848899	99
Es	0.257701	-1.282130	0.906455	99
Es	0.228360	1.223246	0.991484	99
Es	-0.050047	0.017876	-0.545774	99
Es	1.651451	-0.005124	0.718794	99
Es	-3.393106	-0.021321	-0.533662	99
Es	0.948115	-1.624379	-0.040664	99
Es	0.218912	-0.569516	-0.156455	99
Es	-2.102404	-0.364770	-0.529470	99
Es	0.634377	1.028776	0.400335	99
35
Properties=species:S:1:pos:R:3:Z:I:1 energy=-247.83234818478323 field_type=dipole dipole="0.000000 0.000000 0.000000" charge=0
C	-2.697310	-0.013152	-0.536477	6
C	-1.497831	0.000768	-0.538277	6
C	-0.049941	0.017878	-0.545807	6
C	0.634299	1.028908	0.400353	6
N	1.651659	-0.005142	0.719383	7
C	0.658509	-1.038702	0.330173	6
H	-3.763641	-0.025542	-0.533087	1
H	0.364059	0.057248	-1.563427	1
H	0.045019	1.334558	1.273883	1
H	1.035339	1.927348	-0.078757	1
H	2.462500	0.025378	0.099963	1
H	1.080090	-1.892962	-0.208427	1
H	0.077250	-1.416592	1.180503	1
Es	-2.697556	-0.013155	-0.536465	99
Es	0.948079	-1.624371	-0.040595	99
Es	0.634377	1.028777	0.400335	99
Es	1.768846	-0.015268	1.057774	99
Es	-2.104183	-0.177787	-0.218909	99
Es	1.249427	0.488050	0.585864	99
Es	0.257728	-1.282140	0.906408	99
Es	0.218847	-0.569605	-0.156472	99
Es	-2.110867	-0.193763	-0.841388	99
Es	1.651458	-0.005126	0.718835	99
Es	-0.050047	0.017876	-0.545773	99
Es	0.205340	0.583752	-0.117336	99
Es	-3.393079	-0.021211	-0.533685	99
Es	-0.807910	0.009202	-0.553757	99
Es	0.228386	1.223268	0.991444	99
Es	2.111902	0.014100	0.311397	99
Es	-2.111157	0.352403	-0.545395	99
Es	-1.497593	0.000771	-0.538277	99
Es	0.221012	0.044163	-1.227525	99
Es	0.658583	-1.038568	0.330164	99
Es	0.909799	1.644975	0.070370	99
Es	1.260971	-0.497416	0.552387	99
35
Properties=species:S:1:pos:R:3:Z:I:1 energy=-247.83234818478323 field_type=dipole dipole="0.000000 0.000000 0.000000" charge=0
C	-2.697310	-0.013152	-0.536477	6
C	-1.497831	0.000768	-0.538277	6
C	-0.049941	0.017878	-0.545807	6
C	0.634299	1.028908	0.400353	6
N	1.651659	-0.005142	0.719383	7
C	0.658509	-1.038702	0.330173	6
H	-3.763641	-0.025542	-0.533087	1
H	0.364059	0.057248	-1.563427	1
H	0.045019	1.334558	1.273883	1
H	1.035339	1.927348	-0.078757	1
H	2.462500	0.025378	0.099963	1
H	1.080090	-1.892962	-0.208427	1
H	0.077250	-1.416592	1.180503	1
Es	-2.697555	-0.013155	-0.536461	99
Es	-0.050047	0.017876	-0.545774	99
Es	0.220949	0.044167	-1.227512	99
Es	1.768786	-0.015252	1.057606	99
Es	0.909748	1.644948	0.070403	99
Es	0.634377	1.028777	0.400335	99
Es	-2.103055	-0.249399	-0.271819	99
Es	1.261016	-0.497503	0.552464	99
Es	0.205284	0.583824	-0.117342	99
Es	1.249472	0.488124	0.585918	99
Es	-2.110164	0.342871	-0.456643	99
Es	0.658583	-1.038568	0.330163	99
Es	1.651457	-0.005125	0.718800	99
Es	2.111971	0.014095	0.311508	99
Es	-1.497593	0.000771	-0.538275	99
Es	0.948051	-1.624356	-0.040541	99
Es	-0.807736	0.009223	-0.553874	99
Es	-3.393097	-0.021239	-0.533625	99
Es	-2.113046	-0.112612	-0.877178	99
Es	0.228417	1.223290	0.991410	99
Es	0.218779	-0.569680	-0.156528	99
Es	0.257766	-1.282150	0.906367	99
