35
Properties=species:S:1:pos:R:3:Z:I:1 energy=-247.83709959669974 field_type=dipole dipole="0.000000 0.000000 0.000000" charge=0
C	0.918026	-2.591733	0.253345	6
C	0.104806	-1.722743	0.254435	6
C	-0.881864	-0.668403	0.255755	6
C	-0.087734	0.597797	0.365905	6
C	0.412706	1.308357	-0.867145	6
N	-0.691924	1.856397	-0.086815	7
H	1.644586	-3.371463	0.251085	1
H	-1.557504	-0.758963	1.112525	1
H	-1.488904	-0.692403	-0.655845	1
H	0.490606	0.662117	1.281205	1
H	0.153866	0.909917	-1.841264	1
H	1.358506	1.833207	-0.814144	1
H	-0.375174	2.637917	0.490955	1
Es	1.394084	-3.100777	0.251924	99
Es	0.318146	0.786057	-0.284213	99
Es	-0.207577	1.736026	-0.505386	99
Es	1.056583	1.667138	-0.830246	99
Es	0.309455	0.641457	0.986991	99
Es	-1.271534	-0.693093	-0.355767	99
Es	-0.497417	-0.043066	0.301030	99
Es	-0.511683	1.315339	0.228225	99
Es	0.416435	-2.261633	-0.072246	99
Es	-1.320553	-0.740172	0.831952	99
Es	0.412527	1.308404	-0.866959	99
Es	0.236857	1.036908	-1.527728	99
Es	0.918218	-2.591916	0.253342	99
Es	-0.480784	2.315854	0.263612	99
Es	-0.881758	-0.668475	0.255763	99
Es	-0.691344	1.856313	-0.086624	99
Es	-0.378686	-1.221413	0.256091	99
Es	-0.087837	0.597972	0.365775	99
Es	0.104619	-1.722540	0.254436	99
Es	-1.023935	1.852285	-0.222326	99
Es	0.369358	-2.311986	0.541310	99
Es	0.779686	-1.920969	0.295459	99
35
Properties=species:S:1:pos:R:3:Z:I:1 energy=-247.83709959669974 field_type=dipole dipole="0.000000 0.000000 0.000000" charge=0
C	0.918026	-2.591733	0.253345	6
C	0.104806	-1.722743	0.254435	6
C	-0.881864	-0.668403	0.255755	6
C	-0.087734	0.597797	0.365905	6
C	0.412706	1.308357	-0.867145	6
N	-0.691924	1.856397	-0.086815	7
H	1.644586	-3.371463	0.251085	1
H	-1.557504	-0.758963	1.112525	1
H	-1.488904	-0.692403	-0.655845	1
H	0.490606	0.662117	1.281205	1
H	0.153866	0.909917	-1.841264	1
H	1.358506	1.833207	-0.814144	1
H	-0.375174	2.637917	0.490955	1
Es	-0.512531	1.315126	0.228512	99
Es	-0.881758	-0.668475	0.255763	99
Es	0.412525	1.308408	-0.866958	99
Es	0.684460	-2.007813	0.534900	99
Es	1.056489	1.667227	-0.830408	99
Es	-1.022893	1.852428	-0.222398	99
Es	0.236868	1.036928	-1.527590	99
Es	-0.207852	1.735822	-0.505329	99
Es	-1.320665	-0.740276	0.831920	99
Es	0.614824	-2.075782	-0.081625	99
Es	-0.378672	-1.221457	0.256112	99
Es	0.266134	-2.411030	0.311216	99
Es	-0.481080	2.316223	0.263496	99
Es	0.309391	0.641471	0.986944	99
Es	0.318604	0.785782	-0.284387	99
Es	0.918218	-2.591919	0.253344	99
Es	1.394062	-3.100623	0.252026	99
Es	-0.691333	1.856321	-0.086617	99
Es	0.104618	-1.722540	0.254434	99
Es	-0.087839	0.597980	0.365772	99
Es	-1.271427	-0.693115	-0.355973	99
Es	-0.497283	-0.042972	0.301259	99
35
Properties=species:S:1:pos:R:3:Z:I:1 energy=-247.83709959669974 field_type=dipole dipole="0.000000 0.000000 0.000000" charge=0
C	0.918026	-2.591733	0.253345	6
C	0.104806	-1.722743	0.254435	6
C	-0.881864	-0.668403	0.255755	6
C	-0.087734	0.597797	0.365905	6
C	0.412706	1.308357	-0.867145	6
N	-0.691924	1.856397	-0.086815	7
H	1.644586	-3.371463	0.251085	1
H	-1.557504	-0.758963	1.112525	1
H	-1.488904	-0.692403	-0.655845	1
H	0.490606	0.662117	1.281205	1
H	0.153866	0.909917	-1.841264	1
H	1.358506	1.833207	-0.814144	1
H	-0.375174	2.637917	0.490955	1
Es	0.412532	1.308406	-0.866966	99
Es	0.675122	-2.016503	0.545709	99
Es	0.918213	-2.591917	0.253357	99
Es	-1.271548	-0.693167	-0.355864	99
Es	-0.513477	1.315134	0.228878	99
Es	-1.022276	1.852647	-0.222675	99
Es	0.263950	-2.412880	0.292948	99
Es	-0.691343	1.856311	-0.086625	99
Es	-0.481508	2.316124	0.263603	99
Es	1.394031	-3.100605	0.252153	99
Es	-0.087834	0.597973	0.365774	99
Es	0.318574	0.785640	-0.284336	99
Es	-0.378779	-1.221384	0.255958	99
Es	-0.497093	-0.042912	0.301096	99
Es	0.309415	0.641412	0.986908	99
Es	0.104620	-1.722542	0.254435	99
Es	0.236928	1.037130	-1.527617	99
Es	1.056359	1.667150	-0.830384	99
Es	-0.207084	1.735776	-0.505480	99
Es	-1.320548	-0.740343	0.832099	99
Es	-0.881759	-0.668475	0.255763	99
Es	0.626362	-2.065262	-0.074318	99
35
Properties=species:S:1:pos:R:3:Z:I:1 energy=-247.83709959669974 field_type=dipole dipole="0.000000 0.000000 0.000000" charge=0
C	0.918026	-2.591733	0.253345	6
C	0.104806	-1.722743	0.254435	6
C	-0.881864	-0.668403	0.255755	6
C	-0.087734	0.597797	0.365905	6
C	0.412706	1.308357	-0.867145	6
N	-0.691924	1.856397	-0.086815	7
H	1.644586	-3.371463	0.251085	1
H	-1.557504	-0.758963	1.112525	1
H	-1.488904	-0.692403	-0.655845	1
H	0.490606	0.662117	1.281205	1
H	0.153866	0.909917	-1.841264	1
H	1.358506	1.833207	-0.814144	1
H	-0.375174	2.637917	0.490955	1
Es	0.236997	1.037192	-1.527551	99
Es	0.651994	-2.041444	-0.057254	99
Es	-0.513234	1.315112	0.229262	99
Es	-0.497049	-0.042863	0.301235	99
Es	0.651093	-2.039235	0.567119	99
Es	-0.691357	1.856313	-0.086631	99
Es	-1.320494	-0.740403	0.832060	99
Es	0.309390	0.641388	0.986789	99
Es	0.318923	0.785550	-0.284624	99
Es	-0.481620	2.316405	0.263299	99
Es	-1.271589	-0.693206	-0.355930	99
Es	-0.087827	0.597975	0.365764	99
Es	-0.207835	1.735885	-0.506114	99
Es	0.104629	-1.722546	0.254424	99
Es	1.394013	-3.100612	0.252027	99
Es	-0.881758	-0.668475	0.255763	99
Es	1.056238	1.667176	-0.830442	99
Es	-1.021893	1.852308	-0.221773	99
Es	0.262318	-2.413954	0.254636	99
Es	0.412528	1.308409	-0.866964	99
Es	0.918215	-2.591918	0.253346	99
Es	-0.378825	-1.221343	0.255978	99
35
Properties=species:S:1:pos:R:3:Z:I:1 energy=-247.83709959669974 field_type=dipole dipole="0.000000 0.000000 0.000000" charge=0
C	0.918026	-2.591733	0.253345	6
C	0.104806	-1.722743	0.254435	6
C	-0.881864	-0.668403	0.255755	6
C	-0.087734	0.597797	0.365905	6
C	0.412706	1.308357	-0.867145	6
N	-0.691924	1.856397	-0.086815	7
H	1.644586	-3.371463	0.251085	1
H	-1.557504	-0.758963	1.112525	1
H	-1.488904	-0.692403	-0.655845	1
H	0.490606	0.662117	1.281205	1
H	0.153866	0.909917	-1.841264	1
H	1.358506	1.833207	-0.814144	1
H	-0.375174	2.637917	0.490955	1
Es	0.262455	-2.413590	0.237646	99
Es	-1.320604	-0.740443	0.832120	99
Es	1.056199	1.667065	-0.830434	99
Es	0.640093	-2.049669	0.575200	99
Es	-1.021530	1.852574	-0.221818	99
Es	-0.207804	1.736330	-0.506317	99
Es	-0.481737	2.316267	0.263319	99
Es	0.318911	0.785297	-0.284366	99
Es	1.394003	-3.100575	0.252141	99
Es	0.918219	-2.591918	0.253350	99
Es	-1.271490	-0.693113	-0.355965	99
Es	-0.496859	-0.042882	0.301312	99
Es	0.237057	1.037171	-1.527534	99
Es	0.412530	1.308409	-0.866966	99
Es	0.104619	-1.722540	0.254435	99
Es	-0.087842	0.597975	0.365777	99
Es	-0.378886	-1.221242	0.255818	99
Es	-0.881758	-0.668475	0.255763	99
Es	0.662817	-2.031500	-0.048392	99
Es	-0.691355	1.856304	-0.086636	99
Es	-0.513533	1.314922	0.229220	99
Es	0.309354	0.641347	0.986745	99
35
Properties=species:S:1:pos:R:3:Z:I:1 energy=-247.83709959669974 field_type=dipole dipole="0.000000 0.000000 0.000000" charge=0
C	0.918026	-2.591733	0.253345	6
C	0.104806	-1.722743	0.254435	6
C	-0.881864	-0.668403	0.255755	6
C	-0.087734	0.597797	0.365905	6
C	0.412706	1.308357	-0.867145	6
N	-0.691924	1.856397	-0.086815	7
H	1.644586	-3.371463	0.251085	1
H	-1.557504	-0.758963	1.112525	1
H	-1.488904	-0.692403	-0.655845	1
H	0.490606	0.662117	1.281205	1
H	0.153866	0.909917	-1.841264	1
H	1.358506	1.833207	-0.814144	1
H	-0.375174	2.637917	0.490955	1
Es	0.537161	-2.148485	0.613077	99
Es	-0.482047	2.316379	0.263231	99
Es	1.393881	-3.100637	0.252112	99
Es	-1.320556	-0.740527	0.832121	99
Es	0.288818	-2.385926	0.095682	99
Es	-0.496874	-0.042788	0.301349	99
Es	0.319171	0.785102	-0.284371	99
Es	0.237071	1.037246	-1.527465	99
Es	0.412530	1.308408	-0.866964	99
Es	-1.021102	1.852462	-0.221679	99
Es	-0.087835	0.597978	0.365771	99
Es	0.739516	-1.960354	0.055675	99
Es	-0.207819	1.736447	-0.506554	99
Es	0.104620	-1.722542	0.254436	99
Es	-0.513730	1.314892	0.229435	99
Es	1.056119	1.667070	-0.830514	99
Es	0.309230	0.641366	0.986672	99
Es	-0.881759	-0.668475	0.255763	99
Es	-1.271507	-0.693258	-0.355964	99
Es	-0.378890	-1.221041	0.255884	99
Es	-0.691355	1.856312	-0.086630	99
Es	0.918215	-2.591916	0.253347	99
35
Properties=species:S:1:pos:R:3:Z:I:1 energy=-247.83709959669974 field_type=dipole dipole="0.000000 0.000000 0.000000" charge=0
C	0.918026	-2.591733	0.253345	6
C	0.104806	-1.722743	0.254435	6
C	-0.881864	-0.668403	0.255755	6
C	-0.087734	0.597797	0.365905	6
C	0.412706	1.308357	-0.867145	6
N	-0.691924	1.856397	-0.086815	7
H	1.644586	-3.371463	0.251085	1
H	-1.557504	-0.758963	1.112525	1
H	-1.488904	-0.692403	-0.655845	1
H	0.490606	0.662117	1.281205	1
H	0.153866	0.909917	-1.841264	1
H	1.358506	1.833207	-0.814144	1
H	-0.375174	2.637917	0.490955	1
Es	0.319334	0.784960	-0.284342	99
Es	-0.881759	-0.668475	0.255763	99
Es	-0.514085	1.314675	0.229613	99
Es	0.507419	-2.177348	0.612704	99
Es	-0.207912	1.736679	-0.506915	99
Es	0.104619	-1.722544	0.254439	99
Es	1.056034	1.667037	-0.830566	99
Es	-0.691366	1.856323	-0.086624	99
Es	-1.271469	-0.693311	-0.356000	99
Es	-0.378955	-1.220969	0.255961	99
Es	-0.087837	0.597980	0.365771	99
Es	0.303611	-2.371141	0.060002	99
Es	-0.482239	2.316392	0.263208	99
Es	0.309154	0.641358	0.986606	99
Es	-1.320585	-0.740532	0.832101	99
Es	0.412530	1.308408	-0.866964	99
Es	-1.020541	1.852562	-0.221480	99
Es	0.918214	-2.591915	0.253344	99
Es	0.237121	1.037290	-1.527403	99
Es	1.393832	-3.100641	0.252101	99
Es	0.754535	-1.946298	0.091713	99
Es	-0.496795	-0.042775	0.301382	99
35
Properties=species:S:1:pos:R:3:Z:I:1 energy=-247.83709959669974 field_type=dipole dipole="0.000000 0.000000 0.000000" charge=0
C	0.918026	-2.591733	0.253345	6
C	0.104806	-1.722743	0.254435	6
C	-0.881864	-0.668403	0.255755	6
C	-0.087734	0.597797	0.365905	6
C	0.412706	1.308357	-0.867145	6
N	-0.691924	1.856397	-0.086815	7
H	1.644586	-3.371463	0.251085	1
H	-1.557504	-0.758963	1.112525	1
H	-1.488904	-0.692403	-0.655845	1
H	0.490606	0.662117	1.281205	1
H	0.153866	0.909917	-1.841264	1
H	1.358506	1.833207	-0.814144	1
H	-0.375174	2.637917	0.490955	1
Es	-1.020431	1.852705	-0.221303	99
Es	-1.320598	-0.740589	0.832146	99
Es	0.695893	-2.000915	-0.014181	99
Es	0.309149	0.641321	0.986513	99
Es	0.267321	-2.408038	0.181661	99
Es	-0.691345	1.856314	-0.086623	99
Es	-0.496642	-0.042728	0.301415	99
Es	0.104621	-1.722542	0.254436	99
Es	0.412531	1.308404	-0.866963	99
Es	0.237173	1.037324	-1.527349	99
Es	1.393863	-3.100575	0.252127	99
Es	-0.881758	-0.668476	0.255764	99
Es	0.918217	-2.591918	0.253347	99
Es	-0.207914	1.736844	-0.507250	99
Es	-0.482228	2.316287	0.263070	99
Es	-0.514263	1.314553	0.229974	99
Es	-0.087847	0.597975	0.365782	99
Es	0.602259	-2.085807	0.596956	99
Es	-0.379014	-1.221013	0.255915	99
Es	0.319352	0.784962	-0.284379	99
Es	1.055974	1.666976	-0.830593	99
Es	-1.271456	-0.693351	-0.356050	99
35
Properties=species:S:1:pos:R:3:Z:I:1 energy=-247.83709959669974 field_type=dipole dipole="0.000000 0.000000 0.000000" charge=0
C	0.918026	-2.591733	0.253345	6
C	0.104806	-1.722743	0.254435	6
C	-0.881864	-0.668403	0.255755	6
C	-0.087734	0.597797	0.365905	6
C	0.412706	1.308357	-0.867145	6
N	-0.691924	1.856397	-0.086815	7
H	1.644586	-3.371463	0.251085	1
H	-1.557504	-0.758963	1.112525	1
H	-1.488904	-0.692403	-0.655845	1
H	0.490606	0.662117	1.281205	1
H	0.153866	0.909917	-1.841264	1
H	1.358506	1.833207	-0.814144	1
H	-0.375174	2.637917	0.490955	1
Es	-0.514426	1.314693	0.229957	99
Es	0.697292	-1.995822	0.520975	99
Es	-0.482888	2.316621	0.263038	99
Es	0.104621	-1.722543	0.254438	99
Es	0.308985	0.641364	0.986479	99
Es	0.319756	0.784571	-0.284351	99
Es	1.393900	-3.100497	0.252083	99
Es	0.269004	-2.408530	0.331658	99
Es	0.599186	-2.090474	-0.088277	99
Es	0.237168	1.037451	-1.527312	99
Es	-0.207835	1.736934	-0.506990	99
Es	-1.271457	-0.693358	-0.356109	99
Es	-1.320587	-0.740626	0.832129	99
Es	-0.881758	-0.668475	0.255765	99
Es	-0.691350	1.856304	-0.086632	99
Es	-0.087835	0.597978	0.365770	99
Es	-1.019835	1.852351	-0.221515	99
Es	0.918217	-2.591913	0.253359	99
Es	0.412530	1.308409	-0.866966	99
Es	-0.496587	-0.042724	0.301524	99
Es	-0.379118	-1.220981	0.256056	99
Es	1.055876	1.666981	-0.830663	99
35
Properties=species:S:1:pos:R:3:Z:I:1 energy=-247.83709959669974 field_type=dipole dipole="0.000000 0.000000 0.000000" charge=0
C	0.918026	-2.591733	0.253345	6
C	0.104806	-1.722743	0.254435	6
C	-0.881864	-0.668403	0.255755	6
C	-0.087734	0.597797	0.365905	6
C	0.412706	1.308357	-0.867145	6
N	-0.691924	1.856397	-0.086815	7
H	1.644586	-3.371463	0.251085	1
H	-1.557504	-0.758963	1.112525	1
H	-1.488904	-0.692403	-0.655845	1
H	0.490606	0.662117	1.281205	1
H	0.153866	0.909917	-1.841264	1
H	1.358506	1.833207	-0.814144	1
H	-0.375174	2.637917	0.490955	1
Es	0.656287	-2.037572	-0.054056	99
Es	1.393821	-3.100528	0.252023	99
Es	0.918214	-2.591916	0.253347	99
Es	-0.087834	0.597980	0.365769	99
Es	-0.496494	-0.042599	0.301491	99
Es	0.319910	0.784449	-0.284328	99
Es	-1.019535	1.852415	-0.221045	99
Es	0.308992	0.641292	0.986423	99
Es	-1.320627	-0.740672	0.832204	99
Es	-0.691356	1.856308	-0.086638	99
Es	-1.271414	-0.693413	-0.356064	99
Es	-0.482888	2.316548	0.263076	99
Es	0.647016	-2.043195	0.570645	99
Es	-0.379203	-1.220988	0.255899	99
Es	1.055715	1.666953	-0.830698	99
Es	0.412528	1.308410	-0.866963	99
Es	-0.514604	1.314673	0.230037	99
Es	-0.881759	-0.668474	0.255763	99
Es	0.237252	1.037432	-1.527292	99
Es	0.262245	-2.413976	0.247935	99
Es	-0.208030	1.737130	-0.507549	99
Es	0.104622	-1.722543	0.254436	99
