41
Properties=species:S:1:pos:R:3:Z:I:1 energy=-250.26004755730781 field_type=dipole dipole="0.000000 0.000000 0.000000" charge=0
C	-1.784543	-1.888910	-1.033446	6
C	-0.803993	-1.593760	0.090514	6
C	-0.453733	-0.135200	0.142654	6
C	0.794257	0.339460	-0.003066	6
C	1.158978	1.787800	0.045314	6
N	2.116198	2.008800	1.116884	7
H	-2.029553	-2.955740	-1.050916	1
H	-1.361773	-1.622470	-2.007866	1
H	-2.717543	-1.330900	-0.902256	1
H	0.093597	-2.209470	-0.042956	1
H	-1.250383	-1.882870	1.048854	1
H	-1.275543	0.555600	0.321524	1
H	1.617127	-0.351070	-0.178266	1
H	0.278717	2.420840	0.199494	1
H	1.610037	2.075080	-0.910466	1
H	1.668488	1.782010	2.003603	1
H	2.339667	3.000800	1.160404	1
Es	1.355654	-0.125906	-0.122432	99
Es	-0.453844	-0.135256	0.142668	99
Es	0.123465	0.131108	-0.256218	99
Es	0.968390	1.061781	0.022231	99
Es	0.220432	0.086138	0.398658	99
Es	-1.020780	0.330965	0.263430	99
Es	0.541537	2.219300	0.147749	99
Es	-1.493602	-1.705951	-1.695443	99
Es	1.827495	1.884623	1.647303	99
Es	1.466858	1.981140	-0.605959	99
Es	-1.950906	-2.617561	-1.042769	99
Es	-1.294030	-1.730703	-0.471743	99
Es	-1.110424	-1.783312	0.743288	99
Es	2.230847	2.615656	1.142037	99
Es	2.115720	2.009109	1.116955	99
Es	-2.420323	-1.504046	-0.939967	99
Es	-0.804015	-1.593718	0.090489	99
Es	-0.187770	-2.009261	-0.003413	99
Es	-1.784531	-1.888906	-1.033421	99
Es	1.159068	1.787782	0.045415	99
Es	1.684823	1.925671	0.659975	99
Es	0.794349	0.339520	-0.003081	99
Es	2.409508	1.814665	1.072748	99
Es	-0.626097	-0.859795	0.114345	99
41
Properties=species:S:1:pos:R:3:Z:I:1 energy=-250.26004755730781 field_type=dipole dipole="0.000000 0.000000 0.000000" charge=0
C	-1.784543	-1.888910	-1.033446	6
C	-0.803993	-1.593760	0.090514	6
C	-0.453733	-0.135200	0.142654	6
C	0.794257	0.339460	-0.003066	6
C	1.158978	1.787800	0.045314	6
N	2.116198	2.008800	1.116884	7
H	-2.029553	-2.955740	-1.050916	1
H	-1.361773	-1.622470	-2.007866	1
H	-2.717543	-1.330900	-0.902256	1
H	0.093597	-2.209470	-0.042956	1
H	-1.250383	-1.882870	1.048854	1
H	-1.275543	0.555600	0.321524	1
H	1.617127	-0.351070	-0.178266	1
H	0.278717	2.420840	0.199494	1
H	1.610037	2.075080	-0.910466	1
H	1.668488	1.782010	2.003603	1
H	2.339667	3.000800	1.160404	1
Es	0.794349	0.339520	-0.003078	99
Es	0.220439	0.086100	0.398577	99
Es	-0.626003	-0.859892	0.114328	99
Es	2.231363	2.615783	1.142064	99
Es	-0.187768	-2.009354	-0.003297	99
Es	-1.294014	-1.730568	-0.471846	99
Es	2.408790	1.814916	1.072772	99
Es	2.115691	2.009133	1.116962	99
Es	0.541501	2.219250	0.147767	99
Es	1.355685	-0.125834	-0.122374	99
Es	0.123465	0.131071	-0.256210	99
Es	-2.420366	-1.504076	-0.939998	99
Es	0.968367	1.061892	0.022337	99
Es	-0.453843	-0.135253	0.142671	99
Es	1.684937	1.925558	0.659827	99
Es	1.827621	1.884312	1.647432	99
Es	-1.493671	-1.706055	-1.695484	99
Es	-1.784530	-1.888906	-1.033421	99
Es	1.159064	1.787781	0.045416	99
Es	1.466861	1.981137	-0.606016	99
Es	-1.950854	-2.617533	-1.042668	99
Es	-1.020795	0.330973	0.263374	99
Es	-1.110450	-1.783192	0.743220	99
Es	-0.804015	-1.593720	0.090490	99
41
Properties=species:S:1:pos:R:3:Z:I:1 energy=-250.26004755730781 field_type=dipole dipole="0.000000 0.000000 0.000000" charge=0
C	-1.784543	-1.888910	-1.033446	6
C	-0.803993	-1.593760	0.090514	6
C	-0.453733	-0.135200	0.142654	6
C	0.794257	0.339460	-0.003066	6
C	1.158978	1.787800	0.045314	6
N	2.116198	2.008800	1.116884	7
H	-2.029553	-2.955740	-1.050916	1
H	-1.361773	-1.622470	-2.007866	1
H	-2.717543	-1.330900	-0.902256	1
H	0.093597	-2.209470	-0.042956	1
H	-1.250383	-1.882870	1.048854	1
H	-1.275543	0.555600	0.321524	1
H	1.617127	-0.351070	-0.178266	1
H	0.278717	2.420840	0.199494	1
H	1.610037	2.075080	-0.910466	1
H	1.668488	1.782010	2.003603	1
H	2.339667	3.000800	1.160404	1
Es	0.794343	0.339518	-0.003081	99
Es	1.684950	1.925462	0.659802	99
Es	2.231258	2.615736	1.141994	99
Es	1.159066	1.787782	0.045416	99
Es	-0.626037	-0.859980	0.114395	99
Es	2.408928	1.814892	1.073009	99
Es	0.968321	1.061943	0.022295	99
Es	-0.453840	-0.135253	0.142665	99
Es	-0.804014	-1.593721	0.090491	99
Es	-1.294011	-1.730575	-0.471853	99
Es	-1.493688	-1.705963	-1.695417	99
Es	2.115750	2.009098	1.116949	99
Es	0.123503	0.131098	-0.255983	99
Es	0.220393	0.086143	0.398393	99
Es	1.355674	-0.125969	-0.122394	99
Es	-2.420309	-1.504119	-0.940037	99
Es	1.466819	1.981116	-0.605993	99
Es	-1.950893	-2.617576	-1.042787	99
Es	-0.187781	-2.009284	-0.003262	99
Es	-1.784530	-1.888906	-1.033421	99
Es	0.541563	2.219243	0.147701	99
Es	1.827551	1.884554	1.647363	99
Es	-1.110446	-1.783237	0.743217	99
Es	-1.020745	0.331040	0.263385	99
41
Properties=species:S:1:pos:R:3:Z:I:1 energy=-250.26004755730781 field_type=dipole dipole="0.000000 0.000000 0.000000" charge=0
C	-1.784543	-1.888910	-1.033446	6
C	-0.803993	-1.593760	0.090514	6
C	-0.453733	-0.135200	0.142654	6
C	0.794257	0.339460	-0.003066	6
C	1.158978	1.787800	0.045314	6
N	2.116198	2.008800	1.116884	7
H	-2.029553	-2.955740	-1.050916	1
H	-1.361773	-1.622470	-2.007866	1
H	-2.717543	-1.330900	-0.902256	1
H	0.093597	-2.209470	-0.042956	1
H	-1.250383	-1.882870	1.048854	1
H	-1.275543	0.555600	0.321524	1
H	1.617127	-0.351070	-0.178266	1
H	0.278717	2.420840	0.199494	1
H	1.610037	2.075080	-0.910466	1
H	1.668488	1.782010	2.003603	1
H	2.339667	3.000800	1.160404	1
Es	2.115712	2.009128	1.116950	99
Es	0.541577	2.219217	0.147645	99
Es	0.794346	0.339519	-0.003081	99
Es	1.355662	-0.126000	-0.122459	99
Es	-1.294019	-1.730559	-0.471851	99
Es	2.408403	1.814744	1.072544	99
Es	2.231823	2.615722	1.141987	99
Es	-1.493720	-1.705975	-1.695404	99
Es	1.466747	1.981080	-0.605964	99
Es	-1.110412	-1.783209	0.743216	99
Es	1.827871	1.884332	1.647575	99
Es	1.159065	1.787782	0.045415	99
Es	-0.804015	-1.593721	0.090490	99
Es	-1.020770	0.331094	0.263375	99
Es	0.220389	0.086141	0.398334	99
Es	-0.187762	-2.009273	-0.003249	99
Es	-0.453838	-0.135253	0.142668	99
Es	-1.950905	-2.617562	-1.042808	99
Es	-2.420302	-1.504135	-0.940062	99
Es	-0.626022	-0.860035	0.114436	99
Es	1.684699	1.925860	0.660123	99
Es	0.968295	1.061998	0.022213	99
Es	0.123530	0.131053	-0.255827	99
Es	-1.784530	-1.888906	-1.033421	99
41
Properties=species:S:1:pos:R:3:Z:I:1 energy=-250.26004755730781 field_type=dipole dipole="0.000000 0.000000 0.000000" charge=0
C	-1.784543	-1.888910	-1.033446	6
C	-0.803993	-1.593760	0.090514	6
C	-0.453733	-0.135200	0.142654	6
C	0.794257	0.339460	-0.003066	6
C	1.158978	1.787800	0.045314	6
N	2.116198	2.008800	1.116884	7
H	-2.029553	-2.955740	-1.050916	1
H	-1.361773	-1.622470	-2.007866	1
H	-2.717543	-1.330900	-0.902256	1
H	0.093597	-2.209470	-0.042956	1
H	-1.250383	-1.882870	1.048854	1
H	-1.275543	0.555600	0.321524	1
H	1.617127	-0.351070	-0.178266	1
H	0.278717	2.420840	0.199494	1
H	1.610037	2.075080	-0.910466	1
H	1.668488	1.782010	2.003603	1
H	2.339667	3.000800	1.160404	1
Es	0.220342	0.086193	0.398117	99
Es	-0.625948	-0.860129	0.114365	99
Es	1.466765	1.981101	-0.606017	99
Es	1.684927	1.925469	0.659753	99
Es	1.159065	1.787782	0.045415	99
Es	0.794346	0.339519	-0.003080	99
Es	2.408474	1.814976	1.073073	99
Es	2.231694	2.615692	1.141961	99
Es	2.115718	2.009116	1.116952	99
Es	-0.453840	-0.135253	0.142664	99
Es	1.827672	1.884526	1.647466	99
Es	-1.493738	-1.705998	-1.695379	99
Es	0.541591	2.219177	0.147654	99
Es	-1.950918	-2.617521	-1.042852	99
Es	-0.187847	-2.009277	-0.003215	99
Es	-0.804013	-1.593719	0.090489	99
Es	-1.020729	0.331128	0.263336	99
Es	-1.110317	-1.783166	0.743218	99
Es	-1.784530	-1.888906	-1.033421	99
Es	0.123546	0.131066	-0.255643	99
Es	1.355690	-0.126058	-0.122374	99
Es	0.968256	1.062092	0.022283	99
Es	-2.420310	-1.504150	-0.940107	99
Es	-1.294071	-1.730618	-0.471812	99
41
Properties=species:S:1:pos:R:3:Z:I:1 energy=-250.26004755730781 field_type=dipole dipole="0.000000 0.000000 0.000000" charge=0
C	-1.784543	-1.888910	-1.033446	6
C	-0.803993	-1.593760	0.090514	6
C	-0.453733	-0.135200	0.142654	6
C	0.794257	0.339460	-0.003066	6
C	1.158978	1.787800	0.045314	6
N	2.116198	2.008800	1.116884	7
H	-2.029553	-2.955740	-1.050916	1
H	-1.361773	-1.622470	-2.007866	1
H	-2.717543	-1.330900	-0.902256	1
H	0.093597	-2.209470	-0.042956	1
H	-1.250383	-1.882870	1.048854	1
H	-1.275543	0.555600	0.321524	1
H	1.617127	-0.351070	-0.178266	1
H	0.278717	2.420840	0.199494	1
H	1.610037	2.075080	-0.910466	1
H	1.668488	1.782010	2.003603	1
H	2.339667	3.000800	1.160404	1
Es	-0.453839	-0.135252	0.142666	99
Es	-1.110342	-1.783222	0.743227	99
Es	-1.784531	-1.888906	-1.033421	99
Es	-2.420263	-1.504197	-0.940115	99
Es	0.541602	2.219178	0.147629	99
Es	-0.804014	-1.593719	0.090490	99
Es	0.968281	1.062109	0.022323	99
Es	-1.950953	-2.617501	-1.042878	99
Es	2.408185	1.814973	1.073336	99
Es	-1.493794	-1.705986	-1.695398	99
Es	0.123543	0.131093	-0.255611	99
Es	0.220320	0.086181	0.397912	99
Es	-1.294003	-1.730557	-0.471840	99
Es	-1.020701	0.331177	0.263392	99
Es	1.685112	1.925559	0.659476	99
Es	-0.187804	-2.009208	-0.003214	99
Es	0.794341	0.339515	-0.003080	99
Es	1.466728	1.981094	-0.605981	99
Es	1.355665	-0.126099	-0.122348	99
Es	2.232023	2.615631	1.142076	99
Es	1.827442	1.884546	1.647390	99
Es	-0.625988	-0.860244	0.114462	99
Es	2.115749	2.009098	1.116940	99
Es	1.159065	1.787782	0.045415	99
41
Properties=species:S:1:pos:R:3:Z:I:1 energy=-250.26004755730781 field_type=dipole dipole="0.000000 0.000000 0.000000" charge=0
C	-1.784543	-1.888910	-1.033446	6
C	-0.803993	-1.593760	0.090514	6
C	-0.453733	-0.135200	0.142654	6
C	0.794257	0.339460	-0.003066	6
C	1.158978	1.787800	0.045314	6
N	2.116198	2.008800	1.116884	7
H	-2.029553	-2.955740	-1.050916	1
H	-1.361773	-1.622470	-2.007866	1
H	-2.717543	-1.330900	-0.902256	1
H	0.093597	-2.209470	-0.042956	1
H	-1.250383	-1.882870	1.048854	1
H	-1.275543	0.555600	0.321524	1
H	1.617127	-0.351070	-0.178266	1
H	0.278717	2.420840	0.199494	1
H	1.610037	2.075080	-0.910466	1
H	1.668488	1.782010	2.003603	1
H	2.339667	3.000800	1.160404	1
Es	-1.294037	-1.730591	-0.471920	99
Es	-1.493796	-1.706017	-1.695380	99
Es	0.968299	1.062185	0.022286	99
Es	-0.187817	-2.009163	-0.003143	99
Es	1.355635	-0.126138	-0.122328	99
Es	-1.784531	-1.888905	-1.033423	99
Es	-0.453839	-0.135252	0.142666	99
Es	-1.020694	0.331195	0.263400	99
Es	1.159066	1.787783	0.045416	99
Es	0.123549	0.131099	-0.255493	99
Es	0.541606	2.219136	0.147585	99
Es	-0.804015	-1.593720	0.090489	99
Es	-1.110297	-1.783163	0.743246	99
Es	1.827840	1.884421	1.647526	99
Es	1.466730	1.981098	-0.605977	99
Es	0.220304	0.086191	0.397818	99
Es	-2.420298	-1.504197	-0.940141	99
Es	2.115712	2.009113	1.116951	99
Es	2.408276	1.815212	1.073124	99
Es	0.794345	0.339518	-0.003078	99
Es	1.684880	1.925422	0.659669	99
Es	-0.625970	-0.860330	0.114395	99
Es	2.231802	2.615645	1.142022	99
Es	-1.950925	-2.617496	-1.042866	99
