41
Properties=species:S:1:pos:R:3:Z:I:1 energy=-250.2297163944218 field_type=dipole dipole="0.000000 0.000000 0.000000" charge=0
C	-2.337223	-0.804657	-0.574419	6
C	-0.826343	-0.764177	-0.747729	6
C	-0.222303	0.479863	-0.091189	6
N	1.228067	0.501123	-0.307319	7
C	1.939307	1.341103	0.649961	6
C	1.990267	-0.162267	0.746081	6
H	-2.747303	-1.705497	-1.040379	1
H	-2.808163	0.065433	-1.042759	1
H	-2.610263	-0.815307	0.485001	1
H	-0.588013	-0.779197	-1.817940	1
H	-0.394413	-1.670857	-0.306329	1
H	-0.499803	0.506553	0.971131	1
H	-0.653623	1.377033	-0.552549	1
H	1.368187	1.889673	1.389101	1
H	2.812997	1.855953	0.267311	1
H	2.895697	-0.662367	0.424531	1
H	1.452936	-0.652407	1.547501	1
Es	-2.520935	-0.810070	0.152466	99
Es	-2.656504	-0.207096	-0.893721	99
Es	0.609471	0.493440	-0.173263	99
Es	-0.529116	-1.383056	-0.438680	99
Es	-0.518445	1.095459	-0.406386	99
Es	-0.222172	0.479842	-0.091215	99
Es	1.348385	0.483135	-0.640249	99
Es	1.990157	-0.162094	0.745942	99
Es	1.542540	1.713427	1.149964	99
Es	1.939213	1.340907	0.649852	99
Es	-1.587903	-0.779338	-0.655614	99
Es	2.531933	1.695792	0.391887	99
Es	-0.523601	-0.142310	-0.415063	99
Es	1.227924	0.501161	-0.306690	99
Es	1.616584	-0.495369	1.289337	99
Es	2.604568	-0.506522	0.530167	99
Es	2.100248	0.605437	0.877766	99
Es	-2.337204	-0.804655	-0.574419	99
Es	-0.826379	-0.764153	-0.747696	99
Es	1.477500	0.990645	0.060487	99
Es	1.503108	0.077933	0.118896	99
Es	-0.665657	-0.770166	-1.477402	99
Es	-2.616734	-1.419426	-0.892114	99
Es	-0.405551	0.494506	0.650844	99
41
Properties=species:S:1:pos:R:3:Z:I:1 energy=-250.2297163944218 field_type=dipole dipole="0.000000 0.000000 0.000000" charge=0
C	-2.337223	-0.804657	-0.574419	6
C	-0.826343	-0.764177	-0.747729	6
C	-0.222303	0.479863	-0.091189	6
N	1.228067	0.501123	-0.307319	7
C	1.939307	1.341103	0.649961	6
C	1.990267	-0.162267	0.746081	6
H	-2.747303	-1.705497	-1.040379	1
H	-2.808163	0.065433	-1.042759	1
H	-2.610263	-0.815307	0.485001	1
H	-0.588013	-0.779197	-1.817940	1
H	-0.394413	-1.670857	-0.306329	1
H	-0.499803	0.506553	0.971131	1
H	-0.653623	1.377033	-0.552549	1
H	1.368187	1.889673	1.389101	1
H	2.812997	1.855953	0.267311	1
H	2.895697	-0.662367	0.424531	1
H	1.452936	-0.652407	1.547501	1
Es	-0.529155	-1.382981	-0.438657	99
Es	0.609384	0.493517	-0.173741	99
Es	1.542614	1.713237	1.150022	99
Es	1.477490	0.991189	0.060289	99
Es	1.227939	0.501165	-0.306689	99
Es	1.616597	-0.495324	1.289215	99
Es	2.604486	-0.506615	0.530209	99
Es	-2.616801	-1.419341	-0.892202	99
Es	-0.523613	-0.142420	-0.415090	99
Es	-2.337203	-0.804655	-0.574419	99
Es	-0.826379	-0.764152	-0.747696	99
Es	-0.222169	0.479842	-0.091215	99
Es	-1.587780	-0.779361	-0.655448	99
Es	2.531873	1.695897	0.391984	99
Es	-0.518525	1.095454	-0.406250	99
Es	1.990158	-0.162096	0.745945	99
Es	1.939222	1.340911	0.649863	99
Es	1.348590	0.482787	-0.639909	99
Es	1.502904	0.078061	0.119057	99
Es	-0.405449	0.494478	0.650789	99
Es	-0.665604	-0.770220	-1.477432	99
Es	2.100390	0.605272	0.877781	99
Es	-2.521152	-0.810072	0.152373	99
Es	-2.656387	-0.207141	-0.893680	99
41
Properties=species:S:1:pos:R:3:Z:I:1 energy=-250.2297163944218 field_type=dipole dipole="0.000000 0.000000 0.000000" charge=0
C	-2.337223	-0.804657	-0.574419	6
C	-0.826343	-0.764177	-0.747729	6
C	-0.222303	0.479863	-0.091189	6
N	1.228067	0.501123	-0.307319	7
C	1.939307	1.341103	0.649961	6
C	1.990267	-0.162267	0.746081	6
H	-2.747303	-1.705497	-1.040379	1
H	-2.808163	0.065433	-1.042759	1
H	-2.610263	-0.815307	0.485001	1
H	-0.588013	-0.779197	-1.817940	1
H	-0.394413	-1.670857	-0.306329	1
H	-0.499803	0.506553	0.971131	1
H	-0.653623	1.377033	-0.552549	1
H	1.368187	1.889673	1.389101	1
H	2.812997	1.855953	0.267311	1
H	2.895697	-0.662367	0.424531	1
H	1.452936	-0.652407	1.547501	1
Es	1.503098	0.077301	0.118641	99
Es	1.348074	0.482986	-0.639436	99
Es	0.609410	0.493530	-0.173737	99
Es	-0.665668	-0.770201	-1.477346	99
Es	-0.222171	0.479842	-0.091214	99
Es	1.227932	0.501162	-0.306687	99
Es	-2.337203	-0.804655	-0.574419	99
Es	2.531801	1.695849	0.392087	99
Es	-0.529127	-1.383005	-0.438778	99
Es	-2.616890	-1.419352	-0.892088	99
Es	-0.523576	-0.142435	-0.415094	99
Es	-0.518471	1.095464	-0.406226	99
Es	2.604405	-0.506579	0.530282	99
Es	1.939213	1.340905	0.649852	99
Es	-0.405405	0.494527	0.650804	99
Es	-2.656399	-0.207250	-0.893697	99
Es	1.616682	-0.495295	1.289193	99
Es	1.477680	0.991613	0.060066	99
Es	-2.521118	-0.809941	0.152372	99
Es	-0.826380	-0.764152	-0.747696	99
Es	2.100477	0.605369	0.877811	99
Es	-1.587759	-0.779404	-0.655530	99
Es	1.542662	1.713245	1.149986	99
Es	1.990164	-0.162093	0.745953	99
41
Properties=species:S:1:pos:R:3:Z:I:1 energy=-250.2297163944218 field_type=dipole dipole="0.000000 0.000000 0.000000" charge=0
C	-2.337223	-0.804657	-0.574419	6
C	-0.826343	-0.764177	-0.747729	6
C	-0.222303	0.479863	-0.091189	6
N	1.228067	0.501123	-0.307319	7
C	1.939307	1.341103	0.649961	6
C	1.990267	-0.162267	0.746081	6
H	-2.747303	-1.705497	-1.040379	1
H	-2.808163	0.065433	-1.042759	1
H	-2.610263	-0.815307	0.485001	1
H	-0.588013	-0.779197	-1.817940	1
H	-0.394413	-1.670857	-0.306329	1
H	-0.499803	0.506553	0.971131	1
H	-0.653623	1.377033	-0.552549	1
H	1.368187	1.889673	1.389101	1
H	2.812997	1.855953	0.267311	1
H	2.895697	-0.662367	0.424531	1
H	1.452936	-0.652407	1.547501	1
Es	1.616723	-0.495370	1.289026	99
Es	-2.521130	-0.809964	0.152287	99
Es	1.542794	1.713281	1.149923	99
Es	-0.405424	0.494476	0.650739	99
Es	-2.656478	-0.207218	-0.893726	99
Es	-2.337203	-0.804655	-0.574418	99
Es	2.531653	1.695835	0.392013	99
Es	1.477530	0.991604	0.059902	99
Es	2.100805	0.605370	0.878266	99
Es	1.503073	0.077285	0.118659	99
Es	-0.222171	0.479842	-0.091214	99
Es	1.990158	-0.162095	0.745946	99
Es	-1.587728	-0.779496	-0.655536	99
Es	1.227933	0.501166	-0.306702	99
Es	0.609411	0.493678	-0.173987	99
Es	-0.529109	-1.382978	-0.438838	99
Es	-0.665628	-0.770169	-1.477305	99
Es	-0.826379	-0.764152	-0.747696	99
Es	1.348098	0.482994	-0.639109	99
Es	-0.523564	-0.142432	-0.415049	99
Es	2.604268	-0.506606	0.530255	99
Es	1.939209	1.340906	0.649846	99
Es	-0.518532	1.095460	-0.406180	99
Es	-2.616879	-1.419331	-0.892001	99
41
Properties=species:S:1:pos:R:3:Z:I:1 energy=-250.2297163944218 field_type=dipole dipole="0.000000 0.000000 0.000000" charge=0
C	-2.337223	-0.804657	-0.574419	6
C	-0.826343	-0.764177	-0.747729	6
C	-0.222303	0.479863	-0.091189	6
N	1.228067	0.501123	-0.307319	7
C	1.939307	1.341103	0.649961	6
C	1.990267	-0.162267	0.746081	6
H	-2.747303	-1.705497	-1.040379	1
H	-2.808163	0.065433	-1.042759	1
H	-2.610263	-0.815307	0.485001	1
H	-0.588013	-0.779197	-1.817940	1
H	-0.394413	-1.670857	-0.306329	1
H	-0.499803	0.506553	0.971131	1
H	-0.653623	1.377033	-0.552549	1
H	1.368187	1.889673	1.389101	1
H	2.812997	1.855953	0.267311	1
H	2.895697	-0.662367	0.424531	1
H	1.452936	-0.652407	1.547501	1
Es	2.604198	-0.506568	0.530386	99
Es	1.477642	0.991904	0.059756	99
Es	1.939213	1.340904	0.649852	99
Es	0.609394	0.493563	-0.174154	99
Es	2.100956	0.605376	0.878472	99
Es	-0.665630	-0.770210	-1.477215	99
Es	1.990158	-0.162094	0.745945	99
Es	1.503019	0.077013	0.118313	99
Es	-2.337205	-0.804655	-0.574418	99
Es	-0.523573	-0.142436	-0.415061	99
Es	-2.656447	-0.207240	-0.893628	99
Es	-0.529108	-1.383000	-0.438833	99
Es	-0.405403	0.494528	0.650672	99
Es	1.227965	0.501162	-0.306704	99
Es	-2.521148	-0.810005	0.152289	99
Es	-2.616934	-1.419283	-0.892076	99
Es	-0.222172	0.479842	-0.091214	99
Es	-0.518522	1.095472	-0.406169	99
Es	1.347935	0.482972	-0.638670	99
Es	-1.587716	-0.779466	-0.655619	99
Es	-0.826381	-0.764153	-0.747697	99
Es	1.542811	1.713256	1.149804	99
Es	2.531580	1.695868	0.392074	99
Es	1.616800	-0.495317	1.288992	99
41
Properties=species:S:1:pos:R:3:Z:I:1 energy=-250.2297163944218 field_type=dipole dipole="0.000000 0.000000 0.000000" charge=0
C	-2.337223	-0.804657	-0.574419	6
C	-0.826343	-0.764177	-0.747729	6
C	-0.222303	0.479863	-0.091189	6
N	1.228067	0.501123	-0.307319	7
C	1.939307	1.341103	0.649961	6
C	1.990267	-0.162267	0.746081	6
H	-2.747303	-1.705497	-1.040379	1
H	-2.808163	0.065433	-1.042759	1
H	-2.610263	-0.815307	0.485001	1
H	-0.588013	-0.779197	-1.817940	1
H	-0.394413	-1.670857	-0.306329	1
H	-0.499803	0.506553	0.971131	1
H	-0.653623	1.377033	-0.552549	1
H	1.368187	1.889673	1.389101	1
H	2.812997	1.855953	0.267311	1
H	2.895697	-0.662367	0.424531	1
H	1.452936	-0.652407	1.547501	1
Es	-0.518504	1.095433	-0.406116	99
Es	-2.617034	-1.419224	-0.892066	99
Es	1.227934	0.501163	-0.306685	99
Es	2.604123	-0.506611	0.530381	99
Es	-0.826379	-0.764153	-0.747696	99
Es	-1.587690	-0.779517	-0.655639	99
Es	-0.405383	0.494568	0.650670	99
Es	0.609408	0.493581	-0.174336	99
Es	1.477666	0.992143	0.059520	99
Es	-2.521190	-0.809960	0.152281	99
Es	1.503147	0.076667	0.118298	99
Es	1.616828	-0.495324	1.288882	99
Es	-0.665593	-0.770236	-1.477212	99
Es	1.939212	1.340905	0.649850	99
Es	1.542843	1.713235	1.149698	99
Es	1.347791	0.482994	-0.638316	99
Es	-0.529118	-1.382916	-0.438885	99
Es	2.531490	1.695898	0.392120	99
Es	-2.656412	-0.207329	-0.893575	99
Es	-0.222172	0.479842	-0.091214	99
Es	1.990158	-0.162093	0.745943	99
Es	-2.337204	-0.804654	-0.574419	99
Es	2.101090	0.605497	0.878669	99
Es	-0.523580	-0.142477	-0.415056	99
41
Properties=species:S:1:pos:R:3:Z:I:1 energy=-250.2297163944218 field_type=dipole dipole="0.000000 0.000000 0.000000" charge=0
C	-2.337223	-0.804657	-0.574419	6
C	-0.826343	-0.764177	-0.747729	6
C	-0.222303	0.479863	-0.091189	6
N	1.228067	0.501123	-0.307319	7
C	1.939307	1.341103	0.649961	6
C	1.990267	-0.162267	0.746081	6
H	-2.747303	-1.705497	-1.040379	1
H	-2.808163	0.065433	-1.042759	1
H	-2.610263	-0.815307	0.485001	1
H	-0.588013	-0.779197	-1.817940	1
H	-0.394413	-1.670857	-0.306329	1
H	-0.499803	0.506553	0.971131	1
H	-0.653623	1.377033	-0.552549	1
H	1.368187	1.889673	1.389101	1
H	2.812997	1.855953	0.267311	1
H	2.895697	-0.662367	0.424531	1
H	1.452936	-0.652407	1.547501	1
Es	-0.405386	0.494586	0.650621	99
Es	2.101324	0.605540	0.878972	99
Es	1.616864	-0.495337	1.288778	99
Es	-2.656483	-0.207303	-0.893607	99
Es	1.542903	1.713250	1.149598	99
Es	-2.616974	-1.419221	-0.892025	99
Es	1.503183	0.076475	0.118093	99
Es	1.347664	0.483060	-0.637952	99
Es	-2.521198	-0.809999	0.152246	99
Es	-1.587720	-0.779521	-0.655609	99
Es	0.609379	0.493587	-0.174502	99
Es	2.531373	1.695884	0.392152	99
Es	1.227937	0.501162	-0.306688	99
Es	2.604024	-0.506622	0.530418	99
Es	-0.222173	0.479842	-0.091214	99
Es	1.939212	1.340904	0.649851	99
Es	1.477694	0.992250	0.059389	99
Es	-2.337205	-0.804654	-0.574419	99
Es	-0.665587	-0.770251	-1.477171	99
Es	1.990157	-0.162092	0.745943	99
Es	-0.826379	-0.764153	-0.747697	99
Es	-0.523576	-0.142500	-0.415069	99
Es	-0.518492	1.095434	-0.406083	99
Es	-0.529113	-1.382891	-0.438923	99
41
Properties=species:S:1:pos:R:3:Z:I:1 energy=-250.2297163944218 field_type=dipole dipole="0.000000 0.000000 0.000000" charge=0
C	-2.337223	-0.804657	-0.574419	6
C	-0.826343	-0.764177	-0.747729	6
C	-0.222303	0.479863	-0.091189	6
N	1.228067	0.501123	-0.307319	7
C	1.939307	1.341103	0.649961	6
C	1.990267	-0.162267	0.746081	6
H	-2.747303	-1.705497	-1.040379	1
H	-2.808163	0.065433	-1.042759	1
H	-2.610263	-0.815307	0.485001	1
H	-0.588013	-0.779197	-1.817940	1
H	-0.394413	-1.670857	-0.306329	1
H	-0.499803	0.506553	0.971131	1
H	-0.653623	1.377033	-0.552549	1
H	1.368187	1.889673	1.389101	1
H	2.812997	1.855953	0.267311	1
H	2.895697	-0.662367	0.424531	1
H	1.452936	-0.652407	1.547501	1
Es	-2.337204	-0.804655	-0.574418	99
Es	1.990161	-0.162093	0.745947	99
Es	-2.521256	-0.810003	0.152221	99
Es	0.609335	0.493593	-0.174708	99
Es	-0.222172	0.479843	-0.091214	99
Es	1.503248	0.076228	0.118089	99
Es	1.939214	1.340914	0.649856	99
Es	-0.826379	-0.764154	-0.747697	99
Es	-0.665519	-0.770276	-1.477163	99
Es	1.227943	0.501161	-0.306700	99
Es	-0.529134	-1.382815	-0.438947	99
Es	-0.518481	1.095456	-0.406022	99
Es	-2.616912	-1.419206	-0.891988	99
Es	1.616906	-0.495324	1.288693	99
Es	-0.405340	0.494592	0.650584	99
Es	2.531299	1.695874	0.392143	99
Es	2.603980	-0.506631	0.530464	99
Es	-1.587763	-0.779495	-0.655563	99
Es	-2.656533	-0.207340	-0.893656	99
Es	1.347571	0.483004	-0.637555	99
Es	2.101420	0.605678	0.879214	99
Es	-0.523583	-0.142586	-0.415084	99
Es	1.477670	0.992393	0.059124	99
Es	1.542960	1.713274	1.149478	99
