40
Properties=species:S:1:pos:R:3:Z:I:1 energy=-266.27608543972974 field_type=dipole dipole="0.000000 0.000000 0.000000" charge=0
C	-1.509377	-1.266603	0.567660	6
C	-1.186197	-0.516073	-0.717110	6
C	-0.158747	0.595807	-0.502910	6
N	1.126212	0.037807	-0.134120	7
C	2.163193	0.748717	0.384470	6
N	2.151753	1.925527	0.894360	7
H	-2.281898	-2.019023	0.380260	1
H	-1.880477	-0.583463	1.337420	1
H	-0.628227	-1.781943	0.960850	1
H	-2.109687	-0.073403	-1.108030	1
H	-0.824627	-1.225863	-1.470800	1
H	-0.526608	1.279977	0.271050	1
H	-0.047277	1.170257	-1.429870	1
H	1.392953	-0.789193	-0.661490	1
H	3.113383	0.190787	0.348960	1
H	1.205632	2.306687	0.879300	1
Es	-2.036853	-1.778283	0.435865	99
Es	-1.186166	-0.516056	-0.717083	99
Es	1.168341	-0.020170	0.167010	99
Es	-0.927075	-1.000748	-1.233617	99
Es	1.289685	-0.442333	-0.468866	99
Es	-0.082104	0.992689	-1.138775	99
Es	-1.761208	-0.795199	1.088750	99
Es	1.126569	0.038212	-0.134548	99
Es	2.195169	1.579903	0.433103	99
Es	2.802804	0.357495	0.352327	99
Es	-0.158597	0.595712	-0.502856	99
Es	1.569445	2.142777	0.873407	99
Es	2.163093	0.748554	0.384391	99
Es	0.592794	0.292648	-0.297153	99
Es	-0.658977	0.037332	-0.605747	99
Es	-1.340581	-0.888893	-0.071654	99
Es	1.561392	0.390111	-0.037925	99
Es	2.151366	1.925232	0.894150	99
Es	-1.813706	-0.208040	-0.984263	99
Es	-0.401480	1.059491	0.029638	99
Es	2.430378	2.101250	1.035209	99
Es	-1.509376	-1.266585	0.567625	99
Es	-0.909664	-1.616062	0.830985	99
Es	2.086008	1.351832	0.941019	99
40
Properties=species:S:1:pos:R:3:Z:I:1 energy=-266.27608543972974 field_type=dipole dipole="0.000000 0.000000 0.000000" charge=0
C	-1.509377	-1.266603	0.567660	6
C	-1.186197	-0.516073	-0.717110	6
C	-0.158747	0.595807	-0.502910	6
N	1.126212	0.037807	-0.134120	7
C	2.163193	0.748717	0.384470	6
N	2.151753	1.925527	0.894360	7
H	-2.281898	-2.019023	0.380260	1
H	-1.880477	-0.583463	1.337420	1
H	-0.628227	-1.781943	0.960850	1
H	-2.109687	-0.073403	-1.108030	1
H	-0.824627	-1.225863	-1.470800	1
H	-0.526608	1.279977	0.271050	1
H	-0.047277	1.170257	-1.429870	1
H	1.392953	-0.789193	-0.661490	1
H	3.113383	0.190787	0.348960	1
H	1.205632	2.306687	0.879300	1
Es	1.561685	0.390111	-0.037278	99
Es	2.195104	1.580010	0.433068	99
Es	-1.509374	-1.266585	0.567624	99
Es	-0.659013	0.037338	-0.605694	99
Es	-1.813657	-0.208079	-0.984311	99
Es	-2.036797	-1.778238	0.435847	99
Es	-1.340692	-0.888873	-0.071660	99
Es	-1.186166	-0.516058	-0.717081	99
Es	-0.158603	0.595717	-0.502859	99
Es	-0.909634	-1.616101	0.830976	99
Es	1.167945	-0.020048	0.166261	99
Es	2.802895	0.357514	0.352351	99
Es	2.163095	0.748559	0.384392	99
Es	1.126617	0.038244	-0.134528	99
Es	1.289618	-0.442608	-0.468676	99
Es	0.592928	0.292802	-0.297340	99
Es	-1.761258	-0.795236	1.088781	99
Es	-0.927054	-1.000738	-1.233597	99
Es	1.569610	2.143040	0.873547	99
Es	-0.401412	1.059458	0.029633	99
Es	-0.082150	0.992728	-1.138742	99
Es	2.430294	2.101033	1.035038	99
Es	2.151356	1.925238	0.894145	99
Es	2.085921	1.351642	0.941092	99
40
Properties=species:S:1:pos:R:3:Z:I:1 energy=-266.27608543972974 field_type=dipole dipole="0.000000 0.000000 0.000000" charge=0
C	-1.509377	-1.266603	0.567660	6
C	-1.186197	-0.516073	-0.717110	6
C	-0.158747	0.595807	-0.502910	6
N	1.126212	0.037807	-0.134120	7
C	2.163193	0.748717	0.384470	6
N	2.151753	1.925527	0.894360	7
H	-2.281898	-2.019023	0.380260	1
H	-1.880477	-0.583463	1.337420	1
H	-0.628227	-1.781943	0.960850	1
H	-2.109687	-0.073403	-1.108030	1
H	-0.824627	-1.225863	-1.470800	1
H	-0.526608	1.279977	0.271050	1
H	-0.047277	1.170257	-1.429870	1
H	1.392953	-0.789193	-0.661490	1
H	3.113383	0.190787	0.348960	1
H	1.205632	2.306687	0.879300	1
Es	1.168144	-0.019845	0.166499	99
Es	-1.340380	-0.889006	-0.071727	99
Es	1.569572	2.143207	0.873573	99
Es	-0.082118	0.992743	-1.138747	99
Es	2.195251	1.580220	0.433095	99
Es	1.289663	-0.442712	-0.468457	99
Es	-0.909806	-1.616133	0.831017	99
Es	1.126588	0.038231	-0.134553	99
Es	-1.186169	-0.516058	-0.717082	99
Es	-1.813707	-0.208043	-0.984135	99
Es	-2.036832	-1.778215	0.435868	99
Es	2.085871	1.351546	0.940836	99
Es	0.592867	0.292773	-0.297339	99
Es	2.163094	0.748557	0.384392	99
Es	-0.401452	1.059422	0.029534	99
Es	2.430196	2.100754	1.035218	99
Es	-0.658957	0.037319	-0.605791	99
Es	-0.927244	-1.000611	-1.233694	99
Es	-1.509374	-1.266588	0.567627	99
Es	-0.158596	0.595713	-0.502856	99
Es	2.151372	1.925234	0.894151	99
Es	-1.761204	-0.795238	1.088795	99
Es	2.802935	0.357503	0.352370	99
Es	1.561542	0.390095	-0.037602	99
40
Properties=species:S:1:pos:R:3:Z:I:1 energy=-266.27608543972974 field_type=dipole dipole="0.000000 0.000000 0.000000" charge=0
C	-1.509377	-1.266603	0.567660	6
C	-1.186197	-0.516073	-0.717110	6
C	-0.158747	0.595807	-0.502910	6
N	1.126212	0.037807	-0.134120	7
C	2.163193	0.748717	0.384470	6
N	2.151753	1.925527	0.894360	7
H	-2.281898	-2.019023	0.380260	1
H	-1.880477	-0.583463	1.337420	1
H	-0.628227	-1.781943	0.960850	1
H	-2.109687	-0.073403	-1.108030	1
H	-0.824627	-1.225863	-1.470800	1
H	-0.526608	1.279977	0.271050	1
H	-0.047277	1.170257	-1.429870	1
H	1.392953	-0.789193	-0.661490	1
H	3.113383	0.190787	0.348960	1
H	1.205632	2.306687	0.879300	1
Es	-0.401339	1.059475	0.029481	99
Es	-1.509375	-1.266585	0.567625	99
Es	-0.909676	-1.616068	0.831124	99
Es	2.802960	0.357526	0.352406	99
Es	1.168976	-0.019478	0.167809	99
Es	-0.927124	-1.000570	-1.233716	99
Es	-0.082115	0.992725	-1.138650	99
Es	2.163095	0.748560	0.384393	99
Es	2.429991	2.100605	1.035020	99
Es	1.126514	0.038169	-0.134524	99
Es	2.151368	1.925238	0.894148	99
Es	2.195327	1.580336	0.433068	99
Es	-1.813698	-0.208077	-0.984177	99
Es	1.289614	-0.442771	-0.468329	99
Es	0.592699	0.292681	-0.297250	99
Es	-0.158591	0.595709	-0.502854	99
Es	-1.761216	-0.795330	1.088641	99
Es	-0.659206	0.037292	-0.605743	99
Es	1.569664	2.143405	0.873637	99
Es	-1.340516	-0.888990	-0.071789	99
Es	-1.186169	-0.516058	-0.717082	99
Es	1.561006	0.389959	-0.039260	99
Es	2.085899	1.351351	0.941024	99
Es	-2.036833	-1.778234	0.435990	99
40
Properties=species:S:1:pos:R:3:Z:I:1 energy=-266.27608543972974 field_type=dipole dipole="0.000000 0.000000 0.000000" charge=0
C	-1.509377	-1.266603	0.567660	6
C	-1.186197	-0.516073	-0.717110	6
C	-0.158747	0.595807	-0.502910	6
N	1.126212	0.037807	-0.134120	7
C	2.163193	0.748717	0.384470	6
N	2.151753	1.925527	0.894360	7
H	-2.281898	-2.019023	0.380260	1
H	-1.880477	-0.583463	1.337420	1
H	-0.628227	-1.781943	0.960850	1
H	-2.109687	-0.073403	-1.108030	1
H	-0.824627	-1.225863	-1.470800	1
H	-0.526608	1.279977	0.271050	1
H	-0.047277	1.170257	-1.429870	1
H	1.392953	-0.789193	-0.661490	1
H	3.113383	0.190787	0.348960	1
H	1.205632	2.306687	0.879300	1
Es	1.168858	-0.019446	0.167582	99
Es	-0.158595	0.595711	-0.502855	99
Es	-0.659108	0.037280	-0.605981	99
Es	1.289616	-0.442811	-0.468344	99
Es	1.561040	0.389936	-0.038902	99
Es	2.429863	2.100458	1.034703	99
Es	2.803057	0.357507	0.352433	99
Es	0.592800	0.292819	-0.297380	99
Es	2.151375	1.925235	0.894148	99
Es	-0.082101	0.992713	-1.138533	99
Es	-1.761230	-0.795351	1.088736	99
Es	2.195336	1.580374	0.433252	99
Es	1.126443	0.038110	-0.134491	99
Es	-1.340637	-0.888891	-0.071742	99
Es	2.086123	1.351257	0.941024	99
Es	-1.813599	-0.208136	-0.984373	99
Es	-1.509376	-1.266587	0.567627	99
Es	-2.036759	-1.778214	0.436013	99
Es	-0.401363	1.059503	0.029515	99
Es	-0.927182	-1.000611	-1.233515	99
Es	2.163096	0.748561	0.384387	99
Es	-0.909758	-1.616092	0.831078	99
Es	1.569525	2.143603	0.873692	99
Es	-1.186170	-0.516060	-0.717081	99
40
Properties=species:S:1:pos:R:3:Z:I:1 energy=-266.27608543972974 field_type=dipole dipole="0.000000 0.000000 0.000000" charge=0
C	-1.509377	-1.266603	0.567660	6
C	-1.186197	-0.516073	-0.717110	6
C	-0.158747	0.595807	-0.502910	6
N	1.126212	0.037807	-0.134120	7
C	2.163193	0.748717	0.384470	6
N	2.151753	1.925527	0.894360	7
H	-2.281898	-2.019023	0.380260	1
H	-1.880477	-0.583463	1.337420	1
H	-0.628227	-1.781943	0.960850	1
H	-2.109687	-0.073403	-1.108030	1
H	-0.824627	-1.225863	-1.470800	1
H	-0.526608	1.279977	0.271050	1
H	-0.047277	1.170257	-1.429870	1
H	1.392953	-0.789193	-0.661490	1
H	3.113383	0.190787	0.348960	1
H	1.205632	2.306687	0.879300	1
Es	2.163098	0.748566	0.384381	99
Es	-1.761055	-0.795344	1.088743	99
Es	2.195190	1.580033	0.433206	99
Es	-0.158596	0.595713	-0.502856	99
Es	-0.927269	-1.000524	-1.233661	99
Es	-0.909827	-1.616173	0.831032	99
Es	2.086228	1.351453	0.941327	99
Es	-0.659129	0.037318	-0.605916	99
Es	-1.340574	-0.889009	-0.071797	99
Es	2.429871	2.100497	1.034365	99
Es	2.803090	0.357510	0.352415	99
Es	1.168139	-0.020094	0.165729	99
Es	1.569560	2.143672	0.873824	99
Es	-0.082101	0.992759	-1.138538	99
Es	-0.401329	1.059462	0.029483	99
Es	-1.813548	-0.208140	-0.984227	99
Es	-2.036907	-1.778151	0.436064	99
Es	1.126484	0.038154	-0.134537	99
Es	0.592639	0.292853	-0.297218	99
Es	-1.509376	-1.266587	0.567627	99
Es	-1.186170	-0.516059	-0.717080	99
Es	1.561628	0.390091	-0.036762	99
Es	1.289852	-0.442364	-0.468758	99
Es	2.151359	1.925232	0.894146	99
40
Properties=species:S:1:pos:R:3:Z:I:1 energy=-266.27608543972974 field_type=dipole dipole="0.000000 0.000000 0.000000" charge=0
C	-1.509377	-1.266603	0.567660	6
C	-1.186197	-0.516073	-0.717110	6
C	-0.158747	0.595807	-0.502910	6
N	1.126212	0.037807	-0.134120	7
C	2.163193	0.748717	0.384470	6
N	2.151753	1.925527	0.894360	7
H	-2.281898	-2.019023	0.380260	1
H	-1.880477	-0.583463	1.337420	1
H	-0.628227	-1.781943	0.960850	1
H	-2.109687	-0.073403	-1.108030	1
H	-0.824627	-1.225863	-1.470800	1
H	-0.526608	1.279977	0.271050	1
H	-0.047277	1.170257	-1.429870	1
H	1.392953	-0.789193	-0.661490	1
H	3.113383	0.190787	0.348960	1
H	1.205632	2.306687	0.879300	1
Es	-1.186169	-0.516058	-0.717083	99
Es	-1.340673	-0.888891	-0.071797	99
Es	-0.927176	-1.000511	-1.233438	99
Es	2.429744	2.100456	1.033953	99
Es	1.569638	2.143965	0.873586	99
Es	-0.659151	0.037295	-0.605965	99
Es	-0.082110	0.992753	-1.138486	99
Es	2.086160	1.351770	0.941931	99
Es	-0.401326	1.059458	0.029440	99
Es	1.289559	-0.442874	-0.468181	99
Es	-0.909873	-1.616104	0.831114	99
Es	1.126592	0.038214	-0.134479	99
Es	2.151380	1.925237	0.894155	99
Es	-1.509376	-1.266586	0.567626	99
Es	2.163096	0.748561	0.384392	99
Es	1.168899	-0.019397	0.167463	99
Es	-2.036726	-1.778198	0.436035	99
Es	1.561073	0.389923	-0.039139	99
Es	2.195209	1.579445	0.433256	99
Es	-1.813513	-0.208200	-0.984496	99
Es	-1.761231	-0.795452	1.088766	99
Es	-0.158595	0.595713	-0.502856	99
Es	0.592674	0.292759	-0.297262	99
Es	2.803149	0.357590	0.352458	99
40
Properties=species:S:1:pos:R:3:Z:I:1 energy=-266.27608543972974 field_type=dipole dipole="0.000000 0.000000 0.000000" charge=0
C	-1.509377	-1.266603	0.567660	6
C	-1.186197	-0.516073	-0.717110	6
C	-0.158747	0.595807	-0.502910	6
N	1.126212	0.037807	-0.134120	7
C	2.163193	0.748717	0.384470	6
N	2.151753	1.925527	0.894360	7
H	-2.281898	-2.019023	0.380260	1
H	-1.880477	-0.583463	1.337420	1
H	-0.628227	-1.781943	0.960850	1
H	-2.109687	-0.073403	-1.108030	1
H	-0.824627	-1.225863	-1.470800	1
H	-0.526608	1.279977	0.271050	1
H	-0.047277	1.170257	-1.429870	1
H	1.392953	-0.789193	-0.661490	1
H	3.113383	0.190787	0.348960	1
H	1.205632	2.306687	0.879300	1
Es	-0.158596	0.595712	-0.502856	99
Es	-1.186169	-0.516058	-0.717082	99
Es	1.289429	-0.442884	-0.468051	99
Es	-1.813449	-0.208190	-0.984381	99
Es	2.163096	0.748560	0.384392	99
Es	-0.927257	-1.000532	-1.233543	99
Es	-1.509376	-1.266587	0.567627	99
Es	1.169819	-0.019009	0.170006	99
Es	-0.401276	1.059460	0.029413	99
Es	1.569579	2.144006	0.873954	99
Es	1.126390	0.038060	-0.134455	99
Es	-0.082115	0.992761	-1.138444	99
Es	2.151372	1.925235	0.894150	99
Es	-0.909889	-1.616090	0.831101	99
Es	-1.340676	-0.888895	-0.071813	99
Es	0.592904	0.292859	-0.297541	99
Es	-2.036716	-1.778209	0.436069	99
Es	2.803182	0.357565	0.352468	99
Es	2.195468	1.580067	0.433027	99
Es	2.086266	1.351494	0.941423	99
Es	-1.761217	-0.795456	1.088776	99
Es	-0.659197	0.037294	-0.605993	99
Es	1.560232	0.389652	-0.041587	99
Es	2.429453	2.100054	1.034333	99
40
Properties=species:S:1:pos:R:3:Z:I:1 energy=-266.27608543972974 field_type=dipole dipole="0.000000 0.000000 0.000000" charge=0
C	-1.509377	-1.266603	0.567660	6
C	-1.186197	-0.516073	-0.717110	6
C	-0.158747	0.595807	-0.502910	6
N	1.126212	0.037807	-0.134120	7
C	2.163193	0.748717	0.384470	6
N	2.151753	1.925527	0.894360	7
H	-2.281898	-2.019023	0.380260	1
H	-1.880477	-0.583463	1.337420	1
H	-0.628227	-1.781943	0.960850	1
H	-2.109687	-0.073403	-1.108030	1
H	-0.824627	-1.225863	-1.470800	1
H	-0.526608	1.279977	0.271050	1
H	-0.047277	1.170257	-1.429870	1
H	1.392953	-0.789193	-0.661490	1
H	3.113383	0.190787	0.348960	1
H	1.205632	2.306687	0.879300	1
Es	-1.813420	-0.208210	-0.984400	99
Es	-0.082109	0.992777	-1.138394	99
Es	2.429400	2.100028	1.034219	99
Es	2.163096	0.748560	0.384392	99
Es	2.195474	1.580025	0.433135	99
Es	1.569571	2.144094	0.873895	99
Es	1.560601	0.389746	-0.040137	99
Es	-0.401253	1.059450	0.029387	99
Es	-1.340689	-0.888914	-0.071842	99
Es	2.086295	1.351455	0.941475	99
Es	-2.036716	-1.778197	0.436108	99
Es	-0.659224	0.037284	-0.606025	99
Es	2.803236	0.357560	0.352482	99
Es	-0.158601	0.595714	-0.502858	99
Es	-1.509376	-1.266587	0.567628	99
Es	1.289592	-0.442827	-0.468153	99
Es	-0.927274	-1.000492	-1.233532	99
Es	-1.761197	-0.795481	1.088777	99
Es	1.126448	0.038114	-0.134496	99
Es	-1.186169	-0.516059	-0.717083	99
Es	1.169306	-0.019230	0.168667	99
Es	0.592812	0.292919	-0.297512	99
Es	-0.909921	-1.616095	0.831111	99
Es	2.151374	1.925234	0.894151	99
40
Properties=species:S:1:pos:R:3:Z:I:1 energy=-266.27608543972974 field_type=dipole dipole="0.000000 0.000000 0.000000" charge=0
C	-1.509377	-1.266603	0.567660	6
C	-1.186197	-0.516073	-0.717110	6
C	-0.158747	0.595807	-0.502910	6
N	1.126212	0.037807	-0.134120	7
C	2.163193	0.748717	0.384470	6
N	2.151753	1.925527	0.894360	7
H	-2.281898	-2.019023	0.380260	1
H	-1.880477	-0.583463	1.337420	1
H	-0.628227	-1.781943	0.960850	1
H	-2.109687	-0.073403	-1.108030	1
H	-0.824627	-1.225863	-1.470800	1
H	-0.526608	1.279977	0.271050	1
H	-0.047277	1.170257	-1.429870	1
H	1.392953	-0.789193	-0.661490	1
H	3.113383	0.190787	0.348960	1
H	1.205632	2.306687	0.879300	1
Es	-1.509374	-1.266588	0.567627	99
Es	2.163096	0.748560	0.384392	99
Es	2.151373	1.925235	0.894148	99
Es	1.289811	-0.441979	-0.468830	99
Es	-0.909948	-1.616073	0.831115	99
Es	2.086296	1.351428	0.941517	99
Es	-0.082095	0.992778	-1.138359	99
Es	2.429299	2.099874	1.034115	99
Es	0.592674	0.292869	-0.297302	99
Es	-1.813397	-0.208241	-0.984407	99
Es	1.560189	0.389691	-0.040788	99
Es	1.169645	-0.019927	0.169767	99
Es	-0.401219	1.059464	0.029377	99
Es	-0.659224	0.037268	-0.606048	99
Es	-1.186169	-0.516058	-0.717082	99
Es	2.195519	1.580046	0.433126	99
Es	1.569582	2.144256	0.873942	99
Es	-2.036727	-1.778219	0.436119	99
Es	2.803274	0.357558	0.352512	99
Es	-0.158597	0.595713	-0.502857	99
Es	1.126433	0.038106	-0.134496	99
Es	-1.340693	-0.888916	-0.071858	99
Es	-1.761181	-0.795499	1.088772	99
Es	-0.927313	-1.000476	-1.233513	99
