34
Properties=species:S:1:pos:R:3:Z:I:1 energy=-263.8693621586424 field_type=dipole dipole="0.000000 0.000000 0.000000" charge=0
C	-2.313547	-1.452732	-0.024046	6
C	-0.984647	-1.311482	0.019324	6
C	-0.377697	0.033768	-0.016486	6
N	0.904883	0.197848	0.024824	7
N	1.231273	1.550158	-0.021786	7
C	2.511053	1.707948	0.021224	6
H	-2.760547	-2.441652	0.002334	1
H	-2.986417	-0.603142	-0.085896	1
H	-0.310197	-2.157182	0.081144	1
H	-1.074037	0.889608	-0.080026	1
H	2.939273	2.721428	-0.006556	1
H	3.220603	0.865428	0.085944	1
Es	1.790955	1.584862	-0.284500	99
Es	-2.768091	-0.879871	-0.065883	99
Es	-2.623383	-2.116276	-0.006750	99
Es	-1.613166	-1.369678	-0.321390	99
Es	-2.313649	-1.452742	-0.024049	99
Es	2.992917	1.146981	0.064591	99
Es	2.805256	2.389938	0.002713	99
Es	0.904452	0.198274	0.024790	99
Es	-0.674826	-0.641953	0.001465	99
Es	-0.532304	-1.877589	0.060748	99
Es	-0.377738	0.033704	-0.016485	99
Es	0.370786	0.131246	-0.274529	99
Es	-0.853217	0.603148	-0.059173	99
Es	1.178074	-0.067671	0.047063	99
Es	1.068883	0.875059	0.001539	99
Es	0.349338	0.155830	0.287307	99
Es	-1.636850	-1.341674	0.316560	99
Es	2.511087	1.707983	0.021214	99
Es	1.769105	1.609633	0.279824	99
Es	-0.984547	-1.311410	0.019323	99
Es	1.231694	1.549726	-0.021751	99
Es	0.956521	1.812194	-0.043979	99
34
Properties=species:S:1:pos:R:3:Z:I:1 energy=-263.8693621586424 field_type=dipole dipole="0.000000 0.000000 0.000000" charge=0
C	-2.313547	-1.452732	-0.024046	6
C	-0.984647	-1.311482	0.019324	6
C	-0.377697	0.033768	-0.016486	6
N	0.904883	0.197848	0.024824	7
N	1.231273	1.550158	-0.021786	7
C	2.511053	1.707948	0.021224	6
H	-2.760547	-2.441652	0.002334	1
H	-2.986417	-0.603142	-0.085896	1
H	-0.310197	-2.157182	0.081144	1
H	-1.074037	0.889608	-0.080026	1
H	2.939273	2.721428	-0.006556	1
H	3.220603	0.865428	0.085944	1
Es	-1.613137	-1.369404	-0.321536	99
Es	1.069123	0.874914	0.001579	99
Es	2.805209	2.389993	0.002765	99
Es	1.768992	1.609757	0.279803	99
Es	2.511088	1.707984	0.021222	99
Es	-0.674959	-0.641923	0.001870	99
Es	0.349485	0.155781	0.287761	99
Es	-2.768208	-0.879872	-0.065711	99
Es	-2.623237	-2.116398	-0.006757	99
Es	2.992945	1.146963	0.064654	99
Es	-0.984548	-1.311410	0.019326	99
Es	1.177748	-0.067501	0.046702	99
Es	0.956696	1.811996	-0.044012	99
Es	0.904458	0.198274	0.024789	99
Es	-1.636879	-1.341843	0.316115	99
Es	1.231690	1.549701	-0.021755	99
Es	-2.313648	-1.452743	-0.024051	99
Es	0.370625	0.131225	-0.274570	99
Es	-0.377738	0.033703	-0.016485	99
Es	1.791004	1.584976	-0.284639	99
Es	-0.532238	-1.877615	0.060791	99
Es	-0.853173	0.603158	-0.059211	99
34
Properties=species:S:1:pos:R:3:Z:I:1 energy=-263.8693621586424 field_type=dipole dipole="0.000000 0.000000 0.000000" charge=0
C	-2.313547	-1.452732	-0.024046	6
C	-0.984647	-1.311482	0.019324	6
C	-0.377697	0.033768	-0.016486	6
N	0.904883	0.197848	0.024824	7
N	1.231273	1.550158	-0.021786	7
C	2.511053	1.707948	0.021224	6
H	-2.760547	-2.441652	0.002334	1
H	-2.986417	-0.603142	-0.085896	1
H	-0.310197	-2.157182	0.081144	1
H	-1.074037	0.889608	-0.080026	1
H	2.939273	2.721428	-0.006556	1
H	3.220603	0.865428	0.085944	1
Es	1.068549	0.874964	0.001502	99
Es	-2.313650	-1.452743	-0.024050	99
Es	-0.377736	0.033704	-0.016495	99
Es	-0.853191	0.603175	-0.059232	99
Es	-0.984552	-1.311410	0.019327	99
Es	0.349580	0.155566	0.287947	99
Es	0.904495	0.198273	0.024791	99
Es	-2.768149	-0.879844	-0.065829	99
Es	1.231701	1.549751	-0.021752	99
Es	-0.674943	-0.641955	0.001728	99
Es	0.957150	1.811839	-0.044008	99
Es	1.768937	1.609867	0.279799	99
Es	-1.636872	-1.341726	0.316178	99
Es	1.177795	-0.067398	0.046339	99
Es	2.992921	1.146942	0.064726	99
Es	-2.623308	-2.116351	-0.006661	99
Es	2.805227	2.390021	0.002781	99
Es	2.511091	1.707984	0.021226	99
Es	-1.613133	-1.369549	-0.321462	99
Es	0.370605	0.131200	-0.274274	99
Es	-0.532227	-1.877645	0.060811	99
Es	1.791007	1.585050	-0.284745	99
34
Properties=species:S:1:pos:R:3:Z:I:1 energy=-263.8693621586424 field_type=dipole dipole="0.000000 0.000000 0.000000" charge=0
C	-2.313547	-1.452732	-0.024046	6
C	-0.984647	-1.311482	0.019324	6
C	-0.377697	0.033768	-0.016486	6
N	0.904883	0.197848	0.024824	7
N	1.231273	1.550158	-0.021786	7
C	2.511053	1.707948	0.021224	6
H	-2.760547	-2.441652	0.002334	1
H	-2.986417	-0.603142	-0.085896	1
H	-0.310197	-2.157182	0.081144	1
H	-1.074037	0.889608	-0.080026	1
H	2.939273	2.721428	-0.006556	1
H	3.220603	0.865428	0.085944	1
Es	-1.636892	-1.341845	0.316115	99
Es	0.370880	0.130839	-0.275004	99
Es	1.177309	-0.067313	0.047424	99
Es	-2.768172	-0.879761	-0.065847	99
Es	-2.313648	-1.452743	-0.024049	99
Es	-0.984550	-1.311410	0.019325	99
Es	-1.613127	-1.369503	-0.321186	99
Es	1.791095	1.585136	-0.284503	99
Es	1.768843	1.609789	0.279823	99
Es	0.957230	1.811939	-0.044058	99
Es	-0.674872	-0.641910	0.001885	99
Es	0.349356	0.155860	0.287279	99
Es	-2.623266	-2.116416	-0.006729	99
Es	-0.377738	0.033703	-0.016486	99
Es	2.805251	2.390049	0.002765	99
Es	-0.853217	0.603175	-0.059196	99
Es	2.511079	1.707983	0.021216	99
Es	-0.532273	-1.877664	0.060691	99
Es	1.231694	1.549716	-0.021751	99
Es	2.992895	1.146925	0.064645	99
Es	1.068953	0.874890	0.001498	99
Es	0.904468	0.198276	0.024791	99
34
Properties=species:S:1:pos:R:3:Z:I:1 energy=-263.8693621586424 field_type=dipole dipole="0.000000 0.000000 0.000000" charge=0
C	-2.313547	-1.452732	-0.024046	6
C	-0.984647	-1.311482	0.019324	6
C	-0.377697	0.033768	-0.016486	6
N	0.904883	0.197848	0.024824	7
N	1.231273	1.550158	-0.021786	7
C	2.511053	1.707948	0.021224	6
H	-2.760547	-2.441652	0.002334	1
H	-2.986417	-0.603142	-0.085896	1
H	-0.310197	-2.157182	0.081144	1
H	-1.074037	0.889608	-0.080026	1
H	2.939273	2.721428	-0.006556	1
H	3.220603	0.865428	0.085944	1
Es	1.231719	1.549754	-0.021751	99
Es	0.957441	1.811768	-0.044145	99
Es	0.349344	0.155535	0.287633	99
Es	-2.768183	-0.879779	-0.065782	99
Es	-0.853214	0.603202	-0.059196	99
Es	0.904459	0.198248	0.024791	99
Es	-1.636914	-1.341808	0.316046	99
Es	2.511088	1.707984	0.021224	99
Es	1.768751	1.609929	0.279891	99
Es	-0.377735	0.033704	-0.016484	99
Es	-0.532291	-1.877686	0.060768	99
Es	1.791104	1.585186	-0.284503	99
Es	-2.313641	-1.452743	-0.024050	99
Es	-0.984547	-1.311410	0.019319	99
Es	1.068812	0.874907	0.001525	99
Es	-2.623254	-2.116422	-0.006694	99
Es	-0.674834	-0.642039	0.001840	99
Es	-1.613123	-1.369422	-0.321376	99
Es	2.992906	1.146891	0.064652	99
Es	2.805236	2.390074	0.002738	99
Es	0.370927	0.130954	-0.274702	99
Es	1.177244	-0.067111	0.046906	99
34
Properties=species:S:1:pos:R:3:Z:I:1 energy=-263.8693621586424 field_type=dipole dipole="0.000000 0.000000 0.000000" charge=0
C	-2.313547	-1.452732	-0.024046	6
C	-0.984647	-1.311482	0.019324	6
C	-0.377697	0.033768	-0.016486	6
N	0.904883	0.197848	0.024824	7
N	1.231273	1.550158	-0.021786	7
C	2.511053	1.707948	0.021224	6
H	-2.760547	-2.441652	0.002334	1
H	-2.986417	-0.603142	-0.085896	1
H	-0.310197	-2.157182	0.081144	1
H	-1.074037	0.889608	-0.080026	1
H	2.939273	2.721428	-0.006556	1
H	3.220603	0.865428	0.085944	1
Es	-0.984551	-1.311410	0.019324	99
Es	1.768900	1.609938	0.279707	99
Es	0.349532	0.155455	0.287822	99
Es	2.992905	1.146884	0.064682	99
Es	1.231692	1.549722	-0.021749	99
Es	-0.853206	0.603220	-0.059224	99
Es	1.790970	1.585200	-0.284596	99
Es	-1.613175	-1.369410	-0.321240	99
Es	2.511088	1.707984	0.021224	99
Es	-0.532295	-1.877700	0.060743	99
Es	0.904458	0.198266	0.024790	99
Es	0.370772	0.130899	-0.274607	99
Es	-2.623236	-2.116514	-0.006711	99
Es	-1.636875	-1.341731	0.315994	99
Es	-2.313647	-1.452743	-0.024049	99
Es	-0.377735	0.033704	-0.016485	99
Es	1.177071	-0.067023	0.046694	99
Es	1.068775	0.874903	0.001524	99
Es	-2.768177	-0.879762	-0.065804	99
Es	0.957656	1.811720	-0.043939	99
Es	-0.674828	-0.642067	0.001790	99
Es	2.805202	2.390180	0.002758	99
