37
Properties=species:S:1:pos:R:3:Z:I:1 energy=-265.0437201188468 field_type=dipole dipole="0.000000 0.000000 0.000000" charge=0
C	-2.459729	-1.377051	-0.168238	6
N	-1.013119	-1.196321	-0.138168	7
N	-0.591679	0.086789	-0.019698	7
C	0.695491	0.213669	-0.043768	6
C	1.334902	1.539589	0.082962	6
C	2.666541	1.652009	0.070862	6
H	-2.698009	-2.436011	-0.305038	1
H	-2.903239	-0.821701	-1.000598	1
H	-2.916229	-1.038371	0.767252	1
H	-0.624529	-1.788161	0.599992	1
H	1.375992	-0.650221	-0.160828	1
H	0.677151	2.395159	0.183182	1
H	3.322622	0.793019	-0.031208	1
H	3.133832	2.627599	0.163292	1
Es	0.893221	2.112813	0.150094	99
Es	-0.591318	0.086305	-0.019735	99
Es	1.986417	1.610682	-0.243117	99
Es	-0.803676	-0.562269	-0.046034	99
Es	0.695512	0.213702	-0.043718	99
Es	0.004222	0.174028	-0.307798	99
Es	1.996712	1.544651	0.395309	99
Es	-2.776821	-1.145665	0.475691	99
Es	-0.000759	0.119999	0.265573	99
Es	2.991225	2.307763	0.132862	99
Es	-2.459581	-1.377050	-0.168232	99
Es	1.159558	-0.375000	-0.115745	99
Es	-1.645391	-1.252861	-0.123401	99
Es	-0.868781	-1.279069	-0.429815	99
Es	-1.013319	-1.195987	-0.137582	99
Es	-2.612913	-2.101607	-0.256452	99
Es	-0.780340	-1.532121	0.323296	99
Es	3.111145	1.070275	0.002386	99
Es	-0.845232	0.359649	-0.004024	99
Es	1.334797	1.539522	0.082958	99
Es	2.666644	1.652016	0.070865	99
Es	-2.758584	-0.999462	-0.732179	99
Es	1.010522	0.878224	0.021146	99
37
Properties=species:S:1:pos:R:3:Z:I:1 energy=-265.0437201188468 field_type=dipole dipole="0.000000 0.000000 0.000000" charge=0
C	-2.459729	-1.377051	-0.168238	6
N	-1.013119	-1.196321	-0.138168	7
N	-0.591679	0.086789	-0.019698	7
C	0.695491	0.213669	-0.043768	6
C	1.334902	1.539589	0.082962	6
C	2.666541	1.652009	0.070862	6
H	-2.698009	-2.436011	-0.305038	1
H	-2.903239	-0.821701	-1.000598	1
H	-2.916229	-1.038371	0.767252	1
H	-0.624529	-1.788161	0.599992	1
H	1.375992	-0.650221	-0.160828	1
H	0.677151	2.395159	0.183182	1
H	3.322622	0.793019	-0.031208	1
H	3.133832	2.627599	0.163292	1
Es	-0.000695	0.119742	0.265364	99
Es	1.159611	-0.374965	-0.115786	99
Es	2.991144	2.307879	0.132819	99
Es	0.695515	0.213702	-0.043722	99
Es	-1.013330	-1.196000	-0.137529	99
Es	-2.612915	-2.101610	-0.256277	99
Es	-2.776833	-1.145582	0.475571	99
Es	1.996708	1.544631	0.395224	99
Es	-0.868946	-1.279196	-0.429166	99
Es	-0.780299	-1.532028	0.323673	99
Es	0.004163	0.174207	-0.307905	99
Es	1.010473	0.878205	0.021221	99
Es	3.111200	1.070242	0.002384	99
Es	-0.591307	0.086299	-0.019732	99
Es	0.893221	2.112842	0.150044	99
Es	-1.645365	-1.252931	-0.123703	99
Es	-0.803560	-0.562122	-0.046893	99
Es	2.666644	1.652017	0.070859	99
Es	-2.758607	-0.999549	-0.732283	99
Es	1.334796	1.539521	0.082956	99
Es	1.986440	1.610633	-0.242845	99
Es	-0.845218	0.359655	-0.003694	99
Es	-2.459582	-1.377050	-0.168232	99
37
Properties=species:S:1:pos:R:3:Z:I:1 energy=-265.0437201188468 field_type=dipole dipole="0.000000 0.000000 0.000000" charge=0
C	-2.459729	-1.377051	-0.168238	6
N	-1.013119	-1.196321	-0.138168	7
N	-0.591679	0.086789	-0.019698	7
C	0.695491	0.213669	-0.043768	6
C	1.334902	1.539589	0.082962	6
C	2.666541	1.652009	0.070862	6
H	-2.698009	-2.436011	-0.305038	1
H	-2.903239	-0.821701	-1.000598	1
H	-2.916229	-1.038371	0.767252	1
H	-0.624529	-1.788161	0.599992	1
H	1.375992	-0.650221	-0.160828	1
H	0.677151	2.395159	0.183182	1
H	3.322622	0.793019	-0.031208	1
H	3.133832	2.627599	0.163292	1
Es	3.111161	1.070228	0.002397	99
Es	0.695514	0.213701	-0.043721	99
Es	-2.776845	-1.145675	0.475621	99
Es	2.666641	1.652017	0.070862	99
Es	-0.803478	-0.562227	-0.046698	99
Es	1.996698	1.544634	0.395257	99
Es	-0.591297	0.086300	-0.019731	99
Es	1.159544	-0.374961	-0.115860	99
Es	-2.758611	-0.999486	-0.732194	99
Es	-0.780152	-1.532171	0.323368	99
Es	1.986453	1.610626	-0.242848	99
Es	0.893201	2.112856	0.150012	99
Es	-1.013329	-1.195986	-0.137539	99
Es	-1.645515	-1.253091	-0.123851	99
Es	-0.868971	-1.278953	-0.428824	99
Es	1.334796	1.539522	0.082958	99
Es	0.004197	0.173845	-0.307375	99
Es	-2.612927	-2.101585	-0.256406	99
Es	-0.000716	0.120005	0.265459	99
Es	2.991187	2.307862	0.132796	99
Es	-0.845263	0.359923	-0.004164	99
Es	-2.459582	-1.377050	-0.168232	99
Es	1.010555	0.878207	0.021061	99
37
Properties=species:S:1:pos:R:3:Z:I:1 energy=-265.0437201188468 field_type=dipole dipole="0.000000 0.000000 0.000000" charge=0
C	-2.459729	-1.377051	-0.168238	6
N	-1.013119	-1.196321	-0.138168	7
N	-0.591679	0.086789	-0.019698	7
C	0.695491	0.213669	-0.043768	6
C	1.334902	1.539589	0.082962	6
C	2.666541	1.652009	0.070862	6
H	-2.698009	-2.436011	-0.305038	1
H	-2.903239	-0.821701	-1.000598	1
H	-2.916229	-1.038371	0.767252	1
H	-0.624529	-1.788161	0.599992	1
H	1.375992	-0.650221	-0.160828	1
H	0.677151	2.395159	0.183182	1
H	3.322622	0.793019	-0.031208	1
H	3.133832	2.627599	0.163292	1
Es	-0.803718	-0.562161	-0.046818	99
Es	-2.612912	-2.101587	-0.256362	99
Es	2.991251	2.307845	0.132847	99
Es	-0.868862	-1.279055	-0.428629	99
Es	1.986439	1.610644	-0.242925	99
Es	-2.776813	-1.145697	0.475598	99
Es	-1.013329	-1.195978	-0.137528	99
Es	-2.758694	-0.999515	-0.732175	99
Es	-1.645508	-1.253052	-0.124131	99
Es	1.159556	-0.375008	-0.115797	99
Es	-0.000766	0.119979	0.265441	99
Es	1.996704	1.544592	0.395235	99
Es	3.111101	1.070249	0.002401	99
Es	2.666646	1.652016	0.070863	99
Es	0.004156	0.174260	-0.307786	99
Es	1.334795	1.539521	0.082959	99
Es	-0.780288	-1.532101	0.323472	99
Es	0.893238	2.112871	0.150061	99
Es	1.010502	0.878255	0.021104	99
Es	0.695515	0.213702	-0.043729	99
Es	-2.459582	-1.377050	-0.168233	99
Es	-0.844878	0.359491	-0.003792	99
Es	-0.591294	0.086320	-0.019729	99
37
Properties=species:S:1:pos:R:3:Z:I:1 energy=-265.0437201188468 field_type=dipole dipole="0.000000 0.000000 0.000000" charge=0
C	-2.459729	-1.377051	-0.168238	6
N	-1.013119	-1.196321	-0.138168	7
N	-0.591679	0.086789	-0.019698	7
C	0.695491	0.213669	-0.043768	6
C	1.334902	1.539589	0.082962	6
C	2.666541	1.652009	0.070862	6
H	-2.698009	-2.436011	-0.305038	1
H	-2.903239	-0.821701	-1.000598	1
H	-2.916229	-1.038371	0.767252	1
H	-0.624529	-1.788161	0.599992	1
H	1.375992	-0.650221	-0.160828	1
H	0.677151	2.395159	0.183182	1
H	3.322622	0.793019	-0.031208	1
H	3.133832	2.627599	0.163292	1
Es	-2.776886	-1.145701	0.475619	99
Es	0.004165	0.174355	-0.307790	99
Es	1.996734	1.544708	0.395067	99
Es	3.111158	1.070189	0.002437	99
Es	0.695511	0.213700	-0.043718	99
Es	-0.780147	-1.532165	0.323265	99
Es	1.334797	1.539522	0.082959	99
Es	-0.804129	-0.562339	-0.046371	99
Es	-1.645482	-1.253109	-0.123769	99
Es	-1.013341	-1.195982	-0.137536	99
Es	-2.459583	-1.377050	-0.168233	99
Es	1.159529	-0.375039	-0.115855	99
Es	0.893213	2.112877	0.150084	99
Es	-0.844613	0.359444	-0.003707	99
Es	-0.000787	0.119973	0.265322	99
Es	1.986411	1.610572	-0.242884	99
Es	1.010554	0.878270	0.021218	99
Es	-0.591299	0.086300	-0.019731	99
Es	-2.758621	-0.999510	-0.732184	99
Es	-0.868822	-1.278845	-0.429122	99
Es	2.991186	2.307885	0.132838	99
Es	-2.612932	-2.101530	-0.256426	99
Es	2.666643	1.652016	0.070863	99
37
Properties=species:S:1:pos:R:3:Z:I:1 energy=-265.0437201188468 field_type=dipole dipole="0.000000 0.000000 0.000000" charge=0
C	-2.459729	-1.377051	-0.168238	6
N	-1.013119	-1.196321	-0.138168	7
N	-0.591679	0.086789	-0.019698	7
C	0.695491	0.213669	-0.043768	6
C	1.334902	1.539589	0.082962	6
C	2.666541	1.652009	0.070862	6
H	-2.698009	-2.436011	-0.305038	1
H	-2.903239	-0.821701	-1.000598	1
H	-2.916229	-1.038371	0.767252	1
H	-0.624529	-1.788161	0.599992	1
H	1.375992	-0.650221	-0.160828	1
H	0.677151	2.395159	0.183182	1
H	3.322622	0.793019	-0.031208	1
H	3.133832	2.627599	0.163292	1
Es	0.893244	2.112936	0.150114	99
Es	-0.844572	0.359321	-0.003146	99
Es	-0.803910	-0.562293	-0.046894	99
Es	-2.758634	-0.999557	-0.732202	99
Es	1.996737	1.544559	0.395057	99
Es	1.334801	1.539527	0.082951	99
Es	0.695516	0.213702	-0.043726	99
Es	1.010556	0.878367	0.021038	99
Es	-2.776901	-1.145664	0.475515	99
Es	-2.612932	-2.101577	-0.256346	99
Es	0.004057	0.174689	-0.307920	99
Es	-0.868818	-1.278915	-0.428342	99
Es	-1.645584	-1.253232	-0.124228	99
Es	-0.591307	0.086319	-0.019730	99
Es	1.159479	-0.375054	-0.115894	99
Es	2.666641	1.652016	0.070859	99
Es	-1.013331	-1.195985	-0.137549	99
Es	1.986433	1.610523	-0.242774	99
Es	-0.000778	0.119863	0.265099	99
Es	-2.459583	-1.377050	-0.168231	99
Es	-0.780183	-1.532076	0.323428	99
Es	2.991149	2.307955	0.132832	99
Es	3.111180	1.070169	0.002435	99
