39
Properties=species:S:1:pos:R:3:Z:I:1 energy=-233.09144520034334 field_type=dipole dipole="0.000000 0.000000 0.000000" charge=0
C	-1.559233	0.002685	0.837600	6
C	-0.028243	-0.005215	0.795310	6
C	0.503267	-1.224155	0.023080	6
C	0.799097	-0.663805	-1.329810	6
C	0.806127	0.672585	-1.322650	6
C	0.515547	1.218255	0.039310	6
H	-1.924393	0.883405	1.376250	1
H	-1.934333	-0.886045	1.355920	1
H	-1.994243	0.016775	-0.167340	1
H	0.338027	-0.013735	1.828920	1
H	-0.226003	-2.038365	-0.026970	1
H	1.425797	-1.606895	0.472950	1
H	1.014007	-1.275465	-2.195670	1
H	1.027717	1.293395	-2.179510	1
H	1.442267	1.586015	0.493520	1
H	-0.205403	2.040565	-0.000910	1
Es	0.236159	-0.631384	0.420161	99
Es	1.134101	-1.481439	0.324246	99
Es	-1.559220	0.002685	0.837602	99
Es	-0.801508	-0.001240	0.806622	99
Es	0.242531	0.622916	0.428411	99
Es	0.515555	1.218233	0.039282	99
Es	0.799097	-0.663938	-1.329797	99
Es	0.806140	0.672714	-1.322631	99
Es	-1.806245	0.607585	1.206011	99
Es	1.115753	0.002461	-1.273155	99
Es	0.659487	0.980860	-0.660180	99
Es	0.481024	0.006711	-1.423549	99
Es	-1.850823	0.012239	0.150674	99
Es	0.649765	-0.978926	-0.672183	99
Es	1.149323	1.465465	0.343474	99
Es	-1.813070	-0.607698	1.192114	99
Es	0.503275	-1.224134	0.023053	99
Es	-0.028266	-0.005214	0.795272	99
Es	0.955750	1.104861	-1.901063	99
Es	0.022376	1.778845	0.013100	99
Es	0.944121	-1.090070	-1.914426	99
Es	0.222709	-0.011066	1.508650	99
Es	0.004405	-1.779333	-0.010307	99
39
Properties=species:S:1:pos:R:3:Z:I:1 energy=-233.09144520034334 field_type=dipole dipole="0.000000 0.000000 0.000000" charge=0
C	-1.559233	0.002685	0.837600	6
C	-0.028243	-0.005215	0.795310	6
C	0.503267	-1.224155	0.023080	6
C	0.799097	-0.663805	-1.329810	6
C	0.806127	0.672585	-1.322650	6
C	0.515547	1.218255	0.039310	6
H	-1.924393	0.883405	1.376250	1
H	-1.934333	-0.886045	1.355920	1
H	-1.994243	0.016775	-0.167340	1
H	0.338027	-0.013735	1.828920	1
H	-0.226003	-2.038365	-0.026970	1
H	1.425797	-1.606895	0.472950	1
H	1.014007	-1.275465	-2.195670	1
H	1.027717	1.293395	-2.179510	1
H	1.442267	1.586015	0.493520	1
H	-0.205403	2.040565	-0.000910	1
Es	0.944085	-1.090059	-1.914455	99
Es	0.659480	0.980890	-0.660126	99
Es	-1.850788	0.012186	0.150623	99
Es	0.242681	0.622938	0.428589	99
Es	0.503275	-1.224133	0.023053	99
Es	0.022347	1.778838	0.013091	99
Es	0.236233	-0.631318	0.420209	99
Es	-1.559218	0.002684	0.837604	99
Es	-1.806374	0.607537	1.206014	99
Es	0.481365	0.006697	-1.423497	99
Es	0.806130	0.672714	-1.322633	99
Es	1.115580	0.002465	-1.273160	99
Es	0.799092	-0.663936	-1.329798	99
Es	0.004536	-1.779244	-0.010056	99
Es	0.955745	1.104797	-1.901215	99
Es	0.222611	-0.011117	1.508608	99
Es	-1.813001	-0.607681	1.192066	99
Es	0.515554	1.218232	0.039280	99
Es	-0.028266	-0.005214	0.795272	99
Es	-0.801512	-0.001145	0.806672	99
Es	1.149221	1.465528	0.343395	99
Es	0.649461	-0.979063	-0.672266	99
Es	1.134200	-1.481461	0.324114	99
39
Properties=species:S:1:pos:R:3:Z:I:1 energy=-233.09144520034334 field_type=dipole dipole="0.000000 0.000000 0.000000" charge=0
C	-1.559233	0.002685	0.837600	6
C	-0.028243	-0.005215	0.795310	6
C	0.503267	-1.224155	0.023080	6
C	0.799097	-0.663805	-1.329810	6
C	0.806127	0.672585	-1.322650	6
C	0.515547	1.218255	0.039310	6
H	-1.924393	0.883405	1.376250	1
H	-1.934333	-0.886045	1.355920	1
H	-1.994243	0.016775	-0.167340	1
H	0.338027	-0.013735	1.828920	1
H	-0.226003	-2.038365	-0.026970	1
H	1.425797	-1.606895	0.472950	1
H	1.014007	-1.275465	-2.195670	1
H	1.027717	1.293395	-2.179510	1
H	1.442267	1.586015	0.493520	1
H	-0.205403	2.040565	-0.000910	1
Es	1.115414	0.002461	-1.273204	99
Es	0.022446	1.778937	0.013005	99
Es	0.944097	-1.089996	-1.914540	99
Es	0.481592	0.006697	-1.423472	99
Es	-1.850795	0.012219	0.150762	99
Es	0.955713	1.104702	-1.901255	99
Es	-0.028266	-0.005214	0.795274	99
Es	0.004557	-1.779206	-0.010238	99
Es	0.799089	-0.663935	-1.329799	99
Es	-1.559222	0.002685	0.837603	99
Es	1.149255	1.465440	0.343400	99
Es	-0.801414	-0.001249	0.806633	99
Es	0.236193	-0.631339	0.420206	99
Es	0.649541	-0.979106	-0.672073	99
Es	0.515555	1.218233	0.039282	99
Es	0.503274	-1.224131	0.023053	99
Es	0.242499	0.622997	0.428629	99
Es	0.806122	0.672712	-1.322634	99
Es	0.222593	-0.011067	1.508548	99
Es	1.134236	-1.481534	0.324170	99
Es	0.659423	0.980926	-0.659989	99
Es	-1.813150	-0.607671	1.192089	99
Es	-1.806313	0.607573	1.205935	99
39
Properties=species:S:1:pos:R:3:Z:I:1 energy=-233.09144520034334 field_type=dipole dipole="0.000000 0.000000 0.000000" charge=0
C	-1.559233	0.002685	0.837600	6
C	-0.028243	-0.005215	0.795310	6
C	0.503267	-1.224155	0.023080	6
C	0.799097	-0.663805	-1.329810	6
C	0.806127	0.672585	-1.322650	6
C	0.515547	1.218255	0.039310	6
H	-1.924393	0.883405	1.376250	1
H	-1.934333	-0.886045	1.355920	1
H	-1.994243	0.016775	-0.167340	1
H	0.338027	-0.013735	1.828920	1
H	-0.226003	-2.038365	-0.026970	1
H	1.425797	-1.606895	0.472950	1
H	1.014007	-1.275465	-2.195670	1
H	1.027717	1.293395	-2.179510	1
H	1.442267	1.586015	0.493520	1
H	-0.205403	2.040565	-0.000910	1
Es	0.515555	1.218234	0.039282	99
Es	0.806124	0.672714	-1.322635	99
Es	0.222558	-0.011147	1.508445	99
Es	0.242556	0.623006	0.428742	99
Es	1.115243	0.002465	-1.273200	99
Es	-1.850872	0.012236	0.150771	99
Es	-1.559221	0.002685	0.837603	99
Es	1.149224	1.465555	0.343387	99
Es	-0.028266	-0.005214	0.795273	99
Es	0.659445	0.980978	-0.659986	99
Es	-1.806308	0.607520	1.205951	99
Es	0.955729	1.104696	-1.901337	99
Es	1.134190	-1.481504	0.324013	99
Es	0.649404	-0.979012	-0.672087	99
Es	0.022496	1.778828	0.012993	99
Es	-0.801399	-0.001236	0.806669	99
Es	0.236209	-0.631359	0.420346	99
Es	0.944117	-1.090036	-1.914583	99
Es	0.481800	0.006694	-1.423415	99
Es	0.503274	-1.224133	0.023053	99
Es	-1.813143	-0.607637	1.192080	99
Es	0.004640	-1.779265	-0.010183	99
Es	0.799083	-0.663936	-1.329797	99
39
Properties=species:S:1:pos:R:3:Z:I:1 energy=-233.09144520034334 field_type=dipole dipole="0.000000 0.000000 0.000000" charge=0
C	-1.559233	0.002685	0.837600	6
C	-0.028243	-0.005215	0.795310	6
C	0.503267	-1.224155	0.023080	6
C	0.799097	-0.663805	-1.329810	6
C	0.806127	0.672585	-1.322650	6
C	0.515547	1.218255	0.039310	6
H	-1.924393	0.883405	1.376250	1
H	-1.934333	-0.886045	1.355920	1
H	-1.994243	0.016775	-0.167340	1
H	0.338027	-0.013735	1.828920	1
H	-0.226003	-2.038365	-0.026970	1
H	1.425797	-1.606895	0.472950	1
H	1.014007	-1.275465	-2.195670	1
H	1.027717	1.293395	-2.179510	1
H	1.442267	1.586015	0.493520	1
H	-0.205403	2.040565	-0.000910	1
Es	0.649536	-0.979196	-0.672141	99
Es	0.806122	0.672718	-1.322645	99
Es	0.799090	-0.663937	-1.329798	99
Es	-1.559219	0.002685	0.837603	99
Es	-1.813184	-0.607654	1.192005	99
Es	0.242502	0.622910	0.428698	99
Es	-1.850817	0.012280	0.150775	99
Es	-1.806356	0.607485	1.205964	99
Es	0.659564	0.981075	-0.659851	99
Es	0.944021	-1.089927	-1.914595	99
Es	0.955691	1.104674	-1.901322	99
Es	0.004713	-1.779137	-0.010176	99
Es	1.149245	1.465485	0.343325	99
Es	1.134077	-1.481624	0.324056	99
Es	0.503274	-1.224134	0.023053	99
Es	0.515555	1.218233	0.039282	99
Es	0.022545	1.778890	0.013058	99
Es	1.115172	0.002488	-1.273426	99
Es	0.222565	-0.011116	1.508461	99
Es	-0.801330	-0.001217	0.806744	99
Es	0.481782	0.006686	-1.423350	99
Es	0.236156	-0.631319	0.420392	99
Es	-0.028265	-0.005214	0.795274	99
39
Properties=species:S:1:pos:R:3:Z:I:1 energy=-233.09144520034334 field_type=dipole dipole="0.000000 0.000000 0.000000" charge=0
C	-1.559233	0.002685	0.837600	6
C	-0.028243	-0.005215	0.795310	6
C	0.503267	-1.224155	0.023080	6
C	0.799097	-0.663805	-1.329810	6
C	0.806127	0.672585	-1.322650	6
C	0.515547	1.218255	0.039310	6
H	-1.924393	0.883405	1.376250	1
H	-1.934333	-0.886045	1.355920	1
H	-1.994243	0.016775	-0.167340	1
H	0.338027	-0.013735	1.828920	1
H	-0.226003	-2.038365	-0.026970	1
H	1.425797	-1.606895	0.472950	1
H	1.014007	-1.275465	-2.195670	1
H	1.027717	1.293395	-2.179510	1
H	1.442267	1.586015	0.493520	1
H	-0.205403	2.040565	-0.000910	1
Es	0.649453	-0.979259	-0.671971	99
Es	0.806122	0.672712	-1.322634	99
Es	0.022611	1.778894	0.013013	99
Es	1.149185	1.465503	0.343304	99
Es	1.134121	-1.481529	0.323955	99
Es	-1.806362	0.607491	1.205915	99
Es	0.659459	0.981140	-0.659859	99
Es	1.115008	0.002471	-1.273400	99
Es	0.482026	0.006694	-1.423357	99
Es	-1.559221	0.002686	0.837603	99
Es	0.222523	-0.011131	1.508350	99
Es	-1.813194	-0.607607	1.192042	99
Es	-0.028265	-0.005214	0.795274	99
Es	0.515555	1.218234	0.039282	99
Es	0.503275	-1.224132	0.023054	99
Es	0.004726	-1.779259	-0.010169	99
Es	0.944099	-1.089874	-1.914638	99
Es	0.242510	0.622971	0.428803	99
Es	0.799092	-0.663937	-1.329800	99
Es	-0.801314	-0.001237	0.806729	99
Es	0.236188	-0.631292	0.420435	99
Es	0.955714	1.104574	-1.901394	99
Es	-1.850874	0.012235	0.150847	99
39
Properties=species:S:1:pos:R:3:Z:I:1 energy=-233.09144520034334 field_type=dipole dipole="0.000000 0.000000 0.000000" charge=0
C	-1.559233	0.002685	0.837600	6
C	-0.028243	-0.005215	0.795310	6
C	0.503267	-1.224155	0.023080	6
C	0.799097	-0.663805	-1.329810	6
C	0.806127	0.672585	-1.322650	6
C	0.515547	1.218255	0.039310	6
H	-1.924393	0.883405	1.376250	1
H	-1.934333	-0.886045	1.355920	1
H	-1.994243	0.016775	-0.167340	1
H	0.338027	-0.013735	1.828920	1
H	-0.226003	-2.038365	-0.026970	1
H	1.425797	-1.606895	0.472950	1
H	1.014007	-1.275465	-2.195670	1
H	1.027717	1.293395	-2.179510	1
H	1.442267	1.586015	0.493520	1
H	-0.205403	2.040565	-0.000910	1
Es	-1.559221	0.002685	0.837603	99
Es	0.515555	1.218233	0.039282	99
Es	-0.801293	-0.001224	0.806825	99
Es	-1.813204	-0.607568	1.192072	99
Es	1.114900	0.002465	-1.273436	99
Es	0.955691	1.104538	-1.901438	99
Es	0.659445	0.981181	-0.659811	99
Es	0.004774	-1.779243	-0.010203	99
Es	0.799093	-0.663934	-1.329798	99
Es	-0.028266	-0.005215	0.795275	99
Es	0.222522	-0.011166	1.508272	99
Es	0.649426	-0.979277	-0.671912	99
Es	0.236167	-0.631284	0.420484	99
Es	-1.850875	0.012192	0.150846	99
Es	1.134102	-1.481563	0.323921	99
Es	-1.806396	0.607480	1.205854	99
Es	0.242482	0.622995	0.428871	99
Es	0.503276	-1.224136	0.023054	99
Es	0.806123	0.672716	-1.322632	99
Es	0.482225	0.006689	-1.423346	99
Es	1.149153	1.465504	0.343281	99
Es	0.022667	1.778900	0.012998	99
Es	0.944090	-1.089837	-1.914677	99
39
Properties=species:S:1:pos:R:3:Z:I:1 energy=-233.09144520034334 field_type=dipole dipole="0.000000 0.000000 0.000000" charge=0
C	-1.559233	0.002685	0.837600	6
C	-0.028243	-0.005215	0.795310	6
C	0.503267	-1.224155	0.023080	6
C	0.799097	-0.663805	-1.329810	6
C	0.806127	0.672585	-1.322650	6
C	0.515547	1.218255	0.039310	6
H	-1.924393	0.883405	1.376250	1
H	-1.934333	-0.886045	1.355920	1
H	-1.994243	0.016775	-0.167340	1
H	0.338027	-0.013735	1.828920	1
H	-0.226003	-2.038365	-0.026970	1
H	1.425797	-1.606895	0.472950	1
H	1.014007	-1.275465	-2.195670	1
H	1.027717	1.293395	-2.179510	1
H	1.442267	1.586015	0.493520	1
H	-0.205403	2.040565	-0.000910	1
Es	0.503275	-1.224134	0.023052	99
Es	0.222551	-0.011152	1.508246	99
Es	0.242429	0.622940	0.428928	99
Es	-1.806399	0.607510	1.205892	99
Es	1.114869	0.002463	-1.273337	99
Es	-0.801295	-0.001270	0.806838	99
Es	-0.028265	-0.005214	0.795273	99
Es	1.149131	1.465536	0.343246	99
Es	0.944042	-1.089774	-1.914749	99
Es	0.799092	-0.663934	-1.329799	99
Es	0.022732	1.778880	0.012994	99
Es	0.955666	1.104500	-1.901477	99
Es	-1.813229	-0.607567	1.192008	99
Es	-1.559221	0.002685	0.837603	99
Es	1.134046	-1.481557	0.323876	99
Es	0.004844	-1.779244	-0.010140	99
Es	0.659321	0.981251	-0.659814	99
Es	0.649373	-0.979396	-0.671948	99
Es	-1.850864	0.012205	0.150890	99
Es	0.806121	0.672716	-1.322635	99
Es	0.236160	-0.631233	0.420518	99
Es	0.482501	0.006690	-1.423364	99
Es	0.515555	1.218233	0.039282	99
39
Properties=species:S:1:pos:R:3:Z:I:1 energy=-233.09144520034334 field_type=dipole dipole="0.000000 0.000000 0.000000" charge=0
C	-1.559233	0.002685	0.837600	6
C	-0.028243	-0.005215	0.795310	6
C	0.503267	-1.224155	0.023080	6
C	0.799097	-0.663805	-1.329810	6
C	0.806127	0.672585	-1.322650	6
C	0.515547	1.218255	0.039310	6
H	-1.924393	0.883405	1.376250	1
H	-1.934333	-0.886045	1.355920	1
H	-1.994243	0.016775	-0.167340	1
H	0.338027	-0.013735	1.828920	1
H	-0.226003	-2.038365	-0.026970	1
H	1.425797	-1.606895	0.472950	1
H	1.014007	-1.275465	-2.195670	1
H	1.027717	1.293395	-2.179510	1
H	1.442267	1.586015	0.493520	1
H	-0.205403	2.040565	-0.000910	1
Es	1.149095	1.465543	0.343181	99
Es	0.943996	-1.089748	-1.914774	99
Es	0.482400	0.006693	-1.423209	99
Es	0.236104	-0.631184	0.420450	99
Es	-1.850890	0.012179	0.150909	99
Es	0.222357	-0.011154	1.508216	99
Es	-1.813255	-0.607490	1.191986	99
Es	0.806124	0.672714	-1.322634	99
Es	-1.806438	0.607484	1.205873	99
Es	0.659440	0.981273	-0.659741	99
Es	0.503275	-1.224133	0.023052	99
Es	-0.801218	-0.001249	0.806746	99
Es	0.515555	1.218233	0.039282	99
Es	-1.559222	0.002685	0.837602	99
Es	0.799094	-0.663931	-1.329796	99
Es	0.955668	1.104468	-1.901498	99
Es	0.242595	0.622938	0.429040	99
Es	0.004767	-1.779170	-0.010397	99
Es	-0.028266	-0.005214	0.795273	99
Es	0.022741	1.778904	0.012989	99
Es	1.114723	0.002460	-1.273571	99
Es	1.133974	-1.481667	0.324106	99
Es	0.649819	-0.979502	-0.671702	99
39
Properties=species:S:1:pos:R:3:Z:I:1 energy=-233.09144520034334 field_type=dipole dipole="0.000000 0.000000 0.000000" charge=0
C	-1.559233	0.002685	0.837600	6
C	-0.028243	-0.005215	0.795310	6
C	0.503267	-1.224155	0.023080	6
C	0.799097	-0.663805	-1.329810	6
C	0.806127	0.672585	-1.322650	6
C	0.515547	1.218255	0.039310	6
H	-1.924393	0.883405	1.376250	1
H	-1.934333	-0.886045	1.355920	1
H	-1.994243	0.016775	-0.167340	1
H	0.338027	-0.013735	1.828920	1
H	-0.226003	-2.038365	-0.026970	1
H	1.425797	-1.606895	0.472950	1
H	1.014007	-1.275465	-2.195670	1
H	1.027717	1.293395	-2.179510	1
H	1.442267	1.586015	0.493520	1
H	-0.205403	2.040565	-0.000910	1
Es	0.236174	-0.631241	0.420629	99
Es	0.503275	-1.224133	0.023053	99
Es	0.659436	0.981363	-0.659654	99
Es	0.799093	-0.663932	-1.329797	99
Es	-1.813274	-0.607537	1.191988	99
Es	-0.801189	-0.001237	0.806851	99
Es	0.222445	-0.011127	1.508117	99
Es	0.515555	1.218233	0.039282	99
Es	0.944098	-1.089709	-1.914799	99
Es	-1.806436	0.607422	1.205857	99
Es	0.806129	0.672707	-1.322633	99
Es	0.482630	0.006694	-1.423232	99
Es	-1.559221	0.002686	0.837602	99
Es	-1.850922	0.012235	0.150968	99
Es	0.242501	0.622918	0.428994	99
Es	1.114498	0.002473	-1.273603	99
Es	1.149086	1.465558	0.343173	99
Es	0.004887	-1.779249	-0.010185	99
Es	1.134025	-1.481583	0.323827	99
Es	0.955709	1.104409	-1.901554	99
Es	0.649430	-0.979489	-0.671771	99
Es	0.022774	1.778886	0.012999	99
Es	-0.028266	-0.005215	0.795274	99
39
Properties=species:S:1:pos:R:3:Z:I:1 energy=-233.09144520034334 field_type=dipole dipole="0.000000 0.000000 0.000000" charge=0
C	-1.559233	0.002685	0.837600	6
C	-0.028243	-0.005215	0.795310	6
C	0.503267	-1.224155	0.023080	6
C	0.799097	-0.663805	-1.329810	6
C	0.806127	0.672585	-1.322650	6
C	0.515547	1.218255	0.039310	6
H	-1.924393	0.883405	1.376250	1
H	-1.934333	-0.886045	1.355920	1
H	-1.994243	0.016775	-0.167340	1
H	0.338027	-0.013735	1.828920	1
H	-0.226003	-2.038365	-0.026970	1
H	1.425797	-1.606895	0.472950	1
H	1.014007	-1.275465	-2.195670	1
H	1.027717	1.293395	-2.179510	1
H	1.442267	1.586015	0.493520	1
H	-0.205403	2.040565	-0.000910	1
Es	0.955616	1.104369	-1.901614	99
Es	-1.813292	-0.607521	1.191976	99
Es	0.659324	0.981423	-0.659636	99
Es	1.134003	-1.481598	0.323787	99
Es	0.242498	0.622910	0.429043	99
Es	-1.806454	0.607409	1.205842	99
Es	-0.028266	-0.005214	0.795274	99
Es	-1.850935	0.012235	0.150995	99
Es	1.114530	0.002470	-1.273512	99
Es	0.004920	-1.779249	-0.010187	99
Es	0.515555	1.218234	0.039282	99
Es	-1.559222	0.002685	0.837603	99
Es	0.022820	1.778891	0.012998	99
Es	0.236177	-0.631230	0.420679	99
Es	0.649332	-0.979538	-0.671741	99
Es	0.222425	-0.011128	1.508061	99
Es	0.944006	-1.089674	-1.914855	99
Es	0.806124	0.672713	-1.322634	99
Es	0.799091	-0.663933	-1.329797	99
Es	-0.801158	-0.001237	0.806879	99
Es	0.503275	-1.224133	0.023053	99
Es	0.482994	0.006686	-1.423245	99
Es	1.149073	1.465563	0.343134	99
39
Properties=species:S:1:pos:R:3:Z:I:1 energy=-233.09144520034334 field_type=dipole dipole="0.000000 0.000000 0.000000" charge=0
C	-1.559233	0.002685	0.837600	6
C	-0.028243	-0.005215	0.795310	6
C	0.503267	-1.224155	0.023080	6
C	0.799097	-0.663805	-1.329810	6
C	0.806127	0.672585	-1.322650	6
C	0.515547	1.218255	0.039310	6
H	-1.924393	0.883405	1.376250	1
H	-1.934333	-0.886045	1.355920	1
H	-1.994243	0.016775	-0.167340	1
H	0.338027	-0.013735	1.828920	1
H	-0.226003	-2.038365	-0.026970	1
H	1.425797	-1.606895	0.472950	1
H	1.014007	-1.275465	-2.195670	1
H	1.027717	1.293395	-2.179510	1
H	1.442267	1.586015	0.493520	1
H	-0.205403	2.040565	-0.000910	1
Es	-1.813335	-0.607503	1.191963	99
Es	-1.806467	0.607398	1.205815	99
Es	1.149042	1.465586	0.343113	99
Es	1.114300	0.002471	-1.273630	99
Es	0.483001	0.006682	-1.423165	99
Es	0.955677	1.104321	-1.901650	99
Es	0.022850	1.778878	0.012991	99
Es	0.222394	-0.011126	1.508001	99
Es	0.236175	-0.631235	0.420705	99
Es	0.004964	-1.779257	-0.010195	99
Es	0.944069	-1.089640	-1.914885	99
Es	0.649388	-0.979582	-0.671686	99
Es	-1.850930	0.012241	0.151027	99
Es	0.503273	-1.224127	0.023056	99
Es	0.806124	0.672714	-1.322633	99
Es	-0.028266	-0.005214	0.795274	99
Es	0.242496	0.622899	0.429092	99
Es	1.133980	-1.481600	0.323765	99
Es	0.659391	0.981486	-0.659583	99
Es	-0.801114	-0.001248	0.806920	99
Es	-1.559223	0.002686	0.837604	99
Es	0.515556	1.218234	0.039282	99
Es	0.799093	-0.663931	-1.329797	99
39
Properties=species:S:1:pos:R:3:Z:I:1 energy=-233.09144520034334 field_type=dipole dipole="0.000000 0.000000 0.000000" charge=0
C	-1.559233	0.002685	0.837600	6
C	-0.028243	-0.005215	0.795310	6
C	0.503267	-1.224155	0.023080	6
C	0.799097	-0.663805	-1.329810	6
C	0.806127	0.672585	-1.322650	6
C	0.515547	1.218255	0.039310	6
H	-1.924393	0.883405	1.376250	1
H	-1.934333	-0.886045	1.355920	1
H	-1.994243	0.016775	-0.167340	1
H	0.338027	-0.013735	1.828920	1
H	-0.226003	-2.038365	-0.026970	1
H	1.425797	-1.606895	0.472950	1
H	1.014007	-1.275465	-2.195670	1
H	1.027717	1.293395	-2.179510	1
H	1.442267	1.586015	0.493520	1
H	-0.205403	2.040565	-0.000910	1
Es	-1.850954	0.012232	0.151049	99
Es	1.114026	0.002481	-1.273839	99
Es	1.133962	-1.481620	0.323734	99
Es	0.799101	-0.663923	-1.329797	99
Es	0.944164	-1.089602	-1.914889	99
Es	0.482934	0.006687	-1.423123	99
Es	0.955758	1.104294	-1.901656	99
Es	-0.801101	-0.001233	0.806933	99
Es	0.022883	1.778879	0.012982	99
Es	0.659490	0.981509	-0.659482	99
Es	-1.813317	-0.607490	1.191947	99
Es	-1.806496	0.607379	1.205821	99
Es	0.242495	0.622880	0.429123	99
Es	1.149017	1.465598	0.343087	99
Es	0.005001	-1.779243	-0.010204	99
Es	0.236164	-0.631208	0.420760	99
Es	0.515556	1.218233	0.039282	99
Es	0.649453	-0.979626	-0.671596	99
Es	0.503272	-1.224133	0.023050	99
Es	-0.028270	-0.005215	0.795274	99
Es	-1.559220	0.002683	0.837604	99
Es	0.222391	-0.011127	1.507958	99
Es	0.806128	0.672698	-1.322634	99
39
Properties=species:S:1:pos:R:3:Z:I:1 energy=-233.09144520034334 field_type=dipole dipole="0.000000 0.000000 0.000000" charge=0
C	-1.559233	0.002685	0.837600	6
C	-0.028243	-0.005215	0.795310	6
C	0.503267	-1.224155	0.023080	6
C	0.799097	-0.663805	-1.329810	6
C	0.806127	0.672585	-1.322650	6
C	0.515547	1.218255	0.039310	6
H	-1.924393	0.883405	1.376250	1
H	-1.934333	-0.886045	1.355920	1
H	-1.994243	0.016775	-0.167340	1
H	0.338027	-0.013735	1.828920	1
H	-0.226003	-2.038365	-0.026970	1
H	1.425797	-1.606895	0.472950	1
H	1.014007	-1.275465	-2.195670	1
H	1.027717	1.293395	-2.179510	1
H	1.442267	1.586015	0.493520	1
H	-0.205403	2.040565	-0.000910	1
Es	0.503275	-1.224133	0.023053	99
Es	0.659361	0.981506	-0.659514	99
Es	0.005074	-1.779234	-0.010202	99
Es	-0.801044	-0.001211	0.806917	99
Es	1.148974	1.465643	0.343067	99
Es	0.236131	-0.631200	0.420832	99
Es	-1.813352	-0.607519	1.191934	99
Es	0.515555	1.218233	0.039282	99
Es	0.222314	-0.011143	1.507904	99
Es	0.806123	0.672710	-1.322634	99
Es	0.944052	-1.089615	-1.914965	99
Es	-1.806516	0.607349	1.205792	99
Es	0.955663	1.104269	-1.901741	99
Es	-0.028266	-0.005215	0.795274	99
Es	-1.850951	0.012259	0.151109	99
Es	1.114041	0.002480	-1.273746	99
Es	1.133993	-1.481631	0.323682	99
Es	0.483369	0.006686	-1.423093	99
Es	0.799092	-0.663930	-1.329797	99
Es	0.022892	1.778836	0.013014	99
Es	0.242578	0.622956	0.429188	99
Es	-1.559222	0.002685	0.837603	99
Es	0.649300	-0.979649	-0.671576	99
39
Properties=species:S:1:pos:R:3:Z:I:1 energy=-233.09144520034334 field_type=dipole dipole="0.000000 0.000000 0.000000" charge=0
C	-1.559233	0.002685	0.837600	6
C	-0.028243	-0.005215	0.795310	6
C	0.503267	-1.224155	0.023080	6
C	0.799097	-0.663805	-1.329810	6
C	0.806127	0.672585	-1.322650	6
C	0.515547	1.218255	0.039310	6
H	-1.924393	0.883405	1.376250	1
H	-1.934333	-0.886045	1.355920	1
H	-1.994243	0.016775	-0.167340	1
H	0.338027	-0.013735	1.828920	1
H	-0.226003	-2.038365	-0.026970	1
H	1.425797	-1.606895	0.472950	1
H	1.014007	-1.275465	-2.195670	1
H	1.027717	1.293395	-2.179510	1
H	1.442267	1.586015	0.493520	1
H	-0.205403	2.040565	-0.000910	1
Es	1.133923	-1.481643	0.323684	99
Es	-1.850965	0.012224	0.151106	99
Es	0.659306	0.981634	-0.659443	99
Es	0.503275	-1.224133	0.023053	99
Es	1.113975	0.002474	-1.273753	99
Es	1.149006	1.465592	0.343017	99
Es	0.955657	1.104218	-1.901746	99
Es	0.944053	-1.089511	-1.914998	99
Es	-1.559225	0.002680	0.837606	99
Es	-0.801051	-0.001264	0.806980	99
Es	-1.813370	-0.607447	1.191931	99
Es	0.483468	0.006683	-1.423096	99
Es	-1.806519	0.607368	1.205777	99
Es	-0.028266	-0.005215	0.795274	99
Es	0.806123	0.672711	-1.322633	99
Es	0.022979	1.778887	0.013005	99
Es	0.515555	1.218233	0.039282	99
Es	0.222339	-0.011097	1.507847	99
Es	0.799093	-0.663932	-1.329796	99
Es	0.005076	-1.779245	-0.010238	99
Es	0.236156	-0.631207	0.420881	99
Es	0.242481	0.622853	0.429179	99
Es	0.649365	-0.979732	-0.671534	99
39
Properties=species:S:1:pos:R:3:Z:I:1 energy=-233.09144520034334 field_type=dipole dipole="0.000000 0.000000 0.000000" charge=0
C	-1.559233	0.002685	0.837600	6
C	-0.028243	-0.005215	0.795310	6
C	0.503267	-1.224155	0.023080	6
C	0.799097	-0.663805	-1.329810	6
C	0.806127	0.672585	-1.322650	6
C	0.515547	1.218255	0.039310	6
H	-1.924393	0.883405	1.376250	1
H	-1.934333	-0.886045	1.355920	1
H	-1.994243	0.016775	-0.167340	1
H	0.338027	-0.013735	1.828920	1
H	-0.226003	-2.038365	-0.026970	1
H	1.425797	-1.606895	0.472950	1
H	1.014007	-1.275465	-2.195670	1
H	1.027717	1.293395	-2.179510	1
H	1.442267	1.586015	0.493520	1
H	-0.205403	2.040565	-0.000910	1
Es	0.242458	0.622827	0.429185	99
Es	1.148968	1.465622	0.343015	99
Es	0.649273	-0.979759	-0.671485	99
Es	1.133930	-1.481652	0.323643	99
Es	0.236168	-0.631169	0.420893	99
Es	0.022996	1.778869	0.012985	99
Es	0.515557	1.218236	0.039281	99
Es	0.799092	-0.663930	-1.329796	99
Es	0.806123	0.672709	-1.322633	99
Es	-1.806544	0.607351	1.205760	99
Es	0.005082	-1.779248	-0.010237	99
Es	-1.813333	-0.607442	1.191953	99
Es	0.944061	-1.089508	-1.915039	99
Es	-1.559216	0.002683	0.837606	99
Es	0.503275	-1.224132	0.023052	99
Es	0.483623	0.006678	-1.423082	99
Es	0.659319	0.981683	-0.659401	99
Es	0.222368	-0.011095	1.507782	99
Es	1.113912	0.002475	-1.273760	99
Es	-0.028266	-0.005216	0.795273	99
Es	-1.850998	0.012190	0.151128	99
Es	0.955657	1.104193	-1.901763	99
Es	-0.801066	-0.001232	0.807026	99
39
Properties=species:S:1:pos:R:3:Z:I:1 energy=-233.09144520034334 field_type=dipole dipole="0.000000 0.000000 0.000000" charge=0
C	-1.559233	0.002685	0.837600	6
C	-0.028243	-0.005215	0.795310	6
C	0.503267	-1.224155	0.023080	6
C	0.799097	-0.663805	-1.329810	6
C	0.806127	0.672585	-1.322650	6
C	0.515547	1.218255	0.039310	6
H	-1.924393	0.883405	1.376250	1
H	-1.934333	-0.886045	1.355920	1
H	-1.994243	0.016775	-0.167340	1
H	0.338027	-0.013735	1.828920	1
H	-0.226003	-2.038365	-0.026970	1
H	1.425797	-1.606895	0.472950	1
H	1.014007	-1.275465	-2.195670	1
H	1.027717	1.293395	-2.179510	1
H	1.442267	1.586015	0.493520	1
H	-0.205403	2.040565	-0.000910	1
Es	0.236150	-0.631113	0.420889	99
Es	0.944014	-1.089515	-1.915100	99
Es	-0.028266	-0.005215	0.795274	99
Es	0.806123	0.672709	-1.322633	99
Es	-0.801051	-0.001400	0.806963	99
Es	0.659356	0.981677	-0.659322	99
Es	1.148938	1.465636	0.342978	99
Es	1.113692	0.002475	-1.273907	99
Es	0.242499	0.622823	0.429273	99
Es	0.005128	-1.779218	-0.010188	99
Es	-1.813498	-0.607333	1.192064	99
Es	0.483813	0.006683	-1.422975	99
Es	0.649374	-0.979806	-0.671434	99
Es	-1.559222	0.002685	0.837603	99
Es	0.799092	-0.663929	-1.329796	99
Es	0.515555	1.218233	0.039282	99
Es	0.222344	-0.011132	1.507751	99
Es	0.955630	1.104171	-1.901838	99
Es	0.023026	1.778873	0.012974	99
Es	0.503275	-1.224133	0.023053	99
Es	-1.806374	0.607478	1.205660	99
Es	-1.851028	0.012156	0.151183	99
Es	1.133868	-1.481672	0.323632	99
39
Properties=species:S:1:pos:R:3:Z:I:1 energy=-233.09144520034334 field_type=dipole dipole="0.000000 0.000000 0.000000" charge=0
C	-1.559233	0.002685	0.837600	6
C	-0.028243	-0.005215	0.795310	6
C	0.503267	-1.224155	0.023080	6
C	0.799097	-0.663805	-1.329810	6
C	0.806127	0.672585	-1.322650	6
C	0.515547	1.218255	0.039310	6
H	-1.924393	0.883405	1.376250	1
H	-1.934333	-0.886045	1.355920	1
H	-1.994243	0.016775	-0.167340	1
H	0.338027	-0.013735	1.828920	1
H	-0.226003	-2.038365	-0.026970	1
H	1.425797	-1.606895	0.472950	1
H	1.014007	-1.275465	-2.195670	1
H	1.027717	1.293395	-2.179510	1
H	1.442267	1.586015	0.493520	1
H	-0.205403	2.040565	-0.000910	1
Es	-1.851006	0.012228	0.151176	99
Es	1.148932	1.465649	0.342935	99
Es	0.005170	-1.779237	-0.010219	99
Es	0.955651	1.104107	-1.901857	99
Es	-0.800976	-0.001246	0.807056	99
Es	-0.028266	-0.005215	0.795274	99
Es	0.503275	-1.224133	0.023053	99
Es	1.133871	-1.481672	0.323587	99
Es	-1.813404	-0.607410	1.191898	99
Es	0.222309	-0.011126	1.507713	99
Es	-1.806564	0.607310	1.205752	99
Es	-1.559222	0.002685	0.837603	99
Es	0.483853	0.006684	-1.422986	99
Es	0.944045	-1.089404	-1.915103	99
Es	0.515555	1.218233	0.039282	99
Es	0.236157	-0.631142	0.420954	99
Es	0.242481	0.622821	0.429322	99
Es	0.799092	-0.663929	-1.329796	99
Es	0.023057	1.778870	0.012970	99
Es	0.649343	-0.979888	-0.671401	99
Es	0.659343	0.981760	-0.659288	99
Es	0.806123	0.672709	-1.322633	99
Es	1.113618	0.002478	-1.273907	99
39
Properties=species:S:1:pos:R:3:Z:I:1 energy=-233.09144520034334 field_type=dipole dipole="0.000000 0.000000 0.000000" charge=0
C	-1.559233	0.002685	0.837600	6
C	-0.028243	-0.005215	0.795310	6
C	0.503267	-1.224155	0.023080	6
C	0.799097	-0.663805	-1.329810	6
C	0.806127	0.672585	-1.322650	6
C	0.515547	1.218255	0.039310	6
H	-1.924393	0.883405	1.376250	1
H	-1.934333	-0.886045	1.355920	1
H	-1.994243	0.016775	-0.167340	1
H	0.338027	-0.013735	1.828920	1
H	-0.226003	-2.038365	-0.026970	1
H	1.425797	-1.606895	0.472950	1
H	1.014007	-1.275465	-2.195670	1
H	1.027717	1.293395	-2.179510	1
H	1.442267	1.586015	0.493520	1
H	-0.205403	2.040565	-0.000910	1
Es	-1.559222	0.002685	0.837603	99
Es	-0.800964	-0.001233	0.807082	99
Es	0.242484	0.622812	0.429354	99
Es	-0.028265	-0.005215	0.795275	99
Es	-1.813410	-0.607413	1.191877	99
Es	0.222290	-0.011121	1.507655	99
Es	0.806123	0.672708	-1.322633	99
Es	-1.806588	0.607294	1.205750	99
Es	0.503275	-1.224133	0.023053	99
Es	1.148920	1.465666	0.342915	99
Es	1.133862	-1.481686	0.323566	99
Es	0.236155	-0.631132	0.420989	99
Es	0.649326	-0.979929	-0.671353	99
Es	0.799092	-0.663928	-1.329796	99
Es	0.955641	1.104075	-1.901893	99
Es	-1.851010	0.012233	0.151201	99
Es	0.483995	0.006679	-1.422959	99
Es	0.515555	1.218233	0.039282	99
Es	1.113517	0.002481	-1.273943	99
Es	0.005202	-1.779230	-0.010228	99
Es	0.023087	1.778862	0.012961	99
Es	0.659332	0.981797	-0.659240	99
Es	0.944041	-1.089372	-1.915133	99
39
Properties=species:S:1:pos:R:3:Z:I:1 energy=-233.09144520034334 field_type=dipole dipole="0.000000 0.000000 0.000000" charge=0
C	-1.559233	0.002685	0.837600	6
C	-0.028243	-0.005215	0.795310	6
C	0.503267	-1.224155	0.023080	6
C	0.799097	-0.663805	-1.329810	6
C	0.806127	0.672585	-1.322650	6
C	0.515547	1.218255	0.039310	6
H	-1.924393	0.883405	1.376250	1
H	-1.934333	-0.886045	1.355920	1
H	-1.994243	0.016775	-0.167340	1
H	0.338027	-0.013735	1.828920	1
H	-0.226003	-2.038365	-0.026970	1
H	1.425797	-1.606895	0.472950	1
H	1.014007	-1.275465	-2.195670	1
H	1.027717	1.293395	-2.179510	1
H	1.442267	1.586015	0.493520	1
H	-0.205403	2.040565	-0.000910	1
Es	1.133866	-1.481656	0.323480	99
Es	-1.851010	0.012279	0.151198	99
Es	0.484445	0.006655	-1.422925	99
Es	1.148867	1.465692	0.342863	99
Es	-1.806584	0.607260	1.205772	99
Es	1.113518	0.002486	-1.273966	99
Es	0.799104	-0.663915	-1.329792	99
Es	-1.813437	-0.607410	1.191836	99
Es	0.023050	1.778856	0.012999	99
Es	0.005231	-1.779294	-0.010270	99
Es	0.222298	-0.011154	1.507621	99
Es	0.806119	0.672709	-1.322633	99
Es	0.515556	1.218233	0.039282	99
Es	0.503276	-1.224136	0.023051	99
Es	0.236117	-0.631131	0.421025	99
Es	0.955558	1.104020	-1.901990	99
Es	-0.800947	-0.001217	0.807137	99
Es	0.242570	0.622750	0.429404	99
Es	0.943923	-1.089322	-1.915172	99
Es	0.649165	-0.979920	-0.671228	99
Es	0.659245	0.981877	-0.659186	99
Es	-0.028264	-0.005214	0.795275	99
Es	-1.559224	0.002683	0.837604	99
