34
Properties=species:S:1:pos:R:3:Z:I:1 energy=-263.93116923044835 field_type=dipole dipole="0.000000 0.000000 0.000000" charge=0
N	-1.976724	-0.024790	-0.029131	7
C	-0.639774	0.063300	-0.012881	6
C	0.194736	1.155880	-0.004131	6
C	1.526906	0.671820	0.009839	6
C	1.463066	-0.704160	0.008959	6
N	0.138896	-1.062160	-0.005031	7
H	-2.559534	0.807560	0.003349	1
H	-2.491474	-0.897990	0.014969	1
H	-0.115634	2.191540	-0.008421	1
H	2.432526	1.263750	0.018379	1
H	2.239626	-1.456900	0.015809	1
H	-0.212614	-2.007850	-0.011711	1
Es	-0.117666	0.684878	0.301947	99
Es	0.145675	-0.915117	0.163543	99
Es	-0.639924	0.063030	-0.012897	99
Es	0.138895	-1.062021	-0.005540	99
Es	-1.976430	-0.024777	-0.028101	99
Es	-2.266557	-0.550281	0.030961	99
Es	0.702875	-0.950829	-0.056492	99
Es	1.499865	-0.026432	0.330559	99
Es	-0.020447	1.861652	-0.006921	99
Es	-1.414233	0.004871	0.074334	99
Es	-0.222003	-0.614827	-0.104814	99
Es	0.194698	1.155887	-0.004111	99
Es	1.509513	-0.028288	-0.307494	99
Es	1.526931	0.671852	0.009852	99
Es	-1.894927	-0.024372	-0.213328	99
Es	0.878274	0.966792	0.000151	99
Es	2.137735	1.078341	0.015646	99
Es	-2.313277	0.470398	0.020842	99
Es	1.462894	-0.704325	0.008956	99
Es	-0.124220	0.682678	-0.312459	99
Es	1.981907	-1.222111	0.013434	99
Es	-0.074968	-1.625428	-0.026820	99
34
Properties=species:S:1:pos:R:3:Z:I:1 energy=-263.93116923044835 field_type=dipole dipole="0.000000 0.000000 0.000000" charge=0
N	-1.976724	-0.024790	-0.029131	7
C	-0.639774	0.063300	-0.012881	6
C	0.194736	1.155880	-0.004131	6
C	1.526906	0.671820	0.009839	6
C	1.463066	-0.704160	0.008959	6
N	0.138896	-1.062160	-0.005031	7
H	-2.559534	0.807560	0.003349	1
H	-2.491474	-0.897990	0.014969	1
H	-0.115634	2.191540	-0.008421	1
H	2.432526	1.263750	0.018379	1
H	2.239626	-1.456900	0.015809	1
H	-0.212614	-2.007850	-0.011711	1
Es	1.526931	0.671849	0.009834	99
Es	1.509835	-0.028051	-0.307020	99
Es	2.137691	1.078324	0.015562	99
Es	0.701777	-0.950832	-0.060176	99
Es	1.981982	-1.222091	0.013326	99
Es	-0.222841	-0.614368	-0.102620	99
Es	0.878186	0.966780	-0.000745	99
Es	0.194700	1.155890	-0.004144	99
Es	-1.893016	-0.023657	-0.220855	99
Es	-2.312812	0.469613	0.023054	99
Es	-0.116822	0.684981	0.302241	99
Es	0.148122	-0.915762	0.164369	99
Es	-0.020433	1.861691	-0.006935	99
Es	-0.639924	0.063032	-0.012880	99
Es	1.462896	-0.704319	0.008947	99
Es	1.499512	-0.026258	0.330792	99
Es	-0.075106	-1.625473	-0.026316	99
Es	-1.417095	0.004741	0.079110	99
Es	0.138900	-1.061984	-0.005597	99
Es	-0.125297	0.682231	-0.312129	99
Es	-2.266579	-0.550011	0.031144	99
Es	-1.975993	-0.024760	-0.027713	99
34
Properties=species:S:1:pos:R:3:Z:I:1 energy=-263.93116923044835 field_type=dipole dipole="0.000000 0.000000 0.000000" charge=0
N	-1.976724	-0.024790	-0.029131	7
C	-0.639774	0.063300	-0.012881	6
C	0.194736	1.155880	-0.004131	6
C	1.526906	0.671820	0.009839	6
C	1.463066	-0.704160	0.008959	6
N	0.138896	-1.062160	-0.005031	7
H	-2.559534	0.807560	0.003349	1
H	-2.491474	-0.897990	0.014969	1
H	-0.115634	2.191540	-0.008421	1
H	2.432526	1.263750	0.018379	1
H	2.239626	-1.456900	0.015809	1
H	-0.212614	-2.007850	-0.011711	1
Es	-2.312473	0.469494	0.024347	99
Es	-2.265898	-0.549262	0.034417	99
Es	2.137810	1.078308	0.015832	99
Es	0.138915	-1.061745	-0.004193	99
Es	-1.415513	0.004921	0.076076	99
Es	1.526932	0.671852	0.009839	99
Es	0.878263	0.966860	0.004391	99
Es	-0.020533	1.861670	-0.006424	99
Es	1.982030	-1.222069	0.013861	99
Es	1.503038	-0.028426	0.326795	99
Es	0.701399	-0.951164	0.058650	99
Es	-0.223189	-0.615337	0.089201	99
Es	-0.075354	-1.625516	0.009339	99
Es	-1.976251	-0.024774	-0.027900	99
Es	0.148700	-0.914601	-0.173999	99
Es	-0.125870	0.683395	0.298016	99
Es	0.194699	1.155888	-0.004129	99
Es	1.506248	-0.025992	-0.310940	99
Es	-0.639919	0.063038	-0.012884	99
Es	-0.115951	0.683847	-0.315989	99
Es	1.462895	-0.704319	0.008958	99
Es	-1.895366	-0.024497	-0.222013	99
34
Properties=species:S:1:pos:R:3:Z:I:1 energy=-263.93116923044835 field_type=dipole dipole="0.000000 0.000000 0.000000" charge=0
N	-1.976724	-0.024790	-0.029131	7
C	-0.639774	0.063300	-0.012881	6
C	0.194736	1.155880	-0.004131	6
C	1.526906	0.671820	0.009839	6
C	1.463066	-0.704160	0.008959	6
N	0.138896	-1.062160	-0.005031	7
H	-2.559534	0.807560	0.003349	1
H	-2.491474	-0.897990	0.014969	1
H	-0.115634	2.191540	-0.008421	1
H	2.432526	1.263750	0.018379	1
H	2.239626	-1.456900	0.015809	1
H	-0.212614	-2.007850	-0.011711	1
Es	0.144994	-0.912624	0.175012	99
Es	1.499372	-0.026269	0.330544	99
Es	-0.074785	-1.625167	-0.027031	99
Es	-0.219435	-0.617256	-0.111448	99
Es	1.982115	-1.222061	0.013438	99
Es	-2.312438	0.468884	0.024889	99
Es	1.462895	-0.704318	0.008957	99
Es	-0.126802	0.681677	-0.311604	99
Es	-2.265956	-0.548693	0.034750	99
Es	1.526932	0.671851	0.009839	99
Es	-1.889471	-0.024064	-0.232572	99
Es	2.137889	1.078271	0.015640	99
Es	-0.114978	0.685435	0.302616	99
Es	1.509693	-0.028118	-0.306702	99
Es	-1.976323	-0.024774	-0.028010	99
Es	-1.421405	0.004662	0.085753	99
Es	-0.020453	1.861638	-0.007057	99
Es	0.138908	-1.061923	-0.005654	99
Es	0.878134	0.966915	-0.001515	99
Es	0.194699	1.155887	-0.004141	99
Es	-0.639921	0.063031	-0.012887	99
Es	0.700948	-0.951414	-0.061565	99
34
Properties=species:S:1:pos:R:3:Z:I:1 energy=-263.93116923044835 field_type=dipole dipole="0.000000 0.000000 0.000000" charge=0
N	-1.976724	-0.024790	-0.029131	7
C	-0.639774	0.063300	-0.012881	6
C	0.194736	1.155880	-0.004131	6
C	1.526906	0.671820	0.009839	6
C	1.463066	-0.704160	0.008959	6
N	0.138896	-1.062160	-0.005031	7
H	-2.559534	0.807560	0.003349	1
H	-2.491474	-0.897990	0.014969	1
H	-0.115634	2.191540	-0.008421	1
H	2.432526	1.263750	0.018379	1
H	2.239626	-1.456900	0.015809	1
H	-0.212614	-2.007850	-0.011711	1
Es	-1.422399	0.004786	0.087155	99
Es	1.982228	-1.222062	0.013903	99
Es	-0.221775	-0.616998	0.093147	99
Es	-2.312001	0.468355	0.026627	99
Es	1.503084	-0.028405	0.326122	99
Es	-0.639920	0.063034	-0.012885	99
Es	-1.976384	-0.024780	-0.027974	99
Es	1.462894	-0.704320	0.008949	99
Es	0.878019	0.966856	0.005553	99
Es	0.138895	-1.061992	-0.004474	99
Es	0.194698	1.155887	-0.004126	99
Es	0.148853	-0.912834	-0.182210	99
Es	-0.127427	0.682851	0.297394	99
Es	-2.265440	-0.547858	0.037240	99
Es	2.137901	1.078348	0.015961	99
Es	-0.020543	1.861664	-0.006497	99
Es	0.699763	-0.951415	0.062941	99
Es	-1.889367	-0.024452	-0.238064	99
Es	-0.075227	-1.625257	0.009900	99
Es	-0.114215	0.684131	-0.316467	99
Es	1.526932	0.671851	0.009838	99
Es	1.506044	-0.025821	-0.310782	99
34
Properties=species:S:1:pos:R:3:Z:I:1 energy=-263.93116923044835 field_type=dipole dipole="0.000000 0.000000 0.000000" charge=0
N	-1.976724	-0.024790	-0.029131	7
C	-0.639774	0.063300	-0.012881	6
C	0.194736	1.155880	-0.004131	6
C	1.526906	0.671820	0.009839	6
C	1.463066	-0.704160	0.008959	6
N	0.138896	-1.062160	-0.005031	7
H	-2.559534	0.807560	0.003349	1
H	-2.491474	-0.897990	0.014969	1
H	-0.115634	2.191540	-0.008421	1
H	2.432526	1.263750	0.018379	1
H	2.239626	-1.456900	0.015809	1
H	-0.212614	-2.007850	-0.011711	1
Es	1.526931	0.671850	0.009839	99
Es	1.509459	-0.027943	-0.306430	99
Es	-0.219548	-0.617541	-0.111277	99
Es	-0.020582	1.861655	-0.007192	99
Es	-0.126012	0.681409	-0.311839	99
Es	0.194698	1.155886	-0.004139	99
Es	-0.115820	0.685456	0.302643	99
Es	-2.315641	0.475203	0.000802	99
Es	1.982295	-1.222025	0.013422	99
Es	-1.927305	-0.024121	-0.083898	99
Es	1.462895	-0.704315	0.008960	99
Es	1.499434	-0.026117	0.330161	99
Es	0.146064	-0.912693	0.177174	99
Es	2.137969	1.078257	0.015709	99
Es	-2.268698	-0.556050	0.008895	99
Es	0.700089	-0.951436	-0.063895	99
Es	0.878019	0.967031	-0.000806	99
Es	-0.639918	0.063035	-0.012882	99
Es	-1.392401	0.005750	0.010673	99
Es	0.138887	-1.062038	-0.005435	99
Es	-1.961420	-0.024656	-0.051979	99
Es	-0.074783	-1.625028	-0.027254	99
34
Properties=species:S:1:pos:R:3:Z:I:1 energy=-263.93116923044835 field_type=dipole dipole="0.000000 0.000000 0.000000" charge=0
N	-1.976724	-0.024790	-0.029131	7
C	-0.639774	0.063300	-0.012881	6
C	0.194736	1.155880	-0.004131	6
C	1.526906	0.671820	0.009839	6
C	1.463066	-0.704160	0.008959	6
N	0.138896	-1.062160	-0.005031	7
H	-2.559534	0.807560	0.003349	1
H	-2.491474	-0.897990	0.014969	1
H	-0.115634	2.191540	-0.008421	1
H	2.432526	1.263750	0.018379	1
H	2.239626	-1.456900	0.015809	1
H	-0.212614	-2.007850	-0.011711	1
Es	0.877883	0.967137	0.005415	99
Es	1.526931	0.671852	0.009840	99
Es	0.149775	-0.911776	-0.188643	99
Es	0.194698	1.155887	-0.004146	99
Es	1.982327	-1.221994	0.013887	99
Es	-0.113262	0.684223	-0.316611	99
Es	-1.396695	0.005696	0.029945	99
Es	-0.220893	-0.618362	0.095554	99
Es	-0.020577	1.861628	-0.006411	99
Es	2.137999	1.078195	0.016034	99
Es	0.698171	-0.951755	0.067011	99
Es	-0.128496	0.682493	0.297749	99
Es	1.503137	-0.028262	0.325781	99
Es	0.138896	-1.061917	-0.004389	99
Es	-0.075250	-1.625020	0.010090	99
Es	1.462896	-0.704316	0.008961	99
Es	-2.268261	-0.554771	0.015689	99
Es	-2.314920	0.474084	0.007466	99
Es	-1.919442	-0.024126	-0.121572	99
Es	-1.966191	-0.024719	-0.046847	99
Es	1.505807	-0.025640	-0.310669	99
Es	-0.639921	0.063034	-0.012885	99
34
Properties=species:S:1:pos:R:3:Z:I:1 energy=-263.93116923044835 field_type=dipole dipole="0.000000 0.000000 0.000000" charge=0
N	-1.976724	-0.024790	-0.029131	7
C	-0.639774	0.063300	-0.012881	6
C	0.194736	1.155880	-0.004131	6
C	1.526906	0.671820	0.009839	6
C	1.463066	-0.704160	0.008959	6
N	0.138896	-1.062160	-0.005031	7
H	-2.559534	0.807560	0.003349	1
H	-2.491474	-0.897990	0.014969	1
H	-0.115634	2.191540	-0.008421	1
H	2.432526	1.263750	0.018379	1
H	2.239626	-1.456900	0.015809	1
H	-0.212614	-2.007850	-0.011711	1
Es	0.877902	0.967125	0.005405	99
Es	-1.425452	0.004687	0.091431	99
Es	-0.112852	0.684613	-0.316595	99
Es	-0.220996	-0.618058	0.094901	99
Es	2.138117	1.078167	0.016057	99
Es	1.526928	0.671853	0.009843	99
Es	1.503014	-0.028295	0.325462	99
Es	0.697578	-0.951660	0.068686	99
Es	-1.887127	-0.024278	-0.245807	99
Es	1.505718	-0.025617	-0.310557	99
Es	-1.976614	-0.024785	-0.028534	99
Es	-2.265053	-0.546974	0.039111	99
Es	0.138899	-1.062010	-0.004527	99
Es	-0.020572	1.861623	-0.006213	99
Es	0.194696	1.155885	-0.004123	99
Es	-2.311476	0.467570	0.028859	99
Es	-0.128773	0.681970	0.297158	99
Es	-0.075197	-1.624906	0.010670	99
Es	1.462896	-0.704315	0.008965	99
Es	1.982429	-1.222005	0.013915	99
Es	0.150466	-0.912052	-0.189968	99
Es	-0.639919	0.063032	-0.012892	99
34
Properties=species:S:1:pos:R:3:Z:I:1 energy=-263.93116923044835 field_type=dipole dipole="0.000000 0.000000 0.000000" charge=0
N	-1.976724	-0.024790	-0.029131	7
C	-0.639774	0.063300	-0.012881	6
C	0.194736	1.155880	-0.004131	6
C	1.526906	0.671820	0.009839	6
C	1.463066	-0.704160	0.008959	6
N	0.138896	-1.062160	-0.005031	7
H	-2.559534	0.807560	0.003349	1
H	-2.491474	-0.897990	0.014969	1
H	-0.115634	2.191540	-0.008421	1
H	2.432526	1.263750	0.018379	1
H	2.239626	-1.456900	0.015809	1
H	-0.212614	-2.007850	-0.011711	1
Es	-2.268711	-0.556303	0.007520	99
Es	-1.937839	-0.024443	-0.088941	99
Es	1.526930	0.671850	0.009842	99
Es	1.502976	-0.028277	0.325481	99
Es	-0.639920	0.063033	-0.012892	99
Es	-0.112750	0.684305	-0.316504	99
Es	0.194697	1.155885	-0.004130	99
Es	2.138142	1.078186	0.015978	99
Es	-0.075107	-1.624716	0.011321	99
Es	-2.315655	0.475443	-0.000886	99
Es	-0.020645	1.861603	-0.006406	99
Es	-1.391406	0.005956	0.001982	99
Es	1.462896	-0.704316	0.008957	99
Es	-0.221386	-0.618063	0.094426	99
Es	0.138909	-1.061780	-0.004260	99
Es	0.877863	0.967210	0.005391	99
Es	0.150143	-0.912763	-0.189067	99
Es	-0.128806	0.682368	0.297734	99
Es	1.982530	-1.221990	0.013767	99
Es	1.505633	-0.025625	-0.310269	99
Es	0.698014	-0.951688	0.067389	99
Es	-1.951894	-0.024304	-0.035181	99
34
Properties=species:S:1:pos:R:3:Z:I:1 energy=-263.93116923044835 field_type=dipole dipole="0.000000 0.000000 0.000000" charge=0
N	-1.976724	-0.024790	-0.029131	7
C	-0.639774	0.063300	-0.012881	6
C	0.194736	1.155880	-0.004131	6
C	1.526906	0.671820	0.009839	6
C	1.463066	-0.704160	0.008959	6
N	0.138896	-1.062160	-0.005031	7
H	-2.559534	0.807560	0.003349	1
H	-2.491474	-0.897990	0.014969	1
H	-0.115634	2.191540	-0.008421	1
H	2.432526	1.263750	0.018379	1
H	2.239626	-1.456900	0.015809	1
H	-0.212614	-2.007850	-0.011711	1
Es	-1.976046	-0.024764	-0.027924	99
Es	1.982571	-1.222005	0.013374	99
Es	-0.074470	-1.624778	-0.027839	99
Es	-1.885305	-0.023781	-0.249596	99
Es	0.138866	-1.062120	-0.005204	99
Es	1.526933	0.671845	0.009838	99
Es	-0.117230	0.684177	0.301919	99
Es	-2.265079	-0.546831	0.038861	99
Es	0.194698	1.155886	-0.004128	99
Es	0.140869	-0.908170	0.187639	99
Es	-2.311432	0.467209	0.029195	99
Es	0.877847	0.967308	-0.000588	99
Es	-0.639920	0.063033	-0.012885	99
Es	0.699604	-0.951937	-0.063770	99
Es	-0.020671	1.861609	-0.006932	99
Es	1.462896	-0.704316	0.008962	99
Es	1.499241	-0.026225	0.329697	99
Es	1.509441	-0.028125	-0.305771	99
Es	2.138222	1.078088	0.015499	99
Es	-0.214659	-0.621519	-0.121957	99
Es	-0.123818	0.682383	-0.311735	99
Es	-1.427943	0.004601	0.094595	99
34
Properties=species:S:1:pos:R:3:Z:I:1 energy=-263.93116923044835 field_type=dipole dipole="0.000000 0.000000 0.000000" charge=0
N	-1.976724	-0.024790	-0.029131	7
C	-0.639774	0.063300	-0.012881	6
C	0.194736	1.155880	-0.004131	6
C	1.526906	0.671820	0.009839	6
C	1.463066	-0.704160	0.008959	6
N	0.138896	-1.062160	-0.005031	7
H	-2.559534	0.807560	0.003349	1
H	-2.491474	-0.897990	0.014969	1
H	-0.115634	2.191540	-0.008421	1
H	2.432526	1.263750	0.018379	1
H	2.239626	-1.456900	0.015809	1
H	-0.212614	-2.007850	-0.011711	1
Es	2.138255	1.078087	0.015745	99
Es	-0.122386	0.682981	0.300207	99
Es	-0.076683	-1.627898	-0.010775	99
Es	-0.120199	0.682494	-0.314592	99
Es	0.877862	0.967360	0.002285	99
Es	-2.264987	-0.546631	0.039115	99
Es	-1.975122	-0.024739	-0.027757	99
Es	1.526931	0.671849	0.009840	99
Es	-1.885663	-0.023940	-0.250402	99
Es	-0.020663	1.861589	-0.006685	99
Es	1.982648	-1.222202	0.013606	99
Es	1.500312	-0.025398	0.327574	99
Es	-2.311416	0.467155	0.029039	99
Es	1.462896	-0.704316	0.008957	99
Es	-1.428706	0.004503	0.095145	99
Es	0.152198	-0.965700	0.019381	99
Es	1.507096	-0.025250	-0.307765	99
Es	0.194697	1.155884	-0.004132	99
Es	0.143665	-1.030130	-0.012776	99
Es	-0.238113	-0.598877	-0.016815	99
Es	0.711913	-0.948285	-0.005059	99
Es	-0.639921	0.063033	-0.012884	99
34
Properties=species:S:1:pos:R:3:Z:I:1 energy=-263.93116923044835 field_type=dipole dipole="0.000000 0.000000 0.000000" charge=0
N	-1.976724	-0.024790	-0.029131	7
C	-0.639774	0.063300	-0.012881	6
C	0.194736	1.155880	-0.004131	6
C	1.526906	0.671820	0.009839	6
C	1.463066	-0.704160	0.008959	6
N	0.138896	-1.062160	-0.005031	7
H	-2.559534	0.807560	0.003349	1
H	-2.491474	-0.897990	0.014969	1
H	-0.115634	2.191540	-0.008421	1
H	2.432526	1.263750	0.018379	1
H	2.239626	-1.456900	0.015809	1
H	-0.212614	-2.007850	-0.011711	1
Es	0.877777	0.967400	-0.000702	99
Es	1.526925	0.671846	0.009849	99
Es	-1.393095	0.006048	0.012431	99
Es	0.194695	1.155881	-0.004138	99
Es	0.138909	-1.061880	-0.005675	99
Es	-2.315478	0.475095	0.001693	99
Es	-2.268474	-0.555831	0.010236	99
Es	-0.125120	0.681438	-0.311594	99
Es	1.982735	-1.221941	0.013316	99
Es	0.698445	-0.952008	-0.066924	99
Es	-0.116223	0.684937	0.302627	99
Es	-0.215477	-0.621235	-0.120229	99
Es	-1.937551	-0.024468	-0.099865	99
Es	1.509286	-0.027895	-0.305412	99
Es	-1.950997	-0.024275	-0.039863	99
Es	-0.074441	-1.624621	-0.028271	99
Es	1.499002	-0.026005	0.329498	99
Es	0.143065	-0.909305	0.189909	99
Es	-0.639923	0.063032	-0.012876	99
Es	1.462895	-0.704316	0.008954	99
Es	-0.020686	1.861611	-0.007197	99
Es	2.138343	1.078059	0.015485	99
34
Properties=species:S:1:pos:R:3:Z:I:1 energy=-263.93116923044835 field_type=dipole dipole="0.000000 0.000000 0.000000" charge=0
N	-1.976724	-0.024790	-0.029131	7
C	-0.639774	0.063300	-0.012881	6
C	0.194736	1.155880	-0.004131	6
C	1.526906	0.671820	0.009839	6
C	1.463066	-0.704160	0.008959	6
N	0.138896	-1.062160	-0.005031	7
H	-2.559534	0.807560	0.003349	1
H	-2.491474	-0.897990	0.014969	1
H	-0.115634	2.191540	-0.008421	1
H	2.432526	1.263750	0.018379	1
H	2.239626	-1.456900	0.015809	1
H	-0.212614	-2.007850	-0.011711	1
Es	-0.076695	-1.627878	-0.010745	99
Es	-1.939547	-0.024344	-0.092639	99
Es	-2.315600	0.475330	-0.000007	99
Es	0.711785	-0.948317	-0.007179	99
Es	-0.122251	0.683293	0.300888	99
Es	-1.392747	0.005888	0.010118	99
Es	0.877719	0.967463	0.001929	99
Es	-0.238085	-0.599264	-0.019793	99
Es	-0.639913	0.063030	-0.012879	99
Es	1.526931	0.671849	0.009841	99
Es	0.151177	-0.973986	0.022970	99
Es	1.982806	-1.222180	0.013585	99
Es	-2.268617	-0.556109	0.008854	99
Es	1.462894	-0.704318	0.008948	99
Es	2.138384	1.078022	0.015644	99
Es	-0.120425	0.682094	-0.314422	99
Es	0.194697	1.155884	-0.004127	99
Es	-0.020678	1.861578	-0.006764	99
Es	0.144875	-1.021988	-0.011441	99
Es	-1.949198	-0.024264	-0.041751	99
Es	1.507025	-0.025059	-0.307193	99
Es	1.500074	-0.025155	0.327414	99
34
Properties=species:S:1:pos:R:3:Z:I:1 energy=-263.93116923044835 field_type=dipole dipole="0.000000 0.000000 0.000000" charge=0
N	-1.976724	-0.024790	-0.029131	7
C	-0.639774	0.063300	-0.012881	6
C	0.194736	1.155880	-0.004131	6
C	1.526906	0.671820	0.009839	6
C	1.463066	-0.704160	0.008959	6
N	0.138896	-1.062160	-0.005031	7
H	-2.559534	0.807560	0.003349	1
H	-2.491474	-0.897990	0.014969	1
H	-0.115634	2.191540	-0.008421	1
H	2.432526	1.263750	0.018379	1
H	2.239626	-1.456900	0.015809	1
H	-0.212614	-2.007850	-0.011711	1
Es	-2.310572	0.465883	0.031971	99
Es	-0.020714	1.861582	-0.006751	99
Es	0.877755	0.967433	0.000187	99
Es	1.982881	-1.221876	0.013356	99
Es	0.138907	-1.061902	-0.005503	99
Es	-0.074362	-1.624364	-0.028494	99
Es	-2.264558	-0.545378	0.041753	99
Es	-0.122249	0.682703	-0.312029	99
Es	1.462896	-0.704315	0.008956	99
Es	1.509431	-0.027942	-0.304965	99
Es	-1.880639	-0.023550	-0.262461	99
Es	-1.433982	0.004401	0.102017	99
Es	0.696603	-0.952331	-0.071224	99
Es	0.143701	-0.908013	0.196169	99
Es	-0.119029	0.683392	0.301361	99
Es	1.526930	0.671848	0.009837	99
Es	-1.976188	-0.024768	-0.028012	99
Es	2.138426	1.078022	0.015441	99
Es	-0.214098	-0.622378	-0.122639	99
Es	0.194695	1.155881	-0.004134	99
Es	1.498701	-0.025791	0.329287	99
Es	-0.639920	0.063030	-0.012872	99
34
Properties=species:S:1:pos:R:3:Z:I:1 energy=-263.93116923044835 field_type=dipole dipole="0.000000 0.000000 0.000000" charge=0
N	-1.976724	-0.024790	-0.029131	7
C	-0.639774	0.063300	-0.012881	6
C	0.194736	1.155880	-0.004131	6
C	1.526906	0.671820	0.009839	6
C	1.463066	-0.704160	0.008959	6
N	0.138896	-1.062160	-0.005031	7
H	-2.559534	0.807560	0.003349	1
H	-2.491474	-0.897990	0.014969	1
H	-0.115634	2.191540	-0.008421	1
H	2.432526	1.263750	0.018379	1
H	2.239626	-1.456900	0.015809	1
H	-0.212614	-2.007850	-0.011711	1
Es	1.526931	0.671848	0.009843	99
Es	0.143215	-0.907583	0.198646	99
Es	-1.392239	0.006149	0.006646	99
Es	-2.315658	0.475440	-0.000110	99
Es	-1.939623	-0.024385	-0.090349	99
Es	-2.268580	-0.556246	0.007993	99
Es	-0.118874	0.683914	0.301778	99
Es	0.138924	-1.061791	-0.005720	99
Es	-0.020859	1.861575	-0.006880	99
Es	1.982898	-1.221872	0.013504	99
Es	-0.639919	0.063034	-0.012880	99
Es	2.138510	1.077954	0.015579	99
Es	-0.074449	-1.624274	-0.028863	99
Es	-0.122358	0.682063	-0.312232	99
Es	-0.213365	-0.623224	-0.123964	99
Es	0.194697	1.155884	-0.004141	99
Es	0.696317	-0.952456	-0.071640	99
Es	0.877748	0.967664	0.000875	99
Es	1.462896	-0.704314	0.008961	99
Es	1.508917	-0.027899	-0.305225	99
Es	-1.949554	-0.024214	-0.039563	99
Es	1.499039	-0.025695	0.328993	99
