39
Properties=species:S:1:pos:R:3:Z:I:1 energy=-233.0545727111277 field_type=dipole dipole="0.000000 0.000000 0.000000" charge=0
C	-2.527990	-1.322309	-0.070224	6
C	-1.571180	-0.503419	-0.526014	6
C	-0.605170	0.236151	0.355346	6
C	0.832280	-0.112329	0.093176	6
C	1.702560	0.782991	-0.752524	6
C	1.928130	0.701861	0.731786	6
H	-3.198080	-1.831239	-0.756214	1
H	-2.664970	-1.505329	0.991446	1
H	-1.471980	-0.348939	-1.598124	1
H	-0.820670	0.028811	1.410776	1
H	-0.769020	1.311581	0.212306	1
H	0.991260	-1.184529	0.039096	1
H	1.281670	1.699801	-1.149614	1
H	2.431970	0.314101	-1.402854	1
H	2.807680	0.174631	1.084576	1
H	1.653510	1.558171	1.337066	1
Es	1.335236	0.231703	0.586616	99
Es	-1.085568	-0.140896	-0.089897	99
Es	1.958282	0.865726	-0.024018	99
Es	1.734671	1.283497	1.140156	99
Es	0.947834	-0.839075	0.051964	99
Es	-2.624561	-1.449530	0.650785	99
Es	1.169043	0.282783	-0.496720	99
Es	1.409020	1.403742	-1.018284	99
Es	-2.987288	-1.671268	-0.530043	99
Es	1.928045	0.701819	0.731635	99
Es	-1.852784	-1.175951	-0.309045	99
Es	-0.714508	0.965557	0.250819	99
Es	-1.571085	-0.503341	-0.526038	99
Es	-2.528069	-1.322367	-0.070189	99
Es	0.110409	0.070559	0.210416	99
Es	-2.267715	-0.671157	-0.275880	99
Es	-0.605174	0.236127	0.355302	99
Es	1.702514	0.782924	-0.752365	99
Es	0.832389	-0.112183	0.093163	99
Es	-0.756343	0.088027	1.073572	99
Es	2.199567	0.463296	-1.191741	99
Es	-1.496186	-0.392863	-1.253897	99
Es	2.524924	0.341940	0.968229	99
39
Properties=species:S:1:pos:R:3:Z:I:1 energy=-233.0545727111277 field_type=dipole dipole="0.000000 0.000000 0.000000" charge=0
C	-2.527990	-1.322309	-0.070224	6
C	-1.571180	-0.503419	-0.526014	6
C	-0.605170	0.236151	0.355346	6
C	0.832280	-0.112329	0.093176	6
C	1.702560	0.782991	-0.752524	6
C	1.928130	0.701861	0.731786	6
H	-3.198080	-1.831239	-0.756214	1
H	-2.664970	-1.505329	0.991446	1
H	-1.471980	-0.348939	-1.598124	1
H	-0.820670	0.028811	1.410776	1
H	-0.769020	1.311581	0.212306	1
H	0.991260	-1.184529	0.039096	1
H	1.281670	1.699801	-1.149614	1
H	2.431970	0.314101	-1.402854	1
H	2.807680	0.174631	1.084576	1
H	1.653510	1.558171	1.337066	1
Es	-2.987337	-1.671164	-0.530154	99
Es	-2.267733	-0.671151	-0.275775	99
Es	1.335216	0.231589	0.587035	99
Es	-0.605173	0.236129	0.355303	99
Es	1.168850	0.282693	-0.496894	99
Es	0.832388	-0.112184	0.093166	99
Es	1.702520	0.782925	-0.752356	99
Es	-0.714573	0.965532	0.250756	99
Es	2.524841	0.342076	0.968186	99
Es	1.409135	1.403635	-1.018275	99
Es	-2.624500	-1.449692	0.650790	99
Es	-1.496170	-0.393063	-1.253886	99
Es	-0.756326	0.088171	1.073513	99
Es	2.199486	0.463356	-1.191732	99
Es	-1.571086	-0.503339	-0.526039	99
Es	-1.085496	-0.140968	-0.089862	99
Es	-2.528066	-1.322370	-0.070191	99
Es	0.110492	0.070481	0.210428	99
Es	1.928033	0.701811	0.731633	99
Es	0.947792	-0.838947	0.051921	99
Es	1.958428	0.865902	-0.024118	99
Es	-1.852892	-1.175749	-0.309016	99
Es	1.734824	1.283396	1.140106	99
39
Properties=species:S:1:pos:R:3:Z:I:1 energy=-233.0545727111277 field_type=dipole dipole="0.000000 0.000000 0.000000" charge=0
C	-2.527990	-1.322309	-0.070224	6
C	-1.571180	-0.503419	-0.526014	6
C	-0.605170	0.236151	0.355346	6
C	0.832280	-0.112329	0.093176	6
C	1.702560	0.782991	-0.752524	6
C	1.928130	0.701861	0.731786	6
H	-3.198080	-1.831239	-0.756214	1
H	-2.664970	-1.505329	0.991446	1
H	-1.471980	-0.348939	-1.598124	1
H	-0.820670	0.028811	1.410776	1
H	-0.769020	1.311581	0.212306	1
H	0.991260	-1.184529	0.039096	1
H	1.281670	1.699801	-1.149614	1
H	2.431970	0.314101	-1.402854	1
H	2.807680	0.174631	1.084576	1
H	1.653510	1.558171	1.337066	1
Es	-1.496220	-0.393053	-1.253895	99
Es	1.928043	0.701817	0.731633	99
Es	1.958708	0.866140	-0.023966	99
Es	0.110456	0.070447	0.210336	99
Es	-2.528066	-1.322372	-0.070189	99
Es	2.524748	0.342158	0.968209	99
Es	1.335132	0.231471	0.587112	99
Es	1.734852	1.283246	1.140111	99
Es	-2.987315	-1.671254	-0.530102	99
Es	-1.571086	-0.503340	-0.526039	99
Es	0.832383	-0.112187	0.093167	99
Es	0.947759	-0.838871	0.051914	99
Es	-0.756346	0.088064	1.073535	99
Es	-0.605174	0.236126	0.355303	99
Es	-2.624538	-1.449555	0.650799	99
Es	1.168829	0.282647	-0.497066	99
Es	1.702520	0.782929	-0.752367	99
Es	-2.267629	-0.671257	-0.275925	99
Es	-1.085477	-0.140813	-0.089818	99
Es	-0.714516	0.965526	0.250845	99
Es	2.199384	0.463427	-1.191727	99
Es	-1.852956	-1.175744	-0.309036	99
Es	1.409162	1.403516	-1.018296	99
39
Properties=species:S:1:pos:R:3:Z:I:1 energy=-233.0545727111277 field_type=dipole dipole="0.000000 0.000000 0.000000" charge=0
C	-2.527990	-1.322309	-0.070224	6
C	-1.571180	-0.503419	-0.526014	6
C	-0.605170	0.236151	0.355346	6
C	0.832280	-0.112329	0.093176	6
C	1.702560	0.782991	-0.752524	6
C	1.928130	0.701861	0.731786	6
H	-3.198080	-1.831239	-0.756214	1
H	-2.664970	-1.505329	0.991446	1
H	-1.471980	-0.348939	-1.598124	1
H	-0.820670	0.028811	1.410776	1
H	-0.769020	1.311581	0.212306	1
H	0.991260	-1.184529	0.039096	1
H	1.281670	1.699801	-1.149614	1
H	2.431970	0.314101	-1.402854	1
H	2.807680	0.174631	1.084576	1
H	1.653510	1.558171	1.337066	1
Es	1.958978	0.866239	-0.023888	99
Es	-0.714606	0.965514	0.250881	99
Es	1.168672	0.282463	-0.497344	99
Es	0.832388	-0.112185	0.093165	99
Es	1.702522	0.782928	-0.752360	99
Es	-1.853027	-1.175661	-0.309040	99
Es	1.409251	1.403483	-1.018317	99
Es	-2.267506	-0.671363	-0.275881	99
Es	-2.987359	-1.671232	-0.530101	99
Es	0.947666	-0.838800	0.051982	99
Es	1.734896	1.283173	1.140058	99
Es	1.928042	0.701816	0.731631	99
Es	2.199258	0.463504	-1.191668	99
Es	-0.756238	0.088054	1.073530	99
Es	-2.624507	-1.449535	0.650831	99
Es	-0.605174	0.236128	0.355303	99
Es	-1.085462	-0.140772	-0.089730	99
Es	-1.496330	-0.393105	-1.253953	99
Es	1.335129	0.231426	0.587205	99
Es	0.110554	0.070471	0.210201	99
Es	-1.571088	-0.503341	-0.526038	99
Es	2.524663	0.342236	0.968259	99
Es	-2.528066	-1.322372	-0.070189	99
39
Properties=species:S:1:pos:R:3:Z:I:1 energy=-233.0545727111277 field_type=dipole dipole="0.000000 0.000000 0.000000" charge=0
C	-2.527990	-1.322309	-0.070224	6
C	-1.571180	-0.503419	-0.526014	6
C	-0.605170	0.236151	0.355346	6
C	0.832280	-0.112329	0.093176	6
C	1.702560	0.782991	-0.752524	6
C	1.928130	0.701861	0.731786	6
H	-3.198080	-1.831239	-0.756214	1
H	-2.664970	-1.505329	0.991446	1
H	-1.471980	-0.348939	-1.598124	1
H	-0.820670	0.028811	1.410776	1
H	-0.769020	1.311581	0.212306	1
H	0.991260	-1.184529	0.039096	1
H	1.281670	1.699801	-1.149614	1
H	2.431970	0.314101	-1.402854	1
H	2.807680	0.174631	1.084576	1
H	1.653510	1.558171	1.337066	1
Es	2.199254	0.463629	-1.191615	99
Es	-2.267566	-0.671389	-0.275886	99
Es	-1.496295	-0.393106	-1.253969	99
Es	2.524561	0.342331	0.968253	99
Es	1.734947	1.283066	1.140064	99
Es	1.335007	0.231232	0.587366	99
Es	-1.085376	-0.140787	-0.089711	99
Es	-2.528062	-1.322371	-0.070190	99
Es	0.947647	-0.838678	0.051867	99
Es	-1.853061	-1.175520	-0.309053	99
Es	-2.624490	-1.449561	0.650796	99
Es	-0.756365	0.088066	1.073540	99
Es	1.409309	1.403371	-1.018319	99
Es	0.832384	-0.112186	0.093157	99
Es	-2.987341	-1.671279	-0.530123	99
Es	-0.605174	0.236128	0.355304	99
Es	0.110550	0.070381	0.210176	99
Es	-1.571091	-0.503342	-0.526036	99
Es	1.702520	0.782925	-0.752354	99
Es	1.928042	0.701816	0.731628	99
Es	1.168619	0.282390	-0.497483	99
Es	-0.714568	0.965483	0.250854	99
Es	1.959204	0.866468	-0.023726	99
39
Properties=species:S:1:pos:R:3:Z:I:1 energy=-233.0545727111277 field_type=dipole dipole="0.000000 0.000000 0.000000" charge=0
C	-2.527990	-1.322309	-0.070224	6
C	-1.571180	-0.503419	-0.526014	6
C	-0.605170	0.236151	0.355346	6
C	0.832280	-0.112329	0.093176	6
C	1.702560	0.782991	-0.752524	6
C	1.928130	0.701861	0.731786	6
H	-3.198080	-1.831239	-0.756214	1
H	-2.664970	-1.505329	0.991446	1
H	-1.471980	-0.348939	-1.598124	1
H	-0.820670	0.028811	1.410776	1
H	-0.769020	1.311581	0.212306	1
H	0.991260	-1.184529	0.039096	1
H	1.281670	1.699801	-1.149614	1
H	2.431970	0.314101	-1.402854	1
H	2.807680	0.174631	1.084576	1
H	1.653510	1.558171	1.337066	1
Es	1.702521	0.782927	-0.752358	99
Es	2.199113	0.463691	-1.191643	99
Es	-2.267542	-0.671427	-0.275929	99
Es	-2.624443	-1.449608	0.650845	99
Es	1.168525	0.282387	-0.497558	99
Es	0.832402	-0.112175	0.093163	99
Es	1.928042	0.701816	0.731628	99
Es	2.524529	0.342450	0.968229	99
Es	-0.605175	0.236128	0.355304	99
Es	1.959362	0.866670	-0.023962	99
Es	-2.528054	-1.322362	-0.070193	99
Es	-1.496309	-0.393203	-1.254001	99
Es	0.110631	0.070235	0.210248	99
Es	-1.853211	-1.175372	-0.309070	99
Es	-1.571088	-0.503341	-0.526038	99
Es	-0.714611	0.965514	0.250812	99
Es	-2.987315	-1.671285	-0.530123	99
Es	0.947666	-0.838631	0.051893	99
Es	1.334948	0.231130	0.587687	99
Es	1.409300	1.403210	-1.018343	99
Es	-1.085311	-0.140773	-0.089571	99
Es	-0.756357	0.088097	1.073511	99
Es	1.735028	1.282989	1.140007	99
39
Properties=species:S:1:pos:R:3:Z:I:1 energy=-233.0545727111277 field_type=dipole dipole="0.000000 0.000000 0.000000" charge=0
C	-2.527990	-1.322309	-0.070224	6
C	-1.571180	-0.503419	-0.526014	6
C	-0.605170	0.236151	0.355346	6
C	0.832280	-0.112329	0.093176	6
C	1.702560	0.782991	-0.752524	6
C	1.928130	0.701861	0.731786	6
H	-3.198080	-1.831239	-0.756214	1
H	-2.664970	-1.505329	0.991446	1
H	-1.471980	-0.348939	-1.598124	1
H	-0.820670	0.028811	1.410776	1
H	-0.769020	1.311581	0.212306	1
H	0.991260	-1.184529	0.039096	1
H	1.281670	1.699801	-1.149614	1
H	2.431970	0.314101	-1.402854	1
H	2.807680	0.174631	1.084576	1
H	1.653510	1.558171	1.337066	1
Es	-2.267408	-0.671553	-0.275948	99
Es	-0.605175	0.236128	0.355304	99
Es	-2.528065	-1.322380	-0.070187	99
Es	-1.571088	-0.503341	-0.526038	99
Es	2.199048	0.463762	-1.191615	99
Es	-0.714586	0.965484	0.250820	99
Es	0.947586	-0.838500	0.051900	99
Es	2.524448	0.342537	0.968220	99
Es	0.110638	0.070221	0.210234	99
Es	-0.756357	0.088139	1.073506	99
Es	0.832392	-0.112182	0.093165	99
Es	-1.496366	-0.393182	-1.254028	99
Es	-1.853232	-1.175349	-0.309079	99
Es	-2.987340	-1.671267	-0.530125	99
Es	1.959536	0.866825	-0.023991	99
Es	1.334926	0.230995	0.587901	99
Es	1.409365	1.403138	-1.018345	99
Es	1.168471	0.282258	-0.497708	99
Es	1.702522	0.782928	-0.752359	99
Es	1.735107	1.282901	1.139979	99
Es	-2.624465	-1.449562	0.650847	99
Es	1.928041	0.701816	0.731628	99
Es	-1.085344	-0.140747	-0.089544	99
39
Properties=species:S:1:pos:R:3:Z:I:1 energy=-233.0545727111277 field_type=dipole dipole="0.000000 0.000000 0.000000" charge=0
C	-2.527990	-1.322309	-0.070224	6
C	-1.571180	-0.503419	-0.526014	6
C	-0.605170	0.236151	0.355346	6
C	0.832280	-0.112329	0.093176	6
C	1.702560	0.782991	-0.752524	6
C	1.928130	0.701861	0.731786	6
H	-3.198080	-1.831239	-0.756214	1
H	-2.664970	-1.505329	0.991446	1
H	-1.471980	-0.348939	-1.598124	1
H	-0.820670	0.028811	1.410776	1
H	-0.769020	1.311581	0.212306	1
H	0.991260	-1.184529	0.039096	1
H	1.281670	1.699801	-1.149614	1
H	2.431970	0.314101	-1.402854	1
H	2.807680	0.174631	1.084576	1
H	1.653510	1.558171	1.337066	1
Es	-0.756360	0.088152	1.073499	99
Es	2.524385	0.342650	0.968218	99
Es	-2.987396	-1.671260	-0.530161	99
Es	1.168339	0.282141	-0.497890	99
Es	0.832394	-0.112181	0.093164	99
Es	1.409442	1.403037	-1.018339	99
Es	-1.571088	-0.503341	-0.526037	99
Es	1.702521	0.782926	-0.752356	99
Es	1.735181	1.282804	1.139927	99
Es	0.947545	-0.838402	0.051899	99
Es	-2.528065	-1.322371	-0.070189	99
Es	-0.714599	0.965472	0.250819	99
Es	-1.085322	-0.140731	-0.089484	99
Es	1.959731	0.867006	-0.023956	99
Es	-1.496388	-0.393208	-1.254049	99
Es	0.110680	0.070166	0.210199	99
Es	2.198987	0.463851	-1.191587	99
Es	-2.267305	-0.671664	-0.275955	99
Es	1.928041	0.701816	0.731627	99
Es	-1.853288	-1.175296	-0.309075	99
Es	-2.624462	-1.449509	0.650866	99
Es	-0.605175	0.236128	0.355305	99
Es	1.334856	0.230881	0.588094	99
39
Properties=species:S:1:pos:R:3:Z:I:1 energy=-233.0545727111277 field_type=dipole dipole="0.000000 0.000000 0.000000" charge=0
C	-2.527990	-1.322309	-0.070224	6
C	-1.571180	-0.503419	-0.526014	6
C	-0.605170	0.236151	0.355346	6
C	0.832280	-0.112329	0.093176	6
C	1.702560	0.782991	-0.752524	6
C	1.928130	0.701861	0.731786	6
H	-3.198080	-1.831239	-0.756214	1
H	-2.664970	-1.505329	0.991446	1
H	-1.471980	-0.348939	-1.598124	1
H	-0.820670	0.028811	1.410776	1
H	-0.769020	1.311581	0.212306	1
H	0.991260	-1.184529	0.039096	1
H	1.281670	1.699801	-1.149614	1
H	2.431970	0.314101	-1.402854	1
H	2.807680	0.174631	1.084576	1
H	1.653510	1.558171	1.337066	1
Es	1.928040	0.701815	0.731632	99
Es	0.832391	-0.112183	0.093162	99
Es	-2.624465	-1.449548	0.650862	99
Es	1.334836	0.230804	0.588030	99
Es	-1.496436	-0.393226	-1.254088	99
Es	2.524286	0.342689	0.968238	99
Es	-1.853323	-1.175240	-0.309091	99
Es	-0.756380	0.088157	1.073486	99
Es	1.735196	1.282700	1.139947	99
Es	-2.267267	-0.671711	-0.275982	99
Es	2.198885	0.463901	-1.191572	99
Es	1.168271	0.282023	-0.497899	99
Es	-2.987354	-1.671260	-0.530133	99
Es	-0.714608	0.965475	0.250815	99
Es	-2.528064	-1.322371	-0.070191	99
Es	1.960042	0.867262	-0.023940	99
Es	-1.085302	-0.140672	-0.089398	99
Es	1.702524	0.782927	-0.752352	99
Es	0.110669	0.070129	0.210214	99
Es	-0.605176	0.236128	0.355304	99
Es	1.409448	1.402943	-1.018369	99
Es	0.947537	-0.838341	0.051901	99
Es	-1.571097	-0.503334	-0.526036	99
39
Properties=species:S:1:pos:R:3:Z:I:1 energy=-233.0545727111277 field_type=dipole dipole="0.000000 0.000000 0.000000" charge=0
C	-2.527990	-1.322309	-0.070224	6
C	-1.571180	-0.503419	-0.526014	6
C	-0.605170	0.236151	0.355346	6
C	0.832280	-0.112329	0.093176	6
C	1.702560	0.782991	-0.752524	6
C	1.928130	0.701861	0.731786	6
H	-3.198080	-1.831239	-0.756214	1
H	-2.664970	-1.505329	0.991446	1
H	-1.471980	-0.348939	-1.598124	1
H	-0.820670	0.028811	1.410776	1
H	-0.769020	1.311581	0.212306	1
H	0.991260	-1.184529	0.039096	1
H	1.281670	1.699801	-1.149614	1
H	2.431970	0.314101	-1.402854	1
H	2.807680	0.174631	1.084576	1
H	1.653510	1.558171	1.337066	1
Es	-0.714594	0.965473	0.250820	99
Es	2.198797	0.463923	-1.191480	99
Es	-1.085290	-0.140653	-0.089342	99
Es	-0.756366	0.088160	1.073488	99
Es	1.334722	0.230742	0.588026	99
Es	1.409510	1.402893	-1.018455	99
Es	0.110723	0.070042	0.210157	99
Es	-1.853403	-1.175180	-0.309141	99
Es	1.960317	0.867455	-0.023736	99
Es	0.832392	-0.112183	0.093165	99
Es	2.524219	0.342734	0.968288	99
Es	1.702515	0.782922	-0.752341	99
Es	-1.496465	-0.393237	-1.254099	99
Es	-2.267188	-0.671794	-0.276000	99
Es	1.928038	0.701814	0.731627	99
Es	-0.605175	0.236129	0.355305	99
Es	0.947489	-0.838250	0.051949	99
Es	-2.528063	-1.322372	-0.070189	99
Es	-2.624441	-1.449554	0.650895	99
Es	1.168195	0.281963	-0.498147	99
Es	-2.987383	-1.671227	-0.530144	99
Es	1.735197	1.282611	1.139930	99
Es	-1.571089	-0.503342	-0.526037	99
