37
Properties=species:S:1:pos:R:3:Z:I:1 energy=-265.0263462242818 field_type=dipole dipole="0.000000 0.000000 0.000000" charge=0
N	-2.793689	-0.376509	-0.223938	7
N	-1.493409	-0.726099	-0.357828	7
C	-0.717889	-0.116119	0.476612	6
C	0.726041	-0.422339	0.419602	6
C	1.550171	0.045381	-0.755138	6
C	1.736521	0.686131	0.588412	6
H	-3.368059	-1.015339	-0.780448	1
H	-2.962049	0.544801	-0.636238	1
H	-1.068999	0.608271	1.233202	1
H	0.984321	-1.389699	0.839042	1
H	1.054391	0.614791	-1.533548	1
H	2.325221	-0.618719	-1.120238	1
H	2.645631	0.462791	1.135332	1
H	1.381801	1.702661	0.715172	1
Es	1.039734	-0.313749	-0.272783	99
Es	-1.189078	-0.648764	0.211516	99
Es	0.726127	-0.422200	0.419544	99
Es	0.895918	-1.069674	0.703992	99
Es	-2.870544	0.174154	-0.481448	99
Es	-2.878603	-0.378764	0.116282	99
Es	-0.717833	-0.116080	0.476597	99
Es	1.182226	0.149710	0.694489	99
Es	1.778928	0.481361	-0.152858	99
Es	-1.493628	-0.725676	-0.357427	99
Es	-1.394605	-0.989162	-0.605553	99
Es	2.077546	-0.405085	-0.997257	99
Es	0.009508	-0.250297	0.450565	99
Es	-2.793459	-0.376510	-0.224528	99
Es	1.485545	1.373257	0.674441	99
Es	-2.146888	-0.533166	-0.300082	99
Es	2.352767	0.532267	0.959293	99
Es	1.550125	0.045391	-0.754953	99
Es	-0.956285	0.380586	0.984130	99
Es	-3.132016	-0.757198	-0.575407	99
Es	-1.125431	-0.233324	-0.186696	99
Es	1.736427	0.686010	0.588310	99
Es	1.212222	0.434852	-1.275765	99
37
Properties=species:S:1:pos:R:3:Z:I:1 energy=-265.0263462242818 field_type=dipole dipole="0.000000 0.000000 0.000000" charge=0
N	-2.793689	-0.376509	-0.223938	7
N	-1.493409	-0.726099	-0.357828	7
C	-0.717889	-0.116119	0.476612	6
C	0.726041	-0.422339	0.419602	6
C	1.550171	0.045381	-0.755138	6
C	1.736521	0.686131	0.588412	6
H	-3.368059	-1.015339	-0.780448	1
H	-2.962049	0.544801	-0.636238	1
H	-1.068999	0.608271	1.233202	1
H	0.984321	-1.389699	0.839042	1
H	1.054391	0.614791	-1.533548	1
H	2.325221	-0.618719	-1.120238	1
H	2.645631	0.462791	1.135332	1
H	1.381801	1.702661	0.715172	1
Es	-2.870692	0.174211	-0.481319	99
Es	-3.131895	-0.757073	-0.575463	99
Es	0.009507	-0.250382	0.450479	99
Es	1.039834	-0.313853	-0.272820	99
Es	0.895885	-1.069561	0.703983	99
Es	1.550128	0.045392	-0.754954	99
Es	1.485609	1.373150	0.674624	99
Es	1.736432	0.686011	0.588312	99
Es	-1.125402	-0.233535	-0.186539	99
Es	-1.394824	-0.989032	-0.605819	99
Es	2.352738	0.532222	0.959238	99
Es	-0.956314	0.380602	0.984136	99
Es	-1.188972	-0.648997	0.211448	99
Es	1.212244	0.434791	-1.275761	99
Es	0.726144	-0.422189	0.419537	99
Es	-1.493613	-0.725681	-0.357429	99
Es	-2.793464	-0.376501	-0.224536	99
Es	1.779065	0.481602	-0.153036	99
Es	-0.717835	-0.116082	0.476596	99
Es	-2.146796	-0.532786	-0.300062	99
Es	1.182088	0.149641	0.694653	99
Es	2.077438	-0.405010	-0.997266	99
Es	-2.878603	-0.379004	0.116398	99
37
Properties=species:S:1:pos:R:3:Z:I:1 energy=-265.0263462242818 field_type=dipole dipole="0.000000 0.000000 0.000000" charge=0
N	-2.793689	-0.376509	-0.223938	7
N	-1.493409	-0.726099	-0.357828	7
C	-0.717889	-0.116119	0.476612	6
C	0.726041	-0.422339	0.419602	6
C	1.550171	0.045381	-0.755138	6
C	1.736521	0.686131	0.588412	6
H	-3.368059	-1.015339	-0.780448	1
H	-2.962049	0.544801	-0.636238	1
H	-1.068999	0.608271	1.233202	1
H	0.984321	-1.389699	0.839042	1
H	1.054391	0.614791	-1.533548	1
H	2.325221	-0.618719	-1.120238	1
H	2.645631	0.462791	1.135332	1
H	1.381801	1.702661	0.715172	1
Es	1.039580	-0.314064	-0.272957	99
Es	-1.125432	-0.233540	-0.186559	99
Es	0.009639	-0.250531	0.450575	99
Es	1.736431	0.686009	0.588309	99
Es	1.212355	0.434700	-1.275662	99
Es	1.550127	0.045390	-0.754956	99
Es	-2.793459	-0.376516	-0.224548	99
Es	0.726134	-0.422195	0.419542	99
Es	2.077344	-0.404921	-0.997331	99
Es	-2.146980	-0.533138	-0.300253	99
Es	2.352572	0.532281	0.959163	99
Es	1.182038	0.149747	0.694879	99
Es	-0.717834	-0.116080	0.476594	99
Es	-1.394591	-0.988827	-0.605537	99
Es	-2.870608	0.174158	-0.481233	99
Es	1.779315	0.481737	-0.153184	99
Es	-2.878594	-0.378890	0.116260	99
Es	-0.956334	0.380603	0.984098	99
Es	-1.493611	-0.725680	-0.357426	99
Es	-1.188963	-0.648882	0.211460	99
Es	0.895892	-1.069486	0.703989	99
Es	-3.132047	-0.757057	-0.575476	99
Es	1.485727	1.373119	0.674651	99
37
Properties=species:S:1:pos:R:3:Z:I:1 energy=-265.0263462242818 field_type=dipole dipole="0.000000 0.000000 0.000000" charge=0
N	-2.793689	-0.376509	-0.223938	7
N	-1.493409	-0.726099	-0.357828	7
C	-0.717889	-0.116119	0.476612	6
C	0.726041	-0.422339	0.419602	6
C	1.550171	0.045381	-0.755138	6
C	1.736521	0.686131	0.588412	6
H	-3.368059	-1.015339	-0.780448	1
H	-2.962049	0.544801	-0.636238	1
H	-1.068999	0.608271	1.233202	1
H	0.984321	-1.389699	0.839042	1
H	1.054391	0.614791	-1.533548	1
H	2.325221	-0.618719	-1.120238	1
H	2.645631	0.462791	1.135332	1
H	1.381801	1.702661	0.715172	1
Es	-1.125365	-0.233627	-0.186590	99
Es	-2.147056	-0.533197	-0.300223	99
Es	1.039472	-0.314249	-0.273021	99
Es	1.485716	1.372958	0.674694	99
Es	0.895802	-1.069365	0.704021	99
Es	-2.870764	0.174334	-0.481017	99
Es	-1.189003	-0.648580	0.211307	99
Es	2.077207	-0.404860	-0.997297	99
Es	1.779576	0.481946	-0.153439	99
Es	0.726132	-0.422197	0.419542	99
Es	-1.493630	-0.725694	-0.357445	99
Es	0.009780	-0.250608	0.450647	99
Es	-2.793459	-0.376514	-0.224547	99
Es	1.212424	0.434615	-1.275687	99
Es	-2.878442	-0.378953	0.115805	99
Es	-1.394407	-0.988903	-0.605246	99
Es	1.550124	0.045393	-0.754946	99
Es	-0.717834	-0.116082	0.476597	99
Es	1.736429	0.686008	0.588312	99
Es	-0.956379	0.380578	0.984092	99
Es	1.182006	0.149739	0.695041	99
Es	2.352532	0.532385	0.959186	99
Es	-3.132159	-0.757189	-0.575386	99
37
Properties=species:S:1:pos:R:3:Z:I:1 energy=-265.0263462242818 field_type=dipole dipole="0.000000 0.000000 0.000000" charge=0
N	-2.793689	-0.376509	-0.223938	7
N	-1.493409	-0.726099	-0.357828	7
C	-0.717889	-0.116119	0.476612	6
C	0.726041	-0.422339	0.419602	6
C	1.550171	0.045381	-0.755138	6
C	1.736521	0.686131	0.588412	6
H	-3.368059	-1.015339	-0.780448	1
H	-2.962049	0.544801	-0.636238	1
H	-1.068999	0.608271	1.233202	1
H	0.984321	-1.389699	0.839042	1
H	1.054391	0.614791	-1.533548	1
H	2.325221	-0.618719	-1.120238	1
H	2.645631	0.462791	1.135332	1
H	1.381801	1.702661	0.715172	1
Es	-0.956425	0.380571	0.984153	99
Es	1.485783	1.372878	0.674700	99
Es	-2.870788	0.174347	-0.481021	99
Es	-1.188929	-0.648573	0.211246	99
Es	-2.147110	-0.533393	-0.300306	99
Es	1.212489	0.434561	-1.275681	99
Es	-1.125310	-0.233641	-0.186664	99
Es	-3.132199	-0.757192	-0.575316	99
Es	1.182023	0.149722	0.695343	99
Es	-1.394440	-0.988741	-0.605019	99
Es	1.039396	-0.314476	-0.273269	99
Es	-2.793465	-0.376513	-0.224520	99
Es	-1.493606	-0.725682	-0.357428	99
Es	0.726134	-0.422196	0.419542	99
Es	-0.717834	-0.116080	0.476594	99
Es	1.779626	0.482056	-0.153388	99
Es	1.736431	0.686009	0.588309	99
Es	1.550125	0.045391	-0.754949	99
Es	2.352478	0.532472	0.959117	99
Es	-2.878433	-0.378899	0.115683	99
Es	2.077179	-0.404722	-0.997279	99
Es	0.009866	-0.250672	0.450625	99
Es	0.895711	-1.069285	0.703928	99
37
Properties=species:S:1:pos:R:3:Z:I:1 energy=-265.0263462242818 field_type=dipole dipole="0.000000 0.000000 0.000000" charge=0
N	-2.793689	-0.376509	-0.223938	7
N	-1.493409	-0.726099	-0.357828	7
C	-0.717889	-0.116119	0.476612	6
C	0.726041	-0.422339	0.419602	6
C	1.550171	0.045381	-0.755138	6
C	1.736521	0.686131	0.588412	6
H	-3.368059	-1.015339	-0.780448	1
H	-2.962049	0.544801	-0.636238	1
H	-1.068999	0.608271	1.233202	1
H	0.984321	-1.389699	0.839042	1
H	1.054391	0.614791	-1.533548	1
H	2.325221	-0.618719	-1.120238	1
H	2.645631	0.462791	1.135332	1
H	1.381801	1.702661	0.715172	1
Es	1.212508	0.434550	-1.275628	99
Es	0.010008	-0.250723	0.450637	99
Es	-3.132248	-0.757089	-0.575425	99
Es	-2.878394	-0.379049	0.115677	99
Es	-1.188894	-0.648611	0.211200	99
Es	0.726134	-0.422195	0.419541	99
Es	-2.147183	-0.533402	-0.300386	99
Es	-1.125429	-0.233743	-0.186432	99
Es	-1.394290	-0.988585	-0.605206	99
Es	0.895616	-1.069282	0.703876	99
Es	-2.793470	-0.376506	-0.224515	99
Es	1.039329	-0.314558	-0.273288	99
Es	1.779866	0.482190	-0.153612	99
Es	2.077091	-0.404622	-0.997332	99
Es	2.352363	0.532452	0.959118	99
Es	1.550126	0.045389	-0.754956	99
Es	1.485887	1.372795	0.674789	99
Es	-0.717836	-0.116085	0.476598	99
Es	-1.493624	-0.725673	-0.357424	99
Es	1.736428	0.686007	0.588306	99
Es	-0.956432	0.380560	0.984160	99
Es	-2.870762	0.174411	-0.480836	99
Es	1.181910	0.149708	0.695540	99
37
Properties=species:S:1:pos:R:3:Z:I:1 energy=-265.0263462242818 field_type=dipole dipole="0.000000 0.000000 0.000000" charge=0
N	-2.793689	-0.376509	-0.223938	7
N	-1.493409	-0.726099	-0.357828	7
C	-0.717889	-0.116119	0.476612	6
C	0.726041	-0.422339	0.419602	6
C	1.550171	0.045381	-0.755138	6
C	1.736521	0.686131	0.588412	6
H	-3.368059	-1.015339	-0.780448	1
H	-2.962049	0.544801	-0.636238	1
H	-1.068999	0.608271	1.233202	1
H	0.984321	-1.389699	0.839042	1
H	1.054391	0.614791	-1.533548	1
H	2.325221	-0.618719	-1.120238	1
H	2.645631	0.462791	1.135332	1
H	1.381801	1.702661	0.715172	1
Es	-2.870833	0.174582	-0.480693	99
Es	1.550124	0.045390	-0.754949	99
Es	2.077027	-0.404591	-0.997348	99
Es	0.895574	-1.069161	0.703917	99
Es	-0.956473	0.380528	0.984164	99
Es	0.726136	-0.422195	0.419541	99
Es	1.212598	0.434437	-1.275573	99
Es	1.181890	0.149684	0.695739	99
Es	-0.717836	-0.116082	0.476592	99
Es	1.736432	0.686010	0.588311	99
Es	0.010085	-0.250792	0.450632	99
Es	1.485880	1.372692	0.674804	99
Es	1.039197	-0.314740	-0.273346	99
Es	-2.793460	-0.376510	-0.224540	99
Es	-1.125205	-0.233634	-0.186789	99
Es	-1.394278	-0.988092	-0.604533	99
Es	-1.188822	-0.648830	0.211310	99
Es	1.780020	0.482392	-0.153755	99
Es	-3.132564	-0.757263	-0.575119	99
Es	2.352337	0.532600	0.959030	99
Es	-2.147322	-0.533967	-0.300536	99
Es	-1.493613	-0.725680	-0.357427	99
Es	-2.878191	-0.378839	0.114966	99
37
Properties=species:S:1:pos:R:3:Z:I:1 energy=-265.0263462242818 field_type=dipole dipole="0.000000 0.000000 0.000000" charge=0
N	-2.793689	-0.376509	-0.223938	7
N	-1.493409	-0.726099	-0.357828	7
C	-0.717889	-0.116119	0.476612	6
C	0.726041	-0.422339	0.419602	6
C	1.550171	0.045381	-0.755138	6
C	1.736521	0.686131	0.588412	6
H	-3.368059	-1.015339	-0.780448	1
H	-2.962049	0.544801	-0.636238	1
H	-1.068999	0.608271	1.233202	1
H	0.984321	-1.389699	0.839042	1
H	1.054391	0.614791	-1.533548	1
H	2.325221	-0.618719	-1.120238	1
H	2.645631	0.462791	1.135332	1
H	1.381801	1.702661	0.715172	1
Es	1.212681	0.434363	-1.275554	99
Es	-1.125236	-0.233790	-0.186735	99
Es	2.352234	0.532662	0.959035	99
Es	1.181866	0.149747	0.695998	99
Es	-2.870818	0.174480	-0.480754	99
Es	-1.493628	-0.725717	-0.357466	99
Es	1.485968	1.372641	0.674755	99
Es	-0.717835	-0.116083	0.476595	99
Es	-1.394208	-0.988514	-0.604537	99
Es	2.076970	-0.404505	-0.997335	99
Es	-2.878259	-0.378841	0.115062	99
Es	1.039074	-0.314923	-0.273512	99
Es	-2.793483	-0.376515	-0.224439	99
Es	0.895488	-1.069084	0.703885	99
Es	0.010205	-0.250901	0.450685	99
Es	-2.147320	-0.533690	-0.300377	99
Es	0.726137	-0.422194	0.419540	99
Es	-3.132479	-0.757250	-0.575204	99
Es	-0.956507	0.380504	0.984191	99
Es	1.736428	0.686006	0.588306	99
Es	1.550125	0.045392	-0.754947	99
Es	-1.188864	-0.648300	0.211038	99
Es	1.780163	0.482451	-0.153833	99
37
Properties=species:S:1:pos:R:3:Z:I:1 energy=-265.0263462242818 field_type=dipole dipole="0.000000 0.000000 0.000000" charge=0
N	-2.793689	-0.376509	-0.223938	7
N	-1.493409	-0.726099	-0.357828	7
C	-0.717889	-0.116119	0.476612	6
C	0.726041	-0.422339	0.419602	6
C	1.550171	0.045381	-0.755138	6
C	1.736521	0.686131	0.588412	6
H	-3.368059	-1.015339	-0.780448	1
H	-2.962049	0.544801	-0.636238	1
H	-1.068999	0.608271	1.233202	1
H	0.984321	-1.389699	0.839042	1
H	1.054391	0.614791	-1.533548	1
H	2.325221	-0.618719	-1.120238	1
H	2.645631	0.462791	1.135332	1
H	1.381801	1.702661	0.715172	1
Es	-1.493636	-0.725669	-0.357427	99
Es	-2.878150	-0.378866	0.115047	99
Es	-2.793461	-0.376507	-0.224541	99
Es	-0.956522	0.380475	0.984214	99
Es	2.352153	0.532743	0.958951	99
Es	1.039035	-0.315056	-0.273651	99
Es	-2.870854	0.174524	-0.480639	99
Es	0.010278	-0.251008	0.450691	99
Es	1.550125	0.045392	-0.754945	99
Es	-3.132596	-0.757237	-0.575127	99
Es	-1.125151	-0.233841	-0.186822	99
Es	1.736431	0.686010	0.588308	99
Es	1.181784	0.149702	0.696219	99
Es	2.076960	-0.404399	-0.997297	99
Es	0.726138	-0.422193	0.419539	99
Es	-2.147462	-0.533831	-0.300626	99
Es	-1.188866	-0.648157	0.210968	99
Es	0.895466	-1.069016	0.703899	99
Es	1.212747	0.434266	-1.275554	99
Es	1.780239	0.482636	-0.153973	99
Es	-1.394132	-0.988488	-0.604272	99
Es	-0.717832	-0.116078	0.476595	99
Es	1.486007	1.372537	0.674841	99
37
Properties=species:S:1:pos:R:3:Z:I:1 energy=-265.0263462242818 field_type=dipole dipole="0.000000 0.000000 0.000000" charge=0
N	-2.793689	-0.376509	-0.223938	7
N	-1.493409	-0.726099	-0.357828	7
C	-0.717889	-0.116119	0.476612	6
C	0.726041	-0.422339	0.419602	6
C	1.550171	0.045381	-0.755138	6
C	1.736521	0.686131	0.588412	6
H	-3.368059	-1.015339	-0.780448	1
H	-2.962049	0.544801	-0.636238	1
H	-1.068999	0.608271	1.233202	1
H	0.984321	-1.389699	0.839042	1
H	1.054391	0.614791	-1.533548	1
H	2.325221	-0.618719	-1.120238	1
H	2.645631	0.462791	1.135332	1
H	1.381801	1.702661	0.715172	1
Es	-2.147314	-0.534141	-0.300010	99
Es	0.895325	-1.068885	0.703917	99
Es	-2.870623	0.174346	-0.481088	99
Es	0.010428	-0.250938	0.450645	99
Es	-0.956584	0.380607	0.984117	99
Es	-1.125328	-0.233994	-0.186204	99
Es	-1.394067	-0.987979	-0.604741	99
Es	-1.493622	-0.725682	-0.357430	99
Es	1.780478	0.482632	-0.154171	99
Es	-2.878360	-0.378218	0.114610	99
Es	-0.717830	-0.116082	0.476598	99
Es	-3.132764	-0.757403	-0.574832	99
Es	1.212788	0.434252	-1.275488	99
Es	2.076818	-0.404335	-0.997361	99
Es	2.352071	0.532772	0.958952	99
Es	1.181857	0.149846	0.696420	99
Es	1.736428	0.686005	0.588303	99
Es	1.486104	1.372497	0.674800	99
Es	-2.793470	-0.376508	-0.224517	99
Es	1.550126	0.045395	-0.754937	99
Es	0.726137	-0.422195	0.419538	99
Es	-1.188763	-0.648696	0.210935	99
Es	1.038867	-0.315356	-0.273655	99
37
Properties=species:S:1:pos:R:3:Z:I:1 energy=-265.0263462242818 field_type=dipole dipole="0.000000 0.000000 0.000000" charge=0
N	-2.793689	-0.376509	-0.223938	7
N	-1.493409	-0.726099	-0.357828	7
C	-0.717889	-0.116119	0.476612	6
C	0.726041	-0.422339	0.419602	6
C	1.550171	0.045381	-0.755138	6
C	1.736521	0.686131	0.588412	6
H	-3.368059	-1.015339	-0.780448	1
H	-2.962049	0.544801	-0.636238	1
H	-1.068999	0.608271	1.233202	1
H	0.984321	-1.389699	0.839042	1
H	1.054391	0.614791	-1.533548	1
H	2.325221	-0.618719	-1.120238	1
H	2.645631	0.462791	1.135332	1
H	1.381801	1.702661	0.715172	1
Es	-2.147588	-0.533926	-0.300661	99
Es	-1.125347	-0.234059	-0.186361	99
Es	-2.871035	0.174735	-0.480388	99
Es	-2.877834	-0.378860	0.114459	99
Es	-0.717833	-0.116078	0.476589	99
Es	-3.132837	-0.757481	-0.574897	99
Es	0.010519	-0.251033	0.450720	99
Es	-1.393888	-0.987904	-0.604476	99
Es	1.550127	0.045392	-0.754950	99
Es	-1.188727	-0.648437	0.210917	99
Es	1.038864	-0.315352	-0.273889	99
Es	1.486111	1.372419	0.674862	99
Es	-2.793446	-0.376506	-0.224533	99
Es	2.351988	0.532791	0.958989	99
Es	-0.956594	0.380494	0.984189	99
Es	-1.493616	-0.725681	-0.357430	99
Es	2.076808	-0.404298	-0.997361	99
Es	1.181779	0.149757	0.696522	99
Es	0.895280	-1.068858	0.703825	99
Es	0.726136	-0.422194	0.419540	99
Es	1.736428	0.686004	0.588304	99
Es	1.212803	0.434119	-1.275464	99
Es	1.780602	0.482893	-0.154110	99
