37
Properties=species:S:1:pos:R:3:Z:I:1 energy=-268.86687785282186 field_type=dipole dipole="0.000000 0.000000 0.000000" charge=0
C	-0.534436	1.533380	-0.699382	6
C	-1.258796	0.226090	-0.798212	6
C	0.247864	0.240490	-0.688692	6
C	0.994174	-0.237370	0.547708	6
C	0.606884	-1.455530	1.350348	6
O	1.658373	-1.504160	0.384298	8
H	-0.475406	2.151990	-1.587452	1
H	-0.620766	2.091780	0.225508	1
H	-1.690826	-0.048380	-1.753742	1
H	-1.839846	-0.094860	0.058238	1
H	0.781724	0.024790	-1.615762	1
H	1.563014	0.527050	1.070638	1
H	-0.316476	-1.966520	1.110318	1
H	0.884524	-1.488750	2.396188	1
Es	1.931318	-1.501461	0.529824	99
Es	1.658164	-1.503993	0.384450	99
Es	-0.590424	1.906019	-0.067586	99
Es	0.019925	0.986308	-0.667591	99
Es	0.607111	-1.455511	1.350134	99
Es	-0.501048	0.035429	-0.740941	99
Es	0.247709	0.240570	-0.688633	99
Es	-1.060668	0.973599	-0.759538	99
Es	0.994276	-0.237659	0.547648	99
Es	0.608512	0.095911	-1.310243	99
Es	1.386997	0.284794	0.899820	99
Es	1.272672	-1.593622	0.776893	99
Es	0.615521	-0.713342	1.056508	99
Es	-0.017102	-1.811088	1.186744	99
Es	0.598420	0.003562	-0.057605	99
Es	1.547090	-1.632422	0.127269	99
Es	-0.492480	1.949599	-1.302830	99
Es	-1.646831	0.008477	-0.213062	99
Es	1.475588	-0.981216	0.377606	99
Es	0.800966	-1.485442	2.062705	99
Es	-1.549003	0.042362	-1.447837	99
Es	-0.534424	1.533192	-0.699386	99
Es	-1.258643	0.226182	-0.798195	99
37
Properties=species:S:1:pos:R:3:Z:I:1 energy=-268.86687785282186 field_type=dipole dipole="0.000000 0.000000 0.000000" charge=0
C	-0.534436	1.533380	-0.699382	6
C	-1.258796	0.226090	-0.798212	6
C	0.247864	0.240490	-0.688692	6
C	0.994174	-0.237370	0.547708	6
C	0.606884	-1.455530	1.350348	6
O	1.658373	-1.504160	0.384298	8
H	-0.475406	2.151990	-1.587452	1
H	-0.620766	2.091780	0.225508	1
H	-1.690826	-0.048380	-1.753742	1
H	-1.839846	-0.094860	0.058238	1
H	0.781724	0.024790	-1.615762	1
H	1.563014	0.527050	1.070638	1
H	-0.316476	-1.966520	1.110318	1
H	0.884524	-1.488750	2.396188	1
Es	1.549003	-1.632691	0.127986	99
Es	1.475306	-0.980548	0.376447	99
Es	-1.258638	0.226184	-0.798195	99
Es	0.607109	-1.455508	1.350135	99
Es	0.598422	0.003571	-0.057653	99
Es	1.387034	0.284729	0.899717	99
Es	0.247717	0.240574	-0.688631	99
Es	1.930139	-1.500693	0.530318	99
Es	-1.549006	0.042393	-1.447715	99
Es	0.800951	-1.485472	2.062619	99
Es	-1.060859	0.973480	-0.759487	99
Es	0.608489	0.095943	-1.310174	99
Es	1.272183	-1.594796	0.776799	99
Es	0.615449	-0.713235	1.056598	99
Es	-1.646806	0.008457	-0.213201	99
Es	0.020298	0.986672	-0.667492	99
Es	1.658211	-1.504063	0.384411	99
Es	-0.492616	1.949577	-1.302734	99
Es	-0.590477	1.906011	-0.067733	99
Es	-0.501046	0.035190	-0.740938	99
Es	-0.534433	1.533203	-0.699382	99
Es	0.994265	-0.237651	0.547647	99
Es	-0.017051	-1.811079	1.186810	99
37
Properties=species:S:1:pos:R:3:Z:I:1 energy=-268.86687785282186 field_type=dipole dipole="0.000000 0.000000 0.000000" charge=0
C	-0.534436	1.533380	-0.699382	6
C	-1.258796	0.226090	-0.798212	6
C	0.247864	0.240490	-0.688692	6
C	0.994174	-0.237370	0.547708	6
C	0.606884	-1.455530	1.350348	6
O	1.658373	-1.504160	0.384298	8
H	-0.475406	2.151990	-1.587452	1
H	-0.620766	2.091780	0.225508	1
H	-1.690826	-0.048380	-1.753742	1
H	-1.839846	-0.094860	0.058238	1
H	0.781724	0.024790	-1.615762	1
H	1.563014	0.527050	1.070638	1
H	-0.316476	-1.966520	1.110318	1
H	0.884524	-1.488750	2.396188	1
Es	0.994274	-0.237655	0.547645	99
Es	1.658132	-1.504003	0.384446	99
Es	-1.548956	0.042330	-1.447594	99
Es	0.247713	0.240570	-0.688632	99
Es	-0.534423	1.533198	-0.699381	99
Es	0.598370	0.003698	-0.057689	99
Es	0.800910	-1.485530	2.062559	99
Es	-0.492588	1.949522	-1.302596	99
Es	1.386980	0.284613	0.899643	99
Es	1.929513	-1.501764	0.529813	99
Es	0.615263	-0.713095	1.056824	99
Es	0.608549	0.095916	-1.310021	99
Es	-1.646754	0.008376	-0.213272	99
Es	0.020292	0.986567	-0.667600	99
Es	-0.016962	-1.811055	1.186850	99
Es	1.548271	-1.633030	0.127972	99
Es	-1.258632	0.226184	-0.798194	99
Es	-0.590293	1.906043	-0.067850	99
Es	-1.061355	0.973905	-0.759484	99
Es	0.607108	-1.455506	1.350134	99
Es	1.476617	-0.980001	0.376457	99
Es	1.272475	-1.594050	0.777162	99
Es	-0.500857	0.035011	-0.741039	99
37
Properties=species:S:1:pos:R:3:Z:I:1 energy=-268.86687785282186 field_type=dipole dipole="0.000000 0.000000 0.000000" charge=0
C	-0.534436	1.533380	-0.699382	6
C	-1.258796	0.226090	-0.798212	6
C	0.247864	0.240490	-0.688692	6
C	0.994174	-0.237370	0.547708	6
C	0.606884	-1.455530	1.350348	6
O	1.658373	-1.504160	0.384298	8
H	-0.475406	2.151990	-1.587452	1
H	-0.620766	2.091780	0.225508	1
H	-1.690826	-0.048380	-1.753742	1
H	-1.839846	-0.094860	0.058238	1
H	0.781724	0.024790	-1.615762	1
H	1.563014	0.527050	1.070638	1
H	-0.316476	-1.966520	1.110318	1
H	0.884524	-1.488750	2.396188	1
Es	-1.258638	0.226183	-0.798196	99
Es	-0.534420	1.533195	-0.699382	99
Es	1.386931	0.284632	0.899637	99
Es	0.615115	-0.712789	1.056799	99
Es	1.476139	-0.979904	0.377461	99
Es	0.607110	-1.455504	1.350133	99
Es	-0.590351	1.906004	-0.067993	99
Es	1.273182	-1.595623	0.777550	99
Es	0.800828	-1.485602	2.062497	99
Es	0.247713	0.240570	-0.688632	99
Es	-1.061340	0.974046	-0.759479	99
Es	1.929971	-1.501892	0.528318	99
Es	-0.016817	-1.811060	1.186864	99
Es	0.598438	0.003665	-0.057789	99
Es	-0.492624	1.949539	-1.302521	99
Es	1.547564	-1.631600	0.128190	99
Es	-1.646767	0.008507	-0.213411	99
Es	-1.549007	0.042369	-1.447471	99
Es	0.994274	-0.237655	0.547645	99
Es	0.020635	0.986757	-0.667552	99
Es	-0.500983	0.034624	-0.740947	99
Es	1.658256	-1.504055	0.384369	99
Es	0.608436	0.095837	-1.309937	99
37
Properties=species:S:1:pos:R:3:Z:I:1 energy=-268.86687785282186 field_type=dipole dipole="0.000000 0.000000 0.000000" charge=0
C	-0.534436	1.533380	-0.699382	6
C	-1.258796	0.226090	-0.798212	6
C	0.247864	0.240490	-0.688692	6
C	0.994174	-0.237370	0.547708	6
C	0.606884	-1.455530	1.350348	6
O	1.658373	-1.504160	0.384298	8
H	-0.475406	2.151990	-1.587452	1
H	-0.620766	2.091780	0.225508	1
H	-1.690826	-0.048380	-1.753742	1
H	-1.839846	-0.094860	0.058238	1
H	0.781724	0.024790	-1.615762	1
H	1.563014	0.527050	1.070638	1
H	-0.316476	-1.966520	1.110318	1
H	0.884524	-1.488750	2.396188	1
Es	-1.061628	0.974207	-0.759557	99
Es	1.474800	-0.980082	0.376166	99
Es	-0.016783	-1.811026	1.186911	99
Es	-0.492582	1.949532	-1.302383	99
Es	-1.646748	0.008421	-0.213505	99
Es	1.550913	-1.632510	0.128415	99
Es	1.272296	-1.596718	0.776609	99
Es	-0.534425	1.533192	-0.699382	99
Es	1.658162	-1.504012	0.384428	99
Es	-0.590362	1.905987	-0.068081	99
Es	0.614969	-0.712616	1.056898	99
Es	1.386946	0.284581	0.899554	99
Es	0.020724	0.986823	-0.667539	99
Es	-1.548954	0.042383	-1.447313	99
Es	1.928951	-1.499850	0.530276	99
Es	-0.500944	0.034351	-0.741083	99
Es	0.247712	0.240577	-0.688633	99
Es	0.607114	-1.455508	1.350126	99
Es	0.608480	0.095942	-1.309818	99
Es	0.800839	-1.485671	2.062444	99
Es	0.994281	-0.237656	0.547642	99
Es	0.598517	0.003718	-0.057828	99
Es	-1.258633	0.226184	-0.798195	99
37
Properties=species:S:1:pos:R:3:Z:I:1 energy=-268.86687785282186 field_type=dipole dipole="0.000000 0.000000 0.000000" charge=0
C	-0.534436	1.533380	-0.699382	6
C	-1.258796	0.226090	-0.798212	6
C	0.247864	0.240490	-0.688692	6
C	0.994174	-0.237370	0.547708	6
C	0.606884	-1.455530	1.350348	6
O	1.658373	-1.504160	0.384298	8
H	-0.475406	2.151990	-1.587452	1
H	-0.620766	2.091780	0.225508	1
H	-1.690826	-0.048380	-1.753742	1
H	-1.839846	-0.094860	0.058238	1
H	0.781724	0.024790	-1.615762	1
H	1.563014	0.527050	1.070638	1
H	-0.316476	-1.966520	1.110318	1
H	0.884524	-1.488750	2.396188	1
Es	1.386924	0.284543	0.899472	99
Es	-0.500849	0.034254	-0.741062	99
Es	-1.258636	0.226178	-0.798194	99
Es	0.994280	-0.237662	0.547642	99
Es	0.608417	0.095902	-1.309761	99
Es	-0.016725	-1.811102	1.186951	99
Es	0.598542	0.003682	-0.057880	99
Es	-1.061928	0.974295	-0.759491	99
Es	-1.548986	0.042417	-1.447240	99
Es	0.607112	-1.455506	1.350133	99
Es	1.658087	-1.503993	0.384428	99
Es	-1.646705	0.008408	-0.213618	99
Es	0.614814	-0.712447	1.057046	99
Es	1.929776	-1.502823	0.526991	99
Es	1.273416	-1.596213	0.778001	99
Es	0.020982	0.986925	-0.667524	99
Es	-0.534426	1.533193	-0.699382	99
Es	1.547172	-1.630891	0.128992	99
Es	0.800801	-1.485658	2.062346	99
Es	-0.590316	1.905967	-0.068204	99
Es	0.247706	0.240579	-0.688634	99
Es	1.476805	-0.979321	0.377416	99
Es	-0.492619	1.949520	-1.302277	99
37
Properties=species:S:1:pos:R:3:Z:I:1 energy=-268.86687785282186 field_type=dipole dipole="0.000000 0.000000 0.000000" charge=0
C	-0.534436	1.533380	-0.699382	6
C	-1.258796	0.226090	-0.798212	6
C	0.247864	0.240490	-0.688692	6
C	0.994174	-0.237370	0.547708	6
C	0.606884	-1.455530	1.350348	6
O	1.658373	-1.504160	0.384298	8
H	-0.475406	2.151990	-1.587452	1
H	-0.620766	2.091780	0.225508	1
H	-1.690826	-0.048380	-1.753742	1
H	-1.839846	-0.094860	0.058238	1
H	0.781724	0.024790	-1.615762	1
H	1.563014	0.527050	1.070638	1
H	-0.316476	-1.966520	1.110318	1
H	0.884524	-1.488750	2.396188	1
Es	-0.590363	1.905913	-0.068276	99
Es	-0.492550	1.949547	-1.302121	99
Es	1.476776	-0.978988	0.376927	99
Es	-1.646645	0.008461	-0.213712	99
Es	0.994273	-0.237658	0.547648	99
Es	-1.548985	0.042320	-1.447160	99
Es	1.386834	0.284517	0.899457	99
Es	1.273574	-1.596693	0.778275	99
Es	0.614788	-0.712347	1.057135	99
Es	0.247710	0.240577	-0.688633	99
Es	-0.016700	-1.811050	1.187006	99
Es	1.546899	-1.630558	0.129855	99
Es	-1.258637	0.226178	-0.798195	99
Es	0.598577	0.003736	-0.057946	99
Es	0.800780	-1.485724	2.062249	99
Es	-1.062154	0.974397	-0.759638	99
Es	-0.500824	0.033978	-0.741046	99
Es	-0.534429	1.533193	-0.699382	99
Es	1.929928	-1.503051	0.526308	99
Es	1.658192	-1.504007	0.384426	99
Es	0.607111	-1.455512	1.350129	99
Es	0.608415	0.095940	-1.309628	99
Es	0.021076	0.987076	-0.667526	99
37
Properties=species:S:1:pos:R:3:Z:I:1 energy=-268.86687785282186 field_type=dipole dipole="0.000000 0.000000 0.000000" charge=0
C	-0.534436	1.533380	-0.699382	6
C	-1.258796	0.226090	-0.798212	6
C	0.247864	0.240490	-0.688692	6
C	0.994174	-0.237370	0.547708	6
C	0.606884	-1.455530	1.350348	6
O	1.658373	-1.504160	0.384298	8
H	-0.475406	2.151990	-1.587452	1
H	-0.620766	2.091780	0.225508	1
H	-1.690826	-0.048380	-1.753742	1
H	-1.839846	-0.094860	0.058238	1
H	0.781724	0.024790	-1.615762	1
H	1.563014	0.527050	1.070638	1
H	-0.316476	-1.966520	1.110318	1
H	0.884524	-1.488750	2.396188	1
Es	-0.534426	1.533191	-0.699382	99
Es	-0.492560	1.949486	-1.302039	99
Es	0.247708	0.240576	-0.688633	99
Es	0.021105	0.987127	-0.667502	99
Es	0.598687	0.003791	-0.058018	99
Es	-1.258633	0.226176	-0.798195	99
Es	1.386817	0.284409	0.899362	99
Es	-0.590344	1.905950	-0.068383	99
Es	-0.016594	-1.811056	1.187063	99
Es	1.548508	-1.630863	0.129434	99
Es	-1.062250	0.974644	-0.759577	99
Es	-0.500723	0.033590	-0.741083	99
Es	1.658145	-1.504003	0.384431	99
Es	0.994277	-0.237656	0.547646	99
Es	0.607113	-1.455506	1.350129	99
Es	0.800751	-1.485698	2.062231	99
Es	1.928346	-1.502425	0.526758	99
Es	0.614603	-0.712191	1.057177	99
Es	1.477193	-0.978618	0.376805	99
Es	0.608394	0.095943	-1.309578	99
Es	1.273188	-1.597518	0.778393	99
Es	-1.646687	0.008445	-0.213845	99
Es	-1.548973	0.042451	-1.447042	99
37
Properties=species:S:1:pos:R:3:Z:I:1 energy=-268.86687785282186 field_type=dipole dipole="0.000000 0.000000 0.000000" charge=0
C	-0.534436	1.533380	-0.699382	6
C	-1.258796	0.226090	-0.798212	6
C	0.247864	0.240490	-0.688692	6
C	0.994174	-0.237370	0.547708	6
C	0.606884	-1.455530	1.350348	6
O	1.658373	-1.504160	0.384298	8
H	-0.475406	2.151990	-1.587452	1
H	-0.620766	2.091780	0.225508	1
H	-1.690826	-0.048380	-1.753742	1
H	-1.839846	-0.094860	0.058238	1
H	0.781724	0.024790	-1.615762	1
H	1.563014	0.527050	1.070638	1
H	-0.316476	-1.966520	1.110318	1
H	0.884524	-1.488750	2.396188	1
Es	-0.500805	0.033644	-0.741144	99
Es	-0.016515	-1.811117	1.187083	99
Es	1.928902	-1.502819	0.525760	99
Es	-0.590318	1.905962	-0.068490	99
Es	0.994273	-0.237655	0.547648	99
Es	-1.548932	0.042380	-1.446918	99
Es	1.386822	0.284390	0.899334	99
Es	-0.492588	1.949436	-1.301889	99
Es	-0.534425	1.533189	-0.699382	99
Es	0.247707	0.240578	-0.688634	99
Es	0.608351	0.095903	-1.309483	99
Es	0.614478	-0.711896	1.057328	99
Es	1.476931	-0.978613	0.376996	99
Es	1.658109	-1.503993	0.384420	99
Es	-1.062561	0.974718	-0.759684	99
Es	0.607104	-1.455505	1.350139	99
Es	1.273660	-1.597991	0.778504	99
Es	-1.646659	0.008403	-0.213844	99
Es	1.547885	-1.630113	0.130088	99
Es	0.800738	-1.485819	2.062100	99
Es	0.021471	0.987188	-0.667562	99
Es	0.598649	0.003791	-0.058024	99
Es	-1.258633	0.226184	-0.798194	99
37
Properties=species:S:1:pos:R:3:Z:I:1 energy=-268.86687785282186 field_type=dipole dipole="0.000000 0.000000 0.000000" charge=0
C	-0.534436	1.533380	-0.699382	6
C	-1.258796	0.226090	-0.798212	6
C	0.247864	0.240490	-0.688692	6
C	0.994174	-0.237370	0.547708	6
C	0.606884	-1.455530	1.350348	6
O	1.658373	-1.504160	0.384298	8
H	-0.475406	2.151990	-1.587452	1
H	-0.620766	2.091780	0.225508	1
H	-1.690826	-0.048380	-1.753742	1
H	-1.839846	-0.094860	0.058238	1
H	0.781724	0.024790	-1.615762	1
H	1.563014	0.527050	1.070638	1
H	-0.316476	-1.966520	1.110318	1
H	0.884524	-1.488750	2.396188	1
Es	1.549434	-1.631079	0.130138	99
Es	-0.590303	1.905924	-0.068649	99
Es	-1.062768	0.974794	-0.759639	99
Es	-1.548985	0.042393	-1.446828	99
Es	1.658175	-1.503969	0.384494	99
Es	0.598618	0.003783	-0.058081	99
Es	-1.646604	0.008471	-0.213997	99
Es	1.927890	-1.501972	0.526843	99
Es	1.476993	-0.978599	0.375893	99
Es	-0.500796	0.033384	-0.741121	99
Es	-0.534426	1.533188	-0.699382	99
Es	-0.492630	1.949433	-1.301763	99
Es	-1.258632	0.226185	-0.798194	99
Es	-0.016438	-1.811099	1.187110	99
Es	0.800680	-1.485837	2.062053	99
Es	0.614374	-0.711864	1.057402	99
Es	0.994274	-0.237658	0.547648	99
Es	1.386767	0.284365	0.899321	99
Es	1.273130	-1.597926	0.778343	99
Es	0.247707	0.240578	-0.688634	99
Es	0.607110	-1.455504	1.350134	99
Es	0.021751	0.987394	-0.667545	99
Es	0.608323	0.095861	-1.309390	99
37
Properties=species:S:1:pos:R:3:Z:I:1 energy=-268.86687785282186 field_type=dipole dipole="0.000000 0.000000 0.000000" charge=0
C	-0.534436	1.533380	-0.699382	6
C	-1.258796	0.226090	-0.798212	6
C	0.247864	0.240490	-0.688692	6
C	0.994174	-0.237370	0.547708	6
C	0.606884	-1.455530	1.350348	6
O	1.658373	-1.504160	0.384298	8
H	-0.475406	2.151990	-1.587452	1
H	-0.620766	2.091780	0.225508	1
H	-1.690826	-0.048380	-1.753742	1
H	-1.839846	-0.094860	0.058238	1
H	0.781724	0.024790	-1.615762	1
H	1.563014	0.527050	1.070638	1
H	-0.316476	-1.966520	1.110318	1
H	0.884524	-1.488750	2.396188	1
Es	1.386734	0.284314	0.899273	99
Es	-0.590329	1.905939	-0.068690	99
Es	1.550499	-1.631418	0.130034	99
Es	1.927029	-1.501224	0.527443	99
Es	0.608295	0.095867	-1.309292	99
Es	0.021723	0.987440	-0.667461	99
Es	-1.062877	0.974917	-0.759666	99
Es	-1.258631	0.226185	-0.798194	99
Es	1.272932	-1.598333	0.778272	99
Es	-1.646597	0.008481	-0.214074	99
Es	1.476942	-0.978566	0.375566	99
Es	0.247707	0.240578	-0.688634	99
Es	-0.492504	1.949421	-1.301788	99
Es	-0.534425	1.533187	-0.699382	99
Es	-0.500752	0.033151	-0.741147	99
Es	0.994274	-0.237658	0.547648	99
Es	0.607110	-1.455503	1.350133	99
Es	-0.016382	-1.811102	1.187149	99
Es	0.614260	-0.711755	1.057430	99
Es	-1.548985	0.042417	-1.446740	99
Es	0.598665	0.003825	-0.058132	99
Es	1.658271	-1.504083	0.384362	99
Es	0.800687	-1.485833	2.062042	99
37
Properties=species:S:1:pos:R:3:Z:I:1 energy=-268.86687785282186 field_type=dipole dipole="0.000000 0.000000 0.000000" charge=0
C	-0.534436	1.533380	-0.699382	6
C	-1.258796	0.226090	-0.798212	6
C	0.247864	0.240490	-0.688692	6
C	0.994174	-0.237370	0.547708	6
C	0.606884	-1.455530	1.350348	6
O	1.658373	-1.504160	0.384298	8
H	-0.475406	2.151990	-1.587452	1
H	-0.620766	2.091780	0.225508	1
H	-1.690826	-0.048380	-1.753742	1
H	-1.839846	-0.094860	0.058238	1
H	0.781724	0.024790	-1.615762	1
H	1.563014	0.527050	1.070638	1
H	-0.316476	-1.966520	1.110318	1
H	0.884524	-1.488750	2.396188	1
Es	0.247704	0.240580	-0.688635	99
Es	-1.646552	0.008508	-0.214200	99
Es	-0.016320	-1.811095	1.187166	99
Es	-0.590297	1.905890	-0.068750	99
Es	0.598680	0.003825	-0.058165	99
Es	0.614147	-0.711613	1.057569	99
Es	-1.548971	0.042355	-1.446679	99
Es	-0.534425	1.533185	-0.699382	99
Es	-1.258630	0.226186	-0.798194	99
Es	0.994274	-0.237659	0.547649	99
Es	1.658174	-1.503960	0.384517	99
Es	1.927038	-1.501459	0.526527	99
Es	0.021993	0.987544	-0.667546	99
Es	0.608258	0.095854	-1.309211	99
Es	1.386691	0.284270	0.899237	99
Es	-0.500775	0.033035	-0.741104	99
Es	-0.492610	1.949437	-1.301652	99
Es	0.800662	-1.485924	2.061963	99
Es	-1.063067	0.975024	-0.759665	99
Es	0.607110	-1.455503	1.350133	99
Es	1.273271	-1.597922	0.779089	99
Es	1.549953	-1.631697	0.130450	99
Es	1.477338	-0.978613	0.375037	99
37
Properties=species:S:1:pos:R:3:Z:I:1 energy=-268.86687785282186 field_type=dipole dipole="0.000000 0.000000 0.000000" charge=0
C	-0.534436	1.533380	-0.699382	6
C	-1.258796	0.226090	-0.798212	6
C	0.247864	0.240490	-0.688692	6
C	0.994174	-0.237370	0.547708	6
C	0.606884	-1.455530	1.350348	6
O	1.658373	-1.504160	0.384298	8
H	-0.475406	2.151990	-1.587452	1
H	-0.620766	2.091780	0.225508	1
H	-1.690826	-0.048380	-1.753742	1
H	-1.839846	-0.094860	0.058238	1
H	0.781724	0.024790	-1.615762	1
H	1.563014	0.527050	1.070638	1
H	-0.316476	-1.966520	1.110318	1
H	0.884524	-1.488750	2.396188	1
Es	-0.016251	-1.811110	1.187207	99
Es	0.613979	-0.711422	1.057690	99
Es	1.658160	-1.504000	0.384442	99
Es	0.994274	-0.237659	0.547649	99
Es	-0.492616	1.949409	-1.301552	99
Es	-0.590291	1.905885	-0.068859	99
Es	0.598728	0.003854	-0.058241	99
Es	-1.063296	0.975136	-0.759699	99
Es	0.022134	0.987622	-0.667516	99
Es	1.549792	-1.630873	0.130850	99
Es	0.800649	-1.485980	2.061886	99
Es	-0.534425	1.533184	-0.699382	99
Es	0.608264	0.095886	-1.309127	99
Es	-1.646538	0.008464	-0.214240	99
Es	-0.500717	0.032848	-0.741196	99
Es	0.607110	-1.455503	1.350133	99
Es	1.272989	-1.598324	0.778553	99
Es	0.247703	0.240581	-0.688635	99
Es	1.477866	-0.978152	0.375343	99
Es	1.386681	0.284225	0.899185	99
Es	-1.258629	0.226186	-0.798194	99
Es	1.927034	-1.502395	0.526401	99
Es	-1.548954	0.042383	-1.446547	99
