37
Properties=species:S:1:pos:R:3:Z:I:1 energy=-268.91188652425717 field_type=dipole dipole="0.000000 0.000000 0.000000" charge=0
C	-1.769588	-0.324592	0.479869	6
C	-0.278958	-0.324072	0.502169	6
C	0.494422	-0.954132	-0.624701	6
C	0.494132	0.547978	-0.460691	6
C	1.730462	1.235008	-0.023611	6
O	2.558732	1.614978	-0.840561	8
H	-2.154688	0.491888	1.098609	1
H	-2.151608	-1.267642	0.883019	1
H	-2.167188	-0.201202	-0.532901	1
H	0.104502	-0.459272	1.507619	1
H	-0.048058	-1.366262	-1.468521	1
H	1.401172	-1.498102	-0.382411	1
H	-0.071458	1.110568	-1.197361	1
H	1.858122	1.394858	1.059469	1
Es	-1.769561	-0.324591	0.479867	99
Es	0.053851	-0.815556	-0.009440	99
Es	-0.002352	-0.407561	1.181711	99
Es	0.058931	0.279505	0.116199	99
Es	-0.278874	-0.324051	0.502024	99
Es	1.811901	1.335867	0.722549	99
Es	2.378183	1.256986	-0.521793	99
Es	-2.031863	-0.239852	-0.213458	99
Es	0.117212	0.928632	-0.946216	99
Es	2.137553	1.698746	-0.554837	99
Es	1.730445	1.235000	-0.023609	99
Es	1.100670	0.880063	-0.220011	99
Es	-2.025743	-0.966755	0.754536	99
Es	1.109232	-1.314381	-0.455929	99
Es	2.473055	1.546367	-1.133397	99
Es	-1.020453	-0.320732	0.474934	99
Es	0.494121	0.547818	-0.460621	99
Es	0.625405	-0.159111	-0.677685	99
Es	0.122778	-1.225410	-1.192619	99
Es	2.558502	1.614874	-0.840316	99
Es	-2.028335	0.232075	0.901518	99
Es	0.494393	-0.953952	-0.624627	99
Es	2.804183	1.758068	-0.710547	99
37
Properties=species:S:1:pos:R:3:Z:I:1 energy=-268.91188652425717 field_type=dipole dipole="0.000000 0.000000 0.000000" charge=0
C	-1.769588	-0.324592	0.479869	6
C	-0.278958	-0.324072	0.502169	6
C	0.494422	-0.954132	-0.624701	6
C	0.494132	0.547978	-0.460691	6
C	1.730462	1.235008	-0.023611	6
O	2.558732	1.614978	-0.840561	8
H	-2.154688	0.491888	1.098609	1
H	-2.151608	-1.267642	0.883019	1
H	-2.167188	-0.201202	-0.532901	1
H	0.104502	-0.459272	1.507619	1
H	-0.048058	-1.366262	-1.468521	1
H	1.401172	-1.498102	-0.382411	1
H	-0.071458	1.110568	-1.197361	1
H	1.858122	1.394858	1.059469	1
Es	1.100650	0.880050	-0.220233	99
Es	2.378475	1.257075	-0.522409	99
Es	-2.028424	0.232115	0.901568	99
Es	-0.002556	-0.407585	1.181626	99
Es	1.811912	1.335888	0.722582	99
Es	-1.769561	-0.324590	0.479867	99
Es	2.469994	1.545393	-1.130543	99
Es	-0.278867	-0.324046	0.502016	99
Es	2.137446	1.698265	-0.554245	99
Es	0.625277	-0.159281	-0.677788	99
Es	0.494117	0.547813	-0.460618	99
Es	-2.031803	-0.239891	-0.213458	99
Es	-1.020423	-0.320919	0.474887	99
Es	2.807109	1.759413	-0.713348	99
Es	1.109222	-1.314357	-0.456029	99
Es	0.117366	0.928547	-0.946160	99
Es	0.053992	-0.815727	-0.009356	99
Es	-2.025714	-0.966733	0.754449	99
Es	0.494392	-0.953951	-0.624626	99
Es	1.730447	1.235000	-0.023611	99
Es	0.122853	-1.225419	-1.192474	99
Es	2.558473	1.614841	-0.840342	99
Es	0.058855	0.280148	0.116477	99
37
Properties=species:S:1:pos:R:3:Z:I:1 energy=-268.91188652425717 field_type=dipole dipole="0.000000 0.000000 0.000000" charge=0
C	-1.769588	-0.324592	0.479869	6
C	-0.278958	-0.324072	0.502169	6
C	0.494422	-0.954132	-0.624701	6
C	0.494132	0.547978	-0.460691	6
C	1.730462	1.235008	-0.023611	6
O	2.558732	1.614978	-0.840561	8
H	-2.154688	0.491888	1.098609	1
H	-2.151608	-1.267642	0.883019	1
H	-2.167188	-0.201202	-0.532901	1
H	0.104502	-0.459272	1.507619	1
H	-0.048058	-1.366262	-1.468521	1
H	1.401172	-1.498102	-0.382411	1
H	-0.071458	1.110568	-1.197361	1
H	1.858122	1.394858	1.059469	1
Es	-2.025746	-0.966738	0.754407	99
Es	2.378493	1.256426	-0.522141	99
Es	0.122935	-1.225470	-1.192461	99
Es	2.137142	1.698629	-0.554890	99
Es	2.804845	1.758673	-0.711400	99
Es	0.494120	0.547812	-0.460619	99
Es	0.494393	-0.953939	-0.624618	99
Es	1.100406	0.880136	-0.220313	99
Es	-1.769562	-0.324590	0.479867	99
Es	-2.031844	-0.239795	-0.213454	99
Es	1.109055	-1.314251	-0.456137	99
Es	0.117339	0.928524	-0.946025	99
Es	2.472496	1.546374	-1.132055	99
Es	0.058934	0.280368	0.116678	99
Es	-0.002579	-0.407633	1.181505	99
Es	1.811945	1.335873	0.722518	99
Es	-1.020390	-0.320881	0.474978	99
Es	-2.028374	0.232047	0.901610	99
Es	0.053998	-0.816052	-0.009344	99
Es	2.558553	1.614897	-0.840373	99
Es	1.730447	1.234997	-0.023609	99
Es	-0.278866	-0.324043	0.502014	99
Es	0.625493	-0.159314	-0.677902	99
37
Properties=species:S:1:pos:R:3:Z:I:1 energy=-268.91188652425717 field_type=dipole dipole="0.000000 0.000000 0.000000" charge=0
C	-1.769588	-0.324592	0.479869	6
C	-0.278958	-0.324072	0.502169	6
C	0.494422	-0.954132	-0.624701	6
C	0.494132	0.547978	-0.460691	6
C	1.730462	1.235008	-0.023611	6
O	2.558732	1.614978	-0.840561	8
H	-2.154688	0.491888	1.098609	1
H	-2.151608	-1.267642	0.883019	1
H	-2.167188	-0.201202	-0.532901	1
H	0.104502	-0.459272	1.507619	1
H	-0.048058	-1.366262	-1.468521	1
H	1.401172	-1.498102	-0.382411	1
H	-0.071458	1.110568	-1.197361	1
H	1.858122	1.394858	1.059469	1
Es	0.122983	-1.225494	-1.192242	99
Es	0.053900	-0.816128	-0.009177	99
Es	-2.031912	-0.239900	-0.213451	99
Es	2.471007	1.546236	-1.131744	99
Es	1.811987	1.335911	0.722572	99
Es	0.625816	-0.159104	-0.678397	99
Es	-1.769560	-0.324590	0.479863	99
Es	-2.025740	-0.966655	0.754507	99
Es	1.108871	-1.314394	-0.456099	99
Es	2.137861	1.698879	-0.554098	99
Es	-1.020363	-0.320974	0.474937	99
Es	2.378466	1.256616	-0.522024	99
Es	1.100293	0.879944	-0.220283	99
Es	2.558517	1.614876	-0.840362	99
Es	1.730452	1.234997	-0.023616	99
Es	0.494115	0.547815	-0.460617	99
Es	0.494395	-0.953949	-0.624629	99
Es	0.117464	0.928706	-0.945904	99
Es	2.805606	1.758422	-0.712665	99
Es	-0.278864	-0.324043	0.502012	99
Es	0.058897	0.280293	0.116630	99
Es	-2.028322	0.232119	0.901569	99
Es	-0.002636	-0.407535	1.181455	99
37
Properties=species:S:1:pos:R:3:Z:I:1 energy=-268.91188652425717 field_type=dipole dipole="0.000000 0.000000 0.000000" charge=0
C	-1.769588	-0.324592	0.479869	6
C	-0.278958	-0.324072	0.502169	6
C	0.494422	-0.954132	-0.624701	6
C	0.494132	0.547978	-0.460691	6
C	1.730462	1.235008	-0.023611	6
O	2.558732	1.614978	-0.840561	8
H	-2.154688	0.491888	1.098609	1
H	-2.151608	-1.267642	0.883019	1
H	-2.167188	-0.201202	-0.532901	1
H	0.104502	-0.459272	1.507619	1
H	-0.048058	-1.366262	-1.468521	1
H	1.401172	-1.498102	-0.382411	1
H	-0.071458	1.110568	-1.197361	1
H	1.858122	1.394858	1.059469	1
Es	-2.031840	-0.239854	-0.213342	99
Es	-0.002718	-0.407578	1.181368	99
Es	2.803926	1.758009	-0.709651	99
Es	0.053948	-0.816477	-0.009267	99
Es	2.378028	1.255650	-0.523196	99
Es	2.558540	1.614886	-0.840392	99
Es	0.494395	-0.953940	-0.624629	99
Es	-2.025778	-0.966705	0.754362	99
Es	1.730448	1.234998	-0.023610	99
Es	1.100134	0.880012	-0.220313	99
Es	0.494116	0.547812	-0.460616	99
Es	1.812005	1.335942	0.722591	99
Es	0.123132	-1.225451	-1.192234	99
Es	-1.769560	-0.324591	0.479868	99
Es	0.625865	-0.159068	-0.678542	99
Es	1.108852	-1.314288	-0.456222	99
Es	-2.028428	0.232110	0.901601	99
Es	-0.278866	-0.324045	0.502015	99
Es	0.058753	0.280453	0.116883	99
Es	2.137135	1.698192	-0.554855	99
Es	2.473849	1.548248	-1.132815	99
Es	0.117546	0.928708	-0.945734	99
Es	-1.020249	-0.320973	0.474964	99
37
Properties=species:S:1:pos:R:3:Z:I:1 energy=-268.91188652425717 field_type=dipole dipole="0.000000 0.000000 0.000000" charge=0
C	-1.769588	-0.324592	0.479869	6
C	-0.278958	-0.324072	0.502169	6
C	0.494422	-0.954132	-0.624701	6
C	0.494132	0.547978	-0.460691	6
C	1.730462	1.235008	-0.023611	6
O	2.558732	1.614978	-0.840561	8
H	-2.154688	0.491888	1.098609	1
H	-2.151608	-1.267642	0.883019	1
H	-2.167188	-0.201202	-0.532901	1
H	0.104502	-0.459272	1.507619	1
H	-0.048058	-1.366262	-1.468521	1
H	1.401172	-1.498102	-0.382411	1
H	-0.071458	1.110568	-1.197361	1
H	1.858122	1.394858	1.059469	1
Es	-2.025769	-0.966712	0.754430	99
Es	-1.769562	-0.324590	0.479867	99
Es	-2.031834	-0.239848	-0.213428	99
Es	2.137646	1.698604	-0.554057	99
Es	0.494115	0.547808	-0.460616	99
Es	0.117636	0.928727	-0.945629	99
Es	-0.278865	-0.324046	0.502015	99
Es	1.730447	1.234998	-0.023610	99
Es	0.494392	-0.953946	-0.624624	99
Es	0.625961	-0.159011	-0.678761	99
Es	2.558522	1.614889	-0.840279	99
Es	0.058643	0.280626	0.117072	99
Es	-2.028412	0.232062	0.901544	99
Es	2.471506	1.546973	-1.131704	99
Es	2.378423	1.256238	-0.522611	99
Es	-1.020273	-0.320943	0.475125	99
Es	0.053970	-0.816678	-0.009310	99
Es	-0.002715	-0.407548	1.181279	99
Es	1.811991	1.335955	0.722603	99
Es	1.100055	0.879939	-0.220447	99
Es	0.123208	-1.225454	-1.192111	99
Es	1.108759	-1.314298	-0.456283	99
Es	2.805389	1.758303	-0.712231	99
37
Properties=species:S:1:pos:R:3:Z:I:1 energy=-268.91188652425717 field_type=dipole dipole="0.000000 0.000000 0.000000" charge=0
C	-1.769588	-0.324592	0.479869	6
C	-0.278958	-0.324072	0.502169	6
C	0.494422	-0.954132	-0.624701	6
C	0.494132	0.547978	-0.460691	6
C	1.730462	1.235008	-0.023611	6
O	2.558732	1.614978	-0.840561	8
H	-2.154688	0.491888	1.098609	1
H	-2.151608	-1.267642	0.883019	1
H	-2.167188	-0.201202	-0.532901	1
H	0.104502	-0.459272	1.507619	1
H	-0.048058	-1.366262	-1.468521	1
H	1.401172	-1.498102	-0.382411	1
H	-0.071458	1.110568	-1.197361	1
H	1.858122	1.394858	1.059469	1
Es	2.138017	1.699756	-0.553813	99
Es	0.117713	0.928739	-0.945532	99
Es	2.378108	1.256417	-0.522205	99
Es	0.053921	-0.816947	-0.009253	99
Es	-0.278865	-0.324046	0.502014	99
Es	0.058629	0.280727	0.117136	99
Es	1.812029	1.335931	0.722607	99
Es	0.494391	-0.953945	-0.624623	99
Es	2.472021	1.546992	-1.132343	99
Es	1.099888	0.879925	-0.220477	99
Es	-2.031836	-0.239745	-0.213373	99
Es	-1.769563	-0.324590	0.479867	99
Es	-1.020176	-0.320967	0.475140	99
Es	2.558468	1.614863	-0.840333	99
Es	1.730447	1.234998	-0.023610	99
Es	0.626137	-0.158917	-0.678931	99
Es	-0.002788	-0.407541	1.181221	99
Es	-2.028379	0.232012	0.901554	99
Es	1.108663	-1.314274	-0.456328	99
Es	2.804846	1.757037	-0.712187	99
Es	0.494118	0.547813	-0.460620	99
Es	-2.025859	-0.966729	0.754367	99
Es	0.123302	-1.225460	-1.192043	99
37
Properties=species:S:1:pos:R:3:Z:I:1 energy=-268.91188652425717 field_type=dipole dipole="0.000000 0.000000 0.000000" charge=0
C	-1.769588	-0.324592	0.479869	6
C	-0.278958	-0.324072	0.502169	6
C	0.494422	-0.954132	-0.624701	6
C	0.494132	0.547978	-0.460691	6
C	1.730462	1.235008	-0.023611	6
O	2.558732	1.614978	-0.840561	8
H	-2.154688	0.491888	1.098609	1
H	-2.151608	-1.267642	0.883019	1
H	-2.167188	-0.201202	-0.532901	1
H	0.104502	-0.459272	1.507619	1
H	-0.048058	-1.366262	-1.468521	1
H	1.401172	-1.498102	-0.382411	1
H	-0.071458	1.110568	-1.197361	1
H	1.858122	1.394858	1.059469	1
Es	0.058547	0.280868	0.117189	99
Es	1.108589	-1.314221	-0.456426	99
Es	0.494111	0.547802	-0.460611	99
Es	-0.278863	-0.324050	0.502012	99
Es	2.379860	1.256009	-0.522039	99
Es	-0.002805	-0.407402	1.181137	99
Es	0.626217	-0.158803	-0.679001	99
Es	0.494394	-0.953942	-0.624627	99
Es	2.470804	1.546980	-1.131810	99
Es	1.812005	1.336076	0.722637	99
Es	0.053954	-0.817372	-0.009208	99
Es	-1.769563	-0.324590	0.479867	99
Es	2.137821	1.697364	-0.553723	99
Es	2.804532	1.759707	-0.712978	99
Es	-2.028429	0.232051	0.901541	99
Es	-2.025778	-0.966663	0.754413	99
Es	1.099721	0.879925	-0.220561	99
Es	-1.020227	-0.320938	0.475286	99
Es	2.558499	1.614861	-0.840335	99
Es	-2.031817	-0.239859	-0.213475	99
Es	1.730447	1.234996	-0.023609	99
Es	0.123384	-1.225467	-1.191959	99
Es	0.117830	0.928717	-0.945487	99
37
Properties=species:S:1:pos:R:3:Z:I:1 energy=-268.91188652425717 field_type=dipole dipole="0.000000 0.000000 0.000000" charge=0
C	-1.769588	-0.324592	0.479869	6
C	-0.278958	-0.324072	0.502169	6
C	0.494422	-0.954132	-0.624701	6
C	0.494132	0.547978	-0.460691	6
C	1.730462	1.235008	-0.023611	6
O	2.558732	1.614978	-0.840561	8
H	-2.154688	0.491888	1.098609	1
H	-2.151608	-1.267642	0.883019	1
H	-2.167188	-0.201202	-0.532901	1
H	0.104502	-0.459272	1.507619	1
H	-0.048058	-1.366262	-1.468521	1
H	1.401172	-1.498102	-0.382411	1
H	-0.071458	1.110568	-1.197361	1
H	1.858122	1.394858	1.059469	1
Es	2.470765	1.546154	-1.130852	99
Es	1.108444	-1.314283	-0.456416	99
Es	1.099614	0.879908	-0.220583	99
Es	0.494390	-0.953941	-0.624621	99
Es	1.812065	1.335966	0.722612	99
Es	2.378236	1.256634	-0.522241	99
Es	0.053880	-0.817346	-0.009134	99
Es	0.058592	0.281034	0.117272	99
Es	0.117846	0.928753	-0.945323	99
Es	2.558536	1.614889	-0.840353	99
Es	-1.020128	-0.320965	0.475249	99
Es	2.137728	1.698760	-0.554272	99
Es	-0.002883	-0.407470	1.181058	99
Es	0.123440	-1.225453	-1.191893	99
Es	1.730445	1.234999	-0.023609	99
Es	0.494115	0.547813	-0.460614	99
Es	0.626468	-0.158920	-0.679314	99
Es	2.806195	1.758639	-0.713146	99
Es	-0.278869	-0.324047	0.502023	99
Es	-2.031802	-0.239848	-0.213370	99
Es	-2.025827	-0.966702	0.754385	99
Es	-2.028453	0.232066	0.901511	99
Es	-1.769563	-0.324590	0.479868	99
37
Properties=species:S:1:pos:R:3:Z:I:1 energy=-268.91188652425717 field_type=dipole dipole="0.000000 0.000000 0.000000" charge=0
C	-1.769588	-0.324592	0.479869	6
C	-0.278958	-0.324072	0.502169	6
C	0.494422	-0.954132	-0.624701	6
C	0.494132	0.547978	-0.460691	6
C	1.730462	1.235008	-0.023611	6
O	2.558732	1.614978	-0.840561	8
H	-2.154688	0.491888	1.098609	1
H	-2.151608	-1.267642	0.883019	1
H	-2.167188	-0.201202	-0.532901	1
H	0.104502	-0.459272	1.507619	1
H	-0.048058	-1.366262	-1.468521	1
H	1.401172	-1.498102	-0.382411	1
H	-0.071458	1.110568	-1.197361	1
H	1.858122	1.394858	1.059469	1
Es	2.137785	1.698463	-0.553454	99
Es	0.053912	-0.817656	-0.009129	99
Es	-1.769563	-0.324590	0.479867	99
Es	1.812027	1.336090	0.722597	99
Es	-0.002856	-0.407494	1.181033	99
Es	1.730446	1.234998	-0.023609	99
Es	-1.020062	-0.320947	0.475259	99
Es	2.558548	1.614894	-0.840375	99
Es	2.804603	1.758695	-0.713391	99
Es	2.470926	1.546677	-1.131732	99
Es	-0.278861	-0.324045	0.502009	99
Es	-2.028434	0.232106	0.901489	99
Es	1.108518	-1.314070	-0.456587	99
Es	0.118016	0.928712	-0.945315	99
Es	1.099531	0.879879	-0.220573	99
Es	0.058397	0.281244	0.117337	99
Es	0.626300	-0.158875	-0.679347	99
Es	-2.031820	-0.239875	-0.213308	99
Es	0.123494	-1.225536	-1.191806	99
Es	0.494396	-0.953957	-0.624633	99
Es	2.379655	1.256242	-0.521901	99
Es	0.494112	0.547809	-0.460612	99
Es	-2.025839	-0.966714	0.754416	99
37
Properties=species:S:1:pos:R:3:Z:I:1 energy=-268.91188652425717 field_type=dipole dipole="0.000000 0.000000 0.000000" charge=0
C	-1.769588	-0.324592	0.479869	6
C	-0.278958	-0.324072	0.502169	6
C	0.494422	-0.954132	-0.624701	6
C	0.494132	0.547978	-0.460691	6
C	1.730462	1.235008	-0.023611	6
O	2.558732	1.614978	-0.840561	8
H	-2.154688	0.491888	1.098609	1
H	-2.151608	-1.267642	0.883019	1
H	-2.167188	-0.201202	-0.532901	1
H	0.104502	-0.459272	1.507619	1
H	-0.048058	-1.366262	-1.468521	1
H	1.401172	-1.498102	-0.382411	1
H	-0.071458	1.110568	-1.197361	1
H	1.858122	1.394858	1.059469	1
Es	-0.002951	-0.407495	1.180907	99
Es	-0.278861	-0.324044	0.502010	99
Es	0.053802	-0.817699	-0.009036	99
Es	1.099401	0.879823	-0.220713	99
Es	1.812096	1.336000	0.722638	99
Es	1.730447	1.234998	-0.023610	99
Es	2.137710	1.699336	-0.554545	99
Es	0.058495	0.281283	0.117530	99
Es	1.108283	-1.314233	-0.456547	99
Es	0.123591	-1.225480	-1.191685	99
Es	2.471146	1.545744	-1.130782	99
Es	2.805771	1.758441	-0.713634	99
Es	2.378333	1.256700	-0.521568	99
Es	-2.025848	-0.966661	0.754373	99
Es	-2.031817	-0.239847	-0.213371	99
Es	-1.769564	-0.324591	0.479868	99
Es	0.626715	-0.158800	-0.679722	99
Es	-1.020049	-0.320968	0.475370	99
Es	-2.028463	0.232038	0.901497	99
Es	0.118009	0.928777	-0.945177	99
Es	0.494392	-0.953942	-0.624624	99
Es	0.494110	0.547806	-0.460609	99
Es	2.558483	1.614864	-0.840335	99
37
Properties=species:S:1:pos:R:3:Z:I:1 energy=-268.91188652425717 field_type=dipole dipole="0.000000 0.000000 0.000000" charge=0
C	-1.769588	-0.324592	0.479869	6
C	-0.278958	-0.324072	0.502169	6
C	0.494422	-0.954132	-0.624701	6
C	0.494132	0.547978	-0.460691	6
C	1.730462	1.235008	-0.023611	6
O	2.558732	1.614978	-0.840561	8
H	-2.154688	0.491888	1.098609	1
H	-2.151608	-1.267642	0.883019	1
H	-2.167188	-0.201202	-0.532901	1
H	0.104502	-0.459272	1.507619	1
H	-0.048058	-1.366262	-1.468521	1
H	1.401172	-1.498102	-0.382411	1
H	-0.071458	1.110568	-1.197361	1
H	1.858122	1.394858	1.059469	1
Es	0.494395	-0.953939	-0.624628	99
Es	1.812104	1.336035	0.722620	99
Es	1.730447	1.234996	-0.023609	99
Es	1.099277	0.879812	-0.220737	99
Es	-2.025814	-0.966655	0.754372	99
Es	2.558552	1.614896	-0.840373	99
Es	2.803950	1.758938	-0.711875	99
Es	0.058551	0.281415	0.117530	99
Es	0.053754	-0.818039	-0.008867	99
Es	-1.020069	-0.320896	0.475438	99
Es	-2.028481	0.232040	0.901508	99
Es	2.136953	1.698441	-0.555108	99
Es	0.118088	0.928763	-0.945146	99
Es	-0.278864	-0.324046	0.502013	99
Es	0.494113	0.547807	-0.460613	99
Es	-1.769563	-0.324590	0.479868	99
Es	0.123644	-1.225461	-1.191568	99
Es	-2.031811	-0.239866	-0.213407	99
Es	0.626740	-0.158742	-0.679806	99
Es	2.473025	1.546185	-1.131925	99
Es	1.108257	-1.314175	-0.456699	99
Es	-0.002995	-0.407469	1.180824	99
Es	2.378982	1.256600	-0.521577	99
37
Properties=species:S:1:pos:R:3:Z:I:1 energy=-268.91188652425717 field_type=dipole dipole="0.000000 0.000000 0.000000" charge=0
C	-1.769588	-0.324592	0.479869	6
C	-0.278958	-0.324072	0.502169	6
C	0.494422	-0.954132	-0.624701	6
C	0.494132	0.547978	-0.460691	6
C	1.730462	1.235008	-0.023611	6
O	2.558732	1.614978	-0.840561	8
H	-2.154688	0.491888	1.098609	1
H	-2.151608	-1.267642	0.883019	1
H	-2.167188	-0.201202	-0.532901	1
H	0.104502	-0.459272	1.507619	1
H	-0.048058	-1.366262	-1.468521	1
H	1.401172	-1.498102	-0.382411	1
H	-0.071458	1.110568	-1.197361	1
H	1.858122	1.394858	1.059469	1
Es	0.494113	0.547802	-0.460613	99
Es	1.812150	1.336051	0.722658	99
Es	2.803489	1.757617	-0.710613	99
Es	0.123767	-1.225496	-1.191535	99
Es	0.626951	-0.158668	-0.680150	99
Es	-0.003008	-0.407428	1.180796	99
Es	-2.028478	0.232029	0.901491	99
Es	1.730446	1.234998	-0.023609	99
Es	-1.019961	-0.320939	0.475461	99
Es	-1.769563	-0.324591	0.479867	99
Es	-2.031832	-0.239857	-0.213358	99
Es	-0.278863	-0.324053	0.502011	99
Es	2.474211	1.547191	-1.132660	99
Es	0.494390	-0.953940	-0.624619	99
Es	0.118104	0.928838	-0.944964	99
Es	1.099170	0.879783	-0.220750	99
Es	-2.025848	-0.966645	0.754365	99
Es	0.058554	0.281377	0.117494	99
Es	1.108153	-1.314124	-0.456686	99
Es	2.378365	1.256497	-0.522430	99
Es	0.053583	-0.818157	-0.008716	99
Es	2.136813	1.698878	-0.554836	99
Es	2.558525	1.614884	-0.840370	99
