35
Properties=species:S:1:pos:R:3:Z:I:1 energy=-304.7519356424962 field_type=dipole dipole="0.000000 0.000000 0.000000" charge=0
C	-1.373682	-0.000998	0.966272	6
C	0.117058	-0.007938	0.668172	6
O	0.449808	-1.203828	-0.079618	8
C	1.039528	-0.652618	-1.190789	6
C	1.048218	0.663822	-1.176978	6
O	0.465888	1.198932	-0.054228	8
H	-1.652572	0.887362	1.541192	1
H	-1.665662	-0.899358	1.518692	1
H	-1.953142	0.014932	0.036412	1
H	0.689648	-0.021588	1.604012	1
H	1.408398	-1.339438	-1.930658	1
H	1.426508	1.360722	-1.902478	1
Es	0.465947	1.198600	-0.054316	99
Es	-1.756072	0.009682	0.333686	99
Es	0.194763	-1.318085	-0.178724	99
Es	-0.635284	-0.004481	0.816270	99
Es	-1.551776	0.599690	1.360329	99
Es	0.690382	0.987882	-0.483203	99
Es	0.212747	1.321759	-0.149657	99
Es	0.676630	-0.986126	-0.503657	99
Es	-1.373653	-0.000998	0.966274	99
Es	1.302527	1.131610	-1.663812	99
Es	0.449861	-1.203461	-0.079715	99
Es	1.371481	0.002182	-1.068193	99
Es	0.512487	-0.017332	1.310547	99
Es	0.117154	-0.007936	0.667844	99
Es	0.685848	1.329025	0.094693	99
Es	0.766000	0.009545	-1.383403	99
Es	0.667684	-1.343334	0.066515	99
Es	1.048120	0.664042	-1.176783	99
Es	1.039432	-0.652846	-1.190592	99
Es	1.287566	-1.113565	-1.687361	99
Es	0.331511	-0.740766	0.186634	99
Es	0.340188	0.731684	0.201389	99
Es	-1.560533	-0.608608	1.345054	99
35
Properties=species:S:1:pos:R:3:Z:I:1 energy=-304.7519356424962 field_type=dipole dipole="0.000000 0.000000 0.000000" charge=0
C	-1.373682	-0.000998	0.966272	6
C	0.117058	-0.007938	0.668172	6
O	0.449808	-1.203828	-0.079618	8
C	1.039528	-0.652618	-1.190789	6
C	1.048218	0.663822	-1.176978	6
O	0.465888	1.198932	-0.054228	8
H	-1.652572	0.887362	1.541192	1
H	-1.665662	-0.899358	1.518692	1
H	-1.953142	0.014932	0.036412	1
H	0.689648	-0.021588	1.604012	1
H	1.408398	-1.339438	-1.930658	1
H	1.426508	1.360722	-1.902478	1
Es	0.688988	0.987475	-0.483716	99
Es	0.213253	1.322845	-0.148623	99
Es	1.287556	-1.113559	-1.687332	99
Es	0.512510	-0.017326	1.310464	99
Es	-1.373654	-0.000998	0.966274	99
Es	0.465917	1.198598	-0.054371	99
Es	-0.635317	-0.004423	0.816330	99
Es	-1.560624	-0.608754	1.345032	99
Es	0.766048	0.009556	-1.383395	99
Es	0.687018	1.328120	0.093775	99
Es	-1.551771	0.599636	1.360309	99
Es	1.039432	-0.652836	-1.190603	99
Es	0.680550	-0.986633	-0.502288	99
Es	-1.755993	0.009824	0.333742	99
Es	0.194690	-1.312838	-0.182171	99
Es	0.662743	-1.348116	0.067316	99
Es	0.449868	-1.203480	-0.079715	99
Es	1.371497	0.002170	-1.068269	99
Es	0.332621	-0.740739	0.187961	99
Es	1.048121	0.664041	-1.176782	99
Es	1.302458	1.131600	-1.663828	99
Es	0.117156	-0.007935	0.667851	99
Es	0.339943	0.731933	0.201858	99
35
Properties=species:S:1:pos:R:3:Z:I:1 energy=-304.7519356424962 field_type=dipole dipole="0.000000 0.000000 0.000000" charge=0
C	-1.373682	-0.000998	0.966272	6
C	0.117058	-0.007938	0.668172	6
O	0.449808	-1.203828	-0.079618	8
C	1.039528	-0.652618	-1.190789	6
C	1.048218	0.663822	-1.176978	6
O	0.465888	1.198932	-0.054228	8
H	-1.652572	0.887362	1.541192	1
H	-1.665662	-0.899358	1.518692	1
H	-1.953142	0.014932	0.036412	1
H	0.689648	-0.021588	1.604012	1
H	1.408398	-1.339438	-1.930658	1
H	1.426508	1.360722	-1.902478	1
Es	0.212446	1.320056	-0.150988	99
Es	0.331377	-0.740693	0.187148	99
Es	0.117151	-0.007934	0.667858	99
Es	1.039425	-0.652831	-1.190606	99
Es	0.683785	1.330896	0.093689	99
Es	0.194774	-1.320159	-0.177960	99
Es	-1.373654	-0.000998	0.966274	99
Es	0.341296	0.731823	0.203137	99
Es	0.449845	-1.203589	-0.079694	99
Es	0.666999	-1.340881	0.065535	99
Es	-0.635294	-0.004455	0.816327	99
Es	-1.551756	0.599639	1.360269	99
Es	1.287537	-1.113526	-1.687450	99
Es	1.302534	1.131580	-1.663849	99
Es	0.466063	1.198548	-0.054317	99
Es	0.677507	-0.986555	-0.503926	99
Es	0.512441	-0.017341	1.310421	99
Es	0.691601	0.987711	-0.482519	99
Es	-1.560597	-0.608642	1.345092	99
Es	1.371339	0.002187	-1.068329	99
Es	0.766148	0.009545	-1.383229	99
Es	-1.756074	0.009744	0.333722	99
Es	1.048117	0.664036	-1.176786	99
35
Properties=species:S:1:pos:R:3:Z:I:1 energy=-304.7519356424962 field_type=dipole dipole="0.000000 0.000000 0.000000" charge=0
C	-1.373682	-0.000998	0.966272	6
C	0.117058	-0.007938	0.668172	6
O	0.449808	-1.203828	-0.079618	8
C	1.039528	-0.652618	-1.190789	6
C	1.048218	0.663822	-1.176978	6
O	0.465888	1.198932	-0.054228	8
H	-1.652572	0.887362	1.541192	1
H	-1.665662	-0.899358	1.518692	1
H	-1.953142	0.014932	0.036412	1
H	0.689648	-0.021588	1.604012	1
H	1.408398	-1.339438	-1.930658	1
H	1.426508	1.360722	-1.902478	1
Es	0.766272	0.009543	-1.383251	99
Es	-0.635276	-0.004375	0.816332	99
Es	0.465974	1.198572	-0.054331	99
Es	0.331606	-0.740513	0.187581	99
Es	1.039428	-0.652840	-1.190598	99
Es	1.371153	0.002190	-1.068337	99
Es	0.665563	-1.343295	0.065968	99
Es	0.117151	-0.007935	0.667850	99
Es	-1.373654	-0.000998	0.966274	99
Es	-1.560561	-0.608715	1.345101	99
Es	0.678367	-0.986797	-0.503426	99
Es	0.195105	-1.317864	-0.179238	99
Es	-1.756041	0.009739	0.333741	99
Es	-1.551796	0.599640	1.360258	99
Es	1.048126	0.664041	-1.176778	99
Es	0.690930	0.987892	-0.482927	99
Es	0.683953	1.332667	0.094405	99
Es	1.302530	1.131556	-1.663918	99
Es	0.449868	-1.203488	-0.079733	99
Es	0.213150	1.318243	-0.151070	99
Es	0.512389	-0.017324	1.310412	99
Es	0.341187	0.731725	0.202928	99
Es	1.287584	-1.113502	-1.687423	99
35
Properties=species:S:1:pos:R:3:Z:I:1 energy=-304.7519356424962 field_type=dipole dipole="0.000000 0.000000 0.000000" charge=0
C	-1.373682	-0.000998	0.966272	6
C	0.117058	-0.007938	0.668172	6
O	0.449808	-1.203828	-0.079618	8
C	1.039528	-0.652618	-1.190789	6
C	1.048218	0.663822	-1.176978	6
O	0.465888	1.198932	-0.054228	8
H	-1.652572	0.887362	1.541192	1
H	-1.665662	-0.899358	1.518692	1
H	-1.953142	0.014932	0.036412	1
H	0.689648	-0.021588	1.604012	1
H	1.408398	-1.339438	-1.930658	1
H	1.426508	1.360722	-1.902478	1
Es	1.048125	0.664037	-1.176782	99
Es	-1.373655	-0.000998	0.966275	99
Es	0.766360	0.009551	-1.383120	99
Es	0.213070	1.318513	-0.151033	99
Es	-1.756032	0.009677	0.333753	99
Es	1.302545	1.131527	-1.663936	99
Es	0.450052	-1.203422	-0.079666	99
Es	-1.560616	-0.608620	1.345111	99
Es	0.465943	1.198627	-0.054322	99
Es	0.117150	-0.007936	0.667856	99
Es	0.664317	-1.345059	0.066270	99
Es	0.512397	-0.017327	1.310349	99
Es	1.287571	-1.113482	-1.687471	99
Es	0.341347	0.731655	0.203192	99
Es	0.331389	-0.740501	0.187931	99
Es	0.683653	1.332307	0.094081	99
Es	-0.635265	-0.004449	0.816378	99
Es	1.371173	0.002174	-1.068347	99
Es	0.195810	-1.316131	-0.180040	99
Es	0.691143	0.988045	-0.482913	99
Es	-1.551810	0.599686	1.360217	99
Es	0.678920	-0.986875	-0.503362	99
Es	1.039422	-0.652837	-1.190602	99
35
Properties=species:S:1:pos:R:3:Z:I:1 energy=-304.7519356424962 field_type=dipole dipole="0.000000 0.000000 0.000000" charge=0
C	-1.373682	-0.000998	0.966272	6
C	0.117058	-0.007938	0.668172	6
O	0.449808	-1.203828	-0.079618	8
C	1.039528	-0.652618	-1.190789	6
C	1.048218	0.663822	-1.176978	6
O	0.465888	1.198932	-0.054228	8
H	-1.652572	0.887362	1.541192	1
H	-1.665662	-0.899358	1.518692	1
H	-1.953142	0.014932	0.036412	1
H	0.689648	-0.021588	1.604012	1
H	1.408398	-1.339438	-1.930658	1
H	1.426508	1.360722	-1.902478	1
Es	0.213680	1.321233	-0.149546	99
Es	0.684211	1.329596	0.093034	99
Es	0.117153	-0.007935	0.667856	99
Es	0.678229	-0.987067	-0.503710	99
Es	0.665643	-1.342482	0.065754	99
Es	0.340589	0.731691	0.203427	99
Es	-0.635260	-0.004483	0.816462	99
Es	0.690798	0.988130	-0.483515	99
Es	0.512383	-0.017329	1.310318	99
Es	-1.373655	-0.000997	0.966274	99
Es	1.048131	0.664042	-1.176781	99
Es	0.330852	-0.740307	0.187655	99
Es	1.039429	-0.652836	-1.190598	99
Es	0.195879	-1.318617	-0.178860	99
Es	1.371066	0.002182	-1.068383	99
Es	-1.551780	0.599664	1.360253	99
Es	-1.560626	-0.608632	1.345084	99
Es	0.449858	-1.203526	-0.079697	99
Es	0.766495	0.009519	-1.383008	99
Es	1.287554	-1.113478	-1.687510	99
Es	1.302506	1.131500	-1.664021	99
Es	-1.756030	0.009724	0.333710	99
Es	0.465903	1.198571	-0.054379	99
35
Properties=species:S:1:pos:R:3:Z:I:1 energy=-304.7519356424962 field_type=dipole dipole="0.000000 0.000000 0.000000" charge=0
C	-1.373682	-0.000998	0.966272	6
C	0.117058	-0.007938	0.668172	6
O	0.449808	-1.203828	-0.079618	8
C	1.039528	-0.652618	-1.190789	6
C	1.048218	0.663822	-1.176978	6
O	0.465888	1.198932	-0.054228	8
H	-1.652572	0.887362	1.541192	1
H	-1.665662	-0.899358	1.518692	1
H	-1.953142	0.014932	0.036412	1
H	0.689648	-0.021588	1.604012	1
H	1.408398	-1.339438	-1.930658	1
H	1.426508	1.360722	-1.902478	1
Es	0.465913	1.198596	-0.054305	99
Es	0.331336	-0.740519	0.188217	99
Es	-1.560601	-0.608677	1.345096	99
Es	1.287625	-1.113448	-1.687537	99
Es	0.678293	-0.986917	-0.503718	99
Es	1.039428	-0.652834	-1.190600	99
Es	0.196141	-1.316568	-0.179481	99
Es	-0.635227	-0.004438	0.816417	99
Es	0.512320	-0.017320	1.310306	99
Es	-1.373655	-0.000998	0.966275	99
Es	1.048123	0.664031	-1.176786	99
Es	0.766542	0.009541	-1.382962	99
Es	-1.551789	0.599645	1.360248	99
Es	1.370920	0.002191	-1.068401	99
Es	1.302586	1.131488	-1.663996	99
Es	0.685074	1.327774	0.091874	99
Es	0.117152	-0.007938	0.667857	99
Es	-1.756046	0.009735	0.333750	99
Es	0.664847	-1.344606	0.065831	99
Es	0.689994	0.987978	-0.483693	99
Es	0.213484	1.323173	-0.148637	99
Es	0.340676	0.731761	0.203778	99
Es	0.449871	-1.203488	-0.079714	99
35
Properties=species:S:1:pos:R:3:Z:I:1 energy=-304.7519356424962 field_type=dipole dipole="0.000000 0.000000 0.000000" charge=0
C	-1.373682	-0.000998	0.966272	6
C	0.117058	-0.007938	0.668172	6
O	0.449808	-1.203828	-0.079618	8
C	1.039528	-0.652618	-1.190789	6
C	1.048218	0.663822	-1.176978	6
O	0.465888	1.198932	-0.054228	8
H	-1.652572	0.887362	1.541192	1
H	-1.665662	-0.899358	1.518692	1
H	-1.953142	0.014932	0.036412	1
H	0.689648	-0.021588	1.604012	1
H	1.408398	-1.339438	-1.930658	1
H	1.426508	1.360722	-1.902478	1
Es	-1.756130	0.009743	0.333703	99
Es	-1.551725	0.599609	1.360258	99
Es	0.330149	-0.740444	0.187906	99
Es	0.691034	0.988270	-0.483318	99
Es	0.196771	-1.319919	-0.177729	99
Es	-0.635221	-0.004458	0.816530	99
Es	1.048121	0.664037	-1.176783	99
Es	0.677321	-0.986970	-0.504381	99
Es	0.341106	0.731631	0.203985	99
Es	-1.373655	-0.000998	0.966274	99
Es	1.287611	-1.113443	-1.687490	99
Es	0.666356	-1.341220	0.065102	99
Es	1.370863	0.002196	-1.068510	99
Es	0.449862	-1.203568	-0.079708	99
Es	1.039430	-0.652845	-1.190600	99
Es	0.213710	1.319734	-0.150197	99
Es	0.465938	1.198628	-0.054385	99
Es	0.512336	-0.017329	1.310218	99
Es	0.117150	-0.007935	0.667854	99
Es	-1.560589	-0.608607	1.345120	99
Es	1.302547	1.131446	-1.664063	99
Es	0.683377	1.331081	0.092959	99
Es	0.766648	0.009522	-1.382922	99
35
Properties=species:S:1:pos:R:3:Z:I:1 energy=-304.7519356424962 field_type=dipole dipole="0.000000 0.000000 0.000000" charge=0
C	-1.373682	-0.000998	0.966272	6
C	0.117058	-0.007938	0.668172	6
O	0.449808	-1.203828	-0.079618	8
C	1.039528	-0.652618	-1.190789	6
C	1.048218	0.663822	-1.176978	6
O	0.465888	1.198932	-0.054228	8
H	-1.652572	0.887362	1.541192	1
H	-1.665662	-0.899358	1.518692	1
H	-1.953142	0.014932	0.036412	1
H	0.689648	-0.021588	1.604012	1
H	1.408398	-1.339438	-1.930658	1
H	1.426508	1.360722	-1.902478	1
Es	0.117151	-0.007935	0.667858	99
Es	-1.756066	0.009716	0.333733	99
Es	-1.560598	-0.608627	1.345070	99
Es	0.214006	1.324685	-0.147587	99
Es	0.512298	-0.017327	1.310194	99
Es	-0.635209	-0.004466	0.816536	99
Es	-1.373655	-0.000998	0.966274	99
Es	0.678308	-0.987193	-0.504117	99
Es	0.449905	-1.203441	-0.079720	99
Es	0.340138	0.731621	0.203639	99
Es	0.466032	1.198534	-0.054321	99
Es	0.664745	-1.342466	0.064671	99
Es	1.302607	1.131434	-1.664044	99
Es	0.766749	0.009543	-1.382841	99
Es	-1.551795	0.599641	1.360271	99
Es	1.370735	0.002179	-1.068523	99
Es	0.685515	1.326302	0.091432	99
Es	1.039428	-0.652838	-1.190599	99
Es	0.196083	-1.318633	-0.178349	99
Es	0.689451	0.988245	-0.484106	99
Es	0.331462	-0.740461	0.188728	99
Es	1.287597	-1.113393	-1.687597	99
Es	1.048123	0.664042	-1.176783	99
35
Properties=species:S:1:pos:R:3:Z:I:1 energy=-304.7519356424962 field_type=dipole dipole="0.000000 0.000000 0.000000" charge=0
C	-1.373682	-0.000998	0.966272	6
C	0.117058	-0.007938	0.668172	6
O	0.449808	-1.203828	-0.079618	8
C	1.039528	-0.652618	-1.190789	6
C	1.048218	0.663822	-1.176978	6
O	0.465888	1.198932	-0.054228	8
H	-1.652572	0.887362	1.541192	1
H	-1.665662	-0.899358	1.518692	1
H	-1.953142	0.014932	0.036412	1
H	0.689648	-0.021588	1.604012	1
H	1.408398	-1.339438	-1.930658	1
H	1.426508	1.360722	-1.902478	1
Es	0.690577	0.988433	-0.483733	99
Es	1.287644	-1.113419	-1.687582	99
Es	0.766828	0.009524	-1.382746	99
Es	-0.635197	-0.004488	0.816668	99
Es	0.677839	-0.987041	-0.504619	99
Es	0.512286	-0.017328	1.310090	99
Es	-1.560588	-0.608564	1.345062	99
Es	-1.756107	0.009709	0.333687	99
Es	0.449958	-1.203459	-0.079679	99
Es	1.048121	0.664036	-1.176784	99
Es	0.465938	1.198547	-0.054344	99
Es	-1.551791	0.599614	1.360284	99
Es	1.302496	1.131425	-1.664124	99
Es	0.331678	-0.740671	0.189454	99
Es	0.684384	1.328449	0.092707	99
Es	0.196104	-1.319968	-0.177401	99
Es	1.039433	-0.652834	-1.190599	99
Es	-1.373654	-0.000999	0.966274	99
Es	0.214741	1.322428	-0.149015	99
Es	0.339517	0.731582	0.203468	99
Es	1.370718	0.002187	-1.068571	99
Es	0.117153	-0.007935	0.667856	99
Es	0.664930	-1.341067	0.063467	99
35
Properties=species:S:1:pos:R:3:Z:I:1 energy=-304.7519356424962 field_type=dipole dipole="0.000000 0.000000 0.000000" charge=0
C	-1.373682	-0.000998	0.966272	6
C	0.117058	-0.007938	0.668172	6
O	0.449808	-1.203828	-0.079618	8
C	1.039528	-0.652618	-1.190789	6
C	1.048218	0.663822	-1.176978	6
O	0.465888	1.198932	-0.054228	8
H	-1.652572	0.887362	1.541192	1
H	-1.665662	-0.899358	1.518692	1
H	-1.953142	0.014932	0.036412	1
H	0.689648	-0.021588	1.604012	1
H	1.408398	-1.339438	-1.930658	1
H	1.426508	1.360722	-1.902478	1
Es	1.287658	-1.113360	-1.687629	99
Es	0.117151	-0.007935	0.667860	99
Es	0.766882	0.009531	-1.382691	99
Es	0.214805	1.320574	-0.149945	99
Es	0.679032	-0.987321	-0.503819	99
Es	-0.635197	-0.004447	0.816592	99
Es	-1.560594	-0.608626	1.345084	99
Es	0.331007	-0.740454	0.189104	99
Es	-1.373655	-0.000998	0.966275	99
Es	0.465886	1.198609	-0.054372	99
Es	0.449887	-1.203505	-0.079703	99
Es	0.340237	0.731562	0.204510	99
Es	0.512257	-0.017325	1.310118	99
Es	-1.551786	0.599624	1.360261	99
Es	1.039428	-0.652835	-1.190600	99
Es	0.663715	-1.343936	0.064990	99
Es	-1.756084	0.009728	0.333728	99
Es	1.302608	1.131393	-1.664116	99
Es	0.691149	0.988471	-0.483423	99
Es	1.048121	0.664036	-1.176784	99
Es	1.370545	0.002190	-1.068602	99
Es	0.196861	-1.317081	-0.179351	99
Es	0.683097	1.330263	0.092333	99
35
Properties=species:S:1:pos:R:3:Z:I:1 energy=-304.7519356424962 field_type=dipole dipole="0.000000 0.000000 0.000000" charge=0
C	-1.373682	-0.000998	0.966272	6
C	0.117058	-0.007938	0.668172	6
O	0.449808	-1.203828	-0.079618	8
C	1.039528	-0.652618	-1.190789	6
C	1.048218	0.663822	-1.176978	6
O	0.465888	1.198932	-0.054228	8
H	-1.652572	0.887362	1.541192	1
H	-1.665662	-0.899358	1.518692	1
H	-1.953142	0.014932	0.036412	1
H	0.689648	-0.021588	1.604012	1
H	1.408398	-1.339438	-1.930658	1
H	1.426508	1.360722	-1.902478	1
Es	1.287666	-1.113350	-1.687658	99
Es	0.512229	-0.017324	1.310073	99
Es	0.197308	-1.317508	-0.178280	99
Es	0.117150	-0.007935	0.667861	99
Es	0.677694	-0.987301	-0.504588	99
Es	-1.373655	-0.000998	0.966275	99
Es	0.339693	0.731612	0.204277	99
Es	0.766978	0.009528	-1.382617	99
Es	-1.560603	-0.608634	1.345093	99
Es	0.449919	-1.203500	-0.079684	99
Es	-1.756084	0.009733	0.333732	99
Es	1.370449	0.002193	-1.068616	99
Es	0.683171	1.329738	0.092493	99
Es	1.048121	0.664036	-1.176784	99
Es	1.039428	-0.652835	-1.190600	99
Es	0.465814	1.198527	-0.054437	99
Es	0.664538	-1.343546	0.064391	99
Es	-0.635190	-0.004448	0.816624	99
Es	1.302619	1.131390	-1.664147	99
Es	0.691297	0.988472	-0.483504	99
Es	0.215209	1.321172	-0.149720	99
Es	-1.551783	0.599619	1.360248	99
Es	0.331041	-0.740480	0.189388	99
35
Properties=species:S:1:pos:R:3:Z:I:1 energy=-304.7519356424962 field_type=dipole dipole="0.000000 0.000000 0.000000" charge=0
C	-1.373682	-0.000998	0.966272	6
C	0.117058	-0.007938	0.668172	6
O	0.449808	-1.203828	-0.079618	8
C	1.039528	-0.652618	-1.190789	6
C	1.048218	0.663822	-1.176978	6
O	0.465888	1.198932	-0.054228	8
H	-1.652572	0.887362	1.541192	1
H	-1.665662	-0.899358	1.518692	1
H	-1.953142	0.014932	0.036412	1
H	0.689648	-0.021588	1.604012	1
H	1.408398	-1.339438	-1.930658	1
H	1.426508	1.360722	-1.902478	1
Es	0.512220	-0.017325	1.310038	99
Es	1.048122	0.664035	-1.176784	99
Es	-1.756128	0.009705	0.333746	99
Es	0.690615	0.988930	-0.483947	99
Es	0.663414	-1.344011	0.064751	99
Es	-1.560571	-0.608606	1.345100	99
Es	1.287682	-1.113307	-1.687683	99
Es	0.197256	-1.316976	-0.179170	99
Es	1.370339	0.002186	-1.068661	99
Es	-1.373656	-0.000998	0.966275	99
Es	0.767056	0.009534	-1.382556	99
Es	1.302633	1.131373	-1.664165	99
Es	0.117150	-0.007935	0.667862	99
Es	0.465916	1.198628	-0.054335	99
Es	1.039429	-0.652834	-1.190600	99
Es	-0.635190	-0.004442	0.816617	99
Es	0.678998	-0.987555	-0.503999	99
Es	-1.551780	0.599617	1.360256	99
Es	0.215284	1.321208	-0.149113	99
Es	0.339989	0.731276	0.204477	99
Es	0.683382	1.329516	0.092040	99
Es	0.330968	-0.740364	0.189383	99
Es	0.449879	-1.203492	-0.079712	99
35
Properties=species:S:1:pos:R:3:Z:I:1 energy=-304.7519356424962 field_type=dipole dipole="0.000000 0.000000 0.000000" charge=0
C	-1.373682	-0.000998	0.966272	6
C	0.117058	-0.007938	0.668172	6
O	0.449808	-1.203828	-0.079618	8
C	1.039528	-0.652618	-1.190789	6
C	1.048218	0.663822	-1.176978	6
O	0.465888	1.198932	-0.054228	8
H	-1.652572	0.887362	1.541192	1
H	-1.665662	-0.899358	1.518692	1
H	-1.953142	0.014932	0.036412	1
H	0.689648	-0.021588	1.604012	1
H	1.408398	-1.339438	-1.930658	1
H	1.426508	1.360722	-1.902478	1
Es	1.302603	1.131334	-1.664212	99
Es	-1.756102	0.009697	0.333731	99
Es	0.197439	-1.318575	-0.177669	99
Es	0.512191	-0.017326	1.310005	99
Es	0.465945	1.198635	-0.054318	99
Es	0.117149	-0.007935	0.667863	99
Es	1.287637	-1.113286	-1.687739	99
Es	0.767113	0.009524	-1.382398	99
Es	0.680928	1.332747	0.092749	99
Es	-1.551801	0.599631	1.360264	99
Es	0.677661	-0.987579	-0.504816	99
Es	-1.373657	-0.000998	0.966275	99
Es	1.370348	0.002190	-1.068699	99
Es	0.214904	1.317912	-0.151479	99
Es	0.692699	0.988779	-0.482995	99
Es	0.340727	0.731567	0.205162	99
Es	1.048120	0.664031	-1.176786	99
Es	0.449871	-1.203523	-0.079699	99
Es	-1.560571	-0.608609	1.345083	99
Es	0.664507	-1.342407	0.063728	99
Es	1.039424	-0.652834	-1.190598	99
Es	-0.635178	-0.004448	0.816667	99
Es	0.331051	-0.740364	0.189702	99
35
Properties=species:S:1:pos:R:3:Z:I:1 energy=-304.7519356424962 field_type=dipole dipole="0.000000 0.000000 0.000000" charge=0
C	-1.373682	-0.000998	0.966272	6
C	0.117058	-0.007938	0.668172	6
O	0.449808	-1.203828	-0.079618	8
C	1.039528	-0.652618	-1.190789	6
C	1.048218	0.663822	-1.176978	6
O	0.465888	1.198932	-0.054228	8
H	-1.652572	0.887362	1.541192	1
H	-1.665662	-0.899358	1.518692	1
H	-1.953142	0.014932	0.036412	1
H	0.689648	-0.021588	1.604012	1
H	1.408398	-1.339438	-1.930658	1
H	1.426508	1.360722	-1.902478	1
Es	1.302695	1.131335	-1.664198	99
Es	0.691957	0.988896	-0.483455	99
Es	0.767214	0.009517	-1.382438	99
Es	-1.551800	0.599614	1.360250	99
Es	0.340545	0.731457	0.205130	99
Es	1.370104	0.002194	-1.068725	99
Es	-1.560603	-0.608613	1.345080	99
Es	0.197758	-1.317448	-0.178739	99
Es	1.048122	0.664034	-1.176784	99
Es	1.039429	-0.652833	-1.190600	99
Es	-1.373656	-0.000998	0.966275	99
Es	0.117149	-0.007936	0.667865	99
Es	0.512170	-0.017320	1.309969	99
Es	-1.756097	0.009725	0.333743	99
Es	0.215315	1.318369	-0.150718	99
Es	0.681467	1.332318	0.092543	99
Es	0.465937	1.198596	-0.054338	99
Es	0.678666	-0.987584	-0.504295	99
Es	0.663471	-1.343534	0.064275	99
Es	-0.635156	-0.004439	0.816693	99
Es	0.449928	-1.203492	-0.079679	99
Es	1.287706	-1.113283	-1.687745	99
Es	0.330689	-0.740415	0.189712	99
35
Properties=species:S:1:pos:R:3:Z:I:1 energy=-304.7519356424962 field_type=dipole dipole="0.000000 0.000000 0.000000" charge=0
C	-1.373682	-0.000998	0.966272	6
C	0.117058	-0.007938	0.668172	6
O	0.449808	-1.203828	-0.079618	8
C	1.039528	-0.652618	-1.190789	6
C	1.048218	0.663822	-1.176978	6
O	0.465888	1.198932	-0.054228	8
H	-1.652572	0.887362	1.541192	1
H	-1.665662	-0.899358	1.518692	1
H	-1.953142	0.014932	0.036412	1
H	0.689648	-0.021588	1.604012	1
H	1.408398	-1.339438	-1.930658	1
H	1.426508	1.360722	-1.902478	1
Es	1.048128	0.664028	-1.176779	99
Es	0.664718	-1.340916	0.063484	99
Es	0.677662	-0.987682	-0.504948	99
Es	1.370035	0.002193	-1.068726	99
Es	1.302701	1.131304	-1.664248	99
Es	1.039429	-0.652834	-1.190601	99
Es	0.198214	-1.320008	-0.177214	99
Es	-1.373656	-0.000998	0.966275	99
Es	0.215976	1.323528	-0.147957	99
Es	0.684323	1.327392	0.090897	99
Es	0.512167	-0.017327	1.309927	99
Es	0.330044	-0.740287	0.189648	99
Es	1.287774	-1.113291	-1.687656	99
Es	-0.635157	-0.004456	0.816756	99
Es	0.117148	-0.007936	0.667866	99
Es	-1.560558	-0.608589	1.345046	99
Es	0.465966	1.198580	-0.054330	99
Es	-1.551800	0.599581	1.360306	99
Es	0.339151	0.731799	0.204974	99
Es	-1.756133	0.009725	0.333701	99
Es	0.689771	0.988411	-0.484437	99
Es	0.449844	-1.203571	-0.079700	99
Es	0.767261	0.009514	-1.382465	99
