36
Properties=species:S:1:pos:R:3:Z:I:1 energy=-231.87925578052108 field_type=dipole dipole="0.000000 0.000000 0.000000" charge=0
C	-0.571107	-2.124362	-0.692650	6
C	-1.064407	-1.077931	-0.016970	6
C	-0.368217	0.191388	0.177780	6
C	-1.128137	1.269379	0.450720	6
C	1.088292	0.284819	0.281100	6
C	1.841233	1.344118	-0.044770	6
H	-1.154367	-3.032601	-0.801600	1
H	0.406193	-2.100711	-1.163460	1
H	-2.062727	-1.165151	0.409510	1
H	-2.213267	1.223559	0.442110	1
H	-0.698287	2.235359	0.692880	1
H	1.588993	-0.614071	0.638780	1
H	1.415293	2.262158	-0.434850	1
H	2.920513	1.304048	0.061420	1
Es	1.556939	1.967621	-0.308681	99
Es	1.088190	0.284730	0.281115	99
Es	-0.679784	-1.710864	-0.077508	99
Es	0.357976	0.228918	0.209818	99
Es	-1.128197	1.269468	0.450709	99
Es	1.418996	-0.325639	0.524624	99
Es	-0.961082	-2.742679	-0.770609	99
Es	-0.696158	-0.449464	0.074433	99
Es	-1.064422	-1.077827	-0.016914	99
Es	2.572052	1.323878	0.028677	99
Es	-0.936667	-1.476064	-0.621839	99
Es	1.477783	0.706492	-0.183904	99
Es	-0.368146	0.191286	0.177753	99
Es	-1.740762	-1.123845	0.273300	99
Es	-1.865886	1.237980	0.446136	99
Es	1.841282	1.344195	-0.044778	99
Es	-0.730854	0.655247	0.616583	99
Es	0.091463	-2.112816	-1.009248	99
Es	-0.839805	1.926879	0.611382	99
Es	1.426116	0.933988	0.418549	99
Es	-0.571066	-2.124443	-0.692696	99
Es	-0.747849	0.787936	-0.006121	99
36
Properties=species:S:1:pos:R:3:Z:I:1 energy=-231.87925578052108 field_type=dipole dipole="0.000000 0.000000 0.000000" charge=0
C	-0.571107	-2.124362	-0.692650	6
C	-1.064407	-1.077931	-0.016970	6
C	-0.368217	0.191388	0.177780	6
C	-1.128137	1.269379	0.450720	6
C	1.088292	0.284819	0.281100	6
C	1.841233	1.344118	-0.044770	6
H	-1.154367	-3.032601	-0.801600	1
H	0.406193	-2.100711	-1.163460	1
H	-2.062727	-1.165151	0.409510	1
H	-2.213267	1.223559	0.442110	1
H	-0.698287	2.235359	0.692880	1
H	1.588993	-0.614071	0.638780	1
H	1.415293	2.262158	-0.434850	1
H	2.920513	1.304048	0.061420	1
Es	-0.747923	0.787920	-0.006118	99
Es	-1.064425	-1.077826	-0.016923	99
Es	2.572003	1.323745	0.028524	99
Es	-0.839820	1.926899	0.611412	99
Es	1.419011	-0.325607	0.524663	99
Es	-0.368148	0.191290	0.177748	99
Es	1.426115	0.933988	0.418683	99
Es	1.557005	1.967636	-0.308870	99
Es	1.841279	1.344190	-0.044782	99
Es	0.091531	-2.112843	-1.009234	99
Es	-0.730827	0.655276	0.616542	99
Es	0.357878	0.229007	0.209667	99
Es	-0.679916	-1.710827	-0.077663	99
Es	1.088194	0.284731	0.281114	99
Es	-1.865919	1.237896	0.446167	99
Es	-0.961105	-2.742698	-0.770496	99
Es	-1.128200	1.269468	0.450717	99
Es	-0.695928	-0.449534	0.074486	99
Es	-0.936687	-1.476087	-0.621816	99
Es	-1.740768	-1.123778	0.273302	99
Es	-0.571064	-2.124446	-0.692696	99
Es	1.477833	0.706575	-0.183646	99
36
Properties=species:S:1:pos:R:3:Z:I:1 energy=-231.87925578052108 field_type=dipole dipole="0.000000 0.000000 0.000000" charge=0
C	-0.571107	-2.124362	-0.692650	6
C	-1.064407	-1.077931	-0.016970	6
C	-0.368217	0.191388	0.177780	6
C	-1.128137	1.269379	0.450720	6
C	1.088292	0.284819	0.281100	6
C	1.841233	1.344118	-0.044770	6
H	-1.154367	-3.032601	-0.801600	1
H	0.406193	-2.100711	-1.163460	1
H	-2.062727	-1.165151	0.409510	1
H	-2.213267	1.223559	0.442110	1
H	-0.698287	2.235359	0.692880	1
H	1.588993	-0.614071	0.638780	1
H	1.415293	2.262158	-0.434850	1
H	2.920513	1.304048	0.061420	1
Es	-1.064424	-1.077825	-0.016920	99
Es	-0.839726	1.926894	0.611460	99
Es	-0.936709	-1.476039	-0.621885	99
Es	-0.961007	-2.742794	-0.770549	99
Es	1.841281	1.344191	-0.044783	99
Es	1.419072	-0.325708	0.524660	99
Es	1.088194	0.284735	0.281121	99
Es	0.091465	-2.112775	-1.009134	99
Es	-0.571064	-2.124446	-0.692697	99
Es	2.572062	1.323760	0.028565	99
Es	-0.679866	-1.710784	-0.077706	99
Es	1.426117	0.933928	0.418495	99
Es	1.477754	0.706610	-0.183536	99
Es	-0.747921	0.787881	-0.006060	99
Es	-1.128196	1.269466	0.450716	99
Es	1.556972	1.967627	-0.308808	99
Es	-0.368149	0.191290	0.177756	99
Es	-1.865943	1.237899	0.446286	99
Es	0.357882	0.229058	0.209601	99
Es	-0.730801	0.655402	0.616338	99
Es	-1.740756	-1.123908	0.273328	99
Es	-0.696116	-0.449486	0.074530	99
36
Properties=species:S:1:pos:R:3:Z:I:1 energy=-231.87925578052108 field_type=dipole dipole="0.000000 0.000000 0.000000" charge=0
C	-0.571107	-2.124362	-0.692650	6
C	-1.064407	-1.077931	-0.016970	6
C	-0.368217	0.191388	0.177780	6
C	-1.128137	1.269379	0.450720	6
C	1.088292	0.284819	0.281100	6
C	1.841233	1.344118	-0.044770	6
H	-1.154367	-3.032601	-0.801600	1
H	0.406193	-2.100711	-1.163460	1
H	-2.062727	-1.165151	0.409510	1
H	-2.213267	1.223559	0.442110	1
H	-0.698287	2.235359	0.692880	1
H	1.588993	-0.614071	0.638780	1
H	1.415293	2.262158	-0.434850	1
H	2.920513	1.304048	0.061420	1
Es	2.572097	1.323738	0.028590	99
Es	-0.696102	-0.449381	0.074496	99
Es	0.357790	0.229023	0.209387	99
Es	1.419087	-0.325682	0.524689	99
Es	-1.865954	1.237934	0.446220	99
Es	-0.936696	-1.476091	-0.621816	99
Es	-1.064416	-1.077834	-0.016912	99
Es	-0.571067	-2.124441	-0.692695	99
Es	1.841281	1.344190	-0.044788	99
Es	1.477770	0.706617	-0.183456	99
Es	-0.839728	1.926868	0.611451	99
Es	1.088196	0.284734	0.281117	99
Es	-1.128195	1.269467	0.450711	99
Es	-1.740748	-1.123962	0.273323	99
Es	1.426143	0.933874	0.418354	99
Es	-0.679905	-1.710759	-0.077748	99
Es	-0.368143	0.191280	0.177765	99
Es	-0.730765	0.655346	0.616576	99
Es	1.556934	1.967651	-0.308779	99
Es	-0.747946	0.787935	-0.005992	99
Es	-0.961061	-2.742702	-0.770514	99
Es	0.091546	-2.112828	-1.009199	99
36
Properties=species:S:1:pos:R:3:Z:I:1 energy=-231.87925578052108 field_type=dipole dipole="0.000000 0.000000 0.000000" charge=0
C	-0.571107	-2.124362	-0.692650	6
C	-1.064407	-1.077931	-0.016970	6
C	-0.368217	0.191388	0.177780	6
C	-1.128137	1.269379	0.450720	6
C	1.088292	0.284819	0.281100	6
C	1.841233	1.344118	-0.044770	6
H	-1.154367	-3.032601	-0.801600	1
H	0.406193	-2.100711	-1.163460	1
H	-2.062727	-1.165151	0.409510	1
H	-2.213267	1.223559	0.442110	1
H	-0.698287	2.235359	0.692880	1
H	1.588993	-0.614071	0.638780	1
H	1.415293	2.262158	-0.434850	1
H	2.920513	1.304048	0.061420	1
Es	1.088202	0.284738	0.281113	99
Es	-1.064420	-1.077830	-0.016925	99
Es	-1.740753	-1.123920	0.273378	99
Es	1.426220	0.933790	0.418357	99
Es	-0.571067	-2.124441	-0.692697	99
Es	-0.839696	1.926892	0.611512	99
Es	-0.696120	-0.449494	0.074403	99
Es	-0.368150	0.191288	0.177762	99
Es	-0.747920	0.787893	-0.005778	99
Es	2.572114	1.323789	0.028507	99
Es	-0.936724	-1.476121	-0.621774	99
Es	1.556813	1.967566	-0.309024	99
Es	-1.866011	1.237841	0.446298	99
Es	0.357736	0.229237	0.209380	99
Es	1.477899	0.706629	-0.183089	99
Es	-1.128195	1.269465	0.450715	99
Es	-0.730740	0.655449	0.616243	99
Es	1.841281	1.344192	-0.044781	99
Es	-0.961053	-2.742757	-0.770467	99
Es	1.419091	-0.325698	0.524668	99
Es	0.091529	-2.112807	-1.009191	99
Es	-0.679916	-1.710727	-0.077830	99
36
Properties=species:S:1:pos:R:3:Z:I:1 energy=-231.87925578052108 field_type=dipole dipole="0.000000 0.000000 0.000000" charge=0
C	-0.571107	-2.124362	-0.692650	6
C	-1.064407	-1.077931	-0.016970	6
C	-0.368217	0.191388	0.177780	6
C	-1.128137	1.269379	0.450720	6
C	1.088292	0.284819	0.281100	6
C	1.841233	1.344118	-0.044770	6
H	-1.154367	-3.032601	-0.801600	1
H	0.406193	-2.100711	-1.163460	1
H	-2.062727	-1.165151	0.409510	1
H	-2.213267	1.223559	0.442110	1
H	-0.698287	2.235359	0.692880	1
H	1.588993	-0.614071	0.638780	1
H	1.415293	2.262158	-0.434850	1
H	2.920513	1.304048	0.061420	1
Es	0.091541	-2.112811	-1.009195	99
Es	-0.679904	-1.710724	-0.077807	99
Es	-1.064422	-1.077829	-0.016922	99
Es	-0.730775	0.655485	0.616112	99
Es	0.357830	0.229201	0.209504	99
Es	-1.128195	1.269464	0.450715	99
Es	-0.839656	1.926901	0.611537	99
Es	-1.740778	-1.123946	0.273336	99
Es	1.419188	-0.325748	0.524654	99
Es	1.477669	0.706728	-0.183227	99
Es	1.426171	0.933793	0.418247	99
Es	-0.696134	-0.449443	0.074363	99
Es	-1.866037	1.237809	0.446349	99
Es	-0.936691	-1.476154	-0.621714	99
Es	1.088196	0.284734	0.281117	99
Es	1.841281	1.344192	-0.044784	99
Es	-0.571066	-2.124441	-0.692695	99
Es	2.572148	1.323682	0.028504	99
Es	-0.368150	0.191292	0.177757	99
Es	-0.961051	-2.742743	-0.770469	99
Es	1.556895	1.967642	-0.308838	99
Es	-0.747940	0.787893	-0.005762	99
36
Properties=species:S:1:pos:R:3:Z:I:1 energy=-231.87925578052108 field_type=dipole dipole="0.000000 0.000000 0.000000" charge=0
C	-0.571107	-2.124362	-0.692650	6
C	-1.064407	-1.077931	-0.016970	6
C	-0.368217	0.191388	0.177780	6
C	-1.128137	1.269379	0.450720	6
C	1.088292	0.284819	0.281100	6
C	1.841233	1.344118	-0.044770	6
H	-1.154367	-3.032601	-0.801600	1
H	0.406193	-2.100711	-1.163460	1
H	-2.062727	-1.165151	0.409510	1
H	-2.213267	1.223559	0.442110	1
H	-0.698287	2.235359	0.692880	1
H	1.588993	-0.614071	0.638780	1
H	1.415293	2.262158	-0.434850	1
H	2.920513	1.304048	0.061420	1
Es	-0.936727	-1.476139	-0.621733	99
Es	-1.128195	1.269464	0.450715	99
Es	-0.747956	0.787908	-0.005634	99
Es	-0.368151	0.191293	0.177757	99
Es	1.477642	0.706749	-0.183151	99
Es	-0.571066	-2.124441	-0.692694	99
Es	-0.961033	-2.742765	-0.770419	99
Es	1.426189	0.933743	0.418153	99
Es	1.841281	1.344191	-0.044785	99
Es	0.091569	-2.112819	-1.009161	99
Es	2.572168	1.323660	0.028490	99
Es	-0.839627	1.926912	0.611525	99
Es	-0.730749	0.655502	0.616066	99
Es	1.556875	1.967652	-0.308837	99
Es	1.088196	0.284734	0.281117	99
Es	0.357811	0.229247	0.209472	99
Es	-1.740771	-1.123971	0.273373	99
Es	-1.064422	-1.077829	-0.016921	99
Es	1.419225	-0.325764	0.524668	99
Es	-0.696124	-0.449444	0.074343	99
Es	-1.866071	1.237784	0.446357	99
Es	-0.679944	-1.710690	-0.077921	99
36
Properties=species:S:1:pos:R:3:Z:I:1 energy=-231.87925578052108 field_type=dipole dipole="0.000000 0.000000 0.000000" charge=0
C	-0.571107	-2.124362	-0.692650	6
C	-1.064407	-1.077931	-0.016970	6
C	-0.368217	0.191388	0.177780	6
C	-1.128137	1.269379	0.450720	6
C	1.088292	0.284819	0.281100	6
C	1.841233	1.344118	-0.044770	6
H	-1.154367	-3.032601	-0.801600	1
H	0.406193	-2.100711	-1.163460	1
H	-2.062727	-1.165151	0.409510	1
H	-2.213267	1.223559	0.442110	1
H	-0.698287	2.235359	0.692880	1
H	1.588993	-0.614071	0.638780	1
H	1.415293	2.262158	-0.434850	1
H	2.920513	1.304048	0.061420	1
Es	1.426153	0.933773	0.418245	99
Es	0.091576	-2.112795	-1.009152	99
Es	-0.368143	0.191290	0.177759	99
Es	1.841281	1.344193	-0.044783	99
Es	1.556922	1.967626	-0.308918	99
Es	-0.730746	0.655694	0.615836	99
Es	1.419264	-0.325836	0.524574	99
Es	-0.839615	1.926896	0.611651	99
Es	-0.571069	-2.124438	-0.692703	99
Es	1.088177	0.284740	0.281110	99
Es	-1.128193	1.269459	0.450723	99
Es	1.477536	0.706865	-0.182927	99
Es	0.357844	0.229187	0.209437	99
Es	-0.961062	-2.742781	-0.770445	99
Es	-1.866083	1.237727	0.446478	99
Es	-0.747875	0.787890	-0.005756	99
Es	2.572216	1.323563	0.028419	99
Es	-1.740813	-1.123974	0.273325	99
Es	-1.064421	-1.077825	-0.016920	99
Es	-0.936647	-1.476197	-0.621603	99
Es	-0.679956	-1.710679	-0.077924	99
Es	-0.696228	-0.449403	0.074352	99
36
Properties=species:S:1:pos:R:3:Z:I:1 energy=-231.87925578052108 field_type=dipole dipole="0.000000 0.000000 0.000000" charge=0
C	-0.571107	-2.124362	-0.692650	6
C	-1.064407	-1.077931	-0.016970	6
C	-0.368217	0.191388	0.177780	6
C	-1.128137	1.269379	0.450720	6
C	1.088292	0.284819	0.281100	6
C	1.841233	1.344118	-0.044770	6
H	-1.154367	-3.032601	-0.801600	1
H	0.406193	-2.100711	-1.163460	1
H	-2.062727	-1.165151	0.409510	1
H	-2.213267	1.223559	0.442110	1
H	-0.698287	2.235359	0.692880	1
H	1.588993	-0.614071	0.638780	1
H	1.415293	2.262158	-0.434850	1
H	2.920513	1.304048	0.061420	1
Es	1.426216	0.933670	0.417995	99
Es	-0.730761	0.655562	0.615869	99
Es	-0.680011	-1.710635	-0.078058	99
Es	0.357788	0.229320	0.209422	99
Es	0.091604	-2.112812	-1.009115	99
Es	1.841280	1.344190	-0.044783	99
Es	1.477569	0.706846	-0.182905	99
Es	-0.961026	-2.742794	-0.770391	99
Es	-0.839584	1.926926	0.611634	99
Es	1.088194	0.284739	0.281131	99
Es	1.556820	1.967671	-0.308882	99
Es	-0.368152	0.191295	0.177754	99
Es	-1.866120	1.237709	0.446365	99
Es	-1.064422	-1.077831	-0.016922	99
Es	-0.696121	-0.449444	0.074293	99
Es	-1.740755	-1.124009	0.273426	99
Es	-1.128196	1.269461	0.450715	99
Es	2.572226	1.323586	0.028438	99
Es	-0.936748	-1.476159	-0.621716	99
Es	-0.747929	0.787930	-0.005458	99
Es	-0.571065	-2.124441	-0.692689	99
Es	1.419313	-0.325804	0.524659	99
36
Properties=species:S:1:pos:R:3:Z:I:1 energy=-231.87925578052108 field_type=dipole dipole="0.000000 0.000000 0.000000" charge=0
C	-0.571107	-2.124362	-0.692650	6
C	-1.064407	-1.077931	-0.016970	6
C	-0.368217	0.191388	0.177780	6
C	-1.128137	1.269379	0.450720	6
C	1.088292	0.284819	0.281100	6
C	1.841233	1.344118	-0.044770	6
H	-1.154367	-3.032601	-0.801600	1
H	0.406193	-2.100711	-1.163460	1
H	-2.062727	-1.165151	0.409510	1
H	-2.213267	1.223559	0.442110	1
H	-0.698287	2.235359	0.692880	1
H	1.588993	-0.614071	0.638780	1
H	1.415293	2.262158	-0.434850	1
H	2.920513	1.304048	0.061420	1
Es	-0.696147	-0.449375	0.074211	99
Es	-0.368151	0.191293	0.177757	99
Es	0.091614	-2.112783	-1.009138	99
Es	-0.936705	-1.476237	-0.621549	99
Es	1.088197	0.284735	0.281116	99
Es	-0.839539	1.926922	0.611620	99
Es	-0.961048	-2.742821	-0.770365	99
Es	-0.747972	0.787900	-0.005338	99
Es	-1.866159	1.237684	0.446459	99
Es	-1.740786	-1.124035	0.273369	99
Es	1.477564	0.706837	-0.182865	99
Es	1.556817	1.967674	-0.308885	99
Es	0.357787	0.229375	0.209362	99
Es	-1.064421	-1.077831	-0.016923	99
Es	-1.128194	1.269463	0.450715	99
Es	2.572201	1.323601	0.028422	99
Es	-0.680016	-1.710618	-0.078107	99
Es	-0.730718	0.655633	0.615760	99
Es	1.419344	-0.325823	0.524640	99
Es	1.841282	1.344193	-0.044784	99
Es	-0.571069	-2.124434	-0.692690	99
Es	1.426242	0.933625	0.417992	99
