40
Properties=species:S:1:pos:R:3:Z:I:1 energy=-270.0820224725894 field_type=dipole dipole="0.000000 0.000000 0.000000" charge=0
C	-0.025391	-2.415202	-0.635473	6
C	-0.737621	-1.170662	-0.131493	6
C	0.226068	-0.062322	0.144977	6
O	0.596469	0.709128	-1.006573	8
C	-0.188971	1.378328	-0.010103	6
C	0.526369	2.465648	0.706927	6
H	-0.745201	-3.217912	-0.821893	1
H	0.705109	-2.773022	0.097367	1
H	0.509449	-2.209672	-1.568433	1
H	-1.276151	-1.410462	0.792577	1
H	-1.487921	-0.861012	-0.868853	1
H	0.994299	-0.317422	0.863167	1
H	-1.215151	1.620808	-0.247273	1
H	1.576319	2.215378	0.894147	1
H	0.045829	2.659238	1.671247	1
H	0.496499	3.389158	0.119687	1
Es	0.336044	-2.273662	-1.267432	99
Es	0.226130	-0.062129	0.144729	99
Es	-0.188787	1.378182	-0.010305	99
Es	-0.518497	-2.961464	-0.760493	99
Es	0.174993	1.919980	0.353820	99
Es	-0.256590	-0.612112	0.004796	99
Es	-0.375427	-1.789191	-0.380853	99
Es	0.501051	3.087949	0.305741	99
Es	-0.099585	0.649520	0.287682	99
Es	0.192154	2.593207	1.358957	99
Es	0.472813	-2.655503	-0.129419	99
Es	0.889279	0.811152	-0.979015	99
Es	-1.098591	-1.331862	0.505788	99
Es	0.759496	-0.236186	0.630297	99
Es	0.596281	0.709101	-1.006285	99
Es	0.520753	0.335050	-0.609039	99
Es	0.290796	1.046555	-0.697262	99
Es	-0.737584	-1.170674	-0.131483	99
Es	0.417826	0.617866	-1.243184	99
Es	-0.891166	1.541120	-0.180333	99
Es	-0.025408	-2.415179	-0.635453	99
Es	0.526346	2.465640	0.706929	99
Es	-1.245684	-0.952913	-0.632294	99
Es	1.233813	2.288725	0.833933	99
40
Properties=species:S:1:pos:R:3:Z:I:1 energy=-270.0820224725894 field_type=dipole dipole="0.000000 0.000000 0.000000" charge=0
C	-0.025391	-2.415202	-0.635473	6
C	-0.737621	-1.170662	-0.131493	6
C	0.226068	-0.062322	0.144977	6
O	0.596469	0.709128	-1.006573	8
C	-0.188971	1.378328	-0.010103	6
C	0.526369	2.465648	0.706927	6
H	-0.745201	-3.217912	-0.821893	1
H	0.705109	-2.773022	0.097367	1
H	0.509449	-2.209672	-1.568433	1
H	-1.276151	-1.410462	0.792577	1
H	-1.487921	-0.861012	-0.868853	1
H	0.994299	-0.317422	0.863167	1
H	-1.215151	1.620808	-0.247273	1
H	1.576319	2.215378	0.894147	1
H	0.045829	2.659238	1.671247	1
H	0.496499	3.389158	0.119687	1
Es	0.192172	2.593188	1.358920	99
Es	0.522113	0.335104	-0.608036	99
Es	0.526346	2.465639	0.706929	99
Es	-0.025408	-2.415179	-0.635452	99
Es	0.472757	-2.655511	-0.129516	99
Es	1.233770	2.288707	0.833976	99
Es	-1.098535	-1.331763	0.505784	99
Es	0.888428	0.810464	-0.981550	99
Es	0.759381	-0.236068	0.630304	99
Es	0.416471	0.617239	-1.241680	99
Es	0.501126	3.087999	0.305818	99
Es	0.226133	-0.062142	0.144730	99
Es	-0.737584	-1.170674	-0.131483	99
Es	-0.188785	1.378181	-0.010306	99
Es	-0.518564	-2.961500	-0.760487	99
Es	0.174959	1.919983	0.353784	99
Es	-0.375343	-1.789229	-0.380846	99
Es	-0.891029	1.541138	-0.180277	99
Es	0.336083	-2.273699	-1.267394	99
Es	0.596291	0.709096	-1.006318	99
Es	-0.099877	0.649591	0.287726	99
Es	0.291756	1.047715	-0.697342	99
Es	-0.256487	-0.612238	0.004747	99
Es	-1.245721	-0.952868	-0.632211	99
40
Properties=species:S:1:pos:R:3:Z:I:1 energy=-270.0820224725894 field_type=dipole dipole="0.000000 0.000000 0.000000" charge=0
C	-0.025391	-2.415202	-0.635473	6
C	-0.737621	-1.170662	-0.131493	6
C	0.226068	-0.062322	0.144977	6
O	0.596469	0.709128	-1.006573	8
C	-0.188971	1.378328	-0.010103	6
C	0.526369	2.465648	0.706927	6
H	-0.745201	-3.217912	-0.821893	1
H	0.705109	-2.773022	0.097367	1
H	0.509449	-2.209672	-1.568433	1
H	-1.276151	-1.410462	0.792577	1
H	-1.487921	-0.861012	-0.868853	1
H	0.994299	-0.317422	0.863167	1
H	-1.215151	1.620808	-0.247273	1
H	1.576319	2.215378	0.894147	1
H	0.045829	2.659238	1.671247	1
H	0.496499	3.389158	0.119687	1
Es	0.501066	3.087983	0.305772	99
Es	-1.245711	-0.952846	-0.632167	99
Es	0.887804	0.810650	-0.980282	99
Es	0.759346	-0.236129	0.630224	99
Es	0.226134	-0.062141	0.144731	99
Es	0.472807	-2.655561	-0.129491	99
Es	0.526346	2.465640	0.706929	99
Es	0.418374	0.616601	-1.242251	99
Es	-0.518401	-2.961468	-0.760554	99
Es	-0.256507	-0.612232	0.004716	99
Es	-0.375479	-1.789272	-0.380867	99
Es	-0.890952	1.541163	-0.180281	99
Es	-0.737588	-1.170673	-0.131481	99
Es	-0.025407	-2.415179	-0.635452	99
Es	1.233799	2.288740	0.833963	99
Es	0.596294	0.709104	-1.006251	99
Es	0.174951	1.919968	0.353743	99
Es	-0.099904	0.649459	0.288027	99
Es	0.336034	-2.273703	-1.267358	99
Es	0.290509	1.048100	-0.698425	99
Es	0.192163	2.593183	1.358928	99
Es	-0.188788	1.378183	-0.010301	99
Es	-1.098530	-1.331712	0.505777	99
Es	0.522093	0.335317	-0.607828	99
40
Properties=species:S:1:pos:R:3:Z:I:1 energy=-270.0820224725894 field_type=dipole dipole="0.000000 0.000000 0.000000" charge=0
C	-0.025391	-2.415202	-0.635473	6
C	-0.737621	-1.170662	-0.131493	6
C	0.226068	-0.062322	0.144977	6
O	0.596469	0.709128	-1.006573	8
C	-0.188971	1.378328	-0.010103	6
C	0.526369	2.465648	0.706927	6
H	-0.745201	-3.217912	-0.821893	1
H	0.705109	-2.773022	0.097367	1
H	0.509449	-2.209672	-1.568433	1
H	-1.276151	-1.410462	0.792577	1
H	-1.487921	-0.861012	-0.868853	1
H	0.994299	-0.317422	0.863167	1
H	-1.215151	1.620808	-0.247273	1
H	1.576319	2.215378	0.894147	1
H	0.045829	2.659238	1.671247	1
H	0.496499	3.389158	0.119687	1
Es	0.472758	-2.655574	-0.129550	99
Es	-1.245770	-0.952823	-0.632073	99
Es	-0.518415	-2.961463	-0.760508	99
Es	0.596346	0.709125	-1.006373	99
Es	-0.256584	-0.612113	0.004776	99
Es	0.417464	0.617022	-1.241518	99
Es	0.759344	-0.236207	0.630181	99
Es	-0.375418	-1.789246	-0.380909	99
Es	1.233798	2.288743	0.833913	99
Es	0.291532	1.049011	-0.697943	99
Es	0.526346	2.465640	0.706929	99
Es	0.501050	3.087989	0.305807	99
Es	0.174918	1.919997	0.353732	99
Es	0.522490	0.334861	-0.607835	99
Es	-0.737584	-1.170673	-0.131485	99
Es	-0.890899	1.541143	-0.180257	99
Es	0.887235	0.809793	-0.981490	99
Es	-0.025407	-2.415180	-0.635454	99
Es	0.226136	-0.062148	0.144732	99
Es	-1.098460	-1.331684	0.505728	99
Es	-0.188788	1.378183	-0.010301	99
Es	-0.099881	0.649422	0.288118	99
Es	0.192181	2.593155	1.358963	99
Es	0.336061	-2.273799	-1.267360	99
40
Properties=species:S:1:pos:R:3:Z:I:1 energy=-270.0820224725894 field_type=dipole dipole="0.000000 0.000000 0.000000" charge=0
C	-0.025391	-2.415202	-0.635473	6
C	-0.737621	-1.170662	-0.131493	6
C	0.226068	-0.062322	0.144977	6
O	0.596469	0.709128	-1.006573	8
C	-0.188971	1.378328	-0.010103	6
C	0.526369	2.465648	0.706927	6
H	-0.745201	-3.217912	-0.821893	1
H	0.705109	-2.773022	0.097367	1
H	0.509449	-2.209672	-1.568433	1
H	-1.276151	-1.410462	0.792577	1
H	-1.487921	-0.861012	-0.868853	1
H	0.994299	-0.317422	0.863167	1
H	-1.215151	1.620808	-0.247273	1
H	1.576319	2.215378	0.894147	1
H	0.045829	2.659238	1.671247	1
H	0.496499	3.389158	0.119687	1
Es	-0.375403	-1.789253	-0.380888	99
Es	-0.890796	1.541120	-0.180261	99
Es	0.759260	-0.236159	0.630103	99
Es	0.596356	0.709131	-1.006318	99
Es	0.174868	1.920048	0.353682	99
Es	1.233782	2.288723	0.833962	99
Es	-0.188787	1.378182	-0.010302	99
Es	-1.245690	-0.952811	-0.632085	99
Es	0.226134	-0.062141	0.144731	99
Es	0.887016	0.810253	-0.982428	99
Es	0.192153	2.593178	1.358937	99
Es	-0.737585	-1.170675	-0.131483	99
Es	-1.098540	-1.331656	0.505745	99
Es	0.291101	1.048895	-0.697870	99
Es	-0.256560	-0.612193	0.004794	99
Es	0.417446	0.617171	-1.240609	99
Es	-0.100001	0.649485	0.288329	99
Es	0.336046	-2.273793	-1.267349	99
Es	0.526346	2.465640	0.706929	99
Es	0.472772	-2.655583	-0.129578	99
Es	-0.025407	-2.415179	-0.635453	99
Es	0.523240	0.334276	-0.608013	99
Es	-0.518384	-2.961473	-0.760521	99
Es	0.501087	3.087988	0.305768	99
40
Properties=species:S:1:pos:R:3:Z:I:1 energy=-270.0820224725894 field_type=dipole dipole="0.000000 0.000000 0.000000" charge=0
C	-0.025391	-2.415202	-0.635473	6
C	-0.737621	-1.170662	-0.131493	6
C	0.226068	-0.062322	0.144977	6
O	0.596469	0.709128	-1.006573	8
C	-0.188971	1.378328	-0.010103	6
C	0.526369	2.465648	0.706927	6
H	-0.745201	-3.217912	-0.821893	1
H	0.705109	-2.773022	0.097367	1
H	0.509449	-2.209672	-1.568433	1
H	-1.276151	-1.410462	0.792577	1
H	-1.487921	-0.861012	-0.868853	1
H	0.994299	-0.317422	0.863167	1
H	-1.215151	1.620808	-0.247273	1
H	1.576319	2.215378	0.894147	1
H	0.045829	2.659238	1.671247	1
H	0.496499	3.389158	0.119687	1
Es	0.336041	-2.273825	-1.267324	99
Es	-1.098522	-1.331638	0.505752	99
Es	-0.375401	-1.789226	-0.380901	99
Es	0.526346	2.465640	0.706929	99
Es	-0.100091	0.649482	0.288490	99
Es	0.192145	2.593191	1.358941	99
Es	0.226134	-0.062141	0.144731	99
Es	-0.256556	-0.612225	0.004812	99
Es	-0.737585	-1.170675	-0.131483	99
Es	1.233784	2.288708	0.833962	99
Es	0.290801	1.049079	-0.698333	99
Es	-1.245699	-0.952776	-0.632061	99
Es	0.886749	0.810004	-0.981013	99
Es	0.596334	0.709116	-1.006315	99
Es	0.501102	3.087976	0.305765	99
Es	0.759221	-0.236163	0.630038	99
Es	-0.518350	-2.961476	-0.760533	99
Es	0.174830	1.920079	0.353654	99
Es	0.472769	-2.655602	-0.129611	99
Es	-0.890720	1.541113	-0.180243	99
Es	-0.025407	-2.415179	-0.635453	99
Es	0.522460	0.333701	-0.608398	99
Es	0.418857	0.617830	-1.241284	99
Es	-0.188787	1.378181	-0.010302	99
40
Properties=species:S:1:pos:R:3:Z:I:1 energy=-270.0820224725894 field_type=dipole dipole="0.000000 0.000000 0.000000" charge=0
C	-0.025391	-2.415202	-0.635473	6
C	-0.737621	-1.170662	-0.131493	6
C	0.226068	-0.062322	0.144977	6
O	0.596469	0.709128	-1.006573	8
C	-0.188971	1.378328	-0.010103	6
C	0.526369	2.465648	0.706927	6
H	-0.745201	-3.217912	-0.821893	1
H	0.705109	-2.773022	0.097367	1
H	0.509449	-2.209672	-1.568433	1
H	-1.276151	-1.410462	0.792577	1
H	-1.487921	-0.861012	-0.868853	1
H	0.994299	-0.317422	0.863167	1
H	-1.215151	1.620808	-0.247273	1
H	1.576319	2.215378	0.894147	1
H	0.045829	2.659238	1.671247	1
H	0.496499	3.389158	0.119687	1
Es	0.501103	3.087988	0.305763	99
Es	0.290374	1.049430	-0.698829	99
Es	-1.245666	-0.952767	-0.632021	99
Es	-0.188787	1.378181	-0.010302	99
Es	-0.375403	-1.789255	-0.380899	99
Es	-0.890656	1.541108	-0.180228	99
Es	0.472760	-2.655611	-0.129642	99
Es	0.759169	-0.236158	0.629982	99
Es	0.192145	2.593175	1.358955	99
Es	0.596567	0.709245	-1.005899	99
Es	-0.518313	-2.961481	-0.760535	99
Es	1.233769	2.288713	0.833954	99
Es	-0.737585	-1.170675	-0.131483	99
Es	0.174813	1.920086	0.353636	99
Es	-1.098546	-1.331579	0.505729	99
Es	-0.025407	-2.415179	-0.635453	99
Es	0.885682	0.810058	-0.982443	99
Es	0.336042	-2.273858	-1.267310	99
Es	-0.100164	0.649472	0.288632	99
Es	0.523461	0.333740	-0.607850	99
Es	-0.256552	-0.612234	0.004822	99
Es	0.526346	2.465640	0.706929	99
Es	0.226134	-0.062138	0.144729	99
Es	0.419168	0.617272	-1.240418	99
