43
Properties=species:S:1:pos:R:3:Z:I:1 energy=-271.29006081898325 field_type=dipole dipole="0.000000 0.000000 0.000000" charge=0
C	-2.286562	-1.282481	-0.114359	6
C	-0.767452	-1.214251	-0.107909	6
C	-0.272962	0.234769	-0.102809	6
C	1.256758	0.322599	-0.119509	6
C	1.732578	1.768199	-0.169679	6
O	1.795918	-0.295231	1.045841	8
H	-2.619152	-2.325311	-0.118729	1
H	-2.698202	-0.790971	-1.001809	1
H	-2.704792	-0.796461	0.773091	1
H	-0.380613	-1.735061	-0.991249	1
H	-0.391943	-1.745831	0.773511	1
H	-0.660462	0.733569	0.794851	1
H	-0.680052	0.763029	-0.973799	1
H	1.651498	-0.215421	-0.988239	1
H	1.386758	2.327079	0.706941	1
H	1.373898	2.273899	-1.071249	1
H	2.827038	1.809949	-0.157219	1
H	1.437748	0.167919	1.822321	1
Es	1.524269	-0.047010	-0.715423	99
Es	1.483040	2.110116	-0.785658	99
Es	-0.501166	-1.567171	-0.718330	99
Es	2.475099	1.795116	-0.165370	99
Es	1.795781	-0.295089	1.045821	99
Es	1.491554	1.063723	-0.148402	99
Es	1.588096	-0.028821	1.450328	99
Es	-2.569578	-0.946862	0.493883	99
Es	-2.566217	-0.943187	-0.722578	99
Es	-0.515859	-0.485559	-0.105746	99
Es	-0.515870	-1.572943	0.494243	99
Es	1.682032	-0.580283	1.057678	99
Es	-2.286548	-1.282479	-0.114358	99
Es	-1.534321	-1.242868	-0.112968	99
Es	1.256823	0.322543	-0.119301	99
Es	-0.531293	0.580711	0.519841	99
Es	-0.548900	0.597458	-0.702424	99
Es	1.487152	2.143110	0.433467	99
Es	-2.514096	-1.994888	-0.117263	99
Es	-0.272956	0.234757	-0.102809	99
Es	1.578275	-0.047279	0.623449	99
Es	1.732565	1.768209	-0.169681	99
Es	2.098204	-0.237682	1.044212	99
Es	-0.767488	-1.214209	-0.107920	99
Es	0.483502	0.282529	-0.111866	99
43
Properties=species:S:1:pos:R:3:Z:I:1 energy=-271.29006081898325 field_type=dipole dipole="0.000000 0.000000 0.000000" charge=0
C	-2.286562	-1.282481	-0.114359	6
C	-0.767452	-1.214251	-0.107909	6
C	-0.272962	0.234769	-0.102809	6
C	1.256758	0.322599	-0.119509	6
C	1.732578	1.768199	-0.169679	6
O	1.795918	-0.295231	1.045841	8
H	-2.619152	-2.325311	-0.118729	1
H	-2.698202	-0.790971	-1.001809	1
H	-2.704792	-0.796461	0.773091	1
H	-0.380613	-1.735061	-0.991249	1
H	-0.391943	-1.745831	0.773511	1
H	-0.660462	0.733569	0.794851	1
H	-0.680052	0.763029	-0.973799	1
H	1.651498	-0.215421	-0.988239	1
H	1.386758	2.327079	0.706941	1
H	1.373898	2.273899	-1.071249	1
H	2.827038	1.809949	-0.157219	1
H	1.437748	0.167919	1.822321	1
Es	-0.767486	-1.214208	-0.107920	99
Es	1.577778	-0.047895	0.623316	99
Es	1.487140	2.143201	0.433382	99
Es	1.588175	-0.028636	1.451076	99
Es	-0.515837	-1.573000	0.494212	99
Es	-2.514135	-1.994826	-0.117275	99
Es	1.483051	2.110022	-0.785582	99
Es	-0.501232	-1.567138	-0.718246	99
Es	1.683369	-0.580471	1.057717	99
Es	-0.531272	0.580717	0.519839	99
Es	-1.534315	-1.242886	-0.112961	99
Es	-2.566227	-0.943178	-0.722570	99
Es	-2.569596	-0.946895	0.493868	99
Es	-0.548908	0.597459	-0.702371	99
Es	2.097371	-0.237165	1.043535	99
Es	1.795675	-0.294988	1.045846	99
Es	1.256821	0.322548	-0.119301	99
Es	-0.272956	0.234756	-0.102809	99
Es	-2.286548	-1.282479	-0.114359	99
Es	1.524307	-0.046988	-0.715375	99
Es	1.491513	1.063674	-0.148350	99
Es	2.475143	1.795181	-0.165416	99
Es	1.732567	1.768210	-0.169680	99
Es	0.483485	0.282519	-0.111954	99
Es	-0.515783	-0.485594	-0.105800	99
43
Properties=species:S:1:pos:R:3:Z:I:1 energy=-271.29006081898325 field_type=dipole dipole="0.000000 0.000000 0.000000" charge=0
C	-2.286562	-1.282481	-0.114359	6
C	-0.767452	-1.214251	-0.107909	6
C	-0.272962	0.234769	-0.102809	6
C	1.256758	0.322599	-0.119509	6
C	1.732578	1.768199	-0.169679	6
O	1.795918	-0.295231	1.045841	8
H	-2.619152	-2.325311	-0.118729	1
H	-2.698202	-0.790971	-1.001809	1
H	-2.704792	-0.796461	0.773091	1
H	-0.380613	-1.735061	-0.991249	1
H	-0.391943	-1.745831	0.773511	1
H	-0.660462	0.733569	0.794851	1
H	-0.680052	0.763029	-0.973799	1
H	1.651498	-0.215421	-0.988239	1
H	1.386758	2.327079	0.706941	1
H	1.373898	2.273899	-1.071249	1
H	2.827038	1.809949	-0.157219	1
H	1.437748	0.167919	1.822321	1
Es	2.475088	1.795164	-0.165500	99
Es	1.524281	-0.046992	-0.715363	99
Es	-0.531242	0.580791	0.519740	99
Es	1.795674	-0.294973	1.045842	99
Es	1.588722	-0.028175	1.450577	99
Es	1.491540	1.063637	-0.148462	99
Es	-2.286548	-1.282479	-0.114358	99
Es	-2.566194	-0.943255	-0.722579	99
Es	1.487265	2.143084	0.433502	99
Es	-0.501333	-1.567092	-0.718262	99
Es	1.682984	-0.581088	1.058230	99
Es	-2.569632	-0.946823	0.493788	99
Es	-0.515751	-1.573055	0.494123	99
Es	1.256822	0.322544	-0.119301	99
Es	-0.272956	0.234756	-0.102811	99
Es	0.483464	0.282546	-0.111919	99
Es	1.732566	1.768209	-0.169681	99
Es	1.482954	2.110162	-0.785555	99
Es	-2.514156	-1.994852	-0.117215	99
Es	-1.534307	-1.242881	-0.112839	99
Es	2.096801	-0.237356	1.043897	99
Es	-0.548855	0.597447	-0.702357	99
Es	-0.767487	-1.214208	-0.107920	99
Es	-0.515825	-0.485635	-0.105728	99
Es	1.578229	-0.047537	0.622975	99
43
Properties=species:S:1:pos:R:3:Z:I:1 energy=-271.29006081898325 field_type=dipole dipole="0.000000 0.000000 0.000000" charge=0
C	-2.286562	-1.282481	-0.114359	6
C	-0.767452	-1.214251	-0.107909	6
C	-0.272962	0.234769	-0.102809	6
C	1.256758	0.322599	-0.119509	6
C	1.732578	1.768199	-0.169679	6
O	1.795918	-0.295231	1.045841	8
H	-2.619152	-2.325311	-0.118729	1
H	-2.698202	-0.790971	-1.001809	1
H	-2.704792	-0.796461	0.773091	1
H	-0.380613	-1.735061	-0.991249	1
H	-0.391943	-1.745831	0.773511	1
H	-0.660462	0.733569	0.794851	1
H	-0.680052	0.763029	-0.973799	1
H	1.651498	-0.215421	-0.988239	1
H	1.386758	2.327079	0.706941	1
H	1.373898	2.273899	-1.071249	1
H	2.827038	1.809949	-0.157219	1
H	1.437748	0.167919	1.822321	1
Es	-1.534292	-1.242909	-0.112952	99
Es	-0.548872	0.597472	-0.702318	99
Es	1.256822	0.322545	-0.119303	99
Es	1.491545	1.063632	-0.148426	99
Es	-0.515760	-0.485594	-0.105801	99
Es	-0.531251	0.580745	0.519756	99
Es	-2.286548	-1.282479	-0.114359	99
Es	1.483084	2.110080	-0.785616	99
Es	-2.569616	-0.946889	0.493788	99
Es	2.096506	-0.234667	1.043020	99
Es	-0.515812	-1.572996	0.494085	99
Es	-0.272956	0.234757	-0.102809	99
Es	-0.501266	-1.567144	-0.718139	99
Es	-0.767487	-1.214208	-0.107920	99
Es	2.475076	1.795203	-0.165366	99
Es	1.588270	-0.029002	1.450941	99
Es	1.795793	-0.295084	1.045802	99
Es	1.487150	2.143174	0.433392	99
Es	1.524268	-0.046964	-0.715324	99
Es	1.732565	1.768209	-0.169681	99
Es	0.483515	0.282525	-0.111981	99
Es	1.685857	-0.581339	1.058753	99
Es	-2.514190	-1.994815	-0.117246	99
Es	1.575966	-0.049078	0.623022	99
Es	-2.566266	-0.943234	-0.722496	99
43
Properties=species:S:1:pos:R:3:Z:I:1 energy=-271.29006081898325 field_type=dipole dipole="0.000000 0.000000 0.000000" charge=0
C	-2.286562	-1.282481	-0.114359	6
C	-0.767452	-1.214251	-0.107909	6
C	-0.272962	0.234769	-0.102809	6
C	1.256758	0.322599	-0.119509	6
C	1.732578	1.768199	-0.169679	6
O	1.795918	-0.295231	1.045841	8
H	-2.619152	-2.325311	-0.118729	1
H	-2.698202	-0.790971	-1.001809	1
H	-2.704792	-0.796461	0.773091	1
H	-0.380613	-1.735061	-0.991249	1
H	-0.391943	-1.745831	0.773511	1
H	-0.660462	0.733569	0.794851	1
H	-0.680052	0.763029	-0.973799	1
H	1.651498	-0.215421	-0.988239	1
H	1.386758	2.327079	0.706941	1
H	1.373898	2.273899	-1.071249	1
H	2.827038	1.809949	-0.157219	1
H	1.437748	0.167919	1.822321	1
Es	1.589322	-0.028440	1.451399	99
Es	-2.286548	-1.282479	-0.114358	99
Es	-2.569611	-0.946906	0.493713	99
Es	1.795555	-0.294987	1.045826	99
Es	2.475086	1.795222	-0.165399	99
Es	-0.272956	0.234757	-0.102809	99
Es	-1.534260	-1.242910	-0.112934	99
Es	1.524243	-0.046954	-0.715287	99
Es	-0.548841	0.597463	-0.702299	99
Es	1.256822	0.322545	-0.119304	99
Es	1.487176	2.143162	0.433388	99
Es	1.483072	2.110100	-0.785559	99
Es	2.097053	-0.238132	1.043133	99
Es	1.732568	1.768209	-0.169682	99
Es	-2.566252	-0.943202	-0.722414	99
Es	-0.515733	-0.485629	-0.105824	99
Es	-2.514287	-1.994834	-0.117269	99
Es	1.491530	1.063613	-0.148484	99
Es	1.683293	-0.579752	1.058311	99
Es	-0.515821	-1.572962	0.494054	99
Es	-0.767486	-1.214208	-0.107920	99
Es	0.483513	0.282538	-0.111974	99
Es	1.577188	-0.047864	0.622884	99
Es	-0.531259	0.580769	0.519710	99
Es	-0.501264	-1.567181	-0.718079	99
43
Properties=species:S:1:pos:R:3:Z:I:1 energy=-271.29006081898325 field_type=dipole dipole="0.000000 0.000000 0.000000" charge=0
C	-2.286562	-1.282481	-0.114359	6
C	-0.767452	-1.214251	-0.107909	6
C	-0.272962	0.234769	-0.102809	6
C	1.256758	0.322599	-0.119509	6
C	1.732578	1.768199	-0.169679	6
O	1.795918	-0.295231	1.045841	8
H	-2.619152	-2.325311	-0.118729	1
H	-2.698202	-0.790971	-1.001809	1
H	-2.704792	-0.796461	0.773091	1
H	-0.380613	-1.735061	-0.991249	1
H	-0.391943	-1.745831	0.773511	1
H	-0.660462	0.733569	0.794851	1
H	-0.680052	0.763029	-0.973799	1
H	1.651498	-0.215421	-0.988239	1
H	1.386758	2.327079	0.706941	1
H	1.373898	2.273899	-1.071249	1
H	2.827038	1.809949	-0.157219	1
H	1.437748	0.167919	1.822321	1
Es	1.491542	1.063600	-0.148575	99
Es	-0.501244	-1.567155	-0.718026	99
Es	2.097766	-0.239882	1.044416	99
Es	-2.514234	-1.994760	-0.117259	99
Es	1.732566	1.768209	-0.169681	99
Es	1.524233	-0.046933	-0.715253	99
Es	-0.531267	0.580757	0.519691	99
Es	1.578712	-0.046632	0.622621	99
Es	-1.534255	-1.242955	-0.113015	99
Es	-0.515751	-0.485620	-0.105845	99
Es	1.681944	-0.578315	1.057040	99
Es	0.483508	0.282528	-0.111965	99
Es	1.487169	2.143129	0.433424	99
Es	-0.767486	-1.214208	-0.107920	99
Es	-0.515824	-1.572971	0.493989	99
Es	-0.548796	0.597502	-0.702257	99
Es	-2.569615	-0.946947	0.493762	99
Es	-0.272956	0.234757	-0.102809	99
Es	-2.566347	-0.943242	-0.722410	99
Es	2.475060	1.795215	-0.165381	99
Es	1.795714	-0.295008	1.045865	99
Es	1.483103	2.110156	-0.785549	99
Es	-2.286548	-1.282479	-0.114359	99
Es	1.256821	0.322545	-0.119305	99
Es	1.588289	-0.029350	1.451623	99
43
Properties=species:S:1:pos:R:3:Z:I:1 energy=-271.29006081898325 field_type=dipole dipole="0.000000 0.000000 0.000000" charge=0
C	-2.286562	-1.282481	-0.114359	6
C	-0.767452	-1.214251	-0.107909	6
C	-0.272962	0.234769	-0.102809	6
C	1.256758	0.322599	-0.119509	6
C	1.732578	1.768199	-0.169679	6
O	1.795918	-0.295231	1.045841	8
H	-2.619152	-2.325311	-0.118729	1
H	-2.698202	-0.790971	-1.001809	1
H	-2.704792	-0.796461	0.773091	1
H	-0.380613	-1.735061	-0.991249	1
H	-0.391943	-1.745831	0.773511	1
H	-0.660462	0.733569	0.794851	1
H	-0.680052	0.763029	-0.973799	1
H	1.651498	-0.215421	-0.988239	1
H	1.386758	2.327079	0.706941	1
H	1.373898	2.273899	-1.071249	1
H	2.827038	1.809949	-0.157219	1
H	1.437748	0.167919	1.822321	1
Es	-0.272956	0.234757	-0.102809	99
Es	1.795713	-0.294898	1.045834	99
Es	-2.514228	-1.994770	-0.117266	99
Es	1.487204	2.143172	0.433372	99
Es	1.683705	-0.578235	1.057702	99
Es	1.256821	0.322546	-0.119306	99
Es	2.096781	-0.239222	1.044067	99
Es	1.578321	-0.048172	0.621913	99
Es	-2.569661	-0.946961	0.493717	99
Es	2.475080	1.795228	-0.165408	99
Es	-0.531230	0.580765	0.519654	99
Es	-2.286553	-1.282480	-0.114359	99
Es	1.524212	-0.046911	-0.715226	99
Es	-0.515732	-0.485646	-0.105801	99
Es	-0.515821	-1.572979	0.493937	99
Es	-1.534266	-1.242939	-0.112963	99
Es	-2.566330	-0.943256	-0.722401	99
Es	1.491531	1.063593	-0.148515	99
Es	1.732566	1.768210	-0.169681	99
Es	-0.501247	-1.567144	-0.717995	99
Es	0.483505	0.282555	-0.112006	99
Es	-0.767486	-1.214209	-0.107920	99
Es	1.483074	2.110113	-0.785546	99
Es	1.587917	-0.028679	1.452053	99
Es	-0.548818	0.597502	-0.702225	99
43
Properties=species:S:1:pos:R:3:Z:I:1 energy=-271.29006081898325 field_type=dipole dipole="0.000000 0.000000 0.000000" charge=0
C	-2.286562	-1.282481	-0.114359	6
C	-0.767452	-1.214251	-0.107909	6
C	-0.272962	0.234769	-0.102809	6
C	1.256758	0.322599	-0.119509	6
C	1.732578	1.768199	-0.169679	6
O	1.795918	-0.295231	1.045841	8
H	-2.619152	-2.325311	-0.118729	1
H	-2.698202	-0.790971	-1.001809	1
H	-2.704792	-0.796461	0.773091	1
H	-0.380613	-1.735061	-0.991249	1
H	-0.391943	-1.745831	0.773511	1
H	-0.660462	0.733569	0.794851	1
H	-0.680052	0.763029	-0.973799	1
H	1.651498	-0.215421	-0.988239	1
H	1.386758	2.327079	0.706941	1
H	1.373898	2.273899	-1.071249	1
H	2.827038	1.809949	-0.157219	1
H	1.437748	0.167919	1.822321	1
Es	-2.569674	-0.946956	0.493683	99
Es	-2.514322	-1.994701	-0.117271	99
Es	1.732567	1.768210	-0.169681	99
Es	-0.272956	0.234757	-0.102809	99
Es	1.487210	2.143232	0.433360	99
Es	1.795787	-0.294820	1.045839	99
Es	1.577971	-0.047282	0.622131	99
Es	-2.566313	-0.943257	-0.722378	99
Es	1.524184	-0.046922	-0.715203	99
Es	-0.515851	-1.572951	0.493900	99
Es	-0.548791	0.597515	-0.702214	99
Es	1.588003	-0.029724	1.451916	99
Es	-0.531231	0.580774	0.519620	99
Es	0.483506	0.282567	-0.111980	99
Es	-0.501253	-1.567192	-0.717927	99
Es	-2.286549	-1.282479	-0.114358	99
Es	2.094889	-0.236439	1.044289	99
Es	2.475021	1.795254	-0.165408	99
Es	1.483134	2.110098	-0.785536	99
Es	1.491539	1.063522	-0.148552	99
Es	1.685799	-0.580935	1.057411	99
Es	-0.515684	-0.485659	-0.105832	99
Es	-0.767486	-1.214209	-0.107919	99
Es	1.256820	0.322547	-0.119308	99
Es	-1.534219	-1.243008	-0.112951	99
43
Properties=species:S:1:pos:R:3:Z:I:1 energy=-271.29006081898325 field_type=dipole dipole="0.000000 0.000000 0.000000" charge=0
C	-2.286562	-1.282481	-0.114359	6
C	-0.767452	-1.214251	-0.107909	6
C	-0.272962	0.234769	-0.102809	6
C	1.256758	0.322599	-0.119509	6
C	1.732578	1.768199	-0.169679	6
O	1.795918	-0.295231	1.045841	8
H	-2.619152	-2.325311	-0.118729	1
H	-2.698202	-0.790971	-1.001809	1
H	-2.704792	-0.796461	0.773091	1
H	-0.380613	-1.735061	-0.991249	1
H	-0.391943	-1.745831	0.773511	1
H	-0.660462	0.733569	0.794851	1
H	-0.680052	0.763029	-0.973799	1
H	1.651498	-0.215421	-0.988239	1
H	1.386758	2.327079	0.706941	1
H	1.373898	2.273899	-1.071249	1
H	2.827038	1.809949	-0.157219	1
H	1.437748	0.167919	1.822321	1
Es	1.487219	2.143188	0.433338	99
Es	-0.515737	-1.573022	0.493738	99
Es	-0.501312	-1.567074	-0.717966	99
Es	-0.531202	0.580802	0.519580	99
Es	-2.566327	-0.943275	-0.722377	99
Es	-0.767485	-1.214212	-0.107918	99
Es	1.491563	1.063502	-0.148566	99
Es	2.095913	-0.237503	1.043769	99
Es	0.483507	0.282570	-0.112050	99
Es	1.483104	2.110122	-0.785527	99
Es	-2.514293	-1.994697	-0.117275	99
Es	1.795673	-0.294955	1.045835	99
Es	-2.569726	-0.946987	0.493652	99
Es	-0.272957	0.234757	-0.102809	99
Es	-1.534244	-1.243036	-0.112806	99
Es	1.732566	1.768210	-0.169681	99
Es	1.524186	-0.046892	-0.715162	99
Es	1.577641	-0.047424	0.622406	99
Es	-0.548808	0.597492	-0.702193	99
Es	-2.286549	-1.282480	-0.114359	99
Es	1.256820	0.322546	-0.119308	99
Es	-0.515701	-0.485658	-0.105698	99
Es	1.588761	-0.029175	1.451788	99
Es	1.684461	-0.580158	1.057807	99
Es	2.475027	1.795298	-0.165397	99
