31
Properties=species:S:1:pos:R:3:Z:I:1 energy=-266.5282102605148 field_type=dipole dipole="0.000000 0.000000 0.000000" charge=0
C	-0.987833	-1.326803	-0.118433	6
C	0.336597	-1.173323	-0.241673	6
C	1.053127	0.122127	-0.097983	6
O	2.272487	0.151077	-0.230953	8
C	0.356717	1.358717	0.195387	6
C	-0.211183	2.389467	0.438507	6
H	-1.436973	-2.308463	-0.237943	1
H	-1.658273	-0.501953	0.100547	1
H	0.978637	-2.020253	-0.461273	1
H	-0.703303	3.309407	0.653817	1
Es	0.336675	-1.173238	-0.241667	99
Es	-0.987921	-1.326817	-0.118423	99
Es	0.356830	1.358507	0.195321	99
Es	0.377693	2.044713	0.353994	99
Es	-0.532184	2.984301	0.577866	99
Es	2.384367	-0.135630	-0.293341	99
Es	1.783779	0.188274	-0.423638	99
Es	2.272175	0.151084	-0.230917	99
Es	0.666249	0.757549	0.056699	99
Es	0.668177	-0.508113	-0.163730	99
Es	-1.294277	-1.983623	-0.197719	99
Es	-0.211297	2.389664	0.438553	99
Es	2.399412	0.436593	-0.195580	99
Es	-0.318550	-1.160889	-0.491131	99
Es	1.838742	0.103496	0.064078	99
Es	-1.437094	-0.777713	0.027678	99
Es	1.053033	0.122212	-0.097950	99
Es	-0.247872	-1.269331	0.133630	99
Es	-0.075001	1.692949	0.589064	99
Es	0.768528	-1.733841	-0.387867	99
Es	-0.068335	1.818169	-0.006060	99
31
Properties=species:S:1:pos:R:3:Z:I:1 energy=-266.5282102605148 field_type=dipole dipole="0.000000 0.000000 0.000000" charge=0
C	-0.987833	-1.326803	-0.118433	6
C	0.336597	-1.173323	-0.241673	6
C	1.053127	0.122127	-0.097983	6
O	2.272487	0.151077	-0.230953	8
C	0.356717	1.358717	0.195387	6
C	-0.211183	2.389467	0.438507	6
H	-1.436973	-2.308463	-0.237943	1
H	-1.658273	-0.501953	0.100547	1
H	0.978637	-2.020253	-0.461273	1
H	-0.703303	3.309407	0.653817	1
Es	0.186240	1.957235	-0.007113	99
Es	-0.987921	-1.326817	-0.118427	99
Es	0.336677	-1.173234	-0.241674	99
Es	0.768441	-1.733891	-0.387613	99
Es	1.053032	0.122216	-0.097965	99
Es	0.664108	0.756475	0.056679	99
Es	1.783641	0.188208	-0.423694	99
Es	-1.437036	-0.777651	0.027723	99
Es	0.668319	-0.508112	-0.163678	99
Es	0.299024	1.893121	0.586387	99
Es	-0.211285	2.389679	0.438554	99
Es	2.399781	0.436414	-0.195775	99
Es	-0.247950	-1.269261	0.133443	99
Es	-0.249950	1.705998	0.357777	99
Es	2.272170	0.151073	-0.230918	99
Es	-1.294320	-1.983663	-0.197749	99
Es	0.356822	1.358494	0.195340	99
Es	-0.318619	-1.160857	-0.491280	99
Es	1.838677	0.103739	0.064125	99
Es	-0.530760	2.985005	0.577805	99
Es	2.384037	-0.135855	-0.293088	99
31
Properties=species:S:1:pos:R:3:Z:I:1 energy=-266.5282102605148 field_type=dipole dipole="0.000000 0.000000 0.000000" charge=0
C	-0.987833	-1.326803	-0.118433	6
C	0.336597	-1.173323	-0.241673	6
C	1.053127	0.122127	-0.097983	6
O	2.272487	0.151077	-0.230953	8
C	0.356717	1.358717	0.195387	6
C	-0.211183	2.389467	0.438507	6
H	-1.436973	-2.308463	-0.237943	1
H	-1.658273	-0.501953	0.100547	1
H	0.978637	-2.020253	-0.461273	1
H	-0.703303	3.309407	0.653817	1
Es	-0.530738	2.984992	0.577785	99
Es	0.300392	1.894664	0.585580	99
Es	2.383292	-0.136015	-0.293296	99
Es	0.336674	-1.173235	-0.241681	99
Es	-1.294286	-1.983712	-0.197718	99
Es	-0.318673	-1.160813	-0.491129	99
Es	-0.987921	-1.326821	-0.118421	99
Es	1.053035	0.122215	-0.097962	99
Es	2.400465	0.435876	-0.196374	99
Es	0.668293	-0.508180	-0.163707	99
Es	1.783370	0.188514	-0.423484	99
Es	-1.437054	-0.777672	0.027691	99
Es	2.272154	0.151114	-0.230910	99
Es	0.184462	1.955899	-0.007546	99
Es	0.664246	0.756485	0.056648	99
Es	1.839044	0.104135	0.064673	99
Es	0.356824	1.358490	0.195336	99
Es	-0.249706	1.705778	0.359051	99
Es	0.768450	-1.733874	-0.387827	99
Es	-0.247903	-1.269196	0.133596	99
Es	-0.211290	2.389672	0.438556	99
31
Properties=species:S:1:pos:R:3:Z:I:1 energy=-266.5282102605148 field_type=dipole dipole="0.000000 0.000000 0.000000" charge=0
C	-0.987833	-1.326803	-0.118433	6
C	0.336597	-1.173323	-0.241673	6
C	1.053127	0.122127	-0.097983	6
O	2.272487	0.151077	-0.230953	8
C	0.356717	1.358717	0.195387	6
C	-0.211183	2.389467	0.438507	6
H	-1.436973	-2.308463	-0.237943	1
H	-1.658273	-0.501953	0.100547	1
H	0.978637	-2.020253	-0.461273	1
H	-0.703303	3.309407	0.653817	1
Es	-0.196157	1.689995	0.478992	99
Es	2.398874	0.436346	-0.195446	99
Es	0.768486	-1.733898	-0.387819	99
Es	0.336680	-1.173234	-0.241676	99
Es	2.384811	-0.135279	-0.293946	99
Es	-0.987921	-1.326816	-0.118429	99
Es	2.272235	0.151060	-0.230922	99
Es	1.783512	0.188608	-0.423425	99
Es	0.356823	1.358497	0.195341	99
Es	-0.318564	-1.160758	-0.491096	99
Es	0.665268	0.756771	0.058119	99
Es	-1.294267	-1.983699	-0.197745	99
Es	-0.211292	2.389669	0.438551	99
Es	0.072832	1.887569	-0.037164	99
Es	-0.531420	2.984767	0.577355	99
Es	0.358058	1.978655	0.494147	99
Es	0.668191	-0.508259	-0.163788	99
Es	-1.437074	-0.777628	0.027737	99
Es	1.839023	0.102997	0.064490	99
Es	-0.248002	-1.269261	0.133543	99
Es	1.053033	0.122215	-0.097960	99
31
Properties=species:S:1:pos:R:3:Z:I:1 energy=-266.5282102605148 field_type=dipole dipole="0.000000 0.000000 0.000000" charge=0
C	-0.987833	-1.326803	-0.118433	6
C	0.336597	-1.173323	-0.241673	6
C	1.053127	0.122127	-0.097983	6
O	2.272487	0.151077	-0.230953	8
C	0.356717	1.358717	0.195387	6
C	-0.211183	2.389467	0.438507	6
H	-1.436973	-2.308463	-0.237943	1
H	-1.658273	-0.501953	0.100547	1
H	0.978637	-2.020253	-0.461273	1
H	-0.703303	3.309407	0.653817	1
Es	0.260245	1.852046	0.615235	99
Es	2.272126	0.150963	-0.230931	99
Es	1.838718	0.103341	0.064442	99
Es	2.397536	0.436718	-0.195879	99
Es	-1.294276	-1.983737	-0.197769	99
Es	1.053038	0.122214	-0.097958	99
Es	1.783632	0.187229	-0.424236	99
Es	-0.530600	2.984972	0.578163	99
Es	-0.318659	-1.160841	-0.490980	99
Es	0.336680	-1.173238	-0.241659	99
Es	-0.257376	1.716143	0.298425	99
Es	-0.247963	-1.269192	0.133548	99
Es	0.768504	-1.733888	-0.387834	99
Es	0.663981	0.756682	0.055660	99
Es	0.668181	-0.508237	-0.163810	99
Es	0.356825	1.358492	0.195334	99
Es	-0.987922	-1.326817	-0.118427	99
Es	0.232459	1.987991	0.024110	99
Es	2.386350	-0.134608	-0.292815	99
Es	-0.211289	2.389669	0.438556	99
Es	-1.437059	-0.777587	0.027684	99
31
Properties=species:S:1:pos:R:3:Z:I:1 energy=-266.5282102605148 field_type=dipole dipole="0.000000 0.000000 0.000000" charge=0
C	-0.987833	-1.326803	-0.118433	6
C	0.336597	-1.173323	-0.241673	6
C	1.053127	0.122127	-0.097983	6
O	2.272487	0.151077	-0.230953	8
C	0.356717	1.358717	0.195387	6
C	-0.211183	2.389467	0.438507	6
H	-1.436973	-2.308463	-0.237943	1
H	-1.658273	-0.501953	0.100547	1
H	0.978637	-2.020253	-0.461273	1
H	-0.703303	3.309407	0.653817	1
Es	2.384401	-0.135358	-0.294092	99
Es	-0.318698	-1.160820	-0.490947	99
Es	1.783553	0.189202	-0.423549	99
Es	0.336679	-1.173237	-0.241669	99
Es	0.668159	-0.508293	-0.163784	99
Es	0.356824	1.358490	0.195339	99
Es	-1.437072	-0.777584	0.027706	99
Es	1.838934	0.103159	0.064557	99
Es	0.331268	1.934669	0.548107	99
Es	-0.987921	-1.326817	-0.118426	99
Es	-0.530929	2.984955	0.577468	99
Es	-0.211289	2.389667	0.438551	99
Es	0.768510	-1.733927	-0.387824	99
Es	-1.294256	-1.983754	-0.197769	99
Es	1.053036	0.122214	-0.097957	99
Es	2.399395	0.435730	-0.195317	99
Es	2.272148	0.151004	-0.230925	99
Es	-0.231380	1.697203	0.416014	99
Es	0.135127	1.924418	-0.027760	99
Es	0.664585	0.756536	0.057664	99
Es	-0.247942	-1.269143	0.133472	99
31
Properties=species:S:1:pos:R:3:Z:I:1 energy=-266.5282102605148 field_type=dipole dipole="0.000000 0.000000 0.000000" charge=0
C	-0.987833	-1.326803	-0.118433	6
C	0.336597	-1.173323	-0.241673	6
C	1.053127	0.122127	-0.097983	6
O	2.272487	0.151077	-0.230953	8
C	0.356717	1.358717	0.195387	6
C	-0.211183	2.389467	0.438507	6
H	-1.436973	-2.308463	-0.237943	1
H	-1.658273	-0.501953	0.100547	1
H	0.978637	-2.020253	-0.461273	1
H	-0.703303	3.309407	0.653817	1
Es	1.784284	0.188870	-0.424481	99
Es	-0.987922	-1.326816	-0.118429	99
Es	-0.211291	2.389664	0.438556	99
Es	0.191994	1.795671	0.641239	99
Es	-1.437081	-0.777545	0.027701	99
Es	1.053031	0.122216	-0.097966	99
Es	1.838088	0.104280	0.064089	99
Es	2.383889	-0.135835	-0.292715	99
Es	0.668138	-0.508311	-0.163830	99
Es	-1.294235	-1.983782	-0.197751	99
Es	-0.318641	-1.160813	-0.490919	99
Es	-0.530924	2.984694	0.578669	99
Es	0.768489	-1.733951	-0.387792	99
Es	-0.248025	-1.269124	0.133399	99
Es	-0.247220	1.733604	0.211210	99
Es	2.272181	0.151068	-0.230922	99
Es	0.290454	2.026469	0.086201	99
Es	0.356823	1.358492	0.195332	99
Es	0.336678	-1.173237	-0.241668	99
Es	0.664408	0.757282	0.054395	99
Es	2.400012	0.435421	-0.195458	99
31
Properties=species:S:1:pos:R:3:Z:I:1 energy=-266.5282102605148 field_type=dipole dipole="0.000000 0.000000 0.000000" charge=0
C	-0.987833	-1.326803	-0.118433	6
C	0.336597	-1.173323	-0.241673	6
C	1.053127	0.122127	-0.097983	6
O	2.272487	0.151077	-0.230953	8
C	0.356717	1.358717	0.195387	6
C	-0.211183	2.389467	0.438507	6
H	-1.436973	-2.308463	-0.237943	1
H	-1.658273	-0.501953	0.100547	1
H	0.978637	-2.020253	-0.461273	1
H	-0.703303	3.309407	0.653817	1
Es	-0.257542	1.717691	0.290020	99
Es	0.768500	-1.733942	-0.387831	99
Es	0.254354	1.846357	0.618771	99
Es	-0.248079	-1.269097	0.133375	99
Es	2.387885	-0.133866	-0.294213	99
Es	-0.987920	-1.326818	-0.118426	99
Es	1.838800	0.102170	0.064899	99
Es	2.272139	0.151049	-0.230919	99
Es	-0.530495	2.984958	0.578236	99
Es	1.783695	0.187837	-0.423983	99
Es	0.668127	-0.508346	-0.163833	99
Es	-1.437115	-0.777541	0.027719	99
Es	0.664006	0.756771	0.055496	99
Es	0.238439	1.992001	0.029092	99
Es	-0.318652	-1.160743	-0.490838	99
Es	1.053036	0.122215	-0.097960	99
Es	0.356827	1.358492	0.195323	99
Es	0.336678	-1.173237	-0.241665	99
Es	-1.294174	-1.983853	-0.197780	99
Es	2.395910	0.436548	-0.195179	99
Es	-0.211288	2.389669	0.438555	99
31
Properties=species:S:1:pos:R:3:Z:I:1 energy=-266.5282102605148 field_type=dipole dipole="0.000000 0.000000 0.000000" charge=0
C	-0.987833	-1.326803	-0.118433	6
C	0.336597	-1.173323	-0.241673	6
C	1.053127	0.122127	-0.097983	6
O	2.272487	0.151077	-0.230953	8
C	0.356717	1.358717	0.195387	6
C	-0.211183	2.389467	0.438507	6
H	-1.436973	-2.308463	-0.237943	1
H	-1.658273	-0.501953	0.100547	1
H	0.978637	-2.020253	-0.461273	1
H	-0.703303	3.309407	0.653817	1
Es	0.668149	-0.508404	-0.163824	99
Es	0.356823	1.358492	0.195327	99
Es	-1.294206	-1.983874	-0.197782	99
Es	2.384017	-0.135561	-0.293414	99
Es	0.768480	-1.733967	-0.387870	99
Es	1.783507	0.188777	-0.423709	99
Es	-0.318686	-1.160729	-0.490787	99
Es	-0.530660	2.984788	0.578549	99
Es	0.215790	1.813321	0.635007	99
Es	0.664191	0.757104	0.054658	99
Es	-0.253416	1.727507	0.239552	99
Es	0.272823	2.015016	0.063871	99
Es	-0.211292	2.389662	0.438558	99
Es	1.839023	0.104061	0.064742	99
Es	-1.437080	-0.777502	0.027709	99
Es	0.336678	-1.173238	-0.241667	99
Es	1.053036	0.122214	-0.097961	99
Es	2.399754	0.435464	-0.196090	99
Es	2.272172	0.151075	-0.230915	99
Es	-0.987921	-1.326817	-0.118425	99
Es	-0.248051	-1.269072	0.133332	99
31
Properties=species:S:1:pos:R:3:Z:I:1 energy=-266.5282102605148 field_type=dipole dipole="0.000000 0.000000 0.000000" charge=0
C	-0.987833	-1.326803	-0.118433	6
C	0.336597	-1.173323	-0.241673	6
C	1.053127	0.122127	-0.097983	6
O	2.272487	0.151077	-0.230953	8
C	0.356717	1.358717	0.195387	6
C	-0.211183	2.389467	0.438507	6
H	-1.436973	-2.308463	-0.237943	1
H	-1.658273	-0.501953	0.100547	1
H	0.978637	-2.020253	-0.461273	1
H	-0.703303	3.309407	0.653817	1
Es	-1.437081	-0.777498	0.027709	99
Es	1.838981	0.105356	0.064984	99
Es	-0.318702	-1.160679	-0.490747	99
Es	0.664001	0.756823	0.055470	99
Es	-0.257568	1.717543	0.290753	99
Es	-0.248089	-1.268956	0.133311	99
Es	-0.211287	2.389666	0.438555	99
Es	1.053037	0.122214	-0.097958	99
Es	0.336677	-1.173237	-0.241667	99
Es	0.254889	1.846795	0.618549	99
Es	2.272160	0.151074	-0.230918	99
Es	2.400359	0.434577	-0.196777	99
Es	0.668141	-0.508474	-0.163851	99
Es	0.768480	-1.734021	-0.387825	99
Es	2.383415	-0.136363	-0.292844	99
Es	0.237908	1.991618	0.028585	99
Es	-0.987919	-1.326817	-0.118426	99
Es	-1.294188	-1.983925	-0.197787	99
Es	-0.530463	2.984977	0.578236	99
Es	1.783559	0.189149	-0.423824	99
Es	0.356821	1.358492	0.195334	99
31
Properties=species:S:1:pos:R:3:Z:I:1 energy=-266.5282102605148 field_type=dipole dipole="0.000000 0.000000 0.000000" charge=0
C	-0.987833	-1.326803	-0.118433	6
C	0.336597	-1.173323	-0.241673	6
C	1.053127	0.122127	-0.097983	6
O	2.272487	0.151077	-0.230953	8
C	0.356717	1.358717	0.195387	6
C	-0.211183	2.389467	0.438507	6
H	-1.436973	-2.308463	-0.237943	1
H	-1.658273	-0.501953	0.100547	1
H	0.978637	-2.020253	-0.461273	1
H	-0.703303	3.309407	0.653817	1
Es	0.768501	-1.733953	-0.387851	99
Es	0.336677	-1.173238	-0.241664	99
Es	1.053037	0.122215	-0.097958	99
Es	-0.532212	2.984316	0.577221	99
Es	-0.318726	-1.160829	-0.490681	99
Es	2.384834	-0.135358	-0.292903	99
Es	-0.137743	1.687661	0.543419	99
Es	2.398967	0.435386	-0.196384	99
Es	-0.002434	1.848725	-0.030734	99
Es	-0.987920	-1.326817	-0.118425	99
Es	2.272153	0.151013	-0.230930	99
Es	0.666214	0.757548	0.057933	99
Es	1.838976	0.104442	0.064895	99
Es	0.668034	-0.508455	-0.163783	99
Es	-0.247993	-1.269042	0.133282	99
Es	-0.211296	2.389663	0.438550	99
Es	-1.437037	-0.777413	0.027703	99
Es	-1.294243	-1.983904	-0.197791	99
Es	0.374764	2.019348	0.423611	99
Es	1.783751	0.188510	-0.423999	99
Es	0.356827	1.358496	0.195349	99
31
Properties=species:S:1:pos:R:3:Z:I:1 energy=-266.5282102605148 field_type=dipole dipole="0.000000 0.000000 0.000000" charge=0
C	-0.987833	-1.326803	-0.118433	6
C	0.336597	-1.173323	-0.241673	6
C	1.053127	0.122127	-0.097983	6
O	2.272487	0.151077	-0.230953	8
C	0.356717	1.358717	0.195387	6
C	-0.211183	2.389467	0.438507	6
H	-1.436973	-2.308463	-0.237943	1
H	-1.658273	-0.501953	0.100547	1
H	0.978637	-2.020253	-0.461273	1
H	-0.703303	3.309407	0.653817	1
Es	0.336677	-1.173239	-0.241660	99
Es	-1.294255	-1.983916	-0.197788	99
Es	-0.318604	-1.160809	-0.490619	99
Es	-1.437014	-0.777361	0.027730	99
Es	0.768555	-1.733965	-0.387809	99
Es	-0.241519	1.701203	0.388941	99
Es	-0.530587	2.985035	0.577446	99
Es	1.783589	0.188211	-0.423970	99
Es	0.664392	0.756661	0.057268	99
Es	2.385823	-0.134030	-0.293971	99
Es	2.272149	0.151122	-0.230909	99
Es	-0.987919	-1.326817	-0.118425	99
Es	0.667977	-0.508401	-0.163907	99
Es	1.838991	0.102373	0.064894	99
Es	0.160051	1.940444	-0.020110	99
Es	1.053041	0.122212	-0.097949	99
Es	-0.248198	-1.269080	0.133250	99
Es	0.356824	1.358491	0.195352	99
Es	-0.211296	2.389660	0.438550	99
Es	0.316473	1.914419	0.567939	99
Es	2.397981	0.436101	-0.195393	99
31
Properties=species:S:1:pos:R:3:Z:I:1 energy=-266.5282102605148 field_type=dipole dipole="0.000000 0.000000 0.000000" charge=0
C	-0.987833	-1.326803	-0.118433	6
C	0.336597	-1.173323	-0.241673	6
C	1.053127	0.122127	-0.097983	6
O	2.272487	0.151077	-0.230953	8
C	0.356717	1.358717	0.195387	6
C	-0.211183	2.389467	0.438507	6
H	-1.436973	-2.308463	-0.237943	1
H	-1.658273	-0.501953	0.100547	1
H	0.978637	-2.020253	-0.461273	1
H	-0.703303	3.309407	0.653817	1
Es	-0.248124	-1.269001	0.133168	99
Es	0.140335	1.927723	-0.026769	99
Es	2.384290	-0.135488	-0.293197	99
Es	1.783541	0.188847	-0.423799	99
Es	-0.211288	2.389665	0.438550	99
Es	-0.318719	-1.160774	-0.490628	99
Es	2.399499	0.435069	-0.196367	99
Es	0.664552	0.756678	0.057723	99
Es	-0.987918	-1.326817	-0.118426	99
Es	0.768542	-1.733974	-0.387817	99
Es	-1.437030	-0.777374	0.027726	99
Es	0.356822	1.358495	0.195341	99
Es	-0.530721	2.985000	0.577312	99
Es	1.053037	0.122214	-0.097958	99
Es	0.336675	-1.173238	-0.241667	99
Es	0.328404	1.930511	0.552286	99
Es	0.668013	-0.508498	-0.163791	99
Es	-0.233794	1.697813	0.410911	99
Es	-1.294221	-1.983968	-0.197789	99
Es	1.839081	0.104359	0.064971	99
Es	2.272154	0.151072	-0.230920	99
31
Properties=species:S:1:pos:R:3:Z:I:1 energy=-266.5282102605148 field_type=dipole dipole="0.000000 0.000000 0.000000" charge=0
C	-0.987833	-1.326803	-0.118433	6
C	0.336597	-1.173323	-0.241673	6
C	1.053127	0.122127	-0.097983	6
O	2.272487	0.151077	-0.230953	8
C	0.356717	1.358717	0.195387	6
C	-0.211183	2.389467	0.438507	6
H	-1.436973	-2.308463	-0.237943	1
H	-1.658273	-0.501953	0.100547	1
H	0.978637	-2.020253	-0.461273	1
H	-0.703303	3.309407	0.653817	1
Es	-0.987921	-1.326816	-0.118426	99
Es	-0.248159	1.704199	0.367809	99
Es	0.664194	0.756673	0.056975	99
Es	0.768544	-1.733958	-0.387833	99
Es	2.272177	0.151075	-0.230903	99
Es	0.667996	-0.508559	-0.163780	99
Es	-0.530389	2.985068	0.577586	99
Es	1.783362	0.187566	-0.423657	99
Es	0.178076	1.951738	-0.011650	99
Es	0.305119	1.900057	0.580780	99
Es	-1.437020	-0.777347	0.027725	99
Es	-0.248154	-1.269014	0.133140	99
Es	-0.318725	-1.160747	-0.490652	99
Es	2.398459	0.436194	-0.196516	99
Es	0.356821	1.358493	0.195339	99
Es	1.053034	0.122215	-0.097958	99
Es	1.839261	0.103772	0.064745	99
Es	-0.211289	2.389669	0.438551	99
Es	0.336673	-1.173238	-0.241667	99
Es	-1.294224	-1.983981	-0.197774	99
Es	2.385295	-0.134744	-0.292974	99
31
Properties=species:S:1:pos:R:3:Z:I:1 energy=-266.5282102605148 field_type=dipole dipole="0.000000 0.000000 0.000000" charge=0
C	-0.987833	-1.326803	-0.118433	6
C	0.336597	-1.173323	-0.241673	6
C	1.053127	0.122127	-0.097983	6
O	2.272487	0.151077	-0.230953	8
C	0.356717	1.358717	0.195387	6
C	-0.211183	2.389467	0.438507	6
H	-1.436973	-2.308463	-0.237943	1
H	-1.658273	-0.501953	0.100547	1
H	0.978637	-2.020253	-0.461273	1
H	-0.703303	3.309407	0.653817	1
Es	-0.248271	-1.269005	0.133093	99
Es	-0.256103	1.712040	0.321624	99
Es	-1.294228	-1.983987	-0.197792	99
Es	-0.318635	-1.160734	-0.490627	99
Es	2.383741	-0.135378	-0.293093	99
Es	0.276149	1.867586	0.605680	99
Es	-0.211279	2.389667	0.438554	99
Es	2.272220	0.151069	-0.230924	99
Es	0.356834	1.358499	0.195341	99
Es	1.838761	0.104269	0.064740	99
Es	0.768558	-1.733998	-0.387741	99
Es	-0.530215	2.985039	0.577980	99
Es	-1.437008	-0.777311	0.027772	99
Es	2.400042	0.434821	-0.195978	99
Es	1.053039	0.122215	-0.097967	99
Es	-0.987918	-1.326817	-0.118425	99
Es	0.215000	1.976254	0.010163	99
Es	0.663997	0.756781	0.056154	99
Es	1.783777	0.189120	-0.424203	99
Es	0.667998	-0.508573	-0.163838	99
Es	0.336670	-1.173241	-0.241653	99
31
Properties=species:S:1:pos:R:3:Z:I:1 energy=-266.5282102605148 field_type=dipole dipole="0.000000 0.000000 0.000000" charge=0
C	-0.987833	-1.326803	-0.118433	6
C	0.336597	-1.173323	-0.241673	6
C	1.053127	0.122127	-0.097983	6
O	2.272487	0.151077	-0.230953	8
C	0.356717	1.358717	0.195387	6
C	-0.211183	2.389467	0.438507	6
H	-1.436973	-2.308463	-0.237943	1
H	-1.658273	-0.501953	0.100547	1
H	0.978637	-2.020253	-0.461273	1
H	-0.703303	3.309407	0.653817	1
Es	-1.437026	-0.777297	0.027743	99
Es	1.839086	0.104208	0.064904	99
Es	0.667953	-0.508567	-0.163903	99
Es	-1.294201	-1.984022	-0.197796	99
Es	0.336674	-1.173238	-0.241667	99
Es	0.191841	1.795344	0.642058	99
Es	-0.247203	1.733765	0.210188	99
Es	2.272174	0.151048	-0.230923	99
Es	1.783585	0.189178	-0.423924	99
Es	2.399383	0.434814	-0.195969	99
Es	0.664420	0.757519	0.054187	99
Es	-0.530740	2.984584	0.578863	99
Es	1.053037	0.122213	-0.097958	99
Es	-0.318742	-1.160761	-0.490538	99
Es	0.356820	1.358497	0.195331	99
Es	0.768535	-1.733984	-0.387826	99
Es	2.384404	-0.135306	-0.293460	99
Es	0.290497	2.026429	0.086329	99
Es	-0.987918	-1.326816	-0.118426	99
Es	-0.211288	2.389663	0.438557	99
Es	-0.248163	-1.268955	0.133090	99
