37
Properties=species:S:1:pos:R:3:Z:I:1 energy=-268.8807872660419 field_type=dipole dipole="0.000000 0.000000 0.000000" charge=0
C	-2.686553	-0.653159	-0.557703	6
C	-1.494143	-0.573689	0.035267	6
O	-0.667393	0.503471	-0.150414	8
C	0.560037	0.385781	0.596357	6
C	1.706437	-0.298589	-0.097733	6
C	1.709076	1.193971	0.057186	6
H	-3.329073	-1.512869	-0.406294	1
H	-3.037643	0.142101	-1.206743	1
H	-1.111213	-1.348839	0.684757	1
H	0.493967	0.312801	1.678476	1
H	1.533057	-0.705139	-1.087233	1
H	2.391916	-0.876129	0.509916	1
H	2.397237	1.632161	0.769646	1
H	1.534297	1.798131	-0.825483	1
Es	0.559969	0.385811	0.596117	99
Es	1.588297	1.594507	-0.535631	99
Es	-0.599300	0.488697	-0.436936	99
Es	1.709007	1.193798	0.057223	99
Es	-0.667378	0.503192	-0.150041	99
Es	1.583869	-0.568676	-0.761157	99
Es	-0.214960	0.428518	0.146433	99
Es	-2.686616	-0.653169	-0.557731	99
Es	-0.827364	0.718015	-0.033558	99
Es	-1.987439	-0.779411	-0.529755	99
Es	-0.958699	0.072896	-0.059667	99
Es	-2.265192	-0.479453	-0.011792	99
Es	1.054055	0.950332	0.390442	99
Es	0.503703	0.325463	1.329464	99
Es	1.706364	-0.298435	-0.097662	99
Es	1.050954	-0.140590	0.283635	99
Es	2.173718	1.484850	0.544855	99
Es	2.170814	-0.686313	0.319021	99
Es	-1.225532	-1.095344	0.480625	99
Es	-2.926891	-0.120524	-0.995452	99
Es	1.873034	0.455497	-0.104784	99
Es	-3.119695	-1.232921	-0.455278	99
Es	-1.493875	-0.573493	0.035303	99
37
Properties=species:S:1:pos:R:3:Z:I:1 energy=-268.8807872660419 field_type=dipole dipole="0.000000 0.000000 0.000000" charge=0
C	-2.686553	-0.653159	-0.557703	6
C	-1.494143	-0.573689	0.035267	6
O	-0.667393	0.503471	-0.150414	8
C	0.560037	0.385781	0.596357	6
C	1.706437	-0.298589	-0.097733	6
C	1.709076	1.193971	0.057186	6
H	-3.329073	-1.512869	-0.406294	1
H	-3.037643	0.142101	-1.206743	1
H	-1.111213	-1.348839	0.684757	1
H	0.493967	0.312801	1.678476	1
H	1.533057	-0.705139	-1.087233	1
H	2.391916	-0.876129	0.509916	1
H	2.397237	1.632161	0.769646	1
H	1.534297	1.798131	-0.825483	1
Es	1.053737	0.950538	0.390960	99
Es	-2.265343	-0.479556	-0.011738	99
Es	0.559971	0.385810	0.596117	99
Es	-0.215081	0.428886	0.146941	99
Es	1.583787	-0.568737	-0.760978	99
Es	2.170751	-0.686376	0.318998	99
Es	0.503699	0.325055	1.329265	99
Es	-1.493875	-0.573493	0.035303	99
Es	-3.119661	-1.232918	-0.455302	99
Es	1.588163	1.594460	-0.535463	99
Es	2.173604	1.485004	0.544717	99
Es	1.051138	-0.140246	0.283460	99
Es	-0.598050	0.479765	-0.433143	99
Es	-1.987317	-0.779265	-0.529724	99
Es	-2.686615	-0.653169	-0.557731	99
Es	-0.667296	0.503116	-0.150235	99
Es	-0.826806	0.725121	-0.040267	99
Es	-0.960505	0.074432	-0.057022	99
Es	1.873607	0.455410	-0.105159	99
Es	-2.926927	-0.120543	-0.995433	99
Es	1.708997	1.193796	0.057227	99
Es	1.706358	-0.298440	-0.097661	99
Es	-1.225492	-1.095402	0.480542	99
37
Properties=species:S:1:pos:R:3:Z:I:1 energy=-268.8807872660419 field_type=dipole dipole="0.000000 0.000000 0.000000" charge=0
C	-2.686553	-0.653159	-0.557703	6
C	-1.494143	-0.573689	0.035267	6
O	-0.667393	0.503471	-0.150414	8
C	0.560037	0.385781	0.596357	6
C	1.706437	-0.298589	-0.097733	6
C	1.709076	1.193971	0.057186	6
H	-3.329073	-1.512869	-0.406294	1
H	-3.037643	0.142101	-1.206743	1
H	-1.111213	-1.348839	0.684757	1
H	0.493967	0.312801	1.678476	1
H	1.533057	-0.705139	-1.087233	1
H	2.391916	-0.876129	0.509916	1
H	2.397237	1.632161	0.769646	1
H	1.534297	1.798131	-0.825483	1
Es	2.173526	1.484973	0.544648	99
Es	1.053922	0.950692	0.390651	99
Es	-0.960302	0.074267	-0.057400	99
Es	1.708995	1.193800	0.057229	99
Es	-0.215121	0.429102	0.147207	99
Es	-3.119679	-1.232926	-0.455302	99
Es	-2.686617	-0.653168	-0.557730	99
Es	-2.265234	-0.479564	-0.011889	99
Es	-1.493875	-0.573494	0.035301	99
Es	2.170617	-0.686345	0.318834	99
Es	-1.987383	-0.779206	-0.529641	99
Es	-0.667310	0.503135	-0.150187	99
Es	-0.827133	0.725187	-0.040572	99
Es	-2.926904	-0.120541	-0.995438	99
Es	1.050810	-0.140704	0.283829	99
Es	1.588323	1.594425	-0.535406	99
Es	1.873724	0.455355	-0.105066	99
Es	0.559976	0.385809	0.596115	99
Es	1.583853	-0.568721	-0.760946	99
Es	-1.225558	-1.095473	0.480634	99
Es	0.503722	0.325430	1.329264	99
Es	-0.597876	0.479650	-0.432800	99
Es	1.706365	-0.298435	-0.097663	99
37
Properties=species:S:1:pos:R:3:Z:I:1 energy=-268.8807872660419 field_type=dipole dipole="0.000000 0.000000 0.000000" charge=0
C	-2.686553	-0.653159	-0.557703	6
C	-1.494143	-0.573689	0.035267	6
O	-0.667393	0.503471	-0.150414	8
C	0.560037	0.385781	0.596357	6
C	1.706437	-0.298589	-0.097733	6
C	1.709076	1.193971	0.057186	6
H	-3.329073	-1.512869	-0.406294	1
H	-3.037643	0.142101	-1.206743	1
H	-1.111213	-1.348839	0.684757	1
H	0.493967	0.312801	1.678476	1
H	1.533057	-0.705139	-1.087233	1
H	2.391916	-0.876129	0.509916	1
H	2.397237	1.632161	0.769646	1
H	1.534297	1.798131	-0.825483	1
Es	1.588370	1.594403	-0.535309	99
Es	-1.225591	-1.095510	0.480630	99
Es	-3.119699	-1.232850	-0.455270	99
Es	-0.960271	0.074104	-0.057687	99
Es	-0.214655	0.429034	0.146904	99
Es	-0.667310	0.503121	-0.150209	99
Es	0.503716	0.325465	1.329167	99
Es	1.053868	0.950834	0.390722	99
Es	0.559968	0.385809	0.596117	99
Es	-2.686621	-0.653164	-0.557724	99
Es	2.170555	-0.686282	0.318756	99
Es	-2.265164	-0.479554	-0.011915	99
Es	-0.826868	0.723486	-0.039287	99
Es	1.709000	1.193798	0.057225	99
Es	1.873903	0.455453	-0.105237	99
Es	-2.926911	-0.120545	-0.995439	99
Es	1.706370	-0.298429	-0.097663	99
Es	-0.598607	0.481596	-0.433469	99
Es	2.173521	1.484950	0.544546	99
Es	-1.493876	-0.573495	0.035300	99
Es	-1.987422	-0.779280	-0.529629	99
Es	1.583878	-0.568793	-0.760818	99
Es	1.050689	-0.140903	0.283961	99
37
Properties=species:S:1:pos:R:3:Z:I:1 energy=-268.8807872660419 field_type=dipole dipole="0.000000 0.000000 0.000000" charge=0
C	-2.686553	-0.653159	-0.557703	6
C	-1.494143	-0.573689	0.035267	6
O	-0.667393	0.503471	-0.150414	8
C	0.560037	0.385781	0.596357	6
C	1.706437	-0.298589	-0.097733	6
C	1.709076	1.193971	0.057186	6
H	-3.329073	-1.512869	-0.406294	1
H	-3.037643	0.142101	-1.206743	1
H	-1.111213	-1.348839	0.684757	1
H	0.493967	0.312801	1.678476	1
H	1.533057	-0.705139	-1.087233	1
H	2.391916	-0.876129	0.509916	1
H	2.397237	1.632161	0.769646	1
H	1.534297	1.798131	-0.825483	1
Es	1.873977	0.455080	-0.105162	99
Es	0.559974	0.385815	0.596117	99
Es	-0.598567	0.479744	-0.432345	99
Es	2.173558	1.484908	0.544404	99
Es	-2.265095	-0.479580	-0.011915	99
Es	1.583874	-0.568738	-0.760758	99
Es	-0.214468	0.428832	0.146734	99
Es	-0.826427	0.725092	-0.040871	99
Es	1.053544	0.951470	0.391059	99
Es	-1.493877	-0.573496	0.035300	99
Es	-1.987470	-0.779312	-0.529653	99
Es	1.050919	-0.140719	0.283758	99
Es	-2.926933	-0.120534	-0.995430	99
Es	1.709004	1.193804	0.057226	99
Es	-0.960923	0.074491	-0.057111	99
Es	0.503728	0.325295	1.329064	99
Es	-2.686619	-0.653167	-0.557732	99
Es	-1.225624	-1.095508	0.480652	99
Es	1.706364	-0.298432	-0.097661	99
Es	1.588534	1.594296	-0.535299	99
Es	-3.119672	-1.232829	-0.455291	99
Es	-0.667350	0.503151	-0.150115	99
Es	2.170393	-0.686414	0.318702	99
37
Properties=species:S:1:pos:R:3:Z:I:1 energy=-268.8807872660419 field_type=dipole dipole="0.000000 0.000000 0.000000" charge=0
C	-2.686553	-0.653159	-0.557703	6
C	-1.494143	-0.573689	0.035267	6
O	-0.667393	0.503471	-0.150414	8
C	0.560037	0.385781	0.596357	6
C	1.706437	-0.298589	-0.097733	6
C	1.709076	1.193971	0.057186	6
H	-3.329073	-1.512869	-0.406294	1
H	-3.037643	0.142101	-1.206743	1
H	-1.111213	-1.348839	0.684757	1
H	0.493967	0.312801	1.678476	1
H	1.533057	-0.705139	-1.087233	1
H	2.391916	-0.876129	0.509916	1
H	2.397237	1.632161	0.769646	1
H	1.534297	1.798131	-0.825483	1
Es	1.706365	-0.298436	-0.097663	99
Es	-3.119594	-1.232934	-0.455401	99
Es	1.583933	-0.568751	-0.760621	99
Es	-0.960022	0.073461	-0.059099	99
Es	2.173398	1.484938	0.544368	99
Es	-1.987477	-0.779113	-0.529529	99
Es	-1.493877	-0.573493	0.035303	99
Es	-2.686611	-0.653170	-0.557732	99
Es	0.503724	0.325431	1.328993	99
Es	-0.827022	0.721568	-0.037694	99
Es	1.053807	0.951082	0.390883	99
Es	1.588437	1.594395	-0.535112	99
Es	2.170456	-0.686294	0.318556	99
Es	-0.214089	0.428947	0.146686	99
Es	1.050438	-0.141211	0.284146	99
Es	1.708998	1.193795	0.057227	99
Es	-2.265181	-0.479554	-0.011855	99
Es	-1.225620	-1.095585	0.480615	99
Es	-0.599268	0.484197	-0.433425	99
Es	1.874343	0.455551	-0.105444	99
Es	-2.926955	-0.120591	-0.995418	99
Es	-0.667316	0.503204	-0.150229	99
Es	0.559977	0.385811	0.596116	99
37
Properties=species:S:1:pos:R:3:Z:I:1 energy=-268.8807872660419 field_type=dipole dipole="0.000000 0.000000 0.000000" charge=0
C	-2.686553	-0.653159	-0.557703	6
C	-1.494143	-0.573689	0.035267	6
O	-0.667393	0.503471	-0.150414	8
C	0.560037	0.385781	0.596357	6
C	1.706437	-0.298589	-0.097733	6
C	1.709076	1.193971	0.057186	6
H	-3.329073	-1.512869	-0.406294	1
H	-3.037643	0.142101	-1.206743	1
H	-1.111213	-1.348839	0.684757	1
H	0.493967	0.312801	1.678476	1
H	1.533057	-0.705139	-1.087233	1
H	2.391916	-0.876129	0.509916	1
H	2.397237	1.632161	0.769646	1
H	1.534297	1.798131	-0.825483	1
Es	2.173332	1.484936	0.544283	99
Es	0.559979	0.385810	0.596116	99
Es	-1.987550	-0.779284	-0.529682	99
Es	-3.119701	-1.232805	-0.455299	99
Es	1.583963	-0.568765	-0.760538	99
Es	2.170443	-0.686230	0.318436	99
Es	-0.825468	0.728165	-0.047258	99
Es	0.503730	0.325297	1.328867	99
Es	1.588450	1.594401	-0.534985	99
Es	-1.493877	-0.573497	0.035300	99
Es	-0.962701	0.075804	-0.054941	99
Es	1.874537	0.455452	-0.105609	99
Es	-0.597011	0.473709	-0.430170	99
Es	-2.686613	-0.653169	-0.557730	99
Es	-0.215218	0.430606	0.148949	99
Es	1.706364	-0.298434	-0.097662	99
Es	-2.264936	-0.479578	-0.011990	99
Es	1.053727	0.951324	0.391076	99
Es	-1.225697	-1.095586	0.480698	99
Es	-0.667346	0.503158	-0.150261	99
Es	-2.926941	-0.120572	-0.995364	99
Es	1.050379	-0.141290	0.284210	99
Es	1.708997	1.193793	0.057227	99
37
Properties=species:S:1:pos:R:3:Z:I:1 energy=-268.8807872660419 field_type=dipole dipole="0.000000 0.000000 0.000000" charge=0
C	-2.686553	-0.653159	-0.557703	6
C	-1.494143	-0.573689	0.035267	6
O	-0.667393	0.503471	-0.150414	8
C	0.560037	0.385781	0.596357	6
C	1.706437	-0.298589	-0.097733	6
C	1.709076	1.193971	0.057186	6
H	-3.329073	-1.512869	-0.406294	1
H	-3.037643	0.142101	-1.206743	1
H	-1.111213	-1.348839	0.684757	1
H	0.493967	0.312801	1.678476	1
H	1.533057	-0.705139	-1.087233	1
H	2.391916	-0.876129	0.509916	1
H	2.397237	1.632161	0.769646	1
H	1.534297	1.798131	-0.825483	1
Es	1.053696	0.951386	0.391088	99
Es	-3.119662	-1.232737	-0.455333	99
Es	-2.686613	-0.653168	-0.557729	99
Es	-1.987572	-0.779425	-0.529726	99
Es	-0.213718	0.428401	0.146217	99
Es	0.503737	0.325399	1.328801	99
Es	2.170293	-0.686266	0.318410	99
Es	1.050292	-0.141428	0.284280	99
Es	1.874760	0.455535	-0.105573	99
Es	1.588482	1.594348	-0.534976	99
Es	-0.826467	0.721398	-0.037407	99
Es	1.706362	-0.298432	-0.097662	99
Es	-1.493876	-0.573495	0.035302	99
Es	2.173297	1.484961	0.544201	99
Es	-2.926973	-0.120637	-0.995369	99
Es	1.584024	-0.568760	-0.760487	99
Es	1.708997	1.193792	0.057227	99
Es	-2.264913	-0.479488	-0.011861	99
Es	-0.599698	0.485095	-0.432922	99
Es	-0.667345	0.503153	-0.150112	99
Es	-1.225700	-1.095565	0.480684	99
Es	-0.960539	0.073368	-0.059497	99
Es	0.559978	0.385809	0.596115	99
37
Properties=species:S:1:pos:R:3:Z:I:1 energy=-268.8807872660419 field_type=dipole dipole="0.000000 0.000000 0.000000" charge=0
C	-2.686553	-0.653159	-0.557703	6
C	-1.494143	-0.573689	0.035267	6
O	-0.667393	0.503471	-0.150414	8
C	0.560037	0.385781	0.596357	6
C	1.706437	-0.298589	-0.097733	6
C	1.709076	1.193971	0.057186	6
H	-3.329073	-1.512869	-0.406294	1
H	-3.037643	0.142101	-1.206743	1
H	-1.111213	-1.348839	0.684757	1
H	0.493967	0.312801	1.678476	1
H	1.533057	-0.705139	-1.087233	1
H	2.391916	-0.876129	0.509916	1
H	2.397237	1.632161	0.769646	1
H	1.534297	1.798131	-0.825483	1
Es	-1.987474	-0.779208	-0.529563	99
Es	1.050222	-0.141534	0.284374	99
Es	-2.926932	-0.120646	-0.995415	99
Es	-3.119662	-1.232804	-0.455345	99
Es	-0.960525	0.073381	-0.059038	99
Es	-0.667344	0.503180	-0.150169	99
Es	-2.265028	-0.479581	-0.012038	99
Es	-0.599016	0.483358	-0.432400	99
Es	1.584001	-0.568755	-0.760403	99
Es	2.170255	-0.686276	0.318312	99
Es	-1.225751	-1.095633	0.480732	99
Es	1.588511	1.594340	-0.534874	99
Es	2.173224	1.484972	0.544118	99
Es	-0.214116	0.429230	0.146907	99
Es	1.708998	1.193793	0.057227	99
Es	1.874984	0.455547	-0.105693	99
Es	1.053661	0.951538	0.391214	99
Es	-1.493877	-0.573497	0.035299	99
Es	1.706362	-0.298431	-0.097660	99
Es	-0.826741	0.722302	-0.038988	99
Es	-2.686612	-0.653168	-0.557729	99
Es	0.559982	0.385811	0.596119	99
Es	0.503721	0.325328	1.328684	99
37
Properties=species:S:1:pos:R:3:Z:I:1 energy=-268.8807872660419 field_type=dipole dipole="0.000000 0.000000 0.000000" charge=0
C	-2.686553	-0.653159	-0.557703	6
C	-1.494143	-0.573689	0.035267	6
O	-0.667393	0.503471	-0.150414	8
C	0.560037	0.385781	0.596357	6
C	1.706437	-0.298589	-0.097733	6
C	1.709076	1.193971	0.057186	6
H	-3.329073	-1.512869	-0.406294	1
H	-3.037643	0.142101	-1.206743	1
H	-1.111213	-1.348839	0.684757	1
H	0.493967	0.312801	1.678476	1
H	1.533057	-0.705139	-1.087233	1
H	2.391916	-0.876129	0.509916	1
H	2.397237	1.632161	0.769646	1
H	1.534297	1.798131	-0.825483	1
Es	1.053546	0.951667	0.391231	99
Es	-2.926996	-0.120675	-0.995343	99
Es	-1.493878	-0.573497	0.035300	99
Es	-3.119640	-1.232820	-0.455335	99
Es	-0.960816	0.073939	-0.058357	99
Es	1.050157	-0.141625	0.284373	99
Es	-1.225754	-1.095670	0.480689	99
Es	2.173179	1.484958	0.544097	99
Es	-1.987498	-0.779168	-0.529596	99
Es	1.588581	1.594328	-0.534749	99
Es	-0.599372	0.483022	-0.432722	99
Es	1.709000	1.193797	0.057226	99
Es	2.170202	-0.686270	0.318273	99
Es	-0.826279	0.721725	-0.039921	99
Es	-0.213804	0.429554	0.147252	99
Es	-2.686609	-0.653164	-0.557721	99
Es	1.584032	-0.568773	-0.760270	99
Es	0.559983	0.385809	0.596115	99
Es	0.503740	0.325329	1.328628	99
Es	-0.667460	0.503198	-0.149945	99
Es	-2.264996	-0.479545	-0.012017	99
Es	1.875162	0.455559	-0.105874	99
Es	1.706361	-0.298430	-0.097660	99
