34
Properties=species:S:1:pos:R:3:Z:I:1 energy=-267.7253157491752 field_type=dipole dipole="0.000000 0.000000 0.000000" charge=0
C	-1.417097	-0.698716	-0.325993	6
C	0.019183	-0.809746	-0.772173	6
O	0.428623	-1.827106	-1.335223	8
C	0.916283	0.392874	-0.565213	6
C	0.935033	0.853124	0.830187	6
C	0.953883	1.236374	1.968357	6
H	-1.855997	0.221284	-0.720313	1
H	-1.472657	-0.709226	0.764887	1
H	-1.986707	-1.547666	-0.715073	1
H	0.570813	1.189854	-1.231773	1
H	1.931323	0.121954	-0.876443	1
H	0.977313	1.576994	2.978776	1
Es	0.910950	0.625289	0.155538	99
Es	0.472209	-0.189108	-0.637160	99
Es	1.287283	0.955704	1.429756	99
Es	1.585292	0.220494	-0.754710	99
Es	0.935022	0.853027	0.829897	99
Es	-1.417040	-0.698688	-0.326002	99
Es	0.687818	0.805190	1.483982	99
Es	0.347399	-1.554191	-0.907720	99
Es	0.851387	1.373915	1.299816	99
Es	-0.699884	-0.739731	-0.540735	99
Es	0.202955	-2.043511	-1.365078	99
Es	-1.695395	-0.074448	-0.590885	99
Es	0.219995	-1.359769	-1.356088	99
Es	0.916226	0.392904	-0.565076	99
Es	0.019202	-0.809697	-0.772151	99
Es	0.953885	1.236441	1.968580	99
Es	0.735020	-1.811725	-1.415721	99
Es	-1.795704	-1.264767	-0.586956	99
Es	0.967934	1.457399	2.625748	99
Es	-1.437606	-0.700472	0.394562	99
Es	0.671892	0.915559	-0.991000	99
Es	0.428534	-1.826817	-1.335076	99
34
Properties=species:S:1:pos:R:3:Z:I:1 energy=-267.7253157491752 field_type=dipole dipole="0.000000 0.000000 0.000000" charge=0
C	-1.417097	-0.698716	-0.325993	6
C	0.019183	-0.809746	-0.772173	6
O	0.428623	-1.827106	-1.335223	8
C	0.916283	0.392874	-0.565213	6
C	0.935033	0.853124	0.830187	6
C	0.953883	1.236374	1.968357	6
H	-1.855997	0.221284	-0.720313	1
H	-1.472657	-0.709226	0.764887	1
H	-1.986707	-1.547666	-0.715073	1
H	0.570813	1.189854	-1.231773	1
H	1.931323	0.121954	-0.876443	1
H	0.977313	1.576994	2.978776	1
Es	0.953892	1.236438	1.968578	99
Es	-1.417041	-0.698690	-0.326003	99
Es	-1.795648	-1.264758	-0.586981	99
Es	-1.695451	-0.074439	-0.590851	99
Es	0.472061	-0.189225	-0.637120	99
Es	0.428570	-1.826838	-1.335082	99
Es	0.202197	-2.043900	-1.366278	99
Es	0.968125	1.457647	2.625576	99
Es	0.671938	0.915717	-0.991055	99
Es	0.019202	-0.809700	-0.772152	99
Es	0.221228	-1.358328	-1.355511	99
Es	1.179839	1.298033	1.310378	99
Es	0.347969	-1.555164	-0.907873	99
Es	0.589303	1.115143	1.390352	99
Es	-0.699987	-0.739732	-0.540832	99
Es	1.057396	0.721624	1.512759	99
Es	0.935027	0.853026	0.829900	99
Es	0.916226	0.392905	-0.565076	99
Es	1.585366	0.220510	-0.754545	99
Es	0.734031	-1.811788	-1.414852	99
Es	-1.437570	-0.700537	0.394588	99
Es	0.910701	0.625053	0.155600	99
34
Properties=species:S:1:pos:R:3:Z:I:1 energy=-267.7253157491752 field_type=dipole dipole="0.000000 0.000000 0.000000" charge=0
C	-1.417097	-0.698716	-0.325993	6
C	0.019183	-0.809746	-0.772173	6
O	0.428623	-1.827106	-1.335223	8
C	0.916283	0.392874	-0.565213	6
C	0.935033	0.853124	0.830187	6
C	0.953883	1.236374	1.968357	6
H	-1.855997	0.221284	-0.720313	1
H	-1.472657	-0.709226	0.764887	1
H	-1.986707	-1.547666	-0.715073	1
H	0.570813	1.189854	-1.231773	1
H	1.931323	0.121954	-0.876443	1
H	0.977313	1.576994	2.978776	1
Es	1.200249	1.279969	1.315911	99
Es	0.220336	-1.358832	-1.355806	99
Es	0.935022	0.853024	0.829900	99
Es	0.428518	-1.826843	-1.335084	99
Es	0.671952	0.915894	-0.991069	99
Es	0.953888	1.236442	1.968579	99
Es	0.735064	-1.810930	-1.414089	99
Es	1.029407	0.713400	1.515332	99
Es	0.346684	-1.554994	-0.908474	99
Es	-0.700049	-0.739731	-0.540724	99
Es	-1.795634	-1.264743	-0.587125	99
Es	0.019200	-0.809699	-0.772153	99
Es	-1.437568	-0.700665	0.394600	99
Es	0.472064	-0.189176	-0.637025	99
Es	-1.695429	-0.074377	-0.590758	99
Es	0.203333	-2.044377	-1.366230	99
Es	-1.417040	-0.698691	-0.326003	99
Es	0.916225	0.392904	-0.565075	99
Es	1.585329	0.220398	-0.754527	99
Es	0.910909	0.624896	0.155528	99
Es	0.596636	1.141541	1.382248	99
Es	0.968278	1.457587	2.625564	99
34
Properties=species:S:1:pos:R:3:Z:I:1 energy=-267.7253157491752 field_type=dipole dipole="0.000000 0.000000 0.000000" charge=0
C	-1.417097	-0.698716	-0.325993	6
C	0.019183	-0.809746	-0.772173	6
O	0.428623	-1.827106	-1.335223	8
C	0.916283	0.392874	-0.565213	6
C	0.935033	0.853124	0.830187	6
C	0.953883	1.236374	1.968357	6
H	-1.855997	0.221284	-0.720313	1
H	-1.472657	-0.709226	0.764887	1
H	-1.986707	-1.547666	-0.715073	1
H	0.570813	1.189854	-1.231773	1
H	1.931323	0.121954	-0.876443	1
H	0.977313	1.576994	2.978776	1
Es	1.217743	1.261075	1.321926	99
Es	0.953897	1.236436	1.968578	99
Es	0.734404	-1.812630	-1.415829	99
Es	0.202784	-2.042745	-1.365265	99
Es	-1.437627	-0.700461	0.394602	99
Es	0.968299	1.457478	2.625587	99
Es	0.916227	0.392905	-0.565077	99
Es	0.347826	-1.554873	-0.907444	99
Es	0.220399	-1.358933	-1.355987	99
Es	0.910763	0.625125	0.155429	99
Es	0.935034	0.853027	0.829903	99
Es	0.671848	0.915825	-0.991133	99
Es	0.428509	-1.826845	-1.335065	99
Es	-0.700033	-0.739762	-0.540767	99
Es	1.003830	0.708000	1.516887	99
Es	0.604819	1.165791	1.374704	99
Es	-1.695355	-0.074465	-0.590908	99
Es	-1.795687	-1.264784	-0.587006	99
Es	0.019200	-0.809696	-0.772154	99
Es	0.472183	-0.189274	-0.636939	99
Es	1.585350	0.220494	-0.754518	99
Es	-1.417040	-0.698690	-0.326003	99
34
Properties=species:S:1:pos:R:3:Z:I:1 energy=-267.7253157491752 field_type=dipole dipole="0.000000 0.000000 0.000000" charge=0
C	-1.417097	-0.698716	-0.325993	6
C	0.019183	-0.809746	-0.772173	6
O	0.428623	-1.827106	-1.335223	8
C	0.916283	0.392874	-0.565213	6
C	0.935033	0.853124	0.830187	6
C	0.953883	1.236374	1.968357	6
H	-1.855997	0.221284	-0.720313	1
H	-1.472657	-0.709226	0.764887	1
H	-1.986707	-1.547666	-0.715073	1
H	0.570813	1.189854	-1.231773	1
H	1.931323	0.121954	-0.876443	1
H	0.977313	1.576994	2.978776	1
Es	0.204312	-2.044841	-1.366182	99
Es	0.953891	1.236444	1.968579	99
Es	0.916225	0.392907	-0.565077	99
Es	-1.695340	-0.074459	-0.590916	99
Es	1.585409	0.220565	-0.754618	99
Es	-1.437506	-0.700502	0.394748	99
Es	0.734235	-1.809813	-1.415204	99
Es	0.472247	-0.189261	-0.636907	99
Es	0.815517	1.364123	1.304719	99
Es	0.715908	0.781139	1.491573	99
Es	0.967883	1.457392	2.625570	99
Es	-1.417040	-0.698690	-0.326003	99
Es	0.019202	-0.809699	-0.772149	99
Es	-0.700213	-0.739837	-0.540886	99
Es	0.671776	0.915699	-0.991024	99
Es	0.935043	0.853021	0.829899	99
Es	0.428536	-1.826840	-1.335098	99
Es	0.910923	0.625405	0.155158	99
Es	0.347431	-1.554786	-0.907497	99
Es	-1.795698	-1.264711	-0.587001	99
Es	1.295185	0.989429	1.417496	99
Es	0.219445	-1.359687	-1.355658	99
34
Properties=species:S:1:pos:R:3:Z:I:1 energy=-267.7253157491752 field_type=dipole dipole="0.000000 0.000000 0.000000" charge=0
C	-1.417097	-0.698716	-0.325993	6
C	0.019183	-0.809746	-0.772173	6
O	0.428623	-1.827106	-1.335223	8
C	0.916283	0.392874	-0.565213	6
C	0.935033	0.853124	0.830187	6
C	0.953883	1.236374	1.968357	6
H	-1.855997	0.221284	-0.720313	1
H	-1.472657	-0.709226	0.764887	1
H	-1.986707	-1.547666	-0.715073	1
H	0.570813	1.189854	-1.231773	1
H	1.931323	0.121954	-0.876443	1
H	0.977313	1.576994	2.978776	1
Es	0.428522	-1.826851	-1.335077	99
Es	1.585487	0.220548	-0.754543	99
Es	0.472265	-0.189276	-0.636835	99
Es	-1.417039	-0.698690	-0.326003	99
Es	0.910721	0.625159	0.155204	99
Es	0.935024	0.853026	0.829903	99
Es	0.953887	1.236444	1.968576	99
Es	0.204706	-2.044924	-1.366790	99
Es	0.019201	-0.809699	-0.772153	99
Es	0.916227	0.392904	-0.565080	99
Es	0.671693	0.915867	-0.991071	99
Es	-1.695336	-0.074376	-0.590904	99
Es	-1.795724	-1.264768	-0.586991	99
Es	0.219316	-1.359464	-1.355405	99
Es	0.968229	1.457418	2.625532	99
Es	-1.437512	-0.700504	0.394623	99
Es	0.734346	-1.809396	-1.414863	99
Es	-0.700213	-0.739890	-0.540774	99
Es	0.905341	0.705351	1.516984	99
Es	0.347071	-1.555331	-0.907485	99
Es	1.270145	1.181503	1.348566	99
Es	0.651018	1.247946	1.348107	99
34
Properties=species:S:1:pos:R:3:Z:I:1 energy=-267.7253157491752 field_type=dipole dipole="0.000000 0.000000 0.000000" charge=0
C	-1.417097	-0.698716	-0.325993	6
C	0.019183	-0.809746	-0.772173	6
O	0.428623	-1.827106	-1.335223	8
C	0.916283	0.392874	-0.565213	6
C	0.935033	0.853124	0.830187	6
C	0.953883	1.236374	1.968357	6
H	-1.855997	0.221284	-0.720313	1
H	-1.472657	-0.709226	0.764887	1
H	-1.986707	-1.547666	-0.715073	1
H	0.570813	1.189854	-1.231773	1
H	1.931323	0.121954	-0.876443	1
H	0.977313	1.576994	2.978776	1
Es	0.671719	0.915874	-0.991087	99
Es	0.734528	-1.811788	-1.414843	99
Es	0.968175	1.457543	2.625489	99
Es	0.428530	-1.826852	-1.335084	99
Es	0.910670	0.625180	0.155174	99
Es	0.472254	-0.189342	-0.636723	99
Es	0.203309	-2.043255	-1.366359	99
Es	-1.695291	-0.074403	-0.590941	99
Es	0.953886	1.236443	1.968576	99
Es	0.346875	-1.554974	-0.907497	99
Es	-1.795741	-1.264794	-0.586992	99
Es	-1.437557	-0.700444	0.394614	99
Es	1.256461	1.207444	1.339676	99
Es	0.220684	-1.359060	-1.355909	99
Es	-1.417040	-0.698689	-0.326004	99
Es	0.019205	-0.809702	-0.772143	99
Es	0.935641	0.703046	1.518018	99
Es	0.634509	1.224225	1.355953	99
Es	0.916226	0.392905	-0.565077	99
Es	-0.700223	-0.739893	-0.540712	99
Es	0.935024	0.853014	0.829895	99
Es	1.585527	0.220519	-0.754502	99
34
Properties=species:S:1:pos:R:3:Z:I:1 energy=-267.7253157491752 field_type=dipole dipole="0.000000 0.000000 0.000000" charge=0
C	-1.417097	-0.698716	-0.325993	6
C	0.019183	-0.809746	-0.772173	6
O	0.428623	-1.827106	-1.335223	8
C	0.916283	0.392874	-0.565213	6
C	0.935033	0.853124	0.830187	6
C	0.953883	1.236374	1.968357	6
H	-1.855997	0.221284	-0.720313	1
H	-1.472657	-0.709226	0.764887	1
H	-1.986707	-1.547666	-0.715073	1
H	0.570813	1.189854	-1.231773	1
H	1.931323	0.121954	-0.876443	1
H	0.977313	1.576994	2.978776	1
Es	0.734045	-1.810663	-1.414700	99
Es	0.472289	-0.189316	-0.636807	99
Es	-1.417040	-0.698690	-0.326003	99
Es	-0.700314	-0.739935	-0.540768	99
Es	0.910716	0.625213	0.155047	99
Es	0.953887	1.236441	1.968576	99
Es	-1.795733	-1.264767	-0.586992	99
Es	0.916227	0.392904	-0.565079	99
Es	0.675354	1.275820	1.338639	99
Es	0.220028	-1.359061	-1.355724	99
Es	0.019201	-0.809699	-0.772153	99
Es	0.428064	-1.826867	-1.334961	99
Es	0.935024	0.853026	0.829902	99
Es	0.968207	1.457372	2.625493	99
Es	0.671695	0.915886	-0.991043	99
Es	0.204764	-2.044036	-1.366852	99
Es	-1.695322	-0.074343	-0.590910	99
Es	1.585562	0.220569	-0.754500	99
Es	1.283415	1.148091	1.360244	99
Es	-1.437474	-0.700520	0.394638	99
Es	0.867731	0.710884	1.514863	99
Es	0.347050	-1.555312	-0.907389	99
34
Properties=species:S:1:pos:R:3:Z:I:1 energy=-267.7253157491752 field_type=dipole dipole="0.000000 0.000000 0.000000" charge=0
C	-1.417097	-0.698716	-0.325993	6
C	0.019183	-0.809746	-0.772173	6
O	0.428623	-1.827106	-1.335223	8
C	0.916283	0.392874	-0.565213	6
C	0.935033	0.853124	0.830187	6
C	0.953883	1.236374	1.968357	6
H	-1.855997	0.221284	-0.720313	1
H	-1.472657	-0.709226	0.764887	1
H	-1.986707	-1.547666	-0.715073	1
H	0.570813	1.189854	-1.231773	1
H	1.931323	0.121954	-0.876443	1
H	0.977313	1.576994	2.978776	1
Es	0.911144	0.625163	0.154931	99
Es	-0.700381	-0.739976	-0.540743	99
Es	-1.417040	-0.698690	-0.326003	99
Es	0.967888	1.457431	2.625448	99
Es	0.428534	-1.826871	-1.335091	99
Es	0.671619	0.915853	-0.991069	99
Es	-1.437483	-0.700431	0.394626	99
Es	0.935029	0.853023	0.829904	99
Es	0.347728	-1.555742	-0.907208	99
Es	-1.695290	-0.074341	-0.591013	99
Es	0.472372	-0.189325	-0.636796	99
Es	0.203891	-2.043061	-1.366116	99
Es	0.647913	0.851574	1.469803	99
Es	0.912662	1.383775	1.293640	99
Es	1.585567	0.220602	-0.754503	99
Es	0.953883	1.236441	1.968577	99
Es	0.019203	-0.809701	-0.772154	99
Es	-1.795732	-1.264823	-0.586942	99
Es	0.916227	0.392904	-0.565079	99
Es	1.265808	0.899483	1.450407	99
Es	0.219609	-1.358971	-1.355062	99
Es	0.734223	-1.811318	-1.416034	99
34
Properties=species:S:1:pos:R:3:Z:I:1 energy=-267.7253157491752 field_type=dipole dipole="0.000000 0.000000 0.000000" charge=0
C	-1.417097	-0.698716	-0.325993	6
C	0.019183	-0.809746	-0.772173	6
O	0.428623	-1.827106	-1.335223	8
C	0.916283	0.392874	-0.565213	6
C	0.935033	0.853124	0.830187	6
C	0.953883	1.236374	1.968357	6
H	-1.855997	0.221284	-0.720313	1
H	-1.472657	-0.709226	0.764887	1
H	-1.986707	-1.547666	-0.715073	1
H	0.570813	1.189854	-1.231773	1
H	1.931323	0.121954	-0.876443	1
H	0.977313	1.576994	2.978776	1
Es	0.910695	0.624898	0.155082	99
Es	-0.700391	-0.739983	-0.540710	99
Es	0.916226	0.392904	-0.565079	99
Es	0.019200	-0.809698	-0.772159	99
Es	0.219072	-1.359580	-1.355404	99
Es	-1.695287	-0.074324	-0.590916	99
Es	0.348052	-1.554696	-0.907819	99
Es	0.472314	-0.189349	-0.636764	99
Es	0.733896	-1.810144	-1.415787	99
Es	1.585649	0.220526	-0.754392	99
Es	0.671687	0.916034	-0.991062	99
Es	-1.795719	-1.264735	-0.587043	99
Es	0.204383	-2.044635	-1.365486	99
Es	0.428534	-1.826872	-1.335097	99
Es	0.935021	0.853026	0.829904	99
Es	0.968184	1.457585	2.625386	99
Es	1.021772	0.711612	1.515939	99
Es	-1.437520	-0.700554	0.394646	99
Es	0.598489	1.149337	1.379849	99
Es	-1.417043	-0.698690	-0.326003	99
Es	0.953885	1.236443	1.968573	99
Es	1.206274	1.273892	1.317859	99
34
Properties=species:S:1:pos:R:3:Z:I:1 energy=-267.7253157491752 field_type=dipole dipole="0.000000 0.000000 0.000000" charge=0
C	-1.417097	-0.698716	-0.325993	6
C	0.019183	-0.809746	-0.772173	6
O	0.428623	-1.827106	-1.335223	8
C	0.916283	0.392874	-0.565213	6
C	0.935033	0.853124	0.830187	6
C	0.953883	1.236374	1.968357	6
H	-1.855997	0.221284	-0.720313	1
H	-1.472657	-0.709226	0.764887	1
H	-1.986707	-1.547666	-0.715073	1
H	0.570813	1.189854	-1.231773	1
H	1.931323	0.121954	-0.876443	1
H	0.977313	1.576994	2.978776	1
Es	-1.695274	-0.074272	-0.590844	99
Es	0.935023	0.853025	0.829904	99
Es	0.346864	-1.555629	-0.907494	99
Es	1.585673	0.220553	-0.754336	99
Es	0.219239	-1.359288	-1.355273	99
Es	1.000716	0.707625	1.517102	99
Es	-1.437409	-0.700622	0.394680	99
Es	0.910624	0.624900	0.155008	99
Es	0.916227	0.392905	-0.565080	99
Es	0.953886	1.236442	1.968577	99
Es	0.428573	-1.826798	-1.335075	99
Es	-0.700474	-0.739980	-0.540804	99
Es	0.671686	0.916075	-0.991063	99
Es	1.220273	1.258574	1.322752	99
Es	0.733746	-1.808558	-1.414162	99
Es	0.968225	1.457538	2.625380	99
Es	0.472329	-0.189367	-0.636800	99
Es	0.605544	1.168656	1.373823	99
Es	0.205504	-2.045683	-1.367548	99
Es	0.019201	-0.809696	-0.772151	99
Es	-1.417041	-0.698690	-0.326003	99
Es	-1.795763	-1.264713	-0.587071	99
34
Properties=species:S:1:pos:R:3:Z:I:1 energy=-267.7253157491752 field_type=dipole dipole="0.000000 0.000000 0.000000" charge=0
C	-1.417097	-0.698716	-0.325993	6
C	0.019183	-0.809746	-0.772173	6
O	0.428623	-1.827106	-1.335223	8
C	0.916283	0.392874	-0.565213	6
C	0.935033	0.853124	0.830187	6
C	0.953883	1.236374	1.968357	6
H	-1.855997	0.221284	-0.720313	1
H	-1.472657	-0.709226	0.764887	1
H	-1.986707	-1.547666	-0.715073	1
H	0.570813	1.189854	-1.231773	1
H	1.931323	0.121954	-0.876443	1
H	0.977313	1.576994	2.978776	1
Es	0.019201	-0.809700	-0.772150	99
Es	0.733982	-1.812000	-1.415915	99
Es	0.968245	1.457578	2.625334	99
Es	-1.417040	-0.698691	-0.326001	99
Es	0.935029	0.853040	0.829899	99
Es	0.916227	0.392904	-0.565080	99
Es	-0.700490	-0.740080	-0.540703	99
Es	1.585730	0.220599	-0.754411	99
Es	0.671576	0.916062	-0.991017	99
Es	-1.795761	-1.264755	-0.586996	99
Es	0.203363	-2.043005	-1.365280	99
Es	1.013356	0.709914	1.516448	99
Es	1.212079	1.267882	1.319775	99
Es	-1.437414	-0.700554	0.394627	99
Es	0.347921	-1.554691	-0.907635	99
Es	-1.695276	-0.074247	-0.590925	99
Es	0.953889	1.236436	1.968578	99
Es	0.910704	0.624900	0.154971	99
Es	0.472381	-0.189398	-0.636675	99
Es	0.220074	-1.359238	-1.355660	99
Es	0.601023	1.157007	1.377481	99
Es	0.428575	-1.826965	-1.335147	99
34
Properties=species:S:1:pos:R:3:Z:I:1 energy=-267.7253157491752 field_type=dipole dipole="0.000000 0.000000 0.000000" charge=0
C	-1.417097	-0.698716	-0.325993	6
C	0.019183	-0.809746	-0.772173	6
O	0.428623	-1.827106	-1.335223	8
C	0.916283	0.392874	-0.565213	6
C	0.935033	0.853124	0.830187	6
C	0.953883	1.236374	1.968357	6
H	-1.855997	0.221284	-0.720313	1
H	-1.472657	-0.709226	0.764887	1
H	-1.986707	-1.547666	-0.715073	1
H	0.570813	1.189854	-1.231773	1
H	1.931323	0.121954	-0.876443	1
H	0.977313	1.576994	2.978776	1
Es	0.733846	-1.811275	-1.414521	99
Es	0.916227	0.392905	-0.565078	99
Es	1.585677	0.220601	-0.754376	99
Es	0.204095	-2.043711	-1.366705	99
Es	0.911007	0.625130	0.154654	99
Es	0.220525	-1.358897	-1.355878	99
Es	0.953883	1.236439	1.968575	99
Es	0.671630	0.916047	-0.991026	99
Es	-1.437366	-0.700667	0.394692	99
Es	0.019203	-0.809700	-0.772155	99
Es	-1.417039	-0.698690	-0.326003	99
Es	0.935026	0.853027	0.829903	99
Es	0.346980	-1.555103	-0.907459	99
Es	0.821354	1.366340	1.303808	99
Es	1.294274	0.983139	1.419890	99
Es	0.967952	1.457315	2.625335	99
Es	-1.795735	-1.264733	-0.587091	99
Es	-1.695286	-0.074215	-0.590859	99
Es	-0.700617	-0.740055	-0.540778	99
Es	0.472431	-0.189399	-0.636669	99
Es	0.428503	-1.826855	-1.335081	99
Es	0.710802	0.785354	1.490343	99
