38
Properties=species:S:1:pos:R:3:Z:I:1 energy=-305.89857259116775 field_type=dipole dipole="0.000000 0.000000 0.000000" charge=0
C	-0.632712	-2.163288	-0.520139	6
O	-1.000012	-0.877938	-0.039049	8
C	0.141528	-0.083718	0.346331	6
C	0.587938	0.940922	-0.656229	6
C	-0.139152	1.376022	0.579721	6
O	0.673288	2.019352	1.573771	8
H	-1.540432	-2.693698	-0.819889	1
H	-0.134982	-2.734758	0.269111	1
H	0.025138	-2.070898	-1.389719	1
H	0.889878	-0.536478	0.990031	1
H	0.057068	0.995232	-1.599499	1
H	1.649388	1.144042	-0.726599	1
H	-1.170732	1.698402	0.480491	1
H	0.593798	2.986802	1.511671	1
Es	0.587865	0.940875	-0.656094	99
Es	0.351876	1.802726	1.187594	99
Es	-1.120192	-0.726039	-0.276289	99
Es	0.226136	0.971039	-1.289584	99
Es	1.302005	1.082582	-0.696619	99
Es	-1.158450	-0.929012	0.218810	99
Es	0.673115	2.019538	1.573525	99
Es	-0.999659	-0.878043	-0.039121	99
Es	0.556233	1.943131	1.845378	99
Es	-0.833021	1.602021	0.513104	99
Es	0.646211	-0.399974	0.773957	99
Es	0.958594	1.950304	1.495090	99
Es	-0.175262	-2.103588	-1.116111	99
Es	0.141324	-0.083672	0.346193	99
Es	-1.250039	-2.523502	-0.723891	99
Es	-0.822919	-1.355915	-0.219149	99
Es	-0.283473	-2.557193	0.019790	99
Es	-0.632767	-2.163082	-0.520061	99
Es	0.235495	1.334665	-0.112987	99
Es	-0.138906	1.376019	0.579810	99
Es	0.612591	2.534126	1.514617	99
Es	0.452455	0.295737	-0.270347	99
Es	-0.540596	-0.602307	0.101589	99
Es	-0.086140	0.603938	0.631731	99
38
Properties=species:S:1:pos:R:3:Z:I:1 energy=-305.89857259116775 field_type=dipole dipole="0.000000 0.000000 0.000000" charge=0
C	-0.632712	-2.163288	-0.520139	6
O	-1.000012	-0.877938	-0.039049	8
C	0.141528	-0.083718	0.346331	6
C	0.587938	0.940922	-0.656229	6
C	-0.139152	1.376022	0.579721	6
O	0.673288	2.019352	1.573771	8
H	-1.540432	-2.693698	-0.819889	1
H	-0.134982	-2.734758	0.269111	1
H	0.025138	-2.070898	-1.389719	1
H	0.889878	-0.536478	0.990031	1
H	0.057068	0.995232	-1.599499	1
H	1.649388	1.144042	-0.726599	1
H	-1.170732	1.698402	0.480491	1
H	0.593798	2.986802	1.511671	1
Es	0.587866	0.940876	-0.656096	99
Es	1.301943	1.082515	-0.696651	99
Es	0.554211	1.944902	1.843595	99
Es	0.352207	1.802455	1.186998	99
Es	0.452596	0.295617	-0.270735	99
Es	-0.632765	-2.163082	-0.520062	99
Es	-0.175220	-2.103592	-1.116038	99
Es	-0.540747	-0.602297	0.102673	99
Es	-0.822711	-1.355936	-0.218716	99
Es	-1.250042	-2.523536	-0.723954	99
Es	0.226232	0.971150	-1.289502	99
Es	0.959526	1.948748	1.498013	99
Es	-0.138905	1.376012	0.579800	99
Es	-0.832907	1.602035	0.513066	99
Es	-1.158307	-0.929238	0.217836	99
Es	0.613311	2.534251	1.514148	99
Es	-0.999656	-0.878032	-0.039131	99
Es	0.673131	2.019533	1.573419	99
Es	-1.120410	-0.725841	-0.276778	99
Es	-0.086280	0.604003	0.632044	99
Es	-0.283499	-2.557178	0.019761	99
Es	0.646153	-0.399916	0.773846	99
Es	0.141305	-0.083662	0.346219	99
Es	0.235443	1.334584	-0.112819	99
38
Properties=species:S:1:pos:R:3:Z:I:1 energy=-305.89857259116775 field_type=dipole dipole="0.000000 0.000000 0.000000" charge=0
C	-0.632712	-2.163288	-0.520139	6
O	-1.000012	-0.877938	-0.039049	8
C	0.141528	-0.083718	0.346331	6
C	0.587938	0.940922	-0.656229	6
C	-0.139152	1.376022	0.579721	6
O	0.673288	2.019352	1.573771	8
H	-1.540432	-2.693698	-0.819889	1
H	-0.134982	-2.734758	0.269111	1
H	0.025138	-2.070898	-1.389719	1
H	0.889878	-0.536478	0.990031	1
H	0.057068	0.995232	-1.599499	1
H	1.649388	1.144042	-0.726599	1
H	-1.170732	1.698402	0.480491	1
H	0.593798	2.986802	1.511671	1
Es	1.301914	1.082534	-0.696774	99
Es	0.587861	0.940873	-0.656087	99
Es	-1.120037	-0.726590	-0.275608	99
Es	-0.540590	-0.601544	0.102269	99
Es	-0.138907	1.376009	0.579800	99
Es	0.141323	-0.083663	0.346200	99
Es	0.646087	-0.399903	0.773813	99
Es	0.614193	2.534415	1.513826	99
Es	0.452583	0.295376	-0.270646	99
Es	-0.832834	1.602066	0.513024	99
Es	-0.999703	-0.878005	-0.039115	99
Es	-1.158578	-0.929041	0.217689	99
Es	-0.632765	-2.163083	-0.520062	99
Es	0.235401	1.334837	-0.112815	99
Es	0.959487	1.947945	1.499326	99
Es	0.673083	2.019518	1.573552	99
Es	-0.283468	-2.557176	0.019742	99
Es	-0.086260	0.603841	0.631980	99
Es	0.226235	0.971230	-1.289350	99
Es	-1.250029	-2.523554	-0.723948	99
Es	0.352582	1.802433	1.186528	99
Es	-0.175259	-2.103608	-1.116027	99
Es	0.553084	1.945597	1.842980	99
Es	-0.822929	-1.356134	-0.219359	99
38
Properties=species:S:1:pos:R:3:Z:I:1 energy=-305.89857259116775 field_type=dipole dipole="0.000000 0.000000 0.000000" charge=0
C	-0.632712	-2.163288	-0.520139	6
O	-1.000012	-0.877938	-0.039049	8
C	0.141528	-0.083718	0.346331	6
C	0.587938	0.940922	-0.656229	6
C	-0.139152	1.376022	0.579721	6
O	0.673288	2.019352	1.573771	8
H	-1.540432	-2.693698	-0.819889	1
H	-0.134982	-2.734758	0.269111	1
H	0.025138	-2.070898	-1.389719	1
H	0.889878	-0.536478	0.990031	1
H	0.057068	0.995232	-1.599499	1
H	1.649388	1.144042	-0.726599	1
H	-1.170732	1.698402	0.480491	1
H	0.593798	2.986802	1.511671	1
Es	0.554260	1.945229	1.843337	99
Es	0.673087	2.019512	1.573534	99
Es	-1.121585	-0.726336	-0.276544	99
Es	-0.540559	-0.601695	0.101889	99
Es	-0.086384	0.603837	0.632125	99
Es	0.352030	1.802236	1.186745	99
Es	0.587863	0.940874	-0.656091	99
Es	0.226348	0.971172	-1.289445	99
Es	0.614028	2.534432	1.514127	99
Es	-0.175248	-2.103650	-1.116041	99
Es	-1.156803	-0.928160	0.217033	99
Es	-0.823261	-1.357106	-0.217483	99
Es	0.646046	-0.399850	0.773775	99
Es	-0.632765	-2.163083	-0.520062	99
Es	0.141328	-0.083679	0.346185	99
Es	-1.250018	-2.523613	-0.723886	99
Es	-0.283475	-2.557118	0.019699	99
Es	0.235421	1.335034	-0.113019	99
Es	-0.832676	1.601995	0.513081	99
Es	0.958990	1.948527	1.498475	99
Es	0.452692	0.295319	-0.270535	99
Es	-0.138908	1.376008	0.579804	99
Es	-0.999670	-0.878032	-0.039054	99
Es	1.301734	1.082521	-0.696713	99
38
Properties=species:S:1:pos:R:3:Z:I:1 energy=-305.89857259116775 field_type=dipole dipole="0.000000 0.000000 0.000000" charge=0
C	-0.632712	-2.163288	-0.520139	6
O	-1.000012	-0.877938	-0.039049	8
C	0.141528	-0.083718	0.346331	6
C	0.587938	0.940922	-0.656229	6
C	-0.139152	1.376022	0.579721	6
O	0.673288	2.019352	1.573771	8
H	-1.540432	-2.693698	-0.819889	1
H	-0.134982	-2.734758	0.269111	1
H	0.025138	-2.070898	-1.389719	1
H	0.889878	-0.536478	0.990031	1
H	0.057068	0.995232	-1.599499	1
H	1.649388	1.144042	-0.726599	1
H	-1.170732	1.698402	0.480491	1
H	0.593798	2.986802	1.511671	1
Es	-0.175268	-2.103645	-1.115992	99
Es	1.301657	1.082502	-0.696773	99
Es	-0.540413	-0.602000	0.102604	99
Es	-0.138907	1.376008	0.579799	99
Es	-0.832618	1.601946	0.513097	99
Es	-1.250001	-2.523570	-0.723961	99
Es	0.959813	1.947036	1.501790	99
Es	0.614710	2.534652	1.513609	99
Es	-1.158151	-0.928591	0.217133	99
Es	-0.823427	-1.356610	-0.219213	99
Es	0.551772	1.946793	1.841449	99
Es	0.673057	2.019540	1.573524	99
Es	0.452833	0.295090	-0.270762	99
Es	0.141333	-0.083669	0.346187	99
Es	-0.632765	-2.163084	-0.520062	99
Es	-0.999712	-0.877990	-0.039079	99
Es	0.353028	1.801953	1.185848	99
Es	-1.120127	-0.726143	-0.275539	99
Es	0.587863	0.940874	-0.656091	99
Es	0.645961	-0.399797	0.773719	99
Es	0.235301	1.335201	-0.112951	99
Es	-0.283487	-2.557187	0.019696	99
Es	0.226460	0.971185	-1.289335	99
Es	-0.086437	0.603879	0.632240	99
38
Properties=species:S:1:pos:R:3:Z:I:1 energy=-305.89857259116775 field_type=dipole dipole="0.000000 0.000000 0.000000" charge=0
C	-0.632712	-2.163288	-0.520139	6
O	-1.000012	-0.877938	-0.039049	8
C	0.141528	-0.083718	0.346331	6
C	0.587938	0.940922	-0.656229	6
C	-0.139152	1.376022	0.579721	6
O	0.673288	2.019352	1.573771	8
H	-1.540432	-2.693698	-0.819889	1
H	-0.134982	-2.734758	0.269111	1
H	0.025138	-2.070898	-1.389719	1
H	0.889878	-0.536478	0.990031	1
H	0.057068	0.995232	-1.599499	1
H	1.649388	1.144042	-0.726599	1
H	-1.170732	1.698402	0.480491	1
H	0.593798	2.986802	1.511671	1
Es	-0.632765	-2.163085	-0.520062	99
Es	0.958716	1.948550	1.498680	99
Es	0.351976	1.802130	1.186607	99
Es	-1.157322	-0.928561	0.217286	99
Es	0.554436	1.945184	1.843042	99
Es	0.673103	2.019510	1.573562	99
Es	-0.138907	1.376007	0.579800	99
Es	0.645894	-0.399753	0.773691	99
Es	0.141324	-0.083671	0.346194	99
Es	-0.086461	0.603885	0.632273	99
Es	-0.175323	-2.103672	-1.116001	99
Es	-0.832540	1.601908	0.513110	99
Es	0.452919	0.294960	-0.270631	99
Es	-0.823531	-1.356783	-0.219229	99
Es	0.226606	0.971046	-1.289373	99
Es	-0.540371	-0.601550	0.101926	99
Es	0.614132	2.534623	1.514343	99
Es	-1.120955	-0.726360	-0.275010	99
Es	1.301562	1.082576	-0.696706	99
Es	0.587874	0.940870	-0.656107	99
Es	-1.249979	-2.523607	-0.723919	99
Es	-0.283447	-2.557171	0.019649	99
Es	0.235192	1.335399	-0.113135	99
Es	-0.999659	-0.878061	-0.039052	99
38
Properties=species:S:1:pos:R:3:Z:I:1 energy=-305.89857259116775 field_type=dipole dipole="0.000000 0.000000 0.000000" charge=0
C	-0.632712	-2.163288	-0.520139	6
O	-1.000012	-0.877938	-0.039049	8
C	0.141528	-0.083718	0.346331	6
C	0.587938	0.940922	-0.656229	6
C	-0.139152	1.376022	0.579721	6
O	0.673288	2.019352	1.573771	8
H	-1.540432	-2.693698	-0.819889	1
H	-0.134982	-2.734758	0.269111	1
H	0.025138	-2.070898	-1.389719	1
H	0.889878	-0.536478	0.990031	1
H	0.057068	0.995232	-1.599499	1
H	1.649388	1.144042	-0.726599	1
H	-1.170732	1.698402	0.480491	1
H	0.593798	2.986802	1.511671	1
Es	-1.249973	-2.523600	-0.723919	99
Es	0.235252	1.335546	-0.113063	99
Es	1.301509	1.082484	-0.696857	99
Es	-0.823761	-1.357430	-0.218226	99
Es	0.141323	-0.083674	0.346193	99
Es	-0.283456	-2.557180	0.019632	99
Es	0.351740	1.801959	1.186704	99
Es	-0.999719	-0.878063	-0.039089	99
Es	0.587860	0.940872	-0.656086	99
Es	-1.119807	-0.726886	-0.275522	99
Es	-0.632764	-2.163089	-0.520064	99
Es	0.645846	-0.399712	0.773608	99
Es	-1.158233	-0.927492	0.216373	99
Es	0.614062	2.534682	1.514466	99
Es	0.226597	0.971210	-1.289213	99
Es	-0.138906	1.376005	0.579797	99
Es	-0.086516	0.603907	0.632383	99
Es	0.554796	1.945230	1.842894	99
Es	0.452960	0.294736	-0.270774	99
Es	-0.540301	-0.601479	0.102397	99
Es	-0.175320	-2.103671	-1.116002	99
Es	-0.832464	1.601869	0.513118	99
Es	0.673118	2.019520	1.573525	99
Es	0.958633	1.948629	1.498660	99
38
Properties=species:S:1:pos:R:3:Z:I:1 energy=-305.89857259116775 field_type=dipole dipole="0.000000 0.000000 0.000000" charge=0
C	-0.632712	-2.163288	-0.520139	6
O	-1.000012	-0.877938	-0.039049	8
C	0.141528	-0.083718	0.346331	6
C	0.587938	0.940922	-0.656229	6
C	-0.139152	1.376022	0.579721	6
O	0.673288	2.019352	1.573771	8
H	-1.540432	-2.693698	-0.819889	1
H	-0.134982	-2.734758	0.269111	1
H	0.025138	-2.070898	-1.389719	1
H	0.889878	-0.536478	0.990031	1
H	0.057068	0.995232	-1.599499	1
H	1.649388	1.144042	-0.726599	1
H	-1.170732	1.698402	0.480491	1
H	0.593798	2.986802	1.511671	1
Es	0.645794	-0.399688	0.773568	99
Es	0.352179	1.801786	1.186191	99
Es	-0.086566	0.603858	0.632487	99
Es	-0.823569	-1.356308	-0.221012	99
Es	0.235224	1.335688	-0.113093	99
Es	-1.123244	-0.725685	-0.273227	99
Es	-0.540296	-0.601183	0.101676	99
Es	0.958824	1.948115	1.500085	99
Es	1.301404	1.082480	-0.696882	99
Es	0.614413	2.534785	1.514329	99
Es	-0.283453	-2.557150	0.019653	99
Es	0.673092	2.019527	1.573521	99
Es	0.141326	-0.083671	0.346191	99
Es	-0.999653	-0.878059	-0.039043	99
Es	0.587861	0.940874	-0.656087	99
Es	-1.155086	-0.930081	0.217505	99
Es	0.226671	0.971201	-1.289182	99
Es	-0.138907	1.376004	0.579795	99
Es	-0.832379	1.601854	0.513112	99
Es	0.553830	1.945835	1.842129	99
Es	-1.249951	-2.523629	-0.723915	99
Es	0.453050	0.294624	-0.270826	99
Es	-0.175326	-2.103718	-1.115975	99
Es	-0.632764	-2.163088	-0.520064	99
38
Properties=species:S:1:pos:R:3:Z:I:1 energy=-305.89857259116775 field_type=dipole dipole="0.000000 0.000000 0.000000" charge=0
C	-0.632712	-2.163288	-0.520139	6
O	-1.000012	-0.877938	-0.039049	8
C	0.141528	-0.083718	0.346331	6
C	0.587938	0.940922	-0.656229	6
C	-0.139152	1.376022	0.579721	6
O	0.673288	2.019352	1.573771	8
H	-1.540432	-2.693698	-0.819889	1
H	-0.134982	-2.734758	0.269111	1
H	0.025138	-2.070898	-1.389719	1
H	0.889878	-0.536478	0.990031	1
H	0.057068	0.995232	-1.599499	1
H	1.649388	1.144042	-0.726599	1
H	-1.170732	1.698402	0.480491	1
H	0.593798	2.986802	1.511671	1
Es	-0.086654	0.603741	0.632768	99
Es	-0.832337	1.601843	0.513107	99
Es	0.587861	0.940873	-0.656085	99
Es	0.141330	-0.083667	0.346187	99
Es	-0.138907	1.376003	0.579793	99
Es	0.351207	1.801627	1.186855	99
Es	-0.823841	-1.357310	-0.219244	99
Es	0.958558	1.948765	1.498591	99
Es	0.613898	2.534852	1.514962	99
Es	0.555512	1.945369	1.842227	99
Es	0.453034	0.294780	-0.270895	99
Es	-0.999598	-0.878011	-0.039243	99
Es	-0.540316	-0.601202	0.102378	99
Es	0.645790	-0.399688	0.773472	99
Es	-0.175279	-2.103715	-1.115988	99
Es	-1.157401	-0.928092	0.216347	99
Es	0.226719	0.971244	-1.289212	99
Es	0.235304	1.335599	-0.113202	99
Es	1.301346	1.082475	-0.696842	99
Es	-0.632764	-2.163087	-0.520063	99
Es	0.673160	2.019469	1.573614	99
Es	-1.249905	-2.523585	-0.723939	99
Es	-0.283544	-2.557217	0.019595	99
Es	-1.120698	-0.726691	-0.274244	99
38
Properties=species:S:1:pos:R:3:Z:I:1 energy=-305.89857259116775 field_type=dipole dipole="0.000000 0.000000 0.000000" charge=0
C	-0.632712	-2.163288	-0.520139	6
O	-1.000012	-0.877938	-0.039049	8
C	0.141528	-0.083718	0.346331	6
C	0.587938	0.940922	-0.656229	6
C	-0.139152	1.376022	0.579721	6
O	0.673288	2.019352	1.573771	8
H	-1.540432	-2.693698	-0.819889	1
H	-0.134982	-2.734758	0.269111	1
H	0.025138	-2.070898	-1.389719	1
H	0.889878	-0.536478	0.990031	1
H	0.057068	0.995232	-1.599499	1
H	1.649388	1.144042	-0.726599	1
H	-1.170732	1.698402	0.480491	1
H	0.593798	2.986802	1.511671	1
Es	-0.832249	1.601746	0.513216	99
Es	-1.121201	-0.726703	-0.274428	99
Es	0.351342	1.801727	1.186641	99
Es	-0.999717	-0.878052	-0.039097	99
Es	0.235024	1.336037	-0.113131	99
Es	0.587860	0.940881	-0.656085	99
Es	-0.086597	0.603815	0.632663	99
Es	-1.249934	-2.523616	-0.723865	99
Es	0.141328	-0.083661	0.346190	99
Es	1.301216	1.082511	-0.696938	99
Es	0.645753	-0.399632	0.773392	99
Es	-0.823904	-1.357623	-0.218793	99
Es	-0.283430	-2.557188	0.019564	99
Es	0.673096	2.019528	1.573542	99
Es	-1.156698	-0.927914	0.215998	99
Es	-0.175395	-2.103734	-1.116015	99
Es	-0.138906	1.376000	0.579794	99
Es	-0.540295	-0.601044	0.102324	99
Es	0.453196	0.294353	-0.270969	99
Es	-0.632764	-2.163089	-0.520064	99
Es	0.226842	0.971195	-1.289072	99
Es	0.555555	1.945167	1.842651	99
Es	0.957853	1.948651	1.498680	99
Es	0.614498	2.535018	1.514737	99
38
Properties=species:S:1:pos:R:3:Z:I:1 energy=-305.89857259116775 field_type=dipole dipole="0.000000 0.000000 0.000000" charge=0
C	-0.632712	-2.163288	-0.520139	6
O	-1.000012	-0.877938	-0.039049	8
C	0.141528	-0.083718	0.346331	6
C	0.587938	0.940922	-0.656229	6
C	-0.139152	1.376022	0.579721	6
O	0.673288	2.019352	1.573771	8
H	-1.540432	-2.693698	-0.819889	1
H	-0.134982	-2.734758	0.269111	1
H	0.025138	-2.070898	-1.389719	1
H	0.889878	-0.536478	0.990031	1
H	0.057068	0.995232	-1.599499	1
H	1.649388	1.144042	-0.726599	1
H	-1.170732	1.698402	0.480491	1
H	0.593798	2.986802	1.511671	1
Es	-0.632764	-2.163088	-0.520063	99
Es	1.301121	1.082464	-0.696931	99
Es	-1.119725	-0.727072	-0.274019	99
Es	0.645623	-0.399565	0.773469	99
Es	0.673091	2.019506	1.573542	99
Es	0.351418	1.801834	1.186440	99
Es	-1.158162	-0.927652	0.215870	99
Es	0.235127	1.336177	-0.113245	99
Es	-0.540261	-0.601020	0.102629	99
Es	-0.175358	-2.103748	-1.115942	99
Es	-0.832177	1.601770	0.513144	99
Es	-0.086687	0.603791	0.632708	99
Es	0.226913	0.971169	-1.289086	99
Es	-0.283463	-2.557178	0.019551	99
Es	0.141332	-0.083660	0.346191	99
Es	0.957603	1.949837	1.497621	99
Es	-0.138905	1.375997	0.579790	99
Es	0.453284	0.294237	-0.270893	99
Es	-0.999664	-0.878058	-0.039077	99
Es	-0.824000	-1.357520	-0.219431	99
Es	0.613484	2.535067	1.515859	99
Es	0.556702	1.943860	1.842819	99
Es	-1.249915	-2.523649	-0.723923	99
Es	0.587860	0.940877	-0.656085	99
