38
Properties=species:S:1:pos:R:3:Z:I:1 energy=-305.9469565031077 field_type=dipole dipole="0.000000 0.000000 0.000000" charge=0
C	-0.947922	-1.312649	1.153100	6
O	-1.076332	-0.846269	-0.184450	8
C	-0.894972	0.557701	-0.285320	6
C	0.552348	1.008571	-0.126300	6
C	1.560138	0.394331	-1.060080	6
O	0.877148	1.859511	0.702840	8
H	-1.157322	-2.386418	1.162780	1
H	-1.668022	-0.812339	1.809560	1
H	0.070668	-1.156499	1.521700	1
H	-1.526032	1.079511	0.444150	1
H	-1.226212	0.870541	-1.281510	1
H	1.563908	-0.691539	-0.941830	1
H	2.558528	0.774021	-0.823570	1
H	1.314078	0.661521	-2.091070	1
Es	1.560080	0.394339	-1.060066	99
Es	1.378241	0.576174	-1.742092	99
Es	-1.089220	-2.041136	1.158482	99
Es	2.226846	0.649385	-0.902727	99
Es	-1.100889	0.771425	-0.961827	99
Es	1.053404	0.690556	-0.599712	99
Es	-0.164490	0.767408	-0.198420	99
Es	-0.988647	-0.303810	-0.188505	99
Es	-0.248856	-1.198489	1.406750	99
Es	0.877041	1.859269	0.702607	99
Es	0.552342	1.008559	-0.126304	99
Es	-1.318321	0.910612	0.216765	99
Es	-0.843536	-0.969063	-0.338142	99
Es	-1.437271	-0.963450	1.603599	99
Es	0.710611	1.730240	0.232925	99
Es	1.184808	1.932504	0.694320	99
Es	-1.018845	-0.986205	0.334024	99
Es	0.804969	1.369739	0.573546	99
Es	-1.367220	-0.892389	-0.264664	99
Es	-0.947937	-1.312568	1.152882	99
Es	-0.894926	0.557478	-0.285326	99
Es	1.550182	-0.324978	-0.976106	99
Es	-1.076273	-0.846132	-0.184263	99
Es	0.631334	1.959594	0.876451	99
38
Properties=species:S:1:pos:R:3:Z:I:1 energy=-305.9469565031077 field_type=dipole dipole="0.000000 0.000000 0.000000" charge=0
C	-0.947922	-1.312649	1.153100	6
O	-1.076332	-0.846269	-0.184450	8
C	-0.894972	0.557701	-0.285320	6
C	0.552348	1.008571	-0.126300	6
C	1.560138	0.394331	-1.060080	6
O	0.877148	1.859511	0.702840	8
H	-1.157322	-2.386418	1.162780	1
H	-1.668022	-0.812339	1.809560	1
H	0.070668	-1.156499	1.521700	1
H	-1.526032	1.079511	0.444150	1
H	-1.226212	0.870541	-1.281510	1
H	1.563908	-0.691539	-0.941830	1
H	2.558528	0.774021	-0.823570	1
H	1.314078	0.661521	-2.091070	1
Es	-1.017869	-0.986600	0.333991	99
Es	1.560082	0.394342	-1.060064	99
Es	1.550122	-0.324997	-0.976136	99
Es	1.378312	0.576211	-1.742086	99
Es	0.804221	1.369619	0.574000	99
Es	-0.947938	-1.312566	1.152882	99
Es	-1.076233	-0.846043	-0.184162	99
Es	-1.318433	0.910575	0.216617	99
Es	1.053421	0.690594	-0.599725	99
Es	0.877056	1.859280	0.702616	99
Es	0.552341	1.008561	-0.126309	99
Es	-1.100875	0.771344	-0.961835	99
Es	-1.437294	-0.963399	1.603624	99
Es	-0.248930	-1.198480	1.406720	99
Es	-0.894926	0.557476	-0.285327	99
Es	1.184771	1.931039	0.692923	99
Es	-1.089181	-2.041218	1.158437	99
Es	-1.366634	-0.890139	-0.261267	99
Es	-0.845087	-0.971123	-0.341572	99
Es	-0.988551	-0.303691	-0.188423	99
Es	2.226843	0.649309	-0.902695	99
Es	-0.164519	0.767576	-0.198331	99
Es	0.709966	1.730404	0.232952	99
Es	0.632761	1.960988	0.877366	99
38
Properties=species:S:1:pos:R:3:Z:I:1 energy=-305.9469565031077 field_type=dipole dipole="0.000000 0.000000 0.000000" charge=0
C	-0.947922	-1.312649	1.153100	6
O	-1.076332	-0.846269	-0.184450	8
C	-0.894972	0.557701	-0.285320	6
C	0.552348	1.008571	-0.126300	6
C	1.560138	0.394331	-1.060080	6
O	0.877148	1.859511	0.702840	8
H	-1.157322	-2.386418	1.162780	1
H	-1.668022	-0.812339	1.809560	1
H	0.070668	-1.156499	1.521700	1
H	-1.526032	1.079511	0.444150	1
H	-1.226212	0.870541	-1.281510	1
H	1.563908	-0.691539	-0.941830	1
H	2.558528	0.774021	-0.823570	1
H	1.314078	0.661521	-2.091070	1
Es	-1.100769	0.771451	-0.961833	99
Es	-0.164650	0.767377	-0.198267	99
Es	-1.089206	-2.041147	1.158457	99
Es	0.804449	1.369403	0.572527	99
Es	0.710876	1.730598	0.234024	99
Es	-1.076213	-0.846045	-0.184156	99
Es	1.560082	0.394342	-1.060067	99
Es	-1.366319	-0.888228	-0.259517	99
Es	1.550107	-0.325002	-0.976179	99
Es	-1.318381	0.910633	0.216695	99
Es	-0.248896	-1.198501	1.406782	99
Es	-0.846726	-0.972697	-0.343137	99
Es	-0.987460	-0.303818	-0.188904	99
Es	-0.947936	-1.312570	1.152886	99
Es	1.053544	0.690605	-0.599667	99
Es	0.877048	1.859277	0.702613	99
Es	0.552341	1.008556	-0.126307	99
Es	-1.017758	-0.986828	0.334148	99
Es	-0.894925	0.557479	-0.285326	99
Es	0.631314	1.960102	0.876830	99
Es	2.226866	0.649281	-0.902736	99
Es	1.185048	1.932025	0.693783	99
Es	-1.437266	-0.963490	1.603604	99
Es	1.378258	0.576258	-1.742057	99
38
Properties=species:S:1:pos:R:3:Z:I:1 energy=-305.9469565031077 field_type=dipole dipole="0.000000 0.000000 0.000000" charge=0
C	-0.947922	-1.312649	1.153100	6
O	-1.076332	-0.846269	-0.184450	8
C	-0.894972	0.557701	-0.285320	6
C	0.552348	1.008571	-0.126300	6
C	1.560138	0.394331	-1.060080	6
O	0.877148	1.859511	0.702840	8
H	-1.157322	-2.386418	1.162780	1
H	-1.668022	-0.812339	1.809560	1
H	0.070668	-1.156499	1.521700	1
H	-1.526032	1.079511	0.444150	1
H	-1.226212	0.870541	-1.281510	1
H	1.563908	-0.691539	-0.941830	1
H	2.558528	0.774021	-0.823570	1
H	1.314078	0.661521	-2.091070	1
Es	0.632156	1.960385	0.877638	99
Es	-0.248892	-1.198516	1.406789	99
Es	1.560082	0.394341	-1.060065	99
Es	1.378267	0.576294	-1.742071	99
Es	-1.100806	0.771519	-0.961896	99
Es	1.184117	1.931314	0.693409	99
Es	0.552340	1.008560	-0.126309	99
Es	-0.847764	-0.971677	-0.342907	99
Es	-1.076334	-0.846025	-0.184157	99
Es	1.550138	-0.325032	-0.976180	99
Es	-1.318295	0.910594	0.216680	99
Es	-1.437254	-0.963494	1.603604	99
Es	1.053514	0.690513	-0.599722	99
Es	-1.089224	-2.041139	1.158457	99
Es	-0.894926	0.557483	-0.285325	99
Es	0.804889	1.369320	0.573012	99
Es	-0.947937	-1.312570	1.152885	99
Es	-0.164719	0.767471	-0.198233	99
Es	-0.987426	-0.303672	-0.188999	99
Es	-1.366469	-0.888718	-0.259634	99
Es	0.877063	1.859320	0.702630	99
Es	-1.016482	-0.987538	0.334158	99
Es	2.226830	0.649324	-0.902692	99
Es	0.710559	1.731007	0.233125	99
38
Properties=species:S:1:pos:R:3:Z:I:1 energy=-305.9469565031077 field_type=dipole dipole="0.000000 0.000000 0.000000" charge=0
C	-0.947922	-1.312649	1.153100	6
O	-1.076332	-0.846269	-0.184450	8
C	-0.894972	0.557701	-0.285320	6
C	0.552348	1.008571	-0.126300	6
C	1.560138	0.394331	-1.060080	6
O	0.877148	1.859511	0.702840	8
H	-1.157322	-2.386418	1.162780	1
H	-1.668022	-0.812339	1.809560	1
H	0.070668	-1.156499	1.521700	1
H	-1.526032	1.079511	0.444150	1
H	-1.226212	0.870541	-1.281510	1
H	1.563908	-0.691539	-0.941830	1
H	2.558528	0.774021	-0.823570	1
H	1.314078	0.661521	-2.091070	1
Es	-0.164741	0.767440	-0.198266	99
Es	-0.248930	-1.198513	1.406886	99
Es	1.053617	0.690570	-0.599729	99
Es	0.709873	1.730325	0.232860	99
Es	1.550148	-0.325044	-0.976130	99
Es	-1.365632	-0.889554	-0.260949	99
Es	-1.018115	-0.987009	0.334314	99
Es	-0.947937	-1.312569	1.152883	99
Es	0.877087	1.859350	0.702688	99
Es	0.804359	1.369649	0.574103	99
Es	0.552341	1.008563	-0.126311	99
Es	-0.988204	-0.303459	-0.188991	99
Es	1.560083	0.394341	-1.060066	99
Es	-1.437350	-0.963640	1.603602	99
Es	-1.100862	0.771576	-0.961863	99
Es	-1.076291	-0.846053	-0.184179	99
Es	1.378259	0.576294	-1.742107	99
Es	-1.318216	0.910579	0.216692	99
Es	-0.894926	0.557482	-0.285325	99
Es	2.226790	0.649314	-0.902708	99
Es	-1.089137	-2.041113	1.158355	99
Es	-0.846213	-0.971477	-0.341738	99
Es	1.184509	1.931177	0.692985	99
Es	0.632916	1.960835	0.877191	99
38
Properties=species:S:1:pos:R:3:Z:I:1 energy=-305.9469565031077 field_type=dipole dipole="0.000000 0.000000 0.000000" charge=0
C	-0.947922	-1.312649	1.153100	6
O	-1.076332	-0.846269	-0.184450	8
C	-0.894972	0.557701	-0.285320	6
C	0.552348	1.008571	-0.126300	6
C	1.560138	0.394331	-1.060080	6
O	0.877148	1.859511	0.702840	8
H	-1.157322	-2.386418	1.162780	1
H	-1.668022	-0.812339	1.809560	1
H	0.070668	-1.156499	1.521700	1
H	-1.526032	1.079511	0.444150	1
H	-1.226212	0.870541	-1.281510	1
H	1.563908	-0.691539	-0.941830	1
H	2.558528	0.774021	-0.823570	1
H	1.314078	0.661521	-2.091070	1
Es	1.185121	1.929561	0.692510	99
Es	-1.018691	-0.986769	0.334556	99
Es	0.877063	1.859265	0.702595	99
Es	1.550086	-0.325031	-0.976108	99
Es	-0.947937	-1.312571	1.152889	99
Es	0.552342	1.008561	-0.126307	99
Es	-1.437204	-0.963498	1.603602	99
Es	1.560083	0.394340	-1.060065	99
Es	-1.100763	0.771581	-0.961831	99
Es	0.709366	1.731650	0.233281	99
Es	-1.089239	-2.041113	1.158516	99
Es	-0.894926	0.557484	-0.285326	99
Es	1.378123	0.576263	-1.742050	99
Es	-0.164801	0.767464	-0.198219	99
Es	0.634076	1.961193	0.878459	99
Es	-1.318274	0.910611	0.216651	99
Es	-0.248933	-1.198552	1.406808	99
Es	-0.846110	-0.971895	-0.341649	99
Es	-0.987956	-0.303739	-0.189370	99
Es	2.226904	0.649326	-0.902809	99
Es	-1.365469	-0.889249	-0.261000	99
Es	1.053729	0.690519	-0.599670	99
Es	0.803104	1.369718	0.572916	99
Es	-1.076267	-0.846056	-0.184183	99
38
Properties=species:S:1:pos:R:3:Z:I:1 energy=-305.9469565031077 field_type=dipole dipole="0.000000 0.000000 0.000000" charge=0
C	-0.947922	-1.312649	1.153100	6
O	-1.076332	-0.846269	-0.184450	8
C	-0.894972	0.557701	-0.285320	6
C	0.552348	1.008571	-0.126300	6
C	1.560138	0.394331	-1.060080	6
O	0.877148	1.859511	0.702840	8
H	-1.157322	-2.386418	1.162780	1
H	-1.668022	-0.812339	1.809560	1
H	0.070668	-1.156499	1.521700	1
H	-1.526032	1.079511	0.444150	1
H	-1.226212	0.870541	-1.281510	1
H	1.563908	-0.691539	-0.941830	1
H	2.558528	0.774021	-0.823570	1
H	1.314078	0.661521	-2.091070	1
Es	-1.076238	-0.846058	-0.184170	99
Es	-0.894926	0.557479	-0.285325	99
Es	1.053613	0.690479	-0.599846	99
Es	0.552341	1.008560	-0.126310	99
Es	-0.248950	-1.198561	1.406804	99
Es	-1.364960	-0.889076	-0.260521	99
Es	1.550216	-0.324998	-0.976028	99
Es	1.378219	0.576186	-1.742160	99
Es	0.803265	1.369484	0.574188	99
Es	-0.847346	-0.971831	-0.341943	99
Es	-0.947936	-1.312570	1.152885	99
Es	-1.318041	0.910564	0.216781	99
Es	0.708533	1.730911	0.233270	99
Es	1.184554	1.928824	0.690503	99
Es	-0.164793	0.767515	-0.198418	99
Es	0.635353	1.962784	0.879276	99
Es	0.877052	1.859276	0.702615	99
Es	-1.089282	-2.041141	1.158546	99
Es	-1.018206	-0.987556	0.334447	99
Es	-1.101015	0.771638	-0.961804	99
Es	-0.987767	-0.303161	-0.189443	99
Es	1.560083	0.394339	-1.060064	99
Es	-1.437139	-0.963476	1.603593	99
Es	2.226799	0.649452	-0.902679	99
38
Properties=species:S:1:pos:R:3:Z:I:1 energy=-305.9469565031077 field_type=dipole dipole="0.000000 0.000000 0.000000" charge=0
C	-0.947922	-1.312649	1.153100	6
O	-1.076332	-0.846269	-0.184450	8
C	-0.894972	0.557701	-0.285320	6
C	0.552348	1.008571	-0.126300	6
C	1.560138	0.394331	-1.060080	6
O	0.877148	1.859511	0.702840	8
H	-1.157322	-2.386418	1.162780	1
H	-1.668022	-0.812339	1.809560	1
H	0.070668	-1.156499	1.521700	1
H	-1.526032	1.079511	0.444150	1
H	-1.226212	0.870541	-1.281510	1
H	1.563908	-0.691539	-0.941830	1
H	2.558528	0.774021	-0.823570	1
H	1.314078	0.661521	-2.091070	1
Es	-1.017176	-0.988087	0.334453	99
Es	1.183973	1.932610	0.694220	99
Es	0.552341	1.008561	-0.126308	99
Es	-1.365599	-0.887886	-0.259686	99
Es	1.550101	-0.325069	-0.976078	99
Es	2.226848	0.649328	-0.902807	99
Es	-1.089216	-2.041103	1.158544	99
Es	-1.100701	0.771587	-0.961861	99
Es	0.632082	1.959334	0.876709	99
Es	-0.849199	-0.972174	-0.342556	99
Es	-0.986230	-0.303468	-0.189670	99
Es	1.053778	0.690557	-0.599772	99
Es	-1.318269	0.910652	0.216584	99
Es	0.710254	1.730555	0.232798	99
Es	0.877073	1.859288	0.702615	99
Es	-0.164918	0.767530	-0.198138	99
Es	1.378158	0.576272	-1.742066	99
Es	-0.249012	-1.198570	1.406848	99
Es	-1.076272	-0.846089	-0.184205	99
Es	1.560084	0.394339	-1.060063	99
Es	-1.437179	-0.963537	1.603609	99
Es	0.805369	1.369523	0.573463	99
Es	-0.894927	0.557483	-0.285327	99
Es	-0.947935	-1.312572	1.152891	99
38
Properties=species:S:1:pos:R:3:Z:I:1 energy=-305.9469565031077 field_type=dipole dipole="0.000000 0.000000 0.000000" charge=0
C	-0.947922	-1.312649	1.153100	6
O	-1.076332	-0.846269	-0.184450	8
C	-0.894972	0.557701	-0.285320	6
C	0.552348	1.008571	-0.126300	6
C	1.560138	0.394331	-1.060080	6
O	0.877148	1.859511	0.702840	8
H	-1.157322	-2.386418	1.162780	1
H	-1.668022	-0.812339	1.809560	1
H	0.070668	-1.156499	1.521700	1
H	-1.526032	1.079511	0.444150	1
H	-1.226212	0.870541	-1.281510	1
H	1.563908	-0.691539	-0.941830	1
H	2.558528	0.774021	-0.823570	1
H	1.314078	0.661521	-2.091070	1
Es	-1.437051	-0.963472	1.603624	99
Es	-0.248983	-1.198613	1.406779	99
Es	-1.089305	-2.041122	1.158601	99
Es	0.709319	1.730861	0.233304	99
Es	-0.164976	0.767543	-0.198143	99
Es	1.053827	0.690486	-0.599840	99
Es	-0.894926	0.557484	-0.285327	99
Es	1.184619	1.930592	0.692453	99
Es	0.552341	1.008561	-0.126309	99
Es	-0.988167	-0.302992	-0.189608	99
Es	-1.076240	-0.846073	-0.184148	99
Es	-1.018343	-0.987614	0.334481	99
Es	-1.100785	0.771686	-0.961892	99
Es	1.378195	0.576332	-1.742151	99
Es	-0.947936	-1.312569	1.152886	99
Es	-0.847388	-0.971718	-0.341854	99
Es	-1.364408	-0.889347	-0.260543	99
Es	2.226828	0.649319	-0.902666	99
Es	0.633994	1.961129	0.877706	99
Es	-1.318149	0.910595	0.216614	99
Es	0.803736	1.369417	0.573749	99
Es	0.877057	1.859277	0.702621	99
Es	1.560083	0.394341	-1.060065	99
Es	1.550086	-0.325040	-0.976075	99
38
Properties=species:S:1:pos:R:3:Z:I:1 energy=-305.9469565031077 field_type=dipole dipole="0.000000 0.000000 0.000000" charge=0
C	-0.947922	-1.312649	1.153100	6
O	-1.076332	-0.846269	-0.184450	8
C	-0.894972	0.557701	-0.285320	6
C	0.552348	1.008571	-0.126300	6
C	1.560138	0.394331	-1.060080	6
O	0.877148	1.859511	0.702840	8
H	-1.157322	-2.386418	1.162780	1
H	-1.668022	-0.812339	1.809560	1
H	0.070668	-1.156499	1.521700	1
H	-1.526032	1.079511	0.444150	1
H	-1.226212	0.870541	-1.281510	1
H	1.563908	-0.691539	-0.941830	1
H	2.558528	0.774021	-0.823570	1
H	1.314078	0.661521	-2.091070	1
Es	-0.165036	0.767540	-0.198069	99
Es	-0.844947	-0.969310	-0.338412	99
Es	-1.318182	0.910594	0.216587	99
Es	-1.100727	0.771715	-0.961841	99
Es	-0.894927	0.557485	-0.285327	99
Es	-0.249100	-1.198530	1.406815	99
Es	0.709701	1.730788	0.232879	99
Es	1.550069	-0.325073	-0.976065	99
Es	1.560083	0.394341	-1.060066	99
Es	0.877043	1.859277	0.702618	99
Es	1.378131	0.576326	-1.742099	99
Es	-1.363591	-0.892472	-0.264402	99
Es	1.053909	0.690453	-0.599813	99
Es	-1.076371	-0.845991	-0.184113	99
Es	0.552339	1.008559	-0.126313	99
Es	0.803997	1.369577	0.573798	99
Es	-0.989707	-0.302815	-0.189591	99
Es	-1.437097	-0.963506	1.603608	99
Es	0.633735	1.961057	0.877551	99
Es	-1.019878	-0.987206	0.334756	99
Es	1.184248	1.930646	0.692900	99
Es	2.226866	0.649347	-0.902725	99
Es	-1.089197	-2.041165	1.158626	99
Es	-0.947935	-1.312574	1.152894	99
38
Properties=species:S:1:pos:R:3:Z:I:1 energy=-305.9469565031077 field_type=dipole dipole="0.000000 0.000000 0.000000" charge=0
C	-0.947922	-1.312649	1.153100	6
O	-1.076332	-0.846269	-0.184450	8
C	-0.894972	0.557701	-0.285320	6
C	0.552348	1.008571	-0.126300	6
C	1.560138	0.394331	-1.060080	6
O	0.877148	1.859511	0.702840	8
H	-1.157322	-2.386418	1.162780	1
H	-1.668022	-0.812339	1.809560	1
H	0.070668	-1.156499	1.521700	1
H	-1.526032	1.079511	0.444150	1
H	-1.226212	0.870541	-1.281510	1
H	1.563908	-0.691539	-0.941830	1
H	2.558528	0.774021	-0.823570	1
H	1.314078	0.661521	-2.091070	1
Es	-1.318148	0.910585	0.216574	99
Es	-0.894927	0.557484	-0.285326	99
Es	-0.165102	0.767619	-0.198080	99
Es	2.226854	0.649317	-0.902714	99
Es	1.053928	0.690474	-0.599850	99
Es	-0.849078	-0.972601	-0.342734	99
Es	1.560083	0.394341	-1.060066	99
Es	-1.437101	-0.963562	1.603592	99
Es	0.877044	1.859268	0.702613	99
Es	0.711132	1.730271	0.231807	99
Es	-0.986771	-0.303079	-0.189860	99
Es	-0.947936	-1.312572	1.152891	99
Es	1.378128	0.576390	-1.742101	99
Es	0.552342	1.008561	-0.126308	99
Es	-1.089190	-2.041174	1.158601	99
Es	-1.017706	-0.988000	0.334404	99
Es	1.183590	1.931204	0.694744	99
Es	1.550059	-0.325088	-0.976099	99
Es	-1.100753	0.771716	-0.961900	99
Es	0.804352	1.369660	0.574628	99
Es	-0.249097	-1.198517	1.406850	99
Es	0.632644	1.960829	0.876039	99
Es	-1.364681	-0.887992	-0.259300	99
Es	-1.076238	-0.846073	-0.184208	99
38
Properties=species:S:1:pos:R:3:Z:I:1 energy=-305.9469565031077 field_type=dipole dipole="0.000000 0.000000 0.000000" charge=0
C	-0.947922	-1.312649	1.153100	6
O	-1.076332	-0.846269	-0.184450	8
C	-0.894972	0.557701	-0.285320	6
C	0.552348	1.008571	-0.126300	6
C	1.560138	0.394331	-1.060080	6
O	0.877148	1.859511	0.702840	8
H	-1.157322	-2.386418	1.162780	1
H	-1.668022	-0.812339	1.809560	1
H	0.070668	-1.156499	1.521700	1
H	-1.526032	1.079511	0.444150	1
H	-1.226212	0.870541	-1.281510	1
H	1.563908	-0.691539	-0.941830	1
H	2.558528	0.774021	-0.823570	1
H	1.314078	0.661521	-2.091070	1
Es	1.053989	0.690490	-0.599953	99
Es	-0.847260	-0.971140	-0.341293	99
Es	-1.018740	-0.987910	0.334620	99
Es	-0.947937	-1.312571	1.152888	99
Es	-1.076248	-0.846093	-0.184184	99
Es	1.183441	1.929617	0.691035	99
Es	-0.894927	0.557482	-0.285325	99
Es	-0.249100	-1.198534	1.406840	99
Es	-1.363587	-0.889876	-0.261171	99
Es	-1.437072	-0.963564	1.603611	99
Es	0.804242	1.369668	0.575484	99
Es	-0.165090	0.767668	-0.198053	99
Es	-1.318153	0.910599	0.216522	99
Es	1.550026	-0.325045	-0.976003	99
Es	0.634823	1.962987	0.878293	99
Es	1.378104	0.576331	-1.742164	99
Es	0.877042	1.859294	0.702639	99
Es	-0.988690	-0.302787	-0.189715	99
Es	0.552340	1.008561	-0.126311	99
Es	2.226880	0.649323	-0.902697	99
Es	-1.089188	-2.041139	1.158643	99
Es	-1.100723	0.771727	-0.961861	99
Es	1.560081	0.394340	-1.060062	99
Es	0.709173	1.729635	0.232414	99
38
Properties=species:S:1:pos:R:3:Z:I:1 energy=-305.9469565031077 field_type=dipole dipole="0.000000 0.000000 0.000000" charge=0
C	-0.947922	-1.312649	1.153100	6
O	-1.076332	-0.846269	-0.184450	8
C	-0.894972	0.557701	-0.285320	6
C	0.552348	1.008571	-0.126300	6
C	1.560138	0.394331	-1.060080	6
O	0.877148	1.859511	0.702840	8
H	-1.157322	-2.386418	1.162780	1
H	-1.668022	-0.812339	1.809560	1
H	0.070668	-1.156499	1.521700	1
H	-1.526032	1.079511	0.444150	1
H	-1.226212	0.870541	-1.281510	1
H	1.563908	-0.691539	-0.941830	1
H	2.558528	0.774021	-0.823570	1
H	1.314078	0.661521	-2.091070	1
Es	-1.018866	-0.987912	0.334695	99
Es	-1.318147	0.910620	0.216541	99
Es	1.378105	0.576384	-1.742139	99
Es	-0.249135	-1.198577	1.406844	99
Es	-0.165201	0.767637	-0.198029	99
Es	-0.988132	-0.302852	-0.189818	99
Es	1.054036	0.690489	-0.599911	99
Es	-0.947936	-1.312572	1.152890	99
Es	0.710175	1.729989	0.232490	99
Es	-1.089213	-2.041155	1.158632	99
Es	-1.363793	-0.890282	-0.262115	99
Es	-1.437044	-0.963554	1.603620	99
Es	1.550037	-0.325084	-0.976042	99
Es	-1.076311	-0.846014	-0.184125	99
Es	0.633179	1.960960	0.876862	99
Es	0.552340	1.008563	-0.126313	99
Es	-0.894927	0.557488	-0.285327	99
Es	2.226854	0.649310	-0.902714	99
Es	1.560084	0.394340	-1.060065	99
Es	0.804687	1.369615	0.574485	99
Es	-0.847372	-0.970712	-0.340371	99
Es	1.183623	1.931307	0.693323	99
Es	-1.100687	0.771737	-0.961888	99
Es	0.877071	1.859337	0.702670	99
38
Properties=species:S:1:pos:R:3:Z:I:1 energy=-305.9469565031077 field_type=dipole dipole="0.000000 0.000000 0.000000" charge=0
C	-0.947922	-1.312649	1.153100	6
O	-1.076332	-0.846269	-0.184450	8
C	-0.894972	0.557701	-0.285320	6
C	0.552348	1.008571	-0.126300	6
C	1.560138	0.394331	-1.060080	6
O	0.877148	1.859511	0.702840	8
H	-1.157322	-2.386418	1.162780	1
H	-1.668022	-0.812339	1.809560	1
H	0.070668	-1.156499	1.521700	1
H	-1.526032	1.079511	0.444150	1
H	-1.226212	0.870541	-1.281510	1
H	1.563908	-0.691539	-0.941830	1
H	2.558528	0.774021	-0.823570	1
H	1.314078	0.661521	-2.091070	1
Es	0.877049	1.859288	0.702625	99
Es	0.634123	1.961373	0.877535	99
Es	-1.019460	-0.988390	0.335044	99
Es	-0.847825	-0.970460	-0.339814	99
Es	0.552339	1.008557	-0.126316	99
Es	1.560084	0.394340	-1.060066	99
Es	-0.165245	0.767642	-0.198016	99
Es	0.709455	1.730053	0.232227	99
Es	-1.076230	-0.846052	-0.184185	99
Es	-1.362915	-0.890323	-0.262581	99
Es	1.378079	0.576310	-1.742122	99
Es	0.804335	1.369975	0.574733	99
Es	-0.249142	-1.198533	1.406863	99
Es	1.549999	-0.324995	-0.976058	99
Es	2.226956	0.649310	-0.902717	99
Es	-1.318133	0.910626	0.216527	99
Es	-1.100680	0.771755	-0.961885	99
Es	-0.988041	-0.302601	-0.190209	99
Es	-1.437079	-0.963592	1.603613	99
Es	1.054022	0.690489	-0.599914	99
Es	-1.089154	-2.041142	1.158645	99
Es	-0.947937	-1.312570	1.152887	99
Es	1.183756	1.930528	0.692703	99
Es	-0.894927	0.557478	-0.285322	99
38
Properties=species:S:1:pos:R:3:Z:I:1 energy=-305.9469565031077 field_type=dipole dipole="0.000000 0.000000 0.000000" charge=0
C	-0.947922	-1.312649	1.153100	6
O	-1.076332	-0.846269	-0.184450	8
C	-0.894972	0.557701	-0.285320	6
C	0.552348	1.008571	-0.126300	6
C	1.560138	0.394331	-1.060080	6
O	0.877148	1.859511	0.702840	8
H	-1.157322	-2.386418	1.162780	1
H	-1.668022	-0.812339	1.809560	1
H	0.070668	-1.156499	1.521700	1
H	-1.526032	1.079511	0.444150	1
H	-1.226212	0.870541	-1.281510	1
H	1.563908	-0.691539	-0.941830	1
H	2.558528	0.774021	-0.823570	1
H	1.314078	0.661521	-2.091070	1
Es	-0.947936	-1.312572	1.152891	99
Es	-0.249274	-1.198547	1.406808	99
Es	-1.318057	0.910590	0.216534	99
Es	-1.089102	-2.041213	1.158672	99
Es	1.378214	0.576399	-1.742252	99
Es	0.803544	1.369471	0.573906	99
Es	0.552341	1.008558	-0.126309	99
Es	0.709489	1.730840	0.233021	99
Es	1.183875	1.929509	0.691944	99
Es	1.054168	0.690566	-0.599991	99
Es	-0.848255	-0.971426	-0.341257	99
Es	0.634723	1.962201	0.878268	99
Es	-0.165231	0.767596	-0.197966	99
Es	-1.362924	-0.889509	-0.261048	99
Es	0.877045	1.859264	0.702600	99
Es	-0.988169	-0.302583	-0.190143	99
Es	-1.018877	-0.988301	0.334789	99
Es	-1.437057	-0.963510	1.603662	99
Es	-1.076250	-0.846025	-0.184147	99
Es	-0.894925	0.557489	-0.285328	99
Es	-1.100727	0.771829	-0.961852	99
Es	1.560085	0.394341	-1.060066	99
Es	2.226824	0.649182	-0.902616	99
Es	1.549905	-0.325086	-0.975924	99
38
Properties=species:S:1:pos:R:3:Z:I:1 energy=-305.9469565031077 field_type=dipole dipole="0.000000 0.000000 0.000000" charge=0
C	-0.947922	-1.312649	1.153100	6
O	-1.076332	-0.846269	-0.184450	8
C	-0.894972	0.557701	-0.285320	6
C	0.552348	1.008571	-0.126300	6
C	1.560138	0.394331	-1.060080	6
O	0.877148	1.859511	0.702840	8
H	-1.157322	-2.386418	1.162780	1
H	-1.668022	-0.812339	1.809560	1
H	0.070668	-1.156499	1.521700	1
H	-1.526032	1.079511	0.444150	1
H	-1.226212	0.870541	-1.281510	1
H	1.563908	-0.691539	-0.941830	1
H	2.558528	0.774021	-0.823570	1
H	1.314078	0.661521	-2.091070	1
Es	1.560082	0.394342	-1.060066	99
Es	2.226882	0.649293	-0.902731	99
Es	0.552341	1.008555	-0.126306	99
Es	1.054202	0.690494	-0.599941	99
Es	1.549966	-0.325122	-0.975986	99
Es	-0.894928	0.557491	-0.285327	99
Es	-1.089144	-2.041135	1.158694	99
Es	-1.076218	-0.846054	-0.184173	99
Es	0.804344	1.369104	0.573481	99
Es	0.877089	1.859295	0.702618	99
Es	-0.165312	0.767619	-0.197978	99
Es	0.633831	1.960163	0.877021	99
Es	-1.437054	-0.963591	1.603605	99
Es	-1.363889	-0.887227	-0.258660	99
Es	-1.100671	0.771784	-0.961859	99
Es	0.709777	1.731338	0.232870	99
Es	-1.318110	0.910632	0.216547	99
Es	-0.850920	-0.972820	-0.343176	99
Es	-1.017355	-0.988860	0.334562	99
Es	-0.986053	-0.302894	-0.190373	99
Es	-0.947937	-1.312572	1.152890	99
Es	1.378082	0.576388	-1.742127	99
Es	1.183632	1.931392	0.693727	99
Es	-0.249210	-1.198552	1.406884	99
38
Properties=species:S:1:pos:R:3:Z:I:1 energy=-305.9469565031077 field_type=dipole dipole="0.000000 0.000000 0.000000" charge=0
C	-0.947922	-1.312649	1.153100	6
O	-1.076332	-0.846269	-0.184450	8
C	-0.894972	0.557701	-0.285320	6
C	0.552348	1.008571	-0.126300	6
C	1.560138	0.394331	-1.060080	6
O	0.877148	1.859511	0.702840	8
H	-1.157322	-2.386418	1.162780	1
H	-1.668022	-0.812339	1.809560	1
H	0.070668	-1.156499	1.521700	1
H	-1.526032	1.079511	0.444150	1
H	-1.226212	0.870541	-1.281510	1
H	1.563908	-0.691539	-0.941830	1
H	2.558528	0.774021	-0.823570	1
H	1.314078	0.661521	-2.091070	1
Es	-0.987243	-0.302662	-0.190360	99
Es	-1.362964	-0.888707	-0.260446	99
Es	-1.018559	-0.988658	0.334820	99
Es	-1.436998	-0.963575	1.603598	99
Es	1.378057	0.576397	-1.742122	99
Es	1.549987	-0.325097	-0.976024	99
Es	1.560084	0.394340	-1.060065	99
Es	0.813934	1.364171	0.577442	99
Es	-1.089214	-2.041122	1.158712	99
Es	-0.894927	0.557498	-0.285329	99
Es	-0.849410	-0.971797	-0.341666	99
Es	2.226907	0.649301	-0.902751	99
Es	0.640990	1.974723	0.890024	99
Es	-0.947936	-1.312573	1.152893	99
Es	-1.076287	-0.846052	-0.184164	99
Es	-0.249193	-1.198590	1.406887	99
Es	0.552338	1.008565	-0.126304	99
Es	1.054154	0.690458	-0.599892	99
Es	0.716312	1.736131	0.225381	99
Es	1.021524	1.891808	0.696704	99
Es	-1.318096	0.910617	0.216469	99
Es	1.015900	1.884406	0.690204	99
Es	-1.100623	0.771827	-0.961893	99
Es	-0.165307	0.767657	-0.197922	99
