32
Properties=species:S:1:pos:R:3:Z:I:1 energy=-303.5595273487632 field_type=dipole dipole="0.000000 0.000000 0.000000" charge=0
O	1.383970	-0.245737	0.006175	8
C	0.454000	-1.268487	0.003145	6
C	-0.862640	-1.034697	-0.002735	6
O	-1.384270	0.245583	-0.006195	8
C	-0.453840	1.268603	-0.003145	6
C	0.862500	1.034953	0.002735	6
H	0.919430	-2.241847	0.006075	1
H	-1.634510	-1.788817	-0.005315	1
H	-0.919720	2.242103	-0.006065	1
H	1.635080	1.788343	0.005325	1
Es	-1.377526	-1.541805	-0.004402	99
Es	-1.515916	0.268099	0.250672	99
Es	0.994385	-0.605654	0.003656	99
Es	0.207259	1.176932	0.343528	99
Es	-1.383880	0.245507	-0.006225	99
Es	-0.454087	1.268408	-0.003150	99
Es	-0.210215	-1.176166	0.343985	99
Es	1.515330	-0.269760	0.262952	99
Es	-1.516323	0.269600	-0.261359	99
Es	1.516120	-0.269011	-0.248347	99
Es	1.377718	1.541668	0.004532	99
Es	-0.207285	-1.176884	-0.343606	99
Es	-0.862806	-1.034426	-0.002735	99
Es	-0.994834	0.605746	-0.005254	99
Es	0.862661	1.034684	0.002732	99
Es	0.763036	-1.921623	0.005108	99
Es	1.383589	-0.245660	0.006133	99
Es	1.142531	0.226752	0.004836	99
Es	-1.142308	-0.226284	-0.007178	99
Es	-0.763101	1.921799	-0.005076	99
Es	0.210246	1.176445	-0.344023	99
Es	0.454237	-1.268292	0.003150	99
32
Properties=species:S:1:pos:R:3:Z:I:1 energy=-303.5595273487632 field_type=dipole dipole="0.000000 0.000000 0.000000" charge=0
O	1.383970	-0.245737	0.006175	8
C	0.454000	-1.268487	0.003145	6
C	-0.862640	-1.034697	-0.002735	6
O	-1.384270	0.245583	-0.006195	8
C	-0.453840	1.268603	-0.003145	6
C	0.862500	1.034953	0.002735	6
H	0.919430	-2.241847	0.006075	1
H	-1.634510	-1.788817	-0.005315	1
H	-0.919720	2.242103	-0.006065	1
H	1.635080	1.788343	0.005325	1
Es	-1.520254	0.270228	0.247664	99
Es	-0.862798	-1.034427	-0.002744	99
Es	-0.994820	0.605804	-0.004274	99
Es	0.994979	-0.606836	0.005783	99
Es	-0.763070	1.921828	-0.005173	99
Es	1.383508	-0.245667	0.006266	99
Es	-1.142477	-0.226564	-0.002831	99
Es	-0.210217	-1.176081	0.343748	99
Es	-1.377496	-1.541878	-0.004359	99
Es	-1.511869	0.267686	-0.263697	99
Es	0.454247	-1.268289	0.003135	99
Es	0.862658	1.034688	0.002742	99
Es	-0.207281	-1.176819	-0.343503	99
Es	1.377713	1.541713	0.004342	99
Es	0.762978	-1.921714	0.005209	99
Es	0.210210	1.176289	-0.343772	99
Es	-1.383909	0.245515	-0.006178	99
Es	1.514728	-0.268436	-0.249450	99
Es	1.517089	-0.268555	0.261265	99
Es	-0.454088	1.268405	-0.003134	99
Es	1.141716	0.226114	0.005375	99
Es	0.207289	1.177070	0.343512	99
32
Properties=species:S:1:pos:R:3:Z:I:1 energy=-303.5595273487632 field_type=dipole dipole="0.000000 0.000000 0.000000" charge=0
O	1.383970	-0.245737	0.006175	8
C	0.454000	-1.268487	0.003145	6
C	-0.862640	-1.034697	-0.002735	6
O	-1.384270	0.245583	-0.006195	8
C	-0.453840	1.268603	-0.003145	6
C	0.862500	1.034953	0.002735	6
H	0.919430	-2.241847	0.006075	1
H	-1.634510	-1.788817	-0.005315	1
H	-0.919720	2.242103	-0.006065	1
H	1.635080	1.788343	0.005325	1
Es	0.207258	1.176999	0.343281	99
Es	0.994666	-0.605726	0.005327	99
Es	1.142319	0.226607	0.004531	99
Es	0.862664	1.034681	0.002752	99
Es	1.377697	1.541792	0.004480	99
Es	-0.454089	1.268405	-0.003148	99
Es	-1.515044	0.268858	-0.262537	99
Es	-0.862800	-1.034429	-0.002737	99
Es	-1.516870	0.269978	0.247817	99
Es	-0.207255	-1.176708	-0.343264	99
Es	-1.143173	-0.227262	-0.003589	99
Es	0.454236	-1.268292	0.003140	99
Es	-0.994442	0.605611	-0.004725	99
Es	-0.210263	-1.176330	0.344022	99
Es	-0.763033	1.921896	-0.005115	99
Es	1.514994	-0.268852	0.262312	99
Es	1.516522	-0.269687	-0.249090	99
Es	0.762948	-1.921660	0.004904	99
Es	1.383604	-0.245686	0.006163	99
Es	-1.377468	-1.541847	-0.004641	99
Es	-1.383843	0.245493	-0.006263	99
Es	0.210206	1.176234	-0.343692	99
32
Properties=species:S:1:pos:R:3:Z:I:1 energy=-303.5595273487632 field_type=dipole dipole="0.000000 0.000000 0.000000" charge=0
O	1.383970	-0.245737	0.006175	8
C	0.454000	-1.268487	0.003145	6
C	-0.862640	-1.034697	-0.002735	6
O	-1.384270	0.245583	-0.006195	8
C	-0.453840	1.268603	-0.003145	6
C	0.862500	1.034953	0.002735	6
H	0.919430	-2.241847	0.006075	1
H	-1.634510	-1.788817	-0.005315	1
H	-0.919720	2.242103	-0.006065	1
H	1.635080	1.788343	0.005325	1
Es	-0.454089	1.268405	-0.003146	99
Es	1.511989	-0.268134	0.262753	99
Es	1.519622	-0.269794	-0.247283	99
Es	0.454244	-1.268290	0.003147	99
Es	-0.207262	-1.176726	-0.343000	99
Es	-0.210243	-1.176233	0.343785	99
Es	-0.994920	0.606094	-0.005532	99
Es	-0.762998	1.921894	-0.005115	99
Es	-1.515250	0.268620	0.249539	99
Es	-0.862803	-1.034428	-0.002736	99
Es	0.994702	-0.606378	0.004075	99
Es	0.862664	1.034682	0.002738	99
Es	0.762968	-1.921728	0.004957	99
Es	1.377666	1.541717	0.004436	99
Es	1.142232	0.226622	0.003635	99
Es	0.210229	1.176349	-0.343681	99
Es	0.207274	1.177008	0.343318	99
Es	1.383530	-0.245672	0.006052	99
Es	-1.142452	-0.226515	-0.005644	99
Es	-1.377499	-1.541953	-0.004692	99
Es	-1.384115	0.245556	-0.006220	99
Es	-1.516653	0.268977	-0.261457	99
32
Properties=species:S:1:pos:R:3:Z:I:1 energy=-303.5595273487632 field_type=dipole dipole="0.000000 0.000000 0.000000" charge=0
O	1.383970	-0.245737	0.006175	8
C	0.454000	-1.268487	0.003145	6
C	-0.862640	-1.034697	-0.002735	6
O	-1.384270	0.245583	-0.006195	8
C	-0.453840	1.268603	-0.003145	6
C	0.862500	1.034953	0.002735	6
H	0.919430	-2.241847	0.006075	1
H	-1.634510	-1.788817	-0.005315	1
H	-0.919720	2.242103	-0.006065	1
H	1.635080	1.788343	0.005325	1
Es	-1.383913	0.245509	-0.006184	99
Es	1.383601	-0.245676	0.006136	99
Es	-1.377460	-1.541951	-0.004397	99
Es	1.510538	-0.269076	0.262817	99
Es	-0.763000	1.921886	-0.005144	99
Es	0.454235	-1.268291	0.003145	99
Es	-0.454083	1.268406	-0.003144	99
Es	0.762907	-1.921706	0.005113	99
Es	0.994710	-0.606094	0.002741	99
Es	-1.513446	0.268520	0.249747	99
Es	0.210209	1.176348	-0.343539	99
Es	1.142452	0.226943	0.004712	99
Es	-0.862804	-1.034426	-0.002734	99
Es	0.207279	1.177029	0.343192	99
Es	-1.518600	0.269340	-0.260816	99
Es	-0.994852	0.606038	-0.006123	99
Es	0.862661	1.034685	0.002729	99
Es	1.377660	1.541790	0.004456	99
Es	-1.142626	-0.226738	-0.005933	99
Es	1.520856	-0.269469	-0.247175	99
Es	-0.210204	-1.176057	0.343556	99
Es	-0.207286	-1.176938	-0.343228	99
32
Properties=species:S:1:pos:R:3:Z:I:1 energy=-303.5595273487632 field_type=dipole dipole="0.000000 0.000000 0.000000" charge=0
O	1.383970	-0.245737	0.006175	8
C	0.454000	-1.268487	0.003145	6
C	-0.862640	-1.034697	-0.002735	6
O	-1.384270	0.245583	-0.006195	8
C	-0.453840	1.268603	-0.003145	6
C	0.862500	1.034953	0.002735	6
H	0.919430	-2.241847	0.006075	1
H	-1.634510	-1.788817	-0.005315	1
H	-0.919720	2.242103	-0.006065	1
H	1.635080	1.788343	0.005325	1
Es	-0.210246	-1.176309	0.343549	99
Es	1.383619	-0.245671	0.006199	99
Es	0.994720	-0.606259	0.005384	99
Es	0.862655	1.034688	0.002749	99
Es	-1.513726	0.268764	-0.262044	99
Es	1.142452	0.226879	0.004692	99
Es	-0.994680	0.606182	-0.004197	99
Es	-0.862802	-1.034427	-0.002731	99
Es	0.207273	1.177020	0.343041	99
Es	-0.454085	1.268406	-0.003146	99
Es	0.210218	1.176290	-0.343441	99
Es	0.762918	-1.921748	0.005025	99
Es	-1.518309	0.269163	0.247843	99
Es	-1.142872	-0.226923	-0.004765	99
Es	1.515151	-0.268808	0.261438	99
Es	-0.762966	1.921929	-0.005097	99
Es	1.516247	-0.269509	-0.248482	99
Es	-0.207258	-1.176681	-0.342968	99
Es	1.377620	1.541846	0.004436	99
Es	-1.383881	0.245522	-0.006181	99
Es	-1.377451	-1.541985	-0.004519	99
Es	0.454237	-1.268295	0.003144	99
32
Properties=species:S:1:pos:R:3:Z:I:1 energy=-303.5595273487632 field_type=dipole dipole="0.000000 0.000000 0.000000" charge=0
O	1.383970	-0.245737	0.006175	8
C	0.454000	-1.268487	0.003145	6
C	-0.862640	-1.034697	-0.002735	6
O	-1.384270	0.245583	-0.006195	8
C	-0.453840	1.268603	-0.003145	6
C	0.862500	1.034953	0.002735	6
H	0.919430	-2.241847	0.006075	1
H	-1.634510	-1.788817	-0.005315	1
H	-0.919720	2.242103	-0.006065	1
H	1.635080	1.788343	0.005325	1
Es	-0.207276	-1.176815	-0.342948	99
Es	0.994783	-0.606731	0.003448	99
Es	-1.516012	0.269296	-0.261800	99
Es	0.762864	-1.921801	0.005120	99
Es	-0.210222	-1.176121	0.343315	99
Es	-0.454084	1.268406	-0.003146	99
Es	-0.762943	1.921931	-0.005017	99
Es	1.142449	0.226988	0.002878	99
Es	1.523016	-0.270466	-0.245919	99
Es	-0.862801	-1.034429	-0.002736	99
Es	-1.515824	0.269387	0.248531	99
Es	-1.383960	0.245515	-0.006200	99
Es	1.508446	-0.267498	0.262725	99
Es	0.207260	1.176942	0.342908	99
Es	0.210233	1.176421	-0.343437	99
Es	0.862664	1.034683	0.002736	99
Es	1.383528	-0.245684	0.006095	99
Es	-1.143127	-0.227093	-0.004841	99
Es	0.454245	-1.268289	0.003146	99
Es	-0.994607	0.605605	-0.005022	99
Es	-1.377422	-1.542018	-0.004433	99
Es	1.377625	1.541844	0.004524	99
32
Properties=species:S:1:pos:R:3:Z:I:1 energy=-303.5595273487632 field_type=dipole dipole="0.000000 0.000000 0.000000" charge=0
O	1.383970	-0.245737	0.006175	8
C	0.454000	-1.268487	0.003145	6
C	-0.862640	-1.034697	-0.002735	6
O	-1.384270	0.245583	-0.006195	8
C	-0.453840	1.268603	-0.003145	6
C	0.862500	1.034953	0.002735	6
H	0.919430	-2.241847	0.006075	1
H	-1.634510	-1.788817	-0.005315	1
H	-0.919720	2.242103	-0.006065	1
H	1.635080	1.788343	0.005325	1
Es	1.502957	-0.266813	0.263880	99
Es	-1.383897	0.245492	-0.006246	99
Es	-0.207274	-1.176862	-0.342861	99
Es	-0.862795	-1.034434	-0.002756	99
Es	-0.762918	1.921949	-0.005042	99
Es	0.207262	1.176976	0.342876	99
Es	0.454241	-1.268290	0.003147	99
Es	0.210230	1.176359	-0.343287	99
Es	-0.210220	-1.176084	0.343299	99
Es	1.528354	-0.271284	-0.244120	99
Es	0.762844	-1.921799	0.005094	99
Es	1.377606	1.541888	0.004451	99
Es	-1.516585	0.268783	0.248433	99
Es	0.994813	-0.606704	0.001628	99
Es	-1.377418	-1.542031	-0.004441	99
Es	0.862655	1.034687	0.002738	99
Es	-0.995099	0.606887	-0.005634	99
Es	-1.515431	0.268515	-0.260371	99
Es	-1.142548	-0.226966	-0.005529	99
Es	1.142573	0.227067	0.001628	99
Es	-0.454084	1.268406	-0.003146	99
Es	1.383570	-0.245667	0.006186	99
32
Properties=species:S:1:pos:R:3:Z:I:1 energy=-303.5595273487632 field_type=dipole dipole="0.000000 0.000000 0.000000" charge=0
O	1.383970	-0.245737	0.006175	8
C	0.454000	-1.268487	0.003145	6
C	-0.862640	-1.034697	-0.002735	6
O	-1.384270	0.245583	-0.006195	8
C	-0.453840	1.268603	-0.003145	6
C	0.862500	1.034953	0.002735	6
H	0.919430	-2.241847	0.006075	1
H	-1.634510	-1.788817	-0.005315	1
H	-0.919720	2.242103	-0.006065	1
H	1.635080	1.788343	0.005325	1
Es	-1.521394	0.270152	0.245494	99
Es	-0.862800	-1.034429	-0.002736	99
Es	1.383552	-0.245677	0.006216	99
Es	1.377584	1.541910	0.004462	99
Es	1.142609	0.227080	0.006914	99
Es	-0.762892	1.921999	-0.005081	99
Es	-0.994550	0.606457	-0.003299	99
Es	1.521442	-0.270090	0.258870	99
Es	-0.207275	-1.176783	-0.342808	99
Es	1.509959	-0.268182	-0.249877	99
Es	0.210212	1.176299	-0.343198	99
Es	-0.454082	1.268406	-0.003145	99
Es	0.862660	1.034685	0.002737	99
Es	0.454242	-1.268290	0.003146	99
Es	-1.377401	-1.542016	-0.004465	99
Es	0.207268	1.176995	0.342755	99
Es	-1.510479	0.268156	-0.262250	99
Es	0.762822	-1.921867	0.005128	99
Es	-0.210220	-1.176140	0.343199	99
Es	-1.143357	-0.227573	-0.003216	99
Es	-1.383810	0.245516	-0.006035	99
Es	0.994743	-0.606535	0.007119	99
32
Properties=species:S:1:pos:R:3:Z:I:1 energy=-303.5595273487632 field_type=dipole dipole="0.000000 0.000000 0.000000" charge=0
O	1.383970	-0.245737	0.006175	8
C	0.454000	-1.268487	0.003145	6
C	-0.862640	-1.034697	-0.002735	6
O	-1.384270	0.245583	-0.006195	8
C	-0.453840	1.268603	-0.003145	6
C	0.862500	1.034953	0.002735	6
H	0.919430	-2.241847	0.006075	1
H	-1.634510	-1.788817	-0.005315	1
H	-0.919720	2.242103	-0.006065	1
H	1.635080	1.788343	0.005325	1
Es	-0.762863	1.922012	-0.005077	99
Es	-1.524828	0.270542	0.244438	99
Es	1.514131	-0.268785	0.261006	99
Es	1.142666	0.227268	0.004546	99
Es	-1.507083	0.267310	-0.263527	99
Es	0.762804	-1.921851	0.005101	99
Es	0.210218	1.176310	-0.343094	99
Es	-0.994951	0.606629	-0.002135	99
Es	-1.377385	-1.542090	-0.004441	99
Es	-1.383832	0.245505	-0.006073	99
Es	1.383577	-0.245667	0.006174	99
Es	1.377582	1.541946	0.004462	99
Es	-0.862796	-1.034431	-0.002738	99
Es	0.454241	-1.268290	0.003146	99
Es	-0.207269	-1.176787	-0.342684	99
Es	0.862659	1.034685	0.002736	99
Es	-0.454082	1.268406	-0.003146	99
Es	0.994760	-0.606791	0.004712	99
Es	0.207261	1.176977	0.342652	99
Es	-1.142938	-0.227248	-0.001998	99
Es	1.517195	-0.269431	-0.247207	99
Es	-0.210232	-1.176147	0.343073	99
32
Properties=species:S:1:pos:R:3:Z:I:1 energy=-303.5595273487632 field_type=dipole dipole="0.000000 0.000000 0.000000" charge=0
O	1.383970	-0.245737	0.006175	8
C	0.454000	-1.268487	0.003145	6
C	-0.862640	-1.034697	-0.002735	6
O	-1.384270	0.245583	-0.006195	8
C	-0.453840	1.268603	-0.003145	6
C	0.862500	1.034953	0.002735	6
H	0.919430	-2.241847	0.006075	1
H	-1.634510	-1.788817	-0.005315	1
H	-0.919720	2.242103	-0.006065	1
H	1.635080	1.788343	0.005325	1
Es	-0.210212	-1.176133	0.343014	99
Es	-0.862798	-1.034429	-0.002736	99
Es	-0.762844	1.922032	-0.005098	99
Es	-0.207279	-1.176761	-0.342532	99
Es	0.994918	-0.606911	0.004318	99
Es	-0.995013	0.606723	-0.007510	99
Es	1.383599	-0.245667	0.006118	99
Es	0.762777	-1.921876	0.005062	99
Es	0.207274	1.176956	0.342605	99
Es	-1.142781	-0.227015	-0.007355	99
Es	1.517450	-0.269305	-0.246795	99
Es	-1.377369	-1.542129	-0.004517	99
Es	-1.523849	0.270116	-0.258297	99
Es	-1.383991	0.245511	-0.006193	99
Es	1.377572	1.541961	0.004447	99
Es	0.454241	-1.268290	0.003146	99
Es	0.862659	1.034685	0.002736	99
Es	-0.454081	1.268406	-0.003146	99
Es	1.142571	0.227224	0.004415	99
Es	0.210208	1.176338	-0.342969	99
Es	-1.508042	0.267400	0.250021	99
Es	1.513826	-0.268761	0.261195	99
32
Properties=species:S:1:pos:R:3:Z:I:1 energy=-303.5595273487632 field_type=dipole dipole="0.000000 0.000000 0.000000" charge=0
O	1.383970	-0.245737	0.006175	8
C	0.454000	-1.268487	0.003145	6
C	-0.862640	-1.034697	-0.002735	6
O	-1.384270	0.245583	-0.006195	8
C	-0.453840	1.268603	-0.003145	6
C	0.862500	1.034953	0.002735	6
H	0.919430	-2.241847	0.006075	1
H	-1.634510	-1.788817	-0.005315	1
H	-0.919720	2.242103	-0.006065	1
H	1.635080	1.788343	0.005325	1
Es	0.762752	-1.921859	0.005137	99
Es	0.994901	-0.606996	0.006545	99
Es	-1.377331	-1.542125	-0.004443	99
Es	0.210212	1.176304	-0.342921	99
Es	1.377539	1.541994	0.004464	99
Es	-0.207270	-1.176778	-0.342624	99
Es	-0.862799	-1.034429	-0.002736	99
Es	-1.512539	0.267735	-0.261478	99
Es	0.862658	1.034685	0.002736	99
Es	-1.383890	0.245514	-0.006198	99
Es	-1.143105	-0.227533	-0.002925	99
Es	0.454241	-1.268290	0.003145	99
Es	-0.454080	1.268407	-0.003146	99
Es	-1.519259	0.269959	0.245761	99
Es	0.207271	1.176969	0.342523	99
Es	1.519899	-0.270031	0.258466	99
Es	1.383636	-0.245679	0.006199	99
Es	-0.762820	1.922039	-0.005102	99
Es	1.511259	-0.268254	-0.248803	99
Es	1.142731	0.227520	0.006847	99
Es	-0.210230	-1.176154	0.342920	99
Es	-0.994941	0.607074	-0.004437	99
32
Properties=species:S:1:pos:R:3:Z:I:1 energy=-303.5595273487632 field_type=dipole dipole="0.000000 0.000000 0.000000" charge=0
O	1.383970	-0.245737	0.006175	8
C	0.454000	-1.268487	0.003145	6
C	-0.862640	-1.034697	-0.002735	6
O	-1.384270	0.245583	-0.006195	8
C	-0.453840	1.268603	-0.003145	6
C	0.862500	1.034953	0.002735	6
H	0.919430	-2.241847	0.006075	1
H	-1.634510	-1.788817	-0.005315	1
H	-0.919720	2.242103	-0.006065	1
H	1.635080	1.788343	0.005325	1
Es	1.515497	-0.269222	0.260569	99
Es	1.515775	-0.268941	-0.246586	99
Es	-1.383904	0.245538	-0.006195	99
Es	0.207265	1.176960	0.342410	99
Es	-0.207270	-1.176774	-0.342406	99
Es	0.762745	-1.921897	0.005086	99
Es	-1.143361	-0.227653	-0.003617	99
Es	-1.377337	-1.542166	-0.004479	99
Es	-0.994727	0.606552	-0.005835	99
Es	0.862659	1.034685	0.002739	99
Es	1.142756	0.227497	0.004752	99
Es	0.454237	-1.268292	0.003146	99
Es	-0.210222	-1.176146	0.342849	99
Es	1.377543	1.542012	0.004464	99
Es	-1.514787	0.268183	-0.260633	99
Es	0.210208	1.176315	-0.342817	99
Es	1.383560	-0.245673	0.006180	99
Es	0.994835	-0.607082	0.004312	99
Es	-0.762802	1.922066	-0.005088	99
Es	-1.516961	0.270134	0.246954	99
Es	-0.454077	1.268408	-0.003143	99
Es	-0.862797	-1.034430	-0.002734	99
32
Properties=species:S:1:pos:R:3:Z:I:1 energy=-303.5595273487632 field_type=dipole dipole="0.000000 0.000000 0.000000" charge=0
O	1.383970	-0.245737	0.006175	8
C	0.454000	-1.268487	0.003145	6
C	-0.862640	-1.034697	-0.002735	6
O	-1.384270	0.245583	-0.006195	8
C	-0.453840	1.268603	-0.003145	6
C	0.862500	1.034953	0.002735	6
H	0.919430	-2.241847	0.006075	1
H	-1.634510	-1.788817	-0.005315	1
H	-0.919720	2.242103	-0.006065	1
H	1.635080	1.788343	0.005325	1
Es	-0.862797	-1.034430	-0.002736	99
Es	1.383519	-0.245657	0.006036	99
Es	0.862658	1.034686	0.002736	99
Es	-0.210224	-1.176113	0.342735	99
Es	0.210218	1.176304	-0.342721	99
Es	1.524076	-0.270649	-0.243958	99
Es	0.454239	-1.268290	0.003146	99
Es	1.507145	-0.267566	0.262400	99
Es	-0.995003	0.607105	-0.003510	99
Es	0.762715	-1.921931	0.005094	99
Es	1.142855	0.227590	0.002297	99
Es	-0.207267	-1.176782	-0.342313	99
Es	-1.377327	-1.542191	-0.004456	99
Es	-1.510895	0.267992	-0.261480	99
Es	-0.762774	1.922089	-0.005088	99
Es	-0.454080	1.268407	-0.003146	99
Es	0.207255	1.176940	0.342314	99
Es	0.994871	-0.607148	0.002445	99
Es	-1.383957	0.245523	-0.006205	99
Es	-1.520762	0.269801	0.245289	99
Es	-1.143155	-0.227659	-0.003410	99
Es	1.377525	1.542054	0.004457	99
32
Properties=species:S:1:pos:R:3:Z:I:1 energy=-303.5595273487632 field_type=dipole dipole="0.000000 0.000000 0.000000" charge=0
O	1.383970	-0.245737	0.006175	8
C	0.454000	-1.268487	0.003145	6
C	-0.862640	-1.034697	-0.002735	6
O	-1.384270	0.245583	-0.006195	8
C	-0.453840	1.268603	-0.003145	6
C	0.862500	1.034953	0.002735	6
H	0.919430	-2.241847	0.006075	1
H	-1.634510	-1.788817	-0.005315	1
H	-0.919720	2.242103	-0.006065	1
H	1.635080	1.788343	0.005325	1
Es	-0.994972	0.607168	-0.004724	99
Es	1.377484	1.542069	0.004446	99
Es	0.762694	-1.921923	0.005131	99
Es	-1.517555	0.269304	0.246284	99
Es	-1.383886	0.245517	-0.006207	99
Es	0.454240	-1.268291	0.003146	99
Es	-1.377312	-1.542238	-0.004440	99
Es	-1.514210	0.268467	-0.260333	99
Es	1.383596	-0.245668	0.006186	99
Es	0.210201	1.176274	-0.342613	99
Es	-0.454078	1.268407	-0.003146	99
Es	0.994844	-0.607149	0.006611	99
Es	-0.210220	-1.176112	0.342625	99
Es	1.517950	-0.269082	0.258893	99
Es	0.207269	1.176944	0.342224	99
Es	-0.862798	-1.034430	-0.002736	99
Es	-0.207279	-1.176781	-0.342263	99
Es	1.142912	0.227665	0.005246	99
Es	-0.762766	1.922141	-0.005091	99
Es	1.513219	-0.269218	-0.247714	99
Es	-1.143157	-0.227675	-0.004333	99
Es	0.862659	1.034686	0.002736	99
32
Properties=species:S:1:pos:R:3:Z:I:1 energy=-303.5595273487632 field_type=dipole dipole="0.000000 0.000000 0.000000" charge=0
O	1.383970	-0.245737	0.006175	8
C	0.454000	-1.268487	0.003145	6
C	-0.862640	-1.034697	-0.002735	6
O	-1.384270	0.245583	-0.006195	8
C	-0.453840	1.268603	-0.003145	6
C	0.862500	1.034953	0.002735	6
H	0.919430	-2.241847	0.006075	1
H	-1.634510	-1.788817	-0.005315	1
H	-0.919720	2.242103	-0.006065	1
H	1.635080	1.788343	0.005325	1
Es	1.516630	-0.269346	-0.246372	99
Es	0.862657	1.034687	0.002736	99
Es	0.210205	1.176292	-0.342561	99
Es	-1.143403	-0.228290	-0.005534	99
Es	1.142916	0.227741	0.004695	99
Es	1.514514	-0.268882	0.259901	99
Es	-0.207272	-1.176764	-0.342146	99
Es	0.762672	-1.921967	0.005092	99
Es	-0.210208	-1.176093	0.342570	99
Es	0.454238	-1.268291	0.003146	99
Es	-0.995039	0.607756	-0.005714	99
Es	-1.383867	0.245512	-0.006187	99
Es	-0.454079	1.268407	-0.003146	99
Es	-1.377306	-1.542248	-0.004449	99
Es	-0.862797	-1.034431	-0.002736	99
Es	0.207263	1.176917	0.342153	99
Es	0.994884	-0.607286	0.004841	99
Es	-1.517804	0.269315	0.246447	99
Es	1.377499	1.542101	0.004463	99
Es	-1.513714	0.268480	-0.258358	99
Es	1.383583	-0.245668	0.006173	99
Es	-0.762738	1.922132	-0.005085	99
32
Properties=species:S:1:pos:R:3:Z:I:1 energy=-303.5595273487632 field_type=dipole dipole="0.000000 0.000000 0.000000" charge=0
O	1.383970	-0.245737	0.006175	8
C	0.454000	-1.268487	0.003145	6
C	-0.862640	-1.034697	-0.002735	6
O	-1.384270	0.245583	-0.006195	8
C	-0.453840	1.268603	-0.003145	6
C	0.862500	1.034953	0.002735	6
H	0.919430	-2.241847	0.006075	1
H	-1.634510	-1.788817	-0.005315	1
H	-0.919720	2.242103	-0.006065	1
H	1.635080	1.788343	0.005325	1
Es	0.994897	-0.607364	0.004861	99
Es	1.516579	-0.269324	-0.246270	99
Es	-1.512428	0.268360	0.247730	99
Es	-0.762710	1.922148	-0.005094	99
Es	1.514530	-0.268872	0.259756	99
Es	0.862656	1.034687	0.002736	99
Es	0.762651	-1.921987	0.005092	99
Es	-1.519190	0.269435	-0.258265	99
Es	-0.862796	-1.034431	-0.002736	99
Es	-0.207276	-1.176758	-0.342049	99
Es	-0.995034	0.607304	-0.006408	99
Es	1.142954	0.227784	0.004714	99
Es	-1.143262	-0.227846	-0.006208	99
Es	-1.383947	0.245525	-0.006188	99
Es	-0.454078	1.268407	-0.003146	99
Es	-1.377289	-1.542273	-0.004458	99
Es	1.377487	1.542128	0.004456	99
Es	-0.210207	-1.176094	0.342480	99
Es	0.454238	-1.268291	0.003146	99
Es	0.207264	1.176918	0.342062	99
Es	1.383597	-0.245671	0.006176	99
Es	0.210201	1.176287	-0.342458	99
32
Properties=species:S:1:pos:R:3:Z:I:1 energy=-303.5595273487632 field_type=dipole dipole="0.000000 0.000000 0.000000" charge=0
O	1.383970	-0.245737	0.006175	8
C	0.454000	-1.268487	0.003145	6
C	-0.862640	-1.034697	-0.002735	6
O	-1.384270	0.245583	-0.006195	8
C	-0.453840	1.268603	-0.003145	6
C	0.862500	1.034953	0.002735	6
H	0.919430	-2.241847	0.006075	1
H	-1.634510	-1.788817	-0.005315	1
H	-0.919720	2.242103	-0.006065	1
H	1.635080	1.788343	0.005325	1
Es	0.862658	1.034685	0.002734	99
Es	1.503505	-0.267503	-0.250158	99
Es	1.527507	-0.270907	0.255043	99
Es	-1.383867	0.245511	-0.006244	99
Es	-1.377274	-1.542279	-0.004440	99
Es	1.377472	1.542123	0.004479	99
Es	0.994868	-0.607234	0.009724	99
Es	0.454237	-1.268291	0.003146	99
Es	1.383571	-0.245665	0.006164	99
Es	-0.210193	-1.176089	0.342398	99
Es	-0.454075	1.268408	-0.003146	99
Es	0.762654	-1.922030	0.005109	99
Es	-0.862797	-1.034430	-0.002736	99
Es	0.207271	1.176905	0.342003	99
Es	0.210178	1.176255	-0.342442	99
Es	-0.995012	0.607368	-0.006760	99
Es	-1.511031	0.268088	0.247948	99
Es	-1.143297	-0.227900	-0.006603	99
Es	-0.762706	1.922189	-0.005085	99
Es	1.143118	0.227871	0.008491	99
Es	-1.520674	0.269712	-0.257679	99
Es	-0.207278	-1.176717	-0.342020	99
32
Properties=species:S:1:pos:R:3:Z:I:1 energy=-303.5595273487632 field_type=dipole dipole="0.000000 0.000000 0.000000" charge=0
O	1.383970	-0.245737	0.006175	8
C	0.454000	-1.268487	0.003145	6
C	-0.862640	-1.034697	-0.002735	6
O	-1.384270	0.245583	-0.006195	8
C	-0.453840	1.268603	-0.003145	6
C	0.862500	1.034953	0.002735	6
H	0.919430	-2.241847	0.006075	1
H	-1.634510	-1.788817	-0.005315	1
H	-0.919720	2.242103	-0.006065	1
H	1.635080	1.788343	0.005325	1
Es	0.994887	-0.607388	0.006696	99
Es	0.454238	-1.268290	0.003145	99
Es	-0.862796	-1.034431	-0.002735	99
Es	0.762602	-1.922019	0.005085	99
Es	1.377475	1.542200	0.004244	99
Es	1.383572	-0.245666	0.006138	99
Es	1.518893	-0.269541	0.257959	99
Es	-1.383936	0.245503	-0.006178	99
Es	-1.516290	0.267922	-0.259721	99
Es	-0.762636	1.922153	-0.005231	99
Es	-0.210214	-1.176116	0.342325	99
Es	1.143073	0.227934	0.005985	99
Es	0.210183	1.176175	-0.342130	99
Es	0.862657	1.034685	0.002736	99
Es	-0.454075	1.268408	-0.003151	99
Es	-1.377260	-1.542310	-0.004494	99
Es	-1.142967	-0.228011	-0.003051	99
Es	-1.515304	0.269802	0.245649	99
Es	0.207278	1.177004	0.342060	99
Es	-0.207273	-1.176710	-0.341913	99
Es	1.512187	-0.268815	-0.247501	99
Es	-0.995461	0.607585	-0.005989	99
32
Properties=species:S:1:pos:R:3:Z:I:1 energy=-303.5595273487632 field_type=dipole dipole="0.000000 0.000000 0.000000" charge=0
O	1.383970	-0.245737	0.006175	8
C	0.454000	-1.268487	0.003145	6
C	-0.862640	-1.034697	-0.002735	6
O	-1.384270	0.245583	-0.006195	8
C	-0.453840	1.268603	-0.003145	6
C	0.862500	1.034953	0.002735	6
H	0.919430	-2.241847	0.006075	1
H	-1.634510	-1.788817	-0.005315	1
H	-0.919720	2.242103	-0.006065	1
H	1.635080	1.788343	0.005325	1
Es	1.143144	0.227967	0.004661	99
Es	-0.762645	1.922204	-0.005129	99
Es	1.383540	-0.245659	0.006254	99
Es	0.454238	-1.268290	0.003146	99
Es	1.518373	-0.269615	-0.245663	99
Es	-0.995151	0.607418	-0.006339	99
Es	-1.517881	0.269174	-0.258111	99
Es	-1.377267	-1.542316	-0.004403	99
Es	-0.210208	-1.176072	0.342189	99
Es	0.994862	-0.607205	0.004171	99
Es	0.210175	1.176180	-0.342176	99
Es	0.762564	-1.922069	0.005072	99
Es	-0.862795	-1.034431	-0.002736	99
Es	1.377443	1.542198	0.004395	99
Es	-1.383889	0.245514	-0.006133	99
Es	-0.207285	-1.176753	-0.341783	99
Es	-0.454077	1.268407	-0.003148	99
Es	0.207280	1.176990	0.341848	99
Es	-1.513847	0.268427	0.247599	99
Es	0.862656	1.034687	0.002734	99
Es	1.512748	-0.268960	0.259846	99
Es	-1.143145	-0.227723	-0.006366	99
32
Properties=species:S:1:pos:R:3:Z:I:1 energy=-303.5595273487632 field_type=dipole dipole="0.000000 0.000000 0.000000" charge=0
O	1.383970	-0.245737	0.006175	8
C	0.454000	-1.268487	0.003145	6
C	-0.862640	-1.034697	-0.002735	6
O	-1.384270	0.245583	-0.006195	8
C	-0.453840	1.268603	-0.003145	6
C	0.862500	1.034953	0.002735	6
H	0.919430	-2.241847	0.006075	1
H	-1.634510	-1.788817	-0.005315	1
H	-0.919720	2.242103	-0.006065	1
H	1.635080	1.788343	0.005325	1
Es	0.210186	1.176234	-0.342127	99
Es	0.762596	-1.922066	0.005189	99
Es	-0.454075	1.268407	-0.003146	99
Es	1.383565	-0.245665	0.006142	99
Es	-1.143779	-0.228368	-0.004394	99
Es	-0.207276	-1.176800	-0.341848	99
Es	-0.994882	0.607417	-0.004127	99
Es	-1.377221	-1.542316	-0.004349	99
Es	-0.762641	1.922243	-0.005113	99
Es	-1.384163	0.245582	-0.006098	99
Es	1.514718	-0.269003	-0.246232	99
Es	0.994923	-0.607605	0.005377	99
Es	-1.512769	0.268687	-0.259601	99
Es	0.454236	-1.268291	0.003146	99
Es	0.862655	1.034687	0.002736	99
Es	1.516347	-0.269192	0.258676	99
Es	-0.862794	-1.034432	-0.002736	99
Es	1.377413	1.542230	0.004478	99
Es	1.143123	0.228029	0.005261	99
Es	0.207250	1.176897	0.341697	99
Es	-0.210202	-1.176053	0.342102	99
Es	-1.518373	0.269452	0.244894	99
32
Properties=species:S:1:pos:R:3:Z:I:1 energy=-303.5595273487632 field_type=dipole dipole="0.000000 0.000000 0.000000" charge=0
O	1.383970	-0.245737	0.006175	8
C	0.454000	-1.268487	0.003145	6
C	-0.862640	-1.034697	-0.002735	6
O	-1.384270	0.245583	-0.006195	8
C	-0.453840	1.268603	-0.003145	6
C	0.862500	1.034953	0.002735	6
H	0.919430	-2.241847	0.006075	1
H	-1.634510	-1.788817	-0.005315	1
H	-0.919720	2.242103	-0.006065	1
H	1.635080	1.788343	0.005325	1
Es	-1.511394	0.268265	-0.259956	99
Es	-1.377223	-1.542383	-0.004448	99
Es	1.383550	-0.245632	0.006184	99
Es	1.519285	-0.270231	-0.245059	99
Es	-1.520132	0.269530	0.244601	99
Es	-0.862794	-1.034432	-0.002736	99
Es	-0.762615	1.922213	-0.005112	99
Es	1.143032	0.227990	0.003531	99
Es	-0.207262	-1.176711	-0.341673	99
Es	-0.454076	1.268406	-0.003146	99
Es	0.762556	-1.922076	0.005096	99
Es	0.454235	-1.268291	0.003146	99
Es	-0.995111	0.607647	-0.003709	99
Es	-1.383883	0.245513	-0.006160	99
Es	0.862657	1.034693	0.002736	99
Es	-1.143481	-0.228168	-0.004096	99
Es	0.210205	1.176261	-0.342039	99
Es	1.377443	1.542241	0.004440	99
Es	0.207258	1.176928	0.341664	99
Es	0.995011	-0.607883	0.005258	99
Es	1.511784	-0.267733	0.259339	99
Es	-0.210208	-1.176074	0.342066	99
32
Properties=species:S:1:pos:R:3:Z:I:1 energy=-303.5595273487632 field_type=dipole dipole="0.000000 0.000000 0.000000" charge=0
O	1.383970	-0.245737	0.006175	8
C	0.454000	-1.268487	0.003145	6
C	-0.862640	-1.034697	-0.002735	6
O	-1.384270	0.245583	-0.006195	8
C	-0.453840	1.268603	-0.003145	6
C	0.862500	1.034953	0.002735	6
H	0.919430	-2.241847	0.006075	1
H	-1.634510	-1.788817	-0.005315	1
H	-0.919720	2.242103	-0.006065	1
H	1.635080	1.788343	0.005325	1
Es	0.210205	1.176264	-0.341987	99
Es	1.511514	-0.268660	0.260976	99
Es	-0.762596	1.922260	-0.005093	99
Es	-0.207254	-1.176751	-0.341575	99
Es	-0.210204	-1.176031	0.341988	99
Es	-0.994841	0.607359	-0.004041	99
Es	1.519396	-0.269984	-0.244116	99
Es	-1.377208	-1.542423	-0.004481	99
Es	-1.518982	0.269658	0.244831	99
Es	1.143344	0.228097	0.003128	99
Es	-1.143915	-0.228462	-0.004362	99
Es	0.994838	-0.607222	0.003045	99
Es	0.454233	-1.268291	0.003160	99
Es	-0.862793	-1.034432	-0.002741	99
Es	0.207247	1.176866	0.341564	99
Es	0.862654	1.034687	0.002736	99
Es	-1.383839	0.245508	-0.006253	99
Es	-1.512459	0.268732	-0.259499	99
Es	1.377409	1.542256	0.004484	99
Es	0.762534	-1.922074	0.005131	99
Es	1.383625	-0.245693	0.006180	99
Es	-0.454076	1.268407	-0.003148	99
