37
Properties=species:S:1:pos:R:3:Z:I:1 energy=-268.95690629758104 field_type=dipole dipole="0.000000 0.000000 0.000000" charge=0
O	-2.300087	-0.073456	1.052761	8
C	-1.187047	-0.038056	0.545061	6
C	-0.391388	1.226724	0.351811	6
C	0.719073	0.755124	-0.578329	6
C	0.945603	-0.700246	-0.192179	6
C	-0.453867	-1.254656	0.041961	6
H	0.006073	1.548204	1.318741	1
H	-0.996877	2.013464	-0.102749	1
H	0.386762	0.816684	-1.621959	1
H	1.625583	1.358854	-0.476529	1
H	1.484823	-1.256636	-0.964439	1
H	1.530972	-0.753506	0.734051	1
H	-0.914377	-1.586916	-0.892659	1
H	-0.455238	-2.055586	0.784461	1
Es	0.719047	0.755110	-0.578302	99
Es	0.170346	1.017588	-0.111899	99
Es	-0.791731	0.606856	0.446691	99
Es	-1.797448	-0.089169	1.099266	99
Es	-0.769355	-1.461997	-0.583166	99
Es	1.339745	1.166952	-0.509898	99
Es	-2.299766	-0.073429	1.052617	99
Es	-2.404138	0.212105	1.135378	99
Es	-0.129761	1.426224	1.003791	99
Es	-0.462406	-1.788221	0.541075	99
Es	-2.419502	-0.365718	1.071080	99
Es	0.483066	0.791937	-1.290913	99
Es	-1.187031	-0.038054	0.545044	99
Es	-2.005351	-0.032871	0.643488	99
Es	-0.820047	-0.658715	0.296072	99
Es	-0.453854	-1.254601	0.041959	99
Es	0.945566	-0.700234	-0.192177	99
Es	1.339187	-0.731887	0.447320	99
Es	-0.803028	1.750628	0.051801	99
Es	1.315658	-1.079664	-0.720051	99
Es	-0.391376	1.226671	0.351799	99
Es	0.250531	-1.003610	-0.081324	99
Es	0.849590	0.028013	-0.393270	99
37
Properties=species:S:1:pos:R:3:Z:I:1 energy=-268.95690629758104 field_type=dipole dipole="0.000000 0.000000 0.000000" charge=0
O	-2.300087	-0.073456	1.052761	8
C	-1.187047	-0.038056	0.545061	6
C	-0.391388	1.226724	0.351811	6
C	0.719073	0.755124	-0.578329	6
C	0.945603	-0.700246	-0.192179	6
C	-0.453867	-1.254656	0.041961	6
H	0.006073	1.548204	1.318741	1
H	-0.996877	2.013464	-0.102749	1
H	0.386762	0.816684	-1.621959	1
H	1.625583	1.358854	-0.476529	1
H	1.484823	-1.256636	-0.964439	1
H	1.530972	-0.753506	0.734051	1
H	-0.914377	-1.586916	-0.892659	1
H	-0.455238	-2.055586	0.784461	1
Es	-2.418016	-0.365442	1.069772	99
Es	0.849656	0.027977	-0.393325	99
Es	-2.299822	-0.073445	1.052642	99
Es	-0.819971	-0.658973	0.296360	99
Es	0.170325	1.017648	-0.111948	99
Es	1.339161	-0.731885	0.447201	99
Es	-1.797063	-0.089730	1.098966	99
Es	-0.453854	-1.254601	0.041959	99
Es	-0.769516	-1.461977	-0.583375	99
Es	0.250601	-1.003676	-0.081094	99
Es	0.719047	0.755110	-0.578303	99
Es	-0.462431	-1.788102	0.540854	99
Es	-2.405414	0.211575	1.137023	99
Es	-0.129772	1.426261	1.003880	99
Es	-0.791769	0.606940	0.446657	99
Es	0.483097	0.792009	-1.290807	99
Es	-0.802980	1.750530	0.051886	99
Es	1.315709	-1.079642	-0.720025	99
Es	1.339689	1.166936	-0.509976	99
Es	-0.391375	1.226670	0.351802	99
Es	0.945567	-0.700234	-0.192176	99
Es	-2.005898	-0.031980	0.643354	99
Es	-1.187029	-0.038055	0.545051	99
37
Properties=species:S:1:pos:R:3:Z:I:1 energy=-268.95690629758104 field_type=dipole dipole="0.000000 0.000000 0.000000" charge=0
O	-2.300087	-0.073456	1.052761	8
C	-1.187047	-0.038056	0.545061	6
C	-0.391388	1.226724	0.351811	6
C	0.719073	0.755124	-0.578329	6
C	0.945603	-0.700246	-0.192179	6
C	-0.453867	-1.254656	0.041961	6
H	0.006073	1.548204	1.318741	1
H	-0.996877	2.013464	-0.102749	1
H	0.386762	0.816684	-1.621959	1
H	1.625583	1.358854	-0.476529	1
H	1.484823	-1.256636	-0.964439	1
H	1.530972	-0.753506	0.734051	1
H	-0.914377	-1.586916	-0.892659	1
H	-0.455238	-2.055586	0.784461	1
Es	-2.299865	-0.073448	1.052669	99
Es	-0.802996	1.750479	0.051921	99
Es	-0.129831	1.426302	1.003831	99
Es	0.483157	0.792034	-1.290816	99
Es	1.315623	-1.079579	-0.719872	99
Es	1.339662	1.166898	-0.509958	99
Es	-0.791769	0.607020	0.446749	99
Es	-0.769505	-1.461975	-0.583028	99
Es	0.945566	-0.700234	-0.192177	99
Es	-0.462478	-1.788168	0.541041	99
Es	1.339246	-0.731932	0.447107	99
Es	-0.453855	-1.254601	0.041958	99
Es	-0.820026	-0.658965	0.296162	99
Es	-0.391374	1.226670	0.351802	99
Es	0.250587	-1.003745	-0.081354	99
Es	0.849752	0.027998	-0.393372	99
Es	-2.405155	0.211723	1.135852	99
Es	-2.418254	-0.365447	1.070864	99
Es	-1.187027	-0.038057	0.545063	99
Es	0.719047	0.755110	-0.578302	99
Es	0.170394	1.017675	-0.112060	99
Es	-2.006012	-0.032889	0.643323	99
Es	-1.796945	-0.088950	1.098973	99
37
Properties=species:S:1:pos:R:3:Z:I:1 energy=-268.95690629758104 field_type=dipole dipole="0.000000 0.000000 0.000000" charge=0
O	-2.300087	-0.073456	1.052761	8
C	-1.187047	-0.038056	0.545061	6
C	-0.391388	1.226724	0.351811	6
C	0.719073	0.755124	-0.578329	6
C	0.945603	-0.700246	-0.192179	6
C	-0.453867	-1.254656	0.041961	6
H	0.006073	1.548204	1.318741	1
H	-0.996877	2.013464	-0.102749	1
H	0.386762	0.816684	-1.621959	1
H	1.625583	1.358854	-0.476529	1
H	1.484823	-1.256636	-0.964439	1
H	1.530972	-0.753506	0.734051	1
H	-0.914377	-1.586916	-0.892659	1
H	-0.455238	-2.055586	0.784461	1
Es	1.339202	-0.731902	0.447120	99
Es	0.250617	-1.003805	-0.081316	99
Es	-1.796859	-0.090618	1.098986	99
Es	-2.006240	-0.033011	0.642860	99
Es	-0.453855	-1.254602	0.041958	99
Es	-0.820105	-0.658910	0.295858	99
Es	1.315692	-1.079563	-0.719870	99
Es	0.719047	0.755110	-0.578303	99
Es	0.849862	0.028033	-0.393369	99
Es	-1.187031	-0.038055	0.545053	99
Es	-2.419208	-0.364092	1.070786	99
Es	0.170322	1.017708	-0.112027	99
Es	0.945565	-0.700234	-0.192175	99
Es	0.483162	0.791934	-1.290780	99
Es	-0.803048	1.750462	0.051976	99
Es	-0.129829	1.426269	1.003863	99
Es	1.339606	1.166930	-0.510073	99
Es	-0.462604	-1.788151	0.541140	99
Es	-0.391375	1.226670	0.351802	99
Es	-0.791755	0.607054	0.446753	99
Es	-2.404071	0.212180	1.136507	99
Es	-2.299809	-0.073462	1.052623	99
Es	-0.769345	-1.462029	-0.582992	99
37
Properties=species:S:1:pos:R:3:Z:I:1 energy=-268.95690629758104 field_type=dipole dipole="0.000000 0.000000 0.000000" charge=0
O	-2.300087	-0.073456	1.052761	8
C	-1.187047	-0.038056	0.545061	6
C	-0.391388	1.226724	0.351811	6
C	0.719073	0.755124	-0.578329	6
C	0.945603	-0.700246	-0.192179	6
C	-0.453867	-1.254656	0.041961	6
H	0.006073	1.548204	1.318741	1
H	-0.996877	2.013464	-0.102749	1
H	0.386762	0.816684	-1.621959	1
H	1.625583	1.358854	-0.476529	1
H	1.484823	-1.256636	-0.964439	1
H	1.530972	-0.753506	0.734051	1
H	-0.914377	-1.586916	-0.892659	1
H	-0.455238	-2.055586	0.784461	1
Es	1.339538	1.167068	-0.510064	99
Es	-0.769600	-1.462081	-0.582900	99
Es	-2.404845	0.211262	1.138470	99
Es	-0.462482	-1.788041	0.541044	99
Es	-1.187030	-0.038055	0.545055	99
Es	0.945566	-0.700234	-0.192176	99
Es	0.250722	-1.003761	-0.081581	99
Es	-0.129955	1.426307	1.003831	99
Es	-0.453855	-1.254601	0.041958	99
Es	-1.796786	-0.091251	1.098606	99
Es	-0.820068	-0.659031	0.296090	99
Es	-0.803062	1.750417	0.051969	99
Es	1.339083	-0.731975	0.447140	99
Es	0.483192	0.791907	-1.290728	99
Es	0.170381	1.017626	-0.112085	99
Es	-2.299785	-0.073422	1.052629	99
Es	1.315732	-1.079617	-0.719821	99
Es	-2.006494	-0.031252	0.642857	99
Es	-0.791718	0.607121	0.446824	99
Es	0.719051	0.755114	-0.578304	99
Es	-2.418285	-0.364347	1.069124	99
Es	-0.391375	1.226669	0.351800	99
Es	0.850017	0.028092	-0.393360	99
37
Properties=species:S:1:pos:R:3:Z:I:1 energy=-268.95690629758104 field_type=dipole dipole="0.000000 0.000000 0.000000" charge=0
O	-2.300087	-0.073456	1.052761	8
C	-1.187047	-0.038056	0.545061	6
C	-0.391388	1.226724	0.351811	6
C	0.719073	0.755124	-0.578329	6
C	0.945603	-0.700246	-0.192179	6
C	-0.453867	-1.254656	0.041961	6
H	0.006073	1.548204	1.318741	1
H	-0.996877	2.013464	-0.102749	1
H	0.386762	0.816684	-1.621959	1
H	1.625583	1.358854	-0.476529	1
H	1.484823	-1.256636	-0.964439	1
H	1.530972	-0.753506	0.734051	1
H	-0.914377	-1.586916	-0.892659	1
H	-0.455238	-2.055586	0.784461	1
Es	-0.462608	-1.788133	0.541018	99
Es	0.945567	-0.700234	-0.192175	99
Es	-2.006413	-0.032766	0.642120	99
Es	0.250782	-1.003743	-0.081446	99
Es	-1.187029	-0.038056	0.545061	99
Es	-0.791835	0.607252	0.446767	99
Es	-0.769528	-1.461968	-0.582913	99
Es	-1.797095	-0.089774	1.098785	99
Es	-2.404223	0.211318	1.136696	99
Es	-0.391375	1.226671	0.351800	99
Es	1.339493	1.166850	-0.510173	99
Es	-0.820088	-0.659158	0.296051	99
Es	1.315651	-1.079548	-0.719765	99
Es	-2.299876	-0.073475	1.052668	99
Es	0.849969	0.027996	-0.393398	99
Es	1.339192	-0.731983	0.447108	99
Es	-2.418563	-0.364323	1.071433	99
Es	0.483223	0.791997	-1.290719	99
Es	-0.129911	1.426241	1.003855	99
Es	0.170435	1.017804	-0.112144	99
Es	0.719047	0.755110	-0.578303	99
Es	-0.453854	-1.254600	0.041959	99
Es	-0.803017	1.750435	0.052096	99
37
Properties=species:S:1:pos:R:3:Z:I:1 energy=-268.95690629758104 field_type=dipole dipole="0.000000 0.000000 0.000000" charge=0
O	-2.300087	-0.073456	1.052761	8
C	-1.187047	-0.038056	0.545061	6
C	-0.391388	1.226724	0.351811	6
C	0.719073	0.755124	-0.578329	6
C	0.945603	-0.700246	-0.192179	6
C	-0.453867	-1.254656	0.041961	6
H	0.006073	1.548204	1.318741	1
H	-0.996877	2.013464	-0.102749	1
H	0.386762	0.816684	-1.621959	1
H	1.625583	1.358854	-0.476529	1
H	1.484823	-1.256636	-0.964439	1
H	1.530972	-0.753506	0.734051	1
H	-0.914377	-1.586916	-0.892659	1
H	-0.455238	-2.055586	0.784461	1
Es	0.170465	1.017993	-0.112139	99
Es	-0.791744	0.607259	0.446759	99
Es	0.719047	0.755110	-0.578302	99
Es	1.339512	1.166757	-0.510174	99
Es	-2.005950	-0.031012	0.643075	99
Es	-0.130001	1.426221	1.003844	99
Es	-1.796883	-0.088962	1.099459	99
Es	-0.820132	-0.659196	0.296086	99
Es	1.339136	-0.731961	0.447053	99
Es	0.483321	0.792027	-1.290687	99
Es	-2.299808	-0.073464	1.052633	99
Es	-0.462594	-1.788003	0.540931	99
Es	-0.391374	1.226669	0.351801	99
Es	0.250869	-1.003865	-0.081503	99
Es	-0.453854	-1.254600	0.041959	99
Es	-2.406608	0.209955	1.137412	99
Es	0.849901	0.028001	-0.393427	99
Es	-1.187029	-0.038056	0.545054	99
Es	-0.769636	-1.462059	-0.582856	99
Es	1.315722	-1.079543	-0.719723	99
Es	-0.803102	1.750408	0.052126	99
Es	-2.416882	-0.365529	1.069176	99
Es	0.945567	-0.700235	-0.192176	99
37
Properties=species:S:1:pos:R:3:Z:I:1 energy=-268.95690629758104 field_type=dipole dipole="0.000000 0.000000 0.000000" charge=0
O	-2.300087	-0.073456	1.052761	8
C	-1.187047	-0.038056	0.545061	6
C	-0.391388	1.226724	0.351811	6
C	0.719073	0.755124	-0.578329	6
C	0.945603	-0.700246	-0.192179	6
C	-0.453867	-1.254656	0.041961	6
H	0.006073	1.548204	1.318741	1
H	-0.996877	2.013464	-0.102749	1
H	0.386762	0.816684	-1.621959	1
H	1.625583	1.358854	-0.476529	1
H	1.484823	-1.256636	-0.964439	1
H	1.530972	-0.753506	0.734051	1
H	-0.914377	-1.586916	-0.892659	1
H	-0.455238	-2.055586	0.784461	1
Es	-0.453852	-1.254598	0.041959	99
Es	-2.005621	-0.031440	0.643283	99
Es	-0.391374	1.226671	0.351804	99
Es	1.315681	-1.079484	-0.719643	99
Es	-0.803054	1.750328	0.052147	99
Es	0.849984	0.027986	-0.393512	99
Es	0.483453	0.792136	-1.290692	99
Es	-1.797006	-0.089103	1.099617	99
Es	-0.130062	1.426260	1.003906	99
Es	-2.406974	0.210279	1.137169	99
Es	1.339422	1.166774	-0.510058	99
Es	0.719047	0.755109	-0.578301	99
Es	0.250951	-1.003974	-0.081504	99
Es	-2.416716	-0.365323	1.069049	99
Es	-0.791820	0.607386	0.446819	99
Es	0.945566	-0.700234	-0.192176	99
Es	-0.820095	-0.659248	0.295919	99
Es	0.170429	1.017876	-0.112257	99
Es	1.339183	-0.731999	0.446957	99
Es	-0.769646	-1.461990	-0.582759	99
Es	-0.462728	-1.788030	0.540970	99
Es	-1.187028	-0.038053	0.545050	99
Es	-2.299798	-0.073411	1.052634	99
37
Properties=species:S:1:pos:R:3:Z:I:1 energy=-268.95690629758104 field_type=dipole dipole="0.000000 0.000000 0.000000" charge=0
O	-2.300087	-0.073456	1.052761	8
C	-1.187047	-0.038056	0.545061	6
C	-0.391388	1.226724	0.351811	6
C	0.719073	0.755124	-0.578329	6
C	0.945603	-0.700246	-0.192179	6
C	-0.453867	-1.254656	0.041961	6
H	0.006073	1.548204	1.318741	1
H	-0.996877	2.013464	-0.102749	1
H	0.386762	0.816684	-1.621959	1
H	1.625583	1.358854	-0.476529	1
H	1.484823	-1.256636	-0.964439	1
H	1.530972	-0.753506	0.734051	1
H	-0.914377	-1.586916	-0.892659	1
H	-0.455238	-2.055586	0.784461	1
Es	-2.406276	0.210770	1.136102	99
Es	-0.462716	-1.788046	0.540906	99
Es	0.483365	0.792124	-1.290684	99
Es	-0.803057	1.750365	0.052166	99
Es	1.339168	-0.732031	0.446943	99
Es	-0.130094	1.426258	1.003811	99
Es	0.945565	-0.700234	-0.192176	99
Es	-0.453854	-1.254601	0.041959	99
Es	-2.417308	-0.365012	1.070364	99
Es	0.850095	0.028028	-0.393510	99
Es	0.250934	-1.003865	-0.081429	99
Es	-0.769636	-1.461966	-0.582826	99
Es	-1.187032	-0.038055	0.545051	99
Es	-0.791817	0.607436	0.446867	99
Es	1.315664	-1.079510	-0.719605	99
Es	1.339383	1.166745	-0.510170	99
Es	-2.299815	-0.073444	1.052635	99
Es	-0.820173	-0.659387	0.296018	99
Es	0.719047	0.755109	-0.578302	99
Es	-2.005444	-0.032582	0.643007	99
Es	0.170564	1.017884	-0.112189	99
Es	-0.391374	1.226670	0.351805	99
Es	-1.797249	-0.088740	1.099638	99
37
Properties=species:S:1:pos:R:3:Z:I:1 energy=-268.95690629758104 field_type=dipole dipole="0.000000 0.000000 0.000000" charge=0
O	-2.300087	-0.073456	1.052761	8
C	-1.187047	-0.038056	0.545061	6
C	-0.391388	1.226724	0.351811	6
C	0.719073	0.755124	-0.578329	6
C	0.945603	-0.700246	-0.192179	6
C	-0.453867	-1.254656	0.041961	6
H	0.006073	1.548204	1.318741	1
H	-0.996877	2.013464	-0.102749	1
H	0.386762	0.816684	-1.621959	1
H	1.625583	1.358854	-0.476529	1
H	1.484823	-1.256636	-0.964439	1
H	1.530972	-0.753506	0.734051	1
H	-0.914377	-1.586916	-0.892659	1
H	-0.455238	-2.055586	0.784461	1
Es	-2.299743	-0.073428	1.052606	99
Es	1.315709	-1.079490	-0.719582	99
Es	-2.417184	-0.364771	1.069950	99
Es	-0.769699	-1.461950	-0.582731	99
Es	-2.406093	0.210366	1.137351	99
Es	1.339406	1.166808	-0.510301	99
Es	-0.391374	1.226669	0.351802	99
Es	-0.453854	-1.254600	0.041959	99
Es	0.483349	0.792010	-1.290583	99
Es	-0.462747	-1.788036	0.540940	99
Es	0.170587	1.017892	-0.112321	99
Es	0.945566	-0.700234	-0.192176	99
Es	0.250983	-1.003915	-0.081468	99
Es	-0.820131	-0.659450	0.296010	99
Es	-0.130127	1.426305	1.003828	99
Es	-1.187023	-0.038061	0.545056	99
Es	-0.803104	1.750290	0.052191	99
Es	0.719047	0.755110	-0.578302	99
Es	-2.006469	-0.031814	0.642863	99
Es	1.339157	-0.731993	0.446871	99
Es	-1.796621	-0.089386	1.098892	99
Es	-0.791797	0.607575	0.446960	99
Es	0.850103	0.028020	-0.393434	99
37
Properties=species:S:1:pos:R:3:Z:I:1 energy=-268.95690629758104 field_type=dipole dipole="0.000000 0.000000 0.000000" charge=0
O	-2.300087	-0.073456	1.052761	8
C	-1.187047	-0.038056	0.545061	6
C	-0.391388	1.226724	0.351811	6
C	0.719073	0.755124	-0.578329	6
C	0.945603	-0.700246	-0.192179	6
C	-0.453867	-1.254656	0.041961	6
H	0.006073	1.548204	1.318741	1
H	-0.996877	2.013464	-0.102749	1
H	0.386762	0.816684	-1.621959	1
H	1.625583	1.358854	-0.476529	1
H	1.484823	-1.256636	-0.964439	1
H	1.530972	-0.753506	0.734051	1
H	-0.914377	-1.586916	-0.892659	1
H	-0.455238	-2.055586	0.784461	1
Es	0.719048	0.755107	-0.578301	99
Es	-1.187030	-0.038055	0.545051	99
Es	0.251029	-1.003942	-0.081390	99
Es	0.945564	-0.700233	-0.192176	99
Es	0.483442	0.792151	-1.290637	99
Es	1.339227	-0.732077	0.446804	99
Es	-2.299831	-0.073428	1.052648	99
Es	-0.803072	1.750343	0.052272	99
Es	0.170532	1.017894	-0.112312	99
Es	-2.005765	-0.031360	0.642877	99
Es	1.315601	-1.079470	-0.719506	99
Es	-0.453853	-1.254600	0.041958	99
Es	-0.769711	-1.461931	-0.582748	99
Es	-2.417181	-0.364879	1.069411	99
Es	1.339266	1.166775	-0.510201	99
Es	-0.391374	1.226669	0.351802	99
Es	-0.130123	1.426190	1.003891	99
Es	-0.820166	-0.659509	0.296017	99
Es	0.850246	0.028051	-0.393563	99
Es	-1.797135	-0.089533	1.099260	99
Es	-0.791832	0.607596	0.446855	99
Es	-0.462783	-1.788034	0.540862	99
Es	-2.406157	0.210190	1.137507	99
37
Properties=species:S:1:pos:R:3:Z:I:1 energy=-268.95690629758104 field_type=dipole dipole="0.000000 0.000000 0.000000" charge=0
O	-2.300087	-0.073456	1.052761	8
C	-1.187047	-0.038056	0.545061	6
C	-0.391388	1.226724	0.351811	6
C	0.719073	0.755124	-0.578329	6
C	0.945603	-0.700246	-0.192179	6
C	-0.453867	-1.254656	0.041961	6
H	0.006073	1.548204	1.318741	1
H	-0.996877	2.013464	-0.102749	1
H	0.386762	0.816684	-1.621959	1
H	1.625583	1.358854	-0.476529	1
H	1.484823	-1.256636	-0.964439	1
H	1.530972	-0.753506	0.734051	1
H	-0.914377	-1.586916	-0.892659	1
H	-0.455238	-2.055586	0.784461	1
Es	0.850328	0.028014	-0.393593	99
Es	0.719048	0.755108	-0.578301	99
Es	-1.796582	-0.088811	1.098914	99
Es	1.339287	1.166716	-0.510435	99
Es	-2.006452	-0.031336	0.642934	99
Es	-0.820117	-0.659557	0.296015	99
Es	0.945566	-0.700234	-0.192177	99
Es	-2.416193	-0.365161	1.069545	99
Es	-0.453853	-1.254600	0.041959	99
Es	-2.299771	-0.073386	1.052621	99
Es	-0.803132	1.750302	0.052286	99
Es	-0.769818	-1.461912	-0.582681	99
Es	-0.391374	1.226669	0.351801	99
Es	-0.791772	0.607575	0.447025	99
Es	-0.462849	-1.787987	0.540872	99
Es	-1.187029	-0.038056	0.545054	99
Es	0.483294	0.792122	-1.290529	99
Es	1.339185	-0.732023	0.446747	99
Es	0.170732	1.018025	-0.112189	99
Es	-0.130193	1.426255	1.003761	99
Es	-2.407068	0.209714	1.137648	99
Es	0.251056	-1.004003	-0.081426	99
Es	1.315650	-1.079517	-0.719473	99
37
Properties=species:S:1:pos:R:3:Z:I:1 energy=-268.95690629758104 field_type=dipole dipole="0.000000 0.000000 0.000000" charge=0
O	-2.300087	-0.073456	1.052761	8
C	-1.187047	-0.038056	0.545061	6
C	-0.391388	1.226724	0.351811	6
C	0.719073	0.755124	-0.578329	6
C	0.945603	-0.700246	-0.192179	6
C	-0.453867	-1.254656	0.041961	6
H	0.006073	1.548204	1.318741	1
H	-0.996877	2.013464	-0.102749	1
H	0.386762	0.816684	-1.621959	1
H	1.625583	1.358854	-0.476529	1
H	1.484823	-1.256636	-0.964439	1
H	1.530972	-0.753506	0.734051	1
H	-0.914377	-1.586916	-0.892659	1
H	-0.455238	-2.055586	0.784461	1
Es	0.170646	1.018013	-0.112367	99
Es	1.339193	-0.732016	0.446727	99
Es	-0.769806	-1.461978	-0.582653	99
Es	-0.453853	-1.254601	0.041959	99
Es	0.483492	0.792133	-1.290605	99
Es	-2.006295	-0.033920	0.643014	99
Es	0.719046	0.755110	-0.578303	99
Es	0.945565	-0.700234	-0.192177	99
Es	-2.421301	-0.363006	1.072105	99
Es	-0.820183	-0.659634	0.296023	99
Es	1.339199	1.166692	-0.510301	99
Es	-2.401985	0.212403	1.135198	99
Es	0.251080	-1.004018	-0.081472	99
Es	-0.391375	1.226669	0.351800	99
Es	-0.803122	1.750340	0.052381	99
Es	-0.130232	1.426137	1.003824	99
Es	-1.796663	-0.091011	1.098695	99
Es	-0.462756	-1.787966	0.540881	99
Es	1.315661	-1.079466	-0.719393	99
Es	0.850286	0.028061	-0.393603	99
Es	-1.187029	-0.038056	0.545054	99
Es	-0.791814	0.607727	0.446957	99
Es	-2.299813	-0.073466	1.052637	99
37
Properties=species:S:1:pos:R:3:Z:I:1 energy=-268.95690629758104 field_type=dipole dipole="0.000000 0.000000 0.000000" charge=0
O	-2.300087	-0.073456	1.052761	8
C	-1.187047	-0.038056	0.545061	6
C	-0.391388	1.226724	0.351811	6
C	0.719073	0.755124	-0.578329	6
C	0.945603	-0.700246	-0.192179	6
C	-0.453867	-1.254656	0.041961	6
H	0.006073	1.548204	1.318741	1
H	-0.996877	2.013464	-0.102749	1
H	0.386762	0.816684	-1.621959	1
H	1.625583	1.358854	-0.476529	1
H	1.484823	-1.256636	-0.964439	1
H	1.530972	-0.753506	0.734051	1
H	-0.914377	-1.586916	-0.892659	1
H	-0.455238	-2.055586	0.784461	1
Es	0.483491	0.792100	-1.290502	99
Es	-2.299778	-0.073404	1.052622	99
Es	0.251101	-1.003987	-0.081255	99
Es	-0.453854	-1.254601	0.041958	99
Es	0.719047	0.755109	-0.578302	99
Es	-0.820316	-0.659704	0.295951	99
Es	0.170657	1.018039	-0.112409	99
Es	-0.791843	0.607759	0.447025	99
Es	-0.803092	1.750297	0.052392	99
Es	1.315551	-1.079412	-0.719405	99
Es	0.945565	-0.700235	-0.192176	99
Es	-0.769688	-1.462103	-0.582714	99
Es	-0.462844	-1.787858	0.540866	99
Es	-0.391370	1.226666	0.351796	99
Es	-0.130258	1.426206	1.003765	99
Es	-1.796456	-0.089097	1.098659	99
Es	1.339300	-0.732083	0.446674	99
Es	0.850325	0.028039	-0.393587	99
Es	-2.006670	-0.031181	0.642890	99
Es	-2.406579	0.209633	1.137858	99
Es	-2.416554	-0.364936	1.069598	99
Es	1.339232	1.166724	-0.510383	99
Es	-1.187027	-0.038057	0.545058	99
37
Properties=species:S:1:pos:R:3:Z:I:1 energy=-268.95690629758104 field_type=dipole dipole="0.000000 0.000000 0.000000" charge=0
O	-2.300087	-0.073456	1.052761	8
C	-1.187047	-0.038056	0.545061	6
C	-0.391388	1.226724	0.351811	6
C	0.719073	0.755124	-0.578329	6
C	0.945603	-0.700246	-0.192179	6
C	-0.453867	-1.254656	0.041961	6
H	0.006073	1.548204	1.318741	1
H	-0.996877	2.013464	-0.102749	1
H	0.386762	0.816684	-1.621959	1
H	1.625583	1.358854	-0.476529	1
H	1.484823	-1.256636	-0.964439	1
H	1.530972	-0.753506	0.734051	1
H	-0.914377	-1.586916	-0.892659	1
H	-0.455238	-2.055586	0.784461	1
Es	-2.299786	-0.073430	1.052626	99
Es	-0.769762	-1.462067	-0.582569	99
Es	-0.462934	-1.787836	0.540841	99
Es	-0.791780	0.607867	0.446931	99
Es	1.339182	-0.732106	0.446653	99
Es	-0.453853	-1.254600	0.041958	99
Es	-0.820312	-0.659721	0.295920	99
Es	-1.796918	-0.091078	1.099399	99
Es	0.251213	-1.004061	-0.081416	99
Es	-0.803133	1.750250	0.052397	99
Es	1.315662	-1.079410	-0.719398	99
Es	0.945565	-0.700234	-0.192176	99
Es	0.170703	1.018102	-0.112432	99
Es	-0.391373	1.226667	0.351798	99
Es	-0.130334	1.426163	1.003902	99
Es	0.850365	0.027960	-0.393572	99
Es	-2.418628	-0.363367	1.069438	99
Es	0.483565	0.792216	-1.290461	99
Es	1.339167	1.166657	-0.510375	99
Es	-2.404891	0.210817	1.137322	99
Es	-2.005795	-0.031929	0.642846	99
Es	0.719047	0.755110	-0.578302	99
Es	-1.187028	-0.038055	0.545050	99
37
Properties=species:S:1:pos:R:3:Z:I:1 energy=-268.95690629758104 field_type=dipole dipole="0.000000 0.000000 0.000000" charge=0
O	-2.300087	-0.073456	1.052761	8
C	-1.187047	-0.038056	0.545061	6
C	-0.391388	1.226724	0.351811	6
C	0.719073	0.755124	-0.578329	6
C	0.945603	-0.700246	-0.192179	6
C	-0.453867	-1.254656	0.041961	6
H	0.006073	1.548204	1.318741	1
H	-0.996877	2.013464	-0.102749	1
H	0.386762	0.816684	-1.621959	1
H	1.625583	1.358854	-0.476529	1
H	1.484823	-1.256636	-0.964439	1
H	1.530972	-0.753506	0.734051	1
H	-0.914377	-1.586916	-0.892659	1
H	-0.455238	-2.055586	0.784461	1
Es	0.945566	-0.700234	-0.192176	99
Es	0.251245	-1.004164	-0.081447	99
Es	0.483575	0.792177	-1.290453	99
Es	-2.299825	-0.073434	1.052640	99
Es	1.315618	-1.079354	-0.719316	99
Es	-0.820207	-0.659788	0.296012	99
Es	-1.796083	-0.089146	1.098697	99
Es	-2.417953	-0.364427	1.070605	99
Es	-0.453852	-1.254599	0.041959	99
Es	-2.007005	-0.031762	0.642814	99
Es	0.850378	0.028046	-0.393613	99
Es	-0.130364	1.426225	1.003808	99
Es	-0.462948	-1.787946	0.540778	99
Es	-2.405163	0.209770	1.136811	99
Es	-0.791783	0.607857	0.447096	99
Es	-0.769852	-1.461898	-0.582568	99
Es	0.719047	0.755109	-0.578301	99
Es	-0.391374	1.226668	0.351800	99
Es	0.170727	1.018141	-0.112454	99
Es	-1.187030	-0.038054	0.545053	99
Es	-0.803155	1.750205	0.052437	99
Es	1.339150	1.166657	-0.510412	99
Es	1.339230	-0.732132	0.446611	99
37
Properties=species:S:1:pos:R:3:Z:I:1 energy=-268.95690629758104 field_type=dipole dipole="0.000000 0.000000 0.000000" charge=0
O	-2.300087	-0.073456	1.052761	8
C	-1.187047	-0.038056	0.545061	6
C	-0.391388	1.226724	0.351811	6
C	0.719073	0.755124	-0.578329	6
C	0.945603	-0.700246	-0.192179	6
C	-0.453867	-1.254656	0.041961	6
H	0.006073	1.548204	1.318741	1
H	-0.996877	2.013464	-0.102749	1
H	0.386762	0.816684	-1.621959	1
H	1.625583	1.358854	-0.476529	1
H	1.484823	-1.256636	-0.964439	1
H	1.530972	-0.753506	0.734051	1
H	-0.914377	-1.586916	-0.892659	1
H	-0.455238	-2.055586	0.784461	1
Es	-2.299791	-0.073490	1.052621	99
Es	-2.006322	-0.031774	0.642840	99
Es	1.315637	-1.079378	-0.719238	99
Es	-2.416610	-0.364484	1.069873	99
Es	-0.791799	0.607927	0.447043	99
Es	-0.130415	1.426202	1.003826	99
Es	1.339197	-0.732110	0.446596	99
Es	-0.453852	-1.254599	0.041959	99
Es	-0.462984	-1.787877	0.540796	99
Es	0.945565	-0.700234	-0.192176	99
Es	0.850427	0.028024	-0.393698	99
Es	-1.796572	-0.089019	1.099050	99
Es	0.251313	-1.004134	-0.081440	99
Es	1.339111	1.166639	-0.510431	99
Es	0.170769	1.018165	-0.112473	99
Es	0.719047	0.755110	-0.578303	99
Es	0.483600	0.792215	-1.290426	99
Es	-0.391374	1.226668	0.351800	99
Es	-2.406684	0.209767	1.137241	99
Es	-0.803164	1.750188	0.052470	99
Es	-1.187029	-0.038055	0.545052	99
Es	-0.820262	-0.659880	0.295938	99
Es	-0.769868	-1.461955	-0.582541	99
37
Properties=species:S:1:pos:R:3:Z:I:1 energy=-268.95690629758104 field_type=dipole dipole="0.000000 0.000000 0.000000" charge=0
O	-2.300087	-0.073456	1.052761	8
C	-1.187047	-0.038056	0.545061	6
C	-0.391388	1.226724	0.351811	6
C	0.719073	0.755124	-0.578329	6
C	0.945603	-0.700246	-0.192179	6
C	-0.453867	-1.254656	0.041961	6
H	0.006073	1.548204	1.318741	1
H	-0.996877	2.013464	-0.102749	1
H	0.386762	0.816684	-1.621959	1
H	1.625583	1.358854	-0.476529	1
H	1.484823	-1.256636	-0.964439	1
H	1.530972	-0.753506	0.734051	1
H	-0.914377	-1.586916	-0.892659	1
H	-0.455238	-2.055586	0.784461	1
Es	0.251337	-1.004220	-0.081496	99
Es	0.170838	1.018185	-0.112469	99
Es	-0.453851	-1.254598	0.041960	99
Es	-2.005958	-0.031141	0.643209	99
Es	-2.407468	0.209386	1.137578	99
Es	-0.463023	-1.787877	0.540753	99
Es	-1.187035	-0.038053	0.545046	99
Es	0.483543	0.792213	-1.290424	99
Es	-0.820267	-0.659896	0.295965	99
Es	1.339059	1.166614	-0.510516	99
Es	-0.130405	1.426127	1.003788	99
Es	-0.391374	1.226668	0.351800	99
Es	0.719049	0.755108	-0.578299	99
Es	-1.796600	-0.089030	1.099459	99
Es	0.850511	0.028047	-0.393686	99
Es	-0.769888	-1.461929	-0.582492	99
Es	-2.416026	-0.364763	1.068766	99
Es	-0.803194	1.750252	0.052528	99
Es	0.945565	-0.700231	-0.192177	99
Es	1.339079	-0.732075	0.446557	99
Es	-0.791823	0.607978	0.447010	99
Es	-2.299883	-0.073449	1.052669	99
Es	1.315755	-1.079400	-0.719148	99
37
Properties=species:S:1:pos:R:3:Z:I:1 energy=-268.95690629758104 field_type=dipole dipole="0.000000 0.000000 0.000000" charge=0
O	-2.300087	-0.073456	1.052761	8
C	-1.187047	-0.038056	0.545061	6
C	-0.391388	1.226724	0.351811	6
C	0.719073	0.755124	-0.578329	6
C	0.945603	-0.700246	-0.192179	6
C	-0.453867	-1.254656	0.041961	6
H	0.006073	1.548204	1.318741	1
H	-0.996877	2.013464	-0.102749	1
H	0.386762	0.816684	-1.621959	1
H	1.625583	1.358854	-0.476529	1
H	1.484823	-1.256636	-0.964439	1
H	1.530972	-0.753506	0.734051	1
H	-0.914377	-1.586916	-0.892659	1
H	-0.455238	-2.055586	0.784461	1
Es	0.945566	-0.700234	-0.192177	99
Es	-0.130460	1.426135	1.003867	99
Es	0.483681	0.792246	-1.290370	99
Es	1.315633	-1.079361	-0.719155	99
Es	-0.803122	1.750188	0.052581	99
Es	-2.006302	-0.032442	0.643074	99
Es	-1.187028	-0.038056	0.545053	99
Es	1.339201	-0.732112	0.446519	99
Es	1.339052	1.166600	-0.510466	99
Es	-0.391375	1.226670	0.351797	99
Es	-2.408256	0.209464	1.136501	99
Es	-2.415224	-0.364862	1.070175	99
Es	-2.299766	-0.073499	1.052604	99
Es	-1.796392	-0.087659	1.099244	99
Es	0.251369	-1.004217	-0.081445	99
Es	-0.820247	-0.659971	0.295928	99
Es	-0.453851	-1.254598	0.041960	99
Es	0.719049	0.755110	-0.578301	99
Es	-0.769938	-1.461951	-0.582483	99
Es	0.850504	0.027999	-0.393749	99
Es	0.170778	1.018209	-0.112572	99
Es	-0.463055	-1.787830	0.540783	99
Es	-0.791875	0.608085	0.447011	99
