33
Properties=species:S:1:pos:R:3:Z:I:1 energy=-283.7728829343788 field_type=dipole dipole="0.000000 0.000000 0.000000" charge=0
C	-1.680288	-0.087359	-0.007366	6
C	-0.205028	-0.042419	-0.000706	6
C	0.638402	1.045151	0.000074	6
O	1.921302	0.587781	0.007064	8
C	1.782122	-0.766019	0.010174	6
N	0.541522	-1.198749	0.005724	7
H	-2.109588	0.919291	0.002444	1
H	-2.048428	-0.623849	0.872454	1
H	-2.040818	-0.603599	-0.902316	1
H	0.507612	2.116921	-0.003456	1
H	2.693191	-1.347149	0.015914	1
Es	0.205946	-0.692743	0.001680	99
Es	-1.917398	-0.446217	0.584672	99
Es	0.227802	0.517639	-0.329767	99
Es	2.393891	-1.150625	0.013384	99
Es	1.034836	-0.991561	-0.268325	99
Es	1.864069	0.096325	-0.081850	99
Es	-0.205019	-0.042525	-0.000708	99
Es	1.443693	0.762910	-0.026257	99
Es	0.225552	0.517410	0.331019	99
Es	1.029471	-0.988463	0.285220	99
Es	-1.912065	-0.432590	-0.609456	99
Es	-0.937732	-0.059553	-0.004057	99
Es	1.920888	0.587511	0.006935	99
Es	0.549338	1.762765	-0.002556	99
Es	-1.963125	0.598895	-0.000873	99
Es	2.162175	0.737657	-0.105074	99
Es	1.870383	0.478366	0.239392	99
Es	0.414114	-1.541669	0.005755	99
Es	1.782163	-0.765755	0.010164	99
Es	-1.680230	-0.087341	-0.007368	99
Es	0.541744	-1.198213	0.005724	99
Es	0.638702	1.045128	0.000081	99
33
Properties=species:S:1:pos:R:3:Z:I:1 energy=-283.7728829343788 field_type=dipole dipole="0.000000 0.000000 0.000000" charge=0
C	-1.680288	-0.087359	-0.007366	6
C	-0.205028	-0.042419	-0.000706	6
C	0.638402	1.045151	0.000074	6
O	1.921302	0.587781	0.007064	8
C	1.782122	-0.766019	0.010174	6
N	0.541522	-1.198749	0.005724	7
H	-2.109588	0.919291	0.002444	1
H	-2.048428	-0.623849	0.872454	1
H	-2.040818	-0.603599	-0.902316	1
H	0.507612	2.116921	-0.003456	1
H	2.693191	-1.347149	0.015914	1
Es	-1.963078	0.598963	-0.000918	99
Es	1.029668	-0.988610	0.285244	99
Es	2.169389	0.744212	-0.085737	99
Es	1.861098	0.463871	0.234474	99
Es	-1.680228	-0.087344	-0.007364	99
Es	0.549264	1.762811	-0.002575	99
Es	1.782161	-0.765756	0.010176	99
Es	1.444243	0.764146	-0.027827	99
Es	1.920827	0.587389	0.006861	99
Es	-0.205021	-0.042528	-0.000717	99
Es	1.865869	0.102411	-0.094854	99
Es	-0.937864	-0.059533	-0.004019	99
Es	0.638712	1.045134	0.000076	99
Es	0.227746	0.518038	-0.329497	99
Es	-1.912094	-0.432714	-0.609468	99
Es	0.541753	-1.198215	0.005724	99
Es	0.206032	-0.692595	0.001495	99
Es	-1.917346	-0.446113	0.584708	99
Es	0.225814	0.517643	0.330863	99
Es	0.413947	-1.541354	0.005895	99
Es	2.393866	-1.150692	0.013425	99
Es	1.034441	-0.991814	-0.268231	99
33
Properties=species:S:1:pos:R:3:Z:I:1 energy=-283.7728829343788 field_type=dipole dipole="0.000000 0.000000 0.000000" charge=0
C	-1.680288	-0.087359	-0.007366	6
C	-0.205028	-0.042419	-0.000706	6
C	0.638402	1.045151	0.000074	6
O	1.921302	0.587781	0.007064	8
C	1.782122	-0.766019	0.010174	6
N	0.541522	-1.198749	0.005724	7
H	-2.109588	0.919291	0.002444	1
H	-2.048428	-0.623849	0.872454	1
H	-2.040818	-0.603599	-0.902316	1
H	0.507612	2.116921	-0.003456	1
H	2.693191	-1.347149	0.015914	1
Es	-1.963085	0.598953	-0.000850	99
Es	0.638706	1.045129	0.000075	99
Es	1.443969	0.763077	-0.028321	99
Es	1.782165	-0.765754	0.010175	99
Es	-1.680228	-0.087342	-0.007366	99
Es	1.028753	-0.988725	0.285591	99
Es	0.225632	0.517270	0.330770	99
Es	2.393922	-1.150751	0.013298	99
Es	1.035653	-0.991391	-0.268035	99
Es	-0.205017	-0.042522	-0.000717	99
Es	-0.937899	-0.059570	-0.004130	99
Es	2.164411	0.739166	-0.099772	99
Es	-1.912100	-0.432620	-0.609476	99
Es	-1.917344	-0.446207	0.584697	99
Es	0.541748	-1.198225	0.005723	99
Es	0.414479	-1.541240	0.004952	99
Es	1.920929	0.587524	0.007001	99
Es	1.867093	0.475824	0.237982	99
Es	1.864908	0.097184	-0.083835	99
Es	0.205634	-0.692890	0.001941	99
Es	0.227627	0.517669	-0.329384	99
Es	0.549242	1.762791	-0.002585	99
33
Properties=species:S:1:pos:R:3:Z:I:1 energy=-283.7728829343788 field_type=dipole dipole="0.000000 0.000000 0.000000" charge=0
C	-1.680288	-0.087359	-0.007366	6
C	-0.205028	-0.042419	-0.000706	6
C	0.638402	1.045151	0.000074	6
O	1.921302	0.587781	0.007064	8
C	1.782122	-0.766019	0.010174	6
N	0.541522	-1.198749	0.005724	7
H	-2.109588	0.919291	0.002444	1
H	-2.048428	-0.623849	0.872454	1
H	-2.040818	-0.603599	-0.902316	1
H	0.507612	2.116921	-0.003456	1
H	2.693191	-1.347149	0.015914	1
Es	1.034718	-0.991644	-0.268349	99
Es	0.225661	0.517279	0.330595	99
Es	-0.937990	-0.059425	-0.004152	99
Es	0.638711	1.045134	0.000075	99
Es	-1.912094	-0.432676	-0.609470	99
Es	1.029701	-0.988686	0.284966	99
Es	1.865274	0.471858	0.235277	99
Es	0.414397	-1.541157	0.005900	99
Es	2.393916	-1.150791	0.013431	99
Es	-0.205021	-0.042528	-0.000703	99
Es	-1.963030	0.598895	-0.000972	99
Es	2.165986	0.741077	-0.094775	99
Es	-1.680229	-0.087342	-0.007366	99
Es	1.443756	0.763725	-0.027297	99
Es	0.227743	0.517671	-0.329166	99
Es	0.549146	1.762859	-0.002510	99
Es	0.541739	-1.198227	0.005723	99
Es	1.920931	0.587547	0.007082	99
Es	1.782162	-0.765756	0.010169	99
Es	-1.917379	-0.446133	0.584829	99
Es	0.205637	-0.692706	0.001781	99
Es	1.865462	0.098378	-0.087334	99
33
Properties=species:S:1:pos:R:3:Z:I:1 energy=-283.7728829343788 field_type=dipole dipole="0.000000 0.000000 0.000000" charge=0
C	-1.680288	-0.087359	-0.007366	6
C	-0.205028	-0.042419	-0.000706	6
C	0.638402	1.045151	0.000074	6
O	1.921302	0.587781	0.007064	8
C	1.782122	-0.766019	0.010174	6
N	0.541522	-1.198749	0.005724	7
H	-2.109588	0.919291	0.002444	1
H	-2.048428	-0.623849	0.872454	1
H	-2.040818	-0.603599	-0.902316	1
H	0.507612	2.116921	-0.003456	1
H	2.693191	-1.347149	0.015914	1
Es	0.414624	-1.541122	0.005475	99
Es	1.782162	-0.765756	0.010171	99
Es	2.393910	-1.150853	0.013400	99
Es	1.920926	0.587544	0.007039	99
Es	0.549086	1.762888	-0.002589	99
Es	1.864814	0.099932	-0.089126	99
Es	-0.938100	-0.059264	-0.004075	99
Es	0.638708	1.045133	0.000068	99
Es	0.205458	-0.693039	0.001369	99
Es	-1.680229	-0.087342	-0.007366	99
Es	0.227827	0.517574	-0.328954	99
Es	1.444170	0.763663	-0.027656	99
Es	-0.205021	-0.042531	-0.000707	99
Es	1.028852	-0.988336	0.285450	99
Es	1.867283	0.471512	0.240193	99
Es	0.541746	-1.198218	0.005723	99
Es	-1.912082	-0.432651	-0.609597	99
Es	1.035372	-0.991617	-0.267959	99
Es	-1.963058	0.598886	-0.000827	99
Es	2.164414	0.739886	-0.097463	99
Es	-1.917304	-0.446214	0.584773	99
Es	0.225640	0.517277	0.330393	99
33
Properties=species:S:1:pos:R:3:Z:I:1 energy=-283.7728829343788 field_type=dipole dipole="0.000000 0.000000 0.000000" charge=0
C	-1.680288	-0.087359	-0.007366	6
C	-0.205028	-0.042419	-0.000706	6
C	0.638402	1.045151	0.000074	6
O	1.921302	0.587781	0.007064	8
C	1.782122	-0.766019	0.010174	6
N	0.541522	-1.198749	0.005724	7
H	-2.109588	0.919291	0.002444	1
H	-2.048428	-0.623849	0.872454	1
H	-2.040818	-0.603599	-0.902316	1
H	0.507612	2.116921	-0.003456	1
H	2.693191	-1.347149	0.015914	1
Es	-1.917269	-0.446102	0.584901	99
Es	2.167119	0.743915	0.102305	99
Es	1.864119	0.462627	-0.223603	99
Es	0.205235	-0.692909	0.003876	99
Es	1.782160	-0.765755	0.010165	99
Es	0.638711	1.045132	0.000084	99
Es	0.414877	-1.541062	0.006504	99
Es	0.541760	-1.198222	0.005724	99
Es	0.225039	0.519520	0.328326	99
Es	1.444346	0.764326	0.038026	99
Es	1.865234	0.103771	0.112395	99
Es	1.032050	-0.990133	-0.270169	99
Es	-1.680230	-0.087343	-0.007366	99
Es	0.549033	1.762892	-0.002034	99
Es	2.393877	-1.150926	0.014571	99
Es	-1.912121	-0.432767	-0.609421	99
Es	-1.963084	0.598885	-0.001010	99
Es	-0.938113	-0.059227	-0.003939	99
Es	0.228485	0.515676	-0.330715	99
Es	1.920923	0.587533	0.007074	99
Es	-0.205022	-0.042527	-0.000706	99
Es	1.032070	-0.989953	0.282746	99
33
Properties=species:S:1:pos:R:3:Z:I:1 energy=-283.7728829343788 field_type=dipole dipole="0.000000 0.000000 0.000000" charge=0
C	-1.680288	-0.087359	-0.007366	6
C	-0.205028	-0.042419	-0.000706	6
C	0.638402	1.045151	0.000074	6
O	1.921302	0.587781	0.007064	8
C	1.782122	-0.766019	0.010174	6
N	0.541522	-1.198749	0.005724	7
H	-2.109588	0.919291	0.002444	1
H	-2.048428	-0.623849	0.872454	1
H	-2.040818	-0.603599	-0.902316	1
H	0.507612	2.116921	-0.003456	1
H	2.693191	-1.347149	0.015914	1
Es	0.638710	1.045132	0.000075	99
Es	0.205214	-0.692925	0.004292	99
Es	0.225090	0.519289	0.328088	99
Es	1.864686	0.102568	0.109655	99
Es	0.414835	-1.540879	0.006389	99
Es	0.548957	1.762928	-0.002008	99
Es	1.032504	-0.990206	0.282677	99
Es	0.228464	0.515525	-0.330566	99
Es	2.165457	0.741923	0.106707	99
Es	-0.205016	-0.042524	-0.000712	99
Es	-1.912121	-0.432709	-0.609574	99
Es	1.782162	-0.765756	0.010172	99
Es	2.393887	-1.150995	0.014569	99
Es	-0.938225	-0.058987	-0.003963	99
Es	-1.917161	-0.446226	0.584843	99
Es	1.444556	0.764349	0.038669	99
Es	1.031754	-0.989930	-0.270331	99
Es	1.866214	0.466100	-0.226032	99
Es	0.541740	-1.198222	0.005723	99
Es	1.920882	0.587435	0.007237	99
Es	-1.680229	-0.087342	-0.007366	99
Es	-1.963162	0.598803	-0.000809	99
33
Properties=species:S:1:pos:R:3:Z:I:1 energy=-283.7728829343788 field_type=dipole dipole="0.000000 0.000000 0.000000" charge=0
C	-1.680288	-0.087359	-0.007366	6
C	-0.205028	-0.042419	-0.000706	6
C	0.638402	1.045151	0.000074	6
O	1.921302	0.587781	0.007064	8
C	1.782122	-0.766019	0.010174	6
N	0.541522	-1.198749	0.005724	7
H	-2.109588	0.919291	0.002444	1
H	-2.048428	-0.623849	0.872454	1
H	-2.040818	-0.603599	-0.902316	1
H	0.507612	2.116921	-0.003456	1
H	2.693191	-1.347149	0.015914	1
Es	-1.680229	-0.087342	-0.007366	99
Es	1.865087	0.468027	-0.223326	99
Es	-1.912018	-0.432681	-0.609597	99
Es	0.205262	-0.693089	0.004121	99
Es	2.393908	-1.151044	0.014564	99
Es	-1.917326	-0.446212	0.584765	99
Es	0.225022	0.519177	0.327932	99
Es	-0.205023	-0.042527	-0.000706	99
Es	0.541712	-1.198216	0.005723	99
Es	0.414871	-1.540836	0.006140	99
Es	1.920901	0.587466	0.007141	99
Es	0.228461	0.515393	-0.330418	99
Es	0.548911	1.762961	-0.001978	99
Es	-1.963065	0.598937	-0.000872	99
Es	1.865178	0.100753	0.107157	99
Es	1.444478	0.764324	0.039262	99
Es	2.166115	0.741999	0.105955	99
Es	1.032323	-0.990125	0.282942	99
Es	-0.938293	-0.059151	-0.003730	99
Es	1.782164	-0.765755	0.010166	99
Es	1.032050	-0.989843	-0.270216	99
Es	0.638711	1.045138	0.000075	99
33
Properties=species:S:1:pos:R:3:Z:I:1 energy=-283.7728829343788 field_type=dipole dipole="0.000000 0.000000 0.000000" charge=0
C	-1.680288	-0.087359	-0.007366	6
C	-0.205028	-0.042419	-0.000706	6
C	0.638402	1.045151	0.000074	6
O	1.921302	0.587781	0.007064	8
C	1.782122	-0.766019	0.010174	6
N	0.541522	-1.198749	0.005724	7
H	-2.109588	0.919291	0.002444	1
H	-2.048428	-0.623849	0.872454	1
H	-2.040818	-0.603599	-0.902316	1
H	0.507612	2.116921	-0.003456	1
H	2.693191	-1.347149	0.015914	1
Es	1.029333	-0.988450	0.285138	99
Es	1.920909	0.587537	0.007127	99
Es	1.034892	-0.991443	-0.268266	99
Es	0.227827	0.517729	-0.328316	99
Es	0.414966	-1.540614	0.005741	99
Es	-1.963024	0.598932	-0.000889	99
Es	-0.205020	-0.042526	-0.000712	99
Es	1.859217	0.461636	0.235401	99
Es	1.782162	-0.765755	0.010172	99
Es	0.205149	-0.693332	0.001815	99
Es	0.638708	1.045132	0.000074	99
Es	2.169851	0.744000	-0.081104	99
Es	-1.680231	-0.087341	-0.007366	99
Es	0.541746	-1.198221	0.005723	99
Es	-0.938391	-0.059072	-0.003971	99
Es	-1.911968	-0.432661	-0.609645	99
Es	0.548849	1.762990	-0.002465	99
Es	2.393888	-1.151109	0.013514	99
Es	1.866861	0.103782	-0.097975	99
Es	-1.917371	-0.446242	0.584800	99
Es	1.445085	0.765204	-0.030740	99
Es	0.225760	0.517176	0.329679	99
33
Properties=species:S:1:pos:R:3:Z:I:1 energy=-283.7728829343788 field_type=dipole dipole="0.000000 0.000000 0.000000" charge=0
C	-1.680288	-0.087359	-0.007366	6
C	-0.205028	-0.042419	-0.000706	6
C	0.638402	1.045151	0.000074	6
O	1.921302	0.587781	0.007064	8
C	1.782122	-0.766019	0.010174	6
N	0.541522	-1.198749	0.005724	7
H	-2.109588	0.919291	0.002444	1
H	-2.048428	-0.623849	0.872454	1
H	-2.040818	-0.603599	-0.902316	1
H	0.507612	2.116921	-0.003456	1
H	2.693191	-1.347149	0.015914	1
Es	0.415226	-1.540655	0.006646	99
Es	2.393910	-1.151163	0.014561	99
Es	1.782162	-0.765756	0.010175	99
Es	0.204896	-0.693139	0.004252	99
Es	1.032346	-0.989977	0.282395	99
Es	0.224995	0.519337	0.327635	99
Es	1.031897	-0.989937	-0.270334	99
Es	-0.205019	-0.042524	-0.000703	99
Es	-1.680230	-0.087342	-0.007366	99
Es	-1.963046	0.598953	-0.000818	99
Es	2.168006	0.744063	0.098514	99
Es	-1.917277	-0.446285	0.584809	99
Es	1.920929	0.587546	0.007107	99
Es	0.638709	1.045132	0.000075	99
Es	1.444995	0.765054	0.039770	99
Es	0.541746	-1.198224	0.005724	99
Es	-0.938459	-0.059017	-0.003826	99
Es	0.228545	0.515425	-0.330136	99
Es	1.862232	0.461089	-0.223440	99
Es	1.865838	0.104437	0.114283	99
Es	0.548800	1.762995	-0.001935	99
Es	-1.912002	-0.432659	-0.609652	99
33
Properties=species:S:1:pos:R:3:Z:I:1 energy=-283.7728829343788 field_type=dipole dipole="0.000000 0.000000 0.000000" charge=0
C	-1.680288	-0.087359	-0.007366	6
C	-0.205028	-0.042419	-0.000706	6
C	0.638402	1.045151	0.000074	6
O	1.921302	0.587781	0.007064	8
C	1.782122	-0.766019	0.010174	6
N	0.541522	-1.198749	0.005724	7
H	-2.109588	0.919291	0.002444	1
H	-2.048428	-0.623849	0.872454	1
H	-2.040818	-0.603599	-0.902316	1
H	0.507612	2.116921	-0.003456	1
H	2.693191	-1.347149	0.015914	1
Es	-0.938506	-0.058895	-0.003760	99
Es	-1.963138	0.598939	-0.000816	99
Es	-1.680231	-0.087341	-0.007366	99
Es	-1.917196	-0.446283	0.584794	99
Es	1.865955	0.102702	0.111212	99
Es	2.393911	-1.151214	0.014514	99
Es	1.032142	-0.989953	-0.270253	99
Es	0.541747	-1.198225	0.005724	99
Es	1.920928	0.587522	0.007192	99
Es	0.204763	-0.693300	0.004055	99
Es	0.224767	0.519295	0.327337	99
Es	1.032378	-0.989993	0.282882	99
Es	0.415339	-1.540380	0.006341	99
Es	1.861896	0.464038	-0.222998	99
Es	1.445172	0.764908	0.041402	99
Es	0.638714	1.045134	0.000076	99
Es	1.782161	-0.765756	0.010168	99
Es	0.548722	1.763036	-0.001970	99
Es	-0.205018	-0.042522	-0.000703	99
Es	-1.911994	-0.432725	-0.609629	99
Es	2.168000	0.743258	0.099553	99
Es	0.228687	0.515109	-0.330021	99
33
Properties=species:S:1:pos:R:3:Z:I:1 energy=-283.7728829343788 field_type=dipole dipole="0.000000 0.000000 0.000000" charge=0
C	-1.680288	-0.087359	-0.007366	6
C	-0.205028	-0.042419	-0.000706	6
C	0.638402	1.045151	0.000074	6
O	1.921302	0.587781	0.007064	8
C	1.782122	-0.766019	0.010174	6
N	0.541522	-1.198749	0.005724	7
H	-2.109588	0.919291	0.002444	1
H	-2.048428	-0.623849	0.872454	1
H	-2.040818	-0.603599	-0.902316	1
H	0.507612	2.116921	-0.003456	1
H	2.693191	-1.347149	0.015914	1
Es	1.031976	-0.989979	-0.270277	99
Es	0.548679	1.763056	-0.001983	99
Es	0.415285	-1.540270	0.006374	99
Es	2.393906	-1.151244	0.014502	99
Es	-0.205020	-0.042524	-0.000708	99
Es	1.863145	0.464128	-0.221598	99
Es	1.032472	-0.989986	0.282997	99
Es	2.167563	0.743466	0.100514	99
Es	-1.963111	0.598948	-0.000857	99
Es	0.204715	-0.693367	0.003818	99
Es	-0.938609	-0.058780	-0.003741	99
Es	1.444394	0.764929	0.039194	99
Es	-1.680230	-0.087342	-0.007367	99
Es	1.920875	0.587460	0.007247	99
Es	0.541731	-1.198223	0.005723	99
Es	-1.911914	-0.432705	-0.609670	99
Es	0.228518	0.515230	-0.329786	99
Es	1.866081	0.102467	0.110842	99
Es	0.225128	0.519016	0.327441	99
Es	-1.917256	-0.446305	0.584819	99
Es	1.782162	-0.765756	0.010174	99
Es	0.638708	1.045132	0.000076	99
