39
Properties=species:S:1:pos:R:3:Z:I:1 energy=-286.07605335829555 field_type=dipole dipole="0.000000 0.000000 0.000000" charge=0
C	-1.666705	0.041625	-0.024597	6
C	-0.175184	-0.053385	0.162073	6
N	0.291036	-0.058855	1.570223	7
C	0.625096	-0.836235	-0.850097	6
C	0.701005	0.661115	-0.851787	6
O	1.907776	1.229195	-0.312427	8
H	-1.947064	0.066575	-1.083037	1
H	-2.052875	0.951175	0.446893	1
H	-2.162575	-0.821165	0.432343	1
H	1.216176	-0.485135	1.629153	1
H	-0.310674	-0.660845	2.133873	1
H	0.102206	-1.310225	-1.672727	1
H	1.504845	-1.381975	-0.530917	1
H	0.222235	1.189395	-1.669347	1
H	1.744705	1.468745	0.620383	1
Es	1.216609	-1.200113	-0.621178	99
Es	1.955542	1.487134	-0.465433	99
Es	-0.175039	-0.053396	0.162096	99
Es	-0.073038	-0.433526	1.889162	99
Es	-1.666671	0.041614	-0.024598	99
Es	0.291035	-0.059378	1.569986	99
Es	0.625047	-0.836095	-0.850052	99
Es	0.298654	0.273895	1.699036	99
Es	0.701172	0.661056	-0.851620	99
Es	0.202829	0.477630	-0.278078	99
Es	0.840336	-0.327821	1.590754	99
Es	-1.844486	0.057175	-0.745374	99
Es	0.375884	1.023745	-1.406019	99
Es	-1.925576	0.657680	0.296245	99
Es	0.160304	-0.623090	-0.286992	99
Es	1.798456	1.349311	0.177167	99
Es	2.109269	1.001554	-0.306015	99
Es	0.261910	-1.154819	-1.407409	99
Es	-2.000576	-0.548366	0.289968	99
Es	1.907522	1.229157	-0.312280	99
Es	0.774355	-0.106382	-1.000156	99
Es	1.435586	1.013805	-0.497295	99
Es	-0.919742	-0.010773	0.069325	99
Es	0.097616	-0.082803	0.955210	99
39
Properties=species:S:1:pos:R:3:Z:I:1 energy=-286.07605335829555 field_type=dipole dipole="0.000000 0.000000 0.000000" charge=0
C	-1.666705	0.041625	-0.024597	6
C	-0.175184	-0.053385	0.162073	6
N	0.291036	-0.058855	1.570223	7
C	0.625096	-0.836235	-0.850097	6
C	0.701005	0.661115	-0.851787	6
O	1.907776	1.229195	-0.312427	8
H	-1.947064	0.066575	-1.083037	1
H	-2.052875	0.951175	0.446893	1
H	-2.162575	-0.821165	0.432343	1
H	1.216176	-0.485135	1.629153	1
H	-0.310674	-0.660845	2.133873	1
H	0.102206	-1.310225	-1.672727	1
H	1.504845	-1.381975	-0.530917	1
H	0.222235	1.189395	-1.669347	1
H	1.744705	1.468745	0.620383	1
Es	0.841179	-0.326876	1.590993	99
Es	0.376003	1.023623	-1.406074	99
Es	1.435584	1.013061	-0.497859	99
Es	2.107379	1.001708	-0.303817	99
Es	0.202538	0.477851	-0.277802	99
Es	0.160495	-0.623059	-0.287014	99
Es	1.216598	-1.200094	-0.621343	99
Es	0.625048	-0.836097	-0.850053	99
Es	-2.000575	-0.548383	0.290037	99
Es	-0.919693	-0.010721	0.069320	99
Es	0.261881	-1.154775	-1.407389	99
Es	0.774359	-0.106485	-1.000130	99
Es	-1.844519	0.057180	-0.745388	99
Es	-0.175039	-0.053385	0.162097	99
Es	-0.072588	-0.433971	1.888916	99
Es	0.701165	0.661049	-0.851617	99
Es	1.798085	1.351551	0.176964	99
Es	0.291036	-0.059365	1.569992	99
Es	1.957853	1.485441	-0.466956	99
Es	1.907522	1.229181	-0.312254	99
Es	-1.925572	0.657608	0.296183	99
Es	0.297518	0.273347	1.699070	99
Es	0.097415	-0.082808	0.955171	99
Es	-1.666672	0.041615	-0.024596	99
39
Properties=species:S:1:pos:R:3:Z:I:1 energy=-286.07605335829555 field_type=dipole dipole="0.000000 0.000000 0.000000" charge=0
C	-1.666705	0.041625	-0.024597	6
C	-0.175184	-0.053385	0.162073	6
N	0.291036	-0.058855	1.570223	7
C	0.625096	-0.836235	-0.850097	6
C	0.701005	0.661115	-0.851787	6
O	1.907776	1.229195	-0.312427	8
H	-1.947064	0.066575	-1.083037	1
H	-2.052875	0.951175	0.446893	1
H	-2.162575	-0.821165	0.432343	1
H	1.216176	-0.485135	1.629153	1
H	-0.310674	-0.660845	2.133873	1
H	0.102206	-1.310225	-1.672727	1
H	1.504845	-1.381975	-0.530917	1
H	0.222235	1.189395	-1.669347	1
H	1.744705	1.468745	0.620383	1
Es	1.216444	-1.200141	-0.621281	99
Es	0.261946	-1.154844	-1.407208	99
Es	-1.925601	0.657645	0.296153	99
Es	0.097352	-0.082384	0.955019	99
Es	0.297882	0.272815	1.698876	99
Es	0.625047	-0.836095	-0.850052	99
Es	1.434546	1.015776	-0.499150	99
Es	0.375964	1.023642	-1.405847	99
Es	-2.000652	-0.548327	0.289962	99
Es	0.202464	0.477529	-0.277888	99
Es	0.160304	-0.623311	-0.286988	99
Es	-0.919607	-0.010771	0.069519	99
Es	0.291035	-0.059386	1.569980	99
Es	1.797768	1.352522	0.176688	99
Es	2.103005	0.999478	-0.301078	99
Es	1.963508	1.484081	-0.468054	99
Es	-1.666672	0.041615	-0.024596	99
Es	-1.844426	0.057164	-0.745393	99
Es	-0.175041	-0.053396	0.162097	99
Es	0.841173	-0.327016	1.591022	99
Es	-0.072820	-0.433614	1.889242	99
Es	0.701175	0.661043	-0.851625	99
Es	1.907540	1.229186	-0.312271	99
Es	0.774667	-0.106016	-1.000675	99
39
Properties=species:S:1:pos:R:3:Z:I:1 energy=-286.07605335829555 field_type=dipole dipole="0.000000 0.000000 0.000000" charge=0
C	-1.666705	0.041625	-0.024597	6
C	-0.175184	-0.053385	0.162073	6
N	0.291036	-0.058855	1.570223	7
C	0.625096	-0.836235	-0.850097	6
C	0.701005	0.661115	-0.851787	6
O	1.907776	1.229195	-0.312427	8
H	-1.947064	0.066575	-1.083037	1
H	-2.052875	0.951175	0.446893	1
H	-2.162575	-0.821165	0.432343	1
H	1.216176	-0.485135	1.629153	1
H	-0.310674	-0.660845	2.133873	1
H	0.102206	-1.310225	-1.672727	1
H	1.504845	-1.381975	-0.530917	1
H	0.222235	1.189395	-1.669347	1
H	1.744705	1.468745	0.620383	1
Es	0.291042	-0.059367	1.569987	99
Es	2.107779	1.000982	-0.304676	99
Es	0.097198	-0.082238	0.954966	99
Es	-0.072913	-0.433436	1.889398	99
Es	0.202474	0.477753	-0.277877	99
Es	-0.175042	-0.053400	0.162099	99
Es	0.625046	-0.836094	-0.850050	99
Es	1.958044	1.484333	-0.465591	99
Es	-2.000515	-0.548339	0.289972	99
Es	0.160218	-0.623430	-0.286792	99
Es	-0.919551	-0.010739	0.069363	99
Es	1.216454	-1.200031	-0.621421	99
Es	0.262025	-1.154830	-1.407229	99
Es	1.907477	1.228985	-0.312187	99
Es	1.434630	1.015048	-0.498603	99
Es	0.701166	0.661043	-0.851619	99
Es	0.841048	-0.327211	1.590955	99
Es	0.298186	0.272599	1.698869	99
Es	0.774591	-0.106002	-1.000590	99
Es	1.798475	1.351703	0.177089	99
Es	-1.844541	0.057132	-0.745371	99
Es	-1.666672	0.041615	-0.024596	99
Es	0.376048	1.023511	-1.405853	99
Es	-1.925666	0.657608	0.296213	99
39
Properties=species:S:1:pos:R:3:Z:I:1 energy=-286.07605335829555 field_type=dipole dipole="0.000000 0.000000 0.000000" charge=0
C	-1.666705	0.041625	-0.024597	6
C	-0.175184	-0.053385	0.162073	6
N	0.291036	-0.058855	1.570223	7
C	0.625096	-0.836235	-0.850097	6
C	0.701005	0.661115	-0.851787	6
O	1.907776	1.229195	-0.312427	8
H	-1.947064	0.066575	-1.083037	1
H	-2.052875	0.951175	0.446893	1
H	-2.162575	-0.821165	0.432343	1
H	1.216176	-0.485135	1.629153	1
H	-0.310674	-0.660845	2.133873	1
H	0.102206	-1.310225	-1.672727	1
H	1.504845	-1.381975	-0.530917	1
H	0.222235	1.189395	-1.669347	1
H	1.744705	1.468745	0.620383	1
Es	1.907393	1.229248	-0.312264	99
Es	0.097422	-0.082064	0.954760	99
Es	0.841355	-0.326691	1.591332	99
Es	0.160111	-0.623567	-0.286728	99
Es	0.774636	-0.106075	-1.000852	99
Es	-1.844521	0.057133	-0.745380	99
Es	-2.000567	-0.548335	0.290015	99
Es	0.262124	-1.154825	-1.407120	99
Es	0.376094	1.023526	-1.405710	99
Es	-0.919521	-0.010703	0.069431	99
Es	2.107088	1.000993	-0.304041	99
Es	1.798392	1.351842	0.177083	99
Es	0.297678	0.272145	1.698899	99
Es	-1.666672	0.041615	-0.024596	99
Es	-1.925621	0.657611	0.296161	99
Es	1.958925	1.484130	-0.465862	99
Es	1.216365	-1.200004	-0.621520	99
Es	0.202370	0.477841	-0.277925	99
Es	0.701172	0.661058	-0.851618	99
Es	0.291022	-0.059320	1.570004	99
Es	-0.175042	-0.053399	0.162097	99
Es	0.625047	-0.836096	-0.850052	99
Es	1.434639	1.014822	-0.498836	99
Es	-0.072888	-0.433691	1.889173	99
39
Properties=species:S:1:pos:R:3:Z:I:1 energy=-286.07605335829555 field_type=dipole dipole="0.000000 0.000000 0.000000" charge=0
C	-1.666705	0.041625	-0.024597	6
C	-0.175184	-0.053385	0.162073	6
N	0.291036	-0.058855	1.570223	7
C	0.625096	-0.836235	-0.850097	6
C	0.701005	0.661115	-0.851787	6
O	1.907776	1.229195	-0.312427	8
H	-1.947064	0.066575	-1.083037	1
H	-2.052875	0.951175	0.446893	1
H	-2.162575	-0.821165	0.432343	1
H	1.216176	-0.485135	1.629153	1
H	-0.310674	-0.660845	2.133873	1
H	0.102206	-1.310225	-1.672727	1
H	1.504845	-1.381975	-0.530917	1
H	0.222235	1.189395	-1.669347	1
H	1.744705	1.468745	0.620383	1
Es	1.907466	1.229188	-0.312249	99
Es	1.434301	1.015449	-0.499519	99
Es	0.774825	-0.106003	-1.000871	99
Es	-0.072743	-0.433484	1.889265	99
Es	0.202274	0.477949	-0.277905	99
Es	-1.844512	0.057152	-0.745359	99
Es	-2.000557	-0.548319	0.289919	99
Es	0.291032	-0.059343	1.569997	99
Es	-0.175040	-0.053398	0.162095	99
Es	0.625046	-0.836092	-0.850051	99
Es	1.961494	1.483627	-0.466596	99
Es	1.216255	-1.200072	-0.621502	99
Es	0.262194	-1.154779	-1.407082	99
Es	-1.666673	0.041615	-0.024596	99
Es	0.841230	-0.327026	1.591085	99
Es	0.297879	0.272583	1.698891	99
Es	0.160034	-0.623640	-0.286752	99
Es	0.097160	-0.082366	0.954949	99
Es	-1.925652	0.657636	0.296232	99
Es	1.798140	1.352390	0.176944	99
Es	2.104964	1.000436	-0.302478	99
Es	0.376170	1.023437	-1.405770	99
Es	-0.919460	-0.010793	0.069429	99
Es	0.701171	0.661048	-0.851620	99
39
Properties=species:S:1:pos:R:3:Z:I:1 energy=-286.07605335829555 field_type=dipole dipole="0.000000 0.000000 0.000000" charge=0
C	-1.666705	0.041625	-0.024597	6
C	-0.175184	-0.053385	0.162073	6
N	0.291036	-0.058855	1.570223	7
C	0.625096	-0.836235	-0.850097	6
C	0.701005	0.661115	-0.851787	6
O	1.907776	1.229195	-0.312427	8
H	-1.947064	0.066575	-1.083037	1
H	-2.052875	0.951175	0.446893	1
H	-2.162575	-0.821165	0.432343	1
H	1.216176	-0.485135	1.629153	1
H	-0.310674	-0.660845	2.133873	1
H	0.102206	-1.310225	-1.672727	1
H	1.504845	-1.381975	-0.530917	1
H	0.222235	1.189395	-1.669347	1
H	1.744705	1.468745	0.620383	1
Es	0.625045	-0.836088	-0.850048	99
Es	-1.666673	0.041615	-0.024595	99
Es	2.104292	1.001417	-0.301885	99
Es	1.434678	1.013959	-0.499059	99
Es	-0.175040	-0.053403	0.162095	99
Es	-0.919377	-0.010773	0.069440	99
Es	-0.072926	-0.433420	1.889593	99
Es	0.774805	-0.106056	-1.001058	99
Es	0.097094	-0.081820	0.954745	99
Es	1.216198	-1.200018	-0.621587	99
Es	-2.000577	-0.548274	0.289952	99
Es	-1.925653	0.657632	0.296176	99
Es	0.291036	-0.059383	1.569983	99
Es	0.202220	0.478059	-0.277897	99
Es	1.798282	1.352207	0.176806	99
Es	0.701169	0.661046	-0.851621	99
Es	0.159924	-0.623733	-0.286637	99
Es	1.961775	1.484336	-0.467610	99
Es	-1.844530	0.057112	-0.745354	99
Es	0.298072	0.271824	1.698760	99
Es	0.376203	1.023392	-1.405615	99
Es	1.907434	1.229157	-0.312234	99
Es	0.841274	-0.326811	1.591136	99
Es	0.262277	-1.154781	-1.407032	99
39
Properties=species:S:1:pos:R:3:Z:I:1 energy=-286.07605335829555 field_type=dipole dipole="0.000000 0.000000 0.000000" charge=0
C	-1.666705	0.041625	-0.024597	6
C	-0.175184	-0.053385	0.162073	6
N	0.291036	-0.058855	1.570223	7
C	0.625096	-0.836235	-0.850097	6
C	0.701005	0.661115	-0.851787	6
O	1.907776	1.229195	-0.312427	8
H	-1.947064	0.066575	-1.083037	1
H	-2.052875	0.951175	0.446893	1
H	-2.162575	-0.821165	0.432343	1
H	1.216176	-0.485135	1.629153	1
H	-0.310674	-0.660845	2.133873	1
H	0.102206	-1.310225	-1.672727	1
H	1.504845	-1.381975	-0.530917	1
H	0.222235	1.189395	-1.669347	1
H	1.744705	1.468745	0.620383	1
Es	0.097086	-0.082149	0.954668	99
Es	2.104776	1.000813	-0.302595	99
Es	-2.000591	-0.548291	0.289952	99
Es	0.298150	0.272067	1.698713	99
Es	-0.175039	-0.053402	0.162089	99
Es	0.701166	0.661043	-0.851620	99
Es	0.376217	1.023363	-1.405548	99
Es	-1.925641	0.657603	0.296175	99
Es	0.291040	-0.059362	1.570003	99
Es	0.159971	-0.623873	-0.286739	99
Es	-0.072873	-0.433311	1.889620	99
Es	0.625047	-0.836090	-0.850051	99
Es	1.798254	1.352222	0.177149	99
Es	1.961916	1.483070	-0.465726	99
Es	1.216127	-1.199997	-0.621603	99
Es	1.434029	1.015811	-0.500542	99
Es	-0.919356	-0.010808	0.069490	99
Es	-1.844525	0.057142	-0.745365	99
Es	0.774883	-0.105850	-1.001232	99
Es	-1.666674	0.041616	-0.024595	99
Es	1.907489	1.229185	-0.312261	99
Es	0.202071	0.478120	-0.277760	99
Es	0.262348	-1.154809	-1.406940	99
Es	0.841132	-0.326919	1.591171	99
39
Properties=species:S:1:pos:R:3:Z:I:1 energy=-286.07605335829555 field_type=dipole dipole="0.000000 0.000000 0.000000" charge=0
C	-1.666705	0.041625	-0.024597	6
C	-0.175184	-0.053385	0.162073	6
N	0.291036	-0.058855	1.570223	7
C	0.625096	-0.836235	-0.850097	6
C	0.701005	0.661115	-0.851787	6
O	1.907776	1.229195	-0.312427	8
H	-1.947064	0.066575	-1.083037	1
H	-2.052875	0.951175	0.446893	1
H	-2.162575	-0.821165	0.432343	1
H	1.216176	-0.485135	1.629153	1
H	-0.310674	-0.660845	2.133873	1
H	0.102206	-1.310225	-1.672727	1
H	1.504845	-1.381975	-0.530917	1
H	0.222235	1.189395	-1.669347	1
H	1.744705	1.468745	0.620383	1
Es	1.434276	1.014315	-0.499503	99
Es	0.097148	-0.082278	0.954678	99
Es	-2.000614	-0.548308	0.289922	99
Es	0.291038	-0.059386	1.569976	99
Es	1.216070	-1.199896	-0.621602	99
Es	1.958277	1.484026	-0.464878	99
Es	-0.072688	-0.433585	1.889519	99
Es	0.625046	-0.836092	-0.850050	99
Es	0.701170	0.661048	-0.851620	99
Es	0.297906	0.272228	1.698838	99
Es	-0.919255	-0.010819	0.069393	99
Es	-1.925614	0.657622	0.296209	99
Es	0.841137	-0.326628	1.591213	99
Es	-1.844573	0.057184	-0.745281	99
Es	0.159689	-0.623842	-0.286487	99
Es	0.202171	0.478208	-0.277953	99
Es	0.262438	-1.154923	-1.406831	99
Es	1.907477	1.229179	-0.312263	99
Es	0.774920	-0.105971	-1.001391	99
Es	-1.666674	0.041615	-0.024596	99
Es	-0.175039	-0.053400	0.162092	99
Es	1.799143	1.351136	0.177595	99
Es	0.376276	1.023291	-1.405565	99
Es	2.107276	1.002470	-0.304962	99
39
Properties=species:S:1:pos:R:3:Z:I:1 energy=-286.07605335829555 field_type=dipole dipole="0.000000 0.000000 0.000000" charge=0
C	-1.666705	0.041625	-0.024597	6
C	-0.175184	-0.053385	0.162073	6
N	0.291036	-0.058855	1.570223	7
C	0.625096	-0.836235	-0.850097	6
C	0.701005	0.661115	-0.851787	6
O	1.907776	1.229195	-0.312427	8
H	-1.947064	0.066575	-1.083037	1
H	-2.052875	0.951175	0.446893	1
H	-2.162575	-0.821165	0.432343	1
H	1.216176	-0.485135	1.629153	1
H	-0.310674	-0.660845	2.133873	1
H	0.102206	-1.310225	-1.672727	1
H	1.504845	-1.381975	-0.530917	1
H	0.222235	1.189395	-1.669347	1
H	1.744705	1.468745	0.620383	1
Es	-0.919292	-0.010695	0.069476	99
Es	0.291039	-0.059324	1.570020	99
Es	0.625045	-0.836089	-0.850049	99
Es	1.215960	-1.199998	-0.621728	99
Es	-0.175039	-0.053404	0.162090	99
Es	-2.000600	-0.548310	0.289991	99
Es	0.701164	0.661041	-0.851618	99
Es	1.959454	1.483551	-0.465579	99
Es	1.434338	1.014713	-0.499562	99
Es	0.202031	0.478249	-0.277790	99
Es	-1.666674	0.041615	-0.024594	99
Es	0.376285	1.023291	-1.405392	99
Es	-1.925701	0.657673	0.296065	99
Es	0.775056	-0.105899	-1.001530	99
Es	1.798915	1.351823	0.177563	99
Es	1.907481	1.229126	-0.312262	99
Es	0.262447	-1.154778	-1.406814	99
Es	0.159780	-0.623986	-0.286548	99
Es	2.106305	1.001911	-0.304176	99
Es	-1.844456	0.057042	-0.745311	99
Es	0.298154	0.271749	1.698670	99
Es	0.097001	-0.082044	0.954559	99
Es	0.841164	-0.326780	1.591253	99
Es	-0.072859	-0.433283	1.889717	99
39
Properties=species:S:1:pos:R:3:Z:I:1 energy=-286.07605335829555 field_type=dipole dipole="0.000000 0.000000 0.000000" charge=0
C	-1.666705	0.041625	-0.024597	6
C	-0.175184	-0.053385	0.162073	6
N	0.291036	-0.058855	1.570223	7
C	0.625096	-0.836235	-0.850097	6
C	0.701005	0.661115	-0.851787	6
O	1.907776	1.229195	-0.312427	8
H	-1.947064	0.066575	-1.083037	1
H	-2.052875	0.951175	0.446893	1
H	-2.162575	-0.821165	0.432343	1
H	1.216176	-0.485135	1.629153	1
H	-0.310674	-0.660845	2.133873	1
H	0.102206	-1.310225	-1.672727	1
H	1.504845	-1.381975	-0.530917	1
H	0.222235	1.189395	-1.669347	1
H	1.744705	1.468745	0.620383	1
Es	0.701164	0.661040	-0.851619	99
Es	0.625044	-0.836087	-0.850049	99
Es	0.298049	0.271698	1.698649	99
Es	0.262550	-1.154775	-1.406799	99
Es	0.376315	1.023270	-1.405321	99
Es	-0.919214	-0.010798	0.069508	99
Es	-1.925702	0.657584	0.296175	99
Es	-2.000567	-0.548286	0.289916	99
Es	-0.072867	-0.433266	1.889717	99
Es	1.434242	1.013934	-0.500069	99
Es	0.097062	-0.082004	0.954524	99
Es	1.907523	1.229166	-0.312245	99
Es	0.841234	-0.326678	1.591352	99
Es	0.291034	-0.059360	1.569976	99
Es	-1.666675	0.041615	-0.024596	99
Es	0.775059	-0.105928	-1.001624	99
Es	-0.175036	-0.053400	0.162085	99
Es	1.215920	-1.199955	-0.621758	99
Es	0.201957	0.478367	-0.277841	99
Es	1.798747	1.352945	0.177218	99
Es	1.960639	1.482731	-0.466160	99
Es	2.105367	1.002335	-0.302786	99
Es	0.159686	-0.624081	-0.286458	99
Es	-1.844529	0.057127	-0.745343	99
39
Properties=species:S:1:pos:R:3:Z:I:1 energy=-286.07605335829555 field_type=dipole dipole="0.000000 0.000000 0.000000" charge=0
C	-1.666705	0.041625	-0.024597	6
C	-0.175184	-0.053385	0.162073	6
N	0.291036	-0.058855	1.570223	7
C	0.625096	-0.836235	-0.850097	6
C	0.701005	0.661115	-0.851787	6
O	1.907776	1.229195	-0.312427	8
H	-1.947064	0.066575	-1.083037	1
H	-2.052875	0.951175	0.446893	1
H	-2.162575	-0.821165	0.432343	1
H	1.216176	-0.485135	1.629153	1
H	-0.310674	-0.660845	2.133873	1
H	0.102206	-1.310225	-1.672727	1
H	1.504845	-1.381975	-0.530917	1
H	0.222235	1.189395	-1.669347	1
H	1.744705	1.468745	0.620383	1
Es	0.841200	-0.326715	1.591314	99
Es	-2.000612	-0.548256	0.289878	99
Es	0.159626	-0.624163	-0.286454	99
Es	0.201875	0.478414	-0.277794	99
Es	0.096948	-0.081897	0.954453	99
Es	-1.844509	0.057147	-0.745347	99
Es	0.291037	-0.059364	1.569990	99
Es	2.107523	1.003005	-0.304546	99
Es	0.298206	0.271486	1.698614	99
Es	0.262593	-1.154795	-1.406730	99
Es	0.775151	-0.105854	-1.001811	99
Es	-1.666674	0.041615	-0.024596	99
Es	-0.919155	-0.010799	0.069564	99
Es	0.625044	-0.836087	-0.850049	99
Es	1.434387	1.013479	-0.499521	99
Es	-0.072889	-0.433177	1.889851	99
Es	1.958028	1.483337	-0.465086	99
Es	1.799139	1.352077	0.177384	99
Es	0.376368	1.023226	-1.405235	99
Es	1.215828	-1.199935	-0.621797	99
Es	-0.175037	-0.053399	0.162086	99
Es	-1.925694	0.657580	0.296171	99
Es	1.907457	1.229230	-0.312269	99
Es	0.701163	0.661038	-0.851618	99
39
Properties=species:S:1:pos:R:3:Z:I:1 energy=-286.07605335829555 field_type=dipole dipole="0.000000 0.000000 0.000000" charge=0
C	-1.666705	0.041625	-0.024597	6
C	-0.175184	-0.053385	0.162073	6
N	0.291036	-0.058855	1.570223	7
C	0.625096	-0.836235	-0.850097	6
C	0.701005	0.661115	-0.851787	6
O	1.907776	1.229195	-0.312427	8
H	-1.947064	0.066575	-1.083037	1
H	-2.052875	0.951175	0.446893	1
H	-2.162575	-0.821165	0.432343	1
H	1.216176	-0.485135	1.629153	1
H	-0.310674	-0.660845	2.133873	1
H	0.102206	-1.310225	-1.672727	1
H	1.504845	-1.381975	-0.530917	1
H	0.222235	1.189395	-1.669347	1
H	1.744705	1.468745	0.620383	1
Es	-0.919104	-0.010866	0.069537	99
Es	0.291035	-0.059346	1.569997	99
Es	0.262645	-1.154898	-1.406728	99
Es	0.297673	0.271348	1.698819	99
Es	1.433773	1.014726	-0.500392	99
Es	-2.000654	-0.548301	0.289953	99
Es	0.159698	-0.624195	-0.286524	99
Es	-1.844528	0.057192	-0.745341	99
Es	-0.072646	-0.433564	1.889580	99
Es	-1.925623	0.657551	0.296131	99
Es	-1.666674	0.041616	-0.024597	99
Es	-0.175038	-0.053398	0.162087	99
Es	0.096962	-0.081872	0.954395	99
Es	0.841442	-0.326253	1.591439	99
Es	1.215781	-1.199840	-0.621767	99
Es	1.962340	1.481570	-0.466685	99
Es	0.376428	1.023146	-1.405207	99
Es	0.775205	-0.105840	-1.001879	99
Es	0.625042	-0.836070	-0.850046	99
Es	1.907575	1.229161	-0.312298	99
Es	0.701159	0.661028	-0.851620	99
Es	2.103699	1.001880	-0.302091	99
Es	0.201685	0.478587	-0.277720	99
Es	1.799127	1.353833	0.177409	99
39
Properties=species:S:1:pos:R:3:Z:I:1 energy=-286.07605335829555 field_type=dipole dipole="0.000000 0.000000 0.000000" charge=0
C	-1.666705	0.041625	-0.024597	6
C	-0.175184	-0.053385	0.162073	6
N	0.291036	-0.058855	1.570223	7
C	0.625096	-0.836235	-0.850097	6
C	0.701005	0.661115	-0.851787	6
O	1.907776	1.229195	-0.312427	8
H	-1.947064	0.066575	-1.083037	1
H	-2.052875	0.951175	0.446893	1
H	-2.162575	-0.821165	0.432343	1
H	1.216176	-0.485135	1.629153	1
H	-0.310674	-0.660845	2.133873	1
H	0.102206	-1.310225	-1.672727	1
H	1.504845	-1.381975	-0.530917	1
H	0.222235	1.189395	-1.669347	1
H	1.744705	1.468745	0.620383	1
Es	-2.000643	-0.548265	0.289883	99
Es	-0.175037	-0.053400	0.162083	99
Es	-1.666674	0.041615	-0.024595	99
Es	0.376451	1.023107	-1.405161	99
Es	1.433986	1.013999	-0.500267	99
Es	1.961593	1.481777	-0.466568	99
Es	1.215726	-1.199938	-0.621869	99
Es	1.798662	1.354091	0.176870	99
Es	1.907449	1.229171	-0.312241	99
Es	-1.844493	0.057138	-0.745304	99
Es	0.701162	0.661034	-0.851618	99
Es	0.775279	-0.105774	-1.002024	99
Es	0.841264	-0.326519	1.591316	99
Es	0.262734	-1.154758	-1.406610	99
Es	-0.919095	-0.010842	0.069554	99
Es	0.298083	0.271414	1.698553	99
Es	0.201695	0.478544	-0.277730	99
Es	-0.072741	-0.433235	1.889894	99
Es	2.104850	1.002133	-0.301872	99
Es	0.291020	-0.059293	1.570029	99
Es	0.159518	-0.624310	-0.286413	99
Es	-1.925686	0.657617	0.296145	99
Es	0.096856	-0.082026	0.954441	99
Es	0.625043	-0.836085	-0.850048	99
39
Properties=species:S:1:pos:R:3:Z:I:1 energy=-286.07605335829555 field_type=dipole dipole="0.000000 0.000000 0.000000" charge=0
C	-1.666705	0.041625	-0.024597	6
C	-0.175184	-0.053385	0.162073	6
N	0.291036	-0.058855	1.570223	7
C	0.625096	-0.836235	-0.850097	6
C	0.701005	0.661115	-0.851787	6
O	1.907776	1.229195	-0.312427	8
H	-1.947064	0.066575	-1.083037	1
H	-2.052875	0.951175	0.446893	1
H	-2.162575	-0.821165	0.432343	1
H	1.216176	-0.485135	1.629153	1
H	-0.310674	-0.660845	2.133873	1
H	0.102206	-1.310225	-1.672727	1
H	1.504845	-1.381975	-0.530917	1
H	0.222235	1.189395	-1.669347	1
H	1.744705	1.468745	0.620383	1
Es	1.434182	1.013296	-0.499958	99
Es	-1.844460	0.057169	-0.745346	99
Es	0.159470	-0.624399	-0.286336	99
Es	0.201657	0.478582	-0.277698	99
Es	0.625043	-0.836084	-0.850048	99
Es	1.957195	1.483305	-0.464144	99
Es	-2.000662	-0.548287	0.289893	99
Es	1.215669	-1.199877	-0.621920	99
Es	-0.175036	-0.053400	0.162081	99
Es	-0.919093	-0.010807	0.069613	99
Es	-1.925674	0.657573	0.296128	99
Es	0.291044	-0.059357	1.569995	99
Es	1.799660	1.351383	0.177854	99
Es	-0.072968	-0.432938	1.890114	99
Es	0.841161	-0.326707	1.591380	99
Es	0.298412	0.271083	1.698457	99
Es	-1.666675	0.041615	-0.024596	99
Es	2.108023	1.003990	-0.305590	99
Es	0.096827	-0.081729	0.954281	99
Es	0.701160	0.661034	-0.851617	99
Es	0.376474	1.023093	-1.405085	99
Es	0.262774	-1.154789	-1.406586	99
Es	1.907473	1.229202	-0.312265	99
Es	0.775344	-0.105756	-1.002157	99
39
Properties=species:S:1:pos:R:3:Z:I:1 energy=-286.07605335829555 field_type=dipole dipole="0.000000 0.000000 0.000000" charge=0
C	-1.666705	0.041625	-0.024597	6
C	-0.175184	-0.053385	0.162073	6
N	0.291036	-0.058855	1.570223	7
C	0.625096	-0.836235	-0.850097	6
C	0.701005	0.661115	-0.851787	6
O	1.907776	1.229195	-0.312427	8
H	-1.947064	0.066575	-1.083037	1
H	-2.052875	0.951175	0.446893	1
H	-2.162575	-0.821165	0.432343	1
H	1.216176	-0.485135	1.629153	1
H	-0.310674	-0.660845	2.133873	1
H	0.102206	-1.310225	-1.672727	1
H	1.504845	-1.381975	-0.530917	1
H	0.222235	1.189395	-1.669347	1
H	1.744705	1.468745	0.620383	1
Es	2.108279	1.004370	-0.306766	99
Es	0.701160	0.661033	-0.851616	99
Es	-0.919015	-0.010808	0.069657	99
Es	-1.925692	0.657584	0.296080	99
Es	0.262816	-1.154823	-1.406541	99
Es	1.907456	1.229122	-0.312234	99
Es	1.956581	1.483634	-0.463402	99
Es	-1.844476	0.057098	-0.745352	99
Es	1.800436	1.350397	0.178240	99
Es	1.215571	-1.199849	-0.621932	99
Es	0.841123	-0.326635	1.591369	99
Es	0.096825	-0.081713	0.954255	99
Es	0.298404	0.271074	1.698500	99
Es	0.159438	-0.624480	-0.286323	99
Es	0.291039	-0.059351	1.570001	99
Es	-2.000655	-0.548224	0.289924	99
Es	-1.666675	0.041616	-0.024596	99
Es	0.775442	-0.105664	-1.002308	99
Es	1.433799	1.013672	-0.499934	99
Es	0.625042	-0.836081	-0.850046	99
Es	0.376517	1.023040	-1.405028	99
Es	-0.072925	-0.433023	1.890111	99
Es	-0.175036	-0.053399	0.162081	99
Es	0.201546	0.478604	-0.277687	99
39
Properties=species:S:1:pos:R:3:Z:I:1 energy=-286.07605335829555 field_type=dipole dipole="0.000000 0.000000 0.000000" charge=0
C	-1.666705	0.041625	-0.024597	6
C	-0.175184	-0.053385	0.162073	6
N	0.291036	-0.058855	1.570223	7
C	0.625096	-0.836235	-0.850097	6
C	0.701005	0.661115	-0.851787	6
O	1.907776	1.229195	-0.312427	8
H	-1.947064	0.066575	-1.083037	1
H	-2.052875	0.951175	0.446893	1
H	-2.162575	-0.821165	0.432343	1
H	1.216176	-0.485135	1.629153	1
H	-0.310674	-0.660845	2.133873	1
H	0.102206	-1.310225	-1.672727	1
H	1.504845	-1.381975	-0.530917	1
H	0.222235	1.189395	-1.669347	1
H	1.744705	1.468745	0.620383	1
Es	0.262843	-1.154749	-1.406498	99
Es	2.104846	1.002510	-0.303147	99
Es	0.625043	-0.836086	-0.850048	99
Es	1.215569	-1.199856	-0.622054	99
Es	-0.918978	-0.010778	0.069651	99
Es	0.159384	-0.624583	-0.286196	99
Es	-1.666675	0.041616	-0.024595	99
Es	0.201527	0.478655	-0.277698	99
Es	0.775472	-0.105648	-1.002386	99
Es	0.298461	0.270844	1.698489	99
Es	1.907460	1.229218	-0.312265	99
Es	-2.000621	-0.548247	0.289881	99
Es	0.291033	-0.059340	1.569999	99
Es	-0.072955	-0.432920	1.890160	99
Es	-1.844489	0.057137	-0.745360	99
Es	0.841143	-0.326651	1.591425	99
Es	1.799410	1.352778	0.177469	99
Es	0.376542	1.022988	-1.404945	99
Es	0.096761	-0.081583	0.954172	99
Es	-1.925735	0.657531	0.296115	99
Es	1.961364	1.481886	-0.465252	99
Es	1.433470	1.014842	-0.500926	99
Es	-0.175033	-0.053399	0.162077	99
Es	0.701160	0.661030	-0.851616	99
39
Properties=species:S:1:pos:R:3:Z:I:1 energy=-286.07605335829555 field_type=dipole dipole="0.000000 0.000000 0.000000" charge=0
C	-1.666705	0.041625	-0.024597	6
C	-0.175184	-0.053385	0.162073	6
N	0.291036	-0.058855	1.570223	7
C	0.625096	-0.836235	-0.850097	6
C	0.701005	0.661115	-0.851787	6
O	1.907776	1.229195	-0.312427	8
H	-1.947064	0.066575	-1.083037	1
H	-2.052875	0.951175	0.446893	1
H	-2.162575	-0.821165	0.432343	1
H	1.216176	-0.485135	1.629153	1
H	-0.310674	-0.660845	2.133873	1
H	0.102206	-1.310225	-1.672727	1
H	1.504845	-1.381975	-0.530917	1
H	0.222235	1.189395	-1.669347	1
H	1.744705	1.468745	0.620383	1
Es	-1.844491	0.057110	-0.745295	99
Es	-1.925754	0.657569	0.296084	99
Es	-0.918886	-0.010798	0.069680	99
Es	0.701159	0.661032	-0.851616	99
Es	-1.666675	0.041614	-0.024595	99
Es	0.841090	-0.326696	1.591431	99
Es	-2.000664	-0.548206	0.289852	99
Es	0.625042	-0.836078	-0.850046	99
Es	1.907522	1.229138	-0.312257	99
Es	2.106792	1.003919	-0.305014	99
Es	-0.175035	-0.053400	0.162078	99
Es	0.291028	-0.059289	1.570013	99
Es	0.376613	1.022918	-1.404969	99
Es	0.159238	-0.624411	-0.286202	99
Es	0.201513	0.478900	-0.277729	99
Es	1.215452	-1.199867	-0.621998	99
Es	1.433837	1.013826	-0.500671	99
Es	0.298560	0.270853	1.698374	99
Es	1.958592	1.482609	-0.464191	99
Es	0.262899	-1.154798	-1.406418	99
Es	1.799843	1.351719	0.177985	99
Es	-0.072974	-0.432804	1.890265	99
Es	0.096762	-0.081776	0.954166	99
Es	0.775537	-0.105889	-1.002475	99
