42
Properties=species:S:1:pos:R:3:Z:I:1 energy=-287.2922583064605 field_type=dipole dipole="0.000000 0.000000 0.000000" charge=0
C	-1.796992	-0.319050	-0.247007	6
C	-0.270242	-0.327390	-0.197277	6
C	0.214118	-1.161640	0.990103	6
O	0.206018	-0.954710	-1.394937	8
C	0.277838	1.120550	-0.161737	6
N	1.736208	1.148930	-0.359697	7
H	-2.156042	0.220560	-1.131057	1
H	-2.226692	0.150100	0.644383	1
H	-2.191822	-1.338390	-0.328477	1
H	-0.080902	-0.712000	1.944093	1
H	1.303158	-1.281100	0.981363	1
H	-0.199222	-2.176280	0.944843	1
H	1.096268	-0.568270	-1.538117	1
H	0.017548	1.617500	0.779463	1
H	-0.166212	1.697570	-0.981017	1
H	2.196758	0.761370	0.464213	1
H	2.040208	2.122250	-0.409137	1
Es	1.827514	0.960002	-0.657133	99
Es	-0.027156	1.514392	-0.720270	99
Es	0.013208	0.405744	-0.167471	99
Es	-2.036279	0.056400	-0.843678	99
Es	-2.058668	-1.011484	-0.293680	99
Es	0.672702	-0.749018	-1.457371	99
Es	-0.270170	-0.327458	-0.197430	99
Es	-1.796980	-0.319039	-0.246988	99
Es	-1.041587	-0.316804	-0.216013	99
Es	1.736062	1.149164	-0.359293	99
Es	-0.020495	-0.739527	0.417731	99
Es	2.002587	0.925588	0.149770	99
Es	1.908415	1.738115	-0.376755	99
Es	-0.072372	-1.844082	0.958471	99
Es	0.011118	-0.846721	1.641760	99
Es	0.278003	1.120535	-0.161746	99
Es	0.206171	-0.954522	-1.394766	99
Es	-2.081505	0.003523	0.366244	99
Es	0.091347	1.457412	0.493104	99
Es	1.113124	1.143916	-0.249238	99
Es	0.239398	-1.252517	-1.326944	99
Es	0.040316	-0.705582	-0.939388	99
Es	0.025608	-0.853395	-1.625082	99
Es	0.960615	-1.228854	0.983459	99
Es	0.214128	-1.161624	0.990118	99
42
Properties=species:S:1:pos:R:3:Z:I:1 energy=-287.2922583064605 field_type=dipole dipole="0.000000 0.000000 0.000000" charge=0
C	-1.796992	-0.319050	-0.247007	6
C	-0.270242	-0.327390	-0.197277	6
C	0.214118	-1.161640	0.990103	6
O	0.206018	-0.954710	-1.394937	8
C	0.277838	1.120550	-0.161737	6
N	1.736208	1.148930	-0.359697	7
H	-2.156042	0.220560	-1.131057	1
H	-2.226692	0.150100	0.644383	1
H	-2.191822	-1.338390	-0.328477	1
H	-0.080902	-0.712000	1.944093	1
H	1.303158	-1.281100	0.981363	1
H	-0.199222	-2.176280	0.944843	1
H	1.096268	-0.568270	-1.538117	1
H	0.017548	1.617500	0.779463	1
H	-0.166212	1.697570	-0.981017	1
H	2.196758	0.761370	0.464213	1
H	2.040208	2.122250	-0.409137	1
Es	0.278001	1.120536	-0.161744	99
Es	-2.081495	0.003517	0.366225	99
Es	-2.058695	-1.011505	-0.293694	99
Es	-0.072318	-1.844123	0.958516	99
Es	0.091338	1.457411	0.493001	99
Es	0.235141	-1.254996	-1.332019	99
Es	0.673907	-0.750471	-1.456196	99
Es	1.908332	1.738138	-0.376312	99
Es	1.113140	1.143856	-0.249234	99
Es	2.002679	0.925224	0.149575	99
Es	0.013146	0.405705	-0.167431	99
Es	0.011169	-0.846735	1.641768	99
Es	-1.041564	-0.316790	-0.216029	99
Es	-0.027128	1.514419	-0.720242	99
Es	-1.796979	-0.319038	-0.246989	99
Es	0.214125	-1.161624	0.990117	99
Es	-2.036289	0.056408	-0.843633	99
Es	0.206152	-0.954551	-1.394814	99
Es	0.028099	-0.847515	-1.622387	99
Es	-0.020562	-0.739503	0.417693	99
Es	1.736051	1.149181	-0.359271	99
Es	1.827551	0.960400	-0.657358	99
Es	-0.270167	-0.327462	-0.197435	99
Es	0.960563	-1.228815	0.983440	99
Es	0.040906	-0.707505	-0.938136	99
42
Properties=species:S:1:pos:R:3:Z:I:1 energy=-287.2922583064605 field_type=dipole dipole="0.000000 0.000000 0.000000" charge=0
C	-1.796992	-0.319050	-0.247007	6
C	-0.270242	-0.327390	-0.197277	6
C	0.214118	-1.161640	0.990103	6
O	0.206018	-0.954710	-1.394937	8
C	0.277838	1.120550	-0.161737	6
N	1.736208	1.148930	-0.359697	7
H	-2.156042	0.220560	-1.131057	1
H	-2.226692	0.150100	0.644383	1
H	-2.191822	-1.338390	-0.328477	1
H	-0.080902	-0.712000	1.944093	1
H	1.303158	-1.281100	0.981363	1
H	-0.199222	-2.176280	0.944843	1
H	1.096268	-0.568270	-1.538117	1
H	0.017548	1.617500	0.779463	1
H	-0.166212	1.697570	-0.981017	1
H	2.196758	0.761370	0.464213	1
H	2.040208	2.122250	-0.409137	1
Es	0.041600	-0.707060	-0.937498	99
Es	0.230767	-1.255299	-1.334335	99
Es	0.960539	-1.228811	0.983466	99
Es	0.206177	-0.954511	-1.394776	99
Es	-0.027168	1.514468	-0.720131	99
Es	-0.020575	-0.739464	0.417679	99
Es	0.214126	-1.161624	0.990118	99
Es	-1.041495	-0.316730	-0.216126	99
Es	-2.058683	-1.011412	-0.293714	99
Es	-2.036413	0.056402	-0.843572	99
Es	1.827782	0.960088	-0.656947	99
Es	-1.796979	-0.319039	-0.246988	99
Es	0.278002	1.120536	-0.161744	99
Es	0.013175	0.405628	-0.167529	99
Es	0.030121	-0.843899	-1.621823	99
Es	2.002466	0.925630	0.149632	99
Es	0.091318	1.457289	0.493043	99
Es	1.736048	1.149182	-0.359249	99
Es	0.675589	-0.754267	-1.455140	99
Es	0.011175	-0.846751	1.641760	99
Es	-2.081491	0.003428	0.366263	99
Es	-0.072304	-1.844137	0.958526	99
Es	1.908525	1.738147	-0.376661	99
Es	1.112970	1.143829	-0.249409	99
Es	-0.270168	-0.327459	-0.197434	99
42
Properties=species:S:1:pos:R:3:Z:I:1 energy=-287.2922583064605 field_type=dipole dipole="0.000000 0.000000 0.000000" charge=0
C	-1.796992	-0.319050	-0.247007	6
C	-0.270242	-0.327390	-0.197277	6
C	0.214118	-1.161640	0.990103	6
O	0.206018	-0.954710	-1.394937	8
C	0.277838	1.120550	-0.161737	6
N	1.736208	1.148930	-0.359697	7
H	-2.156042	0.220560	-1.131057	1
H	-2.226692	0.150100	0.644383	1
H	-2.191822	-1.338390	-0.328477	1
H	-0.080902	-0.712000	1.944093	1
H	1.303158	-1.281100	0.981363	1
H	-0.199222	-2.176280	0.944843	1
H	1.096268	-0.568270	-1.538117	1
H	0.017548	1.617500	0.779463	1
H	-0.166212	1.697570	-0.981017	1
H	2.196758	0.761370	0.464213	1
H	2.040208	2.122250	-0.409137	1
Es	1.736049	1.149187	-0.359244	99
Es	-0.072233	-1.844152	0.958636	99
Es	-0.020575	-0.739472	0.417567	99
Es	0.674169	-0.751553	-1.456272	99
Es	-1.041528	-0.316892	-0.215994	99
Es	1.827879	0.960439	-0.657063	99
Es	1.112909	1.143737	-0.249502	99
Es	0.278000	1.120537	-0.161744	99
Es	0.214126	-1.161623	0.990119	99
Es	0.206181	-0.954444	-1.394746	99
Es	0.091313	1.457339	0.492975	99
Es	-0.027170	1.514413	-0.720086	99
Es	0.011202	-0.846700	1.641749	99
Es	0.234565	-1.254495	-1.331996	99
Es	0.013103	0.405655	-0.167522	99
Es	0.028443	-0.847666	-1.622686	99
Es	-0.270170	-0.327457	-0.197428	99
Es	-2.058761	-1.011418	-0.293675	99
Es	-1.796979	-0.319040	-0.246988	99
Es	2.002587	0.925431	0.149500	99
Es	0.960524	-1.228771	0.983430	99
Es	-2.081483	0.003510	0.366206	99
Es	0.040871	-0.706903	-0.937868	99
Es	-2.036329	0.056392	-0.843609	99
Es	1.908410	1.738110	-0.376348	99
42
Properties=species:S:1:pos:R:3:Z:I:1 energy=-287.2922583064605 field_type=dipole dipole="0.000000 0.000000 0.000000" charge=0
C	-1.796992	-0.319050	-0.247007	6
C	-0.270242	-0.327390	-0.197277	6
C	0.214118	-1.161640	0.990103	6
O	0.206018	-0.954710	-1.394937	8
C	0.277838	1.120550	-0.161737	6
N	1.736208	1.148930	-0.359697	7
H	-2.156042	0.220560	-1.131057	1
H	-2.226692	0.150100	0.644383	1
H	-2.191822	-1.338390	-0.328477	1
H	-0.080902	-0.712000	1.944093	1
H	1.303158	-1.281100	0.981363	1
H	-0.199222	-2.176280	0.944843	1
H	1.096268	-0.568270	-1.538117	1
H	0.017548	1.617500	0.779463	1
H	-0.166212	1.697570	-0.981017	1
H	2.196758	0.761370	0.464213	1
H	2.040208	2.122250	-0.409137	1
Es	0.013082	0.405593	-0.167395	99
Es	-2.081472	0.003536	0.366133	99
Es	2.002697	0.925434	0.149431	99
Es	-0.020627	-0.739340	0.417628	99
Es	1.827676	0.960370	-0.656991	99
Es	0.206218	-0.954531	-1.394719	99
Es	-0.072287	-1.844168	0.958619	99
Es	0.234210	-1.254672	-1.332383	99
Es	0.040525	-0.706608	-0.937878	99
Es	-2.058768	-1.011471	-0.293617	99
Es	0.278001	1.120536	-0.161744	99
Es	0.674258	-0.751497	-1.456502	99
Es	-1.041512	-0.316759	-0.216028	99
Es	1.736050	1.149188	-0.359235	99
Es	0.091287	1.457368	0.492877	99
Es	0.011211	-0.846823	1.641647	99
Es	-0.027190	1.514376	-0.720129	99
Es	0.029079	-0.847756	-1.622111	99
Es	-1.796980	-0.319039	-0.246988	99
Es	1.112923	1.143872	-0.249255	99
Es	-2.036335	0.056369	-0.843619	99
Es	-0.270169	-0.327459	-0.197432	99
Es	1.908544	1.738041	-0.376556	99
Es	0.214126	-1.161622	0.990117	99
Es	0.960556	-1.228775	0.983545	99
42
Properties=species:S:1:pos:R:3:Z:I:1 energy=-287.2922583064605 field_type=dipole dipole="0.000000 0.000000 0.000000" charge=0
C	-1.796992	-0.319050	-0.247007	6
C	-0.270242	-0.327390	-0.197277	6
C	0.214118	-1.161640	0.990103	6
O	0.206018	-0.954710	-1.394937	8
C	0.277838	1.120550	-0.161737	6
N	1.736208	1.148930	-0.359697	7
H	-2.156042	0.220560	-1.131057	1
H	-2.226692	0.150100	0.644383	1
H	-2.191822	-1.338390	-0.328477	1
H	-0.080902	-0.712000	1.944093	1
H	1.303158	-1.281100	0.981363	1
H	-0.199222	-2.176280	0.944843	1
H	1.096268	-0.568270	-1.538117	1
H	0.017548	1.617500	0.779463	1
H	-0.166212	1.697570	-0.981017	1
H	2.196758	0.761370	0.464213	1
H	2.040208	2.122250	-0.409137	1
Es	2.002859	0.925296	0.149292	99
Es	0.028975	-0.849609	-1.621950	99
Es	-2.081654	0.003456	0.366176	99
Es	1.112661	1.143481	-0.249513	99
Es	-2.036304	0.056337	-0.843589	99
Es	1.827850	0.960832	-0.656587	99
Es	-2.058670	-1.011413	-0.293755	99
Es	1.736045	1.149180	-0.359255	99
Es	-0.270168	-0.327457	-0.197432	99
Es	-0.072274	-1.844171	0.958607	99
Es	-0.027194	1.514537	-0.720050	99
Es	0.960455	-1.228822	0.983532	99
Es	0.091315	1.457205	0.492901	99
Es	-1.041446	-0.316653	-0.215932	99
Es	0.039684	-0.706392	-0.938156	99
Es	0.013026	0.405559	-0.167569	99
Es	0.011232	-0.846768	1.641717	99
Es	0.278001	1.120537	-0.161744	99
Es	-0.020544	-0.739298	0.417624	99
Es	-1.796983	-0.319039	-0.246989	99
Es	0.235949	-1.254713	-1.331605	99
Es	1.908499	1.738104	-0.376519	99
Es	0.206199	-0.954521	-1.394691	99
Es	0.673465	-0.749879	-1.457222	99
Es	0.214127	-1.161624	0.990119	99
42
Properties=species:S:1:pos:R:3:Z:I:1 energy=-287.2922583064605 field_type=dipole dipole="0.000000 0.000000 0.000000" charge=0
C	-1.796992	-0.319050	-0.247007	6
C	-0.270242	-0.327390	-0.197277	6
C	0.214118	-1.161640	0.990103	6
O	0.206018	-0.954710	-1.394937	8
C	0.277838	1.120550	-0.161737	6
N	1.736208	1.148930	-0.359697	7
H	-2.156042	0.220560	-1.131057	1
H	-2.226692	0.150100	0.644383	1
H	-2.191822	-1.338390	-0.328477	1
H	-0.080902	-0.712000	1.944093	1
H	1.303158	-1.281100	0.981363	1
H	-0.199222	-2.176280	0.944843	1
H	1.096268	-0.568270	-1.538117	1
H	0.017548	1.617500	0.779463	1
H	-0.166212	1.697570	-0.981017	1
H	2.196758	0.761370	0.464213	1
H	2.040208	2.122250	-0.409137	1
Es	0.214127	-1.161624	0.990118	99
Es	0.277998	1.120537	-0.161744	99
Es	-1.796982	-0.319039	-0.246989	99
Es	1.112643	1.143576	-0.249594	99
Es	0.960470	-1.228834	0.983550	99
Es	-0.020632	-0.739325	0.417587	99
Es	-2.036356	0.056381	-0.843554	99
Es	-0.072252	-1.844143	0.958622	99
Es	0.028605	-0.849797	-1.622517	99
Es	1.827861	0.960802	-0.656502	99
Es	1.908596	1.738052	-0.376576	99
Es	0.040077	-0.706201	-0.937902	99
Es	2.002801	0.925310	0.149328	99
Es	-2.058776	-1.011433	-0.293681	99
Es	-1.041376	-0.316692	-0.215999	99
Es	0.091273	1.457324	0.492825	99
Es	0.235334	-1.253528	-1.331304	99
Es	1.736054	1.149183	-0.359254	99
Es	0.011229	-0.846804	1.641708	99
Es	0.674130	-0.751141	-1.457168	99
Es	-0.270169	-0.327459	-0.197431	99
Es	0.012995	0.405554	-0.167402	99
Es	0.206154	-0.954415	-1.394787	99
Es	-0.027181	1.514407	-0.720053	99
Es	-2.081517	0.003474	0.366129	99
42
Properties=species:S:1:pos:R:3:Z:I:1 energy=-287.2922583064605 field_type=dipole dipole="0.000000 0.000000 0.000000" charge=0
C	-1.796992	-0.319050	-0.247007	6
C	-0.270242	-0.327390	-0.197277	6
C	0.214118	-1.161640	0.990103	6
O	0.206018	-0.954710	-1.394937	8
C	0.277838	1.120550	-0.161737	6
N	1.736208	1.148930	-0.359697	7
H	-2.156042	0.220560	-1.131057	1
H	-2.226692	0.150100	0.644383	1
H	-2.191822	-1.338390	-0.328477	1
H	-0.080902	-0.712000	1.944093	1
H	1.303158	-1.281100	0.981363	1
H	-0.199222	-2.176280	0.944843	1
H	1.096268	-0.568270	-1.538117	1
H	0.017548	1.617500	0.779463	1
H	-0.166212	1.697570	-0.981017	1
H	2.196758	0.761370	0.464213	1
H	2.040208	2.122250	-0.409137	1
Es	1.908525	1.738041	-0.376469	99
Es	-1.796982	-0.319038	-0.246990	99
Es	0.011256	-0.846822	1.641700	99
Es	0.278001	1.120535	-0.161745	99
Es	0.091247	1.457319	0.492773	99
Es	-0.072254	-1.844150	0.958636	99
Es	-2.036380	0.056366	-0.843570	99
Es	2.002745	0.925390	0.149345	99
Es	0.233794	-1.253707	-1.333615	99
Es	1.828132	0.960935	-0.656389	99
Es	0.029417	-0.847894	-1.621513	99
Es	1.736059	1.149166	-0.359272	99
Es	0.960456	-1.228828	0.983548	99
Es	-0.027165	1.514407	-0.720010	99
Es	-2.081532	0.003459	0.366093	99
Es	0.012998	0.405563	-0.167414	99
Es	0.206295	-0.954598	-1.394595	99
Es	-0.020652	-0.739307	0.417552	99
Es	0.214127	-1.161626	0.990122	99
Es	0.040144	-0.707176	-0.936977	99
Es	-0.270171	-0.327457	-0.197427	99
Es	1.112549	1.143398	-0.249791	99
Es	-2.058781	-1.011401	-0.293653	99
Es	-1.041364	-0.316703	-0.215990	99
Es	0.674639	-0.751712	-1.456939	99
42
Properties=species:S:1:pos:R:3:Z:I:1 energy=-287.2922583064605 field_type=dipole dipole="0.000000 0.000000 0.000000" charge=0
C	-1.796992	-0.319050	-0.247007	6
C	-0.270242	-0.327390	-0.197277	6
C	0.214118	-1.161640	0.990103	6
O	0.206018	-0.954710	-1.394937	8
C	0.277838	1.120550	-0.161737	6
N	1.736208	1.148930	-0.359697	7
H	-2.156042	0.220560	-1.131057	1
H	-2.226692	0.150100	0.644383	1
H	-2.191822	-1.338390	-0.328477	1
H	-0.080902	-0.712000	1.944093	1
H	1.303158	-1.281100	0.981363	1
H	-0.199222	-2.176280	0.944843	1
H	1.096268	-0.568270	-1.538117	1
H	0.017548	1.617500	0.779463	1
H	-0.166212	1.697570	-0.981017	1
H	2.196758	0.761370	0.464213	1
H	2.040208	2.122250	-0.409137	1
Es	0.039834	-0.705657	-0.938030	99
Es	0.214127	-1.161624	0.990119	99
Es	0.237696	-1.252662	-1.329521	99
Es	0.011256	-0.846852	1.641708	99
Es	0.960442	-1.228869	0.983580	99
Es	0.206166	-0.954451	-1.394775	99
Es	-1.041333	-0.316618	-0.216028	99
Es	0.013020	0.405499	-0.167418	99
Es	2.002874	0.925312	0.149233	99
Es	1.112535	1.143508	-0.249603	99
Es	0.277999	1.120537	-0.161743	99
Es	-0.027145	1.514389	-0.719993	99
Es	-0.020661	-0.739284	0.417552	99
Es	1.827940	0.960948	-0.656262	99
Es	-1.796981	-0.319039	-0.246988	99
Es	1.736051	1.149182	-0.359262	99
Es	-0.072259	-1.844126	0.958623	99
Es	0.091184	1.457302	0.492742	99
Es	0.027487	-0.852288	-1.623427	99
Es	-2.036408	0.056329	-0.843571	99
Es	1.908669	1.738005	-0.376647	99
Es	-2.081536	0.003474	0.366064	99
Es	0.673114	-0.750018	-1.457900	99
Es	-0.270170	-0.327458	-0.197429	99
Es	-2.058796	-1.011377	-0.293613	99
42
Properties=species:S:1:pos:R:3:Z:I:1 energy=-287.2922583064605 field_type=dipole dipole="0.000000 0.000000 0.000000" charge=0
C	-1.796992	-0.319050	-0.247007	6
C	-0.270242	-0.327390	-0.197277	6
C	0.214118	-1.161640	0.990103	6
O	0.206018	-0.954710	-1.394937	8
C	0.277838	1.120550	-0.161737	6
N	1.736208	1.148930	-0.359697	7
H	-2.156042	0.220560	-1.131057	1
H	-2.226692	0.150100	0.644383	1
H	-2.191822	-1.338390	-0.328477	1
H	-0.080902	-0.712000	1.944093	1
H	1.303158	-1.281100	0.981363	1
H	-0.199222	-2.176280	0.944843	1
H	1.096268	-0.568270	-1.538117	1
H	0.017548	1.617500	0.779463	1
H	-0.166212	1.697570	-0.981017	1
H	2.196758	0.761370	0.464213	1
H	2.040208	2.122250	-0.409137	1
Es	-2.081562	0.003407	0.366040	99
Es	0.012939	0.405438	-0.167408	99
Es	0.674238	-0.750986	-1.457705	99
Es	1.827948	0.960987	-0.656157	99
Es	-0.027175	1.514411	-0.719943	99
Es	-0.072249	-1.844150	0.958661	99
Es	1.736052	1.149181	-0.359250	99
Es	0.029341	-0.848952	-1.621133	99
Es	2.002894	0.925330	0.149206	99
Es	0.206165	-0.954490	-1.394799	99
Es	-0.020619	-0.739212	0.417520	99
Es	-0.270170	-0.327457	-0.197429	99
Es	-2.036463	0.056334	-0.843533	99
Es	0.214127	-1.161624	0.990119	99
Es	-1.041273	-0.316588	-0.215989	99
Es	0.277999	1.120537	-0.161744	99
Es	0.091227	1.457288	0.492690	99
Es	0.039848	-0.707036	-0.936865	99
Es	-1.796982	-0.319039	-0.246988	99
Es	-2.058779	-1.011360	-0.293635	99
Es	0.234733	-1.253628	-1.333188	99
Es	0.960416	-1.228861	0.983621	99
Es	0.011269	-0.846853	1.641672	99
Es	1.112472	1.143501	-0.249659	99
Es	1.908709	1.737987	-0.376694	99
42
Properties=species:S:1:pos:R:3:Z:I:1 energy=-287.2922583064605 field_type=dipole dipole="0.000000 0.000000 0.000000" charge=0
C	-1.796992	-0.319050	-0.247007	6
C	-0.270242	-0.327390	-0.197277	6
C	0.214118	-1.161640	0.990103	6
O	0.206018	-0.954710	-1.394937	8
C	0.277838	1.120550	-0.161737	6
N	1.736208	1.148930	-0.359697	7
H	-2.156042	0.220560	-1.131057	1
H	-2.226692	0.150100	0.644383	1
H	-2.191822	-1.338390	-0.328477	1
H	-0.080902	-0.712000	1.944093	1
H	1.303158	-1.281100	0.981363	1
H	-0.199222	-2.176280	0.944843	1
H	1.096268	-0.568270	-1.538117	1
H	0.017548	1.617500	0.779463	1
H	-0.166212	1.697570	-0.981017	1
H	2.196758	0.761370	0.464213	1
H	2.040208	2.122250	-0.409137	1
Es	-2.058763	-1.011360	-0.293581	99
Es	-0.020665	-0.739217	0.417497	99
Es	0.674911	-0.752295	-1.456737	99
Es	0.012916	0.405474	-0.167430	99
Es	1.827969	0.961065	-0.656014	99
Es	1.908781	1.737927	-0.376781	99
Es	-2.081555	0.003424	0.366022	99
Es	-2.036505	0.056295	-0.843549	99
Es	0.039105	-0.705481	-0.938007	99
Es	0.206193	-0.954495	-1.394778	99
Es	1.736058	1.149167	-0.359240	99
Es	0.214127	-1.161624	0.990119	99
Es	-0.072240	-1.844148	0.958677	99
Es	-1.796981	-0.319039	-0.246988	99
Es	0.960418	-1.228855	0.983591	99
Es	0.029778	-0.850026	-1.622722	99
Es	0.011281	-0.846851	1.641679	99
Es	0.277998	1.120537	-0.161744	99
Es	-0.270172	-0.327456	-0.197424	99
Es	-0.027198	1.514451	-0.719868	99
Es	0.234348	-1.252801	-1.331453	99
Es	1.112429	1.143510	-0.249792	99
Es	2.002894	0.925322	0.149246	99
Es	0.091232	1.457214	0.492684	99
Es	-1.041254	-0.316575	-0.215996	99
42
Properties=species:S:1:pos:R:3:Z:I:1 energy=-287.2922583064605 field_type=dipole dipole="0.000000 0.000000 0.000000" charge=0
C	-1.796992	-0.319050	-0.247007	6
C	-0.270242	-0.327390	-0.197277	6
C	0.214118	-1.161640	0.990103	6
O	0.206018	-0.954710	-1.394937	8
C	0.277838	1.120550	-0.161737	6
N	1.736208	1.148930	-0.359697	7
H	-2.156042	0.220560	-1.131057	1
H	-2.226692	0.150100	0.644383	1
H	-2.191822	-1.338390	-0.328477	1
H	-0.080902	-0.712000	1.944093	1
H	1.303158	-1.281100	0.981363	1
H	-0.199222	-2.176280	0.944843	1
H	1.096268	-0.568270	-1.538117	1
H	0.017548	1.617500	0.779463	1
H	-0.166212	1.697570	-0.981017	1
H	2.196758	0.761370	0.464213	1
H	2.040208	2.122250	-0.409137	1
Es	1.908975	1.737963	-0.377127	99
Es	1.736054	1.149172	-0.359261	99
Es	0.027940	-0.852527	-1.622436	99
Es	0.011321	-0.846965	1.641651	99
Es	0.236949	-1.251765	-1.330602	99
Es	-0.072219	-1.844155	0.958681	99
Es	0.960381	-1.228868	0.983666	99
Es	-1.041270	-0.316716	-0.215997	99
Es	-2.036445	0.056357	-0.843523	99
Es	2.003041	0.925221	0.149178	99
Es	1.827642	0.961051	-0.655706	99
Es	-1.796981	-0.319040	-0.246988	99
Es	-2.058905	-1.011323	-0.293593	99
Es	-0.270177	-0.327457	-0.197418	99
Es	0.277998	1.120537	-0.161744	99
Es	-2.081479	0.003462	0.366013	99
Es	0.039453	-0.705969	-0.937259	99
Es	0.206204	-0.954501	-1.394716	99
Es	0.012938	0.405421	-0.167409	99
Es	0.091163	1.457269	0.492619	99
Es	-0.020620	-0.739065	0.417467	99
Es	-0.027198	1.514360	-0.719918	99
Es	0.673779	-0.750325	-1.458674	99
Es	0.214127	-1.161623	0.990118	99
Es	1.112433	1.143654	-0.249610	99
42
Properties=species:S:1:pos:R:3:Z:I:1 energy=-287.2922583064605 field_type=dipole dipole="0.000000 0.000000 0.000000" charge=0
C	-1.796992	-0.319050	-0.247007	6
C	-0.270242	-0.327390	-0.197277	6
C	0.214118	-1.161640	0.990103	6
O	0.206018	-0.954710	-1.394937	8
C	0.277838	1.120550	-0.161737	6
N	1.736208	1.148930	-0.359697	7
H	-2.156042	0.220560	-1.131057	1
H	-2.226692	0.150100	0.644383	1
H	-2.191822	-1.338390	-0.328477	1
H	-0.080902	-0.712000	1.944093	1
H	1.303158	-1.281100	0.981363	1
H	-0.199222	-2.176280	0.944843	1
H	1.096268	-0.568270	-1.538117	1
H	0.017548	1.617500	0.779463	1
H	-0.166212	1.697570	-0.981017	1
H	2.196758	0.761370	0.464213	1
H	2.040208	2.122250	-0.409137	1
Es	-0.270172	-0.327456	-0.197426	99
Es	0.038908	-0.705288	-0.937786	99
Es	0.277997	1.120538	-0.161744	99
Es	1.112200	1.143251	-0.249751	99
Es	-1.796981	-0.319039	-0.246988	99
Es	0.960355	-1.228826	0.983614	99
Es	-2.081512	0.003465	0.366052	99
Es	1.908817	1.738006	-0.376846	99
Es	-2.036439	0.056331	-0.843530	99
Es	0.011372	-0.846896	1.641637	99
Es	-2.058906	-1.011248	-0.293613	99
Es	2.003056	0.925342	0.148955	99
Es	-0.020707	-0.739153	0.417445	99
Es	-0.072221	-1.844213	0.958740	99
Es	0.214127	-1.161624	0.990120	99
Es	0.673885	-0.750449	-1.458601	99
Es	0.091227	1.457206	0.492628	99
Es	0.012842	0.405419	-0.167432	99
Es	-1.041195	-0.316772	-0.215994	99
Es	1.828028	0.961258	-0.655677	99
Es	0.237876	-1.250484	-1.328976	99
Es	1.736054	1.149177	-0.359254	99
Es	-0.027169	1.514476	-0.719789	99
Es	0.027511	-0.854327	-1.623570	99
Es	0.206152	-0.954531	-1.394802	99
42
Properties=species:S:1:pos:R:3:Z:I:1 energy=-287.2922583064605 field_type=dipole dipole="0.000000 0.000000 0.000000" charge=0
C	-1.796992	-0.319050	-0.247007	6
C	-0.270242	-0.327390	-0.197277	6
C	0.214118	-1.161640	0.990103	6
O	0.206018	-0.954710	-1.394937	8
C	0.277838	1.120550	-0.161737	6
N	1.736208	1.148930	-0.359697	7
H	-2.156042	0.220560	-1.131057	1
H	-2.226692	0.150100	0.644383	1
H	-2.191822	-1.338390	-0.328477	1
H	-0.080902	-0.712000	1.944093	1
H	1.303158	-1.281100	0.981363	1
H	-0.199222	-2.176280	0.944843	1
H	1.096268	-0.568270	-1.538117	1
H	0.017548	1.617500	0.779463	1
H	-0.166212	1.697570	-0.981017	1
H	2.196758	0.761370	0.464213	1
H	2.040208	2.122250	-0.409137	1
Es	-0.020719	-0.739163	0.417389	99
Es	0.277996	1.120537	-0.161744	99
Es	0.091181	1.457226	0.492564	99
Es	1.112236	1.143305	-0.249852	99
Es	-1.796981	-0.319039	-0.246988	99
Es	1.736051	1.149175	-0.359255	99
Es	-0.270172	-0.327457	-0.197427	99
Es	0.674385	-0.751327	-1.458004	99
Es	0.029488	-0.850768	-1.621704	99
Es	0.206253	-0.954552	-1.394653	99
Es	0.960363	-1.228922	0.983661	99
Es	-2.058894	-1.011320	-0.293631	99
Es	-2.036466	0.056350	-0.843478	99
Es	0.235106	-1.252406	-1.332296	99
Es	2.003090	0.925319	0.149098	99
Es	0.214127	-1.161624	0.990120	99
Es	-0.072241	-1.844128	0.958737	99
Es	1.908751	1.737888	-0.376834	99
Es	0.012900	0.405399	-0.167364	99
Es	0.039116	-0.706053	-0.937068	99
Es	-0.027173	1.514422	-0.719799	99
Es	-2.081530	0.003410	0.365978	99
Es	1.828092	0.961359	-0.655698	99
Es	-1.041185	-0.316589	-0.215991	99
Es	0.011330	-0.846878	1.641650	99
42
Properties=species:S:1:pos:R:3:Z:I:1 energy=-287.2922583064605 field_type=dipole dipole="0.000000 0.000000 0.000000" charge=0
C	-1.796992	-0.319050	-0.247007	6
C	-0.270242	-0.327390	-0.197277	6
C	0.214118	-1.161640	0.990103	6
O	0.206018	-0.954710	-1.394937	8
C	0.277838	1.120550	-0.161737	6
N	1.736208	1.148930	-0.359697	7
H	-2.156042	0.220560	-1.131057	1
H	-2.226692	0.150100	0.644383	1
H	-2.191822	-1.338390	-0.328477	1
H	-0.080902	-0.712000	1.944093	1
H	1.303158	-1.281100	0.981363	1
H	-0.199222	-2.176280	0.944843	1
H	1.096268	-0.568270	-1.538117	1
H	0.017548	1.617500	0.779463	1
H	-0.166212	1.697570	-0.981017	1
H	2.196758	0.761370	0.464213	1
H	2.040208	2.122250	-0.409137	1
Es	-2.081525	0.003394	0.365991	99
Es	1.908908	1.737947	-0.376519	99
Es	1.736064	1.149164	-0.359274	99
Es	-0.270171	-0.327457	-0.197420	99
Es	0.960366	-1.228833	0.983700	99
Es	1.112144	1.143308	-0.249708	99
Es	-0.072196	-1.844192	0.958799	99
Es	0.012736	0.405419	-0.167402	99
Es	0.277997	1.120538	-0.161744	99
Es	0.674016	-0.750541	-1.459040	99
Es	0.091191	1.457241	0.492520	99
Es	-2.036468	0.056369	-0.843441	99
Es	-1.041137	-0.316651	-0.216005	99
Es	0.011341	-0.846912	1.641571	99
Es	-2.058891	-1.011343	-0.293662	99
Es	2.003386	0.924669	0.148615	99
Es	0.214126	-1.161624	0.990120	99
Es	0.039344	-0.706370	-0.936670	99
Es	0.235836	-1.252335	-1.332239	99
Es	-0.027193	1.514406	-0.719789	99
Es	0.206128	-0.954576	-1.394830	99
Es	-1.796981	-0.319039	-0.246989	99
Es	-0.020709	-0.739100	0.417441	99
Es	1.827736	0.961975	-0.655660	99
Es	0.029056	-0.851292	-1.620954	99
42
Properties=species:S:1:pos:R:3:Z:I:1 energy=-287.2922583064605 field_type=dipole dipole="0.000000 0.000000 0.000000" charge=0
C	-1.796992	-0.319050	-0.247007	6
C	-0.270242	-0.327390	-0.197277	6
C	0.214118	-1.161640	0.990103	6
O	0.206018	-0.954710	-1.394937	8
C	0.277838	1.120550	-0.161737	6
N	1.736208	1.148930	-0.359697	7
H	-2.156042	0.220560	-1.131057	1
H	-2.226692	0.150100	0.644383	1
H	-2.191822	-1.338390	-0.328477	1
H	-0.080902	-0.712000	1.944093	1
H	1.303158	-1.281100	0.981363	1
H	-0.199222	-2.176280	0.944843	1
H	1.096268	-0.568270	-1.538117	1
H	0.017548	1.617500	0.779463	1
H	-0.166212	1.697570	-0.981017	1
H	2.196758	0.761370	0.464213	1
H	2.040208	2.122250	-0.409137	1
Es	0.011319	-0.846928	1.641652	99
Es	-2.058900	-1.011298	-0.293518	99
Es	0.234567	-1.252666	-1.332789	99
Es	1.736058	1.149177	-0.359256	99
Es	0.029779	-0.850066	-1.621480	99
Es	-0.270174	-0.327458	-0.197424	99
Es	-1.041133	-0.316549	-0.216035	99
Es	0.674421	-0.751859	-1.457975	99
Es	2.003286	0.925026	0.148862	99
Es	1.908873	1.737880	-0.376804	99
Es	0.039429	-0.706126	-0.936727	99
Es	-0.027183	1.514422	-0.719743	99
Es	-2.036482	0.056250	-0.843537	99
Es	0.091183	1.457216	0.492502	99
Es	-0.072219	-1.844131	0.958712	99
Es	1.827867	0.961649	-0.655578	99
Es	1.112193	1.143321	-0.249767	99
Es	0.960354	-1.228911	0.983685	99
Es	-1.796981	-0.319038	-0.246988	99
Es	0.206195	-0.954471	-1.394733	99
Es	-2.081535	0.003494	0.365926	99
Es	0.012825	0.405375	-0.167418	99
Es	0.214127	-1.161624	0.990119	99
Es	0.277997	1.120537	-0.161744	99
Es	-0.020760	-0.739059	0.417470	99
