36
Properties=species:S:1:pos:R:3:Z:I:1 energy=-284.9531711994465 field_type=dipole dipole="0.000000 0.000000 0.000000" charge=0
C	-1.488567	0.028096	0.525697	6
C	0.037302	0.044816	0.469077	6
C	0.533692	-0.689164	-0.780623	6
O	1.930912	-0.963824	-0.697763	8
C	0.519322	1.405986	0.469077	6
N	0.903533	2.490976	0.469077	7
H	-1.855098	0.547576	1.419107	1
H	-1.866657	-0.999784	0.559117	1
H	-1.929898	0.522386	-0.348363	1
H	0.427102	-0.467754	1.357257	1
H	0.342112	-0.126304	-1.702223	1
H	0.031603	-1.658554	-0.873823	1
H	2.414642	-0.134454	-0.865613	1
Es	0.511139	2.076465	0.260817	99
Es	-1.727521	0.378906	1.129361	99
Es	1.992451	-1.147370	-0.931082	99
Es	1.930791	-0.963513	-0.697858	99
Es	0.392343	-0.290824	-1.401331	99
Es	0.282501	-0.284816	-0.141636	99
Es	1.403648	-0.829202	-0.731725	99
Es	0.519214	1.405659	0.469081	99
Es	-0.704935	0.059600	0.491394	99
Es	0.903385	2.490554	0.469073	99
Es	0.295035	0.768538	0.467818	99
Es	-1.776336	0.361295	-0.070427	99
Es	-1.488490	0.028096	0.525690	99
Es	1.982610	-1.040158	-0.405457	99
Es	0.037311	0.044976	0.469051	99
Es	2.168211	-0.507572	-0.788382	99
Es	0.672926	2.019140	0.769719	99
Es	0.183322	-1.343761	-0.831491	99
Es	1.026495	2.838700	0.467780	99
Es	0.533907	-0.689154	-0.780540	99
Es	-1.730792	-0.671897	0.546066	99
Es	0.302543	-0.278301	1.057929	99
Es	1.007319	1.900073	0.367086	99
36
Properties=species:S:1:pos:R:3:Z:I:1 energy=-284.9531711994465 field_type=dipole dipole="0.000000 0.000000 0.000000" charge=0
C	-1.488567	0.028096	0.525697	6
C	0.037302	0.044816	0.469077	6
C	0.533692	-0.689164	-0.780623	6
O	1.930912	-0.963824	-0.697763	8
C	0.519322	1.405986	0.469077	6
N	0.903533	2.490976	0.469077	7
H	-1.855098	0.547576	1.419107	1
H	-1.866657	-0.999784	0.559117	1
H	-1.929898	0.522386	-0.348363	1
H	0.427102	-0.467754	1.357257	1
H	0.342112	-0.126304	-1.702223	1
H	0.031603	-1.658554	-0.873823	1
H	2.414642	-0.134454	-0.865613	1
Es	1.403534	-0.829284	-0.731621	99
Es	0.519207	1.405660	0.469079	99
Es	0.037312	0.044976	0.469051	99
Es	-0.705057	0.059713	0.491503	99
Es	0.295216	0.768276	0.467564	99
Es	-1.488488	0.028096	0.525689	99
Es	1.026593	2.838342	0.467749	99
Es	0.183408	-1.343741	-0.831480	99
Es	1.991981	-1.144314	-0.932690	99
Es	2.167869	-0.507273	-0.786711	99
Es	1.983620	-1.043357	-0.405629	99
Es	0.282525	-0.285048	-0.141597	99
Es	1.930770	-0.963511	-0.697825	99
Es	0.302588	-0.278051	1.058002	99
Es	-1.727703	0.378910	1.129389	99
Es	0.533909	-0.689155	-0.780539	99
Es	0.513064	2.075924	0.258131	99
Es	0.903387	2.490558	0.469073	99
Es	0.669161	2.020599	0.768901	99
Es	-1.776244	0.361220	-0.070431	99
Es	1.008885	1.899606	0.370727	99
Es	-1.730728	-0.671873	0.545960	99
Es	0.392271	-0.290841	-1.401359	99
36
Properties=species:S:1:pos:R:3:Z:I:1 energy=-284.9531711994465 field_type=dipole dipole="0.000000 0.000000 0.000000" charge=0
C	-1.488567	0.028096	0.525697	6
C	0.037302	0.044816	0.469077	6
C	0.533692	-0.689164	-0.780623	6
O	1.930912	-0.963824	-0.697763	8
C	0.519322	1.405986	0.469077	6
N	0.903533	2.490976	0.469077	7
H	-1.855098	0.547576	1.419107	1
H	-1.866657	-0.999784	0.559117	1
H	-1.929898	0.522386	-0.348363	1
H	0.427102	-0.467754	1.357257	1
H	0.342112	-0.126304	-1.702223	1
H	0.031603	-1.658554	-0.873823	1
H	2.414642	-0.134454	-0.865613	1
Es	1.403220	-0.829207	-0.730711	99
Es	-1.730827	-0.671867	0.546028	99
Es	0.302647	-0.278192	1.057956	99
Es	1.930750	-0.963436	-0.697705	99
Es	0.473263	2.089104	0.611083	99
Es	1.026274	2.838269	0.467519	99
Es	0.295291	0.768193	0.467577	99
Es	0.903383	2.490558	0.469070	99
Es	-1.727588	0.378876	1.129316	99
Es	-0.704929	0.059649	0.491451	99
Es	1.983465	-1.042122	-0.406858	99
Es	-1.488492	0.028096	0.525690	99
Es	0.519208	1.405663	0.469085	99
Es	0.533909	-0.689154	-0.780540	99
Es	0.977341	1.914319	0.630109	99
Es	1.991934	-1.145687	-0.931956	99
Es	0.183391	-1.343709	-0.831488	99
Es	2.168461	-0.507296	-0.787231	99
Es	0.740712	1.992904	0.156833	99
Es	0.282409	-0.284868	-0.141647	99
Es	0.392274	-0.290916	-1.401331	99
Es	0.037311	0.044978	0.469049	99
Es	-1.776331	0.361280	-0.070366	99
36
Properties=species:S:1:pos:R:3:Z:I:1 energy=-284.9531711994465 field_type=dipole dipole="0.000000 0.000000 0.000000" charge=0
C	-1.488567	0.028096	0.525697	6
C	0.037302	0.044816	0.469077	6
C	0.533692	-0.689164	-0.780623	6
O	1.930912	-0.963824	-0.697763	8
C	0.519322	1.405986	0.469077	6
N	0.903533	2.490976	0.469077	7
H	-1.855098	0.547576	1.419107	1
H	-1.866657	-0.999784	0.559117	1
H	-1.929898	0.522386	-0.348363	1
H	0.427102	-0.467754	1.357257	1
H	0.342112	-0.126304	-1.702223	1
H	0.031603	-1.658554	-0.873823	1
H	2.414642	-0.134454	-0.865613	1
Es	1.993061	-1.146387	-0.930989	99
Es	0.533910	-0.689155	-0.780539	99
Es	1.026659	2.837849	0.468179	99
Es	0.600047	2.044461	0.743736	99
Es	1.023187	1.895745	0.445250	99
Es	0.903387	2.490560	0.469073	99
Es	0.392279	-0.290981	-1.401276	99
Es	0.519204	1.405659	0.469078	99
Es	-1.776341	0.361306	-0.070300	99
Es	0.282586	-0.284674	-0.141782	99
Es	2.168392	-0.507283	-0.787195	99
Es	-1.488491	0.028096	0.525690	99
Es	0.302773	-0.278114	1.057938	99
Es	-0.705184	0.059856	0.491519	99
Es	0.295204	0.767949	0.467768	99
Es	0.567754	2.056468	0.208312	99
Es	0.037311	0.044975	0.469049	99
Es	1.930776	-0.963499	-0.697833	99
Es	-1.730821	-0.671944	0.545996	99
Es	1.982465	-1.040946	-0.406267	99
Es	0.183362	-1.343678	-0.831522	99
Es	1.403155	-0.829656	-0.732224	99
Es	-1.727599	0.378825	1.129273	99
36
Properties=species:S:1:pos:R:3:Z:I:1 energy=-284.9531711994465 field_type=dipole dipole="0.000000 0.000000 0.000000" charge=0
C	-1.488567	0.028096	0.525697	6
C	0.037302	0.044816	0.469077	6
C	0.533692	-0.689164	-0.780623	6
O	1.930912	-0.963824	-0.697763	8
C	0.519322	1.405986	0.469077	6
N	0.903533	2.490976	0.469077	7
H	-1.855098	0.547576	1.419107	1
H	-1.866657	-0.999784	0.559117	1
H	-1.929898	0.522386	-0.348363	1
H	0.427102	-0.467754	1.357257	1
H	0.342112	-0.126304	-1.702223	1
H	0.031603	-1.658554	-0.873823	1
H	2.414642	-0.134454	-0.865613	1
Es	1.026472	2.837831	0.467958	99
Es	-1.727632	0.378828	1.129274	99
Es	0.302837	-0.278127	1.057950	99
Es	0.037313	0.044976	0.469050	99
Es	1.403231	-0.829005	-0.729835	99
Es	1.990474	-1.141140	-0.934510	99
Es	0.903388	2.490563	0.469074	99
Es	1.930740	-0.963473	-0.697867	99
Es	0.519208	1.405660	0.469087	99
Es	0.392228	-0.290950	-1.401236	99
Es	0.545740	2.064324	0.224665	99
Es	-1.488491	0.028096	0.525690	99
Es	2.167950	-0.507085	-0.785343	99
Es	1.019964	1.896611	0.417418	99
Es	0.533909	-0.689156	-0.780541	99
Es	-0.705183	0.059809	0.491488	99
Es	0.625581	2.035728	0.755560	99
Es	-1.776373	0.361251	-0.070320	99
Es	0.183430	-1.343669	-0.831596	99
Es	1.985506	-1.047007	-0.406968	99
Es	0.282554	-0.284686	-0.141740	99
Es	0.295071	0.767871	0.467651	99
Es	-1.730841	-0.671817	0.546027	99
36
Properties=species:S:1:pos:R:3:Z:I:1 energy=-284.9531711994465 field_type=dipole dipole="0.000000 0.000000 0.000000" charge=0
C	-1.488567	0.028096	0.525697	6
C	0.037302	0.044816	0.469077	6
C	0.533692	-0.689164	-0.780623	6
O	1.930912	-0.963824	-0.697763	8
C	0.519322	1.405986	0.469077	6
N	0.903533	2.490976	0.469077	7
H	-1.855098	0.547576	1.419107	1
H	-1.866657	-0.999784	0.559117	1
H	-1.929898	0.522386	-0.348363	1
H	0.427102	-0.467754	1.357257	1
H	0.342112	-0.126304	-1.702223	1
H	0.031603	-1.658554	-0.873823	1
H	2.414642	-0.134454	-0.865613	1
Es	-1.776405	0.361243	-0.070253	99
Es	-1.488489	0.028095	0.525690	99
Es	1.984070	-1.045298	-0.407108	99
Es	1.930793	-0.963476	-0.697775	99
Es	0.295024	0.767701	0.467724	99
Es	2.169393	-0.507420	-0.786354	99
Es	1.990124	-1.143256	-0.933053	99
Es	0.302830	-0.277969	1.057972	99
Es	1.026327	2.837370	0.467824	99
Es	0.392235	-0.290974	-1.401230	99
Es	0.183399	-1.343634	-0.831583	99
Es	0.282727	-0.284685	-0.141762	99
Es	1.403545	-0.828298	-0.730225	99
Es	0.903386	2.490558	0.469074	99
Es	0.037310	0.044975	0.469050	99
Es	0.991210	1.905481	0.323605	99
Es	-0.705211	0.059813	0.491429	99
Es	0.533904	-0.689155	-0.780543	99
Es	0.483790	2.086914	0.298236	99
Es	-1.727609	0.378825	1.129204	99
Es	0.716415	2.004789	0.775883	99
Es	-1.730900	-0.671828	0.546061	99
Es	0.519210	1.405663	0.469071	99
36
Properties=species:S:1:pos:R:3:Z:I:1 energy=-284.9531711994465 field_type=dipole dipole="0.000000 0.000000 0.000000" charge=0
C	-1.488567	0.028096	0.525697	6
C	0.037302	0.044816	0.469077	6
C	0.533692	-0.689164	-0.780623	6
O	1.930912	-0.963824	-0.697763	8
C	0.519322	1.405986	0.469077	6
N	0.903533	2.490976	0.469077	7
H	-1.855098	0.547576	1.419107	1
H	-1.866657	-0.999784	0.559117	1
H	-1.929898	0.522386	-0.348363	1
H	0.427102	-0.467754	1.357257	1
H	0.342112	-0.126304	-1.702223	1
H	0.031603	-1.658554	-0.873823	1
H	2.414642	-0.134454	-0.865613	1
Es	1.025877	2.837251	0.467774	99
Es	0.903388	2.490565	0.469072	99
Es	0.302906	-0.277917	1.057976	99
Es	0.295166	0.767443	0.467725	99
Es	0.183352	-1.343578	-0.831641	99
Es	0.037310	0.044974	0.469051	99
Es	1.930786	-0.963511	-0.697806	99
Es	1.984586	-1.043952	-0.407425	99
Es	1.991186	-1.143566	-0.932226	99
Es	0.713165	2.003392	0.156075	99
Es	-1.776419	0.361261	-0.070272	99
Es	-1.727657	0.378759	1.129250	99
Es	1.402637	-0.829511	-0.730122	99
Es	0.519219	1.405646	0.469077	99
Es	-1.488492	0.028097	0.525692	99
Es	-1.730857	-0.671769	0.546001	99
Es	0.991963	1.909356	0.604977	99
Es	2.168712	-0.507311	-0.786896	99
Es	0.392335	-0.291031	-1.401221	99
Es	0.282666	-0.284618	-0.141824	99
Es	0.533905	-0.689154	-0.780543	99
Es	0.486612	2.084635	0.636689	99
Es	-0.705267	0.059971	0.491552	99
36
Properties=species:S:1:pos:R:3:Z:I:1 energy=-284.9531711994465 field_type=dipole dipole="0.000000 0.000000 0.000000" charge=0
C	-1.488567	0.028096	0.525697	6
C	0.037302	0.044816	0.469077	6
C	0.533692	-0.689164	-0.780623	6
O	1.930912	-0.963824	-0.697763	8
C	0.519322	1.405986	0.469077	6
N	0.903533	2.490976	0.469077	7
H	-1.855098	0.547576	1.419107	1
H	-1.866657	-0.999784	0.559117	1
H	-1.929898	0.522386	-0.348363	1
H	0.427102	-0.467754	1.357257	1
H	0.342112	-0.126304	-1.702223	1
H	0.031603	-1.658554	-0.873823	1
H	2.414642	-0.134454	-0.865613	1
Es	0.183407	-1.343614	-0.831642	99
Es	0.282692	-0.284650	-0.141864	99
Es	1.991284	-1.142276	-0.932718	99
Es	-1.488491	0.028096	0.525690	99
Es	-0.705314	0.059935	0.491677	99
Es	0.302981	-0.277815	1.057911	99
Es	0.037311	0.044976	0.469050	99
Es	-1.776362	0.361161	-0.070256	99
Es	0.392259	-0.291051	-1.401190	99
Es	0.533906	-0.689155	-0.780542	99
Es	1.402827	-0.829183	-0.731111	99
Es	1.026183	2.836920	0.467853	99
Es	0.903390	2.490569	0.469072	99
Es	0.691443	2.013490	0.773982	99
Es	1.002255	1.902093	0.347340	99
Es	2.169005	-0.507137	-0.785396	99
Es	1.984098	-1.045695	-0.407525	99
Es	-1.730858	-0.671732	0.545976	99
Es	0.519230	1.405658	0.469075	99
Es	0.294994	0.767450	0.467694	99
Es	-1.727786	0.378802	1.129222	99
Es	0.497876	2.082042	0.276386	99
Es	1.930748	-0.963450	-0.697749	99
36
Properties=species:S:1:pos:R:3:Z:I:1 energy=-284.9531711994465 field_type=dipole dipole="0.000000 0.000000 0.000000" charge=0
C	-1.488567	0.028096	0.525697	6
C	0.037302	0.044816	0.469077	6
C	0.533692	-0.689164	-0.780623	6
O	1.930912	-0.963824	-0.697763	8
C	0.519322	1.405986	0.469077	6
N	0.903533	2.490976	0.469077	7
H	-1.855098	0.547576	1.419107	1
H	-1.866657	-0.999784	0.559117	1
H	-1.929898	0.522386	-0.348363	1
H	0.427102	-0.467754	1.357257	1
H	0.342112	-0.126304	-1.702223	1
H	0.031603	-1.658554	-0.873823	1
H	2.414642	-0.134454	-0.865613	1
Es	-1.727762	0.378821	1.129371	99
Es	0.903388	2.490564	0.469073	99
Es	0.533905	-0.689155	-0.780542	99
Es	0.504745	2.078356	0.663761	99
Es	-1.730795	-0.671737	0.545901	99
Es	0.183426	-1.343526	-0.831598	99
Es	-1.488496	0.028097	0.525691	99
Es	1.930775	-0.963530	-0.697830	99
Es	0.282819	-0.284587	-0.141902	99
Es	1.025993	2.836789	0.467775	99
Es	0.037311	0.044974	0.469051	99
Es	2.169144	-0.507279	-0.786335	99
Es	1.402353	-0.829529	-0.730739	99
Es	1.984198	-1.044215	-0.407883	99
Es	0.302931	-0.277831	1.058063	99
Es	0.295087	0.767131	0.467700	99
Es	0.519209	1.405667	0.469076	99
Es	1.004562	1.904747	0.574991	99
Es	-0.705396	0.060131	0.491342	99
Es	0.392215	-0.291097	-1.401229	99
Es	1.991534	-1.143234	-0.931718	99
Es	0.682339	2.014755	0.159078	99
Es	-1.776407	0.361122	-0.070160	99
36
Properties=species:S:1:pos:R:3:Z:I:1 energy=-284.9531711994465 field_type=dipole dipole="0.000000 0.000000 0.000000" charge=0
C	-1.488567	0.028096	0.525697	6
C	0.037302	0.044816	0.469077	6
C	0.533692	-0.689164	-0.780623	6
O	1.930912	-0.963824	-0.697763	8
C	0.519322	1.405986	0.469077	6
N	0.903533	2.490976	0.469077	7
H	-1.855098	0.547576	1.419107	1
H	-1.866657	-0.999784	0.559117	1
H	-1.929898	0.522386	-0.348363	1
H	0.427102	-0.467754	1.357257	1
H	0.342112	-0.126304	-1.702223	1
H	0.031603	-1.658554	-0.873823	1
H	2.414642	-0.134454	-0.865613	1
Es	1.992442	-1.145559	-0.929936	99
Es	0.392252	-0.291138	-1.401175	99
Es	1.402344	-0.829814	-0.731568	99
Es	0.519218	1.405645	0.469067	99
Es	0.303041	-0.277664	1.057996	99
Es	0.903385	2.490555	0.469074	99
Es	1.983131	-1.041510	-0.407539	99
Es	0.533904	-0.689155	-0.780541	99
Es	-1.727802	0.378849	1.129199	99
Es	2.169339	-0.507457	-0.787570	99
Es	1.026171	2.836460	0.467613	99
Es	-1.488493	0.028097	0.525690	99
Es	0.282887	-0.284547	-0.141974	99
Es	0.037310	0.044974	0.469049	99
Es	1.930764	-0.963506	-0.697911	99
Es	0.640098	2.031354	0.762318	99
Es	1.018215	1.897404	0.400742	99
Es	-0.705418	0.060052	0.491619	99
Es	0.294857	0.767147	0.467724	99
Es	-1.776412	0.361057	-0.070272	99
Es	-1.730876	-0.671619	0.546059	99
Es	0.533383	2.069325	0.234873	99
Es	0.183340	-1.343515	-0.831603	99
36
Properties=species:S:1:pos:R:3:Z:I:1 energy=-284.9531711994465 field_type=dipole dipole="0.000000 0.000000 0.000000" charge=0
C	-1.488567	0.028096	0.525697	6
C	0.037302	0.044816	0.469077	6
C	0.533692	-0.689164	-0.780623	6
O	1.930912	-0.963824	-0.697763	8
C	0.519322	1.405986	0.469077	6
N	0.903533	2.490976	0.469077	7
H	-1.855098	0.547576	1.419107	1
H	-1.866657	-0.999784	0.559117	1
H	-1.929898	0.522386	-0.348363	1
H	0.427102	-0.467754	1.357257	1
H	0.342112	-0.126304	-1.702223	1
H	0.031603	-1.658554	-0.873823	1
H	2.414642	-0.134454	-0.865613	1
Es	-1.727733	0.378721	1.129172	99
Es	0.037312	0.044969	0.469059	99
Es	1.006614	1.900968	0.357326	99
Es	-1.776445	0.361209	-0.070139	99
Es	2.169005	-0.506917	-0.785187	99
Es	0.503881	2.080119	0.267609	99
Es	1.402155	-0.829766	-0.730081	99
Es	-0.705400	0.060159	0.491596	99
Es	0.282898	-0.284572	-0.142013	99
Es	0.903388	2.490560	0.469072	99
Es	1.025914	2.836329	0.467894	99
Es	0.533902	-0.689156	-0.780544	99
Es	0.681373	2.017175	0.772801	99
Es	0.519200	1.405666	0.469083	99
Es	-1.488497	0.028093	0.525690	99
Es	1.991559	-1.142407	-0.932569	99
Es	0.183357	-1.343516	-0.831651	99
Es	0.392222	-0.291126	-1.401118	99
Es	0.294932	0.766978	0.467654	99
Es	1.930776	-0.963505	-0.697780	99
Es	-1.730944	-0.671683	0.545970	99
Es	1.984562	-1.045211	-0.408932	99
Es	0.303047	-0.277653	1.058023	99
36
Properties=species:S:1:pos:R:3:Z:I:1 energy=-284.9531711994465 field_type=dipole dipole="0.000000 0.000000 0.000000" charge=0
C	-1.488567	0.028096	0.525697	6
C	0.037302	0.044816	0.469077	6
C	0.533692	-0.689164	-0.780623	6
O	1.930912	-0.963824	-0.697763	8
C	0.519322	1.405986	0.469077	6
N	0.903533	2.490976	0.469077	7
H	-1.855098	0.547576	1.419107	1
H	-1.866657	-0.999784	0.559117	1
H	-1.929898	0.522386	-0.348363	1
H	0.427102	-0.467754	1.357257	1
H	0.342112	-0.126304	-1.702223	1
H	0.031603	-1.658554	-0.873823	1
H	2.414642	-0.134454	-0.865613	1
Es	0.533899	-0.689156	-0.780544	99
Es	0.519204	1.405650	0.469078	99
Es	0.282986	-0.284537	-0.141999	99
Es	0.303080	-0.277567	1.058033	99
Es	-0.705454	0.060073	0.491569	99
Es	0.037310	0.044971	0.469053	99
Es	-1.776405	0.361133	-0.070147	99
Es	1.402142	-0.829203	-0.729577	99
Es	0.903391	2.490572	0.469073	99
Es	1.026006	2.835986	0.467962	99
Es	0.491919	2.084588	0.283692	99
Es	2.169638	-0.507335	-0.786054	99
Es	-1.488491	0.028096	0.525690	99
Es	0.183385	-1.343504	-0.831759	99
Es	0.392261	-0.291123	-1.401074	99
Es	1.990751	-1.142601	-0.932020	99
Es	1.930761	-0.963518	-0.697931	99
Es	0.294792	0.766876	0.467786	99
Es	1.984775	-1.045132	-0.408940	99
Es	-1.730986	-0.671661	0.546005	99
Es	0.999325	1.903315	0.338342	99
Es	-1.727772	0.378797	1.129136	99
Es	0.700561	2.010714	0.775560	99
36
Properties=species:S:1:pos:R:3:Z:I:1 energy=-284.9531711994465 field_type=dipole dipole="0.000000 0.000000 0.000000" charge=0
C	-1.488567	0.028096	0.525697	6
C	0.037302	0.044816	0.469077	6
C	0.533692	-0.689164	-0.780623	6
O	1.930912	-0.963824	-0.697763	8
C	0.519322	1.405986	0.469077	6
N	0.903533	2.490976	0.469077	7
H	-1.855098	0.547576	1.419107	1
H	-1.866657	-0.999784	0.559117	1
H	-1.929898	0.522386	-0.348363	1
H	0.427102	-0.467754	1.357257	1
H	0.342112	-0.126304	-1.702223	1
H	0.031603	-1.658554	-0.873823	1
H	2.414642	-0.134454	-0.865613	1
Es	0.533901	-0.689156	-0.780544	99
Es	0.294958	0.766751	0.467734	99
Es	1.930797	-0.963553	-0.697820	99
Es	0.183419	-1.343413	-0.831760	99
Es	-0.705503	0.060147	0.491559	99
Es	0.282943	-0.284546	-0.141990	99
Es	0.670059	2.019604	0.160953	99
Es	2.169614	-0.507330	-0.787135	99
Es	0.037307	0.044973	0.469051	99
Es	1.984105	-1.043365	-0.408278	99
Es	0.903386	2.490558	0.469073	99
Es	1.025676	2.836017	0.467879	99
Es	0.519206	1.405658	0.469080	99
Es	-1.488492	0.028096	0.525689	99
Es	-1.730952	-0.671615	0.546075	99
Es	1.991475	-1.143785	-0.930639	99
Es	0.392201	-0.291160	-1.401081	99
Es	-1.727754	0.378830	1.129152	99
Es	-1.776483	0.361057	-0.070148	99
Es	0.303127	-0.277572	1.057962	99
Es	0.512338	2.075915	0.674253	99
Es	1.402125	-0.829790	-0.730683	99
Es	1.009626	1.903114	0.562552	99
36
Properties=species:S:1:pos:R:3:Z:I:1 energy=-284.9531711994465 field_type=dipole dipole="0.000000 0.000000 0.000000" charge=0
C	-1.488567	0.028096	0.525697	6
C	0.037302	0.044816	0.469077	6
C	0.533692	-0.689164	-0.780623	6
O	1.930912	-0.963824	-0.697763	8
C	0.519322	1.405986	0.469077	6
N	0.903533	2.490976	0.469077	7
H	-1.855098	0.547576	1.419107	1
H	-1.866657	-0.999784	0.559117	1
H	-1.929898	0.522386	-0.348363	1
H	0.427102	-0.467754	1.357257	1
H	0.342112	-0.126304	-1.702223	1
H	0.031603	-1.658554	-0.873823	1
H	2.414642	-0.134454	-0.865613	1
Es	1.930811	-0.963558	-0.697823	99
Es	1.992246	-1.144287	-0.930186	99
Es	0.765207	1.985144	0.156921	99
Es	0.533899	-0.689157	-0.780545	99
Es	0.461516	2.094330	0.589277	99
Es	0.519208	1.405660	0.469079	99
Es	1.025601	2.835721	0.467833	99
Es	0.294900	0.766512	0.467779	99
Es	0.303173	-0.277516	1.058018	99
Es	1.401797	-0.829837	-0.731256	99
Es	0.392183	-0.291192	-1.401044	99
Es	-1.488493	0.028096	0.525689	99
Es	0.965374	1.919558	0.651533	99
Es	-1.730919	-0.671601	0.546068	99
Es	-1.727775	0.378752	1.129127	99
Es	0.903387	2.490558	0.469073	99
Es	0.183406	-1.343423	-0.831750	99
Es	-0.705570	0.060197	0.491544	99
Es	2.169626	-0.507523	-0.786855	99
Es	-1.776519	0.361089	-0.070165	99
Es	0.283051	-0.284457	-0.141964	99
Es	0.037311	0.044970	0.469046	99
Es	1.983661	-1.042602	-0.408464	99
36
Properties=species:S:1:pos:R:3:Z:I:1 energy=-284.9531711994465 field_type=dipole dipole="0.000000 0.000000 0.000000" charge=0
C	-1.488567	0.028096	0.525697	6
C	0.037302	0.044816	0.469077	6
C	0.533692	-0.689164	-0.780623	6
O	1.930912	-0.963824	-0.697763	8
C	0.519322	1.405986	0.469077	6
N	0.903533	2.490976	0.469077	7
H	-1.855098	0.547576	1.419107	1
H	-1.866657	-0.999784	0.559117	1
H	-1.929898	0.522386	-0.348363	1
H	0.427102	-0.467754	1.357257	1
H	0.342112	-0.126304	-1.702223	1
H	0.031603	-1.658554	-0.873823	1
H	2.414642	-0.134454	-0.865613	1
Es	-0.705637	0.060300	0.491528	99
Es	-1.727794	0.378779	1.129117	99
Es	1.402011	-0.829688	-0.733111	99
Es	0.519207	1.405666	0.469086	99
Es	2.170068	-0.507905	-0.787624	99
Es	1.993684	-1.147206	-0.928116	99
Es	0.183395	-1.343403	-0.831713	99
Es	0.392164	-0.291278	-1.401048	99
Es	0.294871	0.766507	0.467680	99
Es	1.022703	1.896555	0.421428	99
Es	0.037309	0.044971	0.469050	99
Es	1.930750	-0.963508	-0.697919	99
Es	-1.730976	-0.671627	0.546021	99
Es	-1.776474	0.361074	-0.070073	99
Es	0.533906	-0.689155	-0.780541	99
Es	-1.488493	0.028097	0.525689	99
Es	0.621373	2.038079	0.755558	99
Es	0.303178	-0.277419	1.058051	99
Es	0.903389	2.490571	0.469073	99
Es	0.283131	-0.284429	-0.142039	99
Es	0.547888	2.064502	0.220621	99
Es	1.025781	2.835459	0.468054	99
Es	1.981647	-1.039507	-0.407838	99
36
Properties=species:S:1:pos:R:3:Z:I:1 energy=-284.9531711994465 field_type=dipole dipole="0.000000 0.000000 0.000000" charge=0
C	-1.488567	0.028096	0.525697	6
C	0.037302	0.044816	0.469077	6
C	0.533692	-0.689164	-0.780623	6
O	1.930912	-0.963824	-0.697763	8
C	0.519322	1.405986	0.469077	6
N	0.903533	2.490976	0.469077	7
H	-1.855098	0.547576	1.419107	1
H	-1.866657	-0.999784	0.559117	1
H	-1.929898	0.522386	-0.348363	1
H	0.427102	-0.467754	1.357257	1
H	0.342112	-0.126304	-1.702223	1
H	0.031603	-1.658554	-0.873823	1
H	2.414642	-0.134454	-0.865613	1
Es	0.925685	1.933828	0.697272	99
Es	0.392205	-0.291253	-1.400982	99
Es	0.443810	2.101208	0.530480	99
Es	0.303264	-0.277469	1.058019	99
Es	0.037306	0.044964	0.469050	99
Es	1.993088	-1.145517	-0.929139	99
Es	1.401672	-0.830014	-0.732044	99
Es	0.294792	0.766255	0.467848	99
Es	-1.776492	0.361031	-0.070098	99
Es	2.169999	-0.507532	-0.786852	99
Es	0.903387	2.490559	0.469073	99
Es	-1.488495	0.028096	0.525690	99
Es	0.283108	-0.284306	-0.142041	99
Es	1.025626	2.835204	0.467644	99
Es	-1.727823	0.378785	1.129047	99
Es	1.930767	-0.963521	-0.697790	99
Es	0.533899	-0.689156	-0.780544	99
Es	0.822627	1.964577	0.170134	99
Es	0.183368	-1.343383	-0.831799	99
Es	0.519205	1.405659	0.469090	99
Es	-1.731004	-0.671565	0.546078	99
Es	1.982658	-1.041253	-0.408768	99
Es	-0.705574	0.060236	0.491568	99
36
Properties=species:S:1:pos:R:3:Z:I:1 energy=-284.9531711994465 field_type=dipole dipole="0.000000 0.000000 0.000000" charge=0
C	-1.488567	0.028096	0.525697	6
C	0.037302	0.044816	0.469077	6
C	0.533692	-0.689164	-0.780623	6
O	1.930912	-0.963824	-0.697763	8
C	0.519322	1.405986	0.469077	6
N	0.903533	2.490976	0.469077	7
H	-1.855098	0.547576	1.419107	1
H	-1.866657	-0.999784	0.559117	1
H	-1.929898	0.522386	-0.348363	1
H	0.427102	-0.467754	1.357257	1
H	0.342112	-0.126304	-1.702223	1
H	0.031603	-1.658554	-0.873823	1
H	2.414642	-0.134454	-0.865613	1
Es	0.454611	2.098322	0.358925	99
Es	-1.488493	0.028098	0.525690	99
Es	1.025685	2.834933	0.467851	99
Es	1.991805	-1.143463	-0.930269	99
Es	0.283178	-0.284309	-0.142139	99
Es	-1.730988	-0.671582	0.546084	99
Es	0.303311	-0.277307	1.058015	99
Es	0.037310	0.044973	0.469050	99
Es	0.780276	1.983920	0.772807	99
Es	-0.705729	0.060309	0.491556	99
Es	0.519205	1.405657	0.469079	99
Es	0.903387	2.490558	0.469073	99
Es	2.170091	-0.507412	-0.786425	99
Es	-1.727787	0.378808	1.129091	99
Es	1.401564	-0.829858	-0.730757	99
Es	0.533898	-0.689156	-0.780545	99
Es	0.183401	-1.343346	-0.831640	99
Es	0.957286	1.917539	0.265913	99
Es	0.392137	-0.291365	-1.401085	99
Es	-1.776522	0.361005	-0.070059	99
Es	1.983974	-1.043576	-0.409314	99
Es	1.930780	-0.963519	-0.697812	99
Es	0.294698	0.766203	0.467845	99
36
Properties=species:S:1:pos:R:3:Z:I:1 energy=-284.9531711994465 field_type=dipole dipole="0.000000 0.000000 0.000000" charge=0
C	-1.488567	0.028096	0.525697	6
C	0.037302	0.044816	0.469077	6
C	0.533692	-0.689164	-0.780623	6
O	1.930912	-0.963824	-0.697763	8
C	0.519322	1.405986	0.469077	6
N	0.903533	2.490976	0.469077	7
H	-1.855098	0.547576	1.419107	1
H	-1.866657	-0.999784	0.559117	1
H	-1.929898	0.522386	-0.348363	1
H	0.427102	-0.467754	1.357257	1
H	0.342112	-0.126304	-1.702223	1
H	0.031603	-1.658554	-0.873823	1
H	2.414642	-0.134454	-0.865613	1
Es	1.930785	-0.963567	-0.697787	99
Es	0.294655	0.766214	0.467678	99
Es	0.903387	2.490559	0.469073	99
Es	2.170271	-0.507505	-0.786861	99
Es	0.283214	-0.284261	-0.142189	99
Es	0.392200	-0.291376	-1.401018	99
Es	1.401445	-0.830084	-0.731364	99
Es	1.011768	1.899816	0.369436	99
Es	-1.731001	-0.671534	0.545970	99
Es	1.992293	-1.144260	-0.929331	99
Es	-1.776534	0.361130	-0.070036	99
Es	0.519210	1.405664	0.469077	99
Es	0.037310	0.044970	0.469055	99
Es	1.983419	-1.042443	-0.409233	99
Es	0.303344	-0.277258	1.058043	99
Es	-1.488491	0.028096	0.525690	99
Es	-1.727836	0.378636	1.129082	99
Es	1.025539	2.834942	0.467794	99
Es	0.510903	2.078067	0.257114	99
Es	-0.705709	0.060357	0.491668	99
Es	0.183355	-1.343348	-0.831722	99
Es	0.669653	2.021773	0.771339	99
Es	0.533899	-0.689155	-0.780542	99
36
Properties=species:S:1:pos:R:3:Z:I:1 energy=-284.9531711994465 field_type=dipole dipole="0.000000 0.000000 0.000000" charge=0
C	-1.488567	0.028096	0.525697	6
C	0.037302	0.044816	0.469077	6
C	0.533692	-0.689164	-0.780623	6
O	1.930912	-0.963824	-0.697763	8
C	0.519322	1.405986	0.469077	6
N	0.903533	2.490976	0.469077	7
H	-1.855098	0.547576	1.419107	1
H	-1.866657	-0.999784	0.559117	1
H	-1.929898	0.522386	-0.348363	1
H	0.427102	-0.467754	1.357257	1
H	0.342112	-0.126304	-1.702223	1
H	0.031603	-1.658554	-0.873823	1
H	2.414642	-0.134454	-0.865613	1
Es	0.533898	-0.689155	-0.780543	99
Es	-1.776572	0.361061	-0.069990	99
Es	0.283247	-0.284297	-0.142161	99
Es	1.992424	-1.145819	-0.928052	99
Es	-1.727785	0.378712	1.129065	99
Es	-1.488493	0.028097	0.525690	99
Es	0.805330	1.975466	0.767312	99
Es	0.037305	0.044972	0.469052	99
Es	0.294669	0.765940	0.467820	99
Es	0.392110	-0.291437	-1.401031	99
Es	0.940041	1.923663	0.245671	99
Es	-1.731021	-0.671553	0.546042	99
Es	0.903387	2.490560	0.469073	99
Es	0.519208	1.405658	0.469077	99
Es	1.983161	-1.040775	-0.408935	99
Es	0.447025	2.101152	0.384589	99
Es	0.183441	-1.343334	-0.831683	99
Es	1.401419	-0.829749	-0.731458	99
Es	0.303329	-0.277204	1.058022	99
Es	2.170489	-0.507953	-0.788177	99
Es	-0.705758	0.060439	0.491584	99
Es	1.025477	2.834485	0.467979	99
Es	1.930750	-0.963495	-0.698010	99
36
Properties=species:S:1:pos:R:3:Z:I:1 energy=-284.9531711994465 field_type=dipole dipole="0.000000 0.000000 0.000000" charge=0
C	-1.488567	0.028096	0.525697	6
C	0.037302	0.044816	0.469077	6
C	0.533692	-0.689164	-0.780623	6
O	1.930912	-0.963824	-0.697763	8
C	0.519322	1.405986	0.469077	6
N	0.903533	2.490976	0.469077	7
H	-1.855098	0.547576	1.419107	1
H	-1.866657	-0.999784	0.559117	1
H	-1.929898	0.522386	-0.348363	1
H	0.427102	-0.467754	1.357257	1
H	0.342112	-0.126304	-1.702223	1
H	0.031603	-1.658554	-0.873823	1
H	2.414642	-0.134454	-0.865613	1
Es	0.597132	2.046683	0.744676	99
Es	0.569549	2.056855	0.203721	99
Es	0.533896	-0.689155	-0.780545	99
Es	1.993049	-1.145257	-0.927707	99
Es	0.183400	-1.343293	-0.831841	99
Es	0.294705	0.765939	0.467707	99
Es	0.392174	-0.291344	-1.400942	99
Es	0.283327	-0.284314	-0.142149	99
Es	1.401130	-0.830540	-0.732248	99
Es	1.025901	1.896267	0.449260	99
Es	0.037309	0.044969	0.469056	99
Es	0.519211	1.405659	0.469069	99
Es	1.025183	2.834771	0.468053	99
Es	0.903400	2.490592	0.469066	99
Es	-1.776564	0.361053	-0.069997	99
Es	1.930762	-0.963493	-0.697935	99
Es	0.303401	-0.277136	1.058043	99
Es	-1.727882	0.378650	1.129078	99
Es	1.982903	-1.040983	-0.409087	99
Es	-1.488495	0.028097	0.525688	99
Es	-0.705836	0.060491	0.491635	99
Es	-1.730982	-0.671494	0.545979	99
Es	2.170405	-0.507582	-0.787645	99
36
Properties=species:S:1:pos:R:3:Z:I:1 energy=-284.9531711994465 field_type=dipole dipole="0.000000 0.000000 0.000000" charge=0
C	-1.488567	0.028096	0.525697	6
C	0.037302	0.044816	0.469077	6
C	0.533692	-0.689164	-0.780623	6
O	1.930912	-0.963824	-0.697763	8
C	0.519322	1.405986	0.469077	6
N	0.903533	2.490976	0.469077	7
H	-1.855098	0.547576	1.419107	1
H	-1.866657	-0.999784	0.559117	1
H	-1.929898	0.522386	-0.348363	1
H	0.427102	-0.467754	1.357257	1
H	0.342112	-0.126304	-1.702223	1
H	0.031603	-1.658554	-0.873823	1
H	2.414642	-0.134454	-0.865613	1
Es	0.519199	1.405654	0.469083	99
Es	0.392157	-0.291408	-1.400958	99
Es	2.170532	-0.507512	-0.786804	99
Es	1.401159	-0.830173	-0.731380	99
Es	0.294607	0.765729	0.467778	99
Es	0.303480	-0.277145	1.058038	99
Es	0.903388	2.490564	0.469069	99
Es	0.952361	1.919477	0.258934	99
Es	-1.727892	0.378706	1.129066	99
Es	1.991953	-1.143307	-0.929138	99
Es	0.451288	2.099785	0.367439	99
Es	0.037307	0.044968	0.469050	99
Es	1.983846	-1.043341	-0.409519	99
Es	0.283319	-0.284176	-0.142206	99
Es	-1.731003	-0.671497	0.545998	99
Es	-1.488492	0.028097	0.525689	99
Es	1.025462	2.834120	0.467793	99
Es	0.788753	1.981366	0.771443	99
Es	-0.705859	0.060489	0.491659	99
Es	-1.776540	0.361006	-0.069990	99
Es	0.533903	-0.689158	-0.780547	99
Es	1.930764	-0.963512	-0.697785	99
Es	0.183387	-1.343298	-0.831778	99
36
Properties=species:S:1:pos:R:3:Z:I:1 energy=-284.9531711994465 field_type=dipole dipole="0.000000 0.000000 0.000000" charge=0
C	-1.488567	0.028096	0.525697	6
C	0.037302	0.044816	0.469077	6
C	0.533692	-0.689164	-0.780623	6
O	1.930912	-0.963824	-0.697763	8
C	0.519322	1.405986	0.469077	6
N	0.903533	2.490976	0.469077	7
H	-1.855098	0.547576	1.419107	1
H	-1.866657	-0.999784	0.559117	1
H	-1.929898	0.522386	-0.348363	1
H	0.427102	-0.467754	1.357257	1
H	0.342112	-0.126304	-1.702223	1
H	0.031603	-1.658554	-0.873823	1
H	2.414642	-0.134454	-0.865613	1
Es	0.903388	2.490561	0.469072	99
Es	0.836618	1.960039	0.174674	99
Es	-1.488496	0.028097	0.525689	99
Es	0.392153	-0.291381	-1.400915	99
Es	-1.727894	0.378637	1.129101	99
Es	0.294629	0.765515	0.467863	99
Es	0.519213	1.405659	0.469076	99
Es	0.915108	1.937846	0.708159	99
Es	0.283409	-0.284309	-0.142262	99
Es	0.303448	-0.277004	1.058034	99
Es	0.037310	0.044971	0.469050	99
Es	0.183386	-1.343279	-0.831828	99
Es	1.930765	-0.963521	-0.697848	99
Es	-1.731054	-0.671460	0.545897	99
Es	-1.776526	0.361083	-0.069922	99
Es	-0.705860	0.060490	0.491679	99
Es	1.984423	-1.044130	-0.409835	99
Es	0.533896	-0.689154	-0.780543	99
Es	2.170783	-0.507764	-0.786812	99
Es	1.401239	-0.829559	-0.730350	99
Es	1.991091	-1.142865	-0.929764	99
Es	0.440647	2.102930	0.514983	99
Es	1.025404	2.834032	0.467738	99
36
Properties=species:S:1:pos:R:3:Z:I:1 energy=-284.9531711994465 field_type=dipole dipole="0.000000 0.000000 0.000000" charge=0
C	-1.488567	0.028096	0.525697	6
C	0.037302	0.044816	0.469077	6
C	0.533692	-0.689164	-0.780623	6
O	1.930912	-0.963824	-0.697763	8
C	0.519322	1.405986	0.469077	6
N	0.903533	2.490976	0.469077	7
H	-1.855098	0.547576	1.419107	1
H	-1.866657	-0.999784	0.559117	1
H	-1.929898	0.522386	-0.348363	1
H	0.427102	-0.467754	1.357257	1
H	0.342112	-0.126304	-1.702223	1
H	0.031603	-1.658554	-0.873823	1
H	2.414642	-0.134454	-0.865613	1
Es	0.303440	-0.277122	1.058020	99
Es	-0.705861	0.060639	0.491666	99
Es	1.930796	-0.963509	-0.697807	99
Es	0.438549	2.104292	0.429518	99
Es	0.183405	-1.343241	-0.831854	99
Es	1.983740	-1.041955	-0.410278	99
Es	0.294664	0.765420	0.467803	99
Es	-1.488495	0.028095	0.525689	99
Es	0.283385	-0.284147	-0.142280	99
Es	1.400965	-0.830099	-0.730477	99
Es	0.392169	-0.291428	-1.400922	99
Es	-1.776584	0.360986	-0.069977	99
Es	-1.727939	0.378652	1.129019	99
Es	-1.730992	-0.671446	0.546004	99
Es	1.025393	2.833658	0.467502	99
Es	0.844927	1.962410	0.752603	99
Es	1.992007	-1.144636	-0.928678	99
Es	0.533893	-0.689155	-0.780545	99
Es	0.903388	2.490562	0.469073	99
Es	2.170796	-0.507661	-0.787353	99
Es	0.519208	1.405661	0.469073	99
Es	0.908920	1.934493	0.216090	99
Es	0.037306	0.044967	0.469048	99
36
Properties=species:S:1:pos:R:3:Z:I:1 energy=-284.9531711994465 field_type=dipole dipole="0.000000 0.000000 0.000000" charge=0
C	-1.488567	0.028096	0.525697	6
C	0.037302	0.044816	0.469077	6
C	0.533692	-0.689164	-0.780623	6
O	1.930912	-0.963824	-0.697763	8
C	0.519322	1.405986	0.469077	6
N	0.903533	2.490976	0.469077	7
H	-1.855098	0.547576	1.419107	1
H	-1.866657	-0.999784	0.559117	1
H	-1.929898	0.522386	-0.348363	1
H	0.427102	-0.467754	1.357257	1
H	0.342112	-0.126304	-1.702223	1
H	0.031603	-1.658554	-0.873823	1
H	2.414642	-0.134454	-0.865613	1
Es	0.533898	-0.689159	-0.780547	99
Es	1.024982	2.833876	0.468074	99
Es	2.170765	-0.507922	-0.787709	99
Es	0.283443	-0.284075	-0.142283	99
Es	0.903388	2.490559	0.469072	99
Es	0.294562	0.765544	0.467756	99
Es	-1.488494	0.028098	0.525689	99
Es	1.982150	-1.039656	-0.409373	99
Es	0.392136	-0.291478	-1.400910	99
Es	1.993619	-1.146445	-0.927074	99
Es	-0.705987	0.060586	0.491685	99
Es	0.519209	1.405665	0.469077	99
Es	1.930780	-0.963520	-0.697802	99
Es	0.565357	2.058725	0.205670	99
Es	0.183434	-1.343217	-0.831846	99
Es	0.303581	-0.277023	1.058041	99
Es	1.026195	1.896414	0.444402	99
Es	0.601263	2.045589	0.747582	99
Es	1.400999	-0.830313	-0.732698	99
Es	-1.727905	0.378713	1.129000	99
Es	-1.776568	0.360962	-0.069971	99
Es	0.037307	0.044967	0.469051	99
Es	-1.731036	-0.671457	0.546048	99
36
Properties=species:S:1:pos:R:3:Z:I:1 energy=-284.9531711994465 field_type=dipole dipole="0.000000 0.000000 0.000000" charge=0
C	-1.488567	0.028096	0.525697	6
C	0.037302	0.044816	0.469077	6
C	0.533692	-0.689164	-0.780623	6
O	1.930912	-0.963824	-0.697763	8
C	0.519322	1.405986	0.469077	6
N	0.903533	2.490976	0.469077	7
H	-1.855098	0.547576	1.419107	1
H	-1.866657	-0.999784	0.559117	1
H	-1.929898	0.522386	-0.348363	1
H	0.427102	-0.467754	1.357257	1
H	0.342112	-0.126304	-1.702223	1
H	0.031603	-1.658554	-0.873823	1
H	2.414642	-0.134454	-0.865613	1
Es	-1.488494	0.028096	0.525688	99
Es	0.183404	-1.343204	-0.831883	99
Es	0.533896	-0.689158	-0.780548	99
Es	-0.705979	0.060627	0.491650	99
Es	0.519205	1.405656	0.469077	99
Es	0.903390	2.490569	0.469073	99
Es	-1.776611	0.360911	-0.070040	99
Es	1.992424	-1.145132	-0.928209	99
Es	1.983192	-1.041504	-0.410628	99
Es	1.025261	2.833426	0.467903	99
Es	2.171096	-0.507703	-0.787119	99
Es	1.400868	-0.830068	-0.730963	99
Es	-1.727913	0.378724	1.128955	99
Es	0.283487	-0.284099	-0.142243	99
Es	0.037303	0.044969	0.469049	99
Es	-1.730997	-0.671427	0.546139	99
Es	0.926139	1.934147	0.698750	99
Es	1.930758	-0.963462	-0.697742	99
Es	0.392142	-0.291463	-1.400856	99
Es	0.442644	2.102339	0.529506	99
Es	0.823715	1.964935	0.169401	99
Es	0.303560	-0.276991	1.058082	99
Es	0.294589	0.765247	0.467893	99
36
Properties=species:S:1:pos:R:3:Z:I:1 energy=-284.9531711994465 field_type=dipole dipole="0.000000 0.000000 0.000000" charge=0
C	-1.488567	0.028096	0.525697	6
C	0.037302	0.044816	0.469077	6
C	0.533692	-0.689164	-0.780623	6
O	1.930912	-0.963824	-0.697763	8
C	0.519322	1.405986	0.469077	6
N	0.903533	2.490976	0.469077	7
H	-1.855098	0.547576	1.419107	1
H	-1.866657	-0.999784	0.559117	1
H	-1.929898	0.522386	-0.348363	1
H	0.427102	-0.467754	1.357257	1
H	0.342112	-0.126304	-1.702223	1
H	0.031603	-1.658554	-0.873823	1
H	2.414642	-0.134454	-0.865613	1
Es	0.857108	1.953124	0.182980	99
Es	0.898132	1.944133	0.722458	99
Es	1.024868	2.833233	0.467787	99
Es	-0.705978	0.060677	0.491748	99
Es	0.533888	-0.689151	-0.780543	99
Es	0.519202	1.405646	0.469072	99
Es	-1.776640	0.361027	-0.069962	99
Es	0.437709	2.104372	0.492350	99
Es	1.930801	-0.963577	-0.697824	99
Es	-1.488494	0.028099	0.525694	99
Es	0.392148	-0.291507	-1.400846	99
Es	1.400821	-0.830202	-0.731497	99
Es	-1.727920	0.378572	1.128969	99
Es	0.303587	-0.276910	1.058043	99
Es	0.294529	0.765128	0.467913	99
Es	0.037306	0.044967	0.469050	99
Es	1.992402	-1.145673	-0.926963	99
Es	0.903384	2.490555	0.469072	99
Es	0.183397	-1.343174	-0.831896	99
Es	-1.731029	-0.671385	0.546016	99
Es	1.983082	-1.040394	-0.409882	99
Es	0.283515	-0.284085	-0.142323	99
Es	2.171260	-0.508041	-0.788483	99
36
Properties=species:S:1:pos:R:3:Z:I:1 energy=-284.9531711994465 field_type=dipole dipole="0.000000 0.000000 0.000000" charge=0
C	-1.488567	0.028096	0.525697	6
C	0.037302	0.044816	0.469077	6
C	0.533692	-0.689164	-0.780623	6
O	1.930912	-0.963824	-0.697763	8
C	0.519322	1.405986	0.469077	6
N	0.903533	2.490976	0.469077	7
H	-1.855098	0.547576	1.419107	1
H	-1.866657	-0.999784	0.559117	1
H	-1.929898	0.522386	-0.348363	1
H	0.427102	-0.467754	1.357257	1
H	0.342112	-0.126304	-1.702223	1
H	0.031603	-1.658554	-0.873823	1
H	2.414642	-0.134454	-0.865613	1
Es	1.023022	1.897162	0.412821	99
Es	0.294420	0.765179	0.467742	99
Es	1.930752	-0.963499	-0.697945	99
Es	0.283658	-0.283951	-0.142380	99
Es	-1.731035	-0.671456	0.546027	99
Es	-1.776594	0.360994	-0.069946	99
Es	0.541087	2.067732	0.224752	99
Es	0.303671	-0.276810	1.058133	99
Es	1.400754	-0.830222	-0.731415	99
Es	-0.706121	0.060700	0.491685	99
Es	0.628765	2.036280	0.760064	99
Es	2.171069	-0.507855	-0.787709	99
Es	0.392087	-0.291609	-1.400835	99
Es	0.519214	1.405661	0.469084	99
Es	1.992153	-1.144251	-0.927602	99
Es	0.183398	-1.343194	-0.831799	99
Es	0.533894	-0.689158	-0.780546	99
Es	-1.727919	0.378642	1.128970	99
Es	1.983670	-1.042009	-0.410044	99
Es	0.037305	0.044967	0.469048	99
Es	1.024935	2.833478	0.468067	99
Es	-1.488491	0.028097	0.525689	99
Es	0.903386	2.490557	0.469073	99
36
Properties=species:S:1:pos:R:3:Z:I:1 energy=-284.9531711994465 field_type=dipole dipole="0.000000 0.000000 0.000000" charge=0
C	-1.488567	0.028096	0.525697	6
C	0.037302	0.044816	0.469077	6
C	0.533692	-0.689164	-0.780623	6
O	1.930912	-0.963824	-0.697763	8
C	0.519322	1.405986	0.469077	6
N	0.903533	2.490976	0.469077	7
H	-1.855098	0.547576	1.419107	1
H	-1.866657	-0.999784	0.559117	1
H	-1.929898	0.522386	-0.348363	1
H	0.427102	-0.467754	1.357257	1
H	0.342112	-0.126304	-1.702223	1
H	0.031603	-1.658554	-0.873823	1
H	2.414642	-0.134454	-0.865613	1
Es	0.283645	-0.284157	-0.142294	99
Es	0.294472	0.765132	0.467676	99
Es	0.183397	-1.343171	-0.831971	99
Es	0.392147	-0.291444	-1.400792	99
Es	0.037309	0.044964	0.469054	99
Es	0.533479	2.070652	0.231719	99
Es	1.930809	-0.963595	-0.697801	99
Es	-1.731084	-0.671391	0.546043	99
Es	0.533900	-0.689155	-0.780546	99
Es	0.903391	2.490569	0.469072	99
Es	1.024927	2.833188	0.468114	99
Es	1.400743	-0.830314	-0.732167	99
Es	0.637836	2.033231	0.763585	99
Es	1.993484	-1.146900	-0.926572	99
Es	-1.727943	0.378691	1.128958	99
Es	-0.706104	0.060710	0.491679	99
Es	1.021554	1.897547	0.402346	99
Es	-1.488492	0.028098	0.525690	99
Es	0.303664	-0.276743	1.058113	99
Es	2.171251	-0.507996	-0.787943	99
Es	0.519209	1.405664	0.469076	99
Es	1.982074	-1.039073	-0.410196	99
Es	-1.776589	0.360925	-0.069909	99
