39
Properties=species:S:1:pos:R:3:Z:I:1 energy=-286.0497014432866 field_type=dipole dipole="0.000000 0.000000 0.000000" charge=0
C	-1.389142	-0.904735	0.129613	6
C	0.107218	-0.629105	0.058013	6
C	0.735178	-1.335565	-1.135957	6
O	0.324628	0.776805	-0.111497	8
N	0.346688	1.395065	1.148263	7
C	0.566238	2.655635	0.981423	6
H	-1.835982	-0.392585	0.988593	1
H	-1.591412	-1.976225	0.223153	1
H	-1.901402	-0.526765	-0.762387	1
H	0.600868	-0.979325	0.973203	1
H	0.294318	-0.987415	-2.076837	1
H	0.608468	-2.420754	-1.068817	1
H	1.806298	-1.112245	-1.189697	1
H	0.623648	3.322915	1.854463	1
H	0.704388	3.114295	-0.011537	1
Es	-1.688548	-0.560022	0.714581	99
Es	0.330169	1.042486	0.447692	99
Es	0.566242	2.655662	0.981442	99
Es	-1.518677	-1.637927	0.192798	99
Es	1.463811	-1.187109	-1.167003	99
Es	0.604948	3.102460	1.565681	99
Es	0.444101	-0.867529	0.683638	99
Es	0.324565	0.776631	-0.111168	99
Es	-1.389132	-0.904747	0.129615	99
Es	0.077847	0.898097	-0.249179	99
Es	0.735170	-1.335566	-1.135937	99
Es	0.107227	-0.628878	0.057932	99
Es	0.427552	-1.100219	-1.771691	99
Es	-1.729868	-0.651745	-0.482861	99
Es	0.159196	2.011149	1.059531	99
Es	0.730748	1.915792	1.093509	99
Es	0.658776	2.965772	0.318338	99
Es	-0.651712	-0.772431	0.094455	99
Es	0.642826	-2.072751	-1.081514	99
Es	0.346774	1.395389	1.147721	99
Es	0.419761	-0.981903	-0.548523	99
Es	0.612201	0.824050	-0.215858	99
Es	0.242986	0.255542	-0.017451	99
Es	0.292690	1.176214	1.451567	99
39
Properties=species:S:1:pos:R:3:Z:I:1 energy=-286.0497014432866 field_type=dipole dipole="0.000000 0.000000 0.000000" charge=0
C	-1.389142	-0.904735	0.129613	6
C	0.107218	-0.629105	0.058013	6
C	0.735178	-1.335565	-1.135957	6
O	0.324628	0.776805	-0.111497	8
N	0.346688	1.395065	1.148263	7
C	0.566238	2.655635	0.981423	6
H	-1.835982	-0.392585	0.988593	1
H	-1.591412	-1.976225	0.223153	1
H	-1.901402	-0.526765	-0.762387	1
H	0.600868	-0.979325	0.973203	1
H	0.294318	-0.987415	-2.076837	1
H	0.608468	-2.420754	-1.068817	1
H	1.806298	-1.112245	-1.189697	1
H	0.623648	3.322915	1.854463	1
H	0.704388	3.114295	-0.011537	1
Es	0.612355	0.822289	-0.213691	99
Es	0.735166	-1.335566	-1.135939	99
Es	0.566237	2.655662	0.981442	99
Es	0.658787	2.965776	0.318255	99
Es	-0.651734	-0.772425	0.094367	99
Es	0.730410	1.915865	1.093465	99
Es	0.346772	1.395382	1.147716	99
Es	-1.518770	-1.638039	0.192727	99
Es	0.324565	0.776630	-0.111201	99
Es	0.604937	3.102438	1.565696	99
Es	0.078864	0.899556	-0.251259	99
Es	0.159653	2.011082	1.059495	99
Es	0.241732	0.255814	-0.017582	99
Es	1.463852	-1.187274	-1.166829	99
Es	0.427691	-1.100103	-1.771780	99
Es	0.444062	-0.867553	0.683604	99
Es	0.107225	-0.628885	0.057933	99
Es	-1.729815	-0.651669	-0.482725	99
Es	-1.389132	-0.904747	0.129614	99
Es	0.330295	1.042376	0.447690	99
Es	0.292587	1.176413	1.451817	99
Es	0.642693	-2.072686	-1.081591	99
Es	0.419736	-0.981915	-0.548472	99
Es	-1.688512	-0.560002	0.714560	99
39
Properties=species:S:1:pos:R:3:Z:I:1 energy=-286.0497014432866 field_type=dipole dipole="0.000000 0.000000 0.000000" charge=0
C	-1.389142	-0.904735	0.129613	6
C	0.107218	-0.629105	0.058013	6
C	0.735178	-1.335565	-1.135957	6
O	0.324628	0.776805	-0.111497	8
N	0.346688	1.395065	1.148263	7
C	0.566238	2.655635	0.981423	6
H	-1.835982	-0.392585	0.988593	1
H	-1.591412	-1.976225	0.223153	1
H	-1.901402	-0.526765	-0.762387	1
H	0.600868	-0.979325	0.973203	1
H	0.294318	-0.987415	-2.076837	1
H	0.608468	-2.420754	-1.068817	1
H	1.806298	-1.112245	-1.189697	1
H	0.623648	3.322915	1.854463	1
H	0.704388	3.114295	-0.011537	1
Es	0.427592	-1.100302	-1.771685	99
Es	-1.729916	-0.651590	-0.482795	99
Es	0.612355	0.821885	-0.212329	99
Es	0.292721	1.176666	1.451326	99
Es	0.324433	0.776628	-0.111144	99
Es	0.604856	3.102507	1.565696	99
Es	0.419758	-0.981797	-0.548385	99
Es	0.080644	0.899966	-0.252393	99
Es	0.444065	-0.867564	0.683526	99
Es	-0.651738	-0.772512	0.094429	99
Es	0.329244	1.042496	0.447824	99
Es	0.658786	2.965727	0.318303	99
Es	-1.389132	-0.904747	0.129615	99
Es	0.107225	-0.628887	0.057934	99
Es	0.159303	2.011082	1.059711	99
Es	0.642857	-2.072730	-1.081516	99
Es	0.735163	-1.335566	-1.135938	99
Es	0.566229	2.655669	0.981441	99
Es	0.346772	1.395385	1.147720	99
Es	-1.688382	-0.560056	0.714480	99
Es	-1.518829	-1.638013	0.192835	99
Es	1.463787	-1.187133	-1.167065	99
Es	0.241105	0.255540	-0.018019	99
Es	0.730754	1.915761	1.093742	99
39
Properties=species:S:1:pos:R:3:Z:I:1 energy=-286.0497014432866 field_type=dipole dipole="0.000000 0.000000 0.000000" charge=0
C	-1.389142	-0.904735	0.129613	6
C	0.107218	-0.629105	0.058013	6
C	0.735178	-1.335565	-1.135957	6
O	0.324628	0.776805	-0.111497	8
N	0.346688	1.395065	1.148263	7
C	0.566238	2.655635	0.981423	6
H	-1.835982	-0.392585	0.988593	1
H	-1.591412	-1.976225	0.223153	1
H	-1.901402	-0.526765	-0.762387	1
H	0.600868	-0.979325	0.973203	1
H	0.294318	-0.987415	-2.076837	1
H	0.608468	-2.420754	-1.068817	1
H	1.806298	-1.112245	-1.189697	1
H	0.623648	3.322915	1.854463	1
H	0.704388	3.114295	-0.011537	1
Es	0.735167	-1.335567	-1.135940	99
Es	0.419817	-0.981921	-0.548353	99
Es	0.346773	1.395396	1.147723	99
Es	0.444002	-0.867472	0.683485	99
Es	-1.518772	-1.637991	0.192767	99
Es	0.566239	2.655659	0.981442	99
Es	0.078897	0.898220	-0.249431	99
Es	0.242936	0.255188	-0.018094	99
Es	0.324617	0.776646	-0.111233	99
Es	-1.688538	-0.560036	0.714510	99
Es	0.730587	1.915796	1.093670	99
Es	0.658781	2.965738	0.318279	99
Es	0.107225	-0.628890	0.057935	99
Es	-1.389131	-0.904747	0.129615	99
Es	0.159359	2.011071	1.059781	99
Es	0.604941	3.102480	1.565758	99
Es	0.642782	-2.072659	-1.081593	99
Es	1.463817	-1.187249	-1.166975	99
Es	-0.651725	-0.772469	0.094518	99
Es	-1.729834	-0.651683	-0.482778	99
Es	0.611160	0.823920	-0.215321	99
Es	0.292826	1.176900	1.451305	99
Es	0.330079	1.042306	0.447978	99
Es	0.427651	-1.100216	-1.771735	99
39
Properties=species:S:1:pos:R:3:Z:I:1 energy=-286.0497014432866 field_type=dipole dipole="0.000000 0.000000 0.000000" charge=0
C	-1.389142	-0.904735	0.129613	6
C	0.107218	-0.629105	0.058013	6
C	0.735178	-1.335565	-1.135957	6
O	0.324628	0.776805	-0.111497	8
N	0.346688	1.395065	1.148263	7
C	0.566238	2.655635	0.981423	6
H	-1.835982	-0.392585	0.988593	1
H	-1.591412	-1.976225	0.223153	1
H	-1.901402	-0.526765	-0.762387	1
H	0.600868	-0.979325	0.973203	1
H	0.294318	-0.987415	-2.076837	1
H	0.608468	-2.420754	-1.068817	1
H	1.806298	-1.112245	-1.189697	1
H	0.623648	3.322915	1.854463	1
H	0.704388	3.114295	-0.011537	1
Es	0.419826	-0.981921	-0.548254	99
Es	0.427594	-1.100325	-1.771777	99
Es	0.735166	-1.335566	-1.135939	99
Es	-1.729695	-0.651787	-0.482872	99
Es	-0.651754	-0.772590	0.094565	99
Es	0.329902	1.042836	0.447989	99
Es	-1.389131	-0.904747	0.129614	99
Es	0.658785	2.965731	0.318298	99
Es	0.443975	-0.867447	0.683469	99
Es	0.159540	2.011062	1.059656	99
Es	0.242133	0.254983	-0.018180	99
Es	-1.688643	-0.559900	0.714519	99
Es	1.463768	-1.187213	-1.167041	99
Es	-1.518802	-1.637917	0.192795	99
Es	0.324518	0.776650	-0.111181	99
Es	0.642922	-2.072598	-1.081566	99
Es	0.730657	1.915726	1.093887	99
Es	0.080560	0.899467	-0.252102	99
Es	0.604885	3.102496	1.565757	99
Es	0.610589	0.822254	-0.212692	99
Es	0.292619	1.177066	1.451279	99
Es	0.107225	-0.628886	0.057934	99
Es	0.346772	1.395387	1.147713	99
Es	0.566244	2.655655	0.981443	99
39
Properties=species:S:1:pos:R:3:Z:I:1 energy=-286.0497014432866 field_type=dipole dipole="0.000000 0.000000 0.000000" charge=0
C	-1.389142	-0.904735	0.129613	6
C	0.107218	-0.629105	0.058013	6
C	0.735178	-1.335565	-1.135957	6
O	0.324628	0.776805	-0.111497	8
N	0.346688	1.395065	1.148263	7
C	0.566238	2.655635	0.981423	6
H	-1.835982	-0.392585	0.988593	1
H	-1.591412	-1.976225	0.223153	1
H	-1.901402	-0.526765	-0.762387	1
H	0.600868	-0.979325	0.973203	1
H	0.294318	-0.987415	-2.076837	1
H	0.608468	-2.420754	-1.068817	1
H	1.806298	-1.112245	-1.189697	1
H	0.623648	3.322915	1.854463	1
H	0.704388	3.114295	-0.011537	1
Es	1.463805	-1.187257	-1.167021	99
Es	0.419852	-0.981912	-0.548306	99
Es	0.642812	-2.072637	-1.081599	99
Es	0.107224	-0.628893	0.057935	99
Es	0.658773	2.965707	0.318269	99
Es	0.324568	0.776636	-0.111189	99
Es	0.329563	1.042159	0.448165	99
Es	-1.729818	-0.651735	-0.482749	99
Es	0.079803	0.898523	-0.250339	99
Es	0.610899	0.823589	-0.214319	99
Es	0.735165	-1.335566	-1.135938	99
Es	0.292899	1.177268	1.451236	99
Es	-0.651700	-0.772472	0.094539	99
Es	0.159492	2.011044	1.059807	99
Es	0.566240	2.655659	0.981442	99
Es	0.443965	-0.867432	0.683433	99
Es	0.346773	1.395384	1.147719	99
Es	0.242807	0.255053	-0.018457	99
Es	0.730447	1.915800	1.093735	99
Es	0.427658	-1.100268	-1.771726	99
Es	-1.389131	-0.904747	0.129613	99
Es	-1.688580	-0.560013	0.714474	99
Es	-1.518792	-1.637980	0.192781	99
Es	0.604929	3.102510	1.565808	99
39
Properties=species:S:1:pos:R:3:Z:I:1 energy=-286.0497014432866 field_type=dipole dipole="0.000000 0.000000 0.000000" charge=0
C	-1.389142	-0.904735	0.129613	6
C	0.107218	-0.629105	0.058013	6
C	0.735178	-1.335565	-1.135957	6
O	0.324628	0.776805	-0.111497	8
N	0.346688	1.395065	1.148263	7
C	0.566238	2.655635	0.981423	6
H	-1.835982	-0.392585	0.988593	1
H	-1.591412	-1.976225	0.223153	1
H	-1.901402	-0.526765	-0.762387	1
H	0.600868	-0.979325	0.973203	1
H	0.294318	-0.987415	-2.076837	1
H	0.608468	-2.420754	-1.068817	1
H	1.806298	-1.112245	-1.189697	1
H	0.623648	3.322915	1.854463	1
H	0.704388	3.114295	-0.011537	1
Es	0.330934	1.042616	0.448251	99
Es	0.658829	2.965681	0.318251	99
Es	0.427669	-1.100285	-1.771727	99
Es	-0.651679	-0.772491	0.094547	99
Es	0.730493	1.915782	1.093868	99
Es	0.609679	0.824118	-0.216220	99
Es	0.159494	2.011014	1.059887	99
Es	0.292803	1.177391	1.451084	99
Es	0.080009	0.897940	-0.248417	99
Es	0.419862	-0.981896	-0.548272	99
Es	-1.688612	-0.560016	0.714481	99
Es	0.443954	-0.867428	0.683387	99
Es	0.242489	0.254620	-0.018576	99
Es	0.346766	1.395362	1.147714	99
Es	-1.389133	-0.904747	0.129615	99
Es	0.566240	2.655658	0.981443	99
Es	0.604913	3.102525	1.565828	99
Es	0.324552	0.776641	-0.111210	99
Es	0.107225	-0.628891	0.057936	99
Es	-1.729813	-0.651762	-0.482729	99
Es	1.463801	-1.187282	-1.167037	99
Es	0.642811	-2.072614	-1.081614	99
Es	-1.518798	-1.637952	0.192763	99
Es	0.735166	-1.335565	-1.135938	99
39
Properties=species:S:1:pos:R:3:Z:I:1 energy=-286.0497014432866 field_type=dipole dipole="0.000000 0.000000 0.000000" charge=0
C	-1.389142	-0.904735	0.129613	6
C	0.107218	-0.629105	0.058013	6
C	0.735178	-1.335565	-1.135957	6
O	0.324628	0.776805	-0.111497	8
N	0.346688	1.395065	1.148263	7
C	0.566238	2.655635	0.981423	6
H	-1.835982	-0.392585	0.988593	1
H	-1.591412	-1.976225	0.223153	1
H	-1.901402	-0.526765	-0.762387	1
H	0.600868	-0.979325	0.973203	1
H	0.294318	-0.987415	-2.076837	1
H	0.608468	-2.420754	-1.068817	1
H	1.806298	-1.112245	-1.189697	1
H	0.623648	3.322915	1.854463	1
H	0.704388	3.114295	-0.011537	1
Es	-1.688586	-0.560015	0.714425	99
Es	0.735167	-1.335567	-1.135940	99
Es	-0.651644	-0.772530	0.094621	99
Es	-1.389132	-0.904747	0.129615	99
Es	-1.729790	-0.651713	-0.482725	99
Es	0.242480	0.254353	-0.018844	99
Es	0.331083	1.042466	0.448201	99
Es	0.443913	-0.867378	0.683362	99
Es	0.159845	2.010984	1.059789	99
Es	0.566241	2.655659	0.981443	99
Es	0.324598	0.776670	-0.111348	99
Es	0.107225	-0.628890	0.057935	99
Es	0.346774	1.395386	1.147725	99
Es	0.730652	1.915643	1.094211	99
Es	1.463747	-1.187262	-1.167067	99
Es	0.658689	2.965697	0.318237	99
Es	0.292460	1.177584	1.450952	99
Es	0.419901	-0.981905	-0.548263	99
Es	0.079883	0.896754	-0.245618	99
Es	0.609620	0.825604	-0.218677	99
Es	0.604863	3.102537	1.565852	99
Es	0.427720	-1.100271	-1.771679	99
Es	0.642831	-2.072678	-1.081666	99
Es	-1.518885	-1.637961	0.192775	99
39
Properties=species:S:1:pos:R:3:Z:I:1 energy=-286.0497014432866 field_type=dipole dipole="0.000000 0.000000 0.000000" charge=0
C	-1.389142	-0.904735	0.129613	6
C	0.107218	-0.629105	0.058013	6
C	0.735178	-1.335565	-1.135957	6
O	0.324628	0.776805	-0.111497	8
N	0.346688	1.395065	1.148263	7
C	0.566238	2.655635	0.981423	6
H	-1.835982	-0.392585	0.988593	1
H	-1.591412	-1.976225	0.223153	1
H	-1.901402	-0.526765	-0.762387	1
H	0.600868	-0.979325	0.973203	1
H	0.294318	-0.987415	-2.076837	1
H	0.608468	-2.420754	-1.068817	1
H	1.806298	-1.112245	-1.189697	1
H	0.623648	3.322915	1.854463	1
H	0.704388	3.114295	-0.011537	1
Es	-1.729840	-0.651770	-0.482717	99
Es	0.346770	1.395369	1.147721	99
Es	-1.688627	-0.560051	0.714438	99
Es	0.107225	-0.628893	0.057935	99
Es	0.609610	0.823616	-0.215024	99
Es	1.463787	-1.187323	-1.167081	99
Es	0.658775	2.965680	0.318241	99
Es	0.159477	2.010983	1.060072	99
Es	0.081974	0.898099	-0.249366	99
Es	0.566240	2.655659	0.981443	99
Es	0.735167	-1.335566	-1.135939	99
Es	-1.518808	-1.637939	0.192776	99
Es	0.642830	-2.072573	-1.081635	99
Es	0.241636	0.254402	-0.019039	99
Es	0.329674	1.042916	0.448333	99
Es	0.419893	-0.981905	-0.548225	99
Es	-1.389132	-0.904747	0.129615	99
Es	0.730485	1.915725	1.094048	99
Es	0.443903	-0.867353	0.683327	99
Es	0.604928	3.102527	1.565863	99
Es	0.324690	0.776608	-0.111180	99
Es	0.292926	1.177773	1.450799	99
Es	0.427702	-1.100341	-1.771725	99
Es	-0.651632	-0.772478	0.094634	99
39
Properties=species:S:1:pos:R:3:Z:I:1 energy=-286.0497014432866 field_type=dipole dipole="0.000000 0.000000 0.000000" charge=0
C	-1.389142	-0.904735	0.129613	6
C	0.107218	-0.629105	0.058013	6
C	0.735178	-1.335565	-1.135957	6
O	0.324628	0.776805	-0.111497	8
N	0.346688	1.395065	1.148263	7
C	0.566238	2.655635	0.981423	6
H	-1.835982	-0.392585	0.988593	1
H	-1.591412	-1.976225	0.223153	1
H	-1.901402	-0.526765	-0.762387	1
H	0.600868	-0.979325	0.973203	1
H	0.294318	-0.987415	-2.076837	1
H	0.608468	-2.420754	-1.068817	1
H	1.806298	-1.112245	-1.189697	1
H	0.623648	3.322915	1.854463	1
H	0.704388	3.114295	-0.011537	1
Es	0.566239	2.655659	0.981443	99
Es	0.730377	1.915746	1.094032	99
Es	0.292952	1.177859	1.450781	99
Es	-1.729841	-0.651769	-0.482709	99
Es	0.604929	3.102550	1.565904	99
Es	0.427709	-1.100341	-1.771718	99
Es	0.328217	1.043134	0.448190	99
Es	0.159604	2.010927	1.060134	99
Es	0.419924	-0.981907	-0.548226	99
Es	1.463782	-1.187325	-1.167089	99
Es	-0.651615	-0.772491	0.094658	99
Es	0.443887	-0.867333	0.683299	99
Es	0.085137	0.900682	-0.253770	99
Es	-1.688635	-0.560061	0.714427	99
Es	0.238616	0.254848	-0.019495	99
Es	0.642829	-2.072579	-1.081638	99
Es	0.346773	1.395386	1.147723	99
Es	0.324601	0.776778	-0.111472	99
Es	0.735167	-1.335566	-1.135940	99
Es	-1.518814	-1.637938	0.192771	99
Es	0.610958	0.820144	-0.209773	99
Es	0.107225	-0.628893	0.057935	99
Es	0.658765	2.965657	0.318229	99
Es	-1.389132	-0.904747	0.129615	99
