42
Properties=species:S:1:pos:R:3:Z:I:1 energy=-287.2775227340165 field_type=dipole dipole="0.000000 0.000000 0.000000" charge=0
C	-2.280843	-0.670896	0.442111	6
C	-0.759444	-0.690006	0.417131	6
N	-0.250423	0.674263	0.259031	7
C	1.219126	0.736214	0.368141	6
C	1.923557	0.142684	-0.859339	6
O	1.362087	0.697464	-2.047239	8
H	-2.668933	-1.690386	0.536751	1
H	-2.687583	-0.239486	-0.479029	1
H	-2.656843	-0.087956	1.289941	1
H	-0.433113	-1.322096	-0.414979	1
H	-0.394233	-1.133776	1.350281	1
H	-0.649624	1.260224	0.994591	1
H	1.575186	0.264744	1.291351	1
H	1.483696	1.798814	0.424711	1
H	1.810457	-0.944876	-0.900919	1
H	2.991357	0.375394	-0.840279	1
H	0.415576	0.829683	-1.832259	1
Es	-2.530364	-0.268273	1.024001	99
Es	-0.482349	1.014202	0.719308	99
Es	-0.453705	0.078637	0.350644	99
Es	1.218987	0.736186	0.368110	99
Es	1.361928	0.697434	-2.046928	99
Es	1.843295	-0.611103	-0.873857	99
Es	-1.523832	-0.676095	0.431535	99
Es	0.387084	0.677405	0.328145	99
Es	0.866284	0.756018	-1.924929	99
Es	1.923436	0.142796	-0.859480	99
Es	-0.345517	0.800449	-0.068849	99
Es	1.466598	0.400010	1.003353	99
Es	-2.541052	-1.366779	0.509173	99
Es	-2.553494	-0.377629	-0.183781	99
Es	2.653927	0.302662	-0.835474	99
Es	1.559811	0.485172	-1.584272	99
Es	-0.503054	-0.999011	1.064509	99
Es	-2.280819	-0.670901	0.442123	99
Es	-0.759436	-0.689869	0.417116	99
Es	-0.529574	-1.118324	-0.152610	99
Es	1.483948	0.976916	-2.074247	99
Es	-0.250242	0.674043	0.259503	99
Es	1.562343	0.428151	-0.235323	99
Es	1.384796	0.482399	-2.264693	99
Es	1.400360	1.461649	0.409258	99
42
Properties=species:S:1:pos:R:3:Z:I:1 energy=-287.2775227340165 field_type=dipole dipole="0.000000 0.000000 0.000000" charge=0
C	-2.280843	-0.670896	0.442111	6
C	-0.759444	-0.690006	0.417131	6
N	-0.250423	0.674263	0.259031	7
C	1.219126	0.736214	0.368141	6
C	1.923557	0.142684	-0.859339	6
O	1.362087	0.697464	-2.047239	8
H	-2.668933	-1.690386	0.536751	1
H	-2.687583	-0.239486	-0.479029	1
H	-2.656843	-0.087956	1.289941	1
H	-0.433113	-1.322096	-0.414979	1
H	-0.394233	-1.133776	1.350281	1
H	-0.649624	1.260224	0.994591	1
H	1.575186	0.264744	1.291351	1
H	1.483696	1.798814	0.424711	1
H	1.810457	-0.944876	-0.900919	1
H	2.991357	0.375394	-0.840279	1
H	0.415576	0.829683	-1.832259	1
Es	-2.530343	-0.268341	1.024043	99
Es	1.387645	0.484845	-2.268089	99
Es	1.218993	0.736186	0.368114	99
Es	-0.529534	-1.118445	-0.152483	99
Es	-1.523827	-0.676084	0.431430	99
Es	1.562257	0.428105	-0.235367	99
Es	1.843414	-0.611060	-0.873908	99
Es	-0.759436	-0.689867	0.417112	99
Es	-0.482416	1.014231	0.719328	99
Es	1.361922	0.697402	-2.046939	99
Es	1.560117	0.484450	-1.584510	99
Es	1.923436	0.142791	-0.859479	99
Es	-0.250232	0.674037	0.259543	99
Es	1.481075	0.977325	-2.070073	99
Es	-2.280819	-0.670902	0.442123	99
Es	2.653885	0.302697	-0.835402	99
Es	-2.541106	-1.366719	0.509104	99
Es	0.866027	0.753929	-1.925512	99
Es	-0.503200	-0.998930	1.064537	99
Es	-0.345566	0.800337	-0.069099	99
Es	-2.553512	-0.377554	-0.183735	99
Es	1.400334	1.461521	0.409258	99
Es	0.387008	0.677444	0.328244	99
Es	-0.453420	0.078712	0.350717	99
Es	1.466659	0.400035	1.003376	99
42
Properties=species:S:1:pos:R:3:Z:I:1 energy=-287.2775227340165 field_type=dipole dipole="0.000000 0.000000 0.000000" charge=0
C	-2.280843	-0.670896	0.442111	6
C	-0.759444	-0.690006	0.417131	6
N	-0.250423	0.674263	0.259031	7
C	1.219126	0.736214	0.368141	6
C	1.923557	0.142684	-0.859339	6
O	1.362087	0.697464	-2.047239	8
H	-2.668933	-1.690386	0.536751	1
H	-2.687583	-0.239486	-0.479029	1
H	-2.656843	-0.087956	1.289941	1
H	-0.433113	-1.322096	-0.414979	1
H	-0.394233	-1.133776	1.350281	1
H	-0.649624	1.260224	0.994591	1
H	1.575186	0.264744	1.291351	1
H	1.483696	1.798814	0.424711	1
H	1.810457	-0.944876	-0.900919	1
H	2.991357	0.375394	-0.840279	1
H	0.415576	0.829683	-1.832259	1
Es	-0.503134	-0.998981	1.064433	99
Es	2.653859	0.302665	-0.835419	99
Es	-0.250238	0.674045	0.259526	99
Es	1.483709	0.975909	-2.074951	99
Es	-2.553552	-0.377618	-0.183705	99
Es	-2.530378	-0.268335	1.023959	99
Es	-0.759435	-0.689867	0.417114	99
Es	-1.523810	-0.676137	0.431449	99
Es	1.923437	0.142794	-0.859479	99
Es	1.218994	0.736187	0.368113	99
Es	1.400390	1.461609	0.409319	99
Es	0.866679	0.757078	-1.924284	99
Es	1.466570	0.400089	1.003262	99
Es	1.562357	0.428023	-0.235295	99
Es	-2.280819	-0.670902	0.442123	99
Es	1.560769	0.485107	-1.584156	99
Es	1.383695	0.482559	-2.264792	99
Es	1.843427	-0.611043	-0.873880	99
Es	-0.529514	-1.118354	-0.152452	99
Es	-2.541104	-1.366731	0.509157	99
Es	-0.482379	1.014466	0.719040	99
Es	-0.345630	0.800050	-0.069017	99
Es	-0.453518	0.078769	0.351126	99
Es	1.361898	0.697303	-2.046975	99
Es	0.387087	0.677461	0.328117	99
42
Properties=species:S:1:pos:R:3:Z:I:1 energy=-287.2775227340165 field_type=dipole dipole="0.000000 0.000000 0.000000" charge=0
C	-2.280843	-0.670896	0.442111	6
C	-0.759444	-0.690006	0.417131	6
N	-0.250423	0.674263	0.259031	7
C	1.219126	0.736214	0.368141	6
C	1.923557	0.142684	-0.859339	6
O	1.362087	0.697464	-2.047239	8
H	-2.668933	-1.690386	0.536751	1
H	-2.687583	-0.239486	-0.479029	1
H	-2.656843	-0.087956	1.289941	1
H	-0.433113	-1.322096	-0.414979	1
H	-0.394233	-1.133776	1.350281	1
H	-0.649624	1.260224	0.994591	1
H	1.575186	0.264744	1.291351	1
H	1.483696	1.798814	0.424711	1
H	1.810457	-0.944876	-0.900919	1
H	2.991357	0.375394	-0.840279	1
H	0.415576	0.829683	-1.832259	1
Es	1.480912	0.976513	-2.071614	99
Es	-0.759436	-0.689870	0.417115	99
Es	-0.529517	-1.118336	-0.152425	99
Es	0.866347	0.754635	-1.924533	99
Es	1.923437	0.142793	-0.859479	99
Es	1.361943	0.697561	-2.046818	99
Es	-2.280819	-0.670902	0.442123	99
Es	-1.523814	-0.676163	0.431456	99
Es	1.386375	0.484243	-2.267740	99
Es	1.562320	0.428019	-0.235220	99
Es	-2.530405	-0.268301	1.023947	99
Es	-0.503117	-0.998994	1.064366	99
Es	0.387083	0.677674	0.328187	99
Es	-0.345528	0.800292	-0.068713	99
Es	-0.250247	0.674038	0.259530	99
Es	1.843458	-0.611009	-0.873884	99
Es	-0.453421	0.078637	0.350615	99
Es	1.561199	0.484995	-1.584496	99
Es	1.466582	0.400112	1.003253	99
Es	2.653832	0.302632	-0.835411	99
Es	-2.553530	-0.377651	-0.183651	99
Es	1.400446	1.461570	0.409293	99
Es	-2.541159	-1.366700	0.509137	99
Es	1.218991	0.736187	0.368112	99
Es	-0.482573	1.014167	0.719184	99
42
Properties=species:S:1:pos:R:3:Z:I:1 energy=-287.2775227340165 field_type=dipole dipole="0.000000 0.000000 0.000000" charge=0
C	-2.280843	-0.670896	0.442111	6
C	-0.759444	-0.690006	0.417131	6
N	-0.250423	0.674263	0.259031	7
C	1.219126	0.736214	0.368141	6
C	1.923557	0.142684	-0.859339	6
O	1.362087	0.697464	-2.047239	8
H	-2.668933	-1.690386	0.536751	1
H	-2.687583	-0.239486	-0.479029	1
H	-2.656843	-0.087956	1.289941	1
H	-0.433113	-1.322096	-0.414979	1
H	-0.394233	-1.133776	1.350281	1
H	-0.649624	1.260224	0.994591	1
H	1.575186	0.264744	1.291351	1
H	1.483696	1.798814	0.424711	1
H	1.810457	-0.944876	-0.900919	1
H	2.991357	0.375394	-0.840279	1
H	0.415576	0.829683	-1.832259	1
Es	-0.503100	-0.999021	1.064330	99
Es	0.866330	0.756611	-1.924776	99
Es	1.218993	0.736186	0.368113	99
Es	1.560785	0.483993	-1.584365	99
Es	1.843479	-0.610980	-0.873850	99
Es	1.562410	0.428066	-0.235239	99
Es	-2.530425	-0.268355	1.023932	99
Es	-0.482522	1.014371	0.718914	99
Es	-0.529528	-1.118300	-0.152363	99
Es	-2.280820	-0.670902	0.442123	99
Es	-2.541139	-1.366696	0.509128	99
Es	-2.553567	-0.377636	-0.183639	99
Es	0.387215	0.677697	0.328012	99
Es	-0.453461	0.078698	0.350968	99
Es	-0.250243	0.674033	0.259529	99
Es	1.923437	0.142794	-0.859481	99
Es	-0.759436	-0.689870	0.417115	99
Es	1.466609	0.400136	1.003213	99
Es	1.361937	0.697525	-2.046839	99
Es	-0.345677	0.800007	-0.068601	99
Es	2.653816	0.302610	-0.835433	99
Es	1.400401	1.461539	0.409345	99
Es	1.483334	0.975907	-2.073883	99
Es	-1.523813	-0.676168	0.431450	99
Es	1.384346	0.483903	-2.265370	99
42
Properties=species:S:1:pos:R:3:Z:I:1 energy=-287.2775227340165 field_type=dipole dipole="0.000000 0.000000 0.000000" charge=0
C	-2.280843	-0.670896	0.442111	6
C	-0.759444	-0.690006	0.417131	6
N	-0.250423	0.674263	0.259031	7
C	1.219126	0.736214	0.368141	6
C	1.923557	0.142684	-0.859339	6
O	1.362087	0.697464	-2.047239	8
H	-2.668933	-1.690386	0.536751	1
H	-2.687583	-0.239486	-0.479029	1
H	-2.656843	-0.087956	1.289941	1
H	-0.433113	-1.322096	-0.414979	1
H	-0.394233	-1.133776	1.350281	1
H	-0.649624	1.260224	0.994591	1
H	1.575186	0.264744	1.291351	1
H	1.483696	1.798814	0.424711	1
H	1.810457	-0.944876	-0.900919	1
H	2.991357	0.375394	-0.840279	1
H	0.415576	0.829683	-1.832259	1
Es	0.387189	0.677646	0.327964	99
Es	1.387955	0.485968	-2.268727	99
Es	1.361915	0.697422	-2.046926	99
Es	-2.553622	-0.377756	-0.183616	99
Es	1.466611	0.400144	1.003165	99
Es	-2.530438	-0.268292	1.023851	99
Es	1.562412	0.428071	-0.235228	99
Es	-0.345611	0.799993	-0.068489	99
Es	-0.529514	-1.118279	-0.152314	99
Es	1.479085	0.976959	-2.069990	99
Es	1.923439	0.142793	-0.859478	99
Es	-0.759436	-0.689871	0.417115	99
Es	2.653815	0.302578	-0.835425	99
Es	1.218992	0.736187	0.368113	99
Es	-0.503089	-0.999027	1.064269	99
Es	-0.482415	1.014500	0.718779	99
Es	1.561796	0.484731	-1.584366	99
Es	0.865985	0.752857	-1.925258	99
Es	1.843490	-0.610937	-0.873851	99
Es	-0.250243	0.674024	0.259544	99
Es	-0.453613	0.078660	0.351051	99
Es	1.400421	1.461512	0.409388	99
Es	-1.523834	-0.676108	0.431405	99
Es	-2.280820	-0.670902	0.442123	99
Es	-2.541109	-1.366727	0.509235	99
42
Properties=species:S:1:pos:R:3:Z:I:1 energy=-287.2775227340165 field_type=dipole dipole="0.000000 0.000000 0.000000" charge=0
C	-2.280843	-0.670896	0.442111	6
C	-0.759444	-0.690006	0.417131	6
N	-0.250423	0.674263	0.259031	7
C	1.219126	0.736214	0.368141	6
C	1.923557	0.142684	-0.859339	6
O	1.362087	0.697464	-2.047239	8
H	-2.668933	-1.690386	0.536751	1
H	-2.687583	-0.239486	-0.479029	1
H	-2.656843	-0.087956	1.289941	1
H	-0.433113	-1.322096	-0.414979	1
H	-0.394233	-1.133776	1.350281	1
H	-0.649624	1.260224	0.994591	1
H	1.575186	0.264744	1.291351	1
H	1.483696	1.798814	0.424711	1
H	1.810457	-0.944876	-0.900919	1
H	2.991357	0.375394	-0.840279	1
H	0.415576	0.829683	-1.832259	1
Es	1.361914	0.697344	-2.046956	99
Es	1.385015	0.484120	-2.265360	99
Es	-2.553632	-0.377569	-0.183539	99
Es	1.923440	0.142791	-0.859475	99
Es	-0.482693	1.014353	0.718779	99
Es	2.653712	0.302556	-0.835422	99
Es	-0.453470	0.078670	0.350825	99
Es	1.466620	0.400184	1.003137	99
Es	0.866130	0.756051	-1.925271	99
Es	1.482416	0.975751	-2.073838	99
Es	-0.529504	-1.118183	-0.152251	99
Es	1.218989	0.736186	0.368113	99
Es	-2.541146	-1.366727	0.509074	99
Es	1.562489	0.428087	-0.235200	99
Es	1.400416	1.461455	0.409420	99
Es	-0.503073	-0.999093	1.064295	99
Es	-2.280821	-0.670902	0.442123	99
Es	1.561269	0.484710	-1.583881	99
Es	-0.250233	0.674058	0.259506	99
Es	-1.523863	-0.676220	0.431269	99
Es	0.387294	0.677887	0.328012	99
Es	-2.530378	-0.268425	1.023975	99
Es	-0.759437	-0.689872	0.417116	99
Es	-0.345650	0.799891	-0.068248	99
Es	1.843556	-0.610958	-0.873869	99
42
Properties=species:S:1:pos:R:3:Z:I:1 energy=-287.2775227340165 field_type=dipole dipole="0.000000 0.000000 0.000000" charge=0
C	-2.280843	-0.670896	0.442111	6
C	-0.759444	-0.690006	0.417131	6
N	-0.250423	0.674263	0.259031	7
C	1.219126	0.736214	0.368141	6
C	1.923557	0.142684	-0.859339	6
O	1.362087	0.697464	-2.047239	8
H	-2.668933	-1.690386	0.536751	1
H	-2.687583	-0.239486	-0.479029	1
H	-2.656843	-0.087956	1.289941	1
H	-0.433113	-1.322096	-0.414979	1
H	-0.394233	-1.133776	1.350281	1
H	-0.649624	1.260224	0.994591	1
H	1.575186	0.264744	1.291351	1
H	1.483696	1.798814	0.424711	1
H	1.810457	-0.944876	-0.900919	1
H	2.991357	0.375394	-0.840279	1
H	0.415576	0.829683	-1.832259	1
Es	-2.553682	-0.377619	-0.183543	99
Es	1.843496	-0.610872	-0.873861	99
Es	1.466577	0.400229	1.003049	99
Es	0.865125	0.753154	-1.926475	99
Es	-0.453641	0.078647	0.350749	99
Es	1.561287	0.483594	-1.584402	99
Es	1.218995	0.736187	0.368113	99
Es	-0.482791	1.014643	0.718569	99
Es	1.923441	0.142790	-0.859476	99
Es	0.387343	0.677740	0.328105	99
Es	-0.503097	-0.998994	1.064164	99
Es	-0.529507	-1.118309	-0.152249	99
Es	-0.250245	0.674046	0.259514	99
Es	1.562525	0.427982	-0.235142	99
Es	-1.523788	-0.676143	0.431479	99
Es	-0.345341	0.799745	-0.068032	99
Es	-2.280821	-0.670902	0.442123	99
Es	2.653770	0.302461	-0.835452	99
Es	-2.541167	-1.366679	0.509143	99
Es	1.400456	1.461531	0.409439	99
Es	1.361920	0.697423	-2.047000	99
Es	1.479687	0.976439	-2.069216	99
Es	-0.759437	-0.689871	0.417115	99
Es	1.388692	0.487390	-2.268224	99
Es	-2.530437	-0.268467	1.023842	99
42
Properties=species:S:1:pos:R:3:Z:I:1 energy=-287.2775227340165 field_type=dipole dipole="0.000000 0.000000 0.000000" charge=0
C	-2.280843	-0.670896	0.442111	6
C	-0.759444	-0.690006	0.417131	6
N	-0.250423	0.674263	0.259031	7
C	1.219126	0.736214	0.368141	6
C	1.923557	0.142684	-0.859339	6
O	1.362087	0.697464	-2.047239	8
H	-2.668933	-1.690386	0.536751	1
H	-2.687583	-0.239486	-0.479029	1
H	-2.656843	-0.087956	1.289941	1
H	-0.433113	-1.322096	-0.414979	1
H	-0.394233	-1.133776	1.350281	1
H	-0.649624	1.260224	0.994591	1
H	1.575186	0.264744	1.291351	1
H	1.483696	1.798814	0.424711	1
H	1.810457	-0.944876	-0.900919	1
H	2.991357	0.375394	-0.840279	1
H	0.415576	0.829683	-1.832259	1
Es	0.387331	0.677848	0.327897	99
Es	-0.345639	0.799727	-0.068128	99
Es	-0.759438	-0.689874	0.417115	99
Es	1.483267	0.975813	-2.074072	99
Es	-2.553618	-0.377674	-0.183523	99
Es	-0.453505	0.078694	0.351057	99
Es	1.923439	0.142792	-0.859476	99
Es	2.653762	0.302507	-0.835493	99
Es	-1.523773	-0.676254	0.431427	99
Es	-0.529517	-1.118223	-0.152163	99
Es	0.865884	0.756272	-1.925672	99
Es	-2.541219	-1.366615	0.509110	99
Es	1.562525	0.428012	-0.235098	99
Es	-0.250241	0.674045	0.259505	99
Es	-2.280820	-0.670902	0.442123	99
Es	1.218991	0.736187	0.368113	99
Es	-2.530505	-0.268415	1.023835	99
Es	-0.482617	1.014568	0.718553	99
Es	1.466619	0.400202	1.003087	99
Es	1.400441	1.461449	0.409439	99
Es	1.361906	0.697415	-2.046921	99
Es	1.843614	-0.610808	-0.873856	99
Es	1.560968	0.483358	-1.584115	99
Es	-0.503085	-0.999071	1.064147	99
Es	1.384588	0.485093	-2.264557	99
42
Properties=species:S:1:pos:R:3:Z:I:1 energy=-287.2775227340165 field_type=dipole dipole="0.000000 0.000000 0.000000" charge=0
C	-2.280843	-0.670896	0.442111	6
C	-0.759444	-0.690006	0.417131	6
N	-0.250423	0.674263	0.259031	7
C	1.219126	0.736214	0.368141	6
C	1.923557	0.142684	-0.859339	6
O	1.362087	0.697464	-2.047239	8
H	-2.668933	-1.690386	0.536751	1
H	-2.687583	-0.239486	-0.479029	1
H	-2.656843	-0.087956	1.289941	1
H	-0.433113	-1.322096	-0.414979	1
H	-0.394233	-1.133776	1.350281	1
H	-0.649624	1.260224	0.994591	1
H	1.575186	0.264744	1.291351	1
H	1.483696	1.798814	0.424711	1
H	1.810457	-0.944876	-0.900919	1
H	2.991357	0.375394	-0.840279	1
H	0.415576	0.829683	-1.832259	1
Es	0.387364	0.677821	0.327903	99
Es	-0.345496	0.799693	-0.067891	99
Es	1.385843	0.485697	-2.266435	99
Es	1.466637	0.400244	1.003057	99
Es	1.562465	0.428008	-0.235117	99
Es	2.653747	0.302532	-0.835405	99
Es	-2.530463	-0.268394	1.023779	99
Es	-0.759436	-0.689867	0.417115	99
Es	1.361911	0.697338	-2.046963	99
Es	1.561464	0.483703	-1.584066	99
Es	-0.482709	1.014629	0.718472	99
Es	1.843636	-0.610811	-0.873881	99
Es	-0.250239	0.674043	0.259528	99
Es	-2.280821	-0.670901	0.442124	99
Es	0.865900	0.755607	-1.925645	99
Es	-0.529495	-1.118220	-0.152166	99
Es	1.923440	0.142789	-0.859472	99
Es	-2.541242	-1.366605	0.509193	99
Es	-2.553673	-0.377709	-0.183519	99
Es	1.481589	0.975609	-2.072262	99
Es	-0.453650	0.078628	0.350882	99
Es	-0.503031	-0.999039	1.064076	99
Es	1.218994	0.736187	0.368114	99
Es	1.400425	1.461435	0.409449	99
Es	-1.523801	-0.676272	0.431463	99
42
Properties=species:S:1:pos:R:3:Z:I:1 energy=-287.2775227340165 field_type=dipole dipole="0.000000 0.000000 0.000000" charge=0
C	-2.280843	-0.670896	0.442111	6
C	-0.759444	-0.690006	0.417131	6
N	-0.250423	0.674263	0.259031	7
C	1.219126	0.736214	0.368141	6
C	1.923557	0.142684	-0.859339	6
O	1.362087	0.697464	-2.047239	8
H	-2.668933	-1.690386	0.536751	1
H	-2.687583	-0.239486	-0.479029	1
H	-2.656843	-0.087956	1.289941	1
H	-0.433113	-1.322096	-0.414979	1
H	-0.394233	-1.133776	1.350281	1
H	-0.649624	1.260224	0.994591	1
H	1.575186	0.264744	1.291351	1
H	1.483696	1.798814	0.424711	1
H	1.810457	-0.944876	-0.900919	1
H	2.991357	0.375394	-0.840279	1
H	0.415576	0.829683	-1.832259	1
Es	-0.250234	0.674043	0.259529	99
Es	-2.553650	-0.377669	-0.183537	99
Es	1.386096	0.485752	-2.265722	99
Es	-2.530540	-0.268472	1.023826	99
Es	1.481186	0.975466	-2.072927	99
Es	1.466643	0.400310	1.003062	99
Es	1.561858	0.484267	-1.583682	99
Es	2.653709	0.302445	-0.835436	99
Es	-2.541228	-1.366527	0.509095	99
Es	-0.503124	-0.999005	1.064080	99
Es	-0.759436	-0.689870	0.417115	99
Es	-0.453621	0.078748	0.351329	99
Es	1.923441	0.142790	-0.859474	99
Es	-0.529430	-1.118255	-0.152079	99
Es	1.400467	1.461395	0.409393	99
Es	-0.482884	1.015034	0.718017	99
Es	0.387280	0.677750	0.328260	99
Es	-1.523795	-0.676318	0.431448	99
Es	1.562552	0.427992	-0.235067	99
Es	-2.280820	-0.670902	0.442123	99
Es	1.218993	0.736187	0.368113	99
Es	1.361931	0.697394	-2.046976	99
Es	-0.345247	0.799293	-0.068211	99
Es	1.843606	-0.610797	-0.873838	99
Es	0.865607	0.755099	-1.926107	99
42
Properties=species:S:1:pos:R:3:Z:I:1 energy=-287.2775227340165 field_type=dipole dipole="0.000000 0.000000 0.000000" charge=0
C	-2.280843	-0.670896	0.442111	6
C	-0.759444	-0.690006	0.417131	6
N	-0.250423	0.674263	0.259031	7
C	1.219126	0.736214	0.368141	6
C	1.923557	0.142684	-0.859339	6
O	1.362087	0.697464	-2.047239	8
H	-2.668933	-1.690386	0.536751	1
H	-2.687583	-0.239486	-0.479029	1
H	-2.656843	-0.087956	1.289941	1
H	-0.433113	-1.322096	-0.414979	1
H	-0.394233	-1.133776	1.350281	1
H	-0.649624	1.260224	0.994591	1
H	1.575186	0.264744	1.291351	1
H	1.483696	1.798814	0.424711	1
H	1.810457	-0.944876	-0.900919	1
H	2.991357	0.375394	-0.840279	1
H	0.415576	0.829683	-1.832259	1
Es	-0.453260	0.078569	0.351715	99
Es	1.361956	0.697428	-2.046921	99
Es	-0.482999	1.015353	0.717935	99
Es	-2.541245	-1.366542	0.509026	99
Es	-2.553709	-0.377622	-0.183412	99
Es	-0.250241	0.674053	0.259518	99
Es	1.561764	0.484426	-1.583633	99
Es	-0.529472	-1.118181	-0.152051	99
Es	-0.345748	0.798519	-0.067327	99
Es	1.843673	-0.610765	-0.873846	99
Es	0.865417	0.755307	-1.926310	99
Es	-1.523799	-0.676279	0.431405	99
Es	1.218993	0.736187	0.368113	99
Es	0.387594	0.678371	0.327118	99
Es	-0.759438	-0.689871	0.417115	99
Es	1.481608	0.975281	-2.073581	99
Es	1.923442	0.142789	-0.859474	99
Es	1.562564	0.428043	-0.235062	99
Es	-0.503075	-0.999078	1.063977	99
Es	1.385929	0.485548	-2.265023	99
Es	2.653654	0.302428	-0.835421	99
Es	1.400475	1.461391	0.409519	99
Es	-2.530534	-0.268547	1.023847	99
Es	1.466630	0.400240	1.002980	99
Es	-2.280820	-0.670903	0.442123	99
