42
Properties=species:S:1:pos:R:3:Z:I:1 energy=-287.27376147143144 field_type=dipole dipole="0.000000 0.000000 0.000000" charge=0
C	0.031679	-0.882899	1.583466	6
N	-0.314371	-1.158949	0.194166	7
C	-0.259201	0.017131	-0.703624	6
C	-1.231141	1.131611	-0.321054	6
C	1.178039	0.551001	-0.872374	6
O	2.054878	-0.528729	-1.188204	8
H	-0.035381	-1.813479	2.157446	1
H	-0.653091	-0.166059	2.046616	1
H	1.059028	-0.521129	1.685846	1
H	-1.261301	-1.540959	0.167426	1
H	-0.567611	-0.366139	-1.685624	1
H	-0.942141	1.625841	0.611546	1
H	-2.247711	0.741841	-0.203694	1
H	-1.259351	1.896441	-1.104594	1
H	1.543369	1.035171	0.038566	1
H	1.228549	1.279521	-1.687594	1
H	1.675759	-1.300209	-0.718314	1
Es	1.178128	0.550809	-0.872415	99
Es	0.454833	0.287155	-0.767983	99
Es	0.729183	-0.630000	1.644442	99
Es	2.054620	-0.528729	-1.187918	99
Es	-0.018619	-1.517042	1.972754	99
Es	-1.922445	0.858239	-0.239763	99
Es	-0.259203	0.017066	-0.703495	99
Es	2.014111	-0.583235	-1.486064	99
Es	-1.030517	1.463884	0.315974	99
Es	-1.245225	1.649214	-0.856320	99
Es	-0.748307	0.587179	-0.496401	99
Es	-0.314725	-1.158515	0.194388	99
Es	0.031646	-0.882924	1.583329	99
Es	-0.894723	-1.369255	0.185254	99
Es	-0.077717	-1.403958	0.065889	99
Es	1.850050	-0.923525	-0.931095	99
Es	-1.231134	1.131606	-0.321055	99
Es	-0.181368	-1.006844	0.800523	99
Es	1.415371	0.889557	-0.236377	99
Es	2.328851	-0.462450	-1.065699	99
Es	-0.473768	-0.241934	-1.375213	99
Es	1.200156	1.052460	-1.428337	99
Es	-0.302335	-0.626164	-0.159169	99
Es	-0.437729	-0.383548	1.902394	99
Es	1.710542	-0.126061	-1.054945	99
42
Properties=species:S:1:pos:R:3:Z:I:1 energy=-287.27376147143144 field_type=dipole dipole="0.000000 0.000000 0.000000" charge=0
C	0.031679	-0.882899	1.583466	6
N	-0.314371	-1.158949	0.194166	7
C	-0.259201	0.017131	-0.703624	6
C	-1.231141	1.131611	-0.321054	6
C	1.178039	0.551001	-0.872374	6
O	2.054878	-0.528729	-1.188204	8
H	-0.035381	-1.813479	2.157446	1
H	-0.653091	-0.166059	2.046616	1
H	1.059028	-0.521129	1.685846	1
H	-1.261301	-1.540959	0.167426	1
H	-0.567611	-0.366139	-1.685624	1
H	-0.942141	1.625841	0.611546	1
H	-2.247711	0.741841	-0.203694	1
H	-1.259351	1.896441	-1.104594	1
H	1.543369	1.035171	0.038566	1
H	1.228549	1.279521	-1.687594	1
H	1.675759	-1.300209	-0.718314	1
Es	1.415432	0.889662	-0.236377	99
Es	-0.437694	-0.383636	1.902365	99
Es	-0.302204	-0.626116	-0.158968	99
Es	-0.077693	-1.404168	0.065758	99
Es	1.851749	-0.922516	-0.928764	99
Es	-0.473782	-0.241938	-1.375218	99
Es	0.031646	-0.882929	1.583332	99
Es	-1.030559	1.463807	0.315905	99
Es	-1.245282	1.649318	-0.856287	99
Es	-0.259203	0.017065	-0.703494	99
Es	-0.181368	-1.006983	0.800366	99
Es	-0.894861	-1.368995	0.185304	99
Es	1.710234	-0.126219	-1.055231	99
Es	-0.748224	0.587122	-0.496431	99
Es	-0.314743	-1.158492	0.194398	99
Es	-1.922402	0.858292	-0.239694	99
Es	1.178127	0.550811	-0.872416	99
Es	-0.018552	-1.517045	1.972840	99
Es	2.329930	-0.461435	-1.068107	99
Es	-1.231133	1.131605	-0.321056	99
Es	0.454782	0.287187	-0.768026	99
Es	2.011630	-0.585103	-1.485601	99
Es	2.054593	-0.528769	-1.187996	99
Es	0.729109	-0.629892	1.644448	99
Es	1.200147	1.052347	-1.428350	99
42
Properties=species:S:1:pos:R:3:Z:I:1 energy=-287.27376147143144 field_type=dipole dipole="0.000000 0.000000 0.000000" charge=0
C	0.031679	-0.882899	1.583466	6
N	-0.314371	-1.158949	0.194166	7
C	-0.259201	0.017131	-0.703624	6
C	-1.231141	1.131611	-0.321054	6
C	1.178039	0.551001	-0.872374	6
O	2.054878	-0.528729	-1.188204	8
H	-0.035381	-1.813479	2.157446	1
H	-0.653091	-0.166059	2.046616	1
H	1.059028	-0.521129	1.685846	1
H	-1.261301	-1.540959	0.167426	1
H	-0.567611	-0.366139	-1.685624	1
H	-0.942141	1.625841	0.611546	1
H	-2.247711	0.741841	-0.203694	1
H	-1.259351	1.896441	-1.104594	1
H	1.543369	1.035171	0.038566	1
H	1.228549	1.279521	-1.687594	1
H	1.675759	-1.300209	-0.718314	1
Es	-1.231134	1.131605	-0.321056	99
Es	-0.302148	-0.626178	-0.159110	99
Es	-0.181472	-1.006974	0.800562	99
Es	-0.259203	0.017064	-0.703495	99
Es	0.031646	-0.882925	1.583329	99
Es	1.415418	0.889682	-0.236427	99
Es	-0.018573	-1.517051	1.972842	99
Es	-0.077860	-1.403817	0.065958	99
Es	-0.314722	-1.158514	0.194390	99
Es	1.850008	-0.924217	-0.931992	99
Es	2.326509	-0.461994	-1.063088	99
Es	0.454727	0.287276	-0.767931	99
Es	2.017705	-0.582717	-1.486808	99
Es	-1.922490	0.858268	-0.239716	99
Es	-0.437634	-0.383608	1.902394	99
Es	-0.748270	0.587128	-0.496456	99
Es	0.729102	-0.629946	1.644444	99
Es	-0.894712	-1.369285	0.185043	99
Es	-1.245237	1.649200	-0.856273	99
Es	2.054503	-0.528754	-1.188051	99
Es	1.200124	1.052338	-1.428295	99
Es	1.178130	0.550806	-0.872415	99
Es	-1.030559	1.463918	0.315864	99
Es	-0.473640	-0.241917	-1.375228	99
Es	1.709459	-0.126405	-1.055786	99
42
Properties=species:S:1:pos:R:3:Z:I:1 energy=-287.27376147143144 field_type=dipole dipole="0.000000 0.000000 0.000000" charge=0
C	0.031679	-0.882899	1.583466	6
N	-0.314371	-1.158949	0.194166	7
C	-0.259201	0.017131	-0.703624	6
C	-1.231141	1.131611	-0.321054	6
C	1.178039	0.551001	-0.872374	6
O	2.054878	-0.528729	-1.188204	8
H	-0.035381	-1.813479	2.157446	1
H	-0.653091	-0.166059	2.046616	1
H	1.059028	-0.521129	1.685846	1
H	-1.261301	-1.540959	0.167426	1
H	-0.567611	-0.366139	-1.685624	1
H	-0.942141	1.625841	0.611546	1
H	-2.247711	0.741841	-0.203694	1
H	-1.259351	1.896441	-1.104594	1
H	1.543369	1.035171	0.038566	1
H	1.228549	1.279521	-1.687594	1
H	1.675759	-1.300209	-0.718314	1
Es	2.054643	-0.528743	-1.188008	99
Es	-0.473709	-0.241901	-1.375188	99
Es	-1.231134	1.131606	-0.321056	99
Es	-0.748161	0.587140	-0.496444	99
Es	-0.437644	-0.383624	1.902406	99
Es	-0.181549	-1.006848	0.800488	99
Es	-0.259204	0.017068	-0.703499	99
Es	-0.314687	-1.158553	0.194372	99
Es	-0.894676	-1.369484	0.185013	99
Es	-0.018601	-1.516977	1.972809	99
Es	0.031647	-0.882924	1.583333	99
Es	1.415446	0.889714	-0.236448	99
Es	1.200086	1.052305	-1.428274	99
Es	0.729125	-0.629985	1.644518	99
Es	1.709528	-0.125652	-1.056202	99
Es	2.011319	-0.585039	-1.483084	99
Es	2.331060	-0.461450	-1.069163	99
Es	-1.245261	1.649232	-0.856220	99
Es	-0.302038	-0.626230	-0.159413	99
Es	-1.030634	1.463899	0.315892	99
Es	0.454756	0.287196	-0.767966	99
Es	-1.922447	0.858294	-0.239768	99
Es	1.178125	0.550815	-0.872414	99
Es	1.851657	-0.923203	-0.929299	99
Es	-0.077971	-1.403672	0.066312	99
42
Properties=species:S:1:pos:R:3:Z:I:1 energy=-287.27376147143144 field_type=dipole dipole="0.000000 0.000000 0.000000" charge=0
C	0.031679	-0.882899	1.583466	6
N	-0.314371	-1.158949	0.194166	7
C	-0.259201	0.017131	-0.703624	6
C	-1.231141	1.131611	-0.321054	6
C	1.178039	0.551001	-0.872374	6
O	2.054878	-0.528729	-1.188204	8
H	-0.035381	-1.813479	2.157446	1
H	-0.653091	-0.166059	2.046616	1
H	1.059028	-0.521129	1.685846	1
H	-1.261301	-1.540959	0.167426	1
H	-0.567611	-0.366139	-1.685624	1
H	-0.942141	1.625841	0.611546	1
H	-2.247711	0.741841	-0.203694	1
H	-1.259351	1.896441	-1.104594	1
H	1.543369	1.035171	0.038566	1
H	1.228549	1.279521	-1.687594	1
H	1.675759	-1.300209	-0.718314	1
Es	-0.078196	-1.404090	0.066286	99
Es	-1.245232	1.649121	-0.856343	99
Es	2.054679	-0.528732	-1.188075	99
Es	-1.922494	0.858317	-0.239658	99
Es	1.708972	-0.125950	-1.057278	99
Es	1.200138	1.052304	-1.428249	99
Es	1.415422	0.889719	-0.236514	99
Es	2.325071	-0.461681	-1.062499	99
Es	-0.314719	-1.158515	0.194388	99
Es	0.729091	-0.629967	1.644464	99
Es	-0.748139	0.587136	-0.496275	99
Es	-0.894685	-1.369067	0.185266	99
Es	-0.301909	-0.626430	-0.159636	99
Es	0.031648	-0.882924	1.583334	99
Es	-0.181454	-1.006712	0.800479	99
Es	-0.473714	-0.241853	-1.375123	99
Es	-1.030633	1.464035	0.315738	99
Es	-0.259203	0.017066	-0.703497	99
Es	2.019221	-0.583788	-1.486779	99
Es	1.850290	-0.923961	-0.931085	99
Es	1.178127	0.550811	-0.872415	99
Es	0.454687	0.287186	-0.768043	99
Es	-0.018566	-1.517017	1.972842	99
Es	-0.437588	-0.383632	1.902426	99
Es	-1.231135	1.131607	-0.321056	99
42
Properties=species:S:1:pos:R:3:Z:I:1 energy=-287.27376147143144 field_type=dipole dipole="0.000000 0.000000 0.000000" charge=0
C	0.031679	-0.882899	1.583466	6
N	-0.314371	-1.158949	0.194166	7
C	-0.259201	0.017131	-0.703624	6
C	-1.231141	1.131611	-0.321054	6
C	1.178039	0.551001	-0.872374	6
O	2.054878	-0.528729	-1.188204	8
H	-0.035381	-1.813479	2.157446	1
H	-0.653091	-0.166059	2.046616	1
H	1.059028	-0.521129	1.685846	1
H	-1.261301	-1.540959	0.167426	1
H	-0.567611	-0.366139	-1.685624	1
H	-0.942141	1.625841	0.611546	1
H	-2.247711	0.741841	-0.203694	1
H	-1.259351	1.896441	-1.104594	1
H	1.543369	1.035171	0.038566	1
H	1.228549	1.279521	-1.687594	1
H	1.675759	-1.300209	-0.718314	1
Es	2.328934	-0.462338	-1.067629	99
Es	1.200133	1.052350	-1.428199	99
Es	-0.018539	-1.516992	1.972882	99
Es	-0.437500	-0.383657	1.902459	99
Es	-1.030707	1.463911	0.315840	99
Es	0.729062	-0.629973	1.644443	99
Es	-1.245250	1.649241	-0.856227	99
Es	1.710164	-0.125354	-1.055236	99
Es	-1.231134	1.131606	-0.321055	99
Es	2.054608	-0.528737	-1.187990	99
Es	-0.894536	-1.369030	0.185172	99
Es	0.454637	0.287259	-0.767903	99
Es	-0.259203	0.017065	-0.703497	99
Es	-0.301766	-0.626300	-0.159729	99
Es	-0.314755	-1.158482	0.194411	99
Es	-0.473641	-0.241903	-1.375123	99
Es	-1.922436	0.858349	-0.239765	99
Es	2.013613	-0.583382	-1.484206	99
Es	-0.078208	-1.404200	0.066469	99
Es	-0.181797	-1.006763	0.800442	99
Es	1.178127	0.550812	-0.872415	99
Es	1.415428	0.889690	-0.236641	99
Es	1.850955	-0.924363	-0.930677	99
Es	-0.748161	0.587100	-0.496467	99
Es	0.031648	-0.882923	1.583340	99
42
Properties=species:S:1:pos:R:3:Z:I:1 energy=-287.27376147143144 field_type=dipole dipole="0.000000 0.000000 0.000000" charge=0
C	0.031679	-0.882899	1.583466	6
N	-0.314371	-1.158949	0.194166	7
C	-0.259201	0.017131	-0.703624	6
C	-1.231141	1.131611	-0.321054	6
C	1.178039	0.551001	-0.872374	6
O	2.054878	-0.528729	-1.188204	8
H	-0.035381	-1.813479	2.157446	1
H	-0.653091	-0.166059	2.046616	1
H	1.059028	-0.521129	1.685846	1
H	-1.261301	-1.540959	0.167426	1
H	-0.567611	-0.366139	-1.685624	1
H	-0.942141	1.625841	0.611546	1
H	-2.247711	0.741841	-0.203694	1
H	-1.259351	1.896441	-1.104594	1
H	1.543369	1.035171	0.038566	1
H	1.228549	1.279521	-1.687594	1
H	1.675759	-1.300209	-0.718314	1
Es	0.729106	-0.630011	1.644518	99
Es	-0.259204	0.017067	-0.703499	99
Es	2.054543	-0.528751	-1.188032	99
Es	1.178125	0.550817	-0.872413	99
Es	-0.314717	-1.158517	0.194377	99
Es	-0.437486	-0.383667	1.902444	99
Es	-0.894690	-1.368670	0.185394	99
Es	-0.181118	-1.006984	0.800543	99
Es	2.016311	-0.582952	-1.485059	99
Es	1.415380	0.889633	-0.236583	99
Es	-1.922425	0.858326	-0.239710	99
Es	0.031648	-0.882923	1.583336	99
Es	1.710081	-0.124886	-1.055459	99
Es	-0.078960	-1.404206	0.066328	99
Es	-0.018617	-1.516954	1.972859	99
Es	-1.030696	1.463920	0.315798	99
Es	0.454567	0.287185	-0.768044	99
Es	1.850321	-0.924576	-0.931561	99
Es	-1.231132	1.131604	-0.321056	99
Es	-0.301542	-0.626452	-0.159904	99
Es	-0.748051	0.587158	-0.496472	99
Es	1.200190	1.052384	-1.428144	99
Es	2.327036	-0.462971	-1.065651	99
Es	-1.245327	1.649246	-0.856188	99
Es	-0.473664	-0.241838	-1.375122	99
42
Properties=species:S:1:pos:R:3:Z:I:1 energy=-287.27376147143144 field_type=dipole dipole="0.000000 0.000000 0.000000" charge=0
C	0.031679	-0.882899	1.583466	6
N	-0.314371	-1.158949	0.194166	7
C	-0.259201	0.017131	-0.703624	6
C	-1.231141	1.131611	-0.321054	6
C	1.178039	0.551001	-0.872374	6
O	2.054878	-0.528729	-1.188204	8
H	-0.035381	-1.813479	2.157446	1
H	-0.653091	-0.166059	2.046616	1
H	1.059028	-0.521129	1.685846	1
H	-1.261301	-1.540959	0.167426	1
H	-0.567611	-0.366139	-1.685624	1
H	-0.942141	1.625841	0.611546	1
H	-2.247711	0.741841	-0.203694	1
H	-1.259351	1.896441	-1.104594	1
H	1.543369	1.035171	0.038566	1
H	1.228549	1.279521	-1.687594	1
H	1.675759	-1.300209	-0.718314	1
Es	-0.259204	0.017066	-0.703497	99
Es	-0.018651	-1.516960	1.972885	99
Es	-0.078333	-1.402979	0.066287	99
Es	2.054608	-0.528736	-1.188031	99
Es	0.729077	-0.630014	1.644571	99
Es	-0.314671	-1.158547	0.194386	99
Es	1.710248	-0.124328	-1.055817	99
Es	-0.181285	-1.007060	0.800557	99
Es	-0.302103	-0.626267	-0.159346	99
Es	-0.894631	-1.369970	0.184813	99
Es	-1.245270	1.649321	-0.856160	99
Es	-1.231135	1.131607	-0.321055	99
Es	-1.922484	0.858415	-0.239648	99
Es	0.454593	0.287159	-0.768025	99
Es	1.851295	-0.924027	-0.929783	99
Es	-0.437469	-0.383670	1.902404	99
Es	1.178126	0.550817	-0.872414	99
Es	-0.473668	-0.241826	-1.375121	99
Es	1.415385	0.889766	-0.236618	99
Es	0.031648	-0.882923	1.583337	99
Es	2.330050	-0.462641	-1.069676	99
Es	1.200142	1.052270	-1.428175	99
Es	-1.030703	1.463844	0.315688	99
Es	2.012128	-0.584413	-1.482398	99
Es	-0.748017	0.587080	-0.496467	99
42
Properties=species:S:1:pos:R:3:Z:I:1 energy=-287.27376147143144 field_type=dipole dipole="0.000000 0.000000 0.000000" charge=0
C	0.031679	-0.882899	1.583466	6
N	-0.314371	-1.158949	0.194166	7
C	-0.259201	0.017131	-0.703624	6
C	-1.231141	1.131611	-0.321054	6
C	1.178039	0.551001	-0.872374	6
O	2.054878	-0.528729	-1.188204	8
H	-0.035381	-1.813479	2.157446	1
H	-0.653091	-0.166059	2.046616	1
H	1.059028	-0.521129	1.685846	1
H	-1.261301	-1.540959	0.167426	1
H	-0.567611	-0.366139	-1.685624	1
H	-0.942141	1.625841	0.611546	1
H	-2.247711	0.741841	-0.203694	1
H	-1.259351	1.896441	-1.104594	1
H	1.543369	1.035171	0.038566	1
H	1.228549	1.279521	-1.687594	1
H	1.675759	-1.300209	-0.718314	1
Es	-0.181787	-1.006708	0.800561	99
Es	0.454568	0.287212	-0.768129	99
Es	-0.473682	-0.241755	-1.375055	99
Es	-0.077957	-1.402868	0.066649	99
Es	-0.894319	-1.370384	0.184616	99
Es	2.054618	-0.528701	-1.188022	99
Es	1.851406	-0.924374	-0.930258	99
Es	1.415291	0.889580	-0.236635	99
Es	-1.030770	1.463875	0.315819	99
Es	-0.747999	0.587099	-0.496490	99
Es	0.031647	-0.882924	1.583334	99
Es	2.330212	-0.462994	-1.070196	99
Es	-0.314733	-1.158510	0.194392	99
Es	1.710760	-0.124490	-1.054548	99
Es	2.011363	-0.583633	-1.482729	99
Es	-0.302243	-0.626415	-0.159618	99
Es	1.200262	1.052443	-1.428056	99
Es	0.728969	-0.629953	1.644556	99
Es	1.178126	0.550815	-0.872414	99
Es	-0.259203	0.017066	-0.703499	99
Es	-1.231134	1.131607	-0.321055	99
Es	-1.245283	1.649284	-0.856099	99
Es	-0.018482	-1.516960	1.972870	99
Es	-0.437516	-0.383729	1.902498	99
Es	-1.922437	0.858399	-0.239791	99
42
Properties=species:S:1:pos:R:3:Z:I:1 energy=-287.27376147143144 field_type=dipole dipole="0.000000 0.000000 0.000000" charge=0
C	0.031679	-0.882899	1.583466	6
N	-0.314371	-1.158949	0.194166	7
C	-0.259201	0.017131	-0.703624	6
C	-1.231141	1.131611	-0.321054	6
C	1.178039	0.551001	-0.872374	6
O	2.054878	-0.528729	-1.188204	8
H	-0.035381	-1.813479	2.157446	1
H	-0.653091	-0.166059	2.046616	1
H	1.059028	-0.521129	1.685846	1
H	-1.261301	-1.540959	0.167426	1
H	-0.567611	-0.366139	-1.685624	1
H	-0.942141	1.625841	0.611546	1
H	-2.247711	0.741841	-0.203694	1
H	-1.259351	1.896441	-1.104594	1
H	1.543369	1.035171	0.038566	1
H	1.228549	1.279521	-1.687594	1
H	1.675759	-1.300209	-0.718314	1
Es	0.454515	0.287225	-0.768086	99
Es	-1.030804	1.463913	0.315698	99
Es	-0.078534	-1.403534	0.066527	99
Es	1.415351	0.889678	-0.236693	99
Es	-0.301990	-0.626295	-0.159875	99
Es	-0.437410	-0.383687	1.902404	99
Es	1.200230	1.052348	-1.428082	99
Es	-0.747986	0.587077	-0.496441	99
Es	0.031649	-0.882923	1.583338	99
Es	1.851141	-0.924881	-0.931309	99
Es	2.054520	-0.528733	-1.188035	99
Es	2.330194	-0.462846	-1.069311	99
Es	1.178125	0.550816	-0.872413	99
Es	-0.181495	-1.006973	0.800500	99
Es	-0.894289	-1.369604	0.185052	99
Es	-0.018570	-1.516949	1.972979	99
Es	2.012287	-0.582931	-1.482479	99
Es	1.710206	-0.124824	-1.054589	99
Es	0.728962	-0.629982	1.644561	99
Es	-1.922431	0.858417	-0.239699	99
Es	-1.231136	1.131606	-0.321055	99
Es	-1.245312	1.649283	-0.856144	99
Es	-0.473623	-0.241770	-1.375033	99
Es	-0.314719	-1.158517	0.194386	99
Es	-0.259204	0.017068	-0.703502	99
42
Properties=species:S:1:pos:R:3:Z:I:1 energy=-287.27376147143144 field_type=dipole dipole="0.000000 0.000000 0.000000" charge=0
C	0.031679	-0.882899	1.583466	6
N	-0.314371	-1.158949	0.194166	7
C	-0.259201	0.017131	-0.703624	6
C	-1.231141	1.131611	-0.321054	6
C	1.178039	0.551001	-0.872374	6
O	2.054878	-0.528729	-1.188204	8
H	-0.035381	-1.813479	2.157446	1
H	-0.653091	-0.166059	2.046616	1
H	1.059028	-0.521129	1.685846	1
H	-1.261301	-1.540959	0.167426	1
H	-0.567611	-0.366139	-1.685624	1
H	-0.942141	1.625841	0.611546	1
H	-2.247711	0.741841	-0.203694	1
H	-1.259351	1.896441	-1.104594	1
H	1.543369	1.035171	0.038566	1
H	1.228549	1.279521	-1.687594	1
H	1.675759	-1.300209	-0.718314	1
Es	-0.078654	-1.403873	0.066123	99
Es	-0.018562	-1.516973	1.972980	99
Es	2.325225	-0.462176	-1.066189	99
Es	-0.181537	-1.007261	0.800638	99
Es	2.054606	-0.528720	-1.187968	99
Es	-0.314701	-1.158530	0.194381	99
Es	-1.231134	1.131606	-0.321055	99
Es	2.017251	-0.583962	-1.485453	99
Es	-0.748028	0.587045	-0.496514	99
Es	1.178123	0.550814	-0.872413	99
Es	-1.245305	1.649303	-0.856155	99
Es	-1.922410	0.858472	-0.239694	99
Es	-0.259204	0.017068	-0.703501	99
Es	1.200128	1.052333	-1.428076	99
Es	-0.894247	-1.369056	0.184976	99
Es	1.709491	-0.124785	-1.056151	99
Es	1.851825	-0.924597	-0.929998	99
Es	-0.301991	-0.626092	-0.159524	99
Es	0.454578	0.287199	-0.767988	99
Es	0.728947	-0.629975	1.644559	99
Es	1.415377	0.889722	-0.236775	99
Es	-1.030803	1.463891	0.315707	99
Es	-0.473605	-0.241817	-1.374989	99
Es	0.031648	-0.882923	1.583338	99
Es	-0.437342	-0.383731	1.902440	99
42
Properties=species:S:1:pos:R:3:Z:I:1 energy=-287.27376147143144 field_type=dipole dipole="0.000000 0.000000 0.000000" charge=0
C	0.031679	-0.882899	1.583466	6
N	-0.314371	-1.158949	0.194166	7
C	-0.259201	0.017131	-0.703624	6
C	-1.231141	1.131611	-0.321054	6
C	1.178039	0.551001	-0.872374	6
O	2.054878	-0.528729	-1.188204	8
H	-0.035381	-1.813479	2.157446	1
H	-0.653091	-0.166059	2.046616	1
H	1.059028	-0.521129	1.685846	1
H	-1.261301	-1.540959	0.167426	1
H	-0.567611	-0.366139	-1.685624	1
H	-0.942141	1.625841	0.611546	1
H	-2.247711	0.741841	-0.203694	1
H	-1.259351	1.896441	-1.104594	1
H	1.543369	1.035171	0.038566	1
H	1.228549	1.279521	-1.687594	1
H	1.675759	-1.300209	-0.718314	1
Es	-1.245351	1.649364	-0.856132	99
Es	2.054519	-0.528735	-1.188034	99
Es	-0.078920	-1.403352	0.066686	99
Es	-0.437348	-0.383702	1.902450	99
Es	-1.030884	1.463851	0.315729	99
Es	0.728915	-0.630004	1.644567	99
Es	-0.314702	-1.158542	0.194383	99
Es	-0.301765	-0.626373	-0.160015	99
Es	-1.922339	0.858441	-0.239728	99
Es	-0.894306	-1.369581	0.184890	99
Es	1.178125	0.550815	-0.872413	99
Es	-0.018536	-1.516939	1.972994	99
Es	-0.259204	0.017065	-0.703500	99
Es	-0.473591	-0.241755	-1.375033	99
Es	1.850788	-0.925123	-0.931729	99
Es	-0.181443	-1.007048	0.800620	99
Es	-0.747918	0.587076	-0.496509	99
Es	0.454498	0.287152	-0.768014	99
Es	1.200164	1.052335	-1.428028	99
Es	0.031648	-0.882923	1.583337	99
Es	1.709694	-0.124517	-1.055678	99
Es	2.326538	-0.462973	-1.066091	99
Es	-1.231142	1.131606	-0.321054	99
Es	1.415333	0.889713	-0.236775	99
Es	2.016905	-0.582869	-1.484223	99
42
Properties=species:S:1:pos:R:3:Z:I:1 energy=-287.27376147143144 field_type=dipole dipole="0.000000 0.000000 0.000000" charge=0
C	0.031679	-0.882899	1.583466	6
N	-0.314371	-1.158949	0.194166	7
C	-0.259201	0.017131	-0.703624	6
C	-1.231141	1.131611	-0.321054	6
C	1.178039	0.551001	-0.872374	6
O	2.054878	-0.528729	-1.188204	8
H	-0.035381	-1.813479	2.157446	1
H	-0.653091	-0.166059	2.046616	1
H	1.059028	-0.521129	1.685846	1
H	-1.261301	-1.540959	0.167426	1
H	-0.567611	-0.366139	-1.685624	1
H	-0.942141	1.625841	0.611546	1
H	-2.247711	0.741841	-0.203694	1
H	-1.259351	1.896441	-1.104594	1
H	1.543369	1.035171	0.038566	1
H	1.228549	1.279521	-1.687594	1
H	1.675759	-1.300209	-0.718314	1
Es	1.178124	0.550817	-0.872413	99
Es	1.200159	1.052287	-1.428015	99
Es	2.329979	-0.462954	-1.071237	99
Es	-0.314704	-1.158516	0.194380	99
Es	0.728883	-0.629977	1.644610	99
Es	-0.437289	-0.383738	1.902405	99
Es	2.011432	-0.583659	-1.481666	99
Es	-1.231134	1.131608	-0.321054	99
Es	1.710410	-0.124036	-1.054729	99
Es	-0.078814	-1.402997	0.066747	99
Es	-1.030843	1.463921	0.315687	99
Es	-0.018566	-1.516947	1.973047	99
Es	2.054630	-0.528699	-1.187946	99
Es	-0.259203	0.017065	-0.703499	99
Es	-1.245352	1.649289	-0.856117	99
Es	0.031648	-0.882924	1.583338	99
Es	1.852002	-0.924891	-0.930170	99
Es	-0.473620	-0.241731	-1.374979	99
Es	-0.301882	-0.626313	-0.159900	99
Es	1.415379	0.889761	-0.236855	99
Es	0.454462	0.287162	-0.768016	99
Es	-0.181483	-1.007097	0.800573	99
Es	-1.922379	0.858516	-0.239693	99
Es	-0.747914	0.587021	-0.496526	99
Es	-0.894247	-1.369988	0.184725	99
42
Properties=species:S:1:pos:R:3:Z:I:1 energy=-287.27376147143144 field_type=dipole dipole="0.000000 0.000000 0.000000" charge=0
C	0.031679	-0.882899	1.583466	6
N	-0.314371	-1.158949	0.194166	7
C	-0.259201	0.017131	-0.703624	6
C	-1.231141	1.131611	-0.321054	6
C	1.178039	0.551001	-0.872374	6
O	2.054878	-0.528729	-1.188204	8
H	-0.035381	-1.813479	2.157446	1
H	-0.653091	-0.166059	2.046616	1
H	1.059028	-0.521129	1.685846	1
H	-1.261301	-1.540959	0.167426	1
H	-0.567611	-0.366139	-1.685624	1
H	-0.942141	1.625841	0.611546	1
H	-2.247711	0.741841	-0.203694	1
H	-1.259351	1.896441	-1.104594	1
H	1.543369	1.035171	0.038566	1
H	1.228549	1.279521	-1.687594	1
H	1.675759	-1.300209	-0.718314	1
Es	-1.030797	1.463882	0.315638	99
Es	2.054643	-0.528704	-1.187860	99
Es	-1.231135	1.131605	-0.321058	99
Es	-0.259204	0.017069	-0.703502	99
Es	1.710311	-0.123822	-1.054939	99
Es	0.454377	0.287171	-0.768056	99
Es	1.200229	1.052315	-1.427973	99
Es	1.851395	-0.925137	-0.930997	99
Es	-0.301482	-0.626389	-0.160288	99
Es	1.178124	0.550816	-0.872413	99
Es	-0.747962	0.587049	-0.496563	99
Es	-0.079587	-1.403008	0.066880	99
Es	-0.314713	-1.158508	0.194386	99
Es	-0.018562	-1.516927	1.973001	99
Es	2.327155	-0.463447	-1.068506	99
Es	-0.473579	-0.241761	-1.374963	99
Es	-0.437303	-0.383756	1.902441	99
Es	-0.894329	-1.369714	0.184942	99
Es	2.014965	-0.583147	-1.483427	99
Es	-0.180993	-1.007258	0.800602	99
Es	0.031648	-0.882924	1.583339	99
Es	1.415347	0.889730	-0.236891	99
Es	-1.245362	1.649325	-0.856116	99
Es	-1.922398	0.858523	-0.239621	99
Es	0.728888	-0.630000	1.644641	99
42
Properties=species:S:1:pos:R:3:Z:I:1 energy=-287.27376147143144 field_type=dipole dipole="0.000000 0.000000 0.000000" charge=0
C	0.031679	-0.882899	1.583466	6
N	-0.314371	-1.158949	0.194166	7
C	-0.259201	0.017131	-0.703624	6
C	-1.231141	1.131611	-0.321054	6
C	1.178039	0.551001	-0.872374	6
O	2.054878	-0.528729	-1.188204	8
H	-0.035381	-1.813479	2.157446	1
H	-0.653091	-0.166059	2.046616	1
H	1.059028	-0.521129	1.685846	1
H	-1.261301	-1.540959	0.167426	1
H	-0.567611	-0.366139	-1.685624	1
H	-0.942141	1.625841	0.611546	1
H	-2.247711	0.741841	-0.203694	1
H	-1.259351	1.896441	-1.104594	1
H	1.543369	1.035171	0.038566	1
H	1.228549	1.279521	-1.687594	1
H	1.675759	-1.300209	-0.718314	1
Es	-0.079771	-1.402627	0.067216	99
Es	-0.747929	0.586973	-0.496536	99
Es	-0.314693	-1.158544	0.194385	99
Es	1.200181	1.052306	-1.427952	99
Es	0.031648	-0.882923	1.583339	99
Es	-1.245358	1.649279	-0.856115	99
Es	-0.437275	-0.383732	1.902450	99
Es	-0.259204	0.017067	-0.703502	99
Es	0.454383	0.287175	-0.767995	99
Es	0.728865	-0.630033	1.644636	99
Es	-0.018550	-1.516895	1.973028	99
Es	1.850148	-0.925765	-0.932728	99
Es	-1.922361	0.858588	-0.239674	99
Es	-0.894348	-1.369996	0.184706	99
Es	1.709790	-0.123811	-1.055902	99
Es	-0.301239	-0.626515	-0.160499	99
Es	-1.030885	1.463943	0.315645	99
Es	-0.181081	-1.007237	0.800683	99
Es	1.415355	0.889745	-0.236945	99
Es	2.325109	-0.463746	-1.065051	99
Es	-1.231135	1.131607	-0.321056	99
Es	-0.473553	-0.241746	-1.374950	99
Es	2.018826	-0.582206	-1.484130	99
Es	1.178124	0.550820	-0.872413	99
Es	2.054631	-0.528744	-1.187941	99
42
Properties=species:S:1:pos:R:3:Z:I:1 energy=-287.27376147143144 field_type=dipole dipole="0.000000 0.000000 0.000000" charge=0
C	0.031679	-0.882899	1.583466	6
N	-0.314371	-1.158949	0.194166	7
C	-0.259201	0.017131	-0.703624	6
C	-1.231141	1.131611	-0.321054	6
C	1.178039	0.551001	-0.872374	6
O	2.054878	-0.528729	-1.188204	8
H	-0.035381	-1.813479	2.157446	1
H	-0.653091	-0.166059	2.046616	1
H	1.059028	-0.521129	1.685846	1
H	-1.261301	-1.540959	0.167426	1
H	-0.567611	-0.366139	-1.685624	1
H	-0.942141	1.625841	0.611546	1
H	-2.247711	0.741841	-0.203694	1
H	-1.259351	1.896441	-1.104594	1
H	1.543369	1.035171	0.038566	1
H	1.228549	1.279521	-1.687594	1
H	1.675759	-1.300209	-0.718314	1
Es	0.728792	-0.629935	1.644613	99
Es	-1.922354	0.858578	-0.239706	99
Es	-0.473560	-0.241679	-1.374957	99
Es	-0.747842	0.586959	-0.496509	99
Es	0.454354	0.287182	-0.768035	99
Es	-0.181305	-1.007235	0.800691	99
Es	-1.030949	1.463917	0.315637	99
Es	1.709926	-0.123710	-1.055531	99
Es	-0.079346	-1.402865	0.066915	99
Es	-1.245349	1.649316	-0.856095	99
Es	1.178125	0.550817	-0.872412	99
Es	1.200154	1.052247	-1.427915	99
Es	0.031648	-0.882925	1.583344	99
Es	-0.301708	-0.626384	-0.160248	99
Es	2.054636	-0.528720	-1.187917	99
Es	1.851328	-0.925385	-0.931319	99
Es	1.415365	0.889802	-0.236928	99
Es	-0.894086	-1.369964	0.184734	99
Es	-0.314723	-1.158514	0.194379	99
Es	2.326812	-0.463344	-1.067930	99
Es	2.015825	-0.583109	-1.483076	99
Es	-0.018443	-1.516929	1.973048	99
Es	-0.259206	0.017069	-0.703504	99
Es	-0.437281	-0.383811	1.902475	99
Es	-1.231136	1.131606	-0.321056	99
42
Properties=species:S:1:pos:R:3:Z:I:1 energy=-287.27376147143144 field_type=dipole dipole="0.000000 0.000000 0.000000" charge=0
C	0.031679	-0.882899	1.583466	6
N	-0.314371	-1.158949	0.194166	7
C	-0.259201	0.017131	-0.703624	6
C	-1.231141	1.131611	-0.321054	6
C	1.178039	0.551001	-0.872374	6
O	2.054878	-0.528729	-1.188204	8
H	-0.035381	-1.813479	2.157446	1
H	-0.653091	-0.166059	2.046616	1
H	1.059028	-0.521129	1.685846	1
H	-1.261301	-1.540959	0.167426	1
H	-0.567611	-0.366139	-1.685624	1
H	-0.942141	1.625841	0.611546	1
H	-2.247711	0.741841	-0.203694	1
H	-1.259351	1.896441	-1.104594	1
H	1.543369	1.035171	0.038566	1
H	1.228549	1.279521	-1.687594	1
H	1.675759	-1.300209	-0.718314	1
Es	-0.437228	-0.383753	1.902478	99
Es	-0.894050	-1.370026	0.184622	99
Es	-0.314705	-1.158532	0.194382	99
Es	1.709592	-0.123671	-1.055991	99
Es	-0.473587	-0.241686	-1.374835	99
Es	-1.245301	1.649335	-0.856050	99
Es	2.325422	-0.463240	-1.066570	99
Es	0.031646	-0.882924	1.583342	99
Es	1.415304	0.889743	-0.236980	99
Es	-1.231133	1.131607	-0.321056	99
Es	-0.259203	0.017073	-0.703504	99
Es	0.454298	0.287089	-0.768204	99
Es	-0.747887	0.587040	-0.496526	99
Es	-0.301374	-0.626450	-0.160555	99
Es	1.851434	-0.925123	-0.931218	99
Es	-0.018516	-1.516893	1.973041	99
Es	1.200239	1.052295	-1.427848	99
Es	1.178121	0.550822	-0.872413	99
Es	-1.030898	1.463870	0.315597	99
Es	0.728810	-0.630037	1.644656	99
Es	2.017489	-0.583465	-1.483968	99
Es	-0.181638	-1.007031	0.800621	99
Es	-1.922428	0.858618	-0.239681	99
Es	-0.079374	-1.402919	0.067367	99
Es	2.054646	-0.528759	-1.188009	99
42
Properties=species:S:1:pos:R:3:Z:I:1 energy=-287.27376147143144 field_type=dipole dipole="0.000000 0.000000 0.000000" charge=0
C	0.031679	-0.882899	1.583466	6
N	-0.314371	-1.158949	0.194166	7
C	-0.259201	0.017131	-0.703624	6
C	-1.231141	1.131611	-0.321054	6
C	1.178039	0.551001	-0.872374	6
O	2.054878	-0.528729	-1.188204	8
H	-0.035381	-1.813479	2.157446	1
H	-0.653091	-0.166059	2.046616	1
H	1.059028	-0.521129	1.685846	1
H	-1.261301	-1.540959	0.167426	1
H	-0.567611	-0.366139	-1.685624	1
H	-0.942141	1.625841	0.611546	1
H	-2.247711	0.741841	-0.203694	1
H	-1.259351	1.896441	-1.104594	1
H	1.543369	1.035171	0.038566	1
H	1.228549	1.279521	-1.687594	1
H	1.675759	-1.300209	-0.718314	1
Es	-0.181376	-1.007258	0.800618	99
Es	1.200192	1.052310	-1.427848	99
Es	2.018863	-0.583003	-1.483152	99
Es	-0.894149	-1.369986	0.184633	99
Es	-0.473513	-0.241694	-1.374864	99
Es	-1.231133	1.131607	-0.321055	99
Es	-0.018573	-1.516923	1.973122	99
Es	2.054705	-0.528714	-1.188086	99
Es	-0.747869	0.586962	-0.496499	99
Es	1.708832	-0.123925	-1.057096	99
Es	1.415356	0.889738	-0.237036	99
Es	-0.314708	-1.158522	0.194383	99
Es	-0.437134	-0.383797	1.902415	99
Es	-1.922366	0.858567	-0.239666	99
Es	-1.030984	1.463968	0.315562	99
Es	1.850849	-0.925709	-0.932209	99
Es	-0.079461	-1.402794	0.067048	99
Es	1.178119	0.550817	-0.872411	99
Es	2.325316	-0.462944	-1.065256	99
Es	0.454317	0.287210	-0.768009	99
Es	-0.301512	-0.626363	-0.160243	99
Es	-1.245337	1.649284	-0.856157	99
Es	-0.259198	0.017074	-0.703507	99
Es	0.728792	-0.629996	1.644670	99
Es	0.031650	-0.882925	1.583342	99
42
Properties=species:S:1:pos:R:3:Z:I:1 energy=-287.27376147143144 field_type=dipole dipole="0.000000 0.000000 0.000000" charge=0
C	0.031679	-0.882899	1.583466	6
N	-0.314371	-1.158949	0.194166	7
C	-0.259201	0.017131	-0.703624	6
C	-1.231141	1.131611	-0.321054	6
C	1.178039	0.551001	-0.872374	6
O	2.054878	-0.528729	-1.188204	8
H	-0.035381	-1.813479	2.157446	1
H	-0.653091	-0.166059	2.046616	1
H	1.059028	-0.521129	1.685846	1
H	-1.261301	-1.540959	0.167426	1
H	-0.567611	-0.366139	-1.685624	1
H	-0.942141	1.625841	0.611546	1
H	-2.247711	0.741841	-0.203694	1
H	-1.259351	1.896441	-1.104594	1
H	1.543369	1.035171	0.038566	1
H	1.228549	1.279521	-1.687594	1
H	1.675759	-1.300209	-0.718314	1
Es	1.200171	1.052305	-1.427854	99
Es	-0.259205	0.017065	-0.703507	99
Es	-0.018547	-1.516869	1.973106	99
Es	2.327170	-0.463414	-1.069062	99
Es	-1.922363	0.858622	-0.239648	99
Es	-0.301577	-0.626352	-0.160406	99
Es	0.454322	0.287123	-0.768067	99
Es	1.178122	0.550822	-0.872412	99
Es	-0.473514	-0.241685	-1.374806	99
Es	-0.747842	0.587013	-0.496576	99
Es	1.710013	-0.123309	-1.055483	99
Es	2.054640	-0.528743	-1.188016	99
Es	-0.437144	-0.383784	1.902447	99
Es	-1.245375	1.649322	-0.856070	99
Es	1.851810	-0.925449	-0.930924	99
Es	2.014960	-0.583402	-1.482300	99
Es	0.031648	-0.882924	1.583340	99
Es	1.415334	0.889750	-0.237062	99
Es	-1.030961	1.463921	0.315557	99
Es	-0.079616	-1.402538	0.067165	99
Es	-1.231134	1.131610	-0.321056	99
Es	-0.314686	-1.158540	0.194369	99
Es	-0.181337	-1.007308	0.800692	99
Es	-0.894000	-1.370222	0.184587	99
Es	0.728789	-0.630030	1.644685	99
42
Properties=species:S:1:pos:R:3:Z:I:1 energy=-287.27376147143144 field_type=dipole dipole="0.000000 0.000000 0.000000" charge=0
C	0.031679	-0.882899	1.583466	6
N	-0.314371	-1.158949	0.194166	7
C	-0.259201	0.017131	-0.703624	6
C	-1.231141	1.131611	-0.321054	6
C	1.178039	0.551001	-0.872374	6
O	2.054878	-0.528729	-1.188204	8
H	-0.035381	-1.813479	2.157446	1
H	-0.653091	-0.166059	2.046616	1
H	1.059028	-0.521129	1.685846	1
H	-1.261301	-1.540959	0.167426	1
H	-0.567611	-0.366139	-1.685624	1
H	-0.942141	1.625841	0.611546	1
H	-2.247711	0.741841	-0.203694	1
H	-1.259351	1.896441	-1.104594	1
H	1.543369	1.035171	0.038566	1
H	1.228549	1.279521	-1.687594	1
H	1.675759	-1.300209	-0.718314	1
Es	2.054488	-0.528757	-1.188086	99
Es	-0.314701	-1.158540	0.194373	99
Es	0.031648	-0.882924	1.583341	99
Es	-0.301557	-0.626353	-0.160537	99
Es	0.728708	-0.629918	1.644655	99
Es	-1.245408	1.649319	-0.856093	99
Es	-0.259205	0.017069	-0.703505	99
Es	-0.018417	-1.516925	1.973105	99
Es	-0.079672	-1.402252	0.067329	99
Es	-1.231133	1.131607	-0.321055	99
Es	2.325856	-0.463460	-1.067408	99
Es	-0.437179	-0.383878	1.902492	99
Es	1.851384	-0.925827	-0.931682	99
Es	-0.473434	-0.241698	-1.374831	99
Es	1.178122	0.550819	-0.872411	99
Es	1.415319	0.889765	-0.237076	99
Es	-1.031045	1.463947	0.315582	99
Es	1.709651	-0.123387	-1.055861	99
Es	-0.893971	-1.370534	0.184556	99
Es	2.017233	-0.582896	-1.482743	99
Es	-1.922309	0.858556	-0.239691	99
Es	1.200182	1.052290	-1.427830	99
Es	-0.181309	-1.007255	0.800663	99
Es	0.454279	0.287194	-0.768027	99
Es	-0.747854	0.587019	-0.496560	99
42
Properties=species:S:1:pos:R:3:Z:I:1 energy=-287.27376147143144 field_type=dipole dipole="0.000000 0.000000 0.000000" charge=0
C	0.031679	-0.882899	1.583466	6
N	-0.314371	-1.158949	0.194166	7
C	-0.259201	0.017131	-0.703624	6
C	-1.231141	1.131611	-0.321054	6
C	1.178039	0.551001	-0.872374	6
O	2.054878	-0.528729	-1.188204	8
H	-0.035381	-1.813479	2.157446	1
H	-0.653091	-0.166059	2.046616	1
H	1.059028	-0.521129	1.685846	1
H	-1.261301	-1.540959	0.167426	1
H	-0.567611	-0.366139	-1.685624	1
H	-0.942141	1.625841	0.611546	1
H	-2.247711	0.741841	-0.203694	1
H	-1.259351	1.896441	-1.104594	1
H	1.543369	1.035171	0.038566	1
H	1.228549	1.279521	-1.687594	1
H	1.675759	-1.300209	-0.718314	1
Es	0.031647	-0.882924	1.583341	99
Es	1.415333	0.889769	-0.237135	99
Es	0.728707	-0.630035	1.644628	99
Es	-0.437047	-0.383803	1.902516	99
Es	-0.018466	-1.516889	1.973143	99
Es	1.200192	1.052280	-1.427781	99
Es	-0.181428	-1.007300	0.800704	99
Es	2.018592	-0.582722	-1.482647	99
Es	-0.259205	0.017070	-0.703505	99
Es	-1.031058	1.463858	0.315504	99
Es	-0.893970	-1.370264	0.184520	99
Es	-1.922352	0.858631	-0.239654	99
Es	-1.245355	1.649406	-0.856070	99
Es	-0.473477	-0.241696	-1.374814	99
Es	-1.231133	1.131606	-0.321055	99
Es	1.709350	-0.123105	-1.056466	99
Es	-0.747800	0.586992	-0.496540	99
Es	-0.314691	-1.158553	0.194361	99
Es	1.178120	0.550822	-0.872411	99
Es	2.325084	-0.463748	-1.066558	99
Es	2.054661	-0.528690	-1.187787	99
Es	-0.079894	-1.402425	0.067426	99
Es	-0.301312	-0.626374	-0.160635	99
Es	0.454224	0.287134	-0.768050	99
Es	1.850953	-0.926058	-0.932338	99
42
Properties=species:S:1:pos:R:3:Z:I:1 energy=-287.27376147143144 field_type=dipole dipole="0.000000 0.000000 0.000000" charge=0
C	0.031679	-0.882899	1.583466	6
N	-0.314371	-1.158949	0.194166	7
C	-0.259201	0.017131	-0.703624	6
C	-1.231141	1.131611	-0.321054	6
C	1.178039	0.551001	-0.872374	6
O	2.054878	-0.528729	-1.188204	8
H	-0.035381	-1.813479	2.157446	1
H	-0.653091	-0.166059	2.046616	1
H	1.059028	-0.521129	1.685846	1
H	-1.261301	-1.540959	0.167426	1
H	-0.567611	-0.366139	-1.685624	1
H	-0.942141	1.625841	0.611546	1
H	-2.247711	0.741841	-0.203694	1
H	-1.259351	1.896441	-1.104594	1
H	1.543369	1.035171	0.038566	1
H	1.228549	1.279521	-1.687594	1
H	1.675759	-1.300209	-0.718314	1
Es	2.326237	-0.463518	-1.068755	99
Es	-1.922409	0.858644	-0.239586	99
Es	-0.893910	-1.370213	0.184594	99
Es	-1.245333	1.649349	-0.856101	99
Es	1.709773	-0.122964	-1.056046	99
Es	-1.231135	1.131607	-0.321056	99
Es	2.016056	-0.583929	-1.482437	99
Es	-0.259203	0.017074	-0.703505	99
Es	-0.018673	-1.516828	1.973161	99
Es	1.200195	1.052311	-1.427801	99
Es	-0.314701	-1.158524	0.194376	99
Es	-0.301480	-0.626397	-0.160600	99
Es	0.454304	0.287197	-0.768073	99
Es	1.178121	0.550820	-0.872412	99
Es	-0.747840	0.586941	-0.496520	99
Es	1.415295	0.889745	-0.237093	99
Es	-0.473421	-0.241666	-1.374755	99
Es	-0.437023	-0.383801	1.902389	99
Es	0.031652	-0.882924	1.583339	99
Es	0.728817	-0.630074	1.644743	99
Es	-0.079882	-1.402498	0.067277	99
Es	2.054573	-0.528702	-1.187952	99
Es	1.851992	-0.925244	-0.930595	99
Es	-1.031044	1.463924	0.315398	99
Es	-0.181287	-1.007347	0.800707	99
42
Properties=species:S:1:pos:R:3:Z:I:1 energy=-287.27376147143144 field_type=dipole dipole="0.000000 0.000000 0.000000" charge=0
C	0.031679	-0.882899	1.583466	6
N	-0.314371	-1.158949	0.194166	7
C	-0.259201	0.017131	-0.703624	6
C	-1.231141	1.131611	-0.321054	6
C	1.178039	0.551001	-0.872374	6
O	2.054878	-0.528729	-1.188204	8
H	-0.035381	-1.813479	2.157446	1
H	-0.653091	-0.166059	2.046616	1
H	1.059028	-0.521129	1.685846	1
H	-1.261301	-1.540959	0.167426	1
H	-0.567611	-0.366139	-1.685624	1
H	-0.942141	1.625841	0.611546	1
H	-2.247711	0.741841	-0.203694	1
H	-1.259351	1.896441	-1.104594	1
H	1.543369	1.035171	0.038566	1
H	1.228549	1.279521	-1.687594	1
H	1.675759	-1.300209	-0.718314	1
Es	-1.922326	0.858656	-0.239667	99
Es	1.710006	-0.122696	-1.055348	99
Es	0.454174	0.287156	-0.767932	99
Es	-0.301637	-0.626296	-0.160525	99
Es	-0.473393	-0.241670	-1.374779	99
Es	2.054676	-0.528737	-1.188052	99
Es	-0.259204	0.017072	-0.703508	99
Es	-0.018452	-1.516849	1.973178	99
Es	-0.079713	-1.402138	0.067340	99
Es	1.851214	-0.926397	-0.932365	99
Es	1.415349	0.889759	-0.237249	99
Es	-0.747814	0.586964	-0.496633	99
Es	-0.437057	-0.383846	1.902484	99
Es	-1.031070	1.463934	0.315517	99
Es	0.031649	-0.882923	1.583344	99
Es	-0.893834	-1.370616	0.184497	99
Es	1.200204	1.052298	-1.427795	99
Es	2.325663	-0.464192	-1.067891	99
Es	-0.181391	-1.007400	0.800651	99
Es	1.178125	0.550822	-0.872411	99
Es	-0.314722	-1.158544	0.194373	99
Es	-1.231136	1.131604	-0.321060	99
Es	-1.245404	1.649336	-0.856028	99
Es	0.728682	-0.629996	1.644670	99
Es	2.017086	-0.582320	-1.482109	99
