39
Properties=species:S:1:pos:R:3:Z:I:1 energy=-286.0629367450184 field_type=dipole dipole="0.000000 0.000000 0.000000" charge=0
C	-0.616235	-2.274364	-0.579593	6
O	-1.007205	-1.027314	-0.021803	8
C	0.109395	-0.143764	0.203117	6
C	0.408025	0.837196	-0.895093	6
C	-0.250645	1.312646	0.365217	6
N	0.497015	2.170536	1.286977	7
H	-1.512525	-2.880604	-0.735483	1
H	0.051975	-2.803124	0.106807	1
H	-0.121455	-2.122334	-1.543623	1
H	0.941755	-0.518094	0.790617	1
H	-0.198675	0.801406	-1.792363	1
H	1.442575	1.102536	-1.073153	1
H	-1.307215	1.562576	0.287717	1
H	1.466625	1.871716	1.377277	1
H	0.096585	2.110986	2.223387	1
Es	-0.823099	-1.490392	-0.237262	99
Es	-1.225857	-2.687255	-0.685691	99
Es	1.075040	1.961503	1.339961	99
Es	-0.616290	-2.274168	-0.579503	99
Es	0.255200	2.108232	1.849409	99
Es	0.678271	-0.405722	0.601753	99
Es	-0.149484	-2.639033	-0.110462	99
Es	1.111787	1.018814	-1.005440	99
Es	0.109213	-0.143780	0.202974	99
Es	0.497024	2.169960	1.287171	99
Es	-1.172579	-0.883664	-0.235615	99
Es	-0.138769	0.529862	0.460546	99
Es	-0.555035	-0.720308	0.051861	99
Es	-1.120360	-1.093248	0.256118	99
Es	0.347206	0.208897	-0.461116	99
Es	-0.002277	0.806839	-1.495501	99
Es	0.487443	2.497748	1.175420	99
Es	-0.269960	-2.173521	-1.241444	99
Es	-0.250452	1.312610	0.365220	99
Es	0.085526	1.243612	-0.339132	99
Es	-0.961259	1.477496	0.317144	99
Es	0.186972	1.765462	0.900720	99
Es	-1.006852	-1.027440	-0.021822	99
Es	0.407977	0.837163	-0.894940	99
39
Properties=species:S:1:pos:R:3:Z:I:1 energy=-286.0629367450184 field_type=dipole dipole="0.000000 0.000000 0.000000" charge=0
C	-0.616235	-2.274364	-0.579593	6
O	-1.007205	-1.027314	-0.021803	8
C	0.109395	-0.143764	0.203117	6
C	0.408025	0.837196	-0.895093	6
C	-0.250645	1.312646	0.365217	6
N	0.497015	2.170536	1.286977	7
H	-1.512525	-2.880604	-0.735483	1
H	0.051975	-2.803124	0.106807	1
H	-0.121455	-2.122334	-1.543623	1
H	0.941755	-0.518094	0.790617	1
H	-0.198675	0.801406	-1.792363	1
H	1.442575	1.102536	-1.073153	1
H	-1.307215	1.562576	0.287717	1
H	1.466625	1.871716	1.377277	1
H	0.096585	2.110986	2.223387	1
Es	0.678257	-0.405690	0.601695	99
Es	0.085570	1.243630	-0.339093	99
Es	-1.171354	-0.885470	-0.235925	99
Es	0.497024	2.169952	1.287155	99
Es	-0.149443	-2.638962	-0.110521	99
Es	0.109209	-0.143783	0.202979	99
Es	0.407976	0.837154	-0.894940	99
Es	1.074994	1.961733	1.339728	99
Es	-1.006931	-1.027353	-0.021859	99
Es	-0.250456	1.312598	0.365228	99
Es	0.347372	0.208825	-0.461151	99
Es	-0.823362	-1.491427	-0.235613	99
Es	-1.121154	-1.091285	0.257130	99
Es	-0.616289	-2.274169	-0.579504	99
Es	-0.555128	-0.719537	0.049538	99
Es	-0.138937	0.529877	0.460711	99
Es	-0.002199	0.806797	-1.495560	99
Es	0.186930	1.765303	0.900750	99
Es	1.111601	1.018855	-1.005411	99
Es	-0.270017	-2.173563	-1.241499	99
Es	-0.961177	1.477616	0.317053	99
Es	-1.225822	-2.687317	-0.685576	99
Es	0.487234	2.497930	1.175552	99
Es	0.255489	2.107956	1.849501	99
39
Properties=species:S:1:pos:R:3:Z:I:1 energy=-286.0629367450184 field_type=dipole dipole="0.000000 0.000000 0.000000" charge=0
C	-0.616235	-2.274364	-0.579593	6
O	-1.007205	-1.027314	-0.021803	8
C	0.109395	-0.143764	0.203117	6
C	0.408025	0.837196	-0.895093	6
C	-0.250645	1.312646	0.365217	6
N	0.497015	2.170536	1.286977	7
H	-1.512525	-2.880604	-0.735483	1
H	0.051975	-2.803124	0.106807	1
H	-0.121455	-2.122334	-1.543623	1
H	0.941755	-0.518094	0.790617	1
H	-0.198675	0.801406	-1.792363	1
H	1.442575	1.102536	-1.073153	1
H	-1.307215	1.562576	0.287717	1
H	1.466625	1.871716	1.377277	1
H	0.096585	2.110986	2.223387	1
Es	-0.149417	-2.638944	-0.110553	99
Es	-0.961093	1.477568	0.317122	99
Es	-0.002035	0.806760	-1.495437	99
Es	-0.616290	-2.274170	-0.579504	99
Es	0.678197	-0.405660	0.601652	99
Es	-1.119225	-1.092428	0.255758	99
Es	0.109210	-0.143777	0.202978	99
Es	-1.173588	-0.884567	-0.235349	99
Es	0.085430	1.243990	-0.339288	99
Es	-0.270036	-2.173610	-1.241411	99
Es	1.111527	1.018828	-1.005484	99
Es	-1.225821	-2.687366	-0.685616	99
Es	-1.006870	-1.027411	-0.021844	99
Es	0.407977	0.837161	-0.894939	99
Es	-0.250454	1.312600	0.365223	99
Es	0.487094	2.497826	1.175762	99
Es	-0.555202	-0.719435	0.050825	99
Es	0.255429	2.107805	1.849455	99
Es	1.075125	1.961910	1.339732	99
Es	0.347372	0.208712	-0.461144	99
Es	0.186987	1.765360	0.900622	99
Es	-0.823016	-1.491174	-0.236127	99
Es	-0.138940	0.529717	0.460797	99
Es	0.497026	2.169972	1.287136	99
39
Properties=species:S:1:pos:R:3:Z:I:1 energy=-286.0629367450184 field_type=dipole dipole="0.000000 0.000000 0.000000" charge=0
C	-0.616235	-2.274364	-0.579593	6
O	-1.007205	-1.027314	-0.021803	8
C	0.109395	-0.143764	0.203117	6
C	0.408025	0.837196	-0.895093	6
C	-0.250645	1.312646	0.365217	6
N	0.497015	2.170536	1.286977	7
H	-1.512525	-2.880604	-0.735483	1
H	0.051975	-2.803124	0.106807	1
H	-0.121455	-2.122334	-1.543623	1
H	0.941755	-0.518094	0.790617	1
H	-0.198675	0.801406	-1.792363	1
H	1.442575	1.102536	-1.073153	1
H	-1.307215	1.562576	0.287717	1
H	1.466625	1.871716	1.377277	1
H	0.096585	2.110986	2.223387	1
Es	-1.170470	-0.884702	-0.235209	99
Es	-1.225787	-2.687434	-0.685545	99
Es	0.407976	0.837160	-0.894938	99
Es	0.085351	1.244206	-0.339293	99
Es	1.075243	1.961756	1.339681	99
Es	0.186718	1.765556	0.900540	99
Es	-0.270000	-2.173609	-1.241462	99
Es	-0.554722	-0.719775	0.051914	99
Es	1.111441	1.018774	-1.005506	99
Es	-0.250452	1.312605	0.365213	99
Es	0.255420	2.107930	1.849434	99
Es	-0.961025	1.477549	0.317220	99
Es	0.497022	2.169977	1.287149	99
Es	-0.138993	0.529828	0.460821	99
Es	0.347531	0.208489	-0.461305	99
Es	-1.006846	-1.027403	-0.021907	99
Es	-0.823701	-1.491186	-0.237056	99
Es	-1.122208	-1.091981	0.255564	99
Es	0.109212	-0.143775	0.202976	99
Es	0.678096	-0.405611	0.601611	99
Es	0.487246	2.497581	1.175956	99
Es	-0.616289	-2.274171	-0.579504	99
Es	-0.149452	-2.638870	-0.110600	99
Es	-0.001921	0.806777	-1.495388	99
39
Properties=species:S:1:pos:R:3:Z:I:1 energy=-286.0629367450184 field_type=dipole dipole="0.000000 0.000000 0.000000" charge=0
C	-0.616235	-2.274364	-0.579593	6
O	-1.007205	-1.027314	-0.021803	8
C	0.109395	-0.143764	0.203117	6
C	0.408025	0.837196	-0.895093	6
C	-0.250645	1.312646	0.365217	6
N	0.497015	2.170536	1.286977	7
H	-1.512525	-2.880604	-0.735483	1
H	0.051975	-2.803124	0.106807	1
H	-0.121455	-2.122334	-1.543623	1
H	0.941755	-0.518094	0.790617	1
H	-0.198675	0.801406	-1.792363	1
H	1.442575	1.102536	-1.073153	1
H	-1.307215	1.562576	0.287717	1
H	1.466625	1.871716	1.377277	1
H	0.096585	2.110986	2.223387	1
Es	-1.173429	-0.884599	-0.233859	99
Es	-0.960937	1.477499	0.317174	99
Es	-1.006818	-1.027336	-0.022080	99
Es	1.075133	1.961842	1.339815	99
Es	-0.270188	-2.173678	-1.241531	99
Es	0.186764	1.765249	0.900761	99
Es	-0.616288	-2.274176	-0.579506	99
Es	0.497017	2.170007	1.287144	99
Es	1.111346	1.018749	-1.005522	99
Es	0.255365	2.108436	1.849525	99
Es	-0.001856	0.806796	-1.495370	99
Es	-0.250454	1.312598	0.365222	99
Es	0.347603	0.208447	-0.461360	99
Es	-0.149353	-2.638913	-0.110640	99
Es	0.085304	1.244301	-0.339284	99
Es	0.109213	-0.143771	0.202973	99
Es	-0.555077	-0.719121	0.051299	99
Es	-0.823291	-1.490938	-0.237455	99
Es	0.678047	-0.405589	0.601539	99
Es	-0.139011	0.529754	0.460968	99
Es	-1.119266	-1.093032	0.255386	99
Es	0.487344	2.497356	1.175542	99
Es	0.407977	0.837162	-0.894940	99
Es	-1.225756	-2.687373	-0.685431	99
39
Properties=species:S:1:pos:R:3:Z:I:1 energy=-286.0629367450184 field_type=dipole dipole="0.000000 0.000000 0.000000" charge=0
C	-0.616235	-2.274364	-0.579593	6
O	-1.007205	-1.027314	-0.021803	8
C	0.109395	-0.143764	0.203117	6
C	0.408025	0.837196	-0.895093	6
C	-0.250645	1.312646	0.365217	6
N	0.497015	2.170536	1.286977	7
H	-1.512525	-2.880604	-0.735483	1
H	0.051975	-2.803124	0.106807	1
H	-0.121455	-2.122334	-1.543623	1
H	0.941755	-0.518094	0.790617	1
H	-0.198675	0.801406	-1.792363	1
H	1.442575	1.102536	-1.073153	1
H	-1.307215	1.562576	0.287717	1
H	1.466625	1.871716	1.377277	1
H	0.096585	2.110986	2.223387	1
Es	1.111281	1.018741	-1.005507	99
Es	0.407975	0.837161	-0.894936	99
Es	-0.823612	-1.490999	-0.237882	99
Es	0.488284	2.497272	1.174762	99
Es	-0.960852	1.477452	0.317204	99
Es	0.497026	2.169974	1.287152	99
Es	-0.139046	0.529683	0.461026	99
Es	-1.173709	-0.883870	-0.233728	99
Es	0.186554	1.765073	0.901041	99
Es	-0.616289	-2.274172	-0.579505	99
Es	-0.001762	0.806870	-1.495338	99
Es	-0.149429	-2.638962	-0.110598	99
Es	0.677954	-0.405537	0.601569	99
Es	-0.250454	1.312598	0.365221	99
Es	1.074611	1.961017	1.340277	99
Es	-1.118804	-1.093182	0.255091	99
Es	0.347698	0.208332	-0.461515	99
Es	-1.225721	-2.687354	-0.685548	99
Es	-1.006846	-1.027411	-0.021930	99
Es	0.085280	1.244454	-0.339313	99
Es	-0.270093	-2.173666	-1.241470	99
Es	0.255075	2.109542	1.849588	99
Es	-0.554952	-0.719577	0.051738	99
Es	0.109216	-0.143770	0.202969	99
39
Properties=species:S:1:pos:R:3:Z:I:1 energy=-286.0629367450184 field_type=dipole dipole="0.000000 0.000000 0.000000" charge=0
C	-0.616235	-2.274364	-0.579593	6
O	-1.007205	-1.027314	-0.021803	8
C	0.109395	-0.143764	0.203117	6
C	0.408025	0.837196	-0.895093	6
C	-0.250645	1.312646	0.365217	6
N	0.497015	2.170536	1.286977	7
H	-1.512525	-2.880604	-0.735483	1
H	0.051975	-2.803124	0.106807	1
H	-0.121455	-2.122334	-1.543623	1
H	0.941755	-0.518094	0.790617	1
H	-0.198675	0.801406	-1.792363	1
H	1.442575	1.102536	-1.073153	1
H	-1.307215	1.562576	0.287717	1
H	1.466625	1.871716	1.377277	1
H	0.096585	2.110986	2.223387	1
Es	0.085275	1.244606	-0.339485	99
Es	0.677912	-0.405529	0.601477	99
Es	1.074939	1.961558	1.339917	99
Es	-0.270073	-2.173664	-1.241417	99
Es	0.407975	0.837160	-0.894936	99
Es	-1.006818	-1.027442	-0.021810	99
Es	-0.250454	1.312597	0.365221	99
Es	-1.172424	-0.884551	-0.234309	99
Es	-0.139112	0.529819	0.461140	99
Es	1.111182	1.018730	-1.005546	99
Es	0.497026	2.169967	1.287155	99
Es	-0.554919	-0.719267	0.052005	99
Es	0.186536	1.765304	0.900764	99
Es	0.347769	0.208128	-0.461426	99
Es	-0.001656	0.806791	-1.495296	99
Es	0.487662	2.497453	1.175496	99
Es	-1.225740	-2.687387	-0.685585	99
Es	-0.823585	-1.491637	-0.236970	99
Es	0.255368	2.108604	1.849508	99
Es	-0.960783	1.477450	0.317196	99
Es	-0.616289	-2.274173	-0.579505	99
Es	0.109214	-0.143769	0.202974	99
Es	-0.149441	-2.638953	-0.110644	99
Es	-1.120177	-1.092125	0.254444	99
39
Properties=species:S:1:pos:R:3:Z:I:1 energy=-286.0629367450184 field_type=dipole dipole="0.000000 0.000000 0.000000" charge=0
C	-0.616235	-2.274364	-0.579593	6
O	-1.007205	-1.027314	-0.021803	8
C	0.109395	-0.143764	0.203117	6
C	0.408025	0.837196	-0.895093	6
C	-0.250645	1.312646	0.365217	6
N	0.497015	2.170536	1.286977	7
H	-1.512525	-2.880604	-0.735483	1
H	0.051975	-2.803124	0.106807	1
H	-0.121455	-2.122334	-1.543623	1
H	0.941755	-0.518094	0.790617	1
H	-0.198675	0.801406	-1.792363	1
H	1.442575	1.102536	-1.073153	1
H	-1.307215	1.562576	0.287717	1
H	1.466625	1.871716	1.377277	1
H	0.096585	2.110986	2.223387	1
Es	-0.823745	-1.491678	-0.237371	99
Es	-1.006873	-1.027377	-0.021963	99
Es	-1.120303	-1.092203	0.254251	99
Es	-0.149506	-2.639021	-0.110626	99
Es	0.255530	2.108336	1.849509	99
Es	-0.270021	-2.173672	-1.241354	99
Es	0.407976	0.837159	-0.894938	99
Es	-1.172128	-0.884396	-0.233927	99
Es	0.085237	1.244825	-0.339484	99
Es	1.074985	1.961835	1.339796	99
Es	-0.139091	0.529745	0.461207	99
Es	-0.554857	-0.719370	0.052395	99
Es	-0.616288	-2.274175	-0.579506	99
Es	-0.960718	1.477403	0.317242	99
Es	1.111108	1.018660	-1.005623	99
Es	0.347812	0.208036	-0.461530	99
Es	-1.225740	-2.687338	-0.685681	99
Es	-0.250454	1.312594	0.365219	99
Es	0.109213	-0.143770	0.202974	99
Es	0.186616	1.765136	0.900894	99
Es	0.497023	2.169972	1.287155	99
Es	-0.001602	0.806852	-1.495203	99
Es	0.487354	2.497616	1.175516	99
Es	0.677860	-0.405499	0.601415	99
39
Properties=species:S:1:pos:R:3:Z:I:1 energy=-286.0629367450184 field_type=dipole dipole="0.000000 0.000000 0.000000" charge=0
C	-0.616235	-2.274364	-0.579593	6
O	-1.007205	-1.027314	-0.021803	8
C	0.109395	-0.143764	0.203117	6
C	0.408025	0.837196	-0.895093	6
C	-0.250645	1.312646	0.365217	6
N	0.497015	2.170536	1.286977	7
H	-1.512525	-2.880604	-0.735483	1
H	0.051975	-2.803124	0.106807	1
H	-0.121455	-2.122334	-1.543623	1
H	0.941755	-0.518094	0.790617	1
H	-0.198675	0.801406	-1.792363	1
H	1.442575	1.102536	-1.073153	1
H	-1.307215	1.562576	0.287717	1
H	1.466625	1.871716	1.377277	1
H	0.096585	2.110986	2.223387	1
Es	-0.250454	1.312594	0.365221	99
Es	-0.149451	-2.638971	-0.110692	99
Es	-1.007006	-1.027367	-0.021859	99
Es	1.074947	1.961621	1.339926	99
Es	-0.139155	0.529760	0.461284	99
Es	0.497034	2.169972	1.287158	99
Es	0.407971	0.837158	-0.894923	99
Es	0.347887	0.207877	-0.461620	99
Es	0.109214	-0.143765	0.202973	99
Es	-0.001554	0.806918	-1.495170	99
Es	0.085264	1.244940	-0.339500	99
Es	-1.225711	-2.687392	-0.685589	99
Es	0.487683	2.497263	1.175422	99
Es	0.677797	-0.405477	0.601393	99
Es	0.186419	1.765202	0.900854	99
Es	-1.171268	-0.885500	-0.234827	99
Es	-0.616288	-2.274175	-0.579506	99
Es	-0.960644	1.477386	0.317237	99
Es	-0.554935	-0.718681	0.052151	99
Es	0.255382	2.108832	1.849541	99
Es	-0.823456	-1.492091	-0.236011	99
Es	-0.270096	-2.173697	-1.241398	99
Es	1.111035	1.018630	-1.005642	99
Es	-1.121225	-1.091366	0.253946	99
39
Properties=species:S:1:pos:R:3:Z:I:1 energy=-286.0629367450184 field_type=dipole dipole="0.000000 0.000000 0.000000" charge=0
C	-0.616235	-2.274364	-0.579593	6
O	-1.007205	-1.027314	-0.021803	8
C	0.109395	-0.143764	0.203117	6
C	0.408025	0.837196	-0.895093	6
C	-0.250645	1.312646	0.365217	6
N	0.497015	2.170536	1.286977	7
H	-1.512525	-2.880604	-0.735483	1
H	0.051975	-2.803124	0.106807	1
H	-0.121455	-2.122334	-1.543623	1
H	0.941755	-0.518094	0.790617	1
H	-0.198675	0.801406	-1.792363	1
H	1.442575	1.102536	-1.073153	1
H	-1.307215	1.562576	0.287717	1
H	1.466625	1.871716	1.377277	1
H	0.096585	2.110986	2.223387	1
Es	0.085246	1.244831	-0.339458	99
Es	0.186352	1.765189	0.900779	99
Es	-0.823893	-1.491713	-0.237777	99
Es	-1.119179	-1.092506	0.253893	99
Es	0.677760	-0.405426	0.601326	99
Es	1.110944	1.018689	-1.005668	99
Es	0.487665	2.497384	1.175554	99
Es	-0.149432	-2.638934	-0.110709	99
Es	-0.270127	-2.173741	-1.241399	99
Es	0.347999	0.207930	-0.461832	99
Es	-1.173111	-0.884476	-0.233041	99
Es	0.255492	2.108721	1.849446	99
Es	1.074934	1.961659	1.339954	99
Es	-1.006855	-1.027390	-0.021869	99
Es	-0.960573	1.477408	0.317198	99
Es	-0.139242	0.529697	0.461518	99
Es	0.497027	2.169973	1.287155	99
Es	-0.554869	-0.718934	0.052192	99
Es	-1.225685	-2.687425	-0.685548	99
Es	-0.616288	-2.274174	-0.579506	99
Es	0.109205	-0.143783	0.202983	99
Es	-0.250455	1.312582	0.365226	99
Es	-0.001500	0.806952	-1.495118	99
Es	0.407975	0.837156	-0.894933	99
39
Properties=species:S:1:pos:R:3:Z:I:1 energy=-286.0629367450184 field_type=dipole dipole="0.000000 0.000000 0.000000" charge=0
C	-0.616235	-2.274364	-0.579593	6
O	-1.007205	-1.027314	-0.021803	8
C	0.109395	-0.143764	0.203117	6
C	0.408025	0.837196	-0.895093	6
C	-0.250645	1.312646	0.365217	6
N	0.497015	2.170536	1.286977	7
H	-1.512525	-2.880604	-0.735483	1
H	0.051975	-2.803124	0.106807	1
H	-0.121455	-2.122334	-1.543623	1
H	0.941755	-0.518094	0.790617	1
H	-0.198675	0.801406	-1.792363	1
H	1.442575	1.102536	-1.073153	1
H	-1.307215	1.562576	0.287717	1
H	1.466625	1.871716	1.377277	1
H	0.096585	2.110986	2.223387	1
Es	0.497002	2.170018	1.287132	99
Es	-1.118536	-1.091974	0.253935	99
Es	0.109217	-0.143764	0.202971	99
Es	-1.173616	-0.884861	-0.232962	99
Es	0.677650	-0.405379	0.601356	99
Es	0.186286	1.764933	0.901224	99
Es	-0.960501	1.477313	0.317289	99
Es	0.085091	1.245253	-0.339508	99
Es	-0.554879	-0.718636	0.051362	99
Es	-0.270147	-2.173729	-1.241397	99
Es	-0.149423	-2.638948	-0.110749	99
Es	-0.250452	1.312595	0.365214	99
Es	0.255218	2.109636	1.849577	99
Es	-0.824004	-1.492165	-0.237033	99
Es	1.110838	1.018686	-1.005684	99
Es	0.407976	0.837161	-0.894935	99
Es	-0.001408	0.806871	-1.495097	99
Es	-0.616288	-2.274176	-0.579507	99
Es	-1.006860	-1.027401	-0.021888	99
Es	-1.225671	-2.687428	-0.685550	99
Es	0.348202	0.207572	-0.461732	99
Es	0.488126	2.497025	1.174865	99
Es	-0.139196	0.529794	0.461305	99
Es	1.074762	1.961274	1.340180	99
