42
Properties=species:S:1:pos:R:3:Z:I:1 energy=-287.27403569018236 field_type=dipole dipole="0.000000 0.000000 0.000000" charge=0
C	-1.417965	-1.631941	0.435699	6
O	-0.153695	-0.982511	0.482849	8
C	-0.132905	0.278579	-0.210881	6
C	-0.872625	1.347019	0.589709	6
C	1.344555	0.685279	-0.389091	6
N	2.067415	-0.291191	-1.214461	7
H	-1.295795	-2.640951	0.837049	1
H	-1.781535	-1.709351	-0.592311	1
H	-2.145195	-1.105271	1.057989	1
H	-0.595505	0.163759	-1.199741	1
H	-0.498635	1.394969	1.617929	1
H	-1.942655	1.122969	0.650839	1
H	-0.765105	2.333359	0.127759	1
H	1.834665	0.731489	0.590349	1
H	1.420605	1.670669	-0.859271	1
H	1.864795	-1.217521	-0.827821	1
H	3.069585	-0.149361	-1.096591	1
Es	-0.795286	2.014382	0.268964	99
Es	-1.417766	-1.631829	0.435701	99
Es	2.067557	-0.291215	-1.213903	99
Es	-0.184782	-0.514108	0.213557	99
Es	-0.650292	-1.199569	0.445203	99
Es	1.972491	-0.272074	-1.559527	99
Es	-1.601307	1.190268	0.626820	99
Es	-0.510762	0.822118	0.195370	99
Es	0.040670	-1.167116	0.325513	99
Es	1.763519	0.128436	-0.840470	99
Es	1.956294	-0.839007	-0.967807	99
Es	-0.154017	-0.982388	0.482707	99
Es	-0.612203	1.379403	1.284111	99
Es	1.387250	1.363808	-0.709243	99
Es	1.671134	0.726767	0.293166	99
Es	-1.335763	-2.319111	0.708564	99
Es	1.344586	0.685174	-0.389176	99
Es	-0.104690	-0.913022	0.776886	99
Es	2.672874	-0.201405	-1.123157	99
Es	-0.872628	1.347012	0.589692	99
Es	-0.132893	0.278415	-0.210727	99
Es	0.607289	0.479851	-0.301258	99
Es	-1.924126	-1.267526	0.856987	99
Es	-1.671807	-1.678481	-0.271918	99
Es	-0.456901	0.199238	-0.889063	99
42
Properties=species:S:1:pos:R:3:Z:I:1 energy=-287.27403569018236 field_type=dipole dipole="0.000000 0.000000 0.000000" charge=0
C	-1.417965	-1.631941	0.435699	6
O	-0.153695	-0.982511	0.482849	8
C	-0.132905	0.278579	-0.210881	6
C	-0.872625	1.347019	0.589709	6
C	1.344555	0.685279	-0.389091	6
N	2.067415	-0.291191	-1.214461	7
H	-1.295795	-2.640951	0.837049	1
H	-1.781535	-1.709351	-0.592311	1
H	-2.145195	-1.105271	1.057989	1
H	-0.595505	0.163759	-1.199741	1
H	-0.498635	1.394969	1.617929	1
H	-1.942655	1.122969	0.650839	1
H	-0.765105	2.333359	0.127759	1
H	1.834665	0.731489	0.590349	1
H	1.420605	1.670669	-0.859271	1
H	1.864795	-1.217521	-0.827821	1
H	3.069585	-0.149361	-1.096591	1
Es	0.607197	0.479884	-0.301314	99
Es	-0.872628	1.347012	0.589692	99
Es	-0.102329	-0.914912	0.777325	99
Es	1.972583	-0.272208	-1.559597	99
Es	0.038811	-1.165731	0.323676	99
Es	-1.601252	1.190231	0.626911	99
Es	1.956372	-0.838992	-0.967689	99
Es	1.671081	0.726609	0.293120	99
Es	-0.650317	-1.199954	0.445504	99
Es	-0.132892	0.278415	-0.210726	99
Es	-1.924070	-1.267487	0.856930	99
Es	-0.153988	-0.982402	0.482630	99
Es	2.067558	-0.291218	-1.213905	99
Es	-0.510709	0.822222	0.195301	99
Es	1.387450	1.363866	-0.709126	99
Es	2.672719	-0.201475	-1.123196	99
Es	-0.185264	-0.513253	0.214764	99
Es	-0.612112	1.379524	1.284124	99
Es	-1.417768	-1.631836	0.435704	99
Es	-1.335890	-2.319160	0.708565	99
Es	1.763428	0.128588	-0.840529	99
Es	1.344586	0.685172	-0.389171	99
Es	-1.671825	-1.678413	-0.271872	99
Es	-0.456852	0.199227	-0.889058	99
Es	-0.795451	2.014311	0.268927	99
42
Properties=species:S:1:pos:R:3:Z:I:1 energy=-287.27403569018236 field_type=dipole dipole="0.000000 0.000000 0.000000" charge=0
C	-1.417965	-1.631941	0.435699	6
O	-0.153695	-0.982511	0.482849	8
C	-0.132905	0.278579	-0.210881	6
C	-0.872625	1.347019	0.589709	6
C	1.344555	0.685279	-0.389091	6
N	2.067415	-0.291191	-1.214461	7
H	-1.295795	-2.640951	0.837049	1
H	-1.781535	-1.709351	-0.592311	1
H	-2.145195	-1.105271	1.057989	1
H	-0.595505	0.163759	-1.199741	1
H	-0.498635	1.394969	1.617929	1
H	-1.942655	1.122969	0.650839	1
H	-0.765105	2.333359	0.127759	1
H	1.834665	0.731489	0.590349	1
H	1.420605	1.670669	-0.859271	1
H	1.864795	-1.217521	-0.827821	1
H	3.069585	-0.149361	-1.096591	1
Es	1.763369	0.128749	-0.840718	99
Es	-1.417764	-1.631832	0.435704	99
Es	-0.456717	0.199191	-0.889004	99
Es	-0.184996	-0.513190	0.214544	99
Es	-0.612221	1.379389	1.284099	99
Es	1.387301	1.363770	-0.709141	99
Es	0.607244	0.479868	-0.301286	99
Es	-0.650343	-1.200133	0.445377	99
Es	-1.924040	-1.267534	0.856966	99
Es	2.672565	-0.201511	-1.122866	99
Es	-1.601280	1.190330	0.626842	99
Es	2.067578	-0.291207	-1.213887	99
Es	-0.795283	2.014385	0.268993	99
Es	1.344586	0.685173	-0.389174	99
Es	-0.510891	0.822176	0.195252	99
Es	-0.132892	0.278416	-0.210726	99
Es	1.956236	-0.839176	-0.967930	99
Es	-0.153979	-0.982361	0.482712	99
Es	-1.671879	-1.678369	-0.271853	99
Es	-0.872629	1.347016	0.589693	99
Es	-0.102349	-0.915002	0.777230	99
Es	1.671034	0.726794	0.293124	99
Es	-1.335889	-2.319177	0.708526	99
Es	1.973092	-0.272167	-1.559498	99
Es	0.038588	-1.165576	0.324015	99
42
Properties=species:S:1:pos:R:3:Z:I:1 energy=-287.27403569018236 field_type=dipole dipole="0.000000 0.000000 0.000000" charge=0
C	-1.417965	-1.631941	0.435699	6
O	-0.153695	-0.982511	0.482849	8
C	-0.132905	0.278579	-0.210881	6
C	-0.872625	1.347019	0.589709	6
C	1.344555	0.685279	-0.389091	6
N	2.067415	-0.291191	-1.214461	7
H	-1.295795	-2.640951	0.837049	1
H	-1.781535	-1.709351	-0.592311	1
H	-2.145195	-1.105271	1.057989	1
H	-0.595505	0.163759	-1.199741	1
H	-0.498635	1.394969	1.617929	1
H	-1.942655	1.122969	0.650839	1
H	-0.765105	2.333359	0.127759	1
H	1.834665	0.731489	0.590349	1
H	1.420605	1.670669	-0.859271	1
H	1.864795	-1.217521	-0.827821	1
H	3.069585	-0.149361	-1.096591	1
Es	-0.456764	0.199227	-0.888982	99
Es	-1.601321	1.190342	0.626928	99
Es	-1.335901	-2.319199	0.708504	99
Es	2.672845	-0.201480	-1.123573	99
Es	-0.795287	2.014383	0.269015	99
Es	-1.924076	-1.267526	0.856933	99
Es	1.956482	-0.838895	-0.967698	99
Es	1.344589	0.685172	-0.389175	99
Es	0.039171	-1.165776	0.325133	99
Es	0.607270	0.479839	-0.301280	99
Es	-1.417776	-1.631839	0.435703	99
Es	-0.103027	-0.914230	0.776582	99
Es	1.671106	0.726926	0.293151	99
Es	-1.671837	-1.678371	-0.271802	99
Es	-0.153972	-0.982385	0.482693	99
Es	-0.132892	0.278415	-0.210724	99
Es	-0.650494	-1.200411	0.445583	99
Es	1.763462	0.128777	-0.840489	99
Es	-0.872627	1.347011	0.589691	99
Es	1.387188	1.363672	-0.709198	99
Es	-0.612183	1.379410	1.284021	99
Es	-0.184742	-0.513456	0.213891	99
Es	2.067553	-0.291221	-1.213909	99
Es	-0.510843	0.822131	0.195228	99
Es	1.972515	-0.272495	-1.559233	99
42
Properties=species:S:1:pos:R:3:Z:I:1 energy=-287.27403569018236 field_type=dipole dipole="0.000000 0.000000 0.000000" charge=0
C	-1.417965	-1.631941	0.435699	6
O	-0.153695	-0.982511	0.482849	8
C	-0.132905	0.278579	-0.210881	6
C	-0.872625	1.347019	0.589709	6
C	1.344555	0.685279	-0.389091	6
N	2.067415	-0.291191	-1.214461	7
H	-1.295795	-2.640951	0.837049	1
H	-1.781535	-1.709351	-0.592311	1
H	-2.145195	-1.105271	1.057989	1
H	-0.595505	0.163759	-1.199741	1
H	-0.498635	1.394969	1.617929	1
H	-1.942655	1.122969	0.650839	1
H	-0.765105	2.333359	0.127759	1
H	1.834665	0.731489	0.590349	1
H	1.420605	1.670669	-0.859271	1
H	1.864795	-1.217521	-0.827821	1
H	3.069585	-0.149361	-1.096591	1
Es	-0.456688	0.199211	-0.888917	99
Es	1.972530	-0.272572	-1.558715	99
Es	-0.510899	0.822116	0.195196	99
Es	-1.335948	-2.319209	0.708459	99
Es	-0.184747	-0.513575	0.213610	99
Es	-1.417767	-1.631834	0.435704	99
Es	-1.671864	-1.678328	-0.271784	99
Es	1.671112	0.726927	0.293022	99
Es	-0.650307	-1.200559	0.445357	99
Es	0.038988	-1.165551	0.325439	99
Es	-0.795269	2.014376	0.269011	99
Es	-0.103036	-0.914172	0.776891	99
Es	1.344586	0.685173	-0.389175	99
Es	2.672978	-0.201353	-1.123902	99
Es	-0.153940	-0.982395	0.482629	99
Es	-0.872628	1.347012	0.589693	99
Es	1.956440	-0.839057	-0.967741	99
Es	-1.601282	1.190394	0.626878	99
Es	-0.132893	0.278415	-0.210728	99
Es	2.067543	-0.291215	-1.213929	99
Es	1.387205	1.363675	-0.709102	99
Es	1.763416	0.128876	-0.840682	99
Es	-0.612253	1.379419	1.284063	99
Es	0.607228	0.479835	-0.301210	99
Es	-1.924066	-1.267588	0.856924	99
42
Properties=species:S:1:pos:R:3:Z:I:1 energy=-287.27403569018236 field_type=dipole dipole="0.000000 0.000000 0.000000" charge=0
C	-1.417965	-1.631941	0.435699	6
O	-0.153695	-0.982511	0.482849	8
C	-0.132905	0.278579	-0.210881	6
C	-0.872625	1.347019	0.589709	6
C	1.344555	0.685279	-0.389091	6
N	2.067415	-0.291191	-1.214461	7
H	-1.295795	-2.640951	0.837049	1
H	-1.781535	-1.709351	-0.592311	1
H	-2.145195	-1.105271	1.057989	1
H	-0.595505	0.163759	-1.199741	1
H	-0.498635	1.394969	1.617929	1
H	-1.942655	1.122969	0.650839	1
H	-0.765105	2.333359	0.127759	1
H	1.834665	0.731489	0.590349	1
H	1.420605	1.670669	-0.859271	1
H	1.864795	-1.217521	-0.827821	1
H	3.069585	-0.149361	-1.096591	1
Es	1.973004	-0.272693	-1.558427	99
Es	-1.924085	-1.267566	0.856869	99
Es	-0.103637	-0.913952	0.775192	99
Es	-1.601256	1.190381	0.626879	99
Es	-0.612285	1.379369	1.284044	99
Es	-0.456711	0.199228	-0.888926	99
Es	-0.184359	-0.513222	0.213505	99
Es	-0.153739	-0.982463	0.482836	99
Es	1.956327	-0.839149	-0.967979	99
Es	2.672936	-0.201451	-1.123774	99
Es	-0.795260	2.014440	0.269028	99
Es	-1.671847	-1.678402	-0.271769	99
Es	1.344586	0.685176	-0.389173	99
Es	-0.510862	0.822107	0.195201	99
Es	-0.872628	1.347014	0.589691	99
Es	1.387234	1.363705	-0.709079	99
Es	1.671051	0.726905	0.293008	99
Es	-1.417776	-1.631839	0.435703	99
Es	-1.335953	-2.319175	0.708517	99
Es	-0.650710	-1.200528	0.446313	99
Es	0.039447	-1.166095	0.326086	99
Es	-0.132892	0.278419	-0.210729	99
Es	1.763103	0.129143	-0.840872	99
Es	0.607197	0.479880	-0.301231	99
Es	2.067555	-0.291210	-1.213918	99
42
Properties=species:S:1:pos:R:3:Z:I:1 energy=-287.27403569018236 field_type=dipole dipole="0.000000 0.000000 0.000000" charge=0
C	-1.417965	-1.631941	0.435699	6
O	-0.153695	-0.982511	0.482849	8
C	-0.132905	0.278579	-0.210881	6
C	-0.872625	1.347019	0.589709	6
C	1.344555	0.685279	-0.389091	6
N	2.067415	-0.291191	-1.214461	7
H	-1.295795	-2.640951	0.837049	1
H	-1.781535	-1.709351	-0.592311	1
H	-2.145195	-1.105271	1.057989	1
H	-0.595505	0.163759	-1.199741	1
H	-0.498635	1.394969	1.617929	1
H	-1.942655	1.122969	0.650839	1
H	-0.765105	2.333359	0.127759	1
H	1.834665	0.731489	0.590349	1
H	1.420605	1.670669	-0.859271	1
H	1.864795	-1.217521	-0.827821	1
H	3.069585	-0.149361	-1.096591	1
Es	1.671087	0.726994	0.292908	99
Es	-1.335903	-2.319231	0.708436	99
Es	-1.671923	-1.678326	-0.271711	99
Es	2.672821	-0.201540	-1.123734	99
Es	-0.612263	1.379478	1.284075	99
Es	-0.153973	-0.982362	0.482714	99
Es	1.387159	1.363689	-0.709093	99
Es	-1.601217	1.190427	0.626911	99
Es	-0.184355	-0.512835	0.214143	99
Es	2.067549	-0.291221	-1.213916	99
Es	-0.456687	0.199285	-0.888912	99
Es	-0.650846	-1.200271	0.446381	99
Es	1.972936	-0.272592	-1.558671	99
Es	-0.510862	0.822008	0.195175	99
Es	-0.872629	1.347013	0.589693	99
Es	-0.132893	0.278421	-0.210730	99
Es	1.344586	0.685175	-0.389174	99
Es	0.607166	0.479854	-0.301102	99
Es	-1.417772	-1.631836	0.435703	99
Es	1.763303	0.129095	-0.840715	99
Es	0.037261	-1.165117	0.324400	99
Es	-0.101096	-0.915666	0.776234	99
Es	-0.795318	2.014358	0.268978	99
Es	-1.924055	-1.267665	0.856934	99
Es	1.956367	-0.839114	-0.967937	99
42
Properties=species:S:1:pos:R:3:Z:I:1 energy=-287.27403569018236 field_type=dipole dipole="0.000000 0.000000 0.000000" charge=0
C	-1.417965	-1.631941	0.435699	6
O	-0.153695	-0.982511	0.482849	8
C	-0.132905	0.278579	-0.210881	6
C	-0.872625	1.347019	0.589709	6
C	1.344555	0.685279	-0.389091	6
N	2.067415	-0.291191	-1.214461	7
H	-1.295795	-2.640951	0.837049	1
H	-1.781535	-1.709351	-0.592311	1
H	-2.145195	-1.105271	1.057989	1
H	-0.595505	0.163759	-1.199741	1
H	-0.498635	1.394969	1.617929	1
H	-1.942655	1.122969	0.650839	1
H	-0.765105	2.333359	0.127759	1
H	1.834665	0.731489	0.590349	1
H	1.420605	1.670669	-0.859271	1
H	1.864795	-1.217521	-0.827821	1
H	3.069585	-0.149361	-1.096591	1
Es	-0.184292	-0.512782	0.213854	99
Es	-0.102044	-0.915291	0.775975	99
Es	-0.132894	0.278428	-0.210732	99
Es	-1.335959	-2.319229	0.708385	99
Es	-0.612256	1.379489	1.283978	99
Es	-1.417772	-1.631836	0.435703	99
Es	1.344587	0.685174	-0.389176	99
Es	-1.601296	1.190387	0.626964	99
Es	-0.795332	2.014358	0.269057	99
Es	2.067547	-0.291213	-1.213932	99
Es	1.956692	-0.838977	-0.967758	99
Es	1.763363	0.129105	-0.840555	99
Es	1.671004	0.726970	0.292940	99
Es	-0.510802	0.822102	0.195150	99
Es	-0.872629	1.347013	0.589693	99
Es	-1.924060	-1.267674	0.856931	99
Es	0.607160	0.479849	-0.301272	99
Es	2.672924	-0.201397	-1.124291	99
Es	-0.650642	-1.201003	0.445842	99
Es	1.972510	-0.272892	-1.558457	99
Es	-1.671917	-1.678291	-0.271698	99
Es	-0.153958	-0.982399	0.482603	99
Es	0.037957	-1.164783	0.325632	99
Es	-0.456672	0.199251	-0.888836	99
Es	1.387221	1.363664	-0.709010	99
42
Properties=species:S:1:pos:R:3:Z:I:1 energy=-287.27403569018236 field_type=dipole dipole="0.000000 0.000000 0.000000" charge=0
C	-1.417965	-1.631941	0.435699	6
O	-0.153695	-0.982511	0.482849	8
C	-0.132905	0.278579	-0.210881	6
C	-0.872625	1.347019	0.589709	6
C	1.344555	0.685279	-0.389091	6
N	2.067415	-0.291191	-1.214461	7
H	-1.295795	-2.640951	0.837049	1
H	-1.781535	-1.709351	-0.592311	1
H	-2.145195	-1.105271	1.057989	1
H	-0.595505	0.163759	-1.199741	1
H	-0.498635	1.394969	1.617929	1
H	-1.942655	1.122969	0.650839	1
H	-0.765105	2.333359	0.127759	1
H	1.834665	0.731489	0.590349	1
H	1.420605	1.670669	-0.859271	1
H	1.864795	-1.217521	-0.827821	1
H	3.069585	-0.149361	-1.096591	1
Es	1.387234	1.363635	-0.708996	99
Es	-0.456721	0.199249	-0.888786	99
Es	1.763126	0.129205	-0.840778	99
Es	1.956622	-0.838927	-0.967825	99
Es	2.067551	-0.291210	-1.213925	99
Es	-0.872629	1.347013	0.589692	99
Es	1.670991	0.726996	0.292922	99
Es	1.972850	-0.273029	-1.558466	99
Es	0.607196	0.479914	-0.301299	99
Es	-0.183662	-0.513122	0.212786	99
Es	0.041484	-1.165679	0.329466	99
Es	-0.795326	2.014368	0.269074	99
Es	1.344587	0.685176	-0.389174	99
Es	-1.417770	-1.631836	0.435703	99
Es	-0.510828	0.822022	0.195083	99
Es	-1.924082	-1.267625	0.856844	99
Es	-0.612279	1.379463	1.284009	99
Es	-0.650269	-1.201976	0.444405	99
Es	-1.671877	-1.678384	-0.271694	99
Es	-1.336009	-2.319189	0.708462	99
Es	-1.601239	1.190465	0.626961	99
Es	-0.154001	-0.982361	0.482692	99
Es	2.672894	-0.201467	-1.124018	99
Es	-0.106511	-0.913103	0.774584	99
Es	-0.132892	0.278424	-0.210731	99
42
Properties=species:S:1:pos:R:3:Z:I:1 energy=-287.27403569018236 field_type=dipole dipole="0.000000 0.000000 0.000000" charge=0
C	-1.417965	-1.631941	0.435699	6
O	-0.153695	-0.982511	0.482849	8
C	-0.132905	0.278579	-0.210881	6
C	-0.872625	1.347019	0.589709	6
C	1.344555	0.685279	-0.389091	6
N	2.067415	-0.291191	-1.214461	7
H	-1.295795	-2.640951	0.837049	1
H	-1.781535	-1.709351	-0.592311	1
H	-2.145195	-1.105271	1.057989	1
H	-0.595505	0.163759	-1.199741	1
H	-0.498635	1.394969	1.617929	1
H	-1.942655	1.122969	0.650839	1
H	-0.765105	2.333359	0.127759	1
H	1.834665	0.731489	0.590349	1
H	1.420605	1.670669	-0.859271	1
H	1.864795	-1.217521	-0.827821	1
H	3.069585	-0.149361	-1.096591	1
Es	-1.417773	-1.631837	0.435704	99
Es	-0.872629	1.347013	0.589693	99
Es	1.973141	-0.272689	-1.558128	99
Es	-0.650935	-1.200943	0.446447	99
Es	1.763061	0.129201	-0.840690	99
Es	-1.336011	-2.319210	0.708523	99
Es	2.067561	-0.291217	-1.213913	99
Es	-0.510960	0.822090	0.195028	99
Es	-0.153920	-0.982420	0.482659	99
Es	-0.184334	-0.511775	0.215184	99
Es	2.672879	-0.201483	-1.123971	99
Es	1.670967	0.727028	0.292867	99
Es	-0.100728	-0.916890	0.775337	99
Es	-1.924061	-1.267642	0.856782	99
Es	-1.671887	-1.678386	-0.271692	99
Es	0.607166	0.479887	-0.301344	99
Es	-0.456601	0.199202	-0.888681	99
Es	-0.132892	0.278423	-0.210731	99
Es	0.036963	-1.164203	0.324314	99
Es	-0.795322	2.014365	0.269084	99
Es	1.344587	0.685176	-0.389174	99
Es	1.387220	1.363623	-0.708955	99
Es	-1.601252	1.190482	0.626986	99
Es	-0.612266	1.379460	1.283986	99
Es	1.956468	-0.839233	-0.968321	99
42
Properties=species:S:1:pos:R:3:Z:I:1 energy=-287.27403569018236 field_type=dipole dipole="0.000000 0.000000 0.000000" charge=0
C	-1.417965	-1.631941	0.435699	6
O	-0.153695	-0.982511	0.482849	8
C	-0.132905	0.278579	-0.210881	6
C	-0.872625	1.347019	0.589709	6
C	1.344555	0.685279	-0.389091	6
N	2.067415	-0.291191	-1.214461	7
H	-1.295795	-2.640951	0.837049	1
H	-1.781535	-1.709351	-0.592311	1
H	-2.145195	-1.105271	1.057989	1
H	-0.595505	0.163759	-1.199741	1
H	-0.498635	1.394969	1.617929	1
H	-1.942655	1.122969	0.650839	1
H	-0.765105	2.333359	0.127759	1
H	1.834665	0.731489	0.590349	1
H	1.420605	1.670669	-0.859271	1
H	1.864795	-1.217521	-0.827821	1
H	3.069585	-0.149361	-1.096591	1
Es	-0.872629	1.347012	0.589693	99
Es	-0.101286	-0.916134	0.775908	99
Es	1.956328	-0.839134	-0.968329	99
Es	1.973215	-0.272700	-1.558193	99
Es	2.067555	-0.291220	-1.213918	99
Es	-0.795361	2.014350	0.268969	99
Es	1.670956	0.727075	0.292843	99
Es	-0.612280	1.379569	1.283975	99
Es	-0.183600	-0.512399	0.213813	99
Es	-0.456626	0.199244	-0.888673	99
Es	-1.601208	1.190454	0.627026	99
Es	1.763146	0.129267	-0.840735	99
Es	-0.650852	-1.200899	0.445938	99
Es	-1.924122	-1.267651	0.856784	99
Es	1.387185	1.363601	-0.708946	99
Es	-1.417774	-1.631837	0.435703	99
Es	2.672912	-0.201652	-1.123857	99
Es	-0.132892	0.278423	-0.210731	99
Es	-0.510915	0.822007	0.195129	99
Es	-1.671839	-1.678392	-0.271678	99
Es	0.036776	-1.164437	0.325658	99
Es	0.607152	0.479892	-0.301331	99
Es	-0.153976	-0.982391	0.482643	99
Es	1.344586	0.685176	-0.389173	99
Es	-1.336009	-2.319203	0.708473	99
42
Properties=species:S:1:pos:R:3:Z:I:1 energy=-287.27403569018236 field_type=dipole dipole="0.000000 0.000000 0.000000" charge=0
C	-1.417965	-1.631941	0.435699	6
O	-0.153695	-0.982511	0.482849	8
C	-0.132905	0.278579	-0.210881	6
C	-0.872625	1.347019	0.589709	6
C	1.344555	0.685279	-0.389091	6
N	2.067415	-0.291191	-1.214461	7
H	-1.295795	-2.640951	0.837049	1
H	-1.781535	-1.709351	-0.592311	1
H	-2.145195	-1.105271	1.057989	1
H	-0.595505	0.163759	-1.199741	1
H	-0.498635	1.394969	1.617929	1
H	-1.942655	1.122969	0.650839	1
H	-0.765105	2.333359	0.127759	1
H	1.834665	0.731489	0.590349	1
H	1.420605	1.670669	-0.859271	1
H	1.864795	-1.217521	-0.827821	1
H	3.069585	-0.149361	-1.096591	1
Es	-1.417774	-1.631838	0.435703	99
Es	1.344586	0.685176	-0.389173	99
Es	0.607119	0.479918	-0.301363	99
Es	-1.336063	-2.319209	0.708467	99
Es	-0.132892	0.278423	-0.210732	99
Es	-1.924048	-1.267699	0.856774	99
Es	2.672840	-0.201572	-1.124209	99
Es	2.067548	-0.291212	-1.213948	99
Es	-0.510920	0.822067	0.195029	99
Es	-0.872629	1.347013	0.589692	99
Es	-0.456591	0.199240	-0.888642	99
Es	1.763146	0.129459	-0.840812	99
Es	-0.795328	2.014358	0.269082	99
Es	-0.183750	-0.512009	0.214305	99
Es	-0.153925	-0.982416	0.482658	99
Es	-0.102757	-0.915871	0.774919	99
Es	1.973074	-0.273067	-1.558088	99
Es	-1.671919	-1.678364	-0.271632	99
Es	0.038235	-1.164468	0.326488	99
Es	-0.650700	-1.201482	0.445569	99
Es	-1.601223	1.190500	0.626965	99
Es	-0.612310	1.379487	1.284004	99
Es	1.956570	-0.839059	-0.968000	99
Es	1.670925	0.727062	0.292826	99
Es	1.387227	1.363585	-0.708890	99
42
Properties=species:S:1:pos:R:3:Z:I:1 energy=-287.27403569018236 field_type=dipole dipole="0.000000 0.000000 0.000000" charge=0
C	-1.417965	-1.631941	0.435699	6
O	-0.153695	-0.982511	0.482849	8
C	-0.132905	0.278579	-0.210881	6
C	-0.872625	1.347019	0.589709	6
C	1.344555	0.685279	-0.389091	6
N	2.067415	-0.291191	-1.214461	7
H	-1.295795	-2.640951	0.837049	1
H	-1.781535	-1.709351	-0.592311	1
H	-2.145195	-1.105271	1.057989	1
H	-0.595505	0.163759	-1.199741	1
H	-0.498635	1.394969	1.617929	1
H	-1.942655	1.122969	0.650839	1
H	-0.765105	2.333359	0.127759	1
H	1.834665	0.731489	0.590349	1
H	1.420605	1.670669	-0.859271	1
H	1.864795	-1.217521	-0.827821	1
H	3.069585	-0.149361	-1.096591	1
Es	-0.183645	-0.512126	0.214258	99
Es	-1.336074	-2.319189	0.708466	99
Es	1.956398	-0.839142	-0.968331	99
Es	-0.456569	0.199272	-0.888619	99
Es	-0.612288	1.379526	1.284032	99
Es	-0.510884	0.822113	0.194984	99
Es	-0.103492	-0.915520	0.774600	99
Es	1.670911	0.727104	0.292787	99
Es	-1.417774	-1.631837	0.435703	99
Es	-0.872629	1.347010	0.589694	99
Es	-0.795446	2.014349	0.269083	99
Es	-1.601166	1.190432	0.626974	99
Es	1.387213	1.363561	-0.708862	99
Es	2.672875	-0.201672	-1.124030	99
Es	-1.924028	-1.267712	0.856792	99
Es	1.344587	0.685174	-0.389175	99
Es	-0.132892	0.278423	-0.210731	99
Es	-0.153951	-0.982381	0.482703	99
Es	0.038930	-1.164135	0.327306	99
Es	2.067553	-0.291217	-1.213920	99
Es	1.973296	-0.272865	-1.558001	99
Es	0.607099	0.479925	-0.301343	99
Es	1.763099	0.129425	-0.840793	99
Es	-1.671946	-1.678357	-0.271643	99
Es	-0.650735	-1.202137	0.445057	99
42
Properties=species:S:1:pos:R:3:Z:I:1 energy=-287.27403569018236 field_type=dipole dipole="0.000000 0.000000 0.000000" charge=0
C	-1.417965	-1.631941	0.435699	6
O	-0.153695	-0.982511	0.482849	8
C	-0.132905	0.278579	-0.210881	6
C	-0.872625	1.347019	0.589709	6
C	1.344555	0.685279	-0.389091	6
N	2.067415	-0.291191	-1.214461	7
H	-1.295795	-2.640951	0.837049	1
H	-1.781535	-1.709351	-0.592311	1
H	-2.145195	-1.105271	1.057989	1
H	-0.595505	0.163759	-1.199741	1
H	-0.498635	1.394969	1.617929	1
H	-1.942655	1.122969	0.650839	1
H	-0.765105	2.333359	0.127759	1
H	1.834665	0.731489	0.590349	1
H	1.420605	1.670669	-0.859271	1
H	1.864795	-1.217521	-0.827821	1
H	3.069585	-0.149361	-1.096591	1
Es	1.387218	1.363565	-0.708822	99
Es	2.672913	-0.201638	-1.124116	99
Es	1.670906	0.727100	0.292736	99
Es	-1.417775	-1.631838	0.435703	99
Es	-0.132892	0.278426	-0.210733	99
Es	-0.612347	1.379497	1.284012	99
Es	-0.154036	-0.982331	0.482767	99
Es	-1.671921	-1.678380	-0.271598	99
Es	-1.336098	-2.319205	0.708487	99
Es	-0.456562	0.199276	-0.888614	99
Es	-0.650708	-1.201794	0.445490	99
Es	-1.601204	1.190539	0.626950	99
Es	1.956334	-0.839231	-0.968329	99
Es	-0.183281	-0.512309	0.213358	99
Es	-0.872629	1.347013	0.589693	99
Es	-1.924051	-1.267706	0.856727	99
Es	-0.103411	-0.915263	0.774465	99
Es	1.762956	0.129634	-0.841045	99
Es	-0.510884	0.822057	0.195003	99
Es	1.973479	-0.273012	-1.557671	99
Es	-0.795330	2.014346	0.269106	99
Es	2.067562	-0.291218	-1.213936	99
Es	0.607071	0.479890	-0.301318	99
Es	1.344587	0.685176	-0.389173	99
Es	0.038541	-1.164571	0.327851	99
