39
Properties=species:S:1:pos:R:3:Z:I:1 energy=-286.07115621872634 field_type=dipole dipole="0.000000 0.000000 0.000000" charge=0
N	-0.046578	-2.175333	-0.474333	7
C	-0.687318	-1.080793	0.238807	6
C	0.254582	0.078157	0.262367	6
C	0.407992	0.968997	-0.944663	6
C	-0.287898	1.482907	0.284577	6
O	0.440592	2.419327	1.088697	8
H	-0.674958	-2.976393	-0.488413	1
H	0.780352	-2.475183	0.039077	1
H	-0.928618	-1.388993	1.262407	1
H	-1.627298	-0.823753	-0.263673	1
H	1.135221	-0.127573	0.858567	1
H	-0.197588	0.754147	-1.818683	1
H	1.399231	1.333207	-1.181833	1
H	-1.363788	1.617077	0.225977	1
H	1.396072	2.394197	0.911117	1
Es	0.350167	2.695713	1.000560	99
Es	0.440668	2.419215	1.088567	99
Es	-0.046727	-2.175496	-0.473792	99
Es	-0.854662	-1.286019	0.950558	99
Es	-1.331257	-0.899999	-0.108201	99
Es	0.946787	2.378013	0.967784	99
Es	0.254550	0.078288	0.262273	99
Es	-0.222047	-0.488742	0.241280	99
Es	-1.013356	1.578422	0.254033	99
Es	0.193358	2.056164	0.766043	99
Es	-0.687244	-1.080884	0.238733	99
Es	-0.085381	0.735254	0.452020	99
Es	0.406863	2.323809	1.377597	99
Es	0.859542	-0.053335	0.665067	99
Es	-0.287665	1.482955	0.284640	99
Es	1.080961	1.224531	-1.091546	99
Es	-0.430218	-2.661306	-0.461299	99
Es	0.407947	0.968958	-0.944504	99
Es	-0.005484	0.821498	-1.531191	99
Es	-0.328337	-1.718074	-0.143728	99
Es	0.419221	0.386529	-0.435698	99
Es	0.034339	1.389426	-0.432539	99
Es	0.040454	-2.081148	-0.802677	99
Es	0.442916	-2.355613	-0.141807	99
39
Properties=species:S:1:pos:R:3:Z:I:1 energy=-286.07115621872634 field_type=dipole dipole="0.000000 0.000000 0.000000" charge=0
N	-0.046578	-2.175333	-0.474333	7
C	-0.687318	-1.080793	0.238807	6
C	0.254582	0.078157	0.262367	6
C	0.407992	0.968997	-0.944663	6
C	-0.287898	1.482907	0.284577	6
O	0.440592	2.419327	1.088697	8
H	-0.674958	-2.976393	-0.488413	1
H	0.780352	-2.475183	0.039077	1
H	-0.928618	-1.388993	1.262407	1
H	-1.627298	-0.823753	-0.263673	1
H	1.135221	-0.127573	0.858567	1
H	-0.197588	0.754147	-1.818683	1
H	1.399231	1.333207	-1.181833	1
H	-1.363788	1.617077	0.225977	1
H	1.396072	2.394197	0.911117	1
Es	-0.085383	0.735176	0.452300	99
Es	1.080916	1.224380	-1.091564	99
Es	0.351360	2.695434	0.997039	99
Es	0.443326	-2.355601	-0.142045	99
Es	-0.430112	-2.661169	-0.461004	99
Es	-1.331205	-0.900018	-0.108198	99
Es	-0.687244	-1.080882	0.238734	99
Es	0.859468	-0.053374	0.664925	99
Es	0.039982	-2.081553	-0.802552	99
Es	0.254553	0.078285	0.262267	99
Es	-0.005373	0.821533	-1.531145	99
Es	-0.222001	-0.488671	0.241395	99
Es	0.947462	2.376097	0.970013	99
Es	0.419073	0.386543	-0.435676	99
Es	0.407947	0.968958	-0.944503	99
Es	-1.013278	1.578365	0.254101	99
Es	0.404601	2.327481	1.377642	99
Es	-0.287661	1.482956	0.284623	99
Es	0.440802	2.419090	1.088446	99
Es	0.193587	2.054794	0.767474	99
Es	-0.854732	-1.285952	0.950513	99
Es	0.034423	1.389690	-0.432947	99
Es	-0.046724	-2.175501	-0.473821	99
Es	-0.328392	-1.717903	-0.143844	99
39
Properties=species:S:1:pos:R:3:Z:I:1 energy=-286.07115621872634 field_type=dipole dipole="0.000000 0.000000 0.000000" charge=0
N	-0.046578	-2.175333	-0.474333	7
C	-0.687318	-1.080793	0.238807	6
C	0.254582	0.078157	0.262367	6
C	0.407992	0.968997	-0.944663	6
C	-0.287898	1.482907	0.284577	6
O	0.440592	2.419327	1.088697	8
H	-0.674958	-2.976393	-0.488413	1
H	0.780352	-2.475183	0.039077	1
H	-0.928618	-1.388993	1.262407	1
H	-1.627298	-0.823753	-0.263673	1
H	1.135221	-0.127573	0.858567	1
H	-0.197588	0.754147	-1.818683	1
H	1.399231	1.333207	-1.181833	1
H	-1.363788	1.617077	0.225977	1
H	1.396072	2.394197	0.911117	1
Es	0.040088	-2.082118	-0.802587	99
Es	0.407950	0.968948	-0.944499	99
Es	0.947249	2.375815	0.969983	99
Es	-0.046718	-2.175482	-0.473823	99
Es	0.352148	2.694905	0.996193	99
Es	0.859353	-0.053316	0.664904	99
Es	0.419320	0.386255	-0.435908	99
Es	0.034203	1.389738	-0.432834	99
Es	-0.687244	-1.080882	0.238734	99
Es	-0.221936	-0.488700	0.241433	99
Es	0.440768	2.419011	1.088488	99
Es	1.080834	1.224479	-1.091565	99
Es	-0.005299	0.821585	-1.531117	99
Es	-0.430133	-2.661261	-0.460610	99
Es	-0.854729	-1.285903	0.950498	99
Es	-0.085522	0.735232	0.452371	99
Es	-0.328261	-1.717477	-0.144220	99
Es	0.192939	2.054142	0.767928	99
Es	0.443188	-2.355430	-0.142032	99
Es	-1.331209	-0.900026	-0.108190	99
Es	-0.287663	1.482955	0.284630	99
Es	-1.013159	1.578327	0.254113	99
Es	0.404678	2.329071	1.378022	99
Es	0.254552	0.078292	0.262260	99
39
Properties=species:S:1:pos:R:3:Z:I:1 energy=-286.07115621872634 field_type=dipole dipole="0.000000 0.000000 0.000000" charge=0
N	-0.046578	-2.175333	-0.474333	7
C	-0.687318	-1.080793	0.238807	6
C	0.254582	0.078157	0.262367	6
C	0.407992	0.968997	-0.944663	6
C	-0.287898	1.482907	0.284577	6
O	0.440592	2.419327	1.088697	8
H	-0.674958	-2.976393	-0.488413	1
H	0.780352	-2.475183	0.039077	1
H	-0.928618	-1.388993	1.262407	1
H	-1.627298	-0.823753	-0.263673	1
H	1.135221	-0.127573	0.858567	1
H	-0.197588	0.754147	-1.818683	1
H	1.399231	1.333207	-1.181833	1
H	-1.363788	1.617077	0.225977	1
H	1.396072	2.394197	0.911117	1
Es	0.947086	2.377201	0.968906	99
Es	-0.046728	-2.175506	-0.473781	99
Es	-0.287662	1.482940	0.284630	99
Es	-0.687245	-1.080882	0.238733	99
Es	-0.221827	-0.488683	0.241435	99
Es	-0.328371	-1.717752	-0.143930	99
Es	-0.005255	0.821729	-1.531052	99
Es	0.254551	0.078291	0.262267	99
Es	0.859218	-0.053279	0.664960	99
Es	-1.331180	-0.900021	-0.108177	99
Es	-1.013058	1.578343	0.254144	99
Es	-0.429980	-2.661350	-0.460611	99
Es	-0.854753	-1.285902	0.950494	99
Es	0.407943	0.968955	-0.944494	99
Es	0.406428	2.325509	1.376774	99
Es	0.350819	2.695747	1.000145	99
Es	0.039583	-2.081862	-0.802524	99
Es	1.080729	1.224395	-1.091618	99
Es	0.440758	2.419175	1.088302	99
Es	0.192684	2.055317	0.766461	99
Es	0.419469	0.386059	-0.436050	99
Es	0.034192	1.389934	-0.432904	99
Es	-0.085621	0.735118	0.452490	99
Es	0.443616	-2.355318	-0.142427	99
39
Properties=species:S:1:pos:R:3:Z:I:1 energy=-286.07115621872634 field_type=dipole dipole="0.000000 0.000000 0.000000" charge=0
N	-0.046578	-2.175333	-0.474333	7
C	-0.687318	-1.080793	0.238807	6
C	0.254582	0.078157	0.262367	6
C	0.407992	0.968997	-0.944663	6
C	-0.287898	1.482907	0.284577	6
O	0.440592	2.419327	1.088697	8
H	-0.674958	-2.976393	-0.488413	1
H	0.780352	-2.475183	0.039077	1
H	-0.928618	-1.388993	1.262407	1
H	-1.627298	-0.823753	-0.263673	1
H	1.135221	-0.127573	0.858567	1
H	-0.197588	0.754147	-1.818683	1
H	1.399231	1.333207	-1.181833	1
H	-1.363788	1.617077	0.225977	1
H	1.396072	2.394197	0.911117	1
Es	0.404016	2.329923	1.378416	99
Es	-1.331139	-0.899963	-0.108119	99
Es	-0.005018	0.821656	-1.531103	99
Es	0.419459	0.386144	-0.436071	99
Es	0.192742	2.054000	0.767727	99
Es	-0.854769	-1.285898	0.950467	99
Es	-0.221830	-0.488627	0.241534	99
Es	0.440747	2.419102	1.088489	99
Es	0.039754	-2.081706	-0.802251	99
Es	0.254550	0.078293	0.262268	99
Es	-1.013057	1.578295	0.254148	99
Es	0.859195	-0.053376	0.664832	99
Es	0.947438	2.375950	0.970432	99
Es	-0.046723	-2.175499	-0.473790	99
Es	-0.287661	1.482947	0.284622	99
Es	-0.328469	-1.717805	-0.143817	99
Es	1.080557	1.224417	-1.091521	99
Es	0.443528	-2.355550	-0.142380	99
Es	-0.085476	0.734929	0.452654	99
Es	-0.687245	-1.080883	0.238735	99
Es	0.407944	0.968957	-0.944499	99
Es	-0.430017	-2.661281	-0.461094	99
Es	0.352797	2.693953	0.995612	99
Es	0.034072	1.390180	-0.433120	99
39
Properties=species:S:1:pos:R:3:Z:I:1 energy=-286.07115621872634 field_type=dipole dipole="0.000000 0.000000 0.000000" charge=0
N	-0.046578	-2.175333	-0.474333	7
C	-0.687318	-1.080793	0.238807	6
C	0.254582	0.078157	0.262367	6
C	0.407992	0.968997	-0.944663	6
C	-0.287898	1.482907	0.284577	6
O	0.440592	2.419327	1.088697	8
H	-0.674958	-2.976393	-0.488413	1
H	0.780352	-2.475183	0.039077	1
H	-0.928618	-1.388993	1.262407	1
H	-1.627298	-0.823753	-0.263673	1
H	1.135221	-0.127573	0.858567	1
H	-0.197588	0.754147	-1.818683	1
H	1.399231	1.333207	-1.181833	1
H	-1.363788	1.617077	0.225977	1
H	1.396072	2.394197	0.911117	1
Es	-0.046734	-2.175511	-0.473790	99
Es	-0.085606	0.734898	0.452841	99
Es	-0.854771	-1.285838	0.950413	99
Es	0.351969	2.694866	0.998182	99
Es	0.034132	1.390213	-0.433158	99
Es	0.405003	2.327933	1.376908	99
Es	-0.005067	0.821803	-1.531027	99
Es	0.947586	2.376404	0.970232	99
Es	0.859147	-0.053354	0.664764	99
Es	-0.430058	-2.661285	-0.461040	99
Es	0.192421	2.054621	0.766960	99
Es	0.254552	0.078294	0.262258	99
Es	-1.331160	-0.899981	-0.108115	99
Es	0.040036	-2.081940	-0.802239	99
Es	0.419578	0.385940	-0.436083	99
Es	-0.328392	-1.717600	-0.143982	99
Es	-0.221853	-0.488666	0.241564	99
Es	0.443278	-2.355566	-0.142257	99
Es	-0.687246	-1.080882	0.238735	99
Es	0.440744	2.419143	1.088406	99
Es	1.080430	1.224422	-1.091615	99
Es	0.407945	0.968955	-0.944498	99
Es	-0.287662	1.482951	0.284628	99
Es	-1.012877	1.578339	0.254084	99
39
Properties=species:S:1:pos:R:3:Z:I:1 energy=-286.07115621872634 field_type=dipole dipole="0.000000 0.000000 0.000000" charge=0
N	-0.046578	-2.175333	-0.474333	7
C	-0.687318	-1.080793	0.238807	6
C	0.254582	0.078157	0.262367	6
C	0.407992	0.968997	-0.944663	6
C	-0.287898	1.482907	0.284577	6
O	0.440592	2.419327	1.088697	8
H	-0.674958	-2.976393	-0.488413	1
H	0.780352	-2.475183	0.039077	1
H	-0.928618	-1.388993	1.262407	1
H	-1.627298	-0.823753	-0.263673	1
H	1.135221	-0.127573	0.858567	1
H	-0.197588	0.754147	-1.818683	1
H	1.399231	1.333207	-1.181833	1
H	-1.363788	1.617077	0.225977	1
H	1.396072	2.394197	0.911117	1
Es	0.443130	-2.355635	-0.142048	99
Es	-0.221799	-0.488643	0.241591	99
Es	-0.287661	1.482948	0.284625	99
Es	0.407950	0.968960	-0.944508	99
Es	-1.012865	1.578291	0.254138	99
Es	0.254549	0.078296	0.262266	99
Es	-0.430126	-2.661320	-0.461430	99
Es	0.859072	-0.053377	0.664768	99
Es	-0.687245	-1.080882	0.238733	99
Es	-0.854742	-1.285860	0.950391	99
Es	0.440758	2.419086	1.088431	99
Es	0.034050	1.390433	-0.433239	99
Es	0.351631	2.694727	0.998118	99
Es	-0.085577	0.734858	0.452857	99
Es	-0.004994	0.821831	-1.530938	99
Es	-1.331184	-0.899947	-0.108079	99
Es	0.947600	2.376673	0.969771	99
Es	0.040315	-2.082016	-0.801896	99
Es	0.405284	2.328062	1.377018	99
Es	0.419658	0.385789	-0.436089	99
Es	-0.046720	-2.175501	-0.473791	99
Es	-0.328477	-1.717427	-0.144186	99
Es	1.080349	1.224382	-1.091680	99
Es	0.192438	2.054431	0.767349	99
39
Properties=species:S:1:pos:R:3:Z:I:1 energy=-286.07115621872634 field_type=dipole dipole="0.000000 0.000000 0.000000" charge=0
N	-0.046578	-2.175333	-0.474333	7
C	-0.687318	-1.080793	0.238807	6
C	0.254582	0.078157	0.262367	6
C	0.407992	0.968997	-0.944663	6
C	-0.287898	1.482907	0.284577	6
O	0.440592	2.419327	1.088697	8
H	-0.674958	-2.976393	-0.488413	1
H	0.780352	-2.475183	0.039077	1
H	-0.928618	-1.388993	1.262407	1
H	-1.627298	-0.823753	-0.263673	1
H	1.135221	-0.127573	0.858567	1
H	-0.197588	0.754147	-1.818683	1
H	1.399231	1.333207	-1.181833	1
H	-1.363788	1.617077	0.225977	1
H	1.396072	2.394197	0.911117	1
Es	0.254550	0.078295	0.262266	99
Es	-1.331185	-0.899962	-0.108079	99
Es	-0.687245	-1.080882	0.238734	99
Es	0.034000	1.390545	-0.433434	99
Es	-0.429993	-2.661343	-0.461398	99
Es	0.192171	2.053835	0.767770	99
Es	-0.046720	-2.175497	-0.473804	99
Es	-0.004891	0.821827	-1.530921	99
Es	0.419758	0.385676	-0.436114	99
Es	-0.085731	0.734886	0.453040	99
Es	0.404321	2.330060	1.377444	99
Es	0.858950	-0.053325	0.664703	99
Es	-0.854738	-1.285792	0.950387	99
Es	0.440710	2.419159	1.088492	99
Es	-0.287662	1.482946	0.284625	99
Es	0.039922	-2.081913	-0.801839	99
Es	0.352689	2.693778	0.996383	99
Es	-0.221792	-0.488701	0.241626	99
Es	-0.328474	-1.717596	-0.143886	99
Es	-1.012723	1.578295	0.254149	99
Es	1.080274	1.224332	-1.091679	99
Es	0.407943	0.968961	-0.944496	99
Es	0.947827	2.376176	0.970607	99
Es	0.443434	-2.355601	-0.142403	99
39
Properties=species:S:1:pos:R:3:Z:I:1 energy=-286.07115621872634 field_type=dipole dipole="0.000000 0.000000 0.000000" charge=0
N	-0.046578	-2.175333	-0.474333	7
C	-0.687318	-1.080793	0.238807	6
C	0.254582	0.078157	0.262367	6
C	0.407992	0.968997	-0.944663	6
C	-0.287898	1.482907	0.284577	6
O	0.440592	2.419327	1.088697	8
H	-0.674958	-2.976393	-0.488413	1
H	0.780352	-2.475183	0.039077	1
H	-0.928618	-1.388993	1.262407	1
H	-1.627298	-0.823753	-0.263673	1
H	1.135221	-0.127573	0.858567	1
H	-0.197588	0.754147	-1.818683	1
H	1.399231	1.333207	-1.181833	1
H	-1.363788	1.617077	0.225977	1
H	1.396072	2.394197	0.911117	1
Es	0.947601	2.376611	0.970045	99
Es	0.192008	2.054263	0.767237	99
Es	-0.221750	-0.488628	0.241659	99
Es	-0.429939	-2.661445	-0.461474	99
Es	0.858891	-0.053310	0.664704	99
Es	-0.004793	0.821920	-1.530881	99
Es	0.440735	2.419140	1.088420	99
Es	0.040079	-2.081975	-0.801757	99
Es	-0.854773	-1.285790	0.950354	99
Es	0.352167	2.694342	0.997971	99
Es	0.254549	0.078298	0.262260	99
Es	-0.085822	0.734914	0.453172	99
Es	0.443275	-2.355567	-0.142465	99
Es	-0.687245	-1.080880	0.238735	99
Es	0.419795	0.385558	-0.436300	99
Es	0.405188	2.328656	1.377013	99
Es	1.080273	1.224365	-1.091651	99
Es	-1.012683	1.578297	0.254138	99
Es	0.407946	0.968961	-0.944502	99
Es	-0.287660	1.482954	0.284621	99
Es	-1.331133	-0.899984	-0.108009	99
Es	0.033958	1.390471	-0.433443	99
Es	-0.046726	-2.175498	-0.473801	99
Es	-0.328546	-1.717515	-0.143874	99
39
Properties=species:S:1:pos:R:3:Z:I:1 energy=-286.07115621872634 field_type=dipole dipole="0.000000 0.000000 0.000000" charge=0
N	-0.046578	-2.175333	-0.474333	7
C	-0.687318	-1.080793	0.238807	6
C	0.254582	0.078157	0.262367	6
C	0.407992	0.968997	-0.944663	6
C	-0.287898	1.482907	0.284577	6
O	0.440592	2.419327	1.088697	8
H	-0.674958	-2.976393	-0.488413	1
H	0.780352	-2.475183	0.039077	1
H	-0.928618	-1.388993	1.262407	1
H	-1.627298	-0.823753	-0.263673	1
H	1.135221	-0.127573	0.858567	1
H	-0.197588	0.754147	-1.818683	1
H	1.399231	1.333207	-1.181833	1
H	-1.363788	1.617077	0.225977	1
H	1.396072	2.394197	0.911117	1
Es	0.033912	1.390815	-0.433667	99
Es	-0.004745	0.821948	-1.530848	99
Es	0.443734	-2.355537	-0.142779	99
Es	-0.287661	1.482945	0.284622	99
Es	-1.012573	1.578265	0.254199	99
Es	0.404069	2.330723	1.378211	99
Es	-0.085809	0.734830	0.453270	99
Es	-0.429869	-2.661300	-0.460998	99
Es	-0.328467	-1.717539	-0.143928	99
Es	0.440755	2.419030	1.088495	99
Es	0.419915	0.385386	-0.436181	99
Es	0.254550	0.078298	0.262261	99
Es	-0.046728	-2.175503	-0.473773	99
Es	0.858806	-0.053348	0.664632	99
Es	0.039480	-2.082190	-0.801924	99
Es	1.080089	1.224317	-1.091704	99
Es	0.947781	2.376882	0.970319	99
Es	0.407942	0.968958	-0.944495	99
Es	-1.331141	-0.899957	-0.107950	99
Es	0.192419	2.053535	0.767776	99
Es	0.352656	2.692844	0.995909	99
Es	-0.221728	-0.488623	0.241676	99
Es	-0.854744	-1.285743	0.950313	99
Es	-0.687247	-1.080878	0.238735	99
39
Properties=species:S:1:pos:R:3:Z:I:1 energy=-286.07115621872634 field_type=dipole dipole="0.000000 0.000000 0.000000" charge=0
N	-0.046578	-2.175333	-0.474333	7
C	-0.687318	-1.080793	0.238807	6
C	0.254582	0.078157	0.262367	6
C	0.407992	0.968997	-0.944663	6
C	-0.287898	1.482907	0.284577	6
O	0.440592	2.419327	1.088697	8
H	-0.674958	-2.976393	-0.488413	1
H	0.780352	-2.475183	0.039077	1
H	-0.928618	-1.388993	1.262407	1
H	-1.627298	-0.823753	-0.263673	1
H	1.135221	-0.127573	0.858567	1
H	-0.197588	0.754147	-1.818683	1
H	1.399231	1.333207	-1.181833	1
H	-1.363788	1.617077	0.225977	1
H	1.396072	2.394197	0.911117	1
Es	-0.429972	-2.661345	-0.461648	99
Es	0.419990	0.385302	-0.436318	99
Es	-0.687246	-1.080880	0.238735	99
Es	0.351043	2.694678	1.000112	99
Es	-1.012464	1.578263	0.254229	99
Es	0.254548	0.078300	0.262266	99
Es	0.039914	-2.082144	-0.801420	99
Es	-0.328560	-1.717415	-0.143985	99
Es	0.406433	2.327268	1.375740	99
Es	-0.004698	0.821957	-1.530783	99
Es	0.191706	2.054307	0.767036	99
Es	1.080000	1.224334	-1.091753	99
Es	-0.854795	-1.285740	0.950266	99
Es	-0.287659	1.482941	0.284626	99
Es	-0.221658	-0.488592	0.241782	99
Es	0.033824	1.390866	-0.433715	99
Es	0.443502	-2.355686	-0.142519	99
Es	-0.046723	-2.175494	-0.473800	99
Es	0.947767	2.377623	0.969399	99
Es	0.858775	-0.053333	0.664546	99
Es	-1.331127	-0.899976	-0.107971	99
Es	-0.085895	0.734812	0.453451	99
Es	0.407950	0.968957	-0.944509	99
Es	0.440739	2.419156	1.088406	99
