33
Properties=species:S:1:pos:R:3:Z:I:1 energy=-283.7448625598307 field_type=dipole dipole="0.000000 0.000000 0.000000" charge=0
O	-1.939671	-0.230148	0.365575	8
C	-0.514941	-0.232358	0.544865	6
C	0.250199	-0.982358	-0.505215	6
C	0.278999	0.524762	-0.489705	6
C	1.475179	1.201072	-0.079755	6
N	2.440759	1.744982	0.261975	7
H	-2.390841	0.233102	1.093895	1
H	-0.133521	-0.287738	1.560806	1
H	-0.313361	-1.470488	-1.292305	1
H	1.132979	-1.528778	-0.192735	1
H	-0.285781	1.027952	-1.267405	1
Es	0.402150	-0.191464	-0.631746	99
Es	1.936230	1.424206	0.401363	99
Es	-0.127940	-1.294969	-1.032270	99
Es	1.474885	1.200909	-0.079865	99
Es	-0.082807	0.862422	-0.996278	99
Es	1.891293	1.757039	-0.017723	99
Es	2.178656	1.307335	-0.058972	99
Es	-1.396020	-0.205074	0.462010	99
Es	-0.515081	-0.232307	0.544651	99
Es	0.845510	-1.336732	-0.291884	99
Es	-2.151420	0.028572	0.763251	99
Es	-0.261980	-0.257422	1.229676	99
Es	-0.120883	0.346069	0.095105	99
Es	0.279113	0.524661	-0.489586	99
Es	2.746020	1.917855	0.371156	99
Es	2.440391	1.744775	0.261845	99
Es	-1.939507	-0.230034	0.365889	99
Es	-0.185199	-0.771309	0.087309	99
Es	0.910862	0.875340	-0.274619	99
Es	-1.987471	-0.075009	0.108616	99
Es	-2.014811	-0.518028	0.396784	99
Es	0.250177	-0.982146	-0.505153	99
33
Properties=species:S:1:pos:R:3:Z:I:1 energy=-283.7448625598307 field_type=dipole dipole="0.000000 0.000000 0.000000" charge=0
O	-1.939671	-0.230148	0.365575	8
C	-0.514941	-0.232358	0.544865	6
C	0.250199	-0.982358	-0.505215	6
C	0.278999	0.524762	-0.489705	6
C	1.475179	1.201072	-0.079755	6
N	2.440759	1.744982	0.261975	7
H	-2.390841	0.233102	1.093895	1
H	-0.133521	-0.287738	1.560806	1
H	-0.313361	-1.470488	-1.292305	1
H	1.132979	-1.528778	-0.192735	1
H	-0.285781	1.027952	-1.267405	1
Es	0.910622	0.875182	-0.274428	99
Es	1.898573	1.503940	0.399046	99
Es	2.440384	1.744772	0.261844	99
Es	-0.262011	-0.257339	1.229648	99
Es	-2.014351	-0.517680	0.397711	99
Es	0.279113	0.524661	-0.489586	99
Es	-1.988846	-0.076012	0.108635	99
Es	-1.395506	-0.204534	0.460917	99
Es	-0.082842	0.862558	-0.996161	99
Es	0.250179	-0.982145	-0.505156	99
Es	2.746132	1.917513	0.370421	99
Es	-0.127823	-1.295043	-1.032197	99
Es	0.845439	-1.336613	-0.291964	99
Es	-1.939476	-0.229866	0.365821	99
Es	-0.185287	-0.771472	0.087540	99
Es	-2.151043	0.028516	0.763464	99
Es	1.474884	1.200903	-0.079857	99
Es	-0.515084	-0.232300	0.544654	99
Es	-0.120800	0.346017	0.095161	99
Es	1.931726	1.725287	-0.088109	99
Es	2.175875	1.259786	0.014228	99
Es	0.402310	-0.191439	-0.632076	99
33
Properties=species:S:1:pos:R:3:Z:I:1 energy=-283.7448625598307 field_type=dipole dipole="0.000000 0.000000 0.000000" charge=0
O	-1.939671	-0.230148	0.365575	8
C	-0.514941	-0.232358	0.544865	6
C	0.250199	-0.982358	-0.505215	6
C	0.278999	0.524762	-0.489705	6
C	1.475179	1.201072	-0.079755	6
N	2.440759	1.744982	0.261975	7
H	-2.390841	0.233102	1.093895	1
H	-0.133521	-0.287738	1.560806	1
H	-0.313361	-1.470488	-1.292305	1
H	1.132979	-1.528778	-0.192735	1
H	-0.285781	1.027952	-1.267405	1
Es	-0.262062	-0.257320	1.229530	99
Es	0.250177	-0.982146	-0.505152	99
Es	-0.082570	0.862517	-0.996356	99
Es	0.402247	-0.191643	-0.631818	99
Es	2.440384	1.744770	0.261844	99
Es	2.746352	1.916433	0.370866	99
Es	-1.939490	-0.229928	0.365839	99
Es	-0.120876	0.346692	0.095381	99
Es	-0.185230	-0.771812	0.087517	99
Es	2.111573	1.491453	-0.181789	99
Es	0.845398	-1.336618	-0.292009	99
Es	-0.127742	-1.295040	-1.032103	99
Es	1.474884	1.200905	-0.079859	99
Es	-0.515089	-0.232310	0.544659	99
Es	-2.017416	-0.518467	0.390690	99
Es	-1.395365	-0.206729	0.462314	99
Es	0.279113	0.524656	-0.489584	99
Es	-2.151577	0.026301	0.764765	99
Es	1.837029	1.739482	0.207591	99
Es	0.910384	0.875617	-0.274927	99
Es	2.057429	1.258639	0.299199	99
Es	-1.985383	-0.070762	0.112960	99
33
Properties=species:S:1:pos:R:3:Z:I:1 energy=-283.7448625598307 field_type=dipole dipole="0.000000 0.000000 0.000000" charge=0
O	-1.939671	-0.230148	0.365575	8
C	-0.514941	-0.232358	0.544865	6
C	0.250199	-0.982358	-0.505215	6
C	0.278999	0.524762	-0.489705	6
C	1.475179	1.201072	-0.079755	6
N	2.440759	1.744982	0.261975	7
H	-2.390841	0.233102	1.093895	1
H	-0.133521	-0.287738	1.560806	1
H	-0.313361	-1.470488	-1.292305	1
H	1.132979	-1.528778	-0.192735	1
H	-0.285781	1.027952	-1.267405	1
Es	0.845223	-1.336636	-0.292062	99
Es	1.856664	1.621293	0.350677	99
Es	1.474882	1.200906	-0.079856	99
Es	-0.120907	0.346365	0.095490	99
Es	-0.082573	0.862564	-0.996126	99
Es	0.250176	-0.982144	-0.505151	99
Es	-1.986509	-0.072426	0.111724	99
Es	-0.185378	-0.772037	0.087685	99
Es	-1.395122	-0.206097	0.462027	99
Es	-2.151648	0.026797	0.764349	99
Es	-1.939520	-0.229953	0.365826	99
Es	2.440386	1.744771	0.261845	99
Es	2.006056	1.645548	-0.163669	99
Es	-0.127638	-1.295013	-1.032046	99
Es	-0.515082	-0.232296	0.544652	99
Es	0.402718	-0.191188	-0.632338	99
Es	-2.016447	-0.517858	0.392698	99
Es	2.746205	1.916585	0.369709	99
Es	2.143573	1.222851	0.138691	99
Es	0.910078	0.875385	-0.274407	99
Es	-0.262077	-0.257395	1.229425	99
Es	0.279110	0.524668	-0.489586	99
33
Properties=species:S:1:pos:R:3:Z:I:1 energy=-283.7448625598307 field_type=dipole dipole="0.000000 0.000000 0.000000" charge=0
O	-1.939671	-0.230148	0.365575	8
C	-0.514941	-0.232358	0.544865	6
C	0.250199	-0.982358	-0.505215	6
C	0.278999	0.524762	-0.489705	6
C	1.475179	1.201072	-0.079755	6
N	2.440759	1.744982	0.261975	7
H	-2.390841	0.233102	1.093895	1
H	-0.133521	-0.287738	1.560806	1
H	-0.313361	-1.470488	-1.292305	1
H	1.132979	-1.528778	-0.192735	1
H	-0.285781	1.027952	-1.267405	1
Es	-1.939476	-0.229988	0.365899	99
Es	-1.395032	-0.206001	0.461851	99
Es	-0.515082	-0.232299	0.544652	99
Es	0.250179	-0.982145	-0.505160	99
Es	2.173612	1.342943	-0.098491	99
Es	0.402724	-0.191631	-0.632510	99
Es	-0.127600	-1.295154	-1.031981	99
Es	-2.151880	0.027065	0.764346	99
Es	2.745114	1.917162	0.371113	99
Es	-0.082419	0.862588	-0.996124	99
Es	-0.262065	-0.257285	1.229359	99
Es	0.845219	-1.336440	-0.292177	99
Es	-0.185312	-0.772003	0.087837	99
Es	0.910280	0.875110	-0.275030	99
Es	1.961732	1.378882	0.392779	99
Es	0.279108	0.524657	-0.489581	99
Es	-2.016694	-0.518048	0.392102	99
Es	2.440383	1.744770	0.261844	99
Es	-1.986184	-0.072594	0.112479	99
Es	1.871725	1.767479	0.030529	99
Es	1.474885	1.200908	-0.079860	99
Es	-0.121050	0.346718	0.095681	99
33
Properties=species:S:1:pos:R:3:Z:I:1 energy=-283.7448625598307 field_type=dipole dipole="0.000000 0.000000 0.000000" charge=0
O	-1.939671	-0.230148	0.365575	8
C	-0.514941	-0.232358	0.544865	6
C	0.250199	-0.982358	-0.505215	6
C	0.278999	0.524762	-0.489705	6
C	1.475179	1.201072	-0.079755	6
N	2.440759	1.744982	0.261975	7
H	-2.390841	0.233102	1.093895	1
H	-0.133521	-0.287738	1.560806	1
H	-0.313361	-1.470488	-1.292305	1
H	1.132979	-1.528778	-0.192735	1
H	-0.285781	1.027952	-1.267405	1
Es	2.047023	1.267869	0.313894	99
Es	-0.185341	-0.772406	0.087962	99
Es	-0.120942	0.346875	0.095778	99
Es	0.909938	0.875410	-0.275157	99
Es	-0.262160	-0.257175	1.229244	99
Es	0.250179	-0.982136	-0.505150	99
Es	-1.987726	-0.075311	0.110885	99
Es	-1.939524	-0.230010	0.365819	99
Es	-0.515081	-0.232306	0.544653	99
Es	0.845074	-1.336628	-0.292178	99
Es	-0.127571	-1.295033	-1.031882	99
Es	-0.082350	0.862673	-0.996023	99
Es	1.838267	1.747727	0.188961	99
Es	2.745855	1.915825	0.370828	99
Es	1.474891	1.200912	-0.079859	99
Es	2.121200	1.474685	-0.177815	99
Es	0.279108	0.524652	-0.489581	99
Es	0.402953	-0.191481	-0.632637	99
Es	-2.015483	-0.517377	0.395306	99
Es	-2.151924	0.028232	0.763447	99
Es	2.440387	1.744770	0.261845	99
Es	-1.394604	-0.205076	0.461220	99
33
Properties=species:S:1:pos:R:3:Z:I:1 energy=-283.7448625598307 field_type=dipole dipole="0.000000 0.000000 0.000000" charge=0
O	-1.939671	-0.230148	0.365575	8
C	-0.514941	-0.232358	0.544865	6
C	0.250199	-0.982358	-0.505215	6
C	0.278999	0.524762	-0.489705	6
C	1.475179	1.201072	-0.079755	6
N	2.440759	1.744982	0.261975	7
H	-2.390841	0.233102	1.093895	1
H	-0.133521	-0.287738	1.560806	1
H	-0.313361	-1.470488	-1.292305	1
H	1.132979	-1.528778	-0.192735	1
H	-0.285781	1.027952	-1.267405	1
Es	-0.082288	0.862846	-0.995908	99
Es	-0.515079	-0.232304	0.544653	99
Es	1.474887	1.200908	-0.079853	99
Es	2.019783	1.628973	-0.172096	99
Es	-2.017419	-0.517406	0.389193	99
Es	2.745848	1.915995	0.369382	99
Es	-0.262164	-0.257260	1.229181	99
Es	-1.394899	-0.207212	0.462679	99
Es	0.403048	-0.191587	-0.633063	99
Es	1.851509	1.639846	0.338014	99
Es	2.135387	1.221486	0.160164	99
Es	-0.185474	-0.772329	0.087999	99
Es	0.909658	0.874996	-0.274801	99
Es	-1.985126	-0.070320	0.113648	99
Es	0.845011	-1.336592	-0.292189	99
Es	-2.152339	0.025405	0.765258	99
Es	-0.127392	-1.295051	-1.031760	99
Es	0.250181	-0.982146	-0.505154	99
Es	-1.939501	-0.230037	0.365911	99
Es	-0.120953	0.347054	0.096037	99
Es	0.279107	0.524656	-0.489582	99
Es	2.440384	1.744769	0.261844	99
33
Properties=species:S:1:pos:R:3:Z:I:1 energy=-283.7448625598307 field_type=dipole dipole="0.000000 0.000000 0.000000" charge=0
O	-1.939671	-0.230148	0.365575	8
C	-0.514941	-0.232358	0.544865	6
C	0.250199	-0.982358	-0.505215	6
C	0.278999	0.524762	-0.489705	6
C	1.475179	1.201072	-0.079755	6
N	2.440759	1.744982	0.261975	7
H	-2.390841	0.233102	1.093895	1
H	-0.133521	-0.287738	1.560806	1
H	-0.313361	-1.470488	-1.292305	1
H	1.132979	-1.528778	-0.192735	1
H	-0.285781	1.027952	-1.267405	1
Es	0.844950	-1.336553	-0.292301	99
Es	1.991774	1.333036	0.372859	99
Es	-1.939567	-0.230036	0.365774	99
Es	-0.515084	-0.232307	0.544654	99
Es	-0.121028	0.347355	0.096224	99
Es	1.474884	1.200907	-0.079863	99
Es	2.440388	1.744772	0.261846	99
Es	0.403230	-0.191665	-0.633080	99
Es	-0.127418	-1.295084	-1.031670	99
Es	-1.394739	-0.206123	0.462514	99
Es	0.250175	-0.982143	-0.505150	99
Es	-0.185354	-0.772556	0.088043	99
Es	-0.082186	0.862721	-0.995913	99
Es	-1.984510	-0.071563	0.114726	99
Es	0.279106	0.524651	-0.489581	99
Es	0.909810	0.875025	-0.275390	99
Es	2.744740	1.916389	0.371212	99
Es	1.854682	1.770001	0.086543	99
Es	2.161004	1.386949	-0.134659	99
Es	-0.262218	-0.257267	1.229074	99
Es	-2.017311	-0.518243	0.389185	99
Es	-2.153157	0.026424	0.764512	99
33
Properties=species:S:1:pos:R:3:Z:I:1 energy=-283.7448625598307 field_type=dipole dipole="0.000000 0.000000 0.000000" charge=0
O	-1.939671	-0.230148	0.365575	8
C	-0.514941	-0.232358	0.544865	6
C	0.250199	-0.982358	-0.505215	6
C	0.278999	0.524762	-0.489705	6
C	1.475179	1.201072	-0.079755	6
N	2.440759	1.744982	0.261975	7
H	-2.390841	0.233102	1.093895	1
H	-0.133521	-0.287738	1.560806	1
H	-0.313361	-1.470488	-1.292305	1
H	1.132979	-1.528778	-0.192735	1
H	-0.285781	1.027952	-1.267405	1
Es	-1.394535	-0.207536	0.462656	99
Es	1.474885	1.200907	-0.079858	99
Es	-0.262268	-0.257269	1.228975	99
Es	2.440384	1.744770	0.261844	99
Es	0.403455	-0.191516	-0.633246	99
Es	-0.515079	-0.232301	0.544652	99
Es	0.909544	0.875169	-0.275422	99
Es	-1.984578	-0.070175	0.114912	99
Es	2.745013	1.915847	0.371069	99
Es	-0.185462	-0.772795	0.088225	99
Es	-2.018029	-0.517355	0.388017	99
Es	-2.152664	0.025419	0.765323	99
Es	2.022648	1.293632	0.343413	99
Es	0.250175	-0.982143	-0.505150	99
Es	-1.939482	-0.229902	0.365815	99
Es	2.141460	1.434784	-0.162495	99
Es	-0.121032	0.347390	0.096332	99
Es	1.843199	1.761965	0.143936	99
Es	0.279110	0.524655	-0.489583	99
Es	-0.127316	-1.295011	-1.031609	99
Es	-0.082121	0.862741	-0.995875	99
Es	0.844863	-1.336585	-0.292374	99
33
Properties=species:S:1:pos:R:3:Z:I:1 energy=-283.7448625598307 field_type=dipole dipole="0.000000 0.000000 0.000000" charge=0
O	-1.939671	-0.230148	0.365575	8
C	-0.514941	-0.232358	0.544865	6
C	0.250199	-0.982358	-0.505215	6
C	0.278999	0.524762	-0.489705	6
C	1.475179	1.201072	-0.079755	6
N	2.440759	1.744982	0.261975	7
H	-2.390841	0.233102	1.093895	1
H	-0.133521	-0.287738	1.560806	1
H	-0.313361	-1.470488	-1.292305	1
H	1.132979	-1.528778	-0.192735	1
H	-0.285781	1.027952	-1.267405	1
Es	0.909263	0.875173	-0.275323	99
Es	-1.939510	-0.230002	0.365872	99
Es	-0.120997	0.347753	0.096339	99
Es	1.474888	1.200910	-0.079858	99
Es	2.128963	1.461086	-0.173559	99
Es	-0.082045	0.862785	-0.995798	99
Es	-0.262272	-0.257205	1.228913	99
Es	-1.394357	-0.206052	0.462061	99
Es	2.744842	1.915570	0.370922	99
Es	-2.153176	0.027288	0.764126	99
Es	0.279104	0.524659	-0.489578	99
Es	-2.015296	-0.515963	0.393443	99
Es	0.403589	-0.191844	-0.633295	99
Es	-0.127214	-1.295026	-1.031589	99
Es	-1.986968	-0.074826	0.111256	99
Es	1.839459	1.753953	0.173479	99
Es	-0.185479	-0.772921	0.088171	99
Es	2.039108	1.275596	0.324943	99
Es	0.844777	-1.336581	-0.292320	99
Es	2.440394	1.744776	0.261848	99
Es	0.250173	-0.982139	-0.505146	99
Es	-0.515076	-0.232300	0.544650	99
33
Properties=species:S:1:pos:R:3:Z:I:1 energy=-283.7448625598307 field_type=dipole dipole="0.000000 0.000000 0.000000" charge=0
O	-1.939671	-0.230148	0.365575	8
C	-0.514941	-0.232358	0.544865	6
C	0.250199	-0.982358	-0.505215	6
C	0.278999	0.524762	-0.489705	6
C	1.475179	1.201072	-0.079755	6
N	2.440759	1.744982	0.261975	7
H	-2.390841	0.233102	1.093895	1
H	-0.133521	-0.287738	1.560806	1
H	-0.313361	-1.470488	-1.292305	1
H	1.132979	-1.528778	-0.192735	1
H	-0.285781	1.027952	-1.267405	1
Es	-0.121093	0.347655	0.096552	99
Es	-1.939506	-0.230042	0.365824	99
Es	0.250173	-0.982144	-0.505147	99
Es	0.403686	-0.191680	-0.633640	99
Es	2.745284	1.914978	0.369703	99
Es	-0.127210	-1.295075	-1.031477	99
Es	-0.515074	-0.232300	0.544649	99
Es	2.440382	1.744769	0.261844	99
Es	2.082248	1.542048	-0.189269	99
Es	1.474881	1.200900	-0.079862	99
Es	0.844753	-1.336525	-0.292423	99
Es	-2.016358	-0.516569	0.393210	99
Es	-1.986919	-0.074621	0.112426	99
Es	-1.394043	-0.206127	0.461439	99
Es	0.279109	0.524656	-0.489583	99
Es	-0.185495	-0.772953	0.088348	99
Es	-0.262282	-0.257202	1.228867	99
Es	0.909115	0.875070	-0.275237	99
Es	-2.152485	0.027831	0.763883	99
Es	1.837423	1.713199	0.259081	99
Es	2.087522	1.235950	0.256121	99
Es	-0.081940	0.862872	-0.995753	99
33
Properties=species:S:1:pos:R:3:Z:I:1 energy=-283.7448625598307 field_type=dipole dipole="0.000000 0.000000 0.000000" charge=0
O	-1.939671	-0.230148	0.365575	8
C	-0.514941	-0.232358	0.544865	6
C	0.250199	-0.982358	-0.505215	6
C	0.278999	0.524762	-0.489705	6
C	1.475179	1.201072	-0.079755	6
N	2.440759	1.744982	0.261975	7
H	-2.390841	0.233102	1.093895	1
H	-0.133521	-0.287738	1.560806	1
H	-0.313361	-1.470488	-1.292305	1
H	1.132979	-1.528778	-0.192735	1
H	-0.285781	1.027952	-1.267405	1
Es	-2.016021	-0.516155	0.394011	99
Es	2.139161	1.440684	-0.165621	99
Es	-1.393777	-0.205942	0.460988	99
Es	-0.262286	-0.257245	1.228808	99
Es	2.026572	1.289172	0.339964	99
Es	0.844658	-1.336528	-0.292427	99
Es	1.842165	1.760917	0.150725	99
Es	-0.515060	-0.232305	0.544636	99
Es	0.279107	0.524643	-0.489581	99
Es	-0.121117	0.347760	0.096654	99
Es	2.440383	1.744769	0.261844	99
Es	-0.081901	0.862864	-0.995679	99
Es	-1.939503	-0.230035	0.365896	99
Es	-2.152393	0.028049	0.763843	99
Es	2.744433	1.915499	0.370796	99
Es	-1.987609	-0.075446	0.112077	99
Es	0.909049	0.875011	-0.275524	99
Es	-0.185605	-0.772991	0.088443	99
Es	0.403993	-0.191722	-0.633892	99
Es	-0.127136	-1.295081	-1.031403	99
Es	0.250177	-0.982142	-0.505152	99
Es	1.474882	1.200913	-0.079849	99
33
Properties=species:S:1:pos:R:3:Z:I:1 energy=-283.7448625598307 field_type=dipole dipole="0.000000 0.000000 0.000000" charge=0
O	-1.939671	-0.230148	0.365575	8
C	-0.514941	-0.232358	0.544865	6
C	0.250199	-0.982358	-0.505215	6
C	0.278999	0.524762	-0.489705	6
C	1.475179	1.201072	-0.079755	6
N	2.440759	1.744982	0.261975	7
H	-2.390841	0.233102	1.093895	1
H	-0.133521	-0.287738	1.560806	1
H	-0.313361	-1.470488	-1.292305	1
H	1.132979	-1.528778	-0.192735	1
H	-0.285781	1.027952	-1.267405	1
Es	-2.016592	-0.516484	0.391276	99
Es	0.250174	-0.982147	-0.505149	99
Es	1.836323	1.735819	0.220750	99
Es	-1.393758	-0.206222	0.461518	99
Es	1.474885	1.200909	-0.079856	99
Es	2.744684	1.914860	0.370043	99
Es	0.403938	-0.191662	-0.633706	99
Es	0.908866	0.875044	-0.275480	99
Es	-1.986373	-0.073793	0.113798	99
Es	2.440406	1.744782	0.261852	99
Es	-2.153091	0.026942	0.764443	99
Es	2.065652	1.251367	0.290419	99
Es	-0.127148	-1.295072	-1.031407	99
Es	-1.939504	-0.229964	0.365802	99
Es	-0.185470	-0.773478	0.088554	99
Es	2.105755	1.504111	-0.185519	99
Es	-0.515072	-0.232302	0.544647	99
Es	-0.262348	-0.257132	1.228688	99
Es	-0.120946	0.348085	0.096625	99
Es	0.844547	-1.336506	-0.292528	99
Es	0.279104	0.524649	-0.489580	99
Es	-0.081863	0.862883	-0.995632	99
33
Properties=species:S:1:pos:R:3:Z:I:1 energy=-283.7448625598307 field_type=dipole dipole="0.000000 0.000000 0.000000" charge=0
O	-1.939671	-0.230148	0.365575	8
C	-0.514941	-0.232358	0.544865	6
C	0.250199	-0.982358	-0.505215	6
C	0.278999	0.524762	-0.489705	6
C	1.475179	1.201072	-0.079755	6
N	2.440759	1.744982	0.261975	7
H	-2.390841	0.233102	1.093895	1
H	-0.133521	-0.287738	1.560806	1
H	-0.313361	-1.470488	-1.292305	1
H	1.132979	-1.528778	-0.192735	1
H	-0.285781	1.027952	-1.267405	1
Es	2.172023	1.354702	-0.110449	99
Es	-0.262347	-0.257138	1.228595	99
Es	-1.393921	-0.206758	0.462293	99
Es	-0.127003	-1.295071	-1.031276	99
Es	2.440373	1.744761	0.261843	99
Es	0.279104	0.524648	-0.489580	99
Es	0.404100	-0.191643	-0.634090	99
Es	-0.081693	0.862949	-0.995602	99
Es	2.743417	1.916287	0.370732	99
Es	-1.985421	-0.072332	0.114465	99
Es	-0.185606	-0.773499	0.088697	99
Es	0.250175	-0.982144	-0.505149	99
Es	0.844538	-1.336460	-0.292578	99
Es	-0.515075	-0.232297	0.544648	99
Es	-1.939527	-0.230003	0.365811	99
Es	0.908923	0.874593	-0.275592	99
Es	1.474883	1.200902	-0.079857	99
Es	-2.153429	0.026113	0.764781	99
Es	1.971030	1.364634	0.388714	99
Es	1.865797	1.770915	0.046911	99
Es	-0.121126	0.348076	0.096708	99
Es	-2.017046	-0.516546	0.389531	99
33
Properties=species:S:1:pos:R:3:Z:I:1 energy=-283.7448625598307 field_type=dipole dipole="0.000000 0.000000 0.000000" charge=0
O	-1.939671	-0.230148	0.365575	8
C	-0.514941	-0.232358	0.544865	6
C	0.250199	-0.982358	-0.505215	6
C	0.278999	0.524762	-0.489705	6
C	1.475179	1.201072	-0.079755	6
N	2.440759	1.744982	0.261975	7
H	-2.390841	0.233102	1.093895	1
H	-0.133521	-0.287738	1.560806	1
H	-0.313361	-1.470488	-1.292305	1
H	1.132979	-1.528778	-0.192735	1
H	-0.285781	1.027952	-1.267405	1
Es	-0.262384	-0.257182	1.228559	99
Es	2.744335	1.914895	0.369884	99
Es	-0.081628	0.862925	-0.995538	99
Es	1.836236	1.728354	0.235322	99
Es	0.844488	-1.336482	-0.292629	99
Es	0.404211	-0.191638	-0.634171	99
Es	-2.153163	0.028396	0.763445	99
Es	1.474885	1.200905	-0.079857	99
Es	2.074152	1.244867	0.278346	99
Es	2.440384	1.744770	0.261844	99
Es	0.908593	0.874924	-0.275496	99
Es	0.250174	-0.982139	-0.505147	99
Es	-1.393623	-0.205218	0.461039	99
Es	0.279100	0.524641	-0.489576	99
Es	-0.185620	-0.773635	0.088706	99
Es	-2.014842	-0.515563	0.395353	99
Es	-0.126975	-1.295039	-1.031247	99
Es	-0.515067	-0.232301	0.544643	99
Es	2.097751	1.518066	-0.187914	99
Es	-1.988175	-0.077132	0.111209	99
Es	-0.121137	0.348248	0.096952	99
Es	-1.939526	-0.229972	0.365832	99
33
Properties=species:S:1:pos:R:3:Z:I:1 energy=-283.7448625598307 field_type=dipole dipole="0.000000 0.000000 0.000000" charge=0
O	-1.939671	-0.230148	0.365575	8
C	-0.514941	-0.232358	0.544865	6
C	0.250199	-0.982358	-0.505215	6
C	0.278999	0.524762	-0.489705	6
C	1.475179	1.201072	-0.079755	6
N	2.440759	1.744982	0.261975	7
H	-2.390841	0.233102	1.093895	1
H	-0.133521	-0.287738	1.560806	1
H	-0.313361	-1.470488	-1.292305	1
H	1.132979	-1.528778	-0.192735	1
H	-0.285781	1.027952	-1.267405	1
Es	-0.126915	-1.295036	-1.031190	99
Es	-2.153380	0.027161	0.764251	99
Es	-0.081535	0.862950	-0.995534	99
Es	2.743753	1.915196	0.370477	99
Es	1.840855	1.759292	0.159493	99
Es	-0.121176	0.348373	0.096927	99
Es	0.250178	-0.982135	-0.505152	99
Es	2.440383	1.744770	0.261844	99
Es	2.136104	1.448123	-0.169236	99
Es	1.474887	1.200909	-0.079856	99
Es	-1.393428	-0.206441	0.461474	99
Es	0.279103	0.524644	-0.489578	99
Es	-0.262434	-0.257003	1.228437	99
Es	0.908560	0.874821	-0.275704	99
Es	-0.185611	-0.773837	0.088883	99
Es	0.844375	-1.336491	-0.292642	99
Es	-1.986305	-0.074175	0.114116	99
Es	2.031653	1.283639	0.335111	99
Es	-2.016629	-0.515999	0.391379	99
Es	-0.515066	-0.232310	0.544645	99
Es	-1.939601	-0.230071	0.365690	99
Es	0.404398	-0.191690	-0.634280	99
33
Properties=species:S:1:pos:R:3:Z:I:1 energy=-283.7448625598307 field_type=dipole dipole="0.000000 0.000000 0.000000" charge=0
O	-1.939671	-0.230148	0.365575	8
C	-0.514941	-0.232358	0.544865	6
C	0.250199	-0.982358	-0.505215	6
C	0.278999	0.524762	-0.489705	6
C	1.475179	1.201072	-0.079755	6
N	2.440759	1.744982	0.261975	7
H	-2.390841	0.233102	1.093895	1
H	-0.133521	-0.287738	1.560806	1
H	-0.313361	-1.470488	-1.292305	1
H	1.132979	-1.528778	-0.192735	1
H	-0.285781	1.027952	-1.267405	1
Es	-2.154144	0.024830	0.765362	99
Es	-1.939625	-0.230081	0.365638	99
Es	1.474889	1.200902	-0.079861	99
Es	0.279105	0.524644	-0.489579	99
Es	-0.185739	-0.773796	0.088795	99
Es	2.131454	1.457746	-0.173173	99
Es	-0.126816	-1.294971	-1.031168	99
Es	-1.393640	-0.207060	0.462743	99
Es	1.839596	1.756289	0.170330	99
Es	2.743710	1.914948	0.370349	99
Es	-0.121232	0.348288	0.097239	99
Es	-0.515068	-0.232299	0.544644	99
Es	-2.017484	-0.516361	0.386954	99
Es	2.440383	1.744769	0.261844	99
Es	2.037613	1.277285	0.328277	99
Es	0.404701	-0.191586	-0.634552	99
Es	-1.984453	-0.070824	0.116262	99
Es	-0.081554	0.863001	-0.995429	99
Es	0.250173	-0.982131	-0.505144	99
Es	0.844312	-1.336506	-0.292694	99
Es	-0.262385	-0.257200	1.228423	99
Es	0.908373	0.874801	-0.275700	99
33
Properties=species:S:1:pos:R:3:Z:I:1 energy=-283.7448625598307 field_type=dipole dipole="0.000000 0.000000 0.000000" charge=0
O	-1.939671	-0.230148	0.365575	8
C	-0.514941	-0.232358	0.544865	6
C	0.250199	-0.982358	-0.505215	6
C	0.278999	0.524762	-0.489705	6
C	1.475179	1.201072	-0.079755	6
N	2.440759	1.744982	0.261975	7
H	-2.390841	0.233102	1.093895	1
H	-0.133521	-0.287738	1.560806	1
H	-0.313361	-1.470488	-1.292305	1
H	1.132979	-1.528778	-0.192735	1
H	-0.285781	1.027952	-1.267405	1
Es	0.279101	0.524645	-0.489580	99
Es	0.404538	-0.191793	-0.634607	99
Es	2.142889	1.434247	-0.163054	99
Es	0.908352	0.874613	-0.275732	99
Es	-0.185597	-0.774062	0.088992	99
Es	2.023185	1.293127	0.345046	99
Es	-0.515064	-0.232297	0.544640	99
Es	-2.016967	-0.515810	0.388667	99
Es	-1.939507	-0.230028	0.365819	99
Es	-0.081366	0.863072	-0.995412	99
Es	-1.393617	-0.207063	0.462590	99
Es	2.440383	1.744769	0.261844	99
Es	1.474889	1.200911	-0.079857	99
Es	-0.121216	0.348713	0.097150	99
Es	-0.262456	-0.257036	1.228321	99
Es	1.842992	1.763770	0.143354	99
Es	-1.985395	-0.071985	0.114774	99
Es	-0.126833	-1.295011	-1.031004	99
Es	0.844271	-1.336463	-0.292806	99
Es	0.250174	-0.982144	-0.505148	99
Es	-2.153877	0.025355	0.765094	99
Es	2.743288	1.915161	0.370466	99
