44
Properties=species:S:1:pos:R:3:Z:I:1 energy=-304.0889470442223 field_type=dipole dipole="0.000000 0.000000 0.000000" charge=0
C	-1.525855	-0.616874	0.669223	6
C	-0.029655	-0.588624	0.370873	6
C	0.411645	-1.294064	-0.889277	6
C	-0.361475	-1.737344	-1.889767	6
C	0.415585	0.852846	0.239803	6
N	1.333885	1.338906	1.015223	7
N	1.605265	2.639106	0.757353	7
H	-1.734825	-0.112584	1.619813	1
H	-1.893705	-1.645684	0.748443	1
H	-2.108235	-0.099404	-0.101767	1
H	0.497705	-1.047264	1.216353	1
H	1.488605	-1.450624	-0.971477	1
H	-1.439835	-1.619884	-1.894537	1
H	0.083125	-2.233384	-2.748437	1
H	-0.076675	1.460956	-0.543917	1
H	2.457315	2.909016	1.256513	1
H	0.877135	3.244906	1.145583	1
Es	-0.778009	-0.599962	0.501692	99
Es	-1.525817	-0.616866	0.669209	99
Es	0.042663	-1.226065	-1.546629	99
Es	0.415530	0.852819	0.239845	99
Es	1.531839	1.152487	1.274544	99
Es	0.727739	1.216192	0.875908	99
Es	-1.916357	-0.263302	0.138155	99
Es	1.632870	2.684341	0.409746	99
Es	1.160050	2.981423	1.002952	99
Es	-1.093352	-1.659860	-1.895197	99
Es	-1.660262	-0.271854	1.314454	99
Es	-0.017952	-1.804272	-1.244602	99
Es	2.111371	2.797029	1.075750	99
Es	1.117721	1.053455	0.476402	99
Es	1.453581	2.000577	0.895803	99
Es	1.333589	1.339248	1.014801	99
Es	-0.361536	-1.737370	-1.889838	99
Es	0.411690	-1.294011	-0.889171	99
Es	1.142523	-1.394307	-0.936506	99
Es	0.073336	1.261872	-0.287833	99
Es	0.192645	0.132373	0.300652	99
Es	-0.029679	-0.588582	0.370800	99
Es	-1.771358	-1.315208	0.720386	99
Es	1.605186	2.638958	0.757967	99
Es	0.170312	-0.939107	-0.267991	99
Es	0.326158	-0.900084	0.933198	99
Es	-0.066473	-2.073286	-2.473795	99
44
Properties=species:S:1:pos:R:3:Z:I:1 energy=-304.0889470442223 field_type=dipole dipole="0.000000 0.000000 0.000000" charge=0
C	-1.525855	-0.616874	0.669223	6
C	-0.029655	-0.588624	0.370873	6
C	0.411645	-1.294064	-0.889277	6
C	-0.361475	-1.737344	-1.889767	6
C	0.415585	0.852846	0.239803	6
N	1.333885	1.338906	1.015223	7
N	1.605265	2.639106	0.757353	7
H	-1.734825	-0.112584	1.619813	1
H	-1.893705	-1.645684	0.748443	1
H	-2.108235	-0.099404	-0.101767	1
H	0.497705	-1.047264	1.216353	1
H	1.488605	-1.450624	-0.971477	1
H	-1.439835	-1.619884	-1.894537	1
H	0.083125	-2.233384	-2.748437	1
H	-0.076675	1.460956	-0.543917	1
H	2.457315	2.909016	1.256513	1
H	0.877135	3.244906	1.145583	1
Es	-0.361536	-1.737370	-1.889837	99
Es	0.326205	-0.900108	0.933050	99
Es	1.531662	1.152507	1.274486	99
Es	-1.093342	-1.659773	-1.895274	99
Es	1.142588	-1.394131	-0.936648	99
Es	0.073371	1.261877	-0.287842	99
Es	-0.778059	-0.599799	0.501788	99
Es	0.042592	-1.226271	-1.546454	99
Es	-0.029678	-0.588582	0.370803	99
Es	0.411689	-1.294008	-0.889174	99
Es	1.633855	2.684400	0.410167	99
Es	1.453822	2.000405	0.895302	99
Es	-1.660410	-0.271910	1.314481	99
Es	1.159594	2.981641	1.002307	99
Es	-1.771255	-1.315228	0.720297	99
Es	-0.017915	-1.804300	-1.244621	99
Es	0.170211	-0.939071	-0.267916	99
Es	1.605182	2.638965	0.757973	99
Es	-1.916383	-0.263390	0.138217	99
Es	-0.066428	-2.073295	-2.473789	99
Es	1.333590	1.339238	1.014804	99
Es	0.192729	0.132284	0.300696	99
Es	1.117746	1.053432	0.476558	99
Es	0.415532	0.852807	0.239821	99
Es	2.110750	2.796990	1.076478	99
Es	-1.525818	-0.616866	0.669209	99
Es	0.727710	1.216193	0.875817	99
44
Properties=species:S:1:pos:R:3:Z:I:1 energy=-304.0889470442223 field_type=dipole dipole="0.000000 0.000000 0.000000" charge=0
C	-1.525855	-0.616874	0.669223	6
C	-0.029655	-0.588624	0.370873	6
C	0.411645	-1.294064	-0.889277	6
C	-0.361475	-1.737344	-1.889767	6
C	0.415585	0.852846	0.239803	6
N	1.333885	1.338906	1.015223	7
N	1.605265	2.639106	0.757353	7
H	-1.734825	-0.112584	1.619813	1
H	-1.893705	-1.645684	0.748443	1
H	-2.108235	-0.099404	-0.101767	1
H	0.497705	-1.047264	1.216353	1
H	1.488605	-1.450624	-0.971477	1
H	-1.439835	-1.619884	-1.894537	1
H	0.083125	-2.233384	-2.748437	1
H	-0.076675	1.460956	-0.543917	1
H	2.457315	2.909016	1.256513	1
H	0.877135	3.244906	1.145583	1
Es	-0.361538	-1.737371	-1.889837	99
Es	0.727655	1.216088	0.876131	99
Es	-0.029679	-0.588582	0.370800	99
Es	-1.916482	-0.263369	0.138223	99
Es	-0.066489	-2.073352	-2.473797	99
Es	0.042748	-1.226296	-1.546560	99
Es	1.605182	2.638932	0.758005	99
Es	2.111297	2.797155	1.075894	99
Es	-1.771277	-1.315170	0.720395	99
Es	0.170426	-0.938982	-0.267937	99
Es	1.633053	2.684413	0.410199	99
Es	0.192642	0.132158	0.300715	99
Es	0.326217	-0.899949	0.933095	99
Es	1.453784	2.000503	0.895580	99
Es	1.142517	-1.394332	-0.936582	99
Es	1.333578	1.339231	1.014793	99
Es	0.073422	1.261852	-0.287888	99
Es	0.411689	-1.294016	-0.889167	99
Es	-0.778074	-0.599932	0.501716	99
Es	-1.660325	-0.271938	1.314430	99
Es	-1.093342	-1.659679	-1.895234	99
Es	1.117291	1.053766	0.476695	99
Es	-1.525819	-0.616866	0.669209	99
Es	1.532102	1.152302	1.273991	99
Es	-0.017993	-1.804219	-1.244608	99
Es	0.415536	0.852810	0.239825	99
Es	1.159887	2.981479	1.002614	99
44
Properties=species:S:1:pos:R:3:Z:I:1 energy=-304.0889470442223 field_type=dipole dipole="0.000000 0.000000 0.000000" charge=0
C	-1.525855	-0.616874	0.669223	6
C	-0.029655	-0.588624	0.370873	6
C	0.411645	-1.294064	-0.889277	6
C	-0.361475	-1.737344	-1.889767	6
C	0.415585	0.852846	0.239803	6
N	1.333885	1.338906	1.015223	7
N	1.605265	2.639106	0.757353	7
H	-1.734825	-0.112584	1.619813	1
H	-1.893705	-1.645684	0.748443	1
H	-2.108235	-0.099404	-0.101767	1
H	0.497705	-1.047264	1.216353	1
H	1.488605	-1.450624	-0.971477	1
H	-1.439835	-1.619884	-1.894537	1
H	0.083125	-2.233384	-2.748437	1
H	-0.076675	1.460956	-0.543917	1
H	2.457315	2.909016	1.256513	1
H	0.877135	3.244906	1.145583	1
Es	-1.660428	-0.271952	1.314420	99
Es	1.333583	1.339228	1.014802	99
Es	1.531571	1.152272	1.273989	99
Es	1.142586	-1.394321	-0.936638	99
Es	1.605186	2.638943	0.757961	99
Es	-1.771312	-1.315177	0.720323	99
Es	0.073507	1.261882	-0.287906	99
Es	-0.066433	-2.073403	-2.473758	99
Es	0.170281	-0.938786	-0.267968	99
Es	0.192647	0.132101	0.300852	99
Es	-1.525817	-0.616866	0.669209	99
Es	0.326237	-0.900083	0.932973	99
Es	1.159928	2.981426	1.002773	99
Es	1.454147	2.000672	0.896008	99
Es	0.042723	-1.226401	-1.546485	99
Es	-0.017944	-1.804005	-1.244731	99
Es	2.111595	2.797299	1.075501	99
Es	1.632641	2.684262	0.410257	99
Es	-0.778066	-0.599936	0.501846	99
Es	0.411690	-1.294014	-0.889168	99
Es	1.117403	1.053649	0.476727	99
Es	0.415532	0.852809	0.239826	99
Es	0.727723	1.216147	0.875915	99
Es	-1.093372	-1.659799	-1.895210	99
Es	-0.029677	-0.588581	0.370802	99
Es	-0.361535	-1.737369	-1.889835	99
Es	-1.916387	-0.263360	0.138213	99
44
Properties=species:S:1:pos:R:3:Z:I:1 energy=-304.0889470442223 field_type=dipole dipole="0.000000 0.000000 0.000000" charge=0
C	-1.525855	-0.616874	0.669223	6
C	-0.029655	-0.588624	0.370873	6
C	0.411645	-1.294064	-0.889277	6
C	-0.361475	-1.737344	-1.889767	6
C	0.415585	0.852846	0.239803	6
N	1.333885	1.338906	1.015223	7
N	1.605265	2.639106	0.757353	7
H	-1.734825	-0.112584	1.619813	1
H	-1.893705	-1.645684	0.748443	1
H	-2.108235	-0.099404	-0.101767	1
H	0.497705	-1.047264	1.216353	1
H	1.488605	-1.450624	-0.971477	1
H	-1.439835	-1.619884	-1.894537	1
H	0.083125	-2.233384	-2.748437	1
H	-0.076675	1.460956	-0.543917	1
H	2.457315	2.909016	1.256513	1
H	0.877135	3.244906	1.145583	1
Es	-0.778151	-0.599878	0.501785	99
Es	0.415526	0.852812	0.239836	99
Es	1.333573	1.339262	1.014782	99
Es	1.159906	2.981481	1.002709	99
Es	-0.361539	-1.737373	-1.889842	99
Es	-0.029678	-0.588582	0.370802	99
Es	0.411691	-1.294006	-0.889174	99
Es	1.605176	2.638984	0.757962	99
Es	-0.017937	-1.803965	-1.244757	99
Es	0.326242	-0.899987	0.932934	99
Es	-1.771398	-1.315181	0.720335	99
Es	0.192787	0.131959	0.300709	99
Es	0.042714	-1.226536	-1.546386	99
Es	0.727963	1.216038	0.875832	99
Es	1.142621	-1.394324	-0.936673	99
Es	1.632639	2.684309	0.410561	99
Es	-1.093362	-1.659794	-1.895217	99
Es	0.073507	1.261959	-0.287899	99
Es	-1.525818	-0.616866	0.669209	99
Es	1.117293	1.053622	0.476766	99
Es	2.111685	2.797285	1.075491	99
Es	0.170246	-0.938802	-0.267861	99
Es	-1.916366	-0.263416	0.138332	99
Es	-0.066411	-2.073376	-2.473781	99
Es	1.531363	1.152245	1.273987	99
Es	-1.660419	-0.271891	1.314397	99
Es	1.454155	2.000656	0.895864	99
44
Properties=species:S:1:pos:R:3:Z:I:1 energy=-304.0889470442223 field_type=dipole dipole="0.000000 0.000000 0.000000" charge=0
C	-1.525855	-0.616874	0.669223	6
C	-0.029655	-0.588624	0.370873	6
C	0.411645	-1.294064	-0.889277	6
C	-0.361475	-1.737344	-1.889767	6
C	0.415585	0.852846	0.239803	6
N	1.333885	1.338906	1.015223	7
N	1.605265	2.639106	0.757353	7
H	-1.734825	-0.112584	1.619813	1
H	-1.893705	-1.645684	0.748443	1
H	-2.108235	-0.099404	-0.101767	1
H	0.497705	-1.047264	1.216353	1
H	1.488605	-1.450624	-0.971477	1
H	-1.439835	-1.619884	-1.894537	1
H	0.083125	-2.233384	-2.748437	1
H	-0.076675	1.460956	-0.543917	1
H	2.457315	2.909016	1.256513	1
H	0.877135	3.244906	1.145583	1
Es	1.454514	2.000524	0.895886	99
Es	-1.916634	-0.263390	0.138342	99
Es	1.117317	1.053646	0.476811	99
Es	1.605183	2.638954	0.757989	99
Es	1.333585	1.339237	1.014801	99
Es	0.042776	-1.226610	-1.546390	99
Es	-1.660242	-0.272013	1.314551	99
Es	0.727882	1.216012	0.875869	99
Es	-1.771272	-1.315004	0.720365	99
Es	-0.066458	-2.073456	-2.473742	99
Es	-1.093380	-1.659808	-1.895169	99
Es	1.632369	2.684548	0.410620	99
Es	1.531251	1.152262	1.273761	99
Es	0.170233	-0.938647	-0.267789	99
Es	1.159961	2.981244	1.002847	99
Es	0.326256	-0.900030	0.932908	99
Es	2.111687	2.797528	1.075312	99
Es	0.073508	1.261953	-0.287854	99
Es	-0.778239	-0.600004	0.501558	99
Es	-0.361535	-1.737370	-1.889836	99
Es	0.411690	-1.294008	-0.889174	99
Es	0.415534	0.852809	0.239826	99
Es	0.192791	0.131902	0.300745	99
Es	-0.017876	-1.803964	-1.244811	99
Es	1.142602	-1.394228	-0.936737	99
Es	-0.029677	-0.588582	0.370802	99
Es	-1.525820	-0.616867	0.669209	99
44
Properties=species:S:1:pos:R:3:Z:I:1 energy=-304.0889470442223 field_type=dipole dipole="0.000000 0.000000 0.000000" charge=0
C	-1.525855	-0.616874	0.669223	6
C	-0.029655	-0.588624	0.370873	6
C	0.411645	-1.294064	-0.889277	6
C	-0.361475	-1.737344	-1.889767	6
C	0.415585	0.852846	0.239803	6
N	1.333885	1.338906	1.015223	7
N	1.605265	2.639106	0.757353	7
H	-1.734825	-0.112584	1.619813	1
H	-1.893705	-1.645684	0.748443	1
H	-2.108235	-0.099404	-0.101767	1
H	0.497705	-1.047264	1.216353	1
H	1.488605	-1.450624	-0.971477	1
H	-1.439835	-1.619884	-1.894537	1
H	0.083125	-2.233384	-2.748437	1
H	-0.076675	1.460956	-0.543917	1
H	2.457315	2.909016	1.256513	1
H	0.877135	3.244906	1.145583	1
Es	1.333594	1.339246	1.014806	99
Es	-0.361535	-1.737370	-1.889836	99
Es	0.326293	-0.899967	0.932891	99
Es	1.632832	2.684182	0.411047	99
Es	-0.029678	-0.588582	0.370802	99
Es	0.170231	-0.938707	-0.267756	99
Es	-1.525820	-0.616866	0.669209	99
Es	1.117301	1.053603	0.476884	99
Es	1.159758	2.981716	1.002432	99
Es	0.415535	0.852811	0.239825	99
Es	1.531043	1.152297	1.273645	99
Es	1.454407	2.000666	0.895917	99
Es	2.111636	2.797337	1.075437	99
Es	-1.093368	-1.659781	-1.895172	99
Es	0.411690	-1.294010	-0.889172	99
Es	-0.017899	-1.803906	-1.244820	99
Es	1.605176	2.639006	0.757945	99
Es	0.042714	-1.226678	-1.546307	99
Es	-1.771413	-1.315110	0.720330	99
Es	0.727942	1.215920	0.875819	99
Es	-1.916420	-0.263475	0.138417	99
Es	-1.660457	-0.271918	1.314393	99
Es	-0.066416	-2.073374	-2.473823	99
Es	1.142611	-1.394320	-0.936765	99
Es	-0.778118	-0.599867	0.501746	99
Es	0.073533	1.261995	-0.287897	99
Es	0.192835	0.131791	0.300704	99
44
Properties=species:S:1:pos:R:3:Z:I:1 energy=-304.0889470442223 field_type=dipole dipole="0.000000 0.000000 0.000000" charge=0
C	-1.525855	-0.616874	0.669223	6
C	-0.029655	-0.588624	0.370873	6
C	0.411645	-1.294064	-0.889277	6
C	-0.361475	-1.737344	-1.889767	6
C	0.415585	0.852846	0.239803	6
N	1.333885	1.338906	1.015223	7
N	1.605265	2.639106	0.757353	7
H	-1.734825	-0.112584	1.619813	1
H	-1.893705	-1.645684	0.748443	1
H	-2.108235	-0.099404	-0.101767	1
H	0.497705	-1.047264	1.216353	1
H	1.488605	-1.450624	-0.971477	1
H	-1.439835	-1.619884	-1.894537	1
H	0.083125	-2.233384	-2.748437	1
H	-0.076675	1.460956	-0.543917	1
H	2.457315	2.909016	1.256513	1
H	0.877135	3.244906	1.145583	1
Es	0.326295	-0.899963	0.932883	99
Es	0.073568	1.262006	-0.287906	99
Es	1.159727	2.981747	1.002428	99
Es	2.111733	2.797396	1.075298	99
Es	1.531200	1.152184	1.273458	99
Es	-0.029676	-0.588581	0.370801	99
Es	0.192850	0.131724	0.300693	99
Es	0.727948	1.215907	0.875913	99
Es	1.605187	2.638960	0.757955	99
Es	-0.017940	-1.803723	-1.244818	99
Es	-0.778113	-0.599851	0.501791	99
Es	1.333571	1.339195	1.014805	99
Es	-0.361535	-1.737371	-1.889834	99
Es	1.454488	2.000610	0.895799	99
Es	1.117071	1.053761	0.477028	99
Es	0.170206	-0.938609	-0.267751	99
Es	1.632712	2.684249	0.411275	99
Es	-1.660474	-0.271945	1.314331	99
Es	-0.066412	-2.073474	-2.473784	99
Es	0.415534	0.852809	0.239826	99
Es	-1.916431	-0.263459	0.138404	99
Es	0.411690	-1.294009	-0.889175	99
Es	-1.093341	-1.659822	-1.895171	99
Es	-1.771425	-1.315115	0.720362	99
Es	1.142649	-1.394384	-0.936800	99
Es	-1.525820	-0.616866	0.669209	99
Es	0.042744	-1.226736	-1.546320	99
44
Properties=species:S:1:pos:R:3:Z:I:1 energy=-304.0889470442223 field_type=dipole dipole="0.000000 0.000000 0.000000" charge=0
C	-1.525855	-0.616874	0.669223	6
C	-0.029655	-0.588624	0.370873	6
C	0.411645	-1.294064	-0.889277	6
C	-0.361475	-1.737344	-1.889767	6
C	0.415585	0.852846	0.239803	6
N	1.333885	1.338906	1.015223	7
N	1.605265	2.639106	0.757353	7
H	-1.734825	-0.112584	1.619813	1
H	-1.893705	-1.645684	0.748443	1
H	-2.108235	-0.099404	-0.101767	1
H	0.497705	-1.047264	1.216353	1
H	1.488605	-1.450624	-0.971477	1
H	-1.439835	-1.619884	-1.894537	1
H	0.083125	-2.233384	-2.748437	1
H	-0.076675	1.460956	-0.543917	1
H	2.457315	2.909016	1.256513	1
H	0.877135	3.244906	1.145583	1
Es	-0.029677	-0.588581	0.370802	99
Es	1.605185	2.638963	0.757962	99
Es	-1.093406	-1.659772	-1.895143	99
Es	-0.017867	-1.803725	-1.244907	99
Es	1.632607	2.684241	0.411675	99
Es	0.728099	1.215869	0.875666	99
Es	0.042774	-1.226892	-1.546237	99
Es	0.326310	-0.899928	0.932857	99
Es	-0.361535	-1.737369	-1.889837	99
Es	0.073577	1.262040	-0.287890	99
Es	0.192853	0.131633	0.300706	99
Es	2.111890	2.797473	1.075249	99
Es	-1.525820	-0.616866	0.669209	99
Es	1.142628	-1.394372	-0.936835	99
Es	1.117293	1.053544	0.476981	99
Es	-0.066403	-2.073416	-2.473809	99
Es	1.454577	2.000582	0.895758	99
Es	-1.660496	-0.271947	1.314365	99
Es	-0.778152	-0.599893	0.501778	99
Es	1.333592	1.339242	1.014805	99
Es	1.159706	2.981805	1.002232	99
Es	1.530700	1.152313	1.273573	99
Es	0.170216	-0.938565	-0.267671	99
Es	-1.916424	-0.263482	0.138425	99
Es	0.415535	0.852809	0.239827	99
Es	-1.771442	-1.315060	0.720333	99
Es	0.411690	-1.294010	-0.889176	99
44
Properties=species:S:1:pos:R:3:Z:I:1 energy=-304.0889470442223 field_type=dipole dipole="0.000000 0.000000 0.000000" charge=0
C	-1.525855	-0.616874	0.669223	6
C	-0.029655	-0.588624	0.370873	6
C	0.411645	-1.294064	-0.889277	6
C	-0.361475	-1.737344	-1.889767	6
C	0.415585	0.852846	0.239803	6
N	1.333885	1.338906	1.015223	7
N	1.605265	2.639106	0.757353	7
H	-1.734825	-0.112584	1.619813	1
H	-1.893705	-1.645684	0.748443	1
H	-2.108235	-0.099404	-0.101767	1
H	0.497705	-1.047264	1.216353	1
H	1.488605	-1.450624	-0.971477	1
H	-1.439835	-1.619884	-1.894537	1
H	0.083125	-2.233384	-2.748437	1
H	-0.076675	1.460956	-0.543917	1
H	2.457315	2.909016	1.256513	1
H	0.877135	3.244906	1.145583	1
Es	0.073617	1.262118	-0.287941	99
Es	0.170273	-0.938496	-0.267623	99
Es	-1.660451	-0.272027	1.314386	99
Es	0.415536	0.852809	0.239824	99
Es	-1.916447	-0.263409	0.138536	99
Es	-0.361535	-1.737369	-1.889837	99
Es	-1.093427	-1.659779	-1.895142	99
Es	2.112032	2.797557	1.075114	99
Es	1.333587	1.339229	1.014803	99
Es	-0.029676	-0.588585	0.370805	99
Es	0.326314	-0.899917	0.932997	99
Es	1.159651	2.981879	1.002121	99
Es	0.728186	1.215781	0.875715	99
Es	1.530585	1.152239	1.273404	99
Es	-1.525820	-0.616867	0.669210	99
Es	1.632528	2.684050	0.411788	99
Es	1.454716	2.000717	0.895985	99
Es	-0.066371	-2.073418	-2.473804	99
Es	0.192929	0.131372	0.300601	99
Es	1.117060	1.053610	0.477122	99
Es	-1.771496	-1.315052	0.720267	99
Es	-0.778195	-0.599755	0.501609	99
Es	1.605183	2.638961	0.757983	99
Es	0.411690	-1.294007	-0.889175	99
Es	0.042765	-1.226978	-1.546191	99
Es	1.142608	-1.394357	-0.936901	99
Es	-0.017833	-1.803668	-1.244957	99
44
Properties=species:S:1:pos:R:3:Z:I:1 energy=-304.0889470442223 field_type=dipole dipole="0.000000 0.000000 0.000000" charge=0
C	-1.525855	-0.616874	0.669223	6
C	-0.029655	-0.588624	0.370873	6
C	0.411645	-1.294064	-0.889277	6
C	-0.361475	-1.737344	-1.889767	6
C	0.415585	0.852846	0.239803	6
N	1.333885	1.338906	1.015223	7
N	1.605265	2.639106	0.757353	7
H	-1.734825	-0.112584	1.619813	1
H	-1.893705	-1.645684	0.748443	1
H	-2.108235	-0.099404	-0.101767	1
H	0.497705	-1.047264	1.216353	1
H	1.488605	-1.450624	-0.971477	1
H	-1.439835	-1.619884	-1.894537	1
H	0.083125	-2.233384	-2.748437	1
H	-0.076675	1.460956	-0.543917	1
H	2.457315	2.909016	1.256513	1
H	0.877135	3.244906	1.145583	1
Es	0.170124	-0.938500	-0.267577	99
Es	-0.066375	-2.073462	-2.473799	99
Es	0.326325	-0.899918	0.932789	99
Es	1.454643	2.000668	0.895735	99
Es	-0.361531	-1.737369	-1.889832	99
Es	0.728123	1.215657	0.876188	99
Es	1.116803	1.053675	0.477166	99
Es	1.333585	1.339234	1.014803	99
Es	0.411688	-1.294010	-0.889175	99
Es	0.192967	0.131490	0.300643	99
Es	-0.017806	-1.803510	-1.245051	99
Es	-1.916432	-0.263550	0.138494	99
Es	-1.093437	-1.659831	-1.895090	99
Es	1.142663	-1.394389	-0.936906	99
Es	1.159608	2.981951	1.002084	99
Es	-1.771499	-1.315033	0.720376	99
Es	1.530926	1.152333	1.272994	99
Es	0.415532	0.852809	0.239827	99
Es	1.605187	2.638973	0.757945	99
Es	2.112222	2.797606	1.074930	99
Es	-1.525820	-0.616865	0.669208	99
Es	0.042785	-1.227035	-1.546151	99
Es	0.073697	1.262067	-0.287962	99
Es	-1.660512	-0.271906	1.314320	99
Es	1.632368	2.684028	0.412181	99
Es	-0.029678	-0.588581	0.370803	99
Es	-0.778149	-0.599892	0.501755	99
