42
Properties=species:S:1:pos:R:3:Z:I:1 energy=-286.88369180740904 field_type=dipole dipole="0.000000 0.000000 0.000000" charge=0
C	-3.369610	-0.676500	-0.341437	6
C	-1.925610	-0.676500	-0.341437	6
C	-0.735450	-0.676500	-0.341437	6
C	0.708550	-0.676500	-0.341437	6
N	1.226610	0.696780	-0.385397	7
C	1.536891	1.255550	0.928013	6
C	2.631500	0.798390	-0.002557	6
H	-3.763580	0.344390	-0.329537	1
H	-3.763660	-1.197180	0.536723	1
H	-3.763690	-1.176600	-1.231467	1
H	1.070460	-1.205450	-1.231437	1
H	1.078960	-1.244400	0.522533	1
H	1.320080	0.666290	1.810093	1
H	1.369210	2.320260	1.033692	1
H	3.205570	1.555900	-0.522627	1
H	3.173770	-0.107930	0.237723	1
Es	1.421735	1.977479	1.003619	99
Es	1.882931	0.659211	-0.333777	99
Es	3.024317	1.308382	-0.357512	99
Es	1.218609	0.935907	0.226805	99
Es	0.940898	-1.032605	-0.940373	99
Es	1.011976	0.088093	-0.332446	99
Es	2.631259	0.798390	-0.002546	99
Es	1.226894	0.696418	-0.384893	99
Es	2.994200	0.175070	0.158610	99
Es	-3.618226	-1.025850	0.247511	99
Es	-2.626712	-0.677008	-0.341324	99
Es	-0.735178	-0.676508	-0.341436	99
Es	1.536914	1.255439	0.927789	99
Es	-3.616936	0.006793	-0.333213	99
Es	2.239610	1.088213	0.611986	99
Es	1.105906	0.911151	-0.637078	99
Es	0.953296	-1.054910	0.254059	99
Es	-3.617905	-1.011962	-0.937727	99
Es	0.708482	-0.676368	-0.341431	99
Es	-1.328017	-0.486644	-0.031947	99
Es	1.387087	0.847430	1.523154	99
Es	-0.037849	-0.673487	-0.336959	99
Es	-1.316261	-1.043093	-0.324609	99
Es	-1.331255	-0.509828	-0.660681	99
Es	-3.369503	-0.676501	-0.341436	99
Es	-1.925891	-0.676498	-0.341426	99
42
Properties=species:S:1:pos:R:3:Z:I:1 energy=-286.88369180740904 field_type=dipole dipole="0.000000 0.000000 0.000000" charge=0
C	-3.369610	-0.676500	-0.341437	6
C	-1.925610	-0.676500	-0.341437	6
C	-0.735450	-0.676500	-0.341437	6
C	0.708550	-0.676500	-0.341437	6
N	1.226610	0.696780	-0.385397	7
C	1.536891	1.255550	0.928013	6
C	2.631500	0.798390	-0.002557	6
H	-3.763580	0.344390	-0.329537	1
H	-3.763660	-1.197180	0.536723	1
H	-3.763690	-1.176600	-1.231467	1
H	1.070460	-1.205450	-1.231437	1
H	1.078960	-1.244400	0.522533	1
H	1.320080	0.666290	1.810093	1
H	1.369210	2.320260	1.033692	1
H	3.205570	1.555900	-0.522627	1
H	3.173770	-0.107930	0.237723	1
Es	-3.618095	-1.025923	0.247622	99
Es	2.994120	0.175199	0.158447	99
Es	-1.925893	-0.676505	-0.341435	99
Es	-1.332532	-0.544656	-0.676279	99
Es	1.226892	0.696421	-0.384896	99
Es	2.631253	0.798386	-0.002558	99
Es	-0.037764	-0.673564	-0.337114	99
Es	1.536912	1.255440	0.927790	99
Es	-3.369503	-0.676501	-0.341436	99
Es	1.387095	0.847550	1.523092	99
Es	0.708481	-0.676371	-0.341433	99
Es	3.024378	1.308373	-0.357320	99
Es	-3.616928	0.006817	-0.333178	99
Es	0.953206	-1.054992	0.254060	99
Es	0.940917	-1.032558	-0.940380	99
Es	-1.316804	-1.038888	-0.288766	99
Es	1.011820	0.088154	-0.332570	99
Es	1.218298	0.936134	0.227156	99
Es	2.239469	1.088091	0.612143	99
Es	-1.326213	-0.456041	-0.052311	99
Es	-0.735185	-0.676521	-0.341439	99
Es	1.421736	1.977411	1.003632	99
Es	1.105810	0.910693	-0.636168	99
Es	-2.626833	-0.676844	-0.341237	99
Es	-3.617914	-1.011981	-0.937763	99
Es	1.883657	0.659391	-0.334942	99
42
Properties=species:S:1:pos:R:3:Z:I:1 energy=-286.88369180740904 field_type=dipole dipole="0.000000 0.000000 0.000000" charge=0
C	-3.369610	-0.676500	-0.341437	6
C	-1.925610	-0.676500	-0.341437	6
C	-0.735450	-0.676500	-0.341437	6
C	0.708550	-0.676500	-0.341437	6
N	1.226610	0.696780	-0.385397	7
C	1.536891	1.255550	0.928013	6
C	2.631500	0.798390	-0.002557	6
H	-3.763580	0.344390	-0.329537	1
H	-3.763660	-1.197180	0.536723	1
H	-3.763690	-1.176600	-1.231467	1
H	1.070460	-1.205450	-1.231437	1
H	1.078960	-1.244400	0.522533	1
H	1.320080	0.666290	1.810093	1
H	1.369210	2.320260	1.033692	1
H	3.205570	1.555900	-0.522627	1
H	3.173770	-0.107930	0.237723	1
Es	1.536913	1.255438	0.927789	99
Es	1.218389	0.935890	0.226960	99
Es	0.940716	-1.032543	-0.940437	99
Es	-3.617909	-1.012057	-0.937736	99
Es	1.226899	0.696434	-0.384889	99
Es	2.239917	1.088429	0.612332	99
Es	2.631254	0.798391	-0.002547	99
Es	3.024399	1.308105	-0.357426	99
Es	-1.331084	-0.506618	-0.658419	99
Es	-3.369502	-0.676501	-0.341435	99
Es	-2.626997	-0.676874	-0.341541	99
Es	-1.316175	-1.042911	-0.330118	99
Es	1.105730	0.910852	-0.636076	99
Es	1.421701	1.977280	1.003640	99
Es	-3.617950	-1.025962	0.247751	99
Es	-0.037661	-0.673498	-0.336869	99
Es	-1.925893	-0.676500	-0.341448	99
Es	1.387104	0.847572	1.523107	99
Es	-0.735178	-0.676507	-0.341432	99
Es	2.994037	0.175288	0.158499	99
Es	1.883386	0.659339	-0.334946	99
Es	-1.328259	-0.490117	-0.028795	99
Es	1.011720	0.088323	-0.332667	99
Es	0.953259	-1.055089	0.254066	99
Es	-3.616915	0.006924	-0.333211	99
Es	0.708480	-0.676373	-0.341432	99
42
Properties=species:S:1:pos:R:3:Z:I:1 energy=-286.88369180740904 field_type=dipole dipole="0.000000 0.000000 0.000000" charge=0
C	-3.369610	-0.676500	-0.341437	6
C	-1.925610	-0.676500	-0.341437	6
C	-0.735450	-0.676500	-0.341437	6
C	0.708550	-0.676500	-0.341437	6
N	1.226610	0.696780	-0.385397	7
C	1.536891	1.255550	0.928013	6
C	2.631500	0.798390	-0.002557	6
H	-3.763580	0.344390	-0.329537	1
H	-3.763660	-1.197180	0.536723	1
H	-3.763690	-1.176600	-1.231467	1
H	1.070460	-1.205450	-1.231437	1
H	1.078960	-1.244400	0.522533	1
H	1.320080	0.666290	1.810093	1
H	1.369210	2.320260	1.033692	1
H	3.205570	1.555900	-0.522627	1
H	3.173770	-0.107930	0.237723	1
Es	1.217860	0.935958	0.226980	99
Es	1.387036	0.847665	1.522958	99
Es	-1.925893	-0.676506	-0.341432	99
Es	-0.735190	-0.676501	-0.341450	99
Es	2.994034	0.175327	0.158367	99
Es	2.631249	0.798390	-0.002549	99
Es	-1.316000	-1.041859	-0.363165	99
Es	0.953190	-1.055022	0.254039	99
Es	-0.037598	-0.673502	-0.336892	99
Es	1.011588	0.088463	-0.333105	99
Es	-1.329733	-0.477270	-0.641136	99
Es	1.226886	0.696407	-0.384898	99
Es	-3.369503	-0.676501	-0.341436	99
Es	-3.616910	0.006933	-0.333206	99
Es	3.024364	1.308072	-0.357383	99
Es	-2.627016	-0.676843	-0.341567	99
Es	1.883542	0.659404	-0.334943	99
Es	1.421646	1.977186	1.003701	99
Es	-3.617827	-1.012069	-0.937819	99
Es	2.240242	1.088419	0.612602	99
Es	0.708481	-0.676371	-0.341433	99
Es	1.106080	0.910641	-0.635706	99
Es	-3.618011	-1.025969	0.247707	99
Es	1.536915	1.255441	0.927792	99
Es	-1.329806	-0.520554	-0.012828	99
Es	0.940753	-1.032625	-0.940478	99
42
Properties=species:S:1:pos:R:3:Z:I:1 energy=-286.88369180740904 field_type=dipole dipole="0.000000 0.000000 0.000000" charge=0
C	-3.369610	-0.676500	-0.341437	6
C	-1.925610	-0.676500	-0.341437	6
C	-0.735450	-0.676500	-0.341437	6
C	0.708550	-0.676500	-0.341437	6
N	1.226610	0.696780	-0.385397	7
C	1.536891	1.255550	0.928013	6
C	2.631500	0.798390	-0.002557	6
H	-3.763580	0.344390	-0.329537	1
H	-3.763660	-1.197180	0.536723	1
H	-3.763690	-1.176600	-1.231467	1
H	1.070460	-1.205450	-1.231437	1
H	1.078960	-1.244400	0.522533	1
H	1.320080	0.666290	1.810093	1
H	1.369210	2.320260	1.033692	1
H	3.205570	1.555900	-0.522627	1
H	3.173770	-0.107930	0.237723	1
Es	1.226893	0.696423	-0.384897	99
Es	-3.369504	-0.676501	-0.341436	99
Es	-0.037527	-0.673564	-0.336925	99
Es	-0.735185	-0.676505	-0.341431	99
Es	1.883408	0.659204	-0.335165	99
Es	-1.316183	-1.042809	-0.328244	99
Es	-1.331202	-0.508170	-0.659355	99
Es	1.421640	1.977065	1.003666	99
Es	-3.618007	-1.025979	0.247797	99
Es	3.024370	1.307916	-0.357369	99
Es	-1.328178	-0.488574	-0.029767	99
Es	1.536917	1.255438	0.927785	99
Es	-1.925889	-0.676503	-0.341434	99
Es	0.940759	-1.032636	-0.940471	99
Es	-2.627100	-0.676993	-0.341364	99
Es	2.631243	0.798385	-0.002556	99
Es	1.106448	0.910015	-0.635851	99
Es	2.240437	1.088618	0.612867	99
Es	-3.617829	-1.012067	-0.937892	99
Es	2.993990	0.175431	0.158368	99
Es	0.708482	-0.676373	-0.341432	99
Es	-3.616797	0.006962	-0.333209	99
Es	0.953138	-1.055041	0.254057	99
Es	1.386943	0.847725	1.522972	99
Es	1.217654	0.936662	0.226833	99
Es	1.011458	0.088587	-0.332829	99
42
Properties=species:S:1:pos:R:3:Z:I:1 energy=-286.88369180740904 field_type=dipole dipole="0.000000 0.000000 0.000000" charge=0
C	-3.369610	-0.676500	-0.341437	6
C	-1.925610	-0.676500	-0.341437	6
C	-0.735450	-0.676500	-0.341437	6
C	0.708550	-0.676500	-0.341437	6
N	1.226610	0.696780	-0.385397	7
C	1.536891	1.255550	0.928013	6
C	2.631500	0.798390	-0.002557	6
H	-3.763580	0.344390	-0.329537	1
H	-3.763660	-1.197180	0.536723	1
H	-3.763690	-1.176600	-1.231467	1
H	1.070460	-1.205450	-1.231437	1
H	1.078960	-1.244400	0.522533	1
H	1.320080	0.666290	1.810093	1
H	1.369210	2.320260	1.033692	1
H	3.205570	1.555900	-0.522627	1
H	3.173770	-0.107930	0.237723	1
Es	-1.925893	-0.676505	-0.341435	99
Es	-0.735187	-0.676499	-0.341433	99
Es	-1.316181	-1.042695	-0.328117	99
Es	1.106167	0.910239	-0.635110	99
Es	-3.369502	-0.676501	-0.341436	99
Es	1.421686	1.977034	1.003561	99
Es	0.708480	-0.676374	-0.341432	99
Es	-3.617825	-1.012062	-0.937940	99
Es	-3.617996	-1.025999	0.247816	99
Es	1.883481	0.659174	-0.336046	99
Es	2.240667	1.088412	0.613001	99
Es	2.631255	0.798388	-0.002553	99
Es	2.993951	0.175521	0.158230	99
Es	1.226893	0.696423	-0.384896	99
Es	-2.627222	-0.677023	-0.341397	99
Es	-0.037449	-0.673555	-0.337022	99
Es	3.024348	1.307850	-0.357374	99
Es	0.952947	-1.055010	0.254143	99
Es	1.386736	0.847923	1.522902	99
Es	0.940841	-1.032725	-0.940446	99
Es	1.011237	0.088668	-0.333109	99
Es	1.536923	1.255445	0.927799	99
Es	-1.331196	-0.508597	-0.659477	99
Es	-3.616700	0.007068	-0.333182	99
Es	1.218087	0.936427	0.227439	99
Es	-1.328169	-0.488310	-0.029767	99
42
Properties=species:S:1:pos:R:3:Z:I:1 energy=-286.88369180740904 field_type=dipole dipole="0.000000 0.000000 0.000000" charge=0
C	-3.369610	-0.676500	-0.341437	6
C	-1.925610	-0.676500	-0.341437	6
C	-0.735450	-0.676500	-0.341437	6
C	0.708550	-0.676500	-0.341437	6
N	1.226610	0.696780	-0.385397	7
C	1.536891	1.255550	0.928013	6
C	2.631500	0.798390	-0.002557	6
H	-3.763580	0.344390	-0.329537	1
H	-3.763660	-1.197180	0.536723	1
H	-3.763690	-1.176600	-1.231467	1
H	1.070460	-1.205450	-1.231437	1
H	1.078960	-1.244400	0.522533	1
H	1.320080	0.666290	1.810093	1
H	1.369210	2.320260	1.033692	1
H	3.205570	1.555900	-0.522627	1
H	3.173770	-0.107930	0.237723	1
Es	-1.316383	-1.042684	-0.316454	99
Es	1.386959	0.847917	1.522782	99
Es	1.217052	0.936815	0.226963	99
Es	2.993921	0.175589	0.158197	99
Es	-0.735186	-0.676506	-0.341438	99
Es	0.952977	-1.055034	0.254108	99
Es	1.226895	0.696420	-0.384893	99
Es	-3.617812	-1.012087	-0.937985	99
Es	2.631247	0.798387	-0.002551	99
Es	1.011010	0.088769	-0.333448	99
Es	-3.616689	0.007082	-0.333164	99
Es	0.940719	-1.032757	-0.940496	99
Es	1.883474	0.658998	-0.335206	99
Es	-3.617944	-1.026021	0.247854	99
Es	-3.369506	-0.676501	-0.341436	99
Es	0.708484	-0.676372	-0.341434	99
Es	-1.925888	-0.676504	-0.341436	99
Es	-2.627300	-0.677040	-0.341338	99
Es	2.240912	1.088625	0.613173	99
Es	3.024355	1.307778	-0.357351	99
Es	1.107121	0.909886	-0.635374	99
Es	-0.037376	-0.673645	-0.336919	99
Es	-1.331605	-0.518666	-0.664275	99
Es	1.536916	1.255439	0.927786	99
Es	-1.327562	-0.478101	-0.036682	99
Es	1.421588	1.976929	1.003737	99
42
Properties=species:S:1:pos:R:3:Z:I:1 energy=-286.88369180740904 field_type=dipole dipole="0.000000 0.000000 0.000000" charge=0
C	-3.369610	-0.676500	-0.341437	6
C	-1.925610	-0.676500	-0.341437	6
C	-0.735450	-0.676500	-0.341437	6
C	0.708550	-0.676500	-0.341437	6
N	1.226610	0.696780	-0.385397	7
C	1.536891	1.255550	0.928013	6
C	2.631500	0.798390	-0.002557	6
H	-3.763580	0.344390	-0.329537	1
H	-3.763660	-1.197180	0.536723	1
H	-3.763690	-1.176600	-1.231467	1
H	1.070460	-1.205450	-1.231437	1
H	1.078960	-1.244400	0.522533	1
H	1.320080	0.666290	1.810093	1
H	1.369210	2.320260	1.033692	1
H	3.205570	1.555900	-0.522627	1
H	3.173770	-0.107930	0.237723	1
Es	-3.616625	0.007119	-0.333090	99
Es	2.631250	0.798390	-0.002549	99
Es	2.993905	0.175657	0.158119	99
Es	-3.617920	-1.026067	0.247858	99
Es	0.940637	-1.032765	-0.940605	99
Es	-1.925891	-0.676505	-0.341433	99
Es	-1.330987	-0.503636	-0.656648	99
Es	1.106928	0.909307	-0.634946	99
Es	1.883581	0.659166	-0.335990	99
Es	0.708482	-0.676372	-0.341434	99
Es	-3.617822	-1.012055	-0.938067	99
Es	1.421572	1.976823	1.003775	99
Es	0.953023	-1.055043	0.254111	99
Es	3.024314	1.307651	-0.357335	99
Es	1.216905	0.937122	0.227078	99
Es	-2.627372	-0.676934	-0.341354	99
Es	1.386963	0.847978	1.522728	99
Es	-3.369505	-0.676501	-0.341436	99
Es	1.226880	0.696433	-0.384922	99
Es	-0.037298	-0.673548	-0.336823	99
Es	1.011090	0.088854	-0.333315	99
Es	-1.316156	-1.043040	-0.333612	99
Es	2.241096	1.088764	0.613393	99
Es	-1.328397	-0.493017	-0.027136	99
Es	1.536914	1.255438	0.927786	99
Es	-0.735187	-0.676504	-0.341435	99
42
Properties=species:S:1:pos:R:3:Z:I:1 energy=-286.88369180740904 field_type=dipole dipole="0.000000 0.000000 0.000000" charge=0
C	-3.369610	-0.676500	-0.341437	6
C	-1.925610	-0.676500	-0.341437	6
C	-0.735450	-0.676500	-0.341437	6
C	0.708550	-0.676500	-0.341437	6
N	1.226610	0.696780	-0.385397	7
C	1.536891	1.255550	0.928013	6
C	2.631500	0.798390	-0.002557	6
H	-3.763580	0.344390	-0.329537	1
H	-3.763660	-1.197180	0.536723	1
H	-3.763690	-1.176600	-1.231467	1
H	1.070460	-1.205450	-1.231437	1
H	1.078960	-1.244400	0.522533	1
H	1.320080	0.666290	1.810093	1
H	1.369210	2.320260	1.033692	1
H	3.205570	1.555900	-0.522627	1
H	3.173770	-0.107930	0.237723	1
Es	-1.925889	-0.676506	-0.341436	99
Es	1.536922	1.255436	0.927775	99
Es	-3.616473	0.007188	-0.333246	99
Es	-3.369505	-0.676501	-0.341436	99
Es	2.241208	1.088814	0.613629	99
Es	0.952922	-1.055128	0.254136	99
Es	-0.037201	-0.673490	-0.336906	99
Es	1.216733	0.937159	0.226982	99
Es	1.883844	0.659325	-0.336234	99
Es	1.226897	0.696437	-0.384898	99
Es	-1.329051	-0.505414	-0.020346	99
Es	1.421563	1.976809	1.003806	99
Es	-3.617795	-1.012147	-0.938070	99
Es	1.010959	0.088882	-0.333583	99
Es	2.993843	0.175679	0.158088	99
Es	-1.316035	-1.042814	-0.346976	99
Es	3.024336	1.307520	-0.357303	99
Es	0.940558	-1.032777	-0.940595	99
Es	2.631248	0.798390	-0.002548	99
Es	-1.330425	-0.491409	-0.649888	99
Es	-3.617978	-1.025958	0.247991	99
Es	-0.735191	-0.676507	-0.341446	99
Es	-2.627506	-0.677095	-0.341478	99
Es	1.107092	0.909178	-0.634487	99
Es	0.708481	-0.676376	-0.341433	99
Es	1.386821	0.848020	1.522620	99
