47
Properties=species:S:1:pos:R:3:Z:I:1 energy=-305.32399757272196 field_type=dipole dipole="0.000000 0.000000 0.000000" charge=0
C	-0.530603	-2.136116	-0.713319	6
C	-1.105063	-0.989446	0.108881	6
C	-0.426993	0.355564	-0.193269	6
C	-1.139973	1.489184	0.541741	6
N	0.963727	0.313244	0.230431	7
C	1.930777	1.100774	-0.298279	6
N	3.117187	1.231214	0.174621	7
H	-1.076793	-3.060756	-0.501279	1
H	0.523787	-2.308676	-0.477429	1
H	-0.615833	-1.930736	-1.784969	1
H	-1.011423	-1.234086	1.174541	1
H	-2.177723	-0.913466	-0.108259	1
H	-0.482103	0.544674	-1.272599	1
H	-1.105643	1.344504	1.627320	1
H	-2.190223	1.550694	0.238461	1
H	-0.670243	2.454214	0.322441	1
H	1.142897	-0.104026	1.135521	1
H	1.630077	1.651754	-1.205679	1
H	3.224167	0.641484	1.001131	1
Es	-1.857502	1.526750	0.331746	99
Es	3.387573	1.431898	0.045587	99
Es	-0.758074	-0.317203	-0.039280	99
Es	2.565696	1.393976	0.158567	99
Es	-0.815747	2.143263	0.387874	99
Es	-0.590720	-1.989618	-1.444253	99
Es	-0.906150	-2.764583	-0.566729	99
Es	-0.426833	0.355560	-0.193181	99
Es	-0.810426	-1.558828	-0.303932	99
Es	1.299080	0.742337	0.099824	99
Es	0.376297	0.348967	0.055413	99
Es	1.712012	1.467486	-0.911578	99
Es	-1.837472	-0.929775	-0.041025	99
Es	0.184399	-2.251240	-0.550447	99
Es	3.160018	0.864738	0.681841	99
Es	3.116778	1.230939	0.174767	99
Es	2.735628	0.959392	-0.162877	99
Es	-1.139977	1.489180	0.541736	99
Es	-0.530624	-2.136091	-0.713302	99
Es	-0.791173	0.929578	0.179480	99
Es	0.963767	0.314021	0.230685	99
Es	-1.112574	1.380850	1.280791	99
Es	-1.105032	-0.989440	0.108860	99
Es	1.153080	0.186232	0.022607	99
Es	-1.032132	-1.147905	0.842839	99
Es	-0.455277	0.486560	-0.931451	99
Es	1.930599	1.100693	-0.298279	99
Es	1.062408	0.083931	0.781977	99
47
Properties=species:S:1:pos:R:3:Z:I:1 energy=-305.32399757272196 field_type=dipole dipole="0.000000 0.000000 0.000000" charge=0
C	-0.530603	-2.136116	-0.713319	6
C	-1.105063	-0.989446	0.108881	6
C	-0.426993	0.355564	-0.193269	6
C	-1.139973	1.489184	0.541741	6
N	0.963727	0.313244	0.230431	7
C	1.930777	1.100774	-0.298279	6
N	3.117187	1.231214	0.174621	7
H	-1.076793	-3.060756	-0.501279	1
H	0.523787	-2.308676	-0.477429	1
H	-0.615833	-1.930736	-1.784969	1
H	-1.011423	-1.234086	1.174541	1
H	-2.177723	-0.913466	-0.108259	1
H	-0.482103	0.544674	-1.272599	1
H	-1.105643	1.344504	1.627320	1
H	-2.190223	1.550694	0.238461	1
H	-0.670243	2.454214	0.322441	1
H	1.142897	-0.104026	1.135521	1
H	1.630077	1.651754	-1.205679	1
H	3.224167	0.641484	1.001131	1
Es	-0.815807	2.143247	0.387848	99
Es	3.116854	1.230974	0.174734	99
Es	-0.455231	0.486584	-0.931395	99
Es	1.294834	0.742948	0.103893	99
Es	-1.105034	-0.989440	0.108861	99
Es	-1.139977	1.489180	0.541736	99
Es	0.184367	-2.251239	-0.550512	99
Es	1.062296	0.083885	0.781969	99
Es	0.963725	0.313855	0.230650	99
Es	2.565474	1.393658	0.158333	99
Es	1.712089	1.467566	-0.911619	99
Es	-0.426837	0.355561	-0.193183	99
Es	-0.791163	0.929577	0.179405	99
Es	-1.032127	-1.147868	0.842780	99
Es	0.376602	0.349915	0.056229	99
Es	-1.857531	1.526731	0.331803	99
Es	2.736083	0.959303	-0.163020	99
Es	-0.906084	-2.764595	-0.566725	99
Es	-1.112506	1.380893	1.280791	99
Es	-0.810430	-1.558865	-0.303893	99
Es	-0.758121	-0.317221	-0.039313	99
Es	1.930597	1.100693	-0.298279	99
Es	-0.530624	-2.136091	-0.713302	99
Es	1.157125	0.184908	0.017796	99
Es	3.387352	1.432096	0.045991	99
Es	-1.837470	-0.929763	-0.040952	99
Es	3.159918	0.864822	0.681889	99
Es	-0.590750	-1.989642	-1.444255	99
47
Properties=species:S:1:pos:R:3:Z:I:1 energy=-305.32399757272196 field_type=dipole dipole="0.000000 0.000000 0.000000" charge=0
C	-0.530603	-2.136116	-0.713319	6
C	-1.105063	-0.989446	0.108881	6
C	-0.426993	0.355564	-0.193269	6
C	-1.139973	1.489184	0.541741	6
N	0.963727	0.313244	0.230431	7
C	1.930777	1.100774	-0.298279	6
N	3.117187	1.231214	0.174621	7
H	-1.076793	-3.060756	-0.501279	1
H	0.523787	-2.308676	-0.477429	1
H	-0.615833	-1.930736	-1.784969	1
H	-1.011423	-1.234086	1.174541	1
H	-2.177723	-0.913466	-0.108259	1
H	-0.482103	0.544674	-1.272599	1
H	-1.105643	1.344504	1.627320	1
H	-2.190223	1.550694	0.238461	1
H	-0.670243	2.454214	0.322441	1
H	1.142897	-0.104026	1.135521	1
H	1.630077	1.651754	-1.205679	1
H	3.224167	0.641484	1.001131	1
Es	2.735698	0.959381	-0.162690	99
Es	-0.455231	0.486533	-0.931353	99
Es	-1.837429	-0.929750	-0.040877	99
Es	0.963675	0.313718	0.230636	99
Es	-0.530625	-2.136090	-0.713301	99
Es	3.159983	0.864849	0.681915	99
Es	-1.032207	-1.147842	0.842665	99
Es	1.062148	0.085666	0.782608	99
Es	-0.791165	0.929616	0.179477	99
Es	3.116774	1.230933	0.174776	99
Es	1.300302	0.741360	0.098246	99
Es	1.712021	1.467553	-0.911663	99
Es	-1.112564	1.380954	1.280832	99
Es	0.376342	0.350268	0.056051	99
Es	3.387603	1.431961	0.045535	99
Es	-0.758088	-0.317180	-0.039218	99
Es	0.184346	-2.251310	-0.550488	99
Es	-1.139977	1.489180	0.541737	99
Es	-0.426837	0.355560	-0.193182	99
Es	-0.810433	-1.558914	-0.303913	99
Es	-1.857480	1.526702	0.331751	99
Es	-0.815810	2.143242	0.387787	99
Es	-1.105034	-0.989441	0.108863	99
Es	-0.590673	-1.989666	-1.444222	99
Es	1.152194	0.184502	0.022979	99
Es	2.565607	1.393756	0.158385	99
Es	1.930595	1.100694	-0.298278	99
Es	-0.906110	-2.764568	-0.566799	99
47
Properties=species:S:1:pos:R:3:Z:I:1 energy=-305.32399757272196 field_type=dipole dipole="0.000000 0.000000 0.000000" charge=0
C	-0.530603	-2.136116	-0.713319	6
C	-1.105063	-0.989446	0.108881	6
C	-0.426993	0.355564	-0.193269	6
C	-1.139973	1.489184	0.541741	6
N	0.963727	0.313244	0.230431	7
C	1.930777	1.100774	-0.298279	6
N	3.117187	1.231214	0.174621	7
H	-1.076793	-3.060756	-0.501279	1
H	0.523787	-2.308676	-0.477429	1
H	-0.615833	-1.930736	-1.784969	1
H	-1.011423	-1.234086	1.174541	1
H	-2.177723	-0.913466	-0.108259	1
H	-0.482103	0.544674	-1.272599	1
H	-1.105643	1.344504	1.627320	1
H	-2.190223	1.550694	0.238461	1
H	-0.670243	2.454214	0.322441	1
H	1.142897	-0.104026	1.135521	1
H	1.630077	1.651754	-1.205679	1
H	3.224167	0.641484	1.001131	1
Es	1.156255	0.184165	0.018693	99
Es	1.296106	0.742375	0.102816	99
Es	2.735376	0.959305	-0.162838	99
Es	-0.455199	0.486400	-0.931373	99
Es	-0.815794	2.143249	0.387907	99
Es	0.963713	0.313793	0.230634	99
Es	-1.112564	1.380891	1.280754	99
Es	-0.906057	-2.764543	-0.566786	99
Es	-1.139977	1.489181	0.541737	99
Es	0.376292	0.350403	0.056418	99
Es	1.712081	1.467631	-0.911726	99
Es	-0.530624	-2.136091	-0.713301	99
Es	-1.837417	-0.929746	-0.040831	99
Es	3.160362	0.864949	0.681988	99
Es	-0.791147	0.929672	0.179260	99
Es	-0.810645	-1.558785	-0.303920	99
Es	1.062244	0.084818	0.782014	99
Es	-0.590635	-1.989775	-1.444233	99
Es	-1.032067	-1.147833	0.842792	99
Es	1.930596	1.100693	-0.298278	99
Es	2.565891	1.394410	0.158618	99
Es	3.387237	1.431198	0.045437	99
Es	0.184317	-2.251309	-0.550473	99
Es	3.116773	1.230943	0.174762	99
Es	-1.857510	1.526775	0.331798	99
Es	-1.105034	-0.989440	0.108862	99
Es	-0.758109	-0.317218	-0.039288	99
Es	-0.426840	0.355558	-0.193182	99
47
Properties=species:S:1:pos:R:3:Z:I:1 energy=-305.32399757272196 field_type=dipole dipole="0.000000 0.000000 0.000000" charge=0
C	-0.530603	-2.136116	-0.713319	6
C	-1.105063	-0.989446	0.108881	6
C	-0.426993	0.355564	-0.193269	6
C	-1.139973	1.489184	0.541741	6
N	0.963727	0.313244	0.230431	7
C	1.930777	1.100774	-0.298279	6
N	3.117187	1.231214	0.174621	7
H	-1.076793	-3.060756	-0.501279	1
H	0.523787	-2.308676	-0.477429	1
H	-0.615833	-1.930736	-1.784969	1
H	-1.011423	-1.234086	1.174541	1
H	-2.177723	-0.913466	-0.108259	1
H	-0.482103	0.544674	-1.272599	1
H	-1.105643	1.344504	1.627320	1
H	-2.190223	1.550694	0.238461	1
H	-0.670243	2.454214	0.322441	1
H	1.142897	-0.104026	1.135521	1
H	1.630077	1.651754	-1.205679	1
H	3.224167	0.641484	1.001131	1
Es	-1.857504	1.526796	0.331804	99
Es	1.157430	0.185139	0.018516	99
Es	3.116778	1.230946	0.174762	99
Es	-0.758151	-0.317231	-0.039308	99
Es	-1.139977	1.489180	0.541737	99
Es	1.930599	1.100694	-0.298280	99
Es	1.294941	0.742951	0.103851	99
Es	-0.530623	-2.136092	-0.713302	99
Es	3.387065	1.431437	0.045858	99
Es	-1.112594	1.380880	1.280715	99
Es	-0.905892	-2.764603	-0.566665	99
Es	-0.791138	0.929629	0.179361	99
Es	-0.426838	0.355561	-0.193184	99
Es	-0.815793	2.143263	0.387961	99
Es	-0.810479	-1.558780	-0.303841	99
Es	-1.105034	-0.989440	0.108861	99
Es	2.565620	1.394225	0.158379	99
Es	-0.590852	-1.989852	-1.444203	99
Es	2.735891	0.959355	-0.163029	99
Es	3.160289	0.864831	0.682017	99
Es	-1.837357	-0.929766	-0.040831	99
Es	0.376388	0.349175	0.055459	99
Es	0.963720	0.313830	0.230648	99
Es	1.712102	1.467596	-0.911752	99
Es	-0.455221	0.486527	-0.931260	99
Es	-1.032188	-1.147830	0.842720	99
Es	1.062131	0.084485	0.782021	99
Es	0.184313	-2.251237	-0.550753	99
47
Properties=species:S:1:pos:R:3:Z:I:1 energy=-305.32399757272196 field_type=dipole dipole="0.000000 0.000000 0.000000" charge=0
C	-0.530603	-2.136116	-0.713319	6
C	-1.105063	-0.989446	0.108881	6
C	-0.426993	0.355564	-0.193269	6
C	-1.139973	1.489184	0.541741	6
N	0.963727	0.313244	0.230431	7
C	1.930777	1.100774	-0.298279	6
N	3.117187	1.231214	0.174621	7
H	-1.076793	-3.060756	-0.501279	1
H	0.523787	-2.308676	-0.477429	1
H	-0.615833	-1.930736	-1.784969	1
H	-1.011423	-1.234086	1.174541	1
H	-2.177723	-0.913466	-0.108259	1
H	-0.482103	0.544674	-1.272599	1
H	-1.105643	1.344504	1.627320	1
H	-2.190223	1.550694	0.238461	1
H	-0.670243	2.454214	0.322441	1
H	1.142897	-0.104026	1.135521	1
H	1.630077	1.651754	-1.205679	1
H	3.224167	0.641484	1.001131	1
Es	-1.112575	1.380933	1.280729	99
Es	0.376236	0.349471	0.055552	99
Es	-0.530624	-2.136092	-0.713303	99
Es	0.184291	-2.251317	-0.550653	99
Es	-1.837342	-0.929786	-0.040820	99
Es	-0.455156	0.486550	-0.931236	99
Es	1.062305	0.084659	0.782230	99
Es	-0.810486	-1.558859	-0.303787	99
Es	-0.791123	0.929614	0.179315	99
Es	1.712127	1.467675	-0.911793	99
Es	2.736047	0.959397	-0.163235	99
Es	-0.426840	0.355561	-0.193184	99
Es	0.963678	0.313679	0.230621	99
Es	-1.139977	1.489180	0.541736	99
Es	-0.590689	-1.989819	-1.444141	99
Es	-1.857497	1.526780	0.331829	99
Es	3.386528	1.431468	0.045945	99
Es	1.297820	0.742163	0.100962	99
Es	-0.758237	-0.317284	-0.039412	99
Es	-0.905969	-2.764596	-0.566822	99
Es	3.160681	0.864807	0.682186	99
Es	-0.815843	2.143250	0.387929	99
Es	1.930593	1.100690	-0.298281	99
Es	2.565580	1.394141	0.158327	99
Es	-1.105032	-0.989438	0.108861	99
Es	3.116777	1.230929	0.174772	99
Es	1.154568	0.185584	0.021217	99
Es	-1.032216	-1.147668	0.842717	99
47
Properties=species:S:1:pos:R:3:Z:I:1 energy=-305.32399757272196 field_type=dipole dipole="0.000000 0.000000 0.000000" charge=0
C	-0.530603	-2.136116	-0.713319	6
C	-1.105063	-0.989446	0.108881	6
C	-0.426993	0.355564	-0.193269	6
C	-1.139973	1.489184	0.541741	6
N	0.963727	0.313244	0.230431	7
C	1.930777	1.100774	-0.298279	6
N	3.117187	1.231214	0.174621	7
H	-1.076793	-3.060756	-0.501279	1
H	0.523787	-2.308676	-0.477429	1
H	-0.615833	-1.930736	-1.784969	1
H	-1.011423	-1.234086	1.174541	1
H	-2.177723	-0.913466	-0.108259	1
H	-0.482103	0.544674	-1.272599	1
H	-1.105643	1.344504	1.627320	1
H	-2.190223	1.550694	0.238461	1
H	-0.670243	2.454214	0.322441	1
H	1.142897	-0.104026	1.135521	1
H	1.630077	1.651754	-1.205679	1
H	3.224167	0.641484	1.001131	1
Es	-1.105035	-0.989440	0.108862	99
Es	1.157424	0.184716	0.018092	99
Es	-1.857490	1.526805	0.331824	99
Es	-0.810473	-1.558848	-0.303844	99
Es	1.062236	0.084532	0.782009	99
Es	-0.530623	-2.136092	-0.713302	99
Es	0.184301	-2.251308	-0.550722	99
Es	3.116767	1.230936	0.174770	99
Es	-0.590754	-1.989831	-1.444136	99
Es	-0.791149	0.929575	0.179374	99
Es	3.386203	1.432095	0.046360	99
Es	1.930596	1.100691	-0.298279	99
Es	-0.455179	0.486573	-0.931193	99
Es	-1.139978	1.489181	0.541737	99
Es	-0.815833	2.143194	0.387859	99
Es	-1.112566	1.381003	1.280769	99
Es	2.565090	1.393447	0.157955	99
Es	0.963866	0.313993	0.230594	99
Es	1.712156	1.467746	-0.911808	99
Es	-0.758208	-0.317258	-0.039336	99
Es	3.160747	0.864972	0.682282	99
Es	0.376326	0.349675	0.055818	99
Es	-0.426840	0.355560	-0.193185	99
Es	-1.032262	-1.147764	0.842668	99
Es	-0.905945	-2.764600	-0.566785	99
Es	-1.837314	-0.929725	-0.040801	99
Es	2.736814	0.959179	-0.163384	99
Es	1.294747	0.742663	0.104062	99
47
Properties=species:S:1:pos:R:3:Z:I:1 energy=-305.32399757272196 field_type=dipole dipole="0.000000 0.000000 0.000000" charge=0
C	-0.530603	-2.136116	-0.713319	6
C	-1.105063	-0.989446	0.108881	6
C	-0.426993	0.355564	-0.193269	6
C	-1.139973	1.489184	0.541741	6
N	0.963727	0.313244	0.230431	7
C	1.930777	1.100774	-0.298279	6
N	3.117187	1.231214	0.174621	7
H	-1.076793	-3.060756	-0.501279	1
H	0.523787	-2.308676	-0.477429	1
H	-0.615833	-1.930736	-1.784969	1
H	-1.011423	-1.234086	1.174541	1
H	-2.177723	-0.913466	-0.108259	1
H	-0.482103	0.544674	-1.272599	1
H	-1.105643	1.344504	1.627320	1
H	-2.190223	1.550694	0.238461	1
H	-0.670243	2.454214	0.322441	1
H	1.142897	-0.104026	1.135521	1
H	1.630077	1.651754	-1.205679	1
H	3.224167	0.641484	1.001131	1
Es	2.565800	1.394614	0.158404	99
Es	0.376335	0.349495	0.055643	99
Es	1.156988	0.183920	0.018834	99
Es	-0.530623	-2.136093	-0.713302	99
Es	0.963914	0.314255	0.230660	99
Es	-1.139977	1.489179	0.541737	99
Es	-0.810577	-1.558833	-0.303832	99
Es	1.930596	1.100692	-0.298279	99
Es	-1.105035	-0.989441	0.108862	99
Es	-0.455140	0.486500	-0.931174	99
Es	-1.032266	-1.147791	0.842604	99
Es	1.295380	0.742525	0.103320	99
Es	-1.857459	1.526788	0.331890	99
Es	-0.905914	-2.764627	-0.566868	99
Es	-0.815890	2.143267	0.387925	99
Es	-0.791140	0.929617	0.179239	99
Es	1.061964	0.085428	0.782147	99
Es	-0.590645	-1.989834	-1.444131	99
Es	-0.426840	0.355561	-0.193184	99
Es	3.160905	0.864857	0.682280	99
Es	1.712175	1.467736	-0.911861	99
Es	-1.112578	1.380966	1.280717	99
Es	-0.758168	-0.317228	-0.039284	99
Es	-1.837303	-0.929726	-0.040737	99
Es	3.386047	1.430980	0.046306	99
Es	2.736069	0.959246	-0.163746	99
Es	3.116777	1.230935	0.174770	99
Es	0.184228	-2.251318	-0.550680	99
47
Properties=species:S:1:pos:R:3:Z:I:1 energy=-305.32399757272196 field_type=dipole dipole="0.000000 0.000000 0.000000" charge=0
C	-0.530603	-2.136116	-0.713319	6
C	-1.105063	-0.989446	0.108881	6
C	-0.426993	0.355564	-0.193269	6
C	-1.139973	1.489184	0.541741	6
N	0.963727	0.313244	0.230431	7
C	1.930777	1.100774	-0.298279	6
N	3.117187	1.231214	0.174621	7
H	-1.076793	-3.060756	-0.501279	1
H	0.523787	-2.308676	-0.477429	1
H	-0.615833	-1.930736	-1.784969	1
H	-1.011423	-1.234086	1.174541	1
H	-2.177723	-0.913466	-0.108259	1
H	-0.482103	0.544674	-1.272599	1
H	-1.105643	1.344504	1.627320	1
H	-2.190223	1.550694	0.238461	1
H	-0.670243	2.454214	0.322441	1
H	1.142897	-0.104026	1.135521	1
H	1.630077	1.651754	-1.205679	1
H	3.224167	0.641484	1.001131	1
Es	-0.530623	-2.136092	-0.713302	99
Es	-0.426842	0.355562	-0.193186	99
Es	-1.105035	-0.989441	0.108862	99
Es	1.062110	0.085200	0.782157	99
Es	-0.758166	-0.317284	-0.039335	99
Es	3.386210	1.430591	0.045634	99
Es	-0.905951	-2.764604	-0.566954	99
Es	1.712219	1.467746	-0.911940	99
Es	-0.810575	-1.558884	-0.303780	99
Es	-1.032342	-1.147732	0.842622	99
Es	-1.139978	1.489181	0.541736	99
Es	0.963879	0.314002	0.230589	99
Es	-0.455092	0.486500	-0.931120	99
Es	0.184214	-2.251392	-0.550659	99
Es	1.295169	0.742327	0.103605	99
Es	-1.857472	1.526731	0.331879	99
Es	2.735214	0.959355	-0.163295	99
Es	3.116780	1.230934	0.174773	99
Es	1.157171	0.184099	0.018334	99
Es	-1.837242	-0.929706	-0.040756	99
Es	-0.590584	-1.989812	-1.444099	99
Es	2.566239	1.394824	0.158684	99
Es	-0.791100	0.929686	0.179180	99
Es	0.376248	0.350002	0.055947	99
Es	-1.112579	1.380935	1.280694	99
Es	-0.815951	2.143305	0.387988	99
Es	3.161105	0.864945	0.682285	99
Es	1.930597	1.100691	-0.298279	99
47
Properties=species:S:1:pos:R:3:Z:I:1 energy=-305.32399757272196 field_type=dipole dipole="0.000000 0.000000 0.000000" charge=0
C	-0.530603	-2.136116	-0.713319	6
C	-1.105063	-0.989446	0.108881	6
C	-0.426993	0.355564	-0.193269	6
C	-1.139973	1.489184	0.541741	6
N	0.963727	0.313244	0.230431	7
C	1.930777	1.100774	-0.298279	6
N	3.117187	1.231214	0.174621	7
H	-1.076793	-3.060756	-0.501279	1
H	0.523787	-2.308676	-0.477429	1
H	-0.615833	-1.930736	-1.784969	1
H	-1.011423	-1.234086	1.174541	1
H	-2.177723	-0.913466	-0.108259	1
H	-0.482103	0.544674	-1.272599	1
H	-1.105643	1.344504	1.627320	1
H	-2.190223	1.550694	0.238461	1
H	-0.670243	2.454214	0.322441	1
H	1.142897	-0.104026	1.135521	1
H	1.630077	1.651754	-1.205679	1
H	3.224167	0.641484	1.001131	1
Es	1.061955	0.084847	0.781864	99
Es	1.712265	1.467794	-0.911943	99
Es	-1.857470	1.526777	0.331901	99
Es	-1.837235	-0.929694	-0.040690	99
Es	0.376354	0.349103	0.055556	99
Es	-0.758229	-0.317231	-0.039276	99
Es	-1.112576	1.381011	1.280695	99
Es	-0.810573	-1.558860	-0.303829	99
Es	-1.032341	-1.147788	0.842554	99
Es	3.160997	0.864671	0.682331	99
Es	1.161891	0.184406	0.014505	99
Es	2.735725	0.959543	-0.163643	99
Es	0.963753	0.313834	0.230621	99
Es	-0.590628	-1.989854	-1.444115	99
Es	1.930597	1.100692	-0.298279	99
Es	-0.905902	-2.764608	-0.566902	99
Es	1.290583	0.743441	0.108087	99
Es	-0.791050	0.929663	0.179141	99
Es	0.184194	-2.251373	-0.550713	99
Es	2.566100	1.394428	0.158415	99
Es	-0.426843	0.355560	-0.193185	99
Es	-0.455075	0.486498	-0.931077	99
Es	-0.530623	-2.136092	-0.713302	99
Es	3.116826	1.230971	0.174769	99
Es	-1.105035	-0.989443	0.108860	99
Es	-0.815974	2.143249	0.387973	99
Es	-1.139977	1.489181	0.541737	99
Es	3.385914	1.430945	0.046207	99
47
Properties=species:S:1:pos:R:3:Z:I:1 energy=-305.32399757272196 field_type=dipole dipole="0.000000 0.000000 0.000000" charge=0
C	-0.530603	-2.136116	-0.713319	6
C	-1.105063	-0.989446	0.108881	6
C	-0.426993	0.355564	-0.193269	6
C	-1.139973	1.489184	0.541741	6
N	0.963727	0.313244	0.230431	7
C	1.930777	1.100774	-0.298279	6
N	3.117187	1.231214	0.174621	7
H	-1.076793	-3.060756	-0.501279	1
H	0.523787	-2.308676	-0.477429	1
H	-0.615833	-1.930736	-1.784969	1
H	-1.011423	-1.234086	1.174541	1
H	-2.177723	-0.913466	-0.108259	1
H	-0.482103	0.544674	-1.272599	1
H	-1.105643	1.344504	1.627320	1
H	-2.190223	1.550694	0.238461	1
H	-0.670243	2.454214	0.322441	1
H	1.142897	-0.104026	1.135521	1
H	1.630077	1.651754	-1.205679	1
H	3.224167	0.641484	1.001131	1
Es	3.161384	0.864567	0.682466	99
Es	-1.837211	-0.929738	-0.040682	99
Es	3.385569	1.430924	0.046045	99
Es	2.566149	1.394428	0.158438	99
Es	2.735631	0.959707	-0.163600	99
Es	-1.112541	1.381052	1.280615	99
Es	-1.857525	1.527026	0.332000	99
Es	-0.455077	0.486463	-0.931051	99
Es	3.116790	1.230931	0.174757	99
Es	-0.590603	-1.989964	-1.444157	99
Es	-1.105035	-0.989441	0.108861	99
Es	1.930598	1.100691	-0.298279	99
Es	-0.426842	0.355561	-0.193185	99
Es	-0.791251	0.929501	0.179086	99
Es	-0.758275	-0.317257	-0.039207	99
Es	0.184143	-2.251437	-0.550712	99
Es	1.061953	0.085725	0.782189	99
Es	-0.530624	-2.136092	-0.713302	99
Es	0.376264	0.350168	0.056061	99
Es	-1.032375	-1.147740	0.842529	99
Es	-0.810504	-1.558798	-0.303826	99
Es	-1.139977	1.489181	0.541737	99
Es	1.158552	0.183477	0.017097	99
Es	-0.815753	2.143139	0.387950	99
Es	1.712263	1.467792	-0.912020	99
Es	-0.905882	-2.764537	-0.566861	99
Es	1.294047	0.742466	0.104676	99
Es	0.963755	0.313875	0.230636	99
