48
Properties=species:S:1:pos:R:3:Z:I:1 energy=-289.285667725578 field_type=dipole dipole="0.000000 0.000000 0.000000" charge=0
C	-2.317394	-1.657492	1.548308	6
C	-1.190354	-1.578302	0.529168	6
C	-0.687544	-0.143662	0.364068	6
N	0.356106	-0.099532	-0.660822	7
C	0.916046	1.243677	-0.829702	6
C	2.240486	1.563708	-0.197402	6
C	2.139616	1.407917	-1.686632	6
H	-2.657034	-2.691792	1.657368	1
H	-3.172264	-1.051242	1.233238	1
H	-1.986194	-1.302432	2.528938	1
H	-1.552974	-1.966382	-0.431022	1
H	-0.367944	-2.228763	0.851808	1
H	-0.290894	0.216758	1.319998	1
H	-1.520524	0.508478	0.076638	1
H	-0.023824	-0.440532	-1.543612	1
H	0.188216	2.051337	-0.891692	1
H	2.746926	0.783177	0.358538	1
H	2.383886	2.559968	0.202658	1
H	2.213326	2.299858	-2.297032	1
H	2.582336	0.525257	-2.132812	1
Es	2.372775	1.524412	-0.961384	99
Es	-2.900487	-1.240405	1.330984	99
Es	2.139545	1.407927	-1.686460	99
Es	-1.759124	-1.612933	1.042273	99
Es	0.576563	0.500645	-0.741624	99
Es	-1.439932	-1.837977	-0.135585	99
Es	-0.414763	0.104628	1.018402	99
Es	-1.190391	-1.578271	0.529188	99
Es	2.579257	1.035653	0.176017	99
Es	2.434267	0.809163	-1.986521	99
Es	-0.687451	-0.143685	0.363965	99
Es	-0.628927	-2.020169	0.752010	99
Es	2.240400	1.563692	-0.197561	99
Es	0.416657	1.801140	-0.867404	99
Es	2.186477	2.016931	-2.098918	99
Es	2.335959	2.244482	0.070342	99
Es	0.104471	-0.281514	-1.196166	99
Es	-2.317379	-1.657490	1.548294	99
Es	-2.549224	-2.363667	1.622620	99
Es	0.916178	1.243564	-0.829706	99
Es	1.428315	1.289421	-1.420168	99
Es	-0.108511	-0.092528	-0.229101	99
Es	-0.941378	-0.859980	0.444273	99
Es	-2.087832	-1.412250	2.217226	99
Es	-1.271358	0.309612	0.167517	99
Es	0.619193	-0.312320	-0.569360	99
Es	1.496495	1.407719	-0.330384	99
Es	0.355651	-0.099129	-0.660999	99
48
Properties=species:S:1:pos:R:3:Z:I:1 energy=-289.285667725578 field_type=dipole dipole="0.000000 0.000000 0.000000" charge=0
C	-2.317394	-1.657492	1.548308	6
C	-1.190354	-1.578302	0.529168	6
C	-0.687544	-0.143662	0.364068	6
N	0.356106	-0.099532	-0.660822	7
C	0.916046	1.243677	-0.829702	6
C	2.240486	1.563708	-0.197402	6
C	2.139616	1.407917	-1.686632	6
H	-2.657034	-2.691792	1.657368	1
H	-3.172264	-1.051242	1.233238	1
H	-1.986194	-1.302432	2.528938	1
H	-1.552974	-1.966382	-0.431022	1
H	-0.367944	-2.228763	0.851808	1
H	-0.290894	0.216758	1.319998	1
H	-1.520524	0.508478	0.076638	1
H	-0.023824	-0.440532	-1.543612	1
H	0.188216	2.051337	-0.891692	1
H	2.746926	0.783177	0.358538	1
H	2.383886	2.559968	0.202658	1
H	2.213326	2.299858	-2.297032	1
H	2.582336	0.525257	-2.132812	1
Es	2.434064	0.809213	-1.986545	99
Es	-0.628897	-2.020044	0.752054	99
Es	2.139548	1.407928	-1.686468	99
Es	-2.900523	-1.240467	1.330901	99
Es	-1.759089	-1.612949	1.042349	99
Es	1.496274	1.407721	-0.330486	99
Es	0.104441	-0.281440	-1.196069	99
Es	2.373465	1.524481	-0.961283	99
Es	-1.190390	-1.578273	0.529187	99
Es	0.416742	1.801084	-0.867323	99
Es	0.355694	-0.099134	-0.660956	99
Es	2.336051	2.244382	0.070284	99
Es	-2.549162	-2.363699	1.622742	99
Es	0.576510	0.500689	-0.741635	99
Es	0.619212	-0.312452	-0.569428	99
Es	-0.687451	-0.143685	0.363966	99
Es	-0.414741	0.104623	1.018385	99
Es	-2.087936	-1.412153	2.217144	99
Es	-0.941456	-0.859931	0.444132	99
Es	-1.271360	0.309618	0.167543	99
Es	1.428093	1.289486	-1.420172	99
Es	-2.317379	-1.657490	1.548293	99
Es	2.186439	2.016720	-2.098978	99
Es	0.916174	1.243562	-0.829707	99
Es	-0.108562	-0.092485	-0.229146	99
Es	2.240395	1.563690	-0.197560	99
Es	-1.439847	-1.838131	-0.135507	99
Es	2.579136	1.035808	0.176050	99
48
Properties=species:S:1:pos:R:3:Z:I:1 energy=-289.285667725578 field_type=dipole dipole="0.000000 0.000000 0.000000" charge=0
C	-2.317394	-1.657492	1.548308	6
C	-1.190354	-1.578302	0.529168	6
C	-0.687544	-0.143662	0.364068	6
N	0.356106	-0.099532	-0.660822	7
C	0.916046	1.243677	-0.829702	6
C	2.240486	1.563708	-0.197402	6
C	2.139616	1.407917	-1.686632	6
H	-2.657034	-2.691792	1.657368	1
H	-3.172264	-1.051242	1.233238	1
H	-1.986194	-1.302432	2.528938	1
H	-1.552974	-1.966382	-0.431022	1
H	-0.367944	-2.228763	0.851808	1
H	-0.290894	0.216758	1.319998	1
H	-1.520524	0.508478	0.076638	1
H	-0.023824	-0.440532	-1.543612	1
H	0.188216	2.051337	-0.891692	1
H	2.746926	0.783177	0.358538	1
H	2.383886	2.559968	0.202658	1
H	2.213326	2.299858	-2.297032	1
H	2.582336	0.525257	-2.132812	1
Es	0.916186	1.243568	-0.829708	99
Es	1.496234	1.407824	-0.330224	99
Es	2.579232	1.035798	0.175994	99
Es	2.434166	0.809401	-1.986613	99
Es	2.240389	1.563692	-0.197568	99
Es	0.104480	-0.281501	-1.196135	99
Es	-2.317379	-1.657490	1.548293	99
Es	1.428055	1.289401	-1.420588	99
Es	-0.414744	0.104511	1.018346	99
Es	-1.439940	-1.837934	-0.135507	99
Es	2.373373	1.524622	-0.961407	99
Es	-2.087911	-1.412327	2.217177	99
Es	-0.687451	-0.143685	0.363966	99
Es	-0.628936	-2.020171	0.751850	99
Es	-0.941476	-0.859981	0.444194	99
Es	-2.549157	-2.363668	1.622619	99
Es	2.139542	1.407925	-1.686467	99
Es	2.186457	2.016669	-2.098826	99
Es	0.576870	0.500690	-0.741418	99
Es	-1.190390	-1.578273	0.529187	99
Es	2.335969	2.244168	0.070362	99
Es	-1.759064	-1.612853	1.042311	99
Es	0.416774	1.801018	-0.867266	99
Es	-0.108534	-0.092465	-0.229170	99
Es	0.355670	-0.099139	-0.660981	99
Es	0.618848	-0.312388	-0.569428	99
Es	-1.271259	0.309728	0.167657	99
Es	-2.900557	-1.240466	1.331122	99
48
Properties=species:S:1:pos:R:3:Z:I:1 energy=-289.285667725578 field_type=dipole dipole="0.000000 0.000000 0.000000" charge=0
C	-2.317394	-1.657492	1.548308	6
C	-1.190354	-1.578302	0.529168	6
C	-0.687544	-0.143662	0.364068	6
N	0.356106	-0.099532	-0.660822	7
C	0.916046	1.243677	-0.829702	6
C	2.240486	1.563708	-0.197402	6
C	2.139616	1.407917	-1.686632	6
H	-2.657034	-2.691792	1.657368	1
H	-3.172264	-1.051242	1.233238	1
H	-1.986194	-1.302432	2.528938	1
H	-1.552974	-1.966382	-0.431022	1
H	-0.367944	-2.228763	0.851808	1
H	-0.290894	0.216758	1.319998	1
H	-1.520524	0.508478	0.076638	1
H	-0.023824	-0.440532	-1.543612	1
H	0.188216	2.051337	-0.891692	1
H	2.746926	0.783177	0.358538	1
H	2.383886	2.559968	0.202658	1
H	2.213326	2.299858	-2.297032	1
H	2.582336	0.525257	-2.132812	1
Es	0.577025	0.500738	-0.741397	99
Es	0.619013	-0.313142	-0.569387	99
Es	2.373620	1.524620	-0.961523	99
Es	0.104340	-0.280944	-1.195917	99
Es	-0.628974	-2.020121	0.751909	99
Es	0.416819	1.800964	-0.867369	99
Es	-0.687451	-0.143685	0.363964	99
Es	-1.271292	0.309676	0.167695	99
Es	1.427954	1.289407	-1.420599	99
Es	2.240396	1.563692	-0.197558	99
Es	-1.190390	-1.578273	0.529187	99
Es	-0.108734	-0.092292	-0.229547	99
Es	1.496126	1.407811	-0.329924	99
Es	2.579160	1.035974	0.176014	99
Es	2.139538	1.407926	-1.686468	99
Es	0.916177	1.243563	-0.829707	99
Es	-2.317380	-1.657491	1.548294	99
Es	-0.941402	-0.859997	0.444137	99
Es	0.355610	-0.099093	-0.661013	99
Es	2.434145	0.809468	-1.986552	99
Es	-1.759090	-1.612893	1.042280	99
Es	-2.087955	-1.412281	2.217119	99
Es	-2.549194	-2.363655	1.622714	99
Es	2.335981	2.244125	0.070320	99
Es	2.186489	2.016512	-2.098855	99
Es	-2.900537	-1.240471	1.331097	99
Es	-1.439831	-1.838025	-0.135448	99
Es	-0.414718	0.104560	1.018305	99
48
Properties=species:S:1:pos:R:3:Z:I:1 energy=-289.285667725578 field_type=dipole dipole="0.000000 0.000000 0.000000" charge=0
C	-2.317394	-1.657492	1.548308	6
C	-1.190354	-1.578302	0.529168	6
C	-0.687544	-0.143662	0.364068	6
N	0.356106	-0.099532	-0.660822	7
C	0.916046	1.243677	-0.829702	6
C	2.240486	1.563708	-0.197402	6
C	2.139616	1.407917	-1.686632	6
H	-2.657034	-2.691792	1.657368	1
H	-3.172264	-1.051242	1.233238	1
H	-1.986194	-1.302432	2.528938	1
H	-1.552974	-1.966382	-0.431022	1
H	-0.367944	-2.228763	0.851808	1
H	-0.290894	0.216758	1.319998	1
H	-1.520524	0.508478	0.076638	1
H	-0.023824	-0.440532	-1.543612	1
H	0.188216	2.051337	-0.891692	1
H	2.746926	0.783177	0.358538	1
H	2.383886	2.559968	0.202658	1
H	2.213326	2.299858	-2.297032	1
H	2.582336	0.525257	-2.132812	1
Es	2.579107	1.036060	0.176007	99
Es	-0.414902	0.104592	1.018236	99
Es	2.373906	1.524707	-0.961433	99
Es	-0.108412	-0.092718	-0.228892	99
Es	2.240395	1.563692	-0.197559	99
Es	0.618775	-0.312245	-0.569705	99
Es	-2.317380	-1.657490	1.548294	99
Es	0.576823	0.500775	-0.741518	99
Es	-1.190389	-1.578273	0.529187	99
Es	0.916192	1.243570	-0.829707	99
Es	-2.900539	-1.240475	1.331089	99
Es	-0.941446	-0.859951	0.444228	99
Es	-1.759025	-1.612981	1.042328	99
Es	-2.088008	-1.412308	2.217128	99
Es	1.495982	1.407813	-0.329859	99
Es	-1.439855	-1.837950	-0.135374	99
Es	2.186527	2.016377	-2.098855	99
Es	0.355656	-0.099128	-0.660992	99
Es	1.427784	1.289442	-1.420861	99
Es	-0.687452	-0.143681	0.363976	99
Es	2.335996	2.244019	0.070325	99
Es	2.139541	1.407926	-1.686466	99
Es	-1.271234	0.309689	0.167569	99
Es	-2.549207	-2.363607	1.622719	99
Es	0.104558	-0.281452	-1.196075	99
Es	2.434116	0.809560	-1.986522	99
Es	0.416904	1.800877	-0.867281	99
Es	-0.628969	-2.020167	0.751783	99
48
Properties=species:S:1:pos:R:3:Z:I:1 energy=-289.285667725578 field_type=dipole dipole="0.000000 0.000000 0.000000" charge=0
C	-2.317394	-1.657492	1.548308	6
C	-1.190354	-1.578302	0.529168	6
C	-0.687544	-0.143662	0.364068	6
N	0.356106	-0.099532	-0.660822	7
C	0.916046	1.243677	-0.829702	6
C	2.240486	1.563708	-0.197402	6
C	2.139616	1.407917	-1.686632	6
H	-2.657034	-2.691792	1.657368	1
H	-3.172264	-1.051242	1.233238	1
H	-1.986194	-1.302432	2.528938	1
H	-1.552974	-1.966382	-0.431022	1
H	-0.367944	-2.228763	0.851808	1
H	-0.290894	0.216758	1.319998	1
H	-1.520524	0.508478	0.076638	1
H	-0.023824	-0.440532	-1.543612	1
H	0.188216	2.051337	-0.891692	1
H	2.746926	0.783177	0.358538	1
H	2.383886	2.559968	0.202658	1
H	2.213326	2.299858	-2.297032	1
H	2.582336	0.525257	-2.132812	1
Es	-2.317380	-1.657490	1.548294	99
Es	-0.414869	0.104657	1.018244	99
Es	-1.439745	-1.837993	-0.135405	99
Es	-0.687452	-0.143685	0.363965	99
Es	2.579071	1.036127	0.175987	99
Es	-1.271122	0.309636	0.167685	99
Es	0.416971	1.800814	-0.867270	99
Es	2.336023	2.243932	0.070339	99
Es	0.618665	-0.311935	-0.569350	99
Es	2.434014	0.809649	-1.986617	99
Es	2.139540	1.407925	-1.686460	99
Es	1.427790	1.289500	-1.421026	99
Es	0.576740	0.500771	-0.741712	99
Es	-1.190389	-1.578274	0.529187	99
Es	0.104833	-0.281943	-1.196131	99
Es	-0.108592	-0.092463	-0.229109	99
Es	-0.941550	-0.860036	0.444209	99
Es	2.240395	1.563691	-0.197559	99
Es	1.495843	1.407835	-0.329676	99
Es	0.916185	1.243567	-0.829708	99
Es	2.374123	1.524693	-0.961437	99
Es	-2.900549	-1.240528	1.331155	99
Es	0.355650	-0.099125	-0.660996	99
Es	-2.088037	-1.412297	2.217095	99
Es	2.186537	2.016291	-2.098770	99
Es	-1.759059	-1.612996	1.042233	99
Es	-0.628976	-2.020082	0.751822	99
Es	-2.549215	-2.363570	1.622782	99
48
Properties=species:S:1:pos:R:3:Z:I:1 energy=-289.285667725578 field_type=dipole dipole="0.000000 0.000000 0.000000" charge=0
C	-2.317394	-1.657492	1.548308	6
C	-1.190354	-1.578302	0.529168	6
C	-0.687544	-0.143662	0.364068	6
N	0.356106	-0.099532	-0.660822	7
C	0.916046	1.243677	-0.829702	6
C	2.240486	1.563708	-0.197402	6
C	2.139616	1.407917	-1.686632	6
H	-2.657034	-2.691792	1.657368	1
H	-3.172264	-1.051242	1.233238	1
H	-1.986194	-1.302432	2.528938	1
H	-1.552974	-1.966382	-0.431022	1
H	-0.367944	-2.228763	0.851808	1
H	-0.290894	0.216758	1.319998	1
H	-1.520524	0.508478	0.076638	1
H	-0.023824	-0.440532	-1.543612	1
H	0.188216	2.051337	-0.891692	1
H	2.746926	0.783177	0.358538	1
H	2.383886	2.559968	0.202658	1
H	2.213326	2.299858	-2.297032	1
H	2.582336	0.525257	-2.132812	1
Es	2.434211	0.809789	-1.986375	99
Es	-1.759088	-1.612974	1.042159	99
Es	2.579027	1.036224	0.175945	99
Es	0.355664	-0.099137	-0.660986	99
Es	0.916192	1.243570	-0.829708	99
Es	-2.088078	-1.412304	2.217101	99
Es	2.186527	2.016186	-2.098900	99
Es	-1.439639	-1.838080	-0.135391	99
Es	-0.687453	-0.143685	0.363967	99
Es	0.104950	-0.281979	-1.196166	99
Es	1.427483	1.289316	-1.421078	99
Es	0.576483	0.500807	-0.741702	99
Es	-2.317380	-1.657490	1.548294	99
Es	2.139559	1.407932	-1.686466	99
Es	-0.108663	-0.092462	-0.229242	99
Es	-1.190389	-1.578273	0.529188	99
Es	2.336026	2.243743	0.070384	99
Es	2.374322	1.524938	-0.961585	99
Es	2.240394	1.563691	-0.197561	99
Es	-0.941479	-0.859991	0.444175	99
Es	-2.549266	-2.363570	1.622773	99
Es	-1.271172	0.309675	0.167738	99
Es	-2.900495	-1.240553	1.331199	99
Es	-0.414860	0.104590	1.018202	99
Es	0.618848	-0.311895	-0.569228	99
Es	-0.629053	-2.020027	0.751885	99
Es	1.495765	1.407849	-0.329616	99
Es	0.417008	1.800784	-0.867237	99
