48
Properties=species:S:1:pos:R:3:Z:I:1 energy=-289.29770266347043 field_type=dipole dipole="0.000000 0.000000 0.000000" charge=0
C	-3.196089	-0.998680	0.430220	6
C	-1.693609	-1.231429	0.415459	6
C	-0.929909	0.076270	0.204770	6
N	0.508471	-0.191199	0.190439	7
C	1.267771	1.037540	-0.019941	6
C	2.729081	0.712210	-0.012041	6
C	3.570901	0.960070	-1.024291	6
H	-3.725019	-1.943909	0.590369	1
H	-3.537589	-0.576120	-0.521121	1
H	-3.480319	-0.310329	1.233359	1
H	-1.451679	-1.942990	-0.382321	1
H	-1.394019	-1.692110	1.363809	1
H	-1.173129	0.774150	1.015469	1
H	-1.240819	0.534531	-0.742471	1
H	0.723791	-0.839589	-0.566771	1
H	1.069701	1.749161	0.789449	1
H	0.980191	1.511750	-0.965281	1
H	3.115111	0.249811	0.894599	1
H	3.235171	1.422240	-1.947320	1
H	4.621991	0.698620	-0.946391	1
Es	3.570967	0.960092	-1.024373	99
Es	0.627546	-0.565747	-0.287250	99
Es	-3.386167	-0.526013	0.979509	99
Es	-0.112750	-0.058706	0.171035	99
Es	-3.196068	-0.998682	0.430217	99
Es	2.005800	0.876571	-0.023776	99
Es	-1.093547	0.558013	0.760677	99
Es	0.508310	-0.190925	0.189911	99
Es	-1.490154	-1.542586	1.063825	99
Es	2.729000	0.712204	-0.011970	99
Es	1.133143	1.519141	0.531793	99
Es	-1.523306	-1.715562	-0.138234	99
Es	1.072788	1.368555	-0.676457	99
Es	2.983418	0.399862	0.604839	99
Es	-1.149814	0.396620	-0.454613	99
Es	-2.450202	-1.109601	0.419993	99
Es	-1.313190	-0.576353	0.306657	99
Es	3.346754	1.274080	-1.653970	99
Es	-3.426561	-0.707896	-0.221468	99
Es	-3.556814	-1.643857	0.539389	99
Es	1.267754	1.037418	-0.019915	99
Es	0.606194	-0.336428	0.498803	99
Es	4.285891	0.786113	-0.979550	99
Es	-0.929786	0.076217	0.204771	99
Es	3.091567	0.542314	-0.658270	99
Es	0.830496	0.353434	0.075512	99
Es	-1.693643	-1.231393	0.415440	99
Es	3.220475	1.133406	-0.408066	99
48
Properties=species:S:1:pos:R:3:Z:I:1 energy=-289.29770266347043 field_type=dipole dipole="0.000000 0.000000 0.000000" charge=0
C	-3.196089	-0.998680	0.430220	6
C	-1.693609	-1.231429	0.415459	6
C	-0.929909	0.076270	0.204770	6
N	0.508471	-0.191199	0.190439	7
C	1.267771	1.037540	-0.019941	6
C	2.729081	0.712210	-0.012041	6
C	3.570901	0.960070	-1.024291	6
H	-3.725019	-1.943909	0.590369	1
H	-3.537589	-0.576120	-0.521121	1
H	-3.480319	-0.310329	1.233359	1
H	-1.451679	-1.942990	-0.382321	1
H	-1.394019	-1.692110	1.363809	1
H	-1.173129	0.774150	1.015469	1
H	-1.240819	0.534531	-0.742471	1
H	0.723791	-0.839589	-0.566771	1
H	1.069701	1.749161	0.789449	1
H	0.980191	1.511750	-0.965281	1
H	3.115111	0.249811	0.894599	1
H	3.235171	1.422240	-1.947320	1
H	4.621991	0.698620	-0.946391	1
Es	0.830699	0.353382	0.075991	99
Es	0.627895	-0.565834	-0.286941	99
Es	1.133324	1.519231	0.531736	99
Es	-1.149895	0.396635	-0.454599	99
Es	2.005762	0.876630	-0.024003	99
Es	-0.113108	-0.058739	0.170913	99
Es	2.729004	0.712209	-0.011971	99
Es	-0.929784	0.076222	0.204771	99
Es	-1.693643	-1.231394	0.415441	99
Es	2.983387	0.399797	0.604870	99
Es	1.267754	1.037417	-0.019916	99
Es	0.605969	-0.336258	0.498281	99
Es	-3.556908	-1.643922	0.539233	99
Es	4.285923	0.786252	-0.979522	99
Es	-3.426497	-0.707750	-0.221333	99
Es	3.091683	0.542325	-0.658263	99
Es	-1.093522	0.557971	0.760649	99
Es	3.220416	1.133202	-0.408050	99
Es	-1.313160	-0.576328	0.306676	99
Es	1.072696	1.368495	-0.676427	99
Es	0.508319	-0.190910	0.189899	99
Es	-2.450194	-1.109593	0.420024	99
Es	-3.196070	-0.998682	0.430219	99
Es	-3.386184	-0.526117	0.979530	99
Es	-1.490111	-1.542590	1.063790	99
Es	3.570966	0.960078	-1.024381	99
Es	3.346714	1.274113	-1.653961	99
Es	-1.523331	-1.715552	-0.138196	99
48
Properties=species:S:1:pos:R:3:Z:I:1 energy=-289.29770266347043 field_type=dipole dipole="0.000000 0.000000 0.000000" charge=0
C	-3.196089	-0.998680	0.430220	6
C	-1.693609	-1.231429	0.415459	6
C	-0.929909	0.076270	0.204770	6
N	0.508471	-0.191199	0.190439	7
C	1.267771	1.037540	-0.019941	6
C	2.729081	0.712210	-0.012041	6
C	3.570901	0.960070	-1.024291	6
H	-3.725019	-1.943909	0.590369	1
H	-3.537589	-0.576120	-0.521121	1
H	-3.480319	-0.310329	1.233359	1
H	-1.451679	-1.942990	-0.382321	1
H	-1.394019	-1.692110	1.363809	1
H	-1.173129	0.774150	1.015469	1
H	-1.240819	0.534531	-0.742471	1
H	0.723791	-0.839589	-0.566771	1
H	1.069701	1.749161	0.789449	1
H	0.980191	1.511750	-0.965281	1
H	3.115111	0.249811	0.894599	1
H	3.235171	1.422240	-1.947320	1
H	4.621991	0.698620	-0.946391	1
Es	2.005605	0.876606	-0.023954	99
Es	3.346752	1.274100	-1.653956	99
Es	0.627652	-0.565660	-0.286849	99
Es	2.983420	0.399815	0.604833	99
Es	1.072788	1.368616	-0.676444	99
Es	-1.490133	-1.542607	1.063711	99
Es	-1.149733	0.396606	-0.454512	99
Es	-0.929786	0.076223	0.204771	99
Es	1.133262	1.519117	0.531754	99
Es	-3.556918	-1.643855	0.539334	99
Es	-1.523282	-1.715522	-0.138155	99
Es	-1.093637	0.558019	0.760513	99
Es	4.285916	0.786124	-0.979536	99
Es	3.091668	0.542485	-0.658117	99
Es	0.508310	-0.190917	0.189896	99
Es	2.728998	0.712200	-0.011972	99
Es	-3.196070	-0.998682	0.430218	99
Es	3.570970	0.960092	-1.024373	99
Es	3.220509	1.133208	-0.408080	99
Es	0.830677	0.353539	0.075584	99
Es	-3.386230	-0.526054	0.979417	99
Es	-2.450173	-1.109650	0.420052	99
Es	1.267755	1.037419	-0.019916	99
Es	-1.313273	-0.576300	0.306643	99
Es	-0.112797	-0.058849	0.170897	99
Es	-3.426525	-0.707870	-0.221358	99
Es	-1.693642	-1.231395	0.415440	99
Es	0.606020	-0.336518	0.498618	99
48
Properties=species:S:1:pos:R:3:Z:I:1 energy=-289.29770266347043 field_type=dipole dipole="0.000000 0.000000 0.000000" charge=0
C	-3.196089	-0.998680	0.430220	6
C	-1.693609	-1.231429	0.415459	6
C	-0.929909	0.076270	0.204770	6
N	0.508471	-0.191199	0.190439	7
C	1.267771	1.037540	-0.019941	6
C	2.729081	0.712210	-0.012041	6
C	3.570901	0.960070	-1.024291	6
H	-3.725019	-1.943909	0.590369	1
H	-3.537589	-0.576120	-0.521121	1
H	-3.480319	-0.310329	1.233359	1
H	-1.451679	-1.942990	-0.382321	1
H	-1.394019	-1.692110	1.363809	1
H	-1.173129	0.774150	1.015469	1
H	-1.240819	0.534531	-0.742471	1
H	0.723791	-0.839589	-0.566771	1
H	1.069701	1.749161	0.789449	1
H	0.980191	1.511750	-0.965281	1
H	3.115111	0.249811	0.894599	1
H	3.235171	1.422240	-1.947320	1
H	4.621991	0.698620	-0.946391	1
Es	-3.196071	-0.998682	0.430219	99
Es	0.830688	0.353513	0.075507	99
Es	-1.149878	0.396671	-0.454490	99
Es	3.346752	1.274094	-1.653991	99
Es	-1.693642	-1.231396	0.415441	99
Es	-0.113000	-0.058874	0.170782	99
Es	1.267756	1.037420	-0.019915	99
Es	0.606116	-0.336560	0.498479	99
Es	-0.929785	0.076222	0.204771	99
Es	1.072865	1.368604	-0.676386	99
Es	-1.523234	-1.715415	-0.138050	99
Es	1.133254	1.519171	0.531794	99
Es	4.285899	0.786118	-0.979515	99
Es	3.091750	0.542540	-0.658038	99
Es	0.627612	-0.565569	-0.286821	99
Es	-3.426547	-0.707873	-0.221334	99
Es	3.220506	1.133156	-0.408089	99
Es	2.728995	0.712201	-0.011970	99
Es	2.983403	0.399836	0.604872	99
Es	3.570967	0.960092	-1.024372	99
Es	-1.490157	-1.542682	1.063737	99
Es	0.508313	-0.190931	0.189918	99
Es	2.005541	0.876563	-0.024074	99
Es	-3.556971	-1.643804	0.539358	99
Es	-1.313177	-0.576334	0.306715	99
Es	-3.386201	-0.526049	0.979389	99
Es	-2.450195	-1.109737	0.419901	99
Es	-1.093455	0.557997	0.760623	99
48
Properties=species:S:1:pos:R:3:Z:I:1 energy=-289.29770266347043 field_type=dipole dipole="0.000000 0.000000 0.000000" charge=0
C	-3.196089	-0.998680	0.430220	6
C	-1.693609	-1.231429	0.415459	6
C	-0.929909	0.076270	0.204770	6
N	0.508471	-0.191199	0.190439	7
C	1.267771	1.037540	-0.019941	6
C	2.729081	0.712210	-0.012041	6
C	3.570901	0.960070	-1.024291	6
H	-3.725019	-1.943909	0.590369	1
H	-3.537589	-0.576120	-0.521121	1
H	-3.480319	-0.310329	1.233359	1
H	-1.451679	-1.942990	-0.382321	1
H	-1.394019	-1.692110	1.363809	1
H	-1.173129	0.774150	1.015469	1
H	-1.240819	0.534531	-0.742471	1
H	0.723791	-0.839589	-0.566771	1
H	1.069701	1.749161	0.789449	1
H	0.980191	1.511750	-0.965281	1
H	3.115111	0.249811	0.894599	1
H	3.235171	1.422240	-1.947320	1
H	4.621991	0.698620	-0.946391	1
Es	-2.450196	-1.109643	0.419947	99
Es	3.346736	1.274103	-1.654031	99
Es	3.570974	0.960089	-1.024374	99
Es	1.072875	1.368538	-0.676375	99
Es	-3.556918	-1.643794	0.539372	99
Es	-1.693642	-1.231394	0.415440	99
Es	1.133205	1.519205	0.531686	99
Es	-1.490150	-1.542540	1.063664	99
Es	-1.523241	-1.715562	-0.138012	99
Es	-3.426617	-0.707915	-0.221306	99
Es	-1.093470	0.557975	0.760417	99
Es	0.830754	0.353455	0.075629	99
Es	-0.929789	0.076222	0.204771	99
Es	0.627785	-0.565843	-0.286681	99
Es	-1.149857	0.396670	-0.454470	99
Es	4.285871	0.786090	-0.979512	99
Es	-0.112890	-0.058814	0.170737	99
Es	-3.386232	-0.526059	0.979390	99
Es	0.605870	-0.336320	0.498412	99
Es	2.005541	0.876695	-0.024014	99
Es	2.983434	0.399806	0.604836	99
Es	-1.313234	-0.576396	0.306761	99
Es	3.220545	1.133086	-0.408080	99
Es	2.729001	0.712201	-0.011973	99
Es	1.267754	1.037419	-0.019916	99
Es	0.508310	-0.190926	0.189913	99
Es	3.091759	0.542623	-0.657988	99
Es	-3.196073	-0.998681	0.430216	99
48
Properties=species:S:1:pos:R:3:Z:I:1 energy=-289.29770266347043 field_type=dipole dipole="0.000000 0.000000 0.000000" charge=0
C	-3.196089	-0.998680	0.430220	6
C	-1.693609	-1.231429	0.415459	6
C	-0.929909	0.076270	0.204770	6
N	0.508471	-0.191199	0.190439	7
C	1.267771	1.037540	-0.019941	6
C	2.729081	0.712210	-0.012041	6
C	3.570901	0.960070	-1.024291	6
H	-3.725019	-1.943909	0.590369	1
H	-3.537589	-0.576120	-0.521121	1
H	-3.480319	-0.310329	1.233359	1
H	-1.451679	-1.942990	-0.382321	1
H	-1.394019	-1.692110	1.363809	1
H	-1.173129	0.774150	1.015469	1
H	-1.240819	0.534531	-0.742471	1
H	0.723791	-0.839589	-0.566771	1
H	1.069701	1.749161	0.789449	1
H	0.980191	1.511750	-0.965281	1
H	3.115111	0.249811	0.894599	1
H	3.235171	1.422240	-1.947320	1
H	4.621991	0.698620	-0.946391	1
Es	2.005499	0.876711	-0.024076	99
Es	1.267755	1.037419	-0.019915	99
Es	-3.196071	-0.998682	0.430218	99
Es	-2.450248	-1.109701	0.420074	99
Es	-3.556967	-1.643762	0.539357	99
Es	2.983503	0.399761	0.604838	99
Es	0.508309	-0.190928	0.189918	99
Es	0.830810	0.353436	0.075609	99
Es	-1.093456	0.558073	0.760437	99
Es	3.091703	0.542754	-0.658006	99
Es	-1.313229	-0.576372	0.306769	99
Es	1.072843	1.368595	-0.676321	99
Es	0.605870	-0.336265	0.498248	99
Es	-3.386246	-0.526078	0.979358	99
Es	3.346786	1.274058	-1.653982	99
Es	0.627793	-0.565882	-0.286615	99
Es	-0.112995	-0.058898	0.170802	99
Es	1.133250	1.519170	0.531717	99
Es	3.220438	1.133060	-0.408167	99
Es	-1.149818	0.396601	-0.454471	99
Es	-1.490043	-1.542607	1.063561	99
Es	2.729001	0.712201	-0.011972	99
Es	-3.426596	-0.707895	-0.221300	99
Es	-1.523284	-1.715470	-0.138005	99
Es	3.570964	0.960093	-1.024375	99
Es	-1.693641	-1.231395	0.415441	99
Es	4.285960	0.786072	-0.979455	99
Es	-0.929787	0.076223	0.204771	99
48
Properties=species:S:1:pos:R:3:Z:I:1 energy=-289.29770266347043 field_type=dipole dipole="0.000000 0.000000 0.000000" charge=0
C	-3.196089	-0.998680	0.430220	6
C	-1.693609	-1.231429	0.415459	6
C	-0.929909	0.076270	0.204770	6
N	0.508471	-0.191199	0.190439	7
C	1.267771	1.037540	-0.019941	6
C	2.729081	0.712210	-0.012041	6
C	3.570901	0.960070	-1.024291	6
H	-3.725019	-1.943909	0.590369	1
H	-3.537589	-0.576120	-0.521121	1
H	-3.480319	-0.310329	1.233359	1
H	-1.451679	-1.942990	-0.382321	1
H	-1.394019	-1.692110	1.363809	1
H	-1.173129	0.774150	1.015469	1
H	-1.240819	0.534531	-0.742471	1
H	0.723791	-0.839589	-0.566771	1
H	1.069701	1.749161	0.789449	1
H	0.980191	1.511750	-0.965281	1
H	3.115111	0.249811	0.894599	1
H	3.235171	1.422240	-1.947320	1
H	4.621991	0.698620	-0.946391	1
Es	4.285928	0.786106	-0.979509	99
Es	1.133133	1.519262	0.531627	99
Es	1.267756	1.037422	-0.019915	99
Es	-2.450135	-1.109651	0.419994	99
Es	-0.113015	-0.058927	0.170769	99
Es	2.729000	0.712198	-0.011974	99
Es	2.005477	0.876844	-0.023985	99
Es	-3.196071	-0.998682	0.430218	99
Es	-1.149853	0.396588	-0.454398	99
Es	-3.426639	-0.707978	-0.221266	99
Es	3.570967	0.960092	-1.024375	99
Es	3.346693	1.274000	-1.654039	99
Es	-1.313117	-0.576386	0.306842	99
Es	0.627777	-0.565882	-0.286455	99
Es	-1.523251	-1.715480	-0.137968	99
Es	-1.093467	0.558067	0.760419	99
Es	0.830872	0.353455	0.075513	99
Es	3.220498	1.133005	-0.408142	99
Es	3.091765	0.542853	-0.657900	99
Es	-3.386319	-0.526065	0.979289	99
Es	-1.490186	-1.542651	1.063532	99
Es	2.983551	0.399695	0.604804	99
Es	0.508317	-0.190931	0.189930	99
Es	-3.556959	-1.643717	0.539388	99
Es	-1.693642	-1.231395	0.415440	99
Es	0.605888	-0.336244	0.498169	99
Es	-0.929789	0.076225	0.204771	99
Es	1.072923	1.368471	-0.676322	99
