40
Properties=species:S:1:pos:R:3:Z:I:1 energy=-318.9971102144874 field_type=dipole dipole="0.000000 0.000000 0.000000" charge=0
C	-1.425059	-0.728852	0.227165	6
C	0.095061	-0.641362	0.307135	6
C	0.725241	-1.424342	-0.763155	6
N	1.215041	-2.032442	-1.623605	7
C	0.528251	0.820318	0.226385	6
N	0.435371	1.528508	-0.936455	7
N	0.968151	1.459338	1.265065	7
H	-1.891709	-0.132972	1.019295	1
H	-1.764499	-1.764922	0.336395	1
H	-1.803059	-0.355882	-0.732035	1
H	0.416201	-1.044822	1.274945	1
H	0.578031	1.039208	-1.814415	1
H	0.935571	2.412218	-0.887515	1
H	0.987401	0.866008	2.100795	1
Es	-1.424954	-0.728851	0.227169	99
Es	0.320059	-0.914028	0.936222	99
Es	0.430666	-1.053202	-0.264084	99
Es	-1.723125	-0.326961	0.764695	99
Es	0.970035	1.083951	1.763379	99
Es	1.059070	1.105414	0.814084	99
Es	-1.666553	-0.477607	-0.420326	99
Es	0.967984	1.458852	1.265014	99
Es	0.321265	0.068322	0.229765	99
Es	0.725090	-1.424152	-0.762889	99
Es	0.142353	1.546454	-0.852231	99
Es	1.059461	-1.488083	-1.374806	99
Es	0.095121	-0.641396	0.306969	99
Es	0.435824	1.528304	-0.936351	99
Es	0.549034	1.189171	-0.464988	99
Es	-0.628440	-0.685932	0.245991	99
Es	1.214851	-2.032202	-1.623268	99
Es	0.528199	0.820263	0.226220	99
Es	1.369901	-2.222751	-1.895065	99
Es	0.742051	2.034491	-0.910251	99
Es	0.722205	-1.894307	-1.290225	99
Es	1.189766	-1.876843	-1.031363	99
Es	0.522969	1.254374	0.924082	99
Es	0.533944	1.225102	-1.443789	99
Es	1.069585	1.813709	1.265916	99
Es	-1.640642	-1.429623	0.303476	99
40
Properties=species:S:1:pos:R:3:Z:I:1 energy=-318.9971102144874 field_type=dipole dipole="0.000000 0.000000 0.000000" charge=0
C	-1.425059	-0.728852	0.227165	6
C	0.095061	-0.641362	0.307135	6
C	0.725241	-1.424342	-0.763155	6
N	1.215041	-2.032442	-1.623605	7
C	0.528251	0.820318	0.226385	6
N	0.435371	1.528508	-0.936455	7
N	0.968151	1.459338	1.265065	7
H	-1.891709	-0.132972	1.019295	1
H	-1.764499	-1.764922	0.336395	1
H	-1.803059	-0.355882	-0.732035	1
H	0.416201	-1.044822	1.274945	1
H	0.578031	1.039208	-1.814415	1
H	0.935571	2.412218	-0.887515	1
H	0.987401	0.866008	2.100795	1
Es	0.967989	1.458865	1.265007	99
Es	0.533691	1.225190	-1.443817	99
Es	0.528181	0.820266	0.226217	99
Es	1.069906	1.813318	1.265350	99
Es	0.742429	2.034157	-0.910234	99
Es	-1.640662	-1.429591	0.303392	99
Es	-1.424954	-0.728850	0.227167	99
Es	0.436003	1.528113	-0.936126	99
Es	0.095120	-0.641396	0.306971	99
Es	1.214850	-2.032204	-1.623274	99
Es	0.549323	1.189151	-0.465270	99
Es	0.818853	-1.999561	-1.153491	99
Es	-1.666559	-0.477594	-0.420253	99
Es	0.430830	-1.053098	-0.264033	99
Es	0.970318	1.084175	1.763799	99
Es	0.725101	-1.424163	-0.762880	99
Es	-0.628532	-0.686013	0.246026	99
Es	1.368932	-2.222998	-1.894807	99
Es	1.271713	-1.712635	-1.106144	99
Es	0.321307	0.068224	0.229647	99
Es	-1.723163	-0.326997	0.764725	99
Es	0.522967	1.254741	0.924307	99
Es	1.058460	1.105344	0.813930	99
Es	0.881615	-1.546894	-1.436953	99
Es	0.141800	1.546901	-0.852111	99
Es	0.320197	-0.913979	0.936202	99
40
Properties=species:S:1:pos:R:3:Z:I:1 energy=-318.9971102144874 field_type=dipole dipole="0.000000 0.000000 0.000000" charge=0
C	-1.425059	-0.728852	0.227165	6
C	0.095061	-0.641362	0.307135	6
C	0.725241	-1.424342	-0.763155	6
N	1.215041	-2.032442	-1.623605	7
C	0.528251	0.820318	0.226385	6
N	0.435371	1.528508	-0.936455	7
N	0.968151	1.459338	1.265065	7
H	-1.891709	-0.132972	1.019295	1
H	-1.764499	-1.764922	0.336395	1
H	-1.803059	-0.355882	-0.732035	1
H	0.416201	-1.044822	1.274945	1
H	0.578031	1.039208	-1.814415	1
H	0.935571	2.412218	-0.887515	1
H	0.987401	0.866008	2.100795	1
Es	1.368812	-2.222814	-1.894760	99
Es	0.528179	0.820267	0.226217	99
Es	0.906055	-1.531916	-1.432864	99
Es	0.798946	-1.990008	-1.172827	99
Es	-1.723240	-0.326943	0.764641	99
Es	0.522989	1.254663	0.924122	99
Es	0.725092	-1.424152	-0.762891	99
Es	-1.424955	-0.728851	0.227168	99
Es	0.549513	1.189217	-0.465302	99
Es	0.970309	1.084447	1.763923	99
Es	0.967972	1.458853	1.265012	99
Es	-1.640629	-1.429608	0.303456	99
Es	-1.666563	-0.477723	-0.420222	99
Es	0.321234	0.068052	0.229720	99
Es	1.058873	1.105404	0.813937	99
Es	1.069540	1.813142	1.265333	99
Es	-0.628578	-0.685986	0.245782	99
Es	0.141844	1.546536	-0.851853	99
Es	0.095120	-0.641397	0.306970	99
Es	0.533693	1.225159	-1.443790	99
Es	0.320257	-0.914057	0.936324	99
Es	0.430936	-1.052888	-0.263845	99
Es	1.214845	-2.032201	-1.623271	99
Es	1.267295	-1.737336	-1.091014	99
Es	0.435930	1.528251	-0.936302	99
Es	0.742248	2.034362	-0.910321	99
40
Properties=species:S:1:pos:R:3:Z:I:1 energy=-318.9971102144874 field_type=dipole dipole="0.000000 0.000000 0.000000" charge=0
C	-1.425059	-0.728852	0.227165	6
C	0.095061	-0.641362	0.307135	6
C	0.725241	-1.424342	-0.763155	6
N	1.215041	-2.032442	-1.623605	7
C	0.528251	0.820318	0.226385	6
N	0.435371	1.528508	-0.936455	7
N	0.968151	1.459338	1.265065	7
H	-1.891709	-0.132972	1.019295	1
H	-1.764499	-1.764922	0.336395	1
H	-1.803059	-0.355882	-0.732035	1
H	0.416201	-1.044822	1.274945	1
H	0.578031	1.039208	-1.814415	1
H	0.935571	2.412218	-0.887515	1
H	0.987401	0.866008	2.100795	1
Es	-0.628627	-0.686145	0.245835	99
Es	1.273799	-1.697417	-1.116018	99
Es	0.970352	1.084315	1.763809	99
Es	0.142135	1.546268	-0.850593	99
Es	0.725095	-1.424152	-0.762891	99
Es	-1.723221	-0.326926	0.764607	99
Es	0.865992	-1.557401	-1.439101	99
Es	0.430937	-1.052783	-0.263823	99
Es	0.095121	-0.641397	0.306969	99
Es	0.967992	1.458863	1.265031	99
Es	0.532696	1.225345	-1.444375	99
Es	0.435773	1.528333	-0.936379	99
Es	0.321389	0.068117	0.229753	99
Es	0.742133	2.034357	-0.910398	99
Es	1.057838	1.105037	0.813597	99
Es	1.214850	-2.032205	-1.623275	99
Es	0.832591	-2.004893	-1.141577	99
Es	-1.424959	-0.728849	0.227169	99
Es	-1.640708	-1.429534	0.303474	99
Es	-1.666549	-0.477729	-0.420239	99
Es	1.070713	1.812817	1.265180	99
Es	1.368718	-2.222495	-1.894659	99
Es	0.320235	-0.914056	0.936190	99
Es	0.550533	1.189230	-0.465865	99
Es	0.522708	1.255506	0.924706	99
Es	0.528183	0.820268	0.226219	99
40
Properties=species:S:1:pos:R:3:Z:I:1 energy=-318.9971102144874 field_type=dipole dipole="0.000000 0.000000 0.000000" charge=0
C	-1.425059	-0.728852	0.227165	6
C	0.095061	-0.641362	0.307135	6
C	0.725241	-1.424342	-0.763155	6
N	1.215041	-2.032442	-1.623605	7
C	0.528251	0.820318	0.226385	6
N	0.435371	1.528508	-0.936455	7
N	0.968151	1.459338	1.265065	7
H	-1.891709	-0.132972	1.019295	1
H	-1.764499	-1.764922	0.336395	1
H	-1.803059	-0.355882	-0.732035	1
H	0.416201	-1.044822	1.274945	1
H	0.578031	1.039208	-1.814415	1
H	0.935571	2.412218	-0.887515	1
H	0.987401	0.866008	2.100795	1
Es	0.435835	1.528299	-0.936339	99
Es	-1.666588	-0.477684	-0.420199	99
Es	-1.640756	-1.429575	0.303504	99
Es	0.522917	1.254566	0.923781	99
Es	0.431016	-1.052766	-0.263618	99
Es	0.970350	1.084619	1.764011	99
Es	-1.723150	-0.326940	0.764576	99
Es	-0.628821	-0.686186	0.245756	99
Es	1.267077	-1.739676	-1.089754	99
Es	0.908397	-1.530290	-1.432895	99
Es	1.058952	1.105580	0.814161	99
Es	1.069433	1.812902	1.265292	99
Es	0.742126	2.034297	-0.910520	99
Es	1.368502	-2.222732	-1.894312	99
Es	0.533217	1.225265	-1.443985	99
Es	0.725087	-1.424146	-0.762879	99
Es	1.214848	-2.032201	-1.623270	99
Es	0.967990	1.458844	1.265033	99
Es	0.321426	0.067972	0.229809	99
Es	0.551334	1.189591	-0.466433	99
Es	0.797124	-1.989439	-1.174508	99
Es	0.320327	-0.914008	0.936125	99
Es	0.528186	0.820264	0.226218	99
Es	0.095120	-0.641397	0.306970	99
Es	0.140724	1.546166	-0.850346	99
Es	-1.424956	-0.728851	0.227170	99
40
Properties=species:S:1:pos:R:3:Z:I:1 energy=-318.9971102144874 field_type=dipole dipole="0.000000 0.000000 0.000000" charge=0
C	-1.425059	-0.728852	0.227165	6
C	0.095061	-0.641362	0.307135	6
C	0.725241	-1.424342	-0.763155	6
N	1.215041	-2.032442	-1.623605	7
C	0.528251	0.820318	0.226385	6
N	0.435371	1.528508	-0.936455	7
N	0.968151	1.459338	1.265065	7
H	-1.891709	-0.132972	1.019295	1
H	-1.764499	-1.764922	0.336395	1
H	-1.803059	-0.355882	-0.732035	1
H	0.416201	-1.044822	1.274945	1
H	0.578031	1.039208	-1.814415	1
H	0.935571	2.412218	-0.887515	1
H	0.987401	0.866008	2.100795	1
Es	0.095119	-0.641396	0.306971	99
Es	1.214847	-2.032199	-1.623269	99
Es	-1.640725	-1.429491	0.303420	99
Es	0.725092	-1.424152	-0.762886	99
Es	0.533298	1.225364	-1.444051	99
Es	0.551449	1.189536	-0.466455	99
Es	0.933052	-1.517680	-1.427182	99
Es	0.967983	1.458851	1.265010	99
Es	0.435846	1.528273	-0.936314	99
Es	1.259860	-1.763852	-1.076362	99
Es	-1.424957	-0.728851	0.227169	99
Es	0.779580	-1.978237	-1.193803	99
Es	-1.666613	-0.477666	-0.420201	99
Es	0.741764	2.034560	-0.910449	99
Es	0.140890	1.545854	-0.850351	99
Es	0.320449	-0.914011	0.936054	99
Es	-1.723207	-0.327020	0.764636	99
Es	0.970416	1.084593	1.764090	99
Es	1.068889	1.812911	1.265405	99
Es	0.528163	0.820272	0.226222	99
Es	0.523054	1.254296	0.923488	99
Es	0.430868	-1.052786	-0.263520	99
Es	-0.628853	-0.686236	0.245872	99
Es	1.368649	-2.222327	-1.894161	99
Es	1.059368	1.105893	0.814260	99
Es	0.321437	0.067973	0.229752	99
40
Properties=species:S:1:pos:R:3:Z:I:1 energy=-318.9971102144874 field_type=dipole dipole="0.000000 0.000000 0.000000" charge=0
C	-1.425059	-0.728852	0.227165	6
C	0.095061	-0.641362	0.307135	6
C	0.725241	-1.424342	-0.763155	6
N	1.215041	-2.032442	-1.623605	7
C	0.528251	0.820318	0.226385	6
N	0.435371	1.528508	-0.936455	7
N	0.968151	1.459338	1.265065	7
H	-1.891709	-0.132972	1.019295	1
H	-1.764499	-1.764922	0.336395	1
H	-1.803059	-0.355882	-0.732035	1
H	0.416201	-1.044822	1.274945	1
H	0.578031	1.039208	-1.814415	1
H	0.935571	2.412218	-0.887515	1
H	0.987401	0.866008	2.100795	1
Es	-1.666622	-0.477721	-0.420173	99
Es	-1.424958	-0.728851	0.227169	99
Es	1.214848	-2.032200	-1.623269	99
Es	0.435915	1.528216	-0.936253	99
Es	0.140400	1.546246	-0.850167	99
Es	0.967986	1.458852	1.265014	99
Es	0.321564	0.067873	0.229670	99
Es	0.320451	-0.914063	0.936122	99
Es	1.368620	-2.222158	-1.894043	99
Es	0.522961	1.254231	0.923614	99
Es	0.528184	0.820265	0.226218	99
Es	0.970892	1.084883	1.764554	99
Es	0.918560	-1.524434	-1.431054	99
Es	-1.640788	-1.429458	0.303479	99
Es	0.742112	2.034164	-0.910472	99
Es	-1.723199	-0.326976	0.764563	99
Es	0.551730	1.189545	-0.466613	99
Es	1.068464	1.812535	1.264960	99
Es	0.789464	-1.984904	-1.183019	99
Es	0.533107	1.225452	-1.444087	99
Es	0.725090	-1.424142	-0.762892	99
Es	1.264430	-1.750704	-1.083364	99
Es	-0.628864	-0.686249	0.245712	99
Es	0.430928	-1.052608	-0.263409	99
Es	0.095120	-0.641399	0.306971	99
Es	1.059323	1.106074	0.814115	99
40
Properties=species:S:1:pos:R:3:Z:I:1 energy=-318.9971102144874 field_type=dipole dipole="0.000000 0.000000 0.000000" charge=0
C	-1.425059	-0.728852	0.227165	6
C	0.095061	-0.641362	0.307135	6
C	0.725241	-1.424342	-0.763155	6
N	1.215041	-2.032442	-1.623605	7
C	0.528251	0.820318	0.226385	6
N	0.435371	1.528508	-0.936455	7
N	0.968151	1.459338	1.265065	7
H	-1.891709	-0.132972	1.019295	1
H	-1.764499	-1.764922	0.336395	1
H	-1.803059	-0.355882	-0.732035	1
H	0.416201	-1.044822	1.274945	1
H	0.578031	1.039208	-1.814415	1
H	0.935571	2.412218	-0.887515	1
H	0.987401	0.866008	2.100795	1
Es	0.970595	1.084681	1.764368	99
Es	0.522835	1.254923	0.923648	99
Es	0.967985	1.458850	1.265030	99
Es	0.140381	1.546960	-0.850272	99
Es	0.435906	1.528205	-0.936206	99
Es	1.058781	1.105888	0.814051	99
Es	0.551336	1.189487	-0.466584	99
Es	0.095121	-0.641400	0.306972	99
Es	1.273515	-1.711090	-1.106767	99
Es	0.528175	0.820268	0.226217	99
Es	0.742893	2.033584	-0.910420	99
Es	-1.424958	-0.728852	0.227168	99
Es	0.532752	1.225415	-1.444152	99
Es	0.321605	0.067896	0.229809	99
Es	1.214848	-2.032201	-1.623269	99
Es	1.368350	-2.222361	-1.893768	99
Es	-1.666655	-0.477811	-0.420225	99
Es	0.820398	-2.000731	-1.152424	99
Es	-0.629006	-0.686386	0.245827	99
Es	0.320588	-0.914088	0.935910	99
Es	-1.640774	-1.429435	0.303596	99
Es	0.878803	-1.548061	-1.438484	99
Es	0.430923	-1.052456	-0.263381	99
Es	-1.723196	-0.326930	0.764490	99
Es	1.069429	1.812273	1.265101	99
Es	0.725090	-1.424154	-0.762891	99
40
Properties=species:S:1:pos:R:3:Z:I:1 energy=-318.9971102144874 field_type=dipole dipole="0.000000 0.000000 0.000000" charge=0
C	-1.425059	-0.728852	0.227165	6
C	0.095061	-0.641362	0.307135	6
C	0.725241	-1.424342	-0.763155	6
N	1.215041	-2.032442	-1.623605	7
C	0.528251	0.820318	0.226385	6
N	0.435371	1.528508	-0.936455	7
N	0.968151	1.459338	1.265065	7
H	-1.891709	-0.132972	1.019295	1
H	-1.764499	-1.764922	0.336395	1
H	-1.803059	-0.355882	-0.732035	1
H	0.416201	-1.044822	1.274945	1
H	0.578031	1.039208	-1.814415	1
H	0.935571	2.412218	-0.887515	1
H	0.987401	0.866008	2.100795	1
Es	-1.640807	-1.429499	0.303678	99
Es	1.203745	-1.863229	-1.034837	99
Es	0.095119	-0.641396	0.306970	99
Es	0.435890	1.528242	-0.936285	99
Es	0.550290	1.189873	-0.466039	99
Es	-0.629012	-0.686178	0.245634	99
Es	0.726501	-1.909197	-1.277607	99
Es	0.970625	1.084659	1.764383	99
Es	0.321684	0.067713	0.229753	99
Es	-1.666658	-0.477881	-0.420169	99
Es	1.042552	-1.487873	-1.385404	99
Es	0.742760	2.033856	-0.910391	99
Es	0.140215	1.546847	-0.851425	99
Es	-1.424957	-0.728852	0.227168	99
Es	1.368593	-2.221817	-1.893691	99
Es	0.967984	1.458855	1.265016	99
Es	1.059249	1.106160	0.813999	99
Es	-1.723190	-0.326871	0.764381	99
Es	0.534088	1.224868	-1.443486	99
Es	0.725093	-1.424153	-0.762890	99
Es	0.522925	1.254684	0.923483	99
Es	0.528179	0.820267	0.226218	99
Es	0.320545	-0.914102	0.936051	99
Es	1.214848	-2.032201	-1.623270	99
Es	1.068874	1.812241	1.265300	99
Es	0.430582	-1.052545	-0.263192	99
40
Properties=species:S:1:pos:R:3:Z:I:1 energy=-318.9971102144874 field_type=dipole dipole="0.000000 0.000000 0.000000" charge=0
C	-1.425059	-0.728852	0.227165	6
C	0.095061	-0.641362	0.307135	6
C	0.725241	-1.424342	-0.763155	6
N	1.215041	-2.032442	-1.623605	7
C	0.528251	0.820318	0.226385	6
N	0.435371	1.528508	-0.936455	7
N	0.968151	1.459338	1.265065	7
H	-1.891709	-0.132972	1.019295	1
H	-1.764499	-1.764922	0.336395	1
H	-1.803059	-0.355882	-0.732035	1
H	0.416201	-1.044822	1.274945	1
H	0.578031	1.039208	-1.814415	1
H	0.935571	2.412218	-0.887515	1
H	0.987401	0.866008	2.100795	1
Es	-0.629065	-0.686332	0.245687	99
Es	0.430681	-1.052537	-0.263068	99
Es	0.435890	1.528244	-0.936282	99
Es	0.532852	1.225393	-1.444119	99
Es	1.368138	-2.221846	-1.893555	99
Es	0.320649	-0.914082	0.935972	99
Es	1.214846	-2.032198	-1.623266	99
Es	0.968700	-1.503205	-1.416908	99
Es	0.742069	2.034319	-0.910586	99
Es	1.246455	-1.797245	-1.060044	99
Es	0.522733	1.254931	0.923495	99
Es	-1.424958	-0.728851	0.227169	99
Es	1.059235	1.106145	0.813941	99
Es	0.551856	1.189658	-0.466691	99
Es	1.068945	1.811886	1.265214	99
Es	0.321732	0.067716	0.229725	99
Es	0.757981	-1.959793	-1.221060	99
Es	-1.640794	-1.429391	0.303565	99
Es	0.970712	1.084834	1.764508	99
Es	0.725092	-1.424153	-0.762886	99
Es	-1.723240	-0.326970	0.764466	99
Es	0.528181	0.820267	0.226220	99
Es	0.140612	1.546057	-0.849970	99
Es	-1.666689	-0.477836	-0.420158	99
Es	0.967984	1.458858	1.265005	99
Es	0.095118	-0.641396	0.306973	99
40
Properties=species:S:1:pos:R:3:Z:I:1 energy=-318.9971102144874 field_type=dipole dipole="0.000000 0.000000 0.000000" charge=0
C	-1.425059	-0.728852	0.227165	6
C	0.095061	-0.641362	0.307135	6
C	0.725241	-1.424342	-0.763155	6
N	1.215041	-2.032442	-1.623605	7
C	0.528251	0.820318	0.226385	6
N	0.435371	1.528508	-0.936455	7
N	0.968151	1.459338	1.265065	7
H	-1.891709	-0.132972	1.019295	1
H	-1.764499	-1.764922	0.336395	1
H	-1.803059	-0.355882	-0.732035	1
H	0.416201	-1.044822	1.274945	1
H	0.578031	1.039208	-1.814415	1
H	0.935571	2.412218	-0.887515	1
H	0.987401	0.866008	2.100795	1
Es	-1.640756	-1.429379	0.303490	99
Es	1.058805	1.106126	0.813867	99
Es	-1.424959	-0.728852	0.227169	99
Es	0.139387	1.545797	-0.848536	99
Es	0.553537	1.189865	-0.467858	99
Es	1.258044	-1.598132	-1.194360	99
Es	1.368019	-2.222332	-1.893069	99
Es	0.742109	2.034169	-0.910695	99
Es	0.320636	-0.914327	0.935932	99
Es	1.214848	-2.032201	-1.623270	99
Es	-0.629134	-0.686287	0.245481	99
Es	0.937766	-2.015135	-1.071868	99
Es	1.068928	1.811774	1.264754	99
Es	-1.666819	-0.477705	-0.420111	99
Es	0.522886	1.254925	0.923659	99
Es	0.970962	1.085010	1.764850	99
Es	0.532365	1.225605	-1.444284	99
Es	0.725088	-1.424152	-0.762894	99
Es	0.435888	1.528247	-0.936291	99
Es	0.095117	-0.641395	0.306974	99
Es	-1.723171	-0.327133	0.764558	99
Es	0.967986	1.458860	1.265004	99
Es	0.430676	-1.052001	-0.263264	99
Es	0.777438	-1.646817	-1.432007	99
Es	0.321884	0.067674	0.229896	99
Es	0.528189	0.820266	0.226219	99
40
Properties=species:S:1:pos:R:3:Z:I:1 energy=-318.9971102144874 field_type=dipole dipole="0.000000 0.000000 0.000000" charge=0
C	-1.425059	-0.728852	0.227165	6
C	0.095061	-0.641362	0.307135	6
C	0.725241	-1.424342	-0.763155	6
N	1.215041	-2.032442	-1.623605	7
C	0.528251	0.820318	0.226385	6
N	0.435371	1.528508	-0.936455	7
N	0.968151	1.459338	1.265065	7
H	-1.891709	-0.132972	1.019295	1
H	-1.764499	-1.764922	0.336395	1
H	-1.803059	-0.355882	-0.732035	1
H	0.416201	-1.044822	1.274945	1
H	0.578031	1.039208	-1.814415	1
H	0.935571	2.412218	-0.887515	1
H	0.987401	0.866008	2.100795	1
Es	0.522738	1.255366	0.923819	99
Es	1.269596	-1.734930	-1.092618	99
Es	-1.640831	-1.429417	0.303381	99
Es	1.059069	1.106090	0.813456	99
Es	0.970911	1.085091	1.764887	99
Es	0.321889	0.067618	0.229787	99
Es	-1.723134	-0.327180	0.764592	99
Es	0.903042	-1.532701	-1.434953	99
Es	1.068862	1.811301	1.264932	99
Es	1.367672	-2.221712	-1.893452	99
Es	0.532923	1.225701	-1.444057	99
Es	0.967986	1.458857	1.265017	99
Es	0.435855	1.528283	-0.936324	99
Es	-1.666815	-0.477605	-0.419992	99
Es	0.725112	-1.424154	-0.762880	99
Es	0.320774	-0.914192	0.935900	99
Es	0.800815	-1.992881	-1.170497	99
Es	0.528185	0.820266	0.226219	99
Es	0.554739	1.190145	-0.468771	99
Es	1.214848	-2.032200	-1.623270	99
Es	-1.424962	-0.728850	0.227168	99
Es	0.741897	2.034182	-0.910643	99
Es	0.430738	-1.052242	-0.262972	99
Es	-0.629214	-0.686351	0.245530	99
Es	0.095117	-0.641396	0.306973	99
Es	0.137906	1.545385	-0.847885	99
40
Properties=species:S:1:pos:R:3:Z:I:1 energy=-318.9971102144874 field_type=dipole dipole="0.000000 0.000000 0.000000" charge=0
C	-1.425059	-0.728852	0.227165	6
C	0.095061	-0.641362	0.307135	6
C	0.725241	-1.424342	-0.763155	6
N	1.215041	-2.032442	-1.623605	7
C	0.528251	0.820318	0.226385	6
N	0.435371	1.528508	-0.936455	7
N	0.968151	1.459338	1.265065	7
H	-1.891709	-0.132972	1.019295	1
H	-1.764499	-1.764922	0.336395	1
H	-1.803059	-0.355882	-0.732035	1
H	0.416201	-1.044822	1.274945	1
H	0.578031	1.039208	-1.814415	1
H	0.935571	2.412218	-0.887515	1
H	0.987401	0.866008	2.100795	1
Es	-1.723270	-0.327171	0.764539	99
Es	0.532182	1.225708	-1.444436	99
Es	0.554014	1.189876	-0.468201	99
Es	0.320727	-0.914206	0.935893	99
Es	1.272396	-1.723432	-1.099138	99
Es	0.741801	2.034428	-0.910673	99
Es	0.725097	-1.424156	-0.762888	99
Es	0.321962	0.067589	0.229817	99
Es	0.967984	1.458857	1.265015	99
Es	1.214849	-2.032201	-1.623271	99
Es	0.095117	-0.641396	0.306974	99
Es	-1.666684	-0.477636	-0.420056	99
Es	1.068861	1.811555	1.264981	99
Es	0.528184	0.820261	0.226219	99
Es	-0.629264	-0.686414	0.245592	99
Es	0.809583	-1.997400	-1.162025	99
Es	0.970908	1.084866	1.764811	99
Es	0.891233	-1.539858	-1.437206	99
Es	0.522922	1.255161	0.923442	99
Es	0.430801	-1.052184	-0.262846	99
Es	0.139375	1.545402	-0.848068	99
Es	1.058891	1.106407	0.813782	99
Es	-1.640822	-1.429391	0.303333	99
Es	0.435943	1.528224	-0.936288	99
Es	1.367891	-2.221567	-1.893126	99
Es	-1.424964	-0.728850	0.227170	99
40
Properties=species:S:1:pos:R:3:Z:I:1 energy=-318.9971102144874 field_type=dipole dipole="0.000000 0.000000 0.000000" charge=0
C	-1.425059	-0.728852	0.227165	6
C	0.095061	-0.641362	0.307135	6
C	0.725241	-1.424342	-0.763155	6
N	1.215041	-2.032442	-1.623605	7
C	0.528251	0.820318	0.226385	6
N	0.435371	1.528508	-0.936455	7
N	0.968151	1.459338	1.265065	7
H	-1.891709	-0.132972	1.019295	1
H	-1.764499	-1.764922	0.336395	1
H	-1.803059	-0.355882	-0.732035	1
H	0.416201	-1.044822	1.274945	1
H	0.578031	1.039208	-1.814415	1
H	0.935571	2.412218	-0.887515	1
H	0.987401	0.866008	2.100795	1
Es	1.368164	-2.221233	-1.892680	99
Es	0.522802	1.255281	0.923592	99
Es	0.528181	0.820267	0.226219	99
Es	-1.640866	-1.429358	0.303472	99
Es	0.725092	-1.424153	-0.762889	99
Es	0.556404	1.190223	-0.469703	99
Es	-1.424960	-0.728851	0.227168	99
Es	0.970968	1.085069	1.764922	99
Es	0.430391	-1.052138	-0.262853	99
Es	-1.666715	-0.477815	-0.420012	99
Es	1.068922	1.811299	1.264866	99
Es	0.320829	-0.914189	0.935851	99
Es	1.214847	-2.032201	-1.623269	99
Es	1.108853	-1.489899	-1.348070	99
Es	0.712585	-1.853179	-1.327303	99
Es	1.058850	1.106275	0.813674	99
Es	0.435888	1.528239	-0.936261	99
Es	0.741475	2.034615	-0.911004	99
Es	-1.723256	-0.327011	0.764471	99
Es	0.095117	-0.641396	0.306973	99
Es	1.151908	-1.917921	-1.023454	99
Es	0.138411	1.544639	-0.845956	99
Es	0.967981	1.458854	1.265003	99
Es	0.321967	0.067491	0.229838	99
Es	-0.629273	-0.686423	0.245534	99
Es	0.531155	1.225986	-1.444783	99
40
Properties=species:S:1:pos:R:3:Z:I:1 energy=-318.9971102144874 field_type=dipole dipole="0.000000 0.000000 0.000000" charge=0
C	-1.425059	-0.728852	0.227165	6
C	0.095061	-0.641362	0.307135	6
C	0.725241	-1.424342	-0.763155	6
N	1.215041	-2.032442	-1.623605	7
C	0.528251	0.820318	0.226385	6
N	0.435371	1.528508	-0.936455	7
N	0.968151	1.459338	1.265065	7
H	-1.891709	-0.132972	1.019295	1
H	-1.764499	-1.764922	0.336395	1
H	-1.803059	-0.355882	-0.732035	1
H	0.416201	-1.044822	1.274945	1
H	0.578031	1.039208	-1.814415	1
H	0.935571	2.412218	-0.887515	1
H	0.987401	0.866008	2.100795	1
Es	-1.640841	-1.429365	0.303524	99
Es	1.214848	-2.032200	-1.623269	99
Es	0.095110	-0.641388	0.306978	99
Es	0.322071	0.067507	0.229902	99
Es	0.528183	0.820268	0.226219	99
Es	0.137727	1.545529	-0.847307	99
Es	0.522755	1.255213	0.923553	99
Es	-1.723182	-0.327108	0.764449	99
Es	1.058837	1.106308	0.813726	99
Es	0.848395	-1.570344	-1.441962	99
Es	0.532247	1.225828	-1.444210	99
Es	0.320907	-0.914302	0.935721	99
Es	0.555325	1.190160	-0.469106	99
Es	1.276243	-1.678700	-1.129120	99
Es	0.725094	-1.424156	-0.762891	99
Es	0.849040	-2.011662	-1.127577	99
Es	0.430682	-1.051934	-0.262871	99
Es	1.367497	-2.221624	-1.892765	99
Es	-1.666812	-0.477754	-0.420046	99
Es	0.742170	2.033973	-0.910805	99
Es	0.967985	1.458861	1.265017	99
Es	-1.424958	-0.728851	0.227170	99
Es	1.068843	1.811183	1.264728	99
Es	0.435876	1.528250	-0.936274	99
Es	-0.629413	-0.686429	0.245548	99
Es	0.971091	1.085212	1.765019	99
40
Properties=species:S:1:pos:R:3:Z:I:1 energy=-318.9971102144874 field_type=dipole dipole="0.000000 0.000000 0.000000" charge=0
C	-1.425059	-0.728852	0.227165	6
C	0.095061	-0.641362	0.307135	6
C	0.725241	-1.424342	-0.763155	6
N	1.215041	-2.032442	-1.623605	7
C	0.528251	0.820318	0.226385	6
N	0.435371	1.528508	-0.936455	7
N	0.968151	1.459338	1.265065	7
H	-1.891709	-0.132972	1.019295	1
H	-1.764499	-1.764922	0.336395	1
H	-1.803059	-0.355882	-0.732035	1
H	0.416201	-1.044822	1.274945	1
H	0.578031	1.039208	-1.814415	1
H	0.935571	2.412218	-0.887515	1
H	0.987401	0.866008	2.100795	1
Es	0.742174	2.034132	-0.910818	99
Es	0.095110	-0.641395	0.306974	99
Es	0.725092	-1.424155	-0.762889	99
Es	0.320963	-0.914284	0.935830	99
Es	1.368105	-2.221026	-1.892379	99
Es	-1.666744	-0.477804	-0.419984	99
Es	0.435831	1.528294	-0.936337	99
Es	0.531356	1.225942	-1.444631	99
Es	0.139124	1.545528	-0.847208	99
Es	-1.640885	-1.429368	0.303483	99
Es	1.160448	-1.910711	-1.024221	99
Es	1.099592	-1.488474	-1.354270	99
Es	-1.424961	-0.728851	0.227169	99
Es	1.214849	-2.032202	-1.623271	99
Es	0.430273	-1.051958	-0.262762	99
Es	-1.723262	-0.327061	0.764400	99
Es	0.713391	-1.862057	-1.320638	99
Es	1.069213	1.810980	1.264688	99
Es	0.967984	1.458856	1.265012	99
Es	0.322053	0.067395	0.229759	99
Es	1.058549	1.106244	0.813673	99
Es	0.554911	1.189879	-0.468675	99
Es	0.528179	0.820268	0.226222	99
Es	0.522582	1.255526	0.923649	99
Es	0.971119	1.085165	1.765033	99
Es	-0.629328	-0.686390	0.245538	99
40
Properties=species:S:1:pos:R:3:Z:I:1 energy=-318.9971102144874 field_type=dipole dipole="0.000000 0.000000 0.000000" charge=0
C	-1.425059	-0.728852	0.227165	6
C	0.095061	-0.641362	0.307135	6
C	0.725241	-1.424342	-0.763155	6
N	1.215041	-2.032442	-1.623605	7
C	0.528251	0.820318	0.226385	6
N	0.435371	1.528508	-0.936455	7
N	0.968151	1.459338	1.265065	7
H	-1.891709	-0.132972	1.019295	1
H	-1.764499	-1.764922	0.336395	1
H	-1.803059	-0.355882	-0.732035	1
H	0.416201	-1.044822	1.274945	1
H	0.578031	1.039208	-1.814415	1
H	0.935571	2.412218	-0.887515	1
H	0.987401	0.866008	2.100795	1
Es	0.522716	1.255590	0.923724	99
Es	0.555510	1.190093	-0.469212	99
Es	0.967990	1.458863	1.265022	99
Es	0.320947	-0.914226	0.935767	99
Es	-1.424961	-0.728853	0.227168	99
Es	0.095118	-0.641395	0.306972	99
Es	-1.666780	-0.477855	-0.419990	99
Es	0.430684	-1.051821	-0.262674	99
Es	0.322203	0.067317	0.229828	99
Es	1.273674	-1.646604	-1.153139	99
Es	0.742106	2.034077	-0.910805	99
Es	-1.640800	-1.429332	0.303469	99
Es	0.528184	0.820266	0.226219	99
Es	-0.629556	-0.686403	0.245407	99
Es	1.058492	1.106287	0.813484	99
Es	0.818612	-1.597245	-1.441561	99
Es	0.435885	1.528234	-0.936262	99
Es	1.367324	-2.221563	-1.892420	99
Es	1.214848	-2.032201	-1.623269	99
Es	-1.723309	-0.327076	0.764461	99
Es	1.069073	1.810770	1.264538	99
Es	0.725092	-1.424151	-0.762889	99
Es	0.531444	1.225970	-1.444646	99
Es	0.138407	1.545410	-0.846789	99
Es	0.971203	1.085307	1.765218	99
Es	0.881612	-2.016987	-1.104276	99
40
Properties=species:S:1:pos:R:3:Z:I:1 energy=-318.9971102144874 field_type=dipole dipole="0.000000 0.000000 0.000000" charge=0
C	-1.425059	-0.728852	0.227165	6
C	0.095061	-0.641362	0.307135	6
C	0.725241	-1.424342	-0.763155	6
N	1.215041	-2.032442	-1.623605	7
C	0.528251	0.820318	0.226385	6
N	0.435371	1.528508	-0.936455	7
N	0.968151	1.459338	1.265065	7
H	-1.891709	-0.132972	1.019295	1
H	-1.764499	-1.764922	0.336395	1
H	-1.803059	-0.355882	-0.732035	1
H	0.416201	-1.044822	1.274945	1
H	0.578031	1.039208	-1.814415	1
H	0.935571	2.412218	-0.887515	1
H	0.987401	0.866008	2.100795	1
Es	1.275262	-1.705565	-1.111039	99
Es	0.095119	-0.641398	0.306974	99
Es	-1.424961	-0.728852	0.227168	99
Es	-1.666800	-0.477790	-0.420021	99
Es	1.367180	-2.221229	-1.892426	99
Es	0.528179	0.820267	0.226220	99
Es	0.322275	0.067265	0.229756	99
Es	-0.629597	-0.686465	0.245418	99
Es	-1.723245	-0.327112	0.764441	99
Es	1.214849	-2.032202	-1.623273	99
Es	0.873731	-1.550616	-1.440589	99
Es	0.435904	1.528157	-0.936149	99
Es	0.967989	1.458868	1.265006	99
Es	0.321039	-0.914273	0.935788	99
Es	1.058783	1.106591	0.813555	99
Es	0.430611	-1.051836	-0.262511	99
Es	1.068593	1.810814	1.264676	99
Es	0.741971	2.034173	-0.910885	99
Es	0.138380	1.545257	-0.846350	99
Es	0.825009	-2.004907	-1.147406	99
Es	0.971293	1.085268	1.765228	99
Es	0.522799	1.255317	0.923489	99
Es	0.556024	1.190155	-0.469525	99
Es	0.725091	-1.424155	-0.762891	99
Es	0.531099	1.226036	-1.444792	99
Es	-1.640859	-1.429297	0.303486	99
