41
Properties=species:S:1:pos:R:3:Z:I:1 energy=-302.8807999525214 field_type=dipole dipole="0.000000 0.000000 0.000000" charge=0
C	-0.475708	-1.464465	0.942984	6
C	-0.218688	-0.948255	-0.462066	6
C	0.324502	0.452885	-0.423346	6
N	-0.313928	1.582695	-0.405136	7
N	-1.666158	1.499005	-0.432116	7
C	1.751602	0.659365	-0.358936	6
C	2.939532	0.826915	-0.303916	6
H	-0.860758	-2.488115	0.907564	1
H	-1.207948	-0.841805	1.467004	1
H	0.444162	-1.465655	1.537144	1
H	-1.141388	-0.978135	-1.050006	1
H	0.505902	-1.598895	-0.965026	1
H	-2.045178	2.407475	-0.715256	1
H	-2.027588	1.369484	0.517094	1
H	3.991642	0.987505	-0.255986	1
Es	1.070255	0.540090	-0.389209	99
Es	0.059401	-0.229043	-0.441209	99
Es	-1.882866	2.053617	-0.588314	99
Es	-0.149480	1.921866	-0.410294	99
Es	-1.853938	1.422578	0.142549	99
Es	-0.834576	-0.960435	-0.853200	99
Es	2.939773	0.826939	-0.303907	99
Es	-0.976199	-1.034595	1.294978	99
Es	3.625260	0.930265	-0.272816	99
Es	-0.996938	1.531705	-0.402505	99
Es	-0.341535	-1.185132	0.236012	99
Es	-1.764864	1.235260	-0.647780	99
Es	2.392699	0.410466	-0.186016	99
Es	-0.218649	-0.948175	-0.462015	99
Es	-0.737469	-2.158793	0.913348	99
Es	-0.018337	1.065233	-0.693885	99
Es	1.751351	0.659316	-0.358945	99
Es	-1.665893	1.499458	-0.431742	99
Es	2.300579	1.023467	-0.124426	99
Es	-0.475705	-1.464441	0.942938	99
Es	-0.041399	1.070545	-0.120159	99
Es	0.278511	-1.380094	-0.798281	99
Es	-0.314265	1.582131	-0.405134	99
Es	0.150577	-1.462736	1.341591	99
Es	2.332609	0.777658	-0.682821	99
Es	0.324643	0.452877	-0.423294	99
41
Properties=species:S:1:pos:R:3:Z:I:1 energy=-302.8807999525214 field_type=dipole dipole="0.000000 0.000000 0.000000" charge=0
C	-0.475708	-1.464465	0.942984	6
C	-0.218688	-0.948255	-0.462066	6
C	0.324502	0.452885	-0.423346	6
N	-0.313928	1.582695	-0.405136	7
N	-1.666158	1.499005	-0.432116	7
C	1.751602	0.659365	-0.358936	6
C	2.939532	0.826915	-0.303916	6
H	-0.860758	-2.488115	0.907564	1
H	-1.207948	-0.841805	1.467004	1
H	0.444162	-1.465655	1.537144	1
H	-1.141388	-0.978135	-1.050006	1
H	0.505902	-1.598895	-0.965026	1
H	-2.045178	2.407475	-0.715256	1
H	-2.027588	1.369484	0.517094	1
H	3.991642	0.987505	-0.255986	1
Es	-1.882903	2.053705	-0.588393	99
Es	-0.976188	-1.034608	1.294895	99
Es	1.070397	0.539669	-0.390036	99
Es	-0.314253	1.582123	-0.405134	99
Es	1.751348	0.659308	-0.358920	99
Es	-0.996932	1.531501	-0.402517	99
Es	3.625142	0.930644	-0.272646	99
Es	-0.475705	-1.464442	0.942939	99
Es	0.059317	-0.229033	-0.441256	99
Es	-0.218648	-0.948177	-0.462018	99
Es	2.296934	0.906758	-0.022360	99
Es	2.315464	0.923368	-0.631528	99
Es	0.324643	0.452876	-0.423297	99
Es	0.150545	-1.462675	1.341648	99
Es	-1.854116	1.422318	0.142516	99
Es	-0.341490	-1.185313	0.235990	99
Es	-0.834507	-0.960445	-0.853130	99
Es	2.413516	0.381814	-0.338719	99
Es	-0.149684	1.921646	-0.411002	99
Es	2.939766	0.826947	-0.303906	99
Es	-0.041043	1.070743	-0.119804	99
Es	-1.764746	1.235701	-0.647502	99
Es	-0.737473	-2.158802	0.913427	99
Es	-1.665921	1.499402	-0.431794	99
Es	-0.018434	1.064984	-0.693573	99
Es	0.278516	-1.379986	-0.798418	99
41
Properties=species:S:1:pos:R:3:Z:I:1 energy=-302.8807999525214 field_type=dipole dipole="0.000000 0.000000 0.000000" charge=0
C	-0.475708	-1.464465	0.942984	6
C	-0.218688	-0.948255	-0.462066	6
C	0.324502	0.452885	-0.423346	6
N	-0.313928	1.582695	-0.405136	7
N	-1.666158	1.499005	-0.432116	7
C	1.751602	0.659365	-0.358936	6
C	2.939532	0.826915	-0.303916	6
H	-0.860758	-2.488115	0.907564	1
H	-1.207948	-0.841805	1.467004	1
H	0.444162	-1.465655	1.537144	1
H	-1.141388	-0.978135	-1.050006	1
H	0.505902	-1.598895	-0.965026	1
H	-2.045178	2.407475	-0.715256	1
H	-2.027588	1.369484	0.517094	1
H	3.991642	0.987505	-0.255986	1
Es	2.309107	1.079491	-0.426372	99
Es	-0.218646	-0.948177	-0.462016	99
Es	2.396170	0.481997	-0.577286	99
Es	0.150513	-1.462700	1.341584	99
Es	2.320527	0.649531	0.011729	99
Es	0.059256	-0.229174	-0.441357	99
Es	-0.314254	1.582130	-0.405134	99
Es	3.625252	0.930053	-0.272280	99
Es	-0.341654	-1.185224	0.236015	99
Es	-1.764364	1.235967	-0.647488	99
Es	1.751347	0.659314	-0.358945	99
Es	-0.475704	-1.464440	0.942936	99
Es	-0.997123	1.531937	-0.402432	99
Es	-0.018310	1.065214	-0.693628	99
Es	-1.883195	2.053802	-0.588390	99
Es	-0.834380	-0.960392	-0.853143	99
Es	-1.665887	1.499462	-0.431736	99
Es	-0.040718	1.071269	-0.119667	99
Es	-0.149702	1.921134	-0.411184	99
Es	-0.737471	-2.158808	0.913469	99
Es	0.324639	0.452885	-0.423301	99
Es	1.070235	0.540717	-0.390937	99
Es	-1.854263	1.421765	0.142368	99
Es	2.939776	0.826956	-0.303895	99
Es	0.278510	-1.380029	-0.798434	99
Es	-0.976117	-1.034650	1.294989	99
41
Properties=species:S:1:pos:R:3:Z:I:1 energy=-302.8807999525214 field_type=dipole dipole="0.000000 0.000000 0.000000" charge=0
C	-0.475708	-1.464465	0.942984	6
C	-0.218688	-0.948255	-0.462066	6
C	0.324502	0.452885	-0.423346	6
N	-0.313928	1.582695	-0.405136	7
N	-1.666158	1.499005	-0.432116	7
C	1.751602	0.659365	-0.358936	6
C	2.939532	0.826915	-0.303916	6
H	-0.860758	-2.488115	0.907564	1
H	-1.207948	-0.841805	1.467004	1
H	0.444162	-1.465655	1.537144	1
H	-1.141388	-0.978135	-1.050006	1
H	0.505902	-1.598895	-0.965026	1
H	-2.045178	2.407475	-0.715256	1
H	-2.027588	1.369484	0.517094	1
H	3.991642	0.987505	-0.255986	1
Es	3.625144	0.930402	-0.272238	99
Es	1.751349	0.659319	-0.358947	99
Es	0.059190	-0.229219	-0.441503	99
Es	2.309783	1.041714	-0.513050	99
Es	2.939758	0.826944	-0.303906	99
Es	-0.040660	1.071231	-0.119759	99
Es	-0.834307	-0.960447	-0.853156	99
Es	-0.475705	-1.464440	0.942937	99
Es	-0.018432	1.065051	-0.693112	99
Es	-1.764511	1.236285	-0.647038	99
Es	-1.883153	2.053768	-0.588608	99
Es	-0.341622	-1.185183	0.236112	99
Es	-0.737467	-2.158856	0.913463	99
Es	2.306401	0.744332	0.021157	99
Es	-0.976093	-1.034732	1.294938	99
Es	2.409684	0.425410	-0.499935	99
Es	0.278507	-1.379943	-0.798447	99
Es	-1.665892	1.499458	-0.431745	99
Es	-1.854347	1.421847	0.142456	99
Es	0.150457	-1.462645	1.341655	99
Es	0.324645	0.452876	-0.423300	99
Es	-0.149690	1.921514	-0.411527	99
Es	-0.996905	1.531180	-0.402764	99
Es	-0.218648	-0.948178	-0.462016	99
Es	1.070315	0.540201	-0.391072	99
Es	-0.314256	1.582140	-0.405135	99
41
Properties=species:S:1:pos:R:3:Z:I:1 energy=-302.8807999525214 field_type=dipole dipole="0.000000 0.000000 0.000000" charge=0
C	-0.475708	-1.464465	0.942984	6
C	-0.218688	-0.948255	-0.462066	6
C	0.324502	0.452885	-0.423346	6
N	-0.313928	1.582695	-0.405136	7
N	-1.666158	1.499005	-0.432116	7
C	1.751602	0.659365	-0.358936	6
C	2.939532	0.826915	-0.303916	6
H	-0.860758	-2.488115	0.907564	1
H	-1.207948	-0.841805	1.467004	1
H	0.444162	-1.465655	1.537144	1
H	-1.141388	-0.978135	-1.050006	1
H	0.505902	-1.598895	-0.965026	1
H	-2.045178	2.407475	-0.715256	1
H	-2.027588	1.369484	0.517094	1
H	3.991642	0.987505	-0.255986	1
Es	2.324873	0.832064	-0.671934	99
Es	1.751343	0.659320	-0.358945	99
Es	3.625111	0.930453	-0.273002	99
Es	-1.764592	1.236235	-0.647328	99
Es	0.324644	0.452880	-0.423300	99
Es	-1.854316	1.421834	0.142488	99
Es	0.150415	-1.462657	1.341653	99
Es	-0.018100	1.065446	-0.693586	99
Es	0.278494	-1.379915	-0.798561	99
Es	-0.475704	-1.464441	0.942937	99
Es	-0.737415	-2.158792	0.913546	99
Es	-0.997158	1.532004	-0.402711	99
Es	2.939774	0.826947	-0.303909	99
Es	-0.149522	1.920834	-0.410771	99
Es	-0.976133	-1.034720	1.294955	99
Es	2.402663	0.392554	-0.239764	99
Es	-0.040933	1.070876	-0.120137	99
Es	1.070255	0.540034	-0.389257	99
Es	2.298439	0.986995	-0.081283	99
Es	0.059159	-0.229270	-0.441340	99
Es	-0.218652	-0.948176	-0.462016	99
Es	-0.314252	1.582128	-0.405134	99
Es	-0.341629	-1.185336	0.236073	99
Es	-1.883101	2.053655	-0.588347	99
Es	-0.834233	-0.960368	-0.853111	99
Es	-1.665883	1.499444	-0.431757	99
41
Properties=species:S:1:pos:R:3:Z:I:1 energy=-302.8807999525214 field_type=dipole dipole="0.000000 0.000000 0.000000" charge=0
C	-0.475708	-1.464465	0.942984	6
C	-0.218688	-0.948255	-0.462066	6
C	0.324502	0.452885	-0.423346	6
N	-0.313928	1.582695	-0.405136	7
N	-1.666158	1.499005	-0.432116	7
C	1.751602	0.659365	-0.358936	6
C	2.939532	0.826915	-0.303916	6
H	-0.860758	-2.488115	0.907564	1
H	-1.207948	-0.841805	1.467004	1
H	0.444162	-1.465655	1.537144	1
H	-1.141388	-0.978135	-1.050006	1
H	0.505902	-1.598895	-0.965026	1
H	-2.045178	2.407475	-0.715256	1
H	-2.027588	1.369484	0.517094	1
H	3.991642	0.987505	-0.255986	1
Es	3.625046	0.930589	-0.272761	99
Es	-0.834245	-0.960359	-0.853184	99
Es	-1.764414	1.236433	-0.646938	99
Es	-0.475704	-1.464440	0.942936	99
Es	2.318249	0.891496	-0.649132	99
Es	-0.997102	1.531986	-0.402729	99
Es	0.059107	-0.229419	-0.441350	99
Es	0.278508	-1.379824	-0.798553	99
Es	-0.017945	1.065578	-0.693726	99
Es	0.150374	-1.462663	1.341645	99
Es	-0.341564	-1.185362	0.236167	99
Es	-0.149379	1.920745	-0.410469	99
Es	-0.737459	-2.158800	0.913616	99
Es	2.939766	0.826946	-0.303907	99
Es	-0.218649	-0.948178	-0.462016	99
Es	2.410716	0.382454	-0.302675	99
Es	-0.976075	-1.034671	1.294934	99
Es	-1.665895	1.499453	-0.431740	99
Es	-1.854429	1.421735	0.142473	99
Es	-0.041135	1.070682	-0.120512	99
Es	1.751346	0.659331	-0.358941	99
Es	0.324642	0.452877	-0.423296	99
Es	-1.883280	2.053646	-0.588676	99
Es	1.070279	0.539782	-0.389551	99
Es	2.297043	0.937864	-0.041018	99
Es	-0.314255	1.582146	-0.405134	99
41
Properties=species:S:1:pos:R:3:Z:I:1 energy=-302.8807999525214 field_type=dipole dipole="0.000000 0.000000 0.000000" charge=0
C	-0.475708	-1.464465	0.942984	6
C	-0.218688	-0.948255	-0.462066	6
C	0.324502	0.452885	-0.423346	6
N	-0.313928	1.582695	-0.405136	7
N	-1.666158	1.499005	-0.432116	7
C	1.751602	0.659365	-0.358936	6
C	2.939532	0.826915	-0.303916	6
H	-0.860758	-2.488115	0.907564	1
H	-1.207948	-0.841805	1.467004	1
H	0.444162	-1.465655	1.537144	1
H	-1.141388	-0.978135	-1.050006	1
H	0.505902	-1.598895	-0.965026	1
H	-2.045178	2.407475	-0.715256	1
H	-2.027588	1.369484	0.517094	1
H	3.991642	0.987505	-0.255986	1
Es	-0.018104	1.065629	-0.693413	99
Es	0.324642	0.452878	-0.423299	99
Es	-0.149572	1.920428	-0.410963	99
Es	-1.883566	2.053926	-0.588742	99
Es	-0.475704	-1.464441	0.942938	99
Es	-1.764338	1.236606	-0.646497	99
Es	-0.834216	-0.960312	-0.853302	99
Es	-0.997138	1.531872	-0.402654	99
Es	1.070184	0.541372	-0.390118	99
Es	-0.737449	-2.158723	0.913540	99
Es	2.349743	0.526310	-0.043521	99
Es	0.278480	-1.379805	-0.798470	99
Es	-0.976072	-1.034757	1.295033	99
Es	-0.341627	-1.185257	0.236148	99
Es	-0.040508	1.071541	-0.120046	99
Es	2.368767	0.593474	-0.655694	99
Es	1.751353	0.659318	-0.358945	99
Es	2.307209	1.090839	-0.293429	99
Es	3.625282	0.929694	-0.272597	99
Es	0.059186	-0.229579	-0.441483	99
Es	-0.314248	1.582129	-0.405134	99
Es	-1.665919	1.499388	-0.431795	99
Es	-1.854313	1.421510	0.142169	99
Es	0.150355	-1.462775	1.341660	99
Es	2.939768	0.826942	-0.303906	99
Es	-0.218650	-0.948179	-0.462017	99
41
Properties=species:S:1:pos:R:3:Z:I:1 energy=-302.8807999525214 field_type=dipole dipole="0.000000 0.000000 0.000000" charge=0
C	-0.475708	-1.464465	0.942984	6
C	-0.218688	-0.948255	-0.462066	6
C	0.324502	0.452885	-0.423346	6
N	-0.313928	1.582695	-0.405136	7
N	-1.666158	1.499005	-0.432116	7
C	1.751602	0.659365	-0.358936	6
C	2.939532	0.826915	-0.303916	6
H	-0.860758	-2.488115	0.907564	1
H	-1.207948	-0.841805	1.467004	1
H	0.444162	-1.465655	1.537144	1
H	-1.141388	-0.978135	-1.050006	1
H	0.505902	-1.598895	-0.965026	1
H	-2.045178	2.407475	-0.715256	1
H	-2.027588	1.369484	0.517094	1
H	3.991642	0.987505	-0.255986	1
Es	-0.475704	-1.464441	0.942938	99
Es	-0.834173	-0.960334	-0.853307	99
Es	2.939768	0.826946	-0.303908	99
Es	-1.763959	1.236980	-0.647634	99
Es	-0.314249	1.582147	-0.405140	99
Es	-0.976135	-1.034829	1.294974	99
Es	0.324642	0.452878	-0.423297	99
Es	0.278484	-1.379748	-0.798479	99
Es	2.387640	0.421375	-0.163680	99
Es	-0.341606	-1.185291	0.236160	99
Es	-1.883358	2.053753	-0.588031	99
Es	-0.018185	1.065524	-0.692952	99
Es	-0.040786	1.071170	-0.120381	99
Es	0.059067	-0.229602	-0.441553	99
Es	-0.997341	1.532468	-0.402628	99
Es	1.751352	0.659314	-0.358938	99
Es	0.150288	-1.462656	1.341709	99
Es	2.336738	0.751308	-0.685046	99
Es	-1.854762	1.420755	0.142346	99
Es	-0.149158	1.920579	-0.410834	99
Es	3.625161	0.930073	-0.273082	99
Es	-0.218650	-0.948180	-0.462019	99
Es	2.301500	1.038450	-0.144400	99
Es	-0.737339	-2.158750	0.913623	99
Es	1.070215	0.540692	-0.389234	99
Es	-1.665904	1.499446	-0.431745	99
41
Properties=species:S:1:pos:R:3:Z:I:1 energy=-302.8807999525214 field_type=dipole dipole="0.000000 0.000000 0.000000" charge=0
C	-0.475708	-1.464465	0.942984	6
C	-0.218688	-0.948255	-0.462066	6
C	0.324502	0.452885	-0.423346	6
N	-0.313928	1.582695	-0.405136	7
N	-1.666158	1.499005	-0.432116	7
C	1.751602	0.659365	-0.358936	6
C	2.939532	0.826915	-0.303916	6
H	-0.860758	-2.488115	0.907564	1
H	-1.207948	-0.841805	1.467004	1
H	0.444162	-1.465655	1.537144	1
H	-1.141388	-0.978135	-1.050006	1
H	0.505902	-1.598895	-0.965026	1
H	-2.045178	2.407475	-0.715256	1
H	-2.027588	1.369484	0.517094	1
H	3.991642	0.987505	-0.255986	1
Es	-1.764131	1.237005	-0.646436	99
Es	0.150285	-1.462746	1.341691	99
Es	1.070221	0.540336	-0.389297	99
Es	1.751353	0.659316	-0.358944	99
Es	-0.997202	1.532121	-0.403080	99
Es	0.059068	-0.229679	-0.441608	99
Es	-1.854603	1.421231	0.142431	99
Es	-0.976060	-1.034809	1.295027	99
Es	-0.040540	1.071299	-0.120087	99
Es	2.299088	1.000789	-0.095325	99
Es	2.327366	0.812932	-0.676816	99
Es	-0.737414	-2.158714	0.913614	99
Es	-0.018038	1.065571	-0.693074	99
Es	-0.475704	-1.464441	0.942938	99
Es	3.625062	0.930347	-0.273069	99
Es	-1.665892	1.499457	-0.431748	99
Es	-0.834136	-0.960295	-0.853298	99
Es	0.278475	-1.379730	-0.798532	99
Es	-0.341604	-1.185274	0.236201	99
Es	2.939767	0.826944	-0.303903	99
Es	-1.883605	2.053667	-0.588850	99
Es	-0.218650	-0.948179	-0.462017	99
Es	2.399518	0.397671	-0.220906	99
Es	0.324642	0.452879	-0.423299	99
Es	-0.314254	1.582133	-0.405134	99
Es	-0.149465	1.920197	-0.411017	99
41
Properties=species:S:1:pos:R:3:Z:I:1 energy=-302.8807999525214 field_type=dipole dipole="0.000000 0.000000 0.000000" charge=0
C	-0.475708	-1.464465	0.942984	6
C	-0.218688	-0.948255	-0.462066	6
C	0.324502	0.452885	-0.423346	6
N	-0.313928	1.582695	-0.405136	7
N	-1.666158	1.499005	-0.432116	7
C	1.751602	0.659365	-0.358936	6
C	2.939532	0.826915	-0.303916	6
H	-0.860758	-2.488115	0.907564	1
H	-1.207948	-0.841805	1.467004	1
H	0.444162	-1.465655	1.537144	1
H	-1.141388	-0.978135	-1.050006	1
H	0.505902	-1.598895	-0.965026	1
H	-2.045178	2.407475	-0.715256	1
H	-2.027588	1.369484	0.517094	1
H	3.991642	0.987505	-0.255986	1
Es	-0.314239	1.582118	-0.405132	99
Es	2.328393	0.805394	-0.678444	99
Es	-0.017915	1.065711	-0.693074	99
Es	1.751357	0.659318	-0.358947	99
Es	2.939766	0.826944	-0.303906	99
Es	-0.834126	-0.960329	-0.853313	99
Es	-0.976021	-1.034815	1.295031	99
Es	-0.218650	-0.948179	-0.462020	99
Es	-0.149740	1.920001	-0.411020	99
Es	2.398206	0.399945	-0.213579	99
Es	-1.665904	1.499454	-0.431750	99
Es	2.299369	1.005966	-0.101057	99
Es	-0.737438	-2.158690	0.913658	99
Es	-1.854618	1.421442	0.142531	99
Es	0.324644	0.452877	-0.423303	99
Es	3.625044	0.930309	-0.273097	99
Es	-0.040303	1.071534	-0.120007	99
Es	-1.883725	2.053558	-0.589374	99
Es	0.150270	-1.462765	1.341691	99
Es	-0.475704	-1.464441	0.942938	99
Es	-1.763977	1.236948	-0.645944	99
Es	0.059039	-0.229729	-0.441724	99
Es	1.070254	0.540448	-0.389276	99
Es	-0.341592	-1.185263	0.236231	99
Es	0.278463	-1.379687	-0.798517	99
Es	-0.997309	1.531959	-0.403135	99
41
Properties=species:S:1:pos:R:3:Z:I:1 energy=-302.8807999525214 field_type=dipole dipole="0.000000 0.000000 0.000000" charge=0
C	-0.475708	-1.464465	0.942984	6
C	-0.218688	-0.948255	-0.462066	6
C	0.324502	0.452885	-0.423346	6
N	-0.313928	1.582695	-0.405136	7
N	-1.666158	1.499005	-0.432116	7
C	1.751602	0.659365	-0.358936	6
C	2.939532	0.826915	-0.303916	6
H	-0.860758	-2.488115	0.907564	1
H	-1.207948	-0.841805	1.467004	1
H	0.444162	-1.465655	1.537144	1
H	-1.141388	-0.978135	-1.050006	1
H	0.505902	-1.598895	-0.965026	1
H	-2.045178	2.407475	-0.715256	1
H	-2.027588	1.369484	0.517094	1
H	3.991642	0.987505	-0.255986	1
Es	0.278483	-1.379679	-0.798545	99
Es	2.939765	0.826934	-0.303909	99
Es	-1.763957	1.237240	-0.646024	99
Es	-0.218651	-0.948181	-0.462018	99
Es	2.308930	1.087372	-0.392324	99
Es	2.326987	0.616130	0.002401	99
Es	-0.341571	-1.185244	0.236247	99
Es	-0.017950	1.065746	-0.692854	99
Es	-0.737450	-2.158653	0.913643	99
Es	-0.040249	1.071778	-0.119977	99
Es	0.150210	-1.462835	1.341720	99
Es	-0.314255	1.582133	-0.405134	99
Es	-1.883823	2.053623	-0.589133	99
Es	-0.997248	1.532175	-0.403187	99
Es	1.070259	0.541392	-0.391021	99
Es	-1.854671	1.421094	0.142427	99
Es	3.625203	0.929685	-0.272239	99
Es	2.389744	0.507216	-0.602134	99
Es	-0.834079	-0.960280	-0.853337	99
Es	1.751355	0.659321	-0.358948	99
Es	-0.475704	-1.464442	0.942937	99
Es	0.059016	-0.229874	-0.441798	99
Es	-0.976017	-1.034813	1.295045	99
Es	0.324641	0.452878	-0.423300	99
Es	-0.149531	1.919871	-0.411322	99
Es	-1.665892	1.499441	-0.431755	99
41
Properties=species:S:1:pos:R:3:Z:I:1 energy=-302.8807999525214 field_type=dipole dipole="0.000000 0.000000 0.000000" charge=0
C	-0.475708	-1.464465	0.942984	6
C	-0.218688	-0.948255	-0.462066	6
C	0.324502	0.452885	-0.423346	6
N	-0.313928	1.582695	-0.405136	7
N	-1.666158	1.499005	-0.432116	7
C	1.751602	0.659365	-0.358936	6
C	2.939532	0.826915	-0.303916	6
H	-0.860758	-2.488115	0.907564	1
H	-1.207948	-0.841805	1.467004	1
H	0.444162	-1.465655	1.537144	1
H	-1.141388	-0.978135	-1.050006	1
H	0.505902	-1.598895	-0.965026	1
H	-2.045178	2.407475	-0.715256	1
H	-2.027588	1.369484	0.517094	1
H	3.991642	0.987505	-0.255986	1
Es	-0.218651	-0.948182	-0.462020	99
Es	1.751360	0.659309	-0.358960	99
Es	-1.763945	1.237338	-0.645990	99
Es	2.409932	0.424329	-0.498337	99
Es	-0.976156	-1.034913	1.295058	99
Es	2.309881	1.040249	-0.515399	99
Es	3.624973	0.930324	-0.272039	99
Es	-0.149506	1.919718	-0.410903	99
Es	0.058960	-0.229922	-0.441761	99
Es	-1.665915	1.499438	-0.431755	99
Es	1.070281	0.540580	-0.391185	99
Es	0.150145	-1.462635	1.341686	99
Es	-0.314262	1.582137	-0.405134	99
Es	0.278514	-1.379696	-0.798539	99
Es	-0.997268	1.532257	-0.403249	99
Es	-0.040364	1.071565	-0.120268	99
Es	-0.737213	-2.158741	0.913711	99
Es	0.324645	0.452882	-0.423305	99
Es	-0.017792	1.065742	-0.693049	99
Es	-0.475704	-1.464442	0.942939	99
Es	-1.883857	2.053611	-0.589097	99
Es	-0.834025	-0.960238	-0.853366	99
Es	2.306100	0.746601	0.021685	99
Es	-1.854679	1.421017	0.142437	99
Es	-0.341675	-1.185248	0.236206	99
Es	2.939765	0.826945	-0.303904	99
41
Properties=species:S:1:pos:R:3:Z:I:1 energy=-302.8807999525214 field_type=dipole dipole="0.000000 0.000000 0.000000" charge=0
C	-0.475708	-1.464465	0.942984	6
C	-0.218688	-0.948255	-0.462066	6
C	0.324502	0.452885	-0.423346	6
N	-0.313928	1.582695	-0.405136	7
N	-1.666158	1.499005	-0.432116	7
C	1.751602	0.659365	-0.358936	6
C	2.939532	0.826915	-0.303916	6
H	-0.860758	-2.488115	0.907564	1
H	-1.207948	-0.841805	1.467004	1
H	0.444162	-1.465655	1.537144	1
H	-1.141388	-0.978135	-1.050006	1
H	0.505902	-1.598895	-0.965026	1
H	-2.045178	2.407475	-0.715256	1
H	-2.027588	1.369484	0.517094	1
H	3.991642	0.987505	-0.255986	1
Es	-0.997317	1.532474	-0.403422	99
Es	-0.040360	1.071454	-0.120270	99
Es	2.410973	0.382095	-0.304428	99
Es	1.070236	0.540092	-0.389836	99
Es	-1.883987	2.053628	-0.589248	99
Es	-0.218650	-0.948180	-0.462016	99
Es	2.939771	0.826936	-0.303905	99
Es	2.297047	0.936038	-0.039742	99
Es	-0.737376	-2.158682	0.913728	99
Es	2.318084	0.893387	-0.648565	99
Es	-1.665903	1.499447	-0.431748	99
Es	-0.475704	-1.464441	0.942939	99
Es	0.278471	-1.379612	-0.798591	99
Es	-0.341652	-1.185271	0.236282	99
Es	0.324641	0.452881	-0.423300	99
Es	1.751357	0.659318	-0.358938	99
Es	-0.833987	-0.960232	-0.853367	99
Es	-1.854836	1.420737	0.142440	99
Es	0.150161	-1.462747	1.341714	99
Es	-0.314252	1.582132	-0.405134	99
Es	-0.149275	1.919477	-0.411061	99
Es	-0.976010	-1.034896	1.295055	99
Es	0.058933	-0.229982	-0.441821	99
Es	-0.017931	1.065620	-0.692716	99
Es	3.624867	0.930641	-0.272878	99
Es	-1.763756	1.237714	-0.645709	99
