48
Properties=species:S:1:pos:R:3:Z:I:1 energy=-289.27998837056515 field_type=dipole dipole="0.000000 0.000000 0.000000" charge=0
C	-0.758883	-1.851691	-1.711481	6
C	-0.665973	-1.248271	-0.316041	6
N	0.226557	-0.086011	-0.316101	7
C	-0.467263	1.125319	-0.831692	6
C	0.202467	1.916078	0.306839	6
C	0.253667	0.551009	1.033539	6
C	1.529647	0.238839	1.790558	6
H	-1.381393	-2.752151	-1.690161	1
H	0.230287	-2.136721	-2.085792	1
H	-1.207213	-1.151031	-2.423622	1
H	-0.254343	-2.010641	0.356449	1
H	-1.673503	-1.012031	0.049389	1
H	-1.563083	1.116039	-0.771251	1
H	-0.172283	1.425169	-1.841491	1
H	1.179297	2.337298	0.040949	1
H	-0.408623	2.690199	0.777389	1
H	-0.639993	0.373479	1.649539	1
H	2.422987	0.411079	1.180308	1
H	1.540347	-0.805301	2.120358	1
H	1.607287	0.869349	2.682318	1
Es	0.253691	0.550978	1.033419	99
Es	-0.717094	-1.548440	-1.022366	99
Es	-1.222804	1.107122	-0.779188	99
Es	-0.382777	-1.769993	0.150964	99
Es	-1.366134	-1.073805	-0.062659	99
Es	0.549978	-0.135721	-0.453038	99
Es	-0.467194	1.125230	-0.831619	99
Es	-0.216890	2.452144	0.631569	99
Es	1.576304	0.671470	2.400530	99
Es	-0.114374	0.403362	-0.590384	99
Es	-0.665900	-1.248202	-0.316080	99
Es	0.226919	0.133840	0.297592	99
Es	-0.273007	1.328495	-1.532080	99
Es	1.529631	0.238837	1.790578	99
Es	-1.187781	-2.465676	-1.693405	99
Es	0.896665	0.390385	1.425251	99
Es	-0.159108	1.607133	-0.304388	99
Es	0.870716	2.193463	0.126057	99
Es	-0.086670	-2.044991	-1.963072	99
Es	-0.758898	-1.851685	-1.711464	99
Es	0.202437	1.916034	0.306826	99
Es	1.532269	-0.475109	2.014394	99
Es	2.131803	0.360404	1.373002	99
Es	-1.065873	-1.368408	-2.193605	99
Es	-0.179463	-0.587220	-0.311739	99
Es	0.225990	-0.085892	-0.315864	99
Es	-0.367309	0.423647	1.450685	99
Es	0.253134	1.287293	0.751820	99
48
Properties=species:S:1:pos:R:3:Z:I:1 energy=-289.27998837056515 field_type=dipole dipole="0.000000 0.000000 0.000000" charge=0
C	-0.758883	-1.851691	-1.711481	6
C	-0.665973	-1.248271	-0.316041	6
N	0.226557	-0.086011	-0.316101	7
C	-0.467263	1.125319	-0.831692	6
C	0.202467	1.916078	0.306839	6
C	0.253667	0.551009	1.033539	6
C	1.529647	0.238839	1.790558	6
H	-1.381393	-2.752151	-1.690161	1
H	0.230287	-2.136721	-2.085792	1
H	-1.207213	-1.151031	-2.423622	1
H	-0.254343	-2.010641	0.356449	1
H	-1.673503	-1.012031	0.049389	1
H	-1.563083	1.116039	-0.771251	1
H	-0.172283	1.425169	-1.841491	1
H	1.179297	2.337298	0.040949	1
H	-0.408623	2.690199	0.777389	1
H	-0.639993	0.373479	1.649539	1
H	2.422987	0.411079	1.180308	1
H	1.540347	-0.805301	2.120358	1
H	1.607287	0.869349	2.682318	1
Es	-0.273061	1.328481	-1.532046	99
Es	-0.179686	-0.586686	-0.311594	99
Es	-0.367296	0.423847	1.450597	99
Es	-0.086634	-2.044968	-1.963116	99
Es	-0.216750	2.452190	0.631584	99
Es	1.576330	0.671487	2.400515	99
Es	-1.365940	-1.073761	-0.062615	99
Es	-0.717321	-1.548545	-1.022363	99
Es	0.226349	0.133711	0.297595	99
Es	-0.665903	-1.248200	-0.316081	99
Es	0.896575	0.390291	1.425359	99
Es	0.202437	1.916034	0.306825	99
Es	1.532355	-0.475116	2.014404	99
Es	-0.758897	-1.851688	-1.711467	99
Es	-0.382877	-1.769991	0.151011	99
Es	1.529631	0.238837	1.790578	99
Es	0.870581	2.193415	0.126027	99
Es	-0.467193	1.125232	-0.831618	99
Es	0.253690	0.550979	1.033418	99
Es	0.226008	-0.085901	-0.315871	99
Es	2.131743	0.360425	1.373022	99
Es	0.550130	-0.136608	-0.452297	99
Es	-1.222711	1.107153	-0.779239	99
Es	-1.065941	-1.368425	-2.193575	99
Es	0.253290	1.287214	0.751832	99
Es	-1.187676	-2.465607	-1.693512	99
Es	-0.159166	1.607269	-0.304391	99
Es	-0.113808	0.403626	-0.591247	99
48
Properties=species:S:1:pos:R:3:Z:I:1 energy=-289.27998837056515 field_type=dipole dipole="0.000000 0.000000 0.000000" charge=0
C	-0.758883	-1.851691	-1.711481	6
C	-0.665973	-1.248271	-0.316041	6
N	0.226557	-0.086011	-0.316101	7
C	-0.467263	1.125319	-0.831692	6
C	0.202467	1.916078	0.306839	6
C	0.253667	0.551009	1.033539	6
C	1.529647	0.238839	1.790558	6
H	-1.381393	-2.752151	-1.690161	1
H	0.230287	-2.136721	-2.085792	1
H	-1.207213	-1.151031	-2.423622	1
H	-0.254343	-2.010641	0.356449	1
H	-1.673503	-1.012031	0.049389	1
H	-1.563083	1.116039	-0.771251	1
H	-0.172283	1.425169	-1.841491	1
H	1.179297	2.337298	0.040949	1
H	-0.408623	2.690199	0.777389	1
H	-0.639993	0.373479	1.649539	1
H	2.422987	0.411079	1.180308	1
H	1.540347	-0.805301	2.120358	1
H	1.607287	0.869349	2.682318	1
Es	-0.114217	0.403570	-0.591021	99
Es	0.896620	0.390508	1.425318	99
Es	-0.086684	-2.044875	-1.963145	99
Es	-0.216528	2.452033	0.631562	99
Es	-0.382858	-1.769961	0.151016	99
Es	-0.273107	1.328489	-1.532020	99
Es	-0.467193	1.125231	-0.831619	99
Es	0.226856	0.133545	0.297760	99
Es	-0.665902	-1.248201	-0.316081	99
Es	-0.159441	1.607409	-0.304386	99
Es	-1.365941	-1.073781	-0.062599	99
Es	0.253158	1.287228	0.751970	99
Es	0.202438	1.916035	0.306825	99
Es	2.131776	0.360302	1.373022	99
Es	0.253691	0.550979	1.033421	99
Es	1.529631	0.238837	1.790578	99
Es	-0.717342	-1.548556	-1.022260	99
Es	1.532237	-0.475088	2.014414	99
Es	-1.065966	-1.368490	-2.193573	99
Es	-0.758894	-1.851686	-1.711463	99
Es	0.870552	2.193521	0.125972	99
Es	-1.222652	1.107109	-0.779286	99
Es	-1.187587	-2.465659	-1.693582	99
Es	-0.367182	0.423737	1.450619	99
Es	1.576416	0.671475	2.400514	99
Es	-0.179198	-0.587145	-0.311845	99
Es	0.549583	-0.135977	-0.452513	99
Es	0.225994	-0.085894	-0.315864	99
48
Properties=species:S:1:pos:R:3:Z:I:1 energy=-289.27998837056515 field_type=dipole dipole="0.000000 0.000000 0.000000" charge=0
C	-0.758883	-1.851691	-1.711481	6
C	-0.665973	-1.248271	-0.316041	6
N	0.226557	-0.086011	-0.316101	7
C	-0.467263	1.125319	-0.831692	6
C	0.202467	1.916078	0.306839	6
C	0.253667	0.551009	1.033539	6
C	1.529647	0.238839	1.790558	6
H	-1.381393	-2.752151	-1.690161	1
H	0.230287	-2.136721	-2.085792	1
H	-1.207213	-1.151031	-2.423622	1
H	-0.254343	-2.010641	0.356449	1
H	-1.673503	-1.012031	0.049389	1
H	-1.563083	1.116039	-0.771251	1
H	-0.172283	1.425169	-1.841491	1
H	1.179297	2.337298	0.040949	1
H	-0.408623	2.690199	0.777389	1
H	-0.639993	0.373479	1.649539	1
H	2.422987	0.411079	1.180308	1
H	1.540347	-0.805301	2.120358	1
H	1.607287	0.869349	2.682318	1
Es	0.253692	0.550980	1.033421	99
Es	-0.665901	-1.248201	-0.316081	99
Es	-0.273156	1.328388	-1.531958	99
Es	-1.187658	-2.465638	-1.693556	99
Es	0.549003	-0.136136	-0.452413	99
Es	-0.179166	-0.587139	-0.311709	99
Es	2.131629	0.360448	1.373065	99
Es	-0.086746	-2.044947	-1.963155	99
Es	1.532474	-0.475148	2.014406	99
Es	-0.216572	2.452142	0.631508	99
Es	0.202437	1.916032	0.306826	99
Es	-0.367206	0.423781	1.450583	99
Es	-0.717303	-1.548548	-1.022309	99
Es	-0.467193	1.125232	-0.831619	99
Es	-0.382930	-1.769925	0.151039	99
Es	-1.065901	-1.368497	-2.193596	99
Es	-1.222629	1.107122	-0.779346	99
Es	-0.159310	1.607453	-0.304461	99
Es	0.896453	0.390345	1.425335	99
Es	0.225997	-0.085899	-0.315865	99
Es	-1.365863	-1.073799	-0.062604	99
Es	1.529631	0.238838	1.790578	99
Es	0.227302	0.133621	0.297865	99
Es	-0.114083	0.403626	-0.591320	99
Es	-0.758899	-1.851685	-1.711463	99
Es	0.253305	1.287292	0.752050	99
Es	1.576409	0.671500	2.400497	99
Es	0.870443	2.193458	0.126019	99
48
Properties=species:S:1:pos:R:3:Z:I:1 energy=-289.27998837056515 field_type=dipole dipole="0.000000 0.000000 0.000000" charge=0
C	-0.758883	-1.851691	-1.711481	6
C	-0.665973	-1.248271	-0.316041	6
N	0.226557	-0.086011	-0.316101	7
C	-0.467263	1.125319	-0.831692	6
C	0.202467	1.916078	0.306839	6
C	0.253667	0.551009	1.033539	6
C	1.529647	0.238839	1.790558	6
H	-1.381393	-2.752151	-1.690161	1
H	0.230287	-2.136721	-2.085792	1
H	-1.207213	-1.151031	-2.423622	1
H	-0.254343	-2.010641	0.356449	1
H	-1.673503	-1.012031	0.049389	1
H	-1.563083	1.116039	-0.771251	1
H	-0.172283	1.425169	-1.841491	1
H	1.179297	2.337298	0.040949	1
H	-0.408623	2.690199	0.777389	1
H	-0.639993	0.373479	1.649539	1
H	2.422987	0.411079	1.180308	1
H	1.540347	-0.805301	2.120358	1
H	1.607287	0.869349	2.682318	1
Es	-0.367118	0.423780	1.450543	99
Es	0.870413	2.193465	0.126103	99
Es	-1.065786	-1.368479	-2.193478	99
Es	1.529632	0.238837	1.790579	99
Es	-1.365810	-1.073824	-0.062611	99
Es	-0.382919	-1.769905	0.151076	99
Es	1.576383	0.671488	2.400449	99
Es	0.253193	1.287247	0.752181	99
Es	0.227273	0.133562	0.297902	99
Es	-1.187745	-2.465645	-1.693721	99
Es	2.131715	0.360401	1.373071	99
Es	-0.179045	-0.587201	-0.311868	99
Es	-0.114111	0.403486	-0.591360	99
Es	-0.467192	1.125231	-0.831618	99
Es	-0.273275	1.328385	-1.531882	99
Es	0.226002	-0.085889	-0.315868	99
Es	0.896471	0.390417	1.425365	99
Es	-0.717293	-1.548610	-1.022211	99
Es	0.253692	0.550981	1.033418	99
Es	1.532379	-0.475136	2.014462	99
Es	-0.758898	-1.851685	-1.711464	99
Es	-0.216489	2.452107	0.631467	99
Es	-0.086808	-2.044921	-1.963226	99
Es	-1.222561	1.107106	-0.779375	99
Es	-0.665903	-1.248202	-0.316081	99
Es	0.548925	-0.135978	-0.452406	99
Es	0.202436	1.916035	0.306825	99
Es	-0.159301	1.607644	-0.304534	99
48
Properties=species:S:1:pos:R:3:Z:I:1 energy=-289.27998837056515 field_type=dipole dipole="0.000000 0.000000 0.000000" charge=0
C	-0.758883	-1.851691	-1.711481	6
C	-0.665973	-1.248271	-0.316041	6
N	0.226557	-0.086011	-0.316101	7
C	-0.467263	1.125319	-0.831692	6
C	0.202467	1.916078	0.306839	6
C	0.253667	0.551009	1.033539	6
C	1.529647	0.238839	1.790558	6
H	-1.381393	-2.752151	-1.690161	1
H	0.230287	-2.136721	-2.085792	1
H	-1.207213	-1.151031	-2.423622	1
H	-0.254343	-2.010641	0.356449	1
H	-1.673503	-1.012031	0.049389	1
H	-1.563083	1.116039	-0.771251	1
H	-0.172283	1.425169	-1.841491	1
H	1.179297	2.337298	0.040949	1
H	-0.408623	2.690199	0.777389	1
H	-0.639993	0.373479	1.649539	1
H	2.422987	0.411079	1.180308	1
H	1.540347	-0.805301	2.120358	1
H	1.607287	0.869349	2.682318	1
Es	-1.222468	1.107066	-0.779427	99
Es	-0.086814	-2.044944	-1.963194	99
Es	-0.216360	2.452101	0.631491	99
Es	-0.367031	0.423751	1.450471	99
Es	0.226042	-0.085891	-0.315883	99
Es	-1.365758	-1.073832	-0.062559	99
Es	0.202436	1.916032	0.306825	99
Es	-0.159472	1.607733	-0.304645	99
Es	-0.758899	-1.851686	-1.711464	99
Es	0.253691	0.550980	1.033418	99
Es	0.253258	1.287388	0.752255	99
Es	0.548052	-0.135643	-0.452306	99
Es	-0.665903	-1.248203	-0.316080	99
Es	-0.467193	1.125231	-0.831619	99
Es	-1.065881	-1.368548	-2.193603	99
Es	-1.187650	-2.465641	-1.693579	99
Es	-0.273309	1.328415	-1.531872	99
Es	0.870288	2.193448	0.126168	99
Es	2.131710	0.360384	1.373079	99
Es	1.529633	0.238837	1.790581	99
Es	0.896377	0.390297	1.425373	99
Es	-0.178880	-0.587619	-0.312064	99
Es	1.532403	-0.475082	2.014409	99
Es	1.576378	0.671495	2.400517	99
Es	-0.717332	-1.548551	-1.022316	99
Es	-0.382961	-1.769872	0.151047	99
Es	0.227829	0.133563	0.298128	99
Es	-0.113930	0.403487	-0.591415	99
48
Properties=species:S:1:pos:R:3:Z:I:1 energy=-289.27998837056515 field_type=dipole dipole="0.000000 0.000000 0.000000" charge=0
C	-0.758883	-1.851691	-1.711481	6
C	-0.665973	-1.248271	-0.316041	6
N	0.226557	-0.086011	-0.316101	7
C	-0.467263	1.125319	-0.831692	6
C	0.202467	1.916078	0.306839	6
C	0.253667	0.551009	1.033539	6
C	1.529647	0.238839	1.790558	6
H	-1.381393	-2.752151	-1.690161	1
H	0.230287	-2.136721	-2.085792	1
H	-1.207213	-1.151031	-2.423622	1
H	-0.254343	-2.010641	0.356449	1
H	-1.673503	-1.012031	0.049389	1
H	-1.563083	1.116039	-0.771251	1
H	-0.172283	1.425169	-1.841491	1
H	1.179297	2.337298	0.040949	1
H	-0.408623	2.690199	0.777389	1
H	-0.639993	0.373479	1.649539	1
H	2.422987	0.411079	1.180308	1
H	1.540347	-0.805301	2.120358	1
H	1.607287	0.869349	2.682318	1
Es	0.253692	0.550981	1.033420	99
Es	-0.114027	0.403517	-0.591690	99
Es	1.576475	0.671519	2.400453	99
Es	-0.467193	1.125232	-0.831619	99
Es	-1.065877	-1.368642	-2.193622	99
Es	-1.222412	1.107073	-0.779477	99
Es	-1.187614	-2.465635	-1.693598	99
Es	1.529631	0.238838	1.790579	99
Es	0.548253	-0.135886	-0.452161	99
Es	-0.382983	-1.769846	0.151046	99
Es	-1.365758	-1.073861	-0.062574	99
Es	0.896280	0.390292	1.425415	99
Es	-0.273387	1.328329	-1.531815	99
Es	-0.366975	0.423794	1.450439	99
Es	-0.086806	-2.044930	-1.963198	99
Es	0.227565	0.133458	0.298107	99
Es	-0.216296	2.452068	0.631422	99
Es	0.202435	1.916033	0.306825	99
Es	-0.758899	-1.851685	-1.711465	99
Es	0.226015	-0.085892	-0.315866	99
Es	-0.159444	1.607886	-0.304658	99
Es	-0.665903	-1.248203	-0.316080	99
Es	0.253261	1.287405	0.752354	99
Es	-0.178757	-0.587377	-0.311938	99
Es	1.532414	-0.475055	2.014486	99
Es	0.870243	2.193475	0.126184	99
Es	-0.717354	-1.548500	-1.022287	99
Es	2.131681	0.360308	1.373053	99
48
Properties=species:S:1:pos:R:3:Z:I:1 energy=-289.27998837056515 field_type=dipole dipole="0.000000 0.000000 0.000000" charge=0
C	-0.758883	-1.851691	-1.711481	6
C	-0.665973	-1.248271	-0.316041	6
N	0.226557	-0.086011	-0.316101	7
C	-0.467263	1.125319	-0.831692	6
C	0.202467	1.916078	0.306839	6
C	0.253667	0.551009	1.033539	6
C	1.529647	0.238839	1.790558	6
H	-1.381393	-2.752151	-1.690161	1
H	0.230287	-2.136721	-2.085792	1
H	-1.207213	-1.151031	-2.423622	1
H	-0.254343	-2.010641	0.356449	1
H	-1.673503	-1.012031	0.049389	1
H	-1.563083	1.116039	-0.771251	1
H	-0.172283	1.425169	-1.841491	1
H	1.179297	2.337298	0.040949	1
H	-0.408623	2.690199	0.777389	1
H	-0.639993	0.373479	1.649539	1
H	2.422987	0.411079	1.180308	1
H	1.540347	-0.805301	2.120358	1
H	1.607287	0.869349	2.682318	1
Es	-0.467192	1.125232	-0.831619	99
Es	2.131701	0.360378	1.373078	99
Es	0.202436	1.916033	0.306825	99
Es	-0.216222	2.452038	0.631394	99
Es	0.253693	0.550982	1.033421	99
Es	-1.365700	-1.073876	-0.062574	99
Es	-0.383027	-1.769854	0.151049	99
Es	-1.065878	-1.368579	-2.193601	99
Es	0.548334	-0.135955	-0.452172	99
Es	-0.159429	1.608076	-0.304719	99
Es	-1.222361	1.107063	-0.779544	99
Es	1.576376	0.671499	2.400579	99
Es	-0.178775	-0.587227	-0.311928	99
Es	-0.717382	-1.548563	-1.022333	99
Es	0.226059	-0.085906	-0.315891	99
Es	-0.273483	1.328225	-1.531733	99
Es	1.529631	0.238837	1.790579	99
Es	0.870191	2.193490	0.126220	99
Es	-0.665903	-1.248203	-0.316081	99
Es	-0.758899	-1.851686	-1.711464	99
Es	-0.366903	0.423776	1.450402	99
Es	-0.086792	-2.044956	-1.963201	99
Es	1.532436	-0.475039	2.014362	99
Es	-0.114049	0.403513	-0.591675	99
Es	0.896299	0.390217	1.425412	99
Es	-1.187646	-2.465614	-1.693593	99
Es	0.227500	0.133347	0.298093	99
Es	0.253245	1.287445	0.752450	99
48
Properties=species:S:1:pos:R:3:Z:I:1 energy=-289.27998837056515 field_type=dipole dipole="0.000000 0.000000 0.000000" charge=0
C	-0.758883	-1.851691	-1.711481	6
C	-0.665973	-1.248271	-0.316041	6
N	0.226557	-0.086011	-0.316101	7
C	-0.467263	1.125319	-0.831692	6
C	0.202467	1.916078	0.306839	6
C	0.253667	0.551009	1.033539	6
C	1.529647	0.238839	1.790558	6
H	-1.381393	-2.752151	-1.690161	1
H	0.230287	-2.136721	-2.085792	1
H	-1.207213	-1.151031	-2.423622	1
H	-0.254343	-2.010641	0.356449	1
H	-1.673503	-1.012031	0.049389	1
H	-1.563083	1.116039	-0.771251	1
H	-0.172283	1.425169	-1.841491	1
H	1.179297	2.337298	0.040949	1
H	-0.408623	2.690199	0.777389	1
H	-0.639993	0.373479	1.649539	1
H	2.422987	0.411079	1.180308	1
H	1.540347	-0.805301	2.120358	1
H	1.607287	0.869349	2.682318	1
Es	-0.467190	1.125232	-0.831614	99
Es	-0.086871	-2.044977	-1.963213	99
Es	-0.383067	-1.769793	0.151068	99
Es	-0.216156	2.452024	0.631354	99
Es	-0.665902	-1.248207	-0.316082	99
Es	1.576405	0.671428	2.400485	99
Es	0.870130	2.193489	0.126252	99
Es	0.253692	0.550982	1.033417	99
Es	0.228032	0.133315	0.298251	99
Es	0.547684	-0.135428	-0.452324	99
Es	-0.159498	1.608116	-0.304755	99
Es	-0.178319	-0.587701	-0.312039	99
Es	1.529631	0.238840	1.790578	99
Es	-0.717394	-1.548600	-1.022266	99
Es	-0.114386	0.403384	-0.591582	99
Es	-1.187582	-2.465570	-1.693663	99
Es	0.202446	1.916042	0.306823	99
Es	0.253229	1.287500	0.752549	99
Es	-1.365643	-1.073865	-0.062551	99
Es	0.896171	0.390239	1.425429	99
Es	-0.758901	-1.851688	-1.711463	99
Es	2.131714	0.360408	1.373138	99
Es	1.532480	-0.475054	2.014418	99
Es	-0.366824	0.423772	1.450349	99
Es	-1.222288	1.107072	-0.779555	99
Es	-0.273514	1.328258	-1.531739	99
Es	-1.065867	-1.368619	-2.193647	99
Es	0.226045	-0.085901	-0.315881	99
48
Properties=species:S:1:pos:R:3:Z:I:1 energy=-289.27998837056515 field_type=dipole dipole="0.000000 0.000000 0.000000" charge=0
C	-0.758883	-1.851691	-1.711481	6
C	-0.665973	-1.248271	-0.316041	6
N	0.226557	-0.086011	-0.316101	7
C	-0.467263	1.125319	-0.831692	6
C	0.202467	1.916078	0.306839	6
C	0.253667	0.551009	1.033539	6
C	1.529647	0.238839	1.790558	6
H	-1.381393	-2.752151	-1.690161	1
H	0.230287	-2.136721	-2.085792	1
H	-1.207213	-1.151031	-2.423622	1
H	-0.254343	-2.010641	0.356449	1
H	-1.673503	-1.012031	0.049389	1
H	-1.563083	1.116039	-0.771251	1
H	-0.172283	1.425169	-1.841491	1
H	1.179297	2.337298	0.040949	1
H	-0.408623	2.690199	0.777389	1
H	-0.639993	0.373479	1.649539	1
H	2.422987	0.411079	1.180308	1
H	1.540347	-0.805301	2.120358	1
H	1.607287	0.869349	2.682318	1
Es	-0.717453	-1.548613	-1.022259	99
Es	-0.113888	0.403524	-0.592130	99
Es	2.131801	0.360311	1.373141	99
Es	-1.222223	1.107122	-0.779563	99
Es	-0.273610	1.328216	-1.531677	99
Es	-0.159434	1.608227	-0.304840	99
Es	-0.758899	-1.851686	-1.711464	99
Es	-0.178442	-0.587556	-0.312107	99
Es	-0.086888	-2.044967	-1.963237	99
Es	-1.187610	-2.465580	-1.693702	99
Es	-0.467190	1.125232	-0.831617	99
Es	0.227996	0.133319	0.298299	99
Es	-1.365555	-1.073838	-0.062571	99
Es	-0.665904	-1.248205	-0.316080	99
Es	-0.366750	0.423759	1.450317	99
Es	0.547332	-0.135801	-0.451841	99
Es	0.202435	1.916032	0.306826	99
Es	0.896242	0.390277	1.425411	99
Es	0.253692	0.550982	1.033419	99
Es	0.226064	-0.085919	-0.315891	99
Es	0.870100	2.193500	0.126317	99
Es	1.532349	-0.475015	2.014444	99
Es	1.576380	0.671452	2.400492	99
Es	-0.383141	-1.769777	0.151116	99
Es	-0.216103	2.452009	0.631288	99
Es	1.529633	0.238837	1.790579	99
Es	0.253149	1.287512	0.752688	99
Es	-1.065821	-1.368660	-2.193621	99
