39
Properties=species:S:1:pos:R:3:Z:I:1 energy=-285.7870335836186 field_type=dipole dipole="0.000000 0.000000 0.000000" charge=0
C	-0.582947	-2.441691	0.196282	6
C	-1.022048	-1.184381	0.048092	6
N	-0.247828	-0.023391	-0.013558	7
C	-0.750418	1.256799	-0.167988	6
C	0.288412	2.160309	-0.188158	6
C	1.480652	1.423259	-0.041698	6
C	1.128062	0.095509	0.062762	6
H	-1.287858	-3.267071	0.230272	1
H	0.468982	-2.690631	0.287132	1
H	-2.091738	-1.012181	-0.036548	1
H	-1.817028	1.416569	-0.251238	1
H	0.192402	3.232889	-0.296818	1
H	2.490162	1.812549	-0.014578	1
H	1.751193	-0.778541	0.186042	1
Es	-0.750445	1.256569	-0.167968	99
Es	1.127860	0.095388	0.062757	99
Es	0.288408	2.160334	-0.188162	99
Es	2.161668	1.689757	-0.024073	99
Es	-1.021977	-1.184106	0.048078	99
Es	-0.582920	-2.441734	0.196290	99
Es	-0.247825	-0.023411	-0.013723	99
Es	-0.210906	1.745070	0.135346	99
Es	-0.571602	-0.530655	-0.000953	99
Es	0.917119	1.843817	-0.118831	99
Es	-0.497886	0.499814	-0.124572	99
Es	0.128887	-2.608091	0.257546	99
Es	0.340666	-0.022655	-0.021509	99
Es	1.480682	1.423275	-0.041707	99
Es	-1.056896	-2.995865	0.218913	99
Es	0.226979	2.885636	-0.261528	99
Es	1.309753	0.755568	-0.301832	99
Es	-0.768397	-1.863108	-0.200941	99
Es	1.541541	-0.500163	0.145788	99
Es	-1.473868	1.354415	-0.223690	99
Es	1.268170	0.817258	0.318459	99
Es	-0.809818	-1.800949	0.451022	99
Es	-1.740071	-1.050562	-0.010606	99
Es	-0.174790	1.686411	-0.485686	99
Es	-0.202566	0.077030	0.082471	99
39
Properties=species:S:1:pos:R:3:Z:I:1 energy=-285.7870335836186 field_type=dipole dipole="0.000000 0.000000 0.000000" charge=0
C	-0.582947	-2.441691	0.196282	6
C	-1.022048	-1.184381	0.048092	6
N	-0.247828	-0.023391	-0.013558	7
C	-0.750418	1.256799	-0.167988	6
C	0.288412	2.160309	-0.188158	6
C	1.480652	1.423259	-0.041698	6
C	1.128062	0.095509	0.062762	6
H	-1.287858	-3.267071	0.230272	1
H	0.468982	-2.690631	0.287132	1
H	-2.091738	-1.012181	-0.036548	1
H	-1.817028	1.416569	-0.251238	1
H	0.192402	3.232889	-0.296818	1
H	2.490162	1.812549	-0.014578	1
H	1.751193	-0.778541	0.186042	1
Es	0.340114	-0.022845	-0.023049	99
Es	-0.210879	1.744962	0.135447	99
Es	-0.247741	-0.023357	-0.014175	99
Es	1.268067	0.817433	0.318218	99
Es	0.128945	-2.608049	0.257503	99
Es	-0.768464	-1.863185	-0.200857	99
Es	-0.496678	0.497911	-0.130360	99
Es	0.917109	1.843699	-0.119458	99
Es	-1.021976	-1.184107	0.048069	99
Es	-0.750442	1.256571	-0.167971	99
Es	-0.582920	-2.441734	0.196289	99
Es	-1.740118	-1.050593	-0.010524	99
Es	1.480677	1.423273	-0.041688	99
Es	1.127860	0.095387	0.062756	99
Es	-0.809688	-1.800895	0.450815	99
Es	-1.056938	-2.995883	0.219036	99
Es	-0.174524	1.686540	-0.485097	99
Es	2.161700	1.689700	-0.023781	99
Es	1.541566	-0.500166	0.145818	99
Es	0.288414	2.160343	-0.188157	99
Es	-1.473913	1.354506	-0.223738	99
Es	0.227080	2.885654	-0.261609	99
Es	-0.571425	-0.530660	-0.001474	99
Es	-0.203893	0.078826	0.090556	99
Es	1.309832	0.755713	-0.301677	99
39
Properties=species:S:1:pos:R:3:Z:I:1 energy=-285.7870335836186 field_type=dipole dipole="0.000000 0.000000 0.000000" charge=0
C	-0.582947	-2.441691	0.196282	6
C	-1.022048	-1.184381	0.048092	6
N	-0.247828	-0.023391	-0.013558	7
C	-0.750418	1.256799	-0.167988	6
C	0.288412	2.160309	-0.188158	6
C	1.480652	1.423259	-0.041698	6
C	1.128062	0.095509	0.062762	6
H	-1.287858	-3.267071	0.230272	1
H	0.468982	-2.690631	0.287132	1
H	-2.091738	-1.012181	-0.036548	1
H	-1.817028	1.416569	-0.251238	1
H	0.192402	3.232889	-0.296818	1
H	2.490162	1.812549	-0.014578	1
H	1.751193	-0.778541	0.186042	1
Es	-0.172465	1.685962	-0.486255	99
Es	0.288411	2.160339	-0.188160	99
Es	-0.750444	1.256569	-0.167971	99
Es	1.480679	1.423276	-0.041682	99
Es	-1.740185	-1.050574	-0.010487	99
Es	-0.228813	0.008163	-0.025746	99
Es	-0.218825	0.031316	-0.000710	99
Es	0.226922	2.885696	-0.261390	99
Es	-0.768297	-1.863183	-0.200943	99
Es	-0.809801	-1.800905	0.450724	99
Es	1.308490	0.757361	-0.303088	99
Es	1.127864	0.095394	0.062760	99
Es	-0.582920	-2.441733	0.196288	99
Es	-0.502624	0.508809	-0.082586	99
Es	-1.056904	-2.995851	0.219049	99
Es	0.917054	1.843958	-0.118053	99
Es	-0.573186	-0.530620	0.012064	99
Es	-1.021975	-1.184103	0.048069	99
Es	0.343332	-0.018496	0.021752	99
Es	2.161709	1.689675	-0.023739	99
Es	0.128916	-2.608079	0.257554	99
Es	1.269061	0.816612	0.316966	99
Es	-1.474073	1.354537	-0.223472	99
Es	-0.211817	1.745149	0.133882	99
Es	1.541656	-0.500229	0.146064	99
39
Properties=species:S:1:pos:R:3:Z:I:1 energy=-285.7870335836186 field_type=dipole dipole="0.000000 0.000000 0.000000" charge=0
C	-0.582947	-2.441691	0.196282	6
C	-1.022048	-1.184381	0.048092	6
N	-0.247828	-0.023391	-0.013558	7
C	-0.750418	1.256799	-0.167988	6
C	0.288412	2.160309	-0.188158	6
C	1.480652	1.423259	-0.041698	6
C	1.128062	0.095509	0.062762	6
H	-1.287858	-3.267071	0.230272	1
H	0.468982	-2.690631	0.287132	1
H	-2.091738	-1.012181	-0.036548	1
H	-1.817028	1.416569	-0.251238	1
H	0.192402	3.232889	-0.296818	1
H	2.490162	1.812549	-0.014578	1
H	1.751193	-0.778541	0.186042	1
Es	-1.021976	-1.184105	0.048070	99
Es	0.917085	1.844053	-0.117600	99
Es	-0.502676	0.508445	-0.084505	99
Es	-0.211583	1.745144	0.133681	99
Es	-0.573081	-0.530555	0.013603	99
Es	-0.750440	1.256576	-0.167955	99
Es	0.226872	2.885701	-0.261466	99
Es	-1.474128	1.354626	-0.223466	99
Es	0.343056	-0.017863	0.025714	99
Es	1.308382	0.757423	-0.303044	99
Es	-0.809780	-1.800904	0.450628	99
Es	0.288413	2.160340	-0.188161	99
Es	2.161768	1.689600	-0.023784	99
Es	-1.740231	-1.050595	-0.010480	99
Es	1.480680	1.423274	-0.041697	99
Es	-1.056916	-2.995856	0.219066	99
Es	-0.172356	1.685893	-0.486158	99
Es	1.127860	0.095388	0.062764	99
Es	-0.220862	0.027721	-0.001831	99
Es	-0.226758	0.011281	-0.028169	99
Es	-0.768274	-1.863172	-0.200900	99
Es	0.128914	-2.608075	0.257559	99
Es	1.541757	-0.500246	0.146062	99
Es	1.268961	0.816684	0.316674	99
Es	-0.582919	-2.441733	0.196285	99
39
Properties=species:S:1:pos:R:3:Z:I:1 energy=-285.7870335836186 field_type=dipole dipole="0.000000 0.000000 0.000000" charge=0
C	-0.582947	-2.441691	0.196282	6
C	-1.022048	-1.184381	0.048092	6
N	-0.247828	-0.023391	-0.013558	7
C	-0.750418	1.256799	-0.167988	6
C	0.288412	2.160309	-0.188158	6
C	1.480652	1.423259	-0.041698	6
C	1.128062	0.095509	0.062762	6
H	-1.287858	-3.267071	0.230272	1
H	0.468982	-2.690631	0.287132	1
H	-2.091738	-1.012181	-0.036548	1
H	-1.817028	1.416569	-0.251238	1
H	0.192402	3.232889	-0.296818	1
H	2.490162	1.812549	-0.014578	1
H	1.751193	-0.778541	0.186042	1
Es	1.480680	1.423274	-0.041694	99
Es	-1.740264	-1.050631	-0.010518	99
Es	-0.573095	-0.530584	0.012439	99
Es	-0.231939	0.002834	-0.024462	99
Es	-0.750439	1.256574	-0.167979	99
Es	-0.172090	1.685840	-0.485982	99
Es	-1.056913	-2.995856	0.219005	99
Es	-0.211544	1.745069	0.133616	99
Es	1.127864	0.095394	0.062757	99
Es	-1.474172	1.354741	-0.223499	99
Es	-0.582919	-2.441735	0.196285	99
Es	0.917130	1.844087	-0.117896	99
Es	0.343377	-0.018635	0.019404	99
Es	-0.809775	-1.800926	0.450661	99
Es	-0.768235	-1.863105	-0.200813	99
Es	2.161799	1.689582	-0.023693	99
Es	-1.021977	-1.184115	0.048081	99
Es	1.308397	0.757436	-0.302791	99
Es	1.268676	0.816887	0.316687	99
Es	1.541862	-0.500228	0.146088	99
Es	0.226801	2.885720	-0.261419	99
Es	0.288410	2.160339	-0.188153	99
Es	-0.502510	0.508408	-0.085147	99
Es	0.128901	-2.608088	0.257558	99
Es	-0.216260	0.036760	0.002355	99
39
Properties=species:S:1:pos:R:3:Z:I:1 energy=-285.7870335836186 field_type=dipole dipole="0.000000 0.000000 0.000000" charge=0
C	-0.582947	-2.441691	0.196282	6
C	-1.022048	-1.184381	0.048092	6
N	-0.247828	-0.023391	-0.013558	7
C	-0.750418	1.256799	-0.167988	6
C	0.288412	2.160309	-0.188158	6
C	1.480652	1.423259	-0.041698	6
C	1.128062	0.095509	0.062762	6
H	-1.287858	-3.267071	0.230272	1
H	0.468982	-2.690631	0.287132	1
H	-2.091738	-1.012181	-0.036548	1
H	-1.817028	1.416569	-0.251238	1
H	0.192402	3.232889	-0.296818	1
H	2.490162	1.812549	-0.014578	1
H	1.751193	-0.778541	0.186042	1
Es	-1.740319	-1.050647	-0.010325	99
Es	-0.582920	-2.441733	0.196288	99
Es	-0.169686	1.685157	-0.487178	99
Es	0.330574	-0.012983	0.079514	99
Es	-0.213514	1.745429	0.131518	99
Es	0.128912	-2.608062	0.257627	99
Es	-0.750442	1.256572	-0.167967	99
Es	2.161836	1.689550	-0.023595	99
Es	-0.502808	0.506127	-0.023022	99
Es	-1.021976	-1.184107	0.048070	99
Es	-0.809857	-1.800884	0.450343	99
Es	1.127863	0.095390	0.062756	99
Es	-0.573160	-0.527016	0.031432	99
Es	1.306817	0.758968	-0.304451	99
Es	1.541934	-0.500122	0.146266	99
Es	0.916978	1.844259	-0.116045	99
Es	-1.474142	1.354927	-0.223099	99
Es	-0.768054	-1.863201	-0.200917	99
Es	-1.056916	-2.995856	0.219100	99
Es	1.480680	1.423273	-0.041697	99
Es	0.226789	2.885746	-0.261289	99
Es	0.288411	2.160338	-0.188161	99
Es	-0.247837	-0.023311	-0.013142	99
Es	-0.187707	0.056372	-0.146171	99
Es	1.270310	0.814859	0.315034	99
39
Properties=species:S:1:pos:R:3:Z:I:1 energy=-285.7870335836186 field_type=dipole dipole="0.000000 0.000000 0.000000" charge=0
C	-0.582947	-2.441691	0.196282	6
C	-1.022048	-1.184381	0.048092	6
N	-0.247828	-0.023391	-0.013558	7
C	-0.750418	1.256799	-0.167988	6
C	0.288412	2.160309	-0.188158	6
C	1.480652	1.423259	-0.041698	6
C	1.128062	0.095509	0.062762	6
H	-1.287858	-3.267071	0.230272	1
H	0.468982	-2.690631	0.287132	1
H	-2.091738	-1.012181	-0.036548	1
H	-1.817028	1.416569	-0.251238	1
H	0.192402	3.232889	-0.296818	1
H	2.490162	1.812549	-0.014578	1
H	1.751193	-0.778541	0.186042	1
Es	-0.750442	1.256572	-0.167968	99
Es	-1.740348	-1.050659	-0.010360	99
Es	0.917032	1.844239	-0.116527	99
Es	2.161887	1.689520	-0.023634	99
Es	1.127862	0.095390	0.062761	99
Es	0.334510	-0.013974	0.068441	99
Es	-0.809822	-1.800888	0.450315	99
Es	-1.021976	-1.184107	0.048070	99
Es	-0.170085	1.685277	-0.486687	99
Es	-1.474229	1.354957	-0.223204	99
Es	-0.582920	-2.441733	0.196288	99
Es	-0.191413	0.054789	-0.122635	99
Es	1.542044	-0.500153	0.146298	99
Es	-0.503322	0.508052	-0.035149	99
Es	-1.056921	-2.995861	0.219090	99
Es	0.128917	-2.608059	0.257618	99
Es	-0.768065	-1.863191	-0.200843	99
Es	0.226721	2.885772	-0.261342	99
Es	-0.212825	1.745220	0.131839	99
Es	-0.573363	-0.527678	0.029371	99
Es	1.269835	0.815588	0.315124	99
Es	-0.247456	-0.022436	-0.012208	99
Es	1.307055	0.758797	-0.303912	99
Es	1.480679	1.423273	-0.041697	99
Es	0.288411	2.160338	-0.188160	99
39
Properties=species:S:1:pos:R:3:Z:I:1 energy=-285.7870335836186 field_type=dipole dipole="0.000000 0.000000 0.000000" charge=0
C	-0.582947	-2.441691	0.196282	6
C	-1.022048	-1.184381	0.048092	6
N	-0.247828	-0.023391	-0.013558	7
C	-0.750418	1.256799	-0.167988	6
C	0.288412	2.160309	-0.188158	6
C	1.480652	1.423259	-0.041698	6
C	1.128062	0.095509	0.062762	6
H	-1.287858	-3.267071	0.230272	1
H	0.468982	-2.690631	0.287132	1
H	-2.091738	-1.012181	-0.036548	1
H	-1.817028	1.416569	-0.251238	1
H	0.192402	3.232889	-0.296818	1
H	2.490162	1.812549	-0.014578	1
H	1.751193	-0.778541	0.186042	1
Es	-1.056885	-2.995916	0.218790	99
Es	0.288404	2.160331	-0.188156	99
Es	1.542200	-0.500174	0.145886	99
Es	0.338872	-0.023319	-0.028314	99
Es	0.226733	2.885714	-0.261693	99
Es	1.480679	1.423271	-0.041705	99
Es	-1.740399	-1.050764	-0.010810	99
Es	-0.496211	0.496777	-0.132560	99
Es	-0.750442	1.256571	-0.167970	99
Es	-0.205134	0.077679	0.100202	99
Es	-0.768274	-1.862741	-0.200109	99
Es	1.127862	0.095391	0.062757	99
Es	-1.474202	1.354981	-0.223822	99
Es	0.917203	1.843966	-0.119249	99
Es	2.161961	1.689482	-0.023876	99
Es	1.309275	0.756476	-0.300580	99
Es	-0.173788	1.686371	-0.484250	99
Es	-0.809657	-1.801208	0.450847	99
Es	-1.021976	-1.184107	0.048070	99
Es	-0.209133	1.744630	0.134657	99
Es	-0.247390	-0.022862	-0.014823	99
Es	-0.571004	-0.530360	-0.003041	99
Es	1.267009	0.818633	0.317108	99
Es	-0.582920	-2.441733	0.196277	99
Es	0.128980	-2.608044	0.257253	99
39
Properties=species:S:1:pos:R:3:Z:I:1 energy=-285.7870335836186 field_type=dipole dipole="0.000000 0.000000 0.000000" charge=0
C	-0.582947	-2.441691	0.196282	6
C	-1.022048	-1.184381	0.048092	6
N	-0.247828	-0.023391	-0.013558	7
C	-0.750418	1.256799	-0.167988	6
C	0.288412	2.160309	-0.188158	6
C	1.480652	1.423259	-0.041698	6
C	1.128062	0.095509	0.062762	6
H	-1.287858	-3.267071	0.230272	1
H	0.468982	-2.690631	0.287132	1
H	-2.091738	-1.012181	-0.036548	1
H	-1.817028	1.416569	-0.251238	1
H	0.192402	3.232889	-0.296818	1
H	2.490162	1.812549	-0.014578	1
H	1.751193	-0.778541	0.186042	1
Es	0.288410	2.160337	-0.188161	99
Es	1.308857	0.757103	-0.301472	99
Es	-0.243808	-0.014980	-0.007808	99
Es	1.542199	-0.500267	0.145987	99
Es	-0.572925	-0.530641	0.011081	99
Es	-0.210254	1.744746	0.133504	99
Es	0.917196	1.844098	-0.118739	99
Es	-0.205831	0.055528	0.001528	99
Es	1.267385	0.818109	0.316437	99
Es	-0.750442	1.256572	-0.167968	99
Es	-0.172137	1.685995	-0.484991	99
Es	1.480679	1.423272	-0.041699	99
Es	0.128917	-2.608059	0.257548	99
Es	2.161976	1.689423	-0.023872	99
Es	-1.474357	1.355025	-0.223609	99
Es	-0.809621	-1.800891	0.450384	99
Es	-0.582920	-2.441732	0.196288	99
Es	0.343438	-0.019479	0.010110	99
Es	1.127862	0.095391	0.062760	99
Es	0.226635	2.885802	-0.261503	99
Es	-1.740440	-1.050715	-0.010504	99
Es	-0.768185	-1.863117	-0.200590	99
Es	-0.501969	0.507508	-0.090939	99
Es	-1.056924	-2.995876	0.219049	99
Es	-1.021976	-1.184108	0.048070	99
