45
Properties=species:S:1:pos:R:3:Z:I:1 energy=-288.12305398229375 field_type=dipole dipole="0.000000 0.000000 0.000000" charge=0
C	0.063296	-2.405927	-0.325776	6
C	-0.429794	-1.234667	0.515694	6
N	0.355546	-0.025817	0.286524	7
C	0.234506	0.525463	-1.074556	6
C	0.291606	2.000913	-0.878366	6
C	0.167426	2.301673	0.416014	6
C	0.013726	1.059623	1.222804	6
H	-0.497764	-3.311267	-0.071496	1
H	1.124226	-2.605797	-0.140536	1
H	-0.070894	-2.222077	-1.396606	1
H	-0.342164	-1.524787	1.569924	1
H	-1.494544	-1.061157	0.317004	1
H	-0.713764	0.264613	-1.559376	1
H	1.065946	0.179273	-1.695986	1
H	0.393236	2.714513	-1.681686	1
H	0.152046	3.298413	0.830214	1
H	0.703466	1.051613	2.072174	1
H	-1.016094	0.995403	1.594034	1
Es	0.154721	2.973644	0.709665	99
Es	0.477646	1.056885	1.808557	99
Es	0.783249	-2.539834	-0.198116	99
Es	0.360372	2.475318	-1.433314	99
Es	-0.029878	-2.275082	-1.055924	99
Es	-0.181031	-1.818613	0.082797	99
Es	-0.419735	0.346230	-1.403763	99
Es	-0.015560	-0.534232	0.373840	99
Es	0.291620	2.000870	-0.878485	99
Es	0.261733	0.204948	-0.309920	99
Es	0.796159	0.289499	-1.506491	99
Es	-1.171541	-1.111453	0.373277	99
Es	0.234509	0.525453	-1.074437	99
Es	0.013753	1.059562	1.222705	99
Es	0.063274	-2.405914	-0.325767	99
Es	0.686152	-0.101477	0.334887	99
Es	0.354869	-0.025645	0.286413	99
Es	0.167608	0.441434	0.692187	99
Es	0.557973	2.162288	-0.202606	99
Es	0.167413	2.301680	0.416140	99
Es	-0.088560	2.186986	-0.270277	99
Es	0.271599	1.271119	-1.010653	99
Es	-0.695445	1.014557	1.473253	99
Es	-0.324327	-3.020841	-0.149812	99
Es	0.092984	1.704819	0.848440	99
Es	-0.369882	-1.427847	1.241130	99
Es	-0.429703	-1.234593	0.515648	99
45
Properties=species:S:1:pos:R:3:Z:I:1 energy=-288.12305398229375 field_type=dipole dipole="0.000000 0.000000 0.000000" charge=0
C	0.063296	-2.405927	-0.325776	6
C	-0.429794	-1.234667	0.515694	6
N	0.355546	-0.025817	0.286524	7
C	0.234506	0.525463	-1.074556	6
C	0.291606	2.000913	-0.878366	6
C	0.167426	2.301673	0.416014	6
C	0.013726	1.059623	1.222804	6
H	-0.497764	-3.311267	-0.071496	1
H	1.124226	-2.605797	-0.140536	1
H	-0.070894	-2.222077	-1.396606	1
H	-0.342164	-1.524787	1.569924	1
H	-1.494544	-1.061157	0.317004	1
H	-0.713764	0.264613	-1.559376	1
H	1.065946	0.179273	-1.695986	1
H	0.393236	2.714513	-1.681686	1
H	0.152046	3.298413	0.830214	1
H	0.703466	1.051613	2.072174	1
H	-1.016094	0.995403	1.594034	1
Es	0.167642	0.441441	0.692185	99
Es	0.291610	2.000867	-0.878486	99
Es	0.685430	-0.101012	0.334882	99
Es	-0.429701	-1.234590	0.515650	99
Es	-0.029947	-2.275073	-1.055829	99
Es	-0.324405	-3.020802	-0.149820	99
Es	-0.015143	-0.534658	0.374079	99
Es	-0.419640	0.346289	-1.403692	99
Es	0.154769	2.973648	0.709655	99
Es	0.360360	2.475380	-1.433251	99
Es	-0.181017	-1.818656	0.082720	99
Es	0.013750	1.059564	1.222704	99
Es	-1.171484	-1.111407	0.373319	99
Es	0.234509	0.525453	-1.074435	99
Es	0.261933	0.204813	-0.310192	99
Es	0.557739	2.162371	-0.202654	99
Es	0.167419	2.301686	0.416145	99
Es	0.271770	1.271239	-1.010751	99
Es	0.354954	-0.025675	0.286417	99
Es	0.795969	0.289360	-1.506523	99
Es	-0.369928	-1.427842	1.241119	99
Es	-0.088527	2.186963	-0.270266	99
Es	-0.695470	1.014626	1.473268	99
Es	0.477632	1.056877	1.808540	99
Es	0.063276	-2.405916	-0.325768	99
Es	0.093122	1.704705	0.848539	99
Es	0.783346	-2.539892	-0.198181	99
45
Properties=species:S:1:pos:R:3:Z:I:1 energy=-288.12305398229375 field_type=dipole dipole="0.000000 0.000000 0.000000" charge=0
C	0.063296	-2.405927	-0.325776	6
C	-0.429794	-1.234667	0.515694	6
N	0.355546	-0.025817	0.286524	7
C	0.234506	0.525463	-1.074556	6
C	0.291606	2.000913	-0.878366	6
C	0.167426	2.301673	0.416014	6
C	0.013726	1.059623	1.222804	6
H	-0.497764	-3.311267	-0.071496	1
H	1.124226	-2.605797	-0.140536	1
H	-0.070894	-2.222077	-1.396606	1
H	-0.342164	-1.524787	1.569924	1
H	-1.494544	-1.061157	0.317004	1
H	-0.713764	0.264613	-1.559376	1
H	1.065946	0.179273	-1.695986	1
H	0.393236	2.714513	-1.681686	1
H	0.152046	3.298413	0.830214	1
H	0.703466	1.051613	2.072174	1
H	-1.016094	0.995403	1.594034	1
Es	-0.088375	2.186991	-0.270262	99
Es	-0.181095	-1.818722	0.082725	99
Es	0.261866	0.204875	-0.310009	99
Es	-0.419631	0.346291	-1.403667	99
Es	-0.695389	1.014621	1.473264	99
Es	0.477568	1.056862	1.808551	99
Es	0.360437	2.475442	-1.433212	99
Es	0.154729	2.973692	0.709606	99
Es	-0.370014	-1.427788	1.241118	99
Es	0.796000	0.289388	-1.506563	99
Es	0.093123	1.704743	0.848593	99
Es	0.167426	2.301682	0.416137	99
Es	0.271660	1.271096	-1.010768	99
Es	0.291616	2.000866	-0.878485	99
Es	0.685871	-0.101484	0.334880	99
Es	-1.171395	-1.111376	0.373340	99
Es	0.234507	0.525458	-1.074442	99
Es	-0.429700	-1.234590	0.515647	99
Es	0.013751	1.059564	1.222705	99
Es	0.557573	2.162359	-0.202665	99
Es	0.783322	-2.539912	-0.198159	99
Es	-0.029914	-2.275115	-1.055845	99
Es	-0.015431	-0.534234	0.373867	99
Es	0.354873	-0.025650	0.286418	99
Es	0.167690	0.441395	0.692210	99
Es	-0.324371	-3.020780	-0.149845	99
Es	0.063274	-2.405913	-0.325767	99
45
Properties=species:S:1:pos:R:3:Z:I:1 energy=-288.12305398229375 field_type=dipole dipole="0.000000 0.000000 0.000000" charge=0
C	0.063296	-2.405927	-0.325776	6
C	-0.429794	-1.234667	0.515694	6
N	0.355546	-0.025817	0.286524	7
C	0.234506	0.525463	-1.074556	6
C	0.291606	2.000913	-0.878366	6
C	0.167426	2.301673	0.416014	6
C	0.013726	1.059623	1.222804	6
H	-0.497764	-3.311267	-0.071496	1
H	1.124226	-2.605797	-0.140536	1
H	-0.070894	-2.222077	-1.396606	1
H	-0.342164	-1.524787	1.569924	1
H	-1.494544	-1.061157	0.317004	1
H	-0.713764	0.264613	-1.559376	1
H	1.065946	0.179273	-1.695986	1
H	0.393236	2.714513	-1.681686	1
H	0.152046	3.298413	0.830214	1
H	0.703466	1.051613	2.072174	1
H	-1.016094	0.995403	1.594034	1
Es	-0.695349	1.014625	1.473222	99
Es	0.557554	2.162442	-0.202707	99
Es	0.167635	0.441281	0.691922	99
Es	0.291588	2.000869	-0.878473	99
Es	-0.029915	-2.275190	-1.055811	99
Es	-0.181028	-1.818609	0.082740	99
Es	-1.171429	-1.111450	0.373371	99
Es	0.154757	2.973700	0.709524	99
Es	0.063275	-2.405914	-0.325767	99
Es	-0.429705	-1.234595	0.515649	99
Es	0.271679	1.271113	-1.010850	99
Es	0.262212	0.204812	-0.310333	99
Es	0.685759	-0.101617	0.335397	99
Es	0.783280	-2.539897	-0.198239	99
Es	0.167412	2.301686	0.416141	99
Es	-0.015599	-0.533895	0.374055	99
Es	0.360371	2.475426	-1.433209	99
Es	0.795930	0.289391	-1.506558	99
Es	-0.088272	2.186965	-0.270243	99
Es	0.093113	1.704714	0.848715	99
Es	-0.370002	-1.427800	1.241043	99
Es	0.234509	0.525453	-1.074437	99
Es	-0.419597	0.346294	-1.403675	99
Es	0.013752	1.059561	1.222705	99
Es	-0.324333	-3.020819	-0.149816	99
Es	0.354884	-0.025650	0.286421	99
Es	0.477489	1.056864	1.808585	99
45
Properties=species:S:1:pos:R:3:Z:I:1 energy=-288.12305398229375 field_type=dipole dipole="0.000000 0.000000 0.000000" charge=0
C	0.063296	-2.405927	-0.325776	6
C	-0.429794	-1.234667	0.515694	6
N	0.355546	-0.025817	0.286524	7
C	0.234506	0.525463	-1.074556	6
C	0.291606	2.000913	-0.878366	6
C	0.167426	2.301673	0.416014	6
C	0.013726	1.059623	1.222804	6
H	-0.497764	-3.311267	-0.071496	1
H	1.124226	-2.605797	-0.140536	1
H	-0.070894	-2.222077	-1.396606	1
H	-0.342164	-1.524787	1.569924	1
H	-1.494544	-1.061157	0.317004	1
H	-0.713764	0.264613	-1.559376	1
H	1.065946	0.179273	-1.695986	1
H	0.393236	2.714513	-1.681686	1
H	0.152046	3.298413	0.830214	1
H	0.703466	1.051613	2.072174	1
H	-1.016094	0.995403	1.594034	1
Es	0.093048	1.704632	0.848713	99
Es	-0.419526	0.346329	-1.403705	99
Es	-0.695332	1.014679	1.473262	99
Es	0.477502	1.056905	1.808552	99
Es	0.167414	2.301685	0.416139	99
Es	-0.029880	-2.275170	-1.055843	99
Es	0.271688	1.271023	-1.010872	99
Es	0.013750	1.059565	1.222705	99
Es	0.154756	2.973764	0.709494	99
Es	0.795889	0.289414	-1.506562	99
Es	0.063275	-2.405914	-0.325767	99
Es	0.167704	0.441319	0.692273	99
Es	0.354909	-0.025654	0.286441	99
Es	0.234509	0.525453	-1.074436	99
Es	0.557324	2.162374	-0.202695	99
Es	-0.088046	2.187033	-0.270234	99
Es	-0.324327	-3.020799	-0.149853	99
Es	0.783243	-2.539933	-0.198209	99
Es	0.291615	2.000867	-0.878484	99
Es	0.685660	-0.101366	0.334801	99
Es	-0.015294	-0.534249	0.373933	99
Es	-0.181024	-1.818674	0.082790	99
Es	-0.370017	-1.427737	1.241042	99
Es	-1.171404	-1.111466	0.373395	99
Es	0.360383	2.475518	-1.433161	99
Es	0.261855	0.204756	-0.309996	99
Es	-0.429704	-1.234594	0.515648	99
45
Properties=species:S:1:pos:R:3:Z:I:1 energy=-288.12305398229375 field_type=dipole dipole="0.000000 0.000000 0.000000" charge=0
C	0.063296	-2.405927	-0.325776	6
C	-0.429794	-1.234667	0.515694	6
N	0.355546	-0.025817	0.286524	7
C	0.234506	0.525463	-1.074556	6
C	0.291606	2.000913	-0.878366	6
C	0.167426	2.301673	0.416014	6
C	0.013726	1.059623	1.222804	6
H	-0.497764	-3.311267	-0.071496	1
H	1.124226	-2.605797	-0.140536	1
H	-0.070894	-2.222077	-1.396606	1
H	-0.342164	-1.524787	1.569924	1
H	-1.494544	-1.061157	0.317004	1
H	-0.713764	0.264613	-1.559376	1
H	1.065946	0.179273	-1.695986	1
H	0.393236	2.714513	-1.681686	1
H	0.152046	3.298413	0.830214	1
H	0.703466	1.051613	2.072174	1
H	-1.016094	0.995403	1.594034	1
Es	0.167412	2.301685	0.416138	99
Es	0.167987	0.441357	0.692436	99
Es	0.783231	-2.539932	-0.198214	99
Es	-0.029840	-2.275193	-1.055810	99
Es	0.795861	0.289421	-1.506569	99
Es	-0.324322	-3.020821	-0.149887	99
Es	-0.015397	-0.534121	0.373911	99
Es	0.477486	1.056932	1.808574	99
Es	0.271759	1.270955	-1.010851	99
Es	0.154800	2.973786	0.709457	99
Es	0.685197	-0.101592	0.334864	99
Es	-0.370068	-1.427711	1.241046	99
Es	0.354878	-0.025645	0.286419	99
Es	-0.429704	-1.234595	0.515649	99
Es	0.291615	2.000867	-0.878483	99
Es	-0.088003	2.187002	-0.270222	99
Es	0.093077	1.704565	0.848760	99
Es	0.262162	0.204760	-0.310154	99
Es	0.013749	1.059569	1.222707	99
Es	-1.171347	-1.111469	0.373401	99
Es	-0.695291	1.014701	1.473253	99
Es	-0.181054	-1.818674	0.082777	99
Es	-0.419497	0.346350	-1.403711	99
Es	0.360399	2.475521	-1.433161	99
Es	0.557095	2.162502	-0.202755	99
Es	0.234509	0.525453	-1.074437	99
Es	0.063275	-2.405915	-0.325767	99
45
Properties=species:S:1:pos:R:3:Z:I:1 energy=-288.12305398229375 field_type=dipole dipole="0.000000 0.000000 0.000000" charge=0
C	0.063296	-2.405927	-0.325776	6
C	-0.429794	-1.234667	0.515694	6
N	0.355546	-0.025817	0.286524	7
C	0.234506	0.525463	-1.074556	6
C	0.291606	2.000913	-0.878366	6
C	0.167426	2.301673	0.416014	6
C	0.013726	1.059623	1.222804	6
H	-0.497764	-3.311267	-0.071496	1
H	1.124226	-2.605797	-0.140536	1
H	-0.070894	-2.222077	-1.396606	1
H	-0.342164	-1.524787	1.569924	1
H	-1.494544	-1.061157	0.317004	1
H	-0.713764	0.264613	-1.559376	1
H	1.065946	0.179273	-1.695986	1
H	0.393236	2.714513	-1.681686	1
H	0.152046	3.298413	0.830214	1
H	0.703466	1.051613	2.072174	1
H	-1.016094	0.995403	1.594034	1
Es	0.783215	-2.539965	-0.198252	99
Es	-0.087812	2.186998	-0.270207	99
Es	0.291615	2.000867	-0.878482	99
Es	-1.171331	-1.111469	0.373448	99
Es	-0.015438	-0.534082	0.373901	99
Es	0.167413	2.301684	0.416138	99
Es	-0.324333	-3.020816	-0.149886	99
Es	0.093047	1.704564	0.848813	99
Es	-0.419465	0.346358	-1.403713	99
Es	-0.181047	-1.818637	0.082754	99
Es	0.234509	0.525454	-1.074437	99
Es	-0.429705	-1.234595	0.515649	99
Es	0.360406	2.475612	-1.433107	99
Es	0.354964	-0.025671	0.286435	99
Es	-0.695265	1.014707	1.473258	99
Es	0.684939	-0.101638	0.334824	99
Es	-0.029834	-2.275227	-1.055780	99
Es	0.013750	1.059566	1.222706	99
Es	-0.370069	-1.427712	1.241023	99
Es	0.168101	0.441395	0.692507	99
Es	0.477442	1.056923	1.808565	99
Es	0.154799	2.973839	0.709412	99
Es	0.795828	0.289428	-1.506575	99
Es	0.556974	2.162436	-0.202742	99
Es	0.262280	0.204741	-0.310177	99
Es	0.271712	1.270915	-1.010934	99
Es	0.063275	-2.405915	-0.325767	99
45
Properties=species:S:1:pos:R:3:Z:I:1 energy=-288.12305398229375 field_type=dipole dipole="0.000000 0.000000 0.000000" charge=0
C	0.063296	-2.405927	-0.325776	6
C	-0.429794	-1.234667	0.515694	6
N	0.355546	-0.025817	0.286524	7
C	0.234506	0.525463	-1.074556	6
C	0.291606	2.000913	-0.878366	6
C	0.167426	2.301673	0.416014	6
C	0.013726	1.059623	1.222804	6
H	-0.497764	-3.311267	-0.071496	1
H	1.124226	-2.605797	-0.140536	1
H	-0.070894	-2.222077	-1.396606	1
H	-0.342164	-1.524787	1.569924	1
H	-1.494544	-1.061157	0.317004	1
H	-0.713764	0.264613	-1.559376	1
H	1.065946	0.179273	-1.695986	1
H	0.393236	2.714513	-1.681686	1
H	0.152046	3.298413	0.830214	1
H	0.703466	1.051613	2.072174	1
H	-1.016094	0.995403	1.594034	1
Es	0.234509	0.525454	-1.074438	99
Es	-0.181086	-1.818659	0.082776	99
Es	0.093053	1.704524	0.848884	99
Es	0.684540	-0.101623	0.334811	99
Es	-0.370102	-1.427684	1.241005	99
Es	-0.087743	2.187016	-0.270202	99
Es	-0.695244	1.014731	1.473261	99
Es	-0.429705	-1.234596	0.515649	99
Es	0.063275	-2.405915	-0.325767	99
Es	0.354891	-0.025657	0.286422	99
Es	0.795799	0.289438	-1.506589	99
Es	0.167412	2.301684	0.416137	99
Es	0.168270	0.441430	0.692621	99
Es	0.556828	2.162468	-0.202762	99
Es	0.477414	1.056931	1.808562	99
Es	0.360432	2.475647	-1.433067	99
Es	-0.324291	-3.020827	-0.149914	99
Es	-1.171296	-1.111470	0.373476	99
Es	0.271717	1.270863	-1.010978	99
Es	-0.029823	-2.275248	-1.055771	99
Es	-0.015364	-0.534157	0.373926	99
Es	0.783204	-2.539960	-0.198270	99
Es	0.262515	0.204718	-0.310277	99
Es	0.291615	2.000867	-0.878482	99
Es	-0.419430	0.346375	-1.403716	99
Es	0.154831	2.973844	0.709367	99
Es	0.013750	1.059566	1.222706	99
45
Properties=species:S:1:pos:R:3:Z:I:1 energy=-288.12305398229375 field_type=dipole dipole="0.000000 0.000000 0.000000" charge=0
C	0.063296	-2.405927	-0.325776	6
C	-0.429794	-1.234667	0.515694	6
N	0.355546	-0.025817	0.286524	7
C	0.234506	0.525463	-1.074556	6
C	0.291606	2.000913	-0.878366	6
C	0.167426	2.301673	0.416014	6
C	0.013726	1.059623	1.222804	6
H	-0.497764	-3.311267	-0.071496	1
H	1.124226	-2.605797	-0.140536	1
H	-0.070894	-2.222077	-1.396606	1
H	-0.342164	-1.524787	1.569924	1
H	-1.494544	-1.061157	0.317004	1
H	-0.713764	0.264613	-1.559376	1
H	1.065946	0.179273	-1.695986	1
H	0.393236	2.714513	-1.681686	1
H	0.152046	3.298413	0.830214	1
H	0.703466	1.051613	2.072174	1
H	-1.016094	0.995403	1.594034	1
Es	0.168335	0.441413	0.692643	99
Es	0.063275	-2.405915	-0.325768	99
Es	0.262487	0.204720	-0.310268	99
Es	0.093103	1.704462	0.848924	99
Es	-0.324279	-3.020835	-0.149931	99
Es	0.013750	1.059567	1.222706	99
Es	0.154855	2.973856	0.709349	99
Es	0.783195	-2.539967	-0.198295	99
Es	0.291617	2.000866	-0.878482	99
Es	0.477393	1.056959	1.808558	99
Es	-0.029821	-2.275265	-1.055745	99
Es	0.167413	2.301684	0.416137	99
Es	0.684540	-0.101745	0.334789	99
Es	0.556569	2.162531	-0.202805	99
Es	-0.181106	-1.818663	0.082785	99
Es	-0.087684	2.186999	-0.270203	99
Es	-0.695229	1.014754	1.473266	99
Es	0.354956	-0.025670	0.286434	99
Es	0.234509	0.525454	-1.074438	99
Es	-1.171265	-1.111476	0.373500	99
Es	0.795770	0.289412	-1.506586	99
Es	0.271768	1.270809	-1.011021	99
Es	-0.370131	-1.427674	1.240983	99
Es	-0.419404	0.346370	-1.403706	99
Es	-0.429705	-1.234596	0.515649	99
Es	-0.015442	-0.534012	0.373900	99
Es	0.360499	2.475721	-1.433005	99
45
Properties=species:S:1:pos:R:3:Z:I:1 energy=-288.12305398229375 field_type=dipole dipole="0.000000 0.000000 0.000000" charge=0
C	0.063296	-2.405927	-0.325776	6
C	-0.429794	-1.234667	0.515694	6
N	0.355546	-0.025817	0.286524	7
C	0.234506	0.525463	-1.074556	6
C	0.291606	2.000913	-0.878366	6
C	0.167426	2.301673	0.416014	6
C	0.013726	1.059623	1.222804	6
H	-0.497764	-3.311267	-0.071496	1
H	1.124226	-2.605797	-0.140536	1
H	-0.070894	-2.222077	-1.396606	1
H	-0.342164	-1.524787	1.569924	1
H	-1.494544	-1.061157	0.317004	1
H	-0.713764	0.264613	-1.559376	1
H	1.065946	0.179273	-1.695986	1
H	0.393236	2.714513	-1.681686	1
H	0.152046	3.298413	0.830214	1
H	0.703466	1.051613	2.072174	1
H	-1.016094	0.995403	1.594034	1
Es	0.783171	-2.540000	-0.198305	99
Es	0.234509	0.525454	-1.074438	99
Es	0.063275	-2.405915	-0.325768	99
Es	-0.087580	2.186957	-0.270178	99
Es	-1.171244	-1.111475	0.373539	99
Es	-0.324298	-3.020820	-0.149919	99
Es	0.093075	1.704435	0.848978	99
Es	0.795746	0.289456	-1.506600	99
Es	-0.029800	-2.275300	-1.055738	99
Es	0.154935	2.973927	0.709294	99
Es	0.684411	-0.101819	0.334794	99
Es	0.354874	-0.025647	0.286420	99
Es	0.556354	2.162510	-0.202818	99
Es	0.360528	2.475768	-1.433010	99
Es	-0.429705	-1.234596	0.515649	99
Es	-0.419371	0.346401	-1.403725	99
Es	0.168433	0.441391	0.692702	99
Es	-0.015446	-0.533974	0.373902	99
Es	0.013750	1.059567	1.222707	99
Es	-0.181068	-1.818679	0.082763	99
Es	0.291615	2.000868	-0.878480	99
Es	0.262592	0.204683	-0.310281	99
Es	0.271767	1.270757	-1.011038	99
Es	0.477370	1.056974	1.808551	99
Es	-0.695180	1.014772	1.473279	99
Es	-0.370153	-1.427619	1.240954	99
Es	0.167412	2.301684	0.416136	99
