48
Properties=species:S:1:pos:R:3:Z:I:1 energy=-289.2861700262709 field_type=dipole dipole="0.000000 0.000000 0.000000" charge=0
C	-2.822789	0.368994	-0.405906	6
C	-1.513729	0.047784	0.298484	6
N	-0.391439	0.325404	-0.595066	7
C	0.926102	-0.036986	-0.032586	6
C	1.382452	0.740994	1.178604	6
C	1.371421	-1.474736	-0.153856	6
C	1.985822	-0.429696	-1.036596	6
H	-3.668118	0.174394	0.262404	1
H	-2.952379	-0.247796	-1.302046	1
H	-2.866259	1.422034	-0.704546	1
H	-1.516049	-1.007166	0.593674	1
H	-1.443139	0.654614	1.207114	1
H	-0.405029	1.305354	-0.876406	1
H	2.436091	0.551494	1.412734	1
H	0.795061	0.461594	2.059124	1
H	1.266161	1.816824	1.010654	1
H	0.694841	-2.186856	-0.613076	1
H	1.982621	-1.897296	0.634754	1
H	3.015731	-0.147686	-0.848966	1
H	1.722621	-0.441276	-2.088496	1
Es	-1.510399	-0.674792	0.500207	99
Es	-0.439175	0.133013	-0.884966	99
Es	-1.468119	0.468097	0.932554	99
Es	-0.393268	0.928920	-0.733061	99
Es	-3.397987	0.237020	0.054510	99
Es	-2.909737	-0.050734	-1.014033	99
Es	1.299721	1.475414	1.058905	99
Es	1.985726	-0.429760	-1.036462	99
Es	-2.822781	0.369001	-0.405887	99
Es	2.099737	0.605836	1.332656	99
Es	1.371444	-1.474567	-0.153906	99
Es	0.912077	-1.953698	-0.463907	99
Es	1.382445	0.740986	1.178590	99
Es	1.787666	-1.754722	0.387024	99
Es	-2.845399	1.091654	-0.608158	99
Es	0.979093	0.551621	1.777404	99
Es	-0.391344	0.325733	-0.594544	99
Es	1.020383	-0.814527	0.050522	99
Es	-1.513652	0.047826	0.298374	99
Es	0.926076	-0.037061	-0.032698	99
Es	1.160897	0.351156	0.580900	99
Es	-2.171460	0.213035	-0.058806	99
Es	1.786674	-1.080343	-0.670285	99
Es	1.481235	-0.049061	-0.598058	99
Es	0.178200	0.183757	-0.320906	99
Es	2.686537	-0.235274	-0.900566	99
Es	-0.859679	0.223305	-0.179510	99
Es	1.805498	-0.437037	-1.746310	99
48
Properties=species:S:1:pos:R:3:Z:I:1 energy=-289.2861700262709 field_type=dipole dipole="0.000000 0.000000 0.000000" charge=0
C	-2.822789	0.368994	-0.405906	6
C	-1.513729	0.047784	0.298484	6
N	-0.391439	0.325404	-0.595066	7
C	0.926102	-0.036986	-0.032586	6
C	1.382452	0.740994	1.178604	6
C	1.371421	-1.474736	-0.153856	6
C	1.985822	-0.429696	-1.036596	6
H	-3.668118	0.174394	0.262404	1
H	-2.952379	-0.247796	-1.302046	1
H	-2.866259	1.422034	-0.704546	1
H	-1.516049	-1.007166	0.593674	1
H	-1.443139	0.654614	1.207114	1
H	-0.405029	1.305354	-0.876406	1
H	2.436091	0.551494	1.412734	1
H	0.795061	0.461594	2.059124	1
H	1.266161	1.816824	1.010654	1
H	0.694841	-2.186856	-0.613076	1
H	1.982621	-1.897296	0.634754	1
H	3.015731	-0.147686	-0.848966	1
H	1.722621	-0.441276	-2.088496	1
Es	-3.397939	0.237175	0.054517	99
Es	1.160852	0.351169	0.580697	99
Es	1.787583	-1.754629	0.386973	99
Es	-0.393281	0.928833	-0.732930	99
Es	0.912322	-1.953764	-0.463848	99
Es	1.985729	-0.429760	-1.036464	99
Es	0.178324	0.183689	-0.320939	99
Es	1.481151	-0.048959	-0.598040	99
Es	-1.510374	-0.674660	0.500233	99
Es	1.805600	-0.436933	-1.746200	99
Es	1.020096	-0.814734	0.050759	99
Es	-1.468061	0.468059	0.932553	99
Es	-0.859672	0.223253	-0.179557	99
Es	-2.845344	1.091666	-0.608310	99
Es	0.926076	-0.037057	-0.032699	99
Es	-0.439233	0.133164	-0.885040	99
Es	1.382448	0.740990	1.178597	99
Es	-2.822778	0.369001	-0.405886	99
Es	2.686425	-0.235243	-0.900602	99
Es	1.786897	-1.080432	-0.670521	99
Es	1.371445	-1.474571	-0.153905	99
Es	0.979100	0.551661	1.777258	99
Es	-1.513654	0.047824	0.298376	99
Es	-0.391352	0.325727	-0.594544	99
Es	2.099767	0.605820	1.332799	99
Es	-2.171539	0.212919	-0.058787	99
Es	-2.909882	-0.050817	-1.013899	99
Es	1.299702	1.475411	1.058999	99
48
Properties=species:S:1:pos:R:3:Z:I:1 energy=-289.2861700262709 field_type=dipole dipole="0.000000 0.000000 0.000000" charge=0
C	-2.822789	0.368994	-0.405906	6
C	-1.513729	0.047784	0.298484	6
N	-0.391439	0.325404	-0.595066	7
C	0.926102	-0.036986	-0.032586	6
C	1.382452	0.740994	1.178604	6
C	1.371421	-1.474736	-0.153856	6
C	1.985822	-0.429696	-1.036596	6
H	-3.668118	0.174394	0.262404	1
H	-2.952379	-0.247796	-1.302046	1
H	-2.866259	1.422034	-0.704546	1
H	-1.516049	-1.007166	0.593674	1
H	-1.443139	0.654614	1.207114	1
H	-0.405029	1.305354	-0.876406	1
H	2.436091	0.551494	1.412734	1
H	0.795061	0.461594	2.059124	1
H	1.266161	1.816824	1.010654	1
H	0.694841	-2.186856	-0.613076	1
H	1.982621	-1.897296	0.634754	1
H	3.015731	-0.147686	-0.848966	1
H	1.722621	-0.441276	-2.088496	1
Es	-2.171480	0.212984	-0.058777	99
Es	-2.909911	-0.050796	-1.013895	99
Es	-1.513658	0.047823	0.298379	99
Es	0.926080	-0.037066	-0.032704	99
Es	1.985728	-0.429759	-1.036464	99
Es	-2.822780	0.369000	-0.405887	99
Es	1.786812	-1.080524	-0.670454	99
Es	1.371445	-1.474570	-0.153905	99
Es	1.382448	0.740990	1.178597	99
Es	-1.468098	0.467958	0.932538	99
Es	-0.859637	0.223375	-0.179468	99
Es	-3.397934	0.237177	0.054532	99
Es	-0.391350	0.325726	-0.594546	99
Es	1.020065	-0.814931	0.050756	99
Es	1.787577	-1.754659	0.386852	99
Es	0.912393	-1.953731	-0.463776	99
Es	-2.845375	1.091631	-0.608314	99
Es	0.979053	0.551675	1.777422	99
Es	2.099643	0.605788	1.332699	99
Es	-1.510380	-0.674697	0.500199	99
Es	1.481393	-0.048647	-0.598176	99
Es	1.299861	1.475413	1.058933	99
Es	0.178342	0.183676	-0.320996	99
Es	-0.439281	0.133197	-0.884928	99
Es	1.805600	-0.436830	-1.746139	99
Es	-0.393271	0.928805	-0.733033	99
Es	1.160794	0.350994	0.580827	99
Es	2.686327	-0.235201	-0.900684	99
48
Properties=species:S:1:pos:R:3:Z:I:1 energy=-289.2861700262709 field_type=dipole dipole="0.000000 0.000000 0.000000" charge=0
C	-2.822789	0.368994	-0.405906	6
C	-1.513729	0.047784	0.298484	6
N	-0.391439	0.325404	-0.595066	7
C	0.926102	-0.036986	-0.032586	6
C	1.382452	0.740994	1.178604	6
C	1.371421	-1.474736	-0.153856	6
C	1.985822	-0.429696	-1.036596	6
H	-3.668118	0.174394	0.262404	1
H	-2.952379	-0.247796	-1.302046	1
H	-2.866259	1.422034	-0.704546	1
H	-1.516049	-1.007166	0.593674	1
H	-1.443139	0.654614	1.207114	1
H	-0.405029	1.305354	-0.876406	1
H	2.436091	0.551494	1.412734	1
H	0.795061	0.461594	2.059124	1
H	1.266161	1.816824	1.010654	1
H	0.694841	-2.186856	-0.613076	1
H	1.982621	-1.897296	0.634754	1
H	3.015731	-0.147686	-0.848966	1
H	1.722621	-0.441276	-2.088496	1
Es	-2.822780	0.369001	-0.405886	99
Es	-0.393274	0.928810	-0.733006	99
Es	1.481215	-0.048539	-0.598176	99
Es	-2.845387	1.091688	-0.608363	99
Es	1.787130	-1.080923	-0.670729	99
Es	2.686225	-0.235289	-0.900711	99
Es	-2.909880	-0.050802	-1.013830	99
Es	1.299790	1.475369	1.058984	99
Es	-1.468145	0.467997	0.932479	99
Es	1.805771	-0.436829	-1.746023	99
Es	1.160730	0.351081	0.580689	99
Es	-0.439193	0.133640	-0.884748	99
Es	-0.859796	0.223071	-0.179581	99
Es	1.985729	-0.429758	-1.036464	99
Es	0.979125	0.551698	1.777388	99
Es	1.371448	-1.474576	-0.153906	99
Es	0.178504	0.183423	-0.321098	99
Es	1.019945	-0.814694	0.050899	99
Es	-0.391346	0.325781	-0.594457	99
Es	1.382448	0.740989	1.178597	99
Es	-3.397936	0.237141	0.054507	99
Es	-2.171538	0.212896	-0.058825	99
Es	-1.513655	0.047823	0.298377	99
Es	-1.510345	-0.674628	0.500295	99
Es	0.912419	-1.953650	-0.463672	99
Es	1.787400	-1.754672	0.386859	99
Es	2.099735	0.605807	1.332687	99
Es	0.926070	-0.037053	-0.032698	99
48
Properties=species:S:1:pos:R:3:Z:I:1 energy=-289.2861700262709 field_type=dipole dipole="0.000000 0.000000 0.000000" charge=0
C	-2.822789	0.368994	-0.405906	6
C	-1.513729	0.047784	0.298484	6
N	-0.391439	0.325404	-0.595066	7
C	0.926102	-0.036986	-0.032586	6
C	1.382452	0.740994	1.178604	6
C	1.371421	-1.474736	-0.153856	6
C	1.985822	-0.429696	-1.036596	6
H	-3.668118	0.174394	0.262404	1
H	-2.952379	-0.247796	-1.302046	1
H	-2.866259	1.422034	-0.704546	1
H	-1.516049	-1.007166	0.593674	1
H	-1.443139	0.654614	1.207114	1
H	-0.405029	1.305354	-0.876406	1
H	2.436091	0.551494	1.412734	1
H	0.795061	0.461594	2.059124	1
H	1.266161	1.816824	1.010654	1
H	0.694841	-2.186856	-0.613076	1
H	1.982621	-1.897296	0.634754	1
H	3.015731	-0.147686	-0.848966	1
H	1.722621	-0.441276	-2.088496	1
Es	-1.468144	0.467879	0.932468	99
Es	-0.439731	0.133166	-0.884786	99
Es	1.787322	-1.080995	-0.670846	99
Es	-2.171474	0.212934	-0.058742	99
Es	1.299814	1.475432	1.058980	99
Es	-2.845443	1.091606	-0.608402	99
Es	-3.397929	0.237217	0.054443	99
Es	1.160706	0.351011	0.580680	99
Es	1.985726	-0.429760	-1.036462	99
Es	1.019741	-0.814709	0.051122	99
Es	-0.391387	0.325740	-0.594546	99
Es	1.371447	-1.474570	-0.153908	99
Es	1.805780	-0.436854	-1.745958	99
Es	-1.510336	-0.674616	0.500266	99
Es	1.787334	-1.754654	0.386745	99
Es	0.912512	-1.953640	-0.463563	99
Es	-2.822773	0.369000	-0.405882	99
Es	2.686138	-0.235278	-0.900824	99
Es	0.926081	-0.037064	-0.032701	99
Es	-2.909961	-0.050785	-1.013797	99
Es	1.481306	-0.048452	-0.598192	99
Es	-0.859282	0.223768	-0.179022	99
Es	0.178505	0.183422	-0.321388	99
Es	-1.513655	0.047824	0.298377	99
Es	-0.393164	0.928723	-0.733143	99
Es	0.979129	0.551708	1.777325	99
Es	1.382448	0.740993	1.178596	99
Es	2.099696	0.605753	1.332746	99
48
Properties=species:S:1:pos:R:3:Z:I:1 energy=-289.2861700262709 field_type=dipole dipole="0.000000 0.000000 0.000000" charge=0
C	-2.822789	0.368994	-0.405906	6
C	-1.513729	0.047784	0.298484	6
N	-0.391439	0.325404	-0.595066	7
C	0.926102	-0.036986	-0.032586	6
C	1.382452	0.740994	1.178604	6
C	1.371421	-1.474736	-0.153856	6
C	1.985822	-0.429696	-1.036596	6
H	-3.668118	0.174394	0.262404	1
H	-2.952379	-0.247796	-1.302046	1
H	-2.866259	1.422034	-0.704546	1
H	-1.516049	-1.007166	0.593674	1
H	-1.443139	0.654614	1.207114	1
H	-0.405029	1.305354	-0.876406	1
H	2.436091	0.551494	1.412734	1
H	0.795061	0.461594	2.059124	1
H	1.266161	1.816824	1.010654	1
H	0.694841	-2.186856	-0.613076	1
H	1.982621	-1.897296	0.634754	1
H	3.015731	-0.147686	-0.848966	1
H	1.722621	-0.441276	-2.088496	1
Es	0.979191	0.551659	1.777353	99
Es	-0.439200	0.133781	-0.884481	99
Es	1.481165	-0.048360	-0.598074	99
Es	1.160636	0.350987	0.580637	99
Es	-2.822780	0.369001	-0.405886	99
Es	-2.909958	-0.050715	-1.013874	99
Es	-3.397954	0.237205	0.054403	99
Es	-1.510250	-0.674559	0.500301	99
Es	-2.171512	0.212843	-0.058726	99
Es	2.685966	-0.235173	-0.900879	99
Es	1.985722	-0.429756	-1.036457	99
Es	1.787219	-1.754663	0.386659	99
Es	1.805847	-0.436753	-1.745880	99
Es	-0.391352	0.325754	-0.594527	99
Es	-1.468161	0.467869	0.932447	99
Es	1.787712	-1.081415	-0.671057	99
Es	2.099735	0.605803	1.332676	99
Es	0.926082	-0.037065	-0.032700	99
Es	1.019706	-0.814557	0.051185	99
Es	1.382447	0.740989	1.178598	99
Es	-2.845450	1.091566	-0.608314	99
Es	1.371442	-1.474570	-0.153902	99
Es	-0.393250	0.928722	-0.733164	99
Es	1.299751	1.475414	1.059032	99
Es	-0.859882	0.223195	-0.179535	99
Es	0.912590	-1.953597	-0.463491	99
Es	-1.513656	0.047824	0.298377	99
Es	0.178603	0.183373	-0.321133	99
48
Properties=species:S:1:pos:R:3:Z:I:1 energy=-289.2861700262709 field_type=dipole dipole="0.000000 0.000000 0.000000" charge=0
C	-2.822789	0.368994	-0.405906	6
C	-1.513729	0.047784	0.298484	6
N	-0.391439	0.325404	-0.595066	7
C	0.926102	-0.036986	-0.032586	6
C	1.382452	0.740994	1.178604	6
C	1.371421	-1.474736	-0.153856	6
C	1.985822	-0.429696	-1.036596	6
H	-3.668118	0.174394	0.262404	1
H	-2.952379	-0.247796	-1.302046	1
H	-2.866259	1.422034	-0.704546	1
H	-1.516049	-1.007166	0.593674	1
H	-1.443139	0.654614	1.207114	1
H	-0.405029	1.305354	-0.876406	1
H	2.436091	0.551494	1.412734	1
H	0.795061	0.461594	2.059124	1
H	1.266161	1.816824	1.010654	1
H	0.694841	-2.186856	-0.613076	1
H	1.982621	-1.897296	0.634754	1
H	3.015731	-0.147686	-0.848966	1
H	1.722621	-0.441276	-2.088496	1
Es	-2.822780	0.369001	-0.405886	99
Es	0.979173	0.551714	1.777358	99
Es	1.160629	0.350959	0.580583	99
Es	-0.438973	0.133427	-0.884557	99
Es	-2.171496	0.212922	-0.058703	99
Es	-3.397952	0.237225	0.054402	99
Es	1.805905	-0.436800	-1.745793	99
Es	1.787155	-1.754648	0.386614	99
Es	1.299787	1.475387	1.059014	99
Es	-0.391335	0.325749	-0.594507	99
Es	0.912642	-1.953581	-0.463406	99
Es	-0.859841	0.223207	-0.179520	99
Es	1.371445	-1.474567	-0.153906	99
Es	1.985726	-0.429760	-1.036461	99
Es	-1.513656	0.047824	0.298378	99
Es	-2.909986	-0.050707	-1.013856	99
Es	-1.468126	0.467787	0.932440	99
Es	1.787627	-1.081396	-0.671037	99
Es	2.685955	-0.235287	-0.900949	99
Es	1.481348	-0.048190	-0.598229	99
Es	1.382448	0.740990	1.178598	99
Es	1.019583	-0.814648	0.051352	99
Es	2.099740	0.605782	1.332693	99
Es	0.178430	0.183853	-0.320894	99
Es	-1.510304	-0.674530	0.500288	99
Es	-0.393345	0.928619	-0.733390	99
Es	0.926083	-0.037066	-0.032701	99
Es	-2.845474	1.091536	-0.608335	99
48
Properties=species:S:1:pos:R:3:Z:I:1 energy=-289.2861700262709 field_type=dipole dipole="0.000000 0.000000 0.000000" charge=0
C	-2.822789	0.368994	-0.405906	6
C	-1.513729	0.047784	0.298484	6
N	-0.391439	0.325404	-0.595066	7
C	0.926102	-0.036986	-0.032586	6
C	1.382452	0.740994	1.178604	6
C	1.371421	-1.474736	-0.153856	6
C	1.985822	-0.429696	-1.036596	6
H	-3.668118	0.174394	0.262404	1
H	-2.952379	-0.247796	-1.302046	1
H	-2.866259	1.422034	-0.704546	1
H	-1.516049	-1.007166	0.593674	1
H	-1.443139	0.654614	1.207114	1
H	-0.405029	1.305354	-0.876406	1
H	2.436091	0.551494	1.412734	1
H	0.795061	0.461594	2.059124	1
H	1.266161	1.816824	1.010654	1
H	0.694841	-2.186856	-0.613076	1
H	1.982621	-1.897296	0.634754	1
H	3.015731	-0.147686	-0.848966	1
H	1.722621	-0.441276	-2.088496	1
Es	2.099735	0.605782	1.332697	99
Es	1.160570	0.350955	0.580531	99
Es	-0.439137	0.133290	-0.884577	99
Es	1.787697	-1.081514	-0.671159	99
Es	-0.393293	0.928629	-0.733411	99
Es	-0.391348	0.325727	-0.594548	99
Es	1.481330	-0.047999	-0.598317	99
Es	-1.468126	0.467747	0.932466	99
Es	1.805969	-0.436784	-1.745680	99
Es	-2.171453	0.212909	-0.058749	99
Es	-2.822783	0.368999	-0.405890	99
Es	-2.845564	1.091554	-0.608236	99
Es	2.685895	-0.235287	-0.901012	99
Es	1.371445	-1.474566	-0.153907	99
Es	1.019368	-0.814809	0.051489	99
Es	-0.859691	0.223431	-0.179381	99
Es	-2.909926	-0.050542	-1.013881	99
Es	1.787129	-1.754715	0.386596	99
Es	0.178548	0.183841	-0.320919	99
Es	0.912725	-1.953490	-0.463356	99
Es	-1.513656	0.047824	0.298379	99
Es	0.926085	-0.037063	-0.032703	99
Es	-1.510290	-0.674510	0.500253	99
Es	1.985728	-0.429760	-1.036463	99
Es	1.382448	0.740990	1.178597	99
Es	0.979194	0.551728	1.777352	99
Es	-3.397983	0.237047	0.054386	99
Es	1.299792	1.475385	1.059029	99
48
Properties=species:S:1:pos:R:3:Z:I:1 energy=-289.2861700262709 field_type=dipole dipole="0.000000 0.000000 0.000000" charge=0
C	-2.822789	0.368994	-0.405906	6
C	-1.513729	0.047784	0.298484	6
N	-0.391439	0.325404	-0.595066	7
C	0.926102	-0.036986	-0.032586	6
C	1.382452	0.740994	1.178604	6
C	1.371421	-1.474736	-0.153856	6
C	1.985822	-0.429696	-1.036596	6
H	-3.668118	0.174394	0.262404	1
H	-2.952379	-0.247796	-1.302046	1
H	-2.866259	1.422034	-0.704546	1
H	-1.516049	-1.007166	0.593674	1
H	-1.443139	0.654614	1.207114	1
H	-0.405029	1.305354	-0.876406	1
H	2.436091	0.551494	1.412734	1
H	0.795061	0.461594	2.059124	1
H	1.266161	1.816824	1.010654	1
H	0.694841	-2.186856	-0.613076	1
H	1.982621	-1.897296	0.634754	1
H	3.015731	-0.147686	-0.848966	1
H	1.722621	-0.441276	-2.088496	1
Es	-1.510274	-0.674453	0.500315	99
Es	0.979202	0.551733	1.777356	99
Es	-0.439206	0.132911	-0.883967	99
Es	-0.391354	0.325729	-0.594570	99
Es	0.178588	0.183998	-0.320831	99
Es	0.912783	-1.953522	-0.463263	99
Es	-2.910022	-0.050663	-1.013835	99
Es	1.787880	-1.081731	-0.671206	99
Es	1.786994	-1.754646	0.386472	99
Es	-0.393413	0.928490	-0.734244	99
Es	1.985725	-0.429760	-1.036461	99
Es	2.099742	0.605777	1.332691	99
Es	1.299799	1.475376	1.059037	99
Es	-3.397963	0.237243	0.054357	99
Es	1.382448	0.740990	1.178598	99
Es	-2.822781	0.369001	-0.405886	99
Es	1.160550	0.350924	0.580515	99
Es	0.926084	-0.037065	-0.032701	99
Es	-1.513659	0.047823	0.298380	99
Es	-1.468134	0.467693	0.932400	99
Es	1.481398	-0.047871	-0.598370	99
Es	2.685788	-0.235308	-0.901066	99
Es	-2.845513	1.091490	-0.608349	99
Es	-0.859534	0.223757	-0.179168	99
Es	1.806023	-0.436760	-1.745636	99
Es	1.019316	-0.814700	0.051607	99
Es	1.371445	-1.474561	-0.153907	99
Es	-2.171504	0.212905	-0.058680	99
