47
Properties=species:S:1:pos:R:3:Z:I:1 energy=-305.2761591509063 field_type=dipole dipole="0.000000 0.000000 0.000000" charge=0
C	0.014583	-2.166414	-0.678437	6
C	-0.697807	-0.955104	-0.081277	6
N	-1.205947	-1.280894	1.252603	7
C	0.239833	0.218176	0.035203	6
C	0.578833	1.052306	-1.184947	6
N	-0.282197	1.577226	-0.135237	7
C	0.368853	2.549056	0.736213	6
H	0.383593	-1.940454	-1.684877	1
H	-0.662177	-3.024404	-0.754717	1
H	0.878293	-2.465304	-0.073227	1
H	-1.550467	-0.696514	-0.720707	1
H	-0.452407	-1.639794	1.834263	1
H	-1.890967	-2.030154	1.176553	1
H	1.030073	0.055606	0.760453	1
H	0.085783	0.828096	-2.124257	1
H	1.582502	1.448546	-1.279667	1
H	-0.119327	2.549276	1.716333	1
H	0.259753	3.552206	0.311293	1
H	1.439203	2.368546	0.894433	1
Es	-1.604807	-1.749495	1.193290	99
Es	1.262727	1.327923	-1.245682	99
Es	0.106350	1.478200	-0.659316	99
Es	1.110117	2.413527	0.837978	99
Es	0.578711	1.052327	-1.184745	99
Es	0.299273	3.232857	0.442931	99
Es	0.035209	1.982578	0.237444	99
Es	-0.737949	-1.513900	1.585488	99
Es	-1.352014	-1.001163	1.410127	99
Es	-1.275859	-0.781141	-0.520411	99
Es	0.040318	2.545874	1.403765	99
Es	0.014590	-2.166421	-0.678441	99
Es	-0.105886	0.976466	0.078269	99
Es	-0.697798	-0.955159	-0.081144	99
Es	-0.228504	-0.359266	-0.027667	99
Es	-0.452610	-2.749793	-0.725088	99
Es	0.245908	0.897598	-1.826000	99
Es	0.779503	0.112590	0.536315	99
Es	0.603248	-2.365889	-0.255706	99
Es	-0.281549	1.577087	-0.135151	99
Es	0.532376	0.467854	-0.666188	99
Es	-0.625429	1.614843	-0.207187	99
Es	-1.205700	-1.281365	1.252347	99
Es	0.265323	-2.011799	-1.366584	99
Es	-0.325163	-1.568934	-0.387610	99
Es	-0.975474	-1.163922	0.675612	99
Es	0.239780	0.218390	0.035104	99
Es	0.368806	2.548967	0.736131	99
47
Properties=species:S:1:pos:R:3:Z:I:1 energy=-305.2761591509063 field_type=dipole dipole="0.000000 0.000000 0.000000" charge=0
C	0.014583	-2.166414	-0.678437	6
C	-0.697807	-0.955104	-0.081277	6
N	-1.205947	-1.280894	1.252603	7
C	0.239833	0.218176	0.035203	6
C	0.578833	1.052306	-1.184947	6
N	-0.282197	1.577226	-0.135237	7
C	0.368853	2.549056	0.736213	6
H	0.383593	-1.940454	-1.684877	1
H	-0.662177	-3.024404	-0.754717	1
H	0.878293	-2.465304	-0.073227	1
H	-1.550467	-0.696514	-0.720707	1
H	-0.452407	-1.639794	1.834263	1
H	-1.890967	-2.030154	1.176553	1
H	1.030073	0.055606	0.760453	1
H	0.085783	0.828096	-2.124257	1
H	1.582502	1.448546	-1.279667	1
H	-0.119327	2.549276	1.716333	1
H	0.259753	3.552206	0.311293	1
H	1.439203	2.368546	0.894433	1
Es	0.239781	0.218393	0.035099	99
Es	1.110108	2.413541	0.838035	99
Es	-1.351824	-1.001449	1.409922	99
Es	-0.975599	-1.163871	0.675551	99
Es	-0.697798	-0.955160	-0.081144	99
Es	0.035111	1.982911	0.237374	99
Es	-1.205705	-1.281371	1.252357	99
Es	-0.452524	-2.749928	-0.724962	99
Es	-0.737903	-1.513736	1.585623	99
Es	0.532681	0.467817	-0.666393	99
Es	-0.228507	-0.359387	-0.027496	99
Es	0.299290	3.232857	0.442968	99
Es	0.603160	-2.365774	-0.255864	99
Es	-0.105802	0.976278	0.078562	99
Es	0.245889	0.897703	-1.826018	99
Es	-0.281578	1.577095	-0.135139	99
Es	-0.325131	-1.568818	-0.387577	99
Es	1.262546	1.327854	-1.245727	99
Es	0.368806	2.548967	0.736131	99
Es	0.265346	-2.011851	-1.366636	99
Es	-1.604993	-1.749495	1.193415	99
Es	0.014590	-2.166420	-0.678440	99
Es	-1.275785	-0.781120	-0.520428	99
Es	0.105835	1.478445	-0.659680	99
Es	-0.624867	1.614450	-0.206736	99
Es	0.578712	1.052331	-1.184748	99
Es	0.779354	0.112692	0.536109	99
Es	0.040304	2.545880	1.403723	99
47
Properties=species:S:1:pos:R:3:Z:I:1 energy=-305.2761591509063 field_type=dipole dipole="0.000000 0.000000 0.000000" charge=0
C	0.014583	-2.166414	-0.678437	6
C	-0.697807	-0.955104	-0.081277	6
N	-1.205947	-1.280894	1.252603	7
C	0.239833	0.218176	0.035203	6
C	0.578833	1.052306	-1.184947	6
N	-0.282197	1.577226	-0.135237	7
C	0.368853	2.549056	0.736213	6
H	0.383593	-1.940454	-1.684877	1
H	-0.662177	-3.024404	-0.754717	1
H	0.878293	-2.465304	-0.073227	1
H	-1.550467	-0.696514	-0.720707	1
H	-0.452407	-1.639794	1.834263	1
H	-1.890967	-2.030154	1.176553	1
H	1.030073	0.055606	0.760453	1
H	0.085783	0.828096	-2.124257	1
H	1.582502	1.448546	-1.279667	1
H	-0.119327	2.549276	1.716333	1
H	0.259753	3.552206	0.311293	1
H	1.439203	2.368546	0.894433	1
Es	0.105670	1.479239	-0.660248	99
Es	0.603168	-2.365783	-0.255912	99
Es	-0.105413	0.976242	0.078286	99
Es	-0.975416	-1.164303	0.675574	99
Es	-1.604697	-1.749629	1.193442	99
Es	-0.325159	-1.568773	-0.387618	99
Es	-0.281555	1.577085	-0.135154	99
Es	0.368806	2.548968	0.736131	99
Es	1.110074	2.413547	0.837934	99
Es	-0.624758	1.614133	-0.206223	99
Es	0.779427	0.112555	0.536199	99
Es	0.265320	-2.011864	-1.366641	99
Es	0.532625	0.467581	-0.666306	99
Es	0.578707	1.052347	-1.184745	99
Es	-1.275756	-0.781101	-0.520370	99
Es	-1.205696	-1.281377	1.252344	99
Es	0.040458	2.545837	1.403756	99
Es	0.245958	0.897637	-1.825937	99
Es	-0.697798	-0.955158	-0.081148	99
Es	0.034667	1.982729	0.237517	99
Es	0.014591	-2.166421	-0.678442	99
Es	-0.228523	-0.359175	-0.027506	99
Es	-1.352200	-1.001224	1.409675	99
Es	1.262468	1.327808	-1.245798	99
Es	-0.452503	-2.749932	-0.724945	99
Es	0.299258	3.232918	0.443023	99
Es	0.239782	0.218379	0.035112	99
Es	-0.738008	-1.513429	1.585881	99
47
Properties=species:S:1:pos:R:3:Z:I:1 energy=-305.2761591509063 field_type=dipole dipole="0.000000 0.000000 0.000000" charge=0
C	0.014583	-2.166414	-0.678437	6
C	-0.697807	-0.955104	-0.081277	6
N	-1.205947	-1.280894	1.252603	7
C	0.239833	0.218176	0.035203	6
C	0.578833	1.052306	-1.184947	6
N	-0.282197	1.577226	-0.135237	7
C	0.368853	2.549056	0.736213	6
H	0.383593	-1.940454	-1.684877	1
H	-0.662177	-3.024404	-0.754717	1
H	0.878293	-2.465304	-0.073227	1
H	-1.550467	-0.696514	-0.720707	1
H	-0.452407	-1.639794	1.834263	1
H	-1.890967	-2.030154	1.176553	1
H	1.030073	0.055606	0.760453	1
H	0.085783	0.828096	-2.124257	1
H	1.582502	1.448546	-1.279667	1
H	-0.119327	2.549276	1.716333	1
H	0.259753	3.552206	0.311293	1
H	1.439203	2.368546	0.894433	1
Es	-1.205699	-1.281357	1.252362	99
Es	-0.624121	1.614498	-0.206722	99
Es	0.105884	1.478836	-0.660042	99
Es	0.040381	2.545852	1.403728	99
Es	0.239781	0.218398	0.035099	99
Es	1.262315	1.327870	-1.245792	99
Es	0.299279	3.232886	0.443023	99
Es	-0.325070	-1.568711	-0.387638	99
Es	0.014591	-2.166421	-0.678441	99
Es	-0.738037	-1.513651	1.585687	99
Es	0.246042	0.897743	-1.825926	99
Es	0.034604	1.982917	0.237349	99
Es	0.779184	0.112629	0.536178	99
Es	0.368808	2.548972	0.736134	99
Es	0.603096	-2.365893	-0.255853	99
Es	0.265416	-2.011914	-1.366593	99
Es	-0.975470	-1.164012	0.675509	99
Es	-0.281548	1.577088	-0.135150	99
Es	-0.452577	-2.749850	-0.725018	99
Es	0.533029	0.467392	-0.666524	99
Es	-1.604770	-1.749528	1.193437	99
Es	-1.275760	-0.781063	-0.520406	99
Es	-0.228479	-0.359286	-0.027465	99
Es	-0.106314	0.976074	0.078909	99
Es	-1.352048	-1.001381	1.409923	99
Es	-0.697798	-0.955160	-0.081144	99
Es	1.110073	2.413580	0.838004	99
Es	0.578709	1.052331	-1.184745	99
47
Properties=species:S:1:pos:R:3:Z:I:1 energy=-305.2761591509063 field_type=dipole dipole="0.000000 0.000000 0.000000" charge=0
C	0.014583	-2.166414	-0.678437	6
C	-0.697807	-0.955104	-0.081277	6
N	-1.205947	-1.280894	1.252603	7
C	0.239833	0.218176	0.035203	6
C	0.578833	1.052306	-1.184947	6
N	-0.282197	1.577226	-0.135237	7
C	0.368853	2.549056	0.736213	6
H	0.383593	-1.940454	-1.684877	1
H	-0.662177	-3.024404	-0.754717	1
H	0.878293	-2.465304	-0.073227	1
H	-1.550467	-0.696514	-0.720707	1
H	-0.452407	-1.639794	1.834263	1
H	-1.890967	-2.030154	1.176553	1
H	1.030073	0.055606	0.760453	1
H	0.085783	0.828096	-2.124257	1
H	1.582502	1.448546	-1.279667	1
H	-0.119327	2.549276	1.716333	1
H	0.259753	3.552206	0.311293	1
H	1.439203	2.368546	0.894433	1
Es	-0.281665	1.577087	-0.135183	99
Es	-0.975665	-1.163621	0.675442	99
Es	-0.623671	1.614379	-0.206623	99
Es	0.368806	2.548968	0.736132	99
Es	0.265375	-2.011885	-1.366617	99
Es	1.262250	1.327857	-1.245855	99
Es	0.034414	1.983045	0.237308	99
Es	-0.325128	-1.568769	-0.387651	99
Es	0.779129	0.112609	0.536159	99
Es	1.110050	2.413572	0.838033	99
Es	-1.351735	-1.001686	1.410172	99
Es	0.533133	0.467154	-0.666585	99
Es	0.105786	1.478984	-0.660242	99
Es	-1.275648	-0.781056	-0.520349	99
Es	0.246086	0.897794	-1.825833	99
Es	-0.697798	-0.955160	-0.081146	99
Es	0.299321	3.232881	0.443030	99
Es	-1.604973	-1.749421	1.193522	99
Es	-1.205702	-1.281367	1.252356	99
Es	0.239778	0.218397	0.035104	99
Es	-0.738019	-1.513830	1.585487	99
Es	-0.452494	-2.749908	-0.724989	99
Es	-0.228502	-0.359214	-0.027456	99
Es	0.040381	2.545883	1.403718	99
Es	0.578710	1.052330	-1.184744	99
Es	0.014589	-2.166417	-0.678440	99
Es	0.603114	-2.365839	-0.255918	99
Es	-0.106425	0.976067	0.079051	99
47
Properties=species:S:1:pos:R:3:Z:I:1 energy=-305.2761591509063 field_type=dipole dipole="0.000000 0.000000 0.000000" charge=0
C	0.014583	-2.166414	-0.678437	6
C	-0.697807	-0.955104	-0.081277	6
N	-1.205947	-1.280894	1.252603	7
C	0.239833	0.218176	0.035203	6
C	0.578833	1.052306	-1.184947	6
N	-0.282197	1.577226	-0.135237	7
C	0.368853	2.549056	0.736213	6
H	0.383593	-1.940454	-1.684877	1
H	-0.662177	-3.024404	-0.754717	1
H	0.878293	-2.465304	-0.073227	1
H	-1.550467	-0.696514	-0.720707	1
H	-0.452407	-1.639794	1.834263	1
H	-1.890967	-2.030154	1.176553	1
H	1.030073	0.055606	0.760453	1
H	0.085783	0.828096	-2.124257	1
H	1.582502	1.448546	-1.279667	1
H	-0.119327	2.549276	1.716333	1
H	0.259753	3.552206	0.311293	1
H	1.439203	2.368546	0.894433	1
Es	0.779014	0.112645	0.536130	99
Es	-0.738053	-1.513821	1.585493	99
Es	0.299348	3.232878	0.443037	99
Es	0.014593	-2.166421	-0.678442	99
Es	1.262111	1.327877	-1.245858	99
Es	-0.452456	-2.749848	-0.725012	99
Es	0.040409	2.545904	1.403731	99
Es	-0.325156	-1.568727	-0.387679	99
Es	-1.351727	-1.001735	1.410174	99
Es	0.265325	-2.011923	-1.366598	99
Es	0.578709	1.052331	-1.184744	99
Es	-1.604944	-1.749407	1.193563	99
Es	0.105642	1.479160	-0.660465	99
Es	-0.106649	0.975935	0.079163	99
Es	0.239781	0.218395	0.035100	99
Es	-0.228496	-0.359225	-0.027418	99
Es	-1.205724	-1.281321	1.252370	99
Es	-0.281555	1.577086	-0.135154	99
Es	-0.623377	1.614407	-0.206529	99
Es	-1.275633	-0.781062	-0.520358	99
Es	0.533340	0.466930	-0.666652	99
Es	0.368807	2.548969	0.736132	99
Es	0.603172	-2.365884	-0.255887	99
Es	0.034280	1.983050	0.237310	99
Es	1.110019	2.413582	0.838025	99
Es	0.246166	0.897863	-1.825817	99
Es	-0.975651	-1.163642	0.675413	99
Es	-0.697798	-0.955159	-0.081147	99
47
Properties=species:S:1:pos:R:3:Z:I:1 energy=-305.2761591509063 field_type=dipole dipole="0.000000 0.000000 0.000000" charge=0
C	0.014583	-2.166414	-0.678437	6
C	-0.697807	-0.955104	-0.081277	6
N	-1.205947	-1.280894	1.252603	7
C	0.239833	0.218176	0.035203	6
C	0.578833	1.052306	-1.184947	6
N	-0.282197	1.577226	-0.135237	7
C	0.368853	2.549056	0.736213	6
H	0.383593	-1.940454	-1.684877	1
H	-0.662177	-3.024404	-0.754717	1
H	0.878293	-2.465304	-0.073227	1
H	-1.550467	-0.696514	-0.720707	1
H	-0.452407	-1.639794	1.834263	1
H	-1.890967	-2.030154	1.176553	1
H	1.030073	0.055606	0.760453	1
H	0.085783	0.828096	-2.124257	1
H	1.582502	1.448546	-1.279667	1
H	-0.119327	2.549276	1.716333	1
H	0.259753	3.552206	0.311293	1
H	1.439203	2.368546	0.894433	1
Es	0.533453	0.466818	-0.666735	99
Es	1.262033	1.327866	-1.245889	99
Es	0.778932	0.112655	0.536078	99
Es	0.603116	-2.365980	-0.255893	99
Es	-0.623131	1.614416	-0.206545	99
Es	0.239782	0.218394	0.035100	99
Es	-0.106788	0.975804	0.079422	99
Es	-0.737941	-1.513626	1.585819	99
Es	0.265379	-2.011852	-1.366586	99
Es	-1.275591	-0.781036	-0.520335	99
Es	-0.975703	-1.163711	0.675468	99
Es	-1.605288	-1.749305	1.193695	99
Es	0.246230	0.897907	-1.825756	99
Es	-0.325212	-1.568760	-0.387615	99
Es	-0.281552	1.577076	-0.135159	99
Es	-1.205707	-1.281353	1.252352	99
Es	0.040368	2.545957	1.403722	99
Es	-1.351484	-1.001920	1.409701	99
Es	0.299431	3.232865	0.443018	99
Es	1.109974	2.413552	0.838080	99
Es	0.578709	1.052333	-1.184745	99
Es	0.105642	1.479291	-0.660590	99
Es	-0.452396	-2.749812	-0.725124	99
Es	0.014591	-2.166421	-0.678442	99
Es	0.368807	2.548970	0.736133	99
Es	-0.697798	-0.955159	-0.081147	99
Es	0.034121	1.983101	0.237233	99
Es	-0.228481	-0.359235	-0.027379	99
