47
Properties=species:S:1:pos:R:3:Z:I:1 energy=-305.2762679844236 field_type=dipole dipole="0.000000 0.000000 0.000000" charge=0
C	-0.562998	-1.378086	-1.388218	6
C	-0.375748	-0.914016	0.054662	6
N	0.354282	-1.934146	0.810972	7
C	0.392852	0.401624	0.085882	6
C	-0.345168	1.660293	-0.425968	6
N	0.282672	2.430774	0.673082	7
C	0.419782	1.162584	1.432102	6
H	-1.138288	-0.643436	-1.962648	1
H	-1.104708	-2.329596	-1.429788	1
H	0.398912	-1.510746	-1.897478	1
H	-1.362088	-0.786286	0.515362	1
H	1.232322	-2.153026	0.340972	1
H	-0.180308	-2.802836	0.811822	1
H	1.397912	0.309944	-0.355668	1
H	-1.438758	1.622304	-0.355098	1
H	-0.071678	1.992184	-1.431848	1
H	1.184172	2.833774	0.415112	1
H	1.345482	1.072384	2.008101	1
H	-0.428648	0.966314	2.098652	1
Es	-0.168668	1.027555	1.874828	99
Es	0.042346	-1.509803	0.465273	99
Es	0.419775	1.162700	1.432000	99
Es	0.013191	-0.266249	0.064317	99
Es	0.354210	-1.934286	0.810469	99
Es	-0.932451	-2.030796	-1.411533	99
Es	-0.956714	-0.873442	-1.779741	99
Es	0.392826	0.401645	0.085886	99
Es	-0.345092	1.660344	-0.425859	99
Es	1.056713	1.106144	1.829869	99
Es	1.081695	0.338237	-0.217746	99
Es	0.838341	2.633403	0.499971	99
Es	0.373999	1.909381	1.043715	99
Es	0.100975	-1.468447	-1.728324	99
Es	0.283007	2.430322	0.672820	99
Es	-1.053426	-0.823052	0.370194	99
Es	-0.375663	-0.914132	0.054685	99
Es	0.876620	-2.065172	0.503735	99
Es	-0.007683	0.975205	-0.255736	99
Es	-1.092653	1.624722	-0.367742	99
Es	0.080311	2.693921	0.824550	99
Es	-0.473577	-1.147810	-0.687232	99
Es	0.026677	-2.459333	0.787517	99
Es	-0.158820	1.891921	-1.120571	99
Es	0.429780	0.694960	0.803105	99
Es	0.418309	-1.831387	1.145407	99
Es	-0.563003	-1.378085	-1.388237	99
Es	0.010137	2.143405	0.157141	99
47
Properties=species:S:1:pos:R:3:Z:I:1 energy=-305.2762679844236 field_type=dipole dipole="0.000000 0.000000 0.000000" charge=0
C	-0.562998	-1.378086	-1.388218	6
C	-0.375748	-0.914016	0.054662	6
N	0.354282	-1.934146	0.810972	7
C	0.392852	0.401624	0.085882	6
C	-0.345168	1.660293	-0.425968	6
N	0.282672	2.430774	0.673082	7
C	0.419782	1.162584	1.432102	6
H	-1.138288	-0.643436	-1.962648	1
H	-1.104708	-2.329596	-1.429788	1
H	0.398912	-1.510746	-1.897478	1
H	-1.362088	-0.786286	0.515362	1
H	1.232322	-2.153026	0.340972	1
H	-0.180308	-2.802836	0.811822	1
H	1.397912	0.309944	-0.355668	1
H	-1.438758	1.622304	-0.355098	1
H	-0.071678	1.992184	-1.431848	1
H	1.184172	2.833774	0.415112	1
H	1.345482	1.072384	2.008101	1
H	-0.428648	0.966314	2.098652	1
Es	0.013163	-0.266147	0.064332	99
Es	0.100915	-1.468543	-1.728319	99
Es	-0.158840	1.891917	-1.120619	99
Es	0.373904	1.909613	1.043955	99
Es	-0.932468	-2.030698	-1.411613	99
Es	0.354186	-1.934310	0.810439	99
Es	0.026678	-2.459217	0.788361	99
Es	1.056680	1.106138	1.829913	99
Es	0.419775	1.162699	1.432002	99
Es	-0.473595	-1.147901	-0.687169	99
Es	0.429817	0.694854	0.803158	99
Es	-0.956687	-0.873333	-1.779748	99
Es	-1.092590	1.624673	-0.367740	99
Es	-0.563003	-1.378084	-1.388238	99
Es	0.419335	-1.830771	1.145575	99
Es	0.838460	2.634319	0.500144	99
Es	0.080144	2.693040	0.824140	99
Es	0.283016	2.430328	0.672811	99
Es	0.875864	-2.065579	0.502870	99
Es	0.042098	-1.510148	0.465153	99
Es	0.010241	2.143229	0.157222	99
Es	-0.007731	0.975312	-0.255813	99
Es	-0.345092	1.660344	-0.425864	99
Es	-0.168561	1.027553	1.874781	99
Es	-1.053343	-0.823068	0.370188	99
Es	1.081633	0.338142	-0.217731	99
Es	0.392827	0.401644	0.085885	99
Es	-0.375662	-0.914133	0.054686	99
47
Properties=species:S:1:pos:R:3:Z:I:1 energy=-305.2762679844236 field_type=dipole dipole="0.000000 0.000000 0.000000" charge=0
C	-0.562998	-1.378086	-1.388218	6
C	-0.375748	-0.914016	0.054662	6
N	0.354282	-1.934146	0.810972	7
C	0.392852	0.401624	0.085882	6
C	-0.345168	1.660293	-0.425968	6
N	0.282672	2.430774	0.673082	7
C	0.419782	1.162584	1.432102	6
H	-1.138288	-0.643436	-1.962648	1
H	-1.104708	-2.329596	-1.429788	1
H	0.398912	-1.510746	-1.897478	1
H	-1.362088	-0.786286	0.515362	1
H	1.232322	-2.153026	0.340972	1
H	-0.180308	-2.802836	0.811822	1
H	1.397912	0.309944	-0.355668	1
H	-1.438758	1.622304	-0.355098	1
H	-0.071678	1.992184	-1.431848	1
H	1.184172	2.833774	0.415112	1
H	1.345482	1.072384	2.008101	1
H	-0.428648	0.966314	2.098652	1
Es	-0.473740	-1.147767	-0.687160	99
Es	0.838300	2.634305	0.500104	99
Es	-0.168433	1.027519	1.874888	99
Es	0.373959	1.909551	1.044015	99
Es	0.009890	2.143534	0.157117	99
Es	1.056653	1.106181	1.829800	99
Es	-0.345092	1.660344	-0.425864	99
Es	0.100887	-1.468475	-1.728341	99
Es	0.026764	-2.459403	0.788455	99
Es	0.429690	0.694812	0.803109	99
Es	-0.375662	-0.914133	0.054685	99
Es	0.392828	0.401644	0.085884	99
Es	0.282990	2.430345	0.672832	99
Es	-1.053207	-0.823031	0.370188	99
Es	0.354185	-1.934326	0.810430	99
Es	0.080549	2.692946	0.824211	99
Es	-1.092529	1.624755	-0.367824	99
Es	0.419350	-1.830653	1.145480	99
Es	-0.563003	-1.378085	-1.388238	99
Es	-0.007681	0.975104	-0.255924	99
Es	0.013219	-0.266178	0.064305	99
Es	-0.932432	-2.030772	-1.411578	99
Es	-0.956675	-0.873496	-1.779791	99
Es	0.875830	-2.065418	0.502945	99
Es	0.042017	-1.510258	0.465131	99
Es	-0.158950	1.891928	-1.120472	99
Es	1.081680	0.338199	-0.217630	99
Es	0.419777	1.162697	1.432001	99
47
Properties=species:S:1:pos:R:3:Z:I:1 energy=-305.2762679844236 field_type=dipole dipole="0.000000 0.000000 0.000000" charge=0
C	-0.562998	-1.378086	-1.388218	6
C	-0.375748	-0.914016	0.054662	6
N	0.354282	-1.934146	0.810972	7
C	0.392852	0.401624	0.085882	6
C	-0.345168	1.660293	-0.425968	6
N	0.282672	2.430774	0.673082	7
C	0.419782	1.162584	1.432102	6
H	-1.138288	-0.643436	-1.962648	1
H	-1.104708	-2.329596	-1.429788	1
H	0.398912	-1.510746	-1.897478	1
H	-1.362088	-0.786286	0.515362	1
H	1.232322	-2.153026	0.340972	1
H	-0.180308	-2.802836	0.811822	1
H	1.397912	0.309944	-0.355668	1
H	-1.438758	1.622304	-0.355098	1
H	-0.071678	1.992184	-1.431848	1
H	1.184172	2.833774	0.415112	1
H	1.345482	1.072384	2.008101	1
H	-0.428648	0.966314	2.098652	1
Es	-0.168482	1.027556	1.874834	99
Es	-0.956626	-0.873545	-1.779728	99
Es	0.373902	1.909574	1.044293	99
Es	0.392826	0.401644	0.085887	99
Es	0.013227	-0.266158	0.064305	99
Es	0.009757	2.143731	0.156980	99
Es	0.026889	-2.459417	0.788468	99
Es	0.283011	2.430325	0.672816	99
Es	0.875797	-2.065385	0.502966	99
Es	0.080890	2.692591	0.823937	99
Es	0.429980	0.694642	0.803199	99
Es	-0.932483	-2.030791	-1.411617	99
Es	-0.159080	1.891920	-1.120438	99
Es	0.354187	-1.934316	0.810440	99
Es	0.041914	-1.510208	0.465150	99
Es	-0.007722	0.975146	-0.255996	99
Es	0.838279	2.634556	0.500250	99
Es	-0.473676	-1.147706	-0.687163	99
Es	1.081528	0.338179	-0.217714	99
Es	-1.053233	-0.823033	0.370136	99
Es	-0.345089	1.660348	-0.425864	99
Es	-0.563002	-1.378087	-1.388236	99
Es	0.419776	1.162700	1.432000	99
Es	0.419379	-1.830744	1.145461	99
Es	1.056482	1.106204	1.829886	99
Es	0.100886	-1.468434	-1.728388	99
Es	-1.092491	1.624710	-0.367790	99
Es	-0.375662	-0.914133	0.054686	99
47
Properties=species:S:1:pos:R:3:Z:I:1 energy=-305.2762679844236 field_type=dipole dipole="0.000000 0.000000 0.000000" charge=0
C	-0.562998	-1.378086	-1.388218	6
C	-0.375748	-0.914016	0.054662	6
N	0.354282	-1.934146	0.810972	7
C	0.392852	0.401624	0.085882	6
C	-0.345168	1.660293	-0.425968	6
N	0.282672	2.430774	0.673082	7
C	0.419782	1.162584	1.432102	6
H	-1.138288	-0.643436	-1.962648	1
H	-1.104708	-2.329596	-1.429788	1
H	0.398912	-1.510746	-1.897478	1
H	-1.362088	-0.786286	0.515362	1
H	1.232322	-2.153026	0.340972	1
H	-0.180308	-2.802836	0.811822	1
H	1.397912	0.309944	-0.355668	1
H	-1.438758	1.622304	-0.355098	1
H	-0.071678	1.992184	-1.431848	1
H	1.184172	2.833774	0.415112	1
H	1.345482	1.072384	2.008101	1
H	-0.428648	0.966314	2.098652	1
Es	0.013305	-0.266229	0.064336	99
Es	-0.375662	-0.914133	0.054686	99
Es	-0.956638	-0.873506	-1.779765	99
Es	-0.007816	0.974987	-0.256018	99
Es	-0.473726	-1.147714	-0.687169	99
Es	0.419444	-1.830834	1.145294	99
Es	-1.092465	1.624798	-0.367930	99
Es	0.430076	0.694639	0.803263	99
Es	0.100875	-1.468487	-1.728367	99
Es	0.419774	1.162700	1.431999	99
Es	1.056371	1.106173	1.829916	99
Es	0.373939	1.909769	1.044451	99
Es	0.875804	-2.065493	0.502942	99
Es	-0.168450	1.027538	1.874792	99
Es	0.041882	-1.510119	0.465190	99
Es	-1.053163	-0.823018	0.370137	99
Es	0.283019	2.430323	0.672816	99
Es	1.081426	0.338252	-0.217731	99
Es	-0.932460	-2.030743	-1.411630	99
Es	0.080929	2.692513	0.823787	99
Es	0.354186	-1.934310	0.810424	99
Es	0.009723	2.143695	0.156960	99
Es	-0.345096	1.660344	-0.425869	99
Es	-0.563003	-1.378085	-1.388239	99
Es	-0.159047	1.891871	-1.120331	99
Es	0.026865	-2.459350	0.788650	99
Es	0.392826	0.401646	0.085888	99
Es	0.838246	2.634643	0.500280	99
47
Properties=species:S:1:pos:R:3:Z:I:1 energy=-305.2762679844236 field_type=dipole dipole="0.000000 0.000000 0.000000" charge=0
C	-0.562998	-1.378086	-1.388218	6
C	-0.375748	-0.914016	0.054662	6
N	0.354282	-1.934146	0.810972	7
C	0.392852	0.401624	0.085882	6
C	-0.345168	1.660293	-0.425968	6
N	0.282672	2.430774	0.673082	7
C	0.419782	1.162584	1.432102	6
H	-1.138288	-0.643436	-1.962648	1
H	-1.104708	-2.329596	-1.429788	1
H	0.398912	-1.510746	-1.897478	1
H	-1.362088	-0.786286	0.515362	1
H	1.232322	-2.153026	0.340972	1
H	-0.180308	-2.802836	0.811822	1
H	1.397912	0.309944	-0.355668	1
H	-1.438758	1.622304	-0.355098	1
H	-0.071678	1.992184	-1.431848	1
H	1.184172	2.833774	0.415112	1
H	1.345482	1.072384	2.008101	1
H	-0.428648	0.966314	2.098652	1
Es	0.392825	0.401646	0.085887	99
Es	-0.375662	-0.914133	0.054687	99
Es	0.013331	-0.266243	0.064421	99
Es	0.041828	-1.509773	0.465419	99
Es	0.418331	-1.831663	1.145189	99
Es	0.419776	1.162699	1.431999	99
Es	-1.053168	-0.822991	0.370139	99
Es	0.283009	2.430326	0.672832	99
Es	-0.932370	-2.030774	-1.411619	99
Es	0.838130	2.634740	0.500344	99
Es	0.354191	-1.934304	0.810454	99
Es	0.373848	1.909699	1.044754	99
Es	-0.159131	1.891909	-1.120316	99
Es	-0.007789	0.974946	-0.256232	99
Es	-0.473762	-1.147606	-0.687174	99
Es	0.876699	-2.065029	0.503728	99
Es	1.081396	0.338150	-0.217609	99
Es	-0.168331	1.027595	1.874753	99
Es	-1.092398	1.624827	-0.367917	99
Es	0.009468	2.143917	0.156834	99
Es	1.056379	1.106184	1.829969	99
Es	-0.956656	-0.873592	-1.779871	99
Es	0.100860	-1.468458	-1.728308	99
Es	0.027111	-2.459343	0.787706	99
Es	0.429975	0.694597	0.803188	99
Es	0.081369	2.692287	0.823604	99
Es	-0.345092	1.660342	-0.425865	99
Es	-0.563004	-1.378084	-1.388238	99
47
Properties=species:S:1:pos:R:3:Z:I:1 energy=-305.2762679844236 field_type=dipole dipole="0.000000 0.000000 0.000000" charge=0
C	-0.562998	-1.378086	-1.388218	6
C	-0.375748	-0.914016	0.054662	6
N	0.354282	-1.934146	0.810972	7
C	0.392852	0.401624	0.085882	6
C	-0.345168	1.660293	-0.425968	6
N	0.282672	2.430774	0.673082	7
C	0.419782	1.162584	1.432102	6
H	-1.138288	-0.643436	-1.962648	1
H	-1.104708	-2.329596	-1.429788	1
H	0.398912	-1.510746	-1.897478	1
H	-1.362088	-0.786286	0.515362	1
H	1.232322	-2.153026	0.340972	1
H	-0.180308	-2.802836	0.811822	1
H	1.397912	0.309944	-0.355668	1
H	-1.438758	1.622304	-0.355098	1
H	-0.071678	1.992184	-1.431848	1
H	1.184172	2.833774	0.415112	1
H	1.345482	1.072384	2.008101	1
H	-0.428648	0.966314	2.098652	1
Es	0.429889	0.694635	0.803283	99
Es	0.419777	1.162698	1.432001	99
Es	-0.563005	-1.378084	-1.388238	99
Es	0.041729	-1.510010	0.465252	99
Es	0.081574	2.691889	0.823458	99
Es	-0.473735	-1.147759	-0.687115	99
Es	-0.159086	1.891871	-1.120300	99
Es	0.419048	-1.831090	1.145122	99
Es	0.027052	-2.459447	0.788418	99
Es	1.056292	1.106134	1.829888	99
Es	0.009189	2.143889	0.156882	99
Es	1.081414	0.338152	-0.217608	99
Es	-0.956643	-0.873534	-1.779775	99
Es	-1.053085	-0.823020	0.370059	99
Es	-0.007720	0.974839	-0.256206	99
Es	0.392830	0.401645	0.085885	99
Es	0.354187	-1.934308	0.810462	99
Es	0.282998	2.430347	0.672833	99
Es	0.374018	1.909914	1.044886	99
Es	0.876117	-2.065262	0.503322	99
Es	-0.168291	1.027607	1.874823	99
Es	0.013231	-0.266170	0.064408	99
Es	0.838063	2.635080	0.500305	99
Es	0.100821	-1.468439	-1.728366	99
Es	-0.932394	-2.030750	-1.411717	99
Es	-0.345092	1.660341	-0.425867	99
Es	-0.375664	-0.914131	0.054684	99
Es	-1.092352	1.624831	-0.368021	99
47
Properties=species:S:1:pos:R:3:Z:I:1 energy=-305.2762679844236 field_type=dipole dipole="0.000000 0.000000 0.000000" charge=0
C	-0.562998	-1.378086	-1.388218	6
C	-0.375748	-0.914016	0.054662	6
N	0.354282	-1.934146	0.810972	7
C	0.392852	0.401624	0.085882	6
C	-0.345168	1.660293	-0.425968	6
N	0.282672	2.430774	0.673082	7
C	0.419782	1.162584	1.432102	6
H	-1.138288	-0.643436	-1.962648	1
H	-1.104708	-2.329596	-1.429788	1
H	0.398912	-1.510746	-1.897478	1
H	-1.362088	-0.786286	0.515362	1
H	1.232322	-2.153026	0.340972	1
H	-0.180308	-2.802836	0.811822	1
H	1.397912	0.309944	-0.355668	1
H	-1.438758	1.622304	-0.355098	1
H	-0.071678	1.992184	-1.431848	1
H	1.184172	2.833774	0.415112	1
H	1.345482	1.072384	2.008101	1
H	-0.428648	0.966314	2.098652	1
Es	0.419778	1.162697	1.431998	99
Es	0.392824	0.401645	0.085887	99
Es	0.009450	2.144103	0.156751	99
Es	0.026737	-2.459339	0.788739	99
Es	-1.053102	-0.823011	0.370122	99
Es	1.081277	0.338169	-0.217641	99
Es	-0.563003	-1.378085	-1.388239	99
Es	-0.375663	-0.914130	0.054684	99
Es	0.282974	2.430345	0.672837	99
Es	0.373991	1.909767	1.044779	99
Es	0.013276	-0.266213	0.064318	99
Es	-0.007791	0.974898	-0.256248	99
Es	1.056241	1.106107	1.829932	99
Es	0.041878	-1.509293	0.465500	99
Es	-0.159192	1.891867	-1.120221	99
Es	0.354193	-1.934319	0.810442	99
Es	0.100755	-1.468491	-1.728339	99
Es	0.081483	2.691853	0.823489	99
Es	0.875648	-2.065683	0.503074	99
Es	-0.473766	-1.147687	-0.687001	99
Es	-0.956588	-0.873560	-1.779849	99
Es	0.419745	-1.831494	1.144774	99
Es	-0.345092	1.660343	-0.425865	99
Es	-0.932390	-2.030708	-1.411766	99
Es	-0.168245	1.027644	1.874781	99
Es	0.838026	2.635150	0.500514	99
Es	0.430040	0.694447	0.803335	99
Es	-1.092321	1.624847	-0.368028	99
47
Properties=species:S:1:pos:R:3:Z:I:1 energy=-305.2762679844236 field_type=dipole dipole="0.000000 0.000000 0.000000" charge=0
C	-0.562998	-1.378086	-1.388218	6
C	-0.375748	-0.914016	0.054662	6
N	0.354282	-1.934146	0.810972	7
C	0.392852	0.401624	0.085882	6
C	-0.345168	1.660293	-0.425968	6
N	0.282672	2.430774	0.673082	7
C	0.419782	1.162584	1.432102	6
H	-1.138288	-0.643436	-1.962648	1
H	-1.104708	-2.329596	-1.429788	1
H	0.398912	-1.510746	-1.897478	1
H	-1.362088	-0.786286	0.515362	1
H	1.232322	-2.153026	0.340972	1
H	-0.180308	-2.802836	0.811822	1
H	1.397912	0.309944	-0.355668	1
H	-1.438758	1.622304	-0.355098	1
H	-0.071678	1.992184	-1.431848	1
H	1.184172	2.833774	0.415112	1
H	1.345482	1.072384	2.008101	1
H	-0.428648	0.966314	2.098652	1
Es	-0.345093	1.660343	-0.425865	99
Es	0.009369	2.144166	0.156634	99
Es	-0.007816	0.974860	-0.256410	99
Es	0.100807	-1.468522	-1.728368	99
Es	-0.375664	-0.914130	0.054684	99
Es	-1.053039	-0.822989	0.370110	99
Es	0.282986	2.430370	0.672842	99
Es	-0.168146	1.027628	1.874760	99
Es	0.354182	-1.934315	0.810445	99
Es	0.081738	2.691429	0.823188	99
Es	-0.956592	-0.873615	-1.779851	99
Es	0.419509	-1.831054	1.144744	99
Es	0.875868	-2.065562	0.503117	99
Es	0.041650	-1.509852	0.465207	99
Es	0.026970	-2.459388	0.789032	99
Es	0.013360	-0.266191	0.064342	99
Es	-1.092238	1.624828	-0.367967	99
Es	-0.473848	-1.147630	-0.687035	99
Es	-0.563004	-1.378085	-1.388239	99
Es	1.081287	0.338150	-0.217556	99
Es	0.430025	0.694344	0.803322	99
Es	-0.932399	-2.030664	-1.411727	99
Es	-0.159326	1.891876	-1.120236	99
Es	0.837948	2.635474	0.500644	99
Es	0.392825	0.401646	0.085887	99
Es	0.419777	1.162697	1.432001	99
Es	1.056135	1.106155	1.829961	99
Es	0.373893	1.909898	1.045093	99
47
Properties=species:S:1:pos:R:3:Z:I:1 energy=-305.2762679844236 field_type=dipole dipole="0.000000 0.000000 0.000000" charge=0
C	-0.562998	-1.378086	-1.388218	6
C	-0.375748	-0.914016	0.054662	6
N	0.354282	-1.934146	0.810972	7
C	0.392852	0.401624	0.085882	6
C	-0.345168	1.660293	-0.425968	6
N	0.282672	2.430774	0.673082	7
C	0.419782	1.162584	1.432102	6
H	-1.138288	-0.643436	-1.962648	1
H	-1.104708	-2.329596	-1.429788	1
H	0.398912	-1.510746	-1.897478	1
H	-1.362088	-0.786286	0.515362	1
H	1.232322	-2.153026	0.340972	1
H	-0.180308	-2.802836	0.811822	1
H	1.397912	0.309944	-0.355668	1
H	-1.438758	1.622304	-0.355098	1
H	-0.071678	1.992184	-1.431848	1
H	1.184172	2.833774	0.415112	1
H	1.345482	1.072384	2.008101	1
H	-0.428648	0.966314	2.098652	1
Es	0.041674	-1.510011	0.465024	99
Es	-0.375664	-0.914130	0.054684	99
Es	0.876106	-2.065450	0.503440	99
Es	-0.168120	1.027602	1.874781	99
Es	0.430137	0.694261	0.803342	99
Es	0.392825	0.401646	0.085887	99
Es	-0.563004	-1.378084	-1.388238	99
Es	0.008954	2.144302	0.156670	99
Es	0.082101	2.691481	0.823147	99
Es	0.354181	-1.934298	0.810488	99
Es	0.282977	2.430355	0.672843	99
Es	0.027040	-2.459467	0.788998	99
Es	0.419168	-1.830954	1.144636	99
Es	-0.345091	1.660342	-0.425865	99
Es	-0.159279	1.891909	-1.120130	99
Es	-1.092205	1.624843	-0.368128	99
Es	-1.052987	-0.822984	0.370081	99
Es	-0.007830	0.974785	-0.256409	99
Es	-0.473801	-1.147697	-0.687033	99
Es	0.419778	1.162695	1.432002	99
Es	0.013394	-0.266168	0.064332	99
Es	1.056051	1.106191	1.829937	99
Es	0.837966	2.635300	0.500565	99
Es	0.100749	-1.468470	-1.728413	99
Es	-0.956671	-0.873588	-1.779813	99
Es	1.081237	0.338163	-0.217579	99
Es	-0.932337	-2.030691	-1.411736	99
Es	0.373815	1.909984	1.045247	99
47
Properties=species:S:1:pos:R:3:Z:I:1 energy=-305.2762679844236 field_type=dipole dipole="0.000000 0.000000 0.000000" charge=0
C	-0.562998	-1.378086	-1.388218	6
C	-0.375748	-0.914016	0.054662	6
N	0.354282	-1.934146	0.810972	7
C	0.392852	0.401624	0.085882	6
C	-0.345168	1.660293	-0.425968	6
N	0.282672	2.430774	0.673082	7
C	0.419782	1.162584	1.432102	6
H	-1.138288	-0.643436	-1.962648	1
H	-1.104708	-2.329596	-1.429788	1
H	0.398912	-1.510746	-1.897478	1
H	-1.362088	-0.786286	0.515362	1
H	1.232322	-2.153026	0.340972	1
H	-0.180308	-2.802836	0.811822	1
H	1.397912	0.309944	-0.355668	1
H	-1.438758	1.622304	-0.355098	1
H	-0.071678	1.992184	-1.431848	1
H	1.184172	2.833774	0.415112	1
H	1.345482	1.072384	2.008101	1
H	-0.428648	0.966314	2.098652	1
Es	-0.007850	0.974752	-0.256517	99
Es	0.026887	-2.459381	0.789117	99
Es	0.100749	-1.468490	-1.728393	99
Es	0.081996	2.691182	0.823078	99
Es	-0.345091	1.660341	-0.425866	99
Es	0.354191	-1.934324	0.810430	99
Es	-0.563003	-1.378085	-1.388238	99
Es	0.373971	1.909990	1.045255	99
Es	0.419509	-1.831221	1.144491	99
Es	0.392825	0.401645	0.085887	99
Es	-1.092190	1.624885	-0.368085	99
Es	0.837816	2.635703	0.500716	99
Es	-0.375663	-0.914131	0.054685	99
Es	0.430171	0.694228	0.803436	99
Es	-0.473824	-1.147594	-0.687071	99
Es	0.041687	-1.509641	0.465358	99
Es	-1.052958	-0.822988	0.370067	99
Es	0.419778	1.162697	1.432000	99
Es	-0.932410	-2.030709	-1.411744	99
Es	1.056021	1.106201	1.829960	99
Es	0.282957	2.430335	0.672843	99
Es	0.009173	2.144249	0.156556	99
Es	0.875898	-2.065614	0.503209	99
Es	1.081145	0.338166	-0.217573	99
Es	-0.168079	1.027620	1.874766	99
Es	0.013383	-0.266185	0.064330	99
Es	-0.159354	1.891877	-1.120106	99
Es	-0.956570	-0.873637	-1.779832	99
47
Properties=species:S:1:pos:R:3:Z:I:1 energy=-305.2762679844236 field_type=dipole dipole="0.000000 0.000000 0.000000" charge=0
C	-0.562998	-1.378086	-1.388218	6
C	-0.375748	-0.914016	0.054662	6
N	0.354282	-1.934146	0.810972	7
C	0.392852	0.401624	0.085882	6
C	-0.345168	1.660293	-0.425968	6
N	0.282672	2.430774	0.673082	7
C	0.419782	1.162584	1.432102	6
H	-1.138288	-0.643436	-1.962648	1
H	-1.104708	-2.329596	-1.429788	1
H	0.398912	-1.510746	-1.897478	1
H	-1.362088	-0.786286	0.515362	1
H	1.232322	-2.153026	0.340972	1
H	-0.180308	-2.802836	0.811822	1
H	1.397912	0.309944	-0.355668	1
H	-1.438758	1.622304	-0.355098	1
H	-0.071678	1.992184	-1.431848	1
H	1.184172	2.833774	0.415112	1
H	1.345482	1.072384	2.008101	1
H	-0.428648	0.966314	2.098652	1
Es	0.008873	2.144455	0.156524	99
Es	-0.375664	-0.914129	0.054683	99
Es	0.041641	-1.509241	0.465855	99
Es	-0.563001	-1.378086	-1.388241	99
Es	0.283003	2.430350	0.672825	99
Es	0.013360	-0.266182	0.064370	99
Es	1.081115	0.338127	-0.217517	99
Es	0.430176	0.694152	0.803411	99
Es	-0.473806	-1.147555	-0.687048	99
Es	0.392822	0.401646	0.085888	99
Es	0.373809	1.910054	1.045540	99
Es	0.100713	-1.468581	-1.728427	99
Es	-0.345092	1.660342	-0.425866	99
Es	0.419778	1.162697	1.432000	99
Es	-0.956603	-0.873655	-1.779886	99
Es	-1.092181	1.624846	-0.368156	99
Es	0.082389	2.691008	0.822885	99
Es	0.875799	-2.065497	0.503017	99
Es	0.837817	2.635699	0.500742	99
Es	-0.159367	1.891882	-1.120038	99
Es	0.354185	-1.934307	0.810463	99
Es	-0.932380	-2.030625	-1.411706	99
Es	0.026953	-2.459263	0.788413	99
Es	-0.167997	1.027633	1.874782	99
Es	-0.007807	0.974783	-0.256622	99
Es	0.419595	-1.831892	1.144868	99
Es	-1.052911	-0.822992	0.370058	99
Es	1.055947	1.106201	1.829941	99
47
Properties=species:S:1:pos:R:3:Z:I:1 energy=-305.2762679844236 field_type=dipole dipole="0.000000 0.000000 0.000000" charge=0
C	-0.562998	-1.378086	-1.388218	6
C	-0.375748	-0.914016	0.054662	6
N	0.354282	-1.934146	0.810972	7
C	0.392852	0.401624	0.085882	6
C	-0.345168	1.660293	-0.425968	6
N	0.282672	2.430774	0.673082	7
C	0.419782	1.162584	1.432102	6
H	-1.138288	-0.643436	-1.962648	1
H	-1.104708	-2.329596	-1.429788	1
H	0.398912	-1.510746	-1.897478	1
H	-1.362088	-0.786286	0.515362	1
H	1.232322	-2.153026	0.340972	1
H	-0.180308	-2.802836	0.811822	1
H	1.397912	0.309944	-0.355668	1
H	-1.438758	1.622304	-0.355098	1
H	-0.071678	1.992184	-1.431848	1
H	1.184172	2.833774	0.415112	1
H	1.345482	1.072384	2.008101	1
H	-0.428648	0.966314	2.098652	1
Es	0.013418	-0.266203	0.064385	99
Es	-0.167979	1.027636	1.874770	99
Es	-0.563005	-1.378084	-1.388239	99
Es	0.419565	-1.831356	1.144592	99
Es	0.082616	2.691077	0.822877	99
Es	0.041567	-1.509634	0.465362	99
Es	-0.345092	1.660340	-0.425867	99
Es	0.392824	0.401647	0.085888	99
Es	0.373803	1.910078	1.045593	99
Es	-1.052850	-0.823004	0.370078	99
Es	-0.932386	-2.030633	-1.411805	99
Es	-1.092121	1.624834	-0.368195	99
Es	0.354177	-1.934305	0.810439	99
Es	-0.956555	-0.873652	-1.779859	99
Es	-0.007834	0.974703	-0.256613	99
Es	1.055888	1.106197	1.829953	99
Es	-0.473926	-1.147572	-0.687018	99
Es	0.875852	-2.065564	0.503173	99
Es	-0.375665	-0.914128	0.054683	99
Es	1.081102	0.338200	-0.217536	99
Es	0.008687	2.144618	0.156490	99
Es	0.283029	2.430298	0.672805	99
Es	0.027011	-2.459373	0.789021	99
Es	0.430200	0.694111	0.803437	99
Es	0.100728	-1.468536	-1.728403	99
Es	-0.159417	1.891884	-1.120003	99
Es	0.419778	1.162696	1.431999	99
Es	0.837750	2.635593	0.500754	99
47
Properties=species:S:1:pos:R:3:Z:I:1 energy=-305.2762679844236 field_type=dipole dipole="0.000000 0.000000 0.000000" charge=0
C	-0.562998	-1.378086	-1.388218	6
C	-0.375748	-0.914016	0.054662	6
N	0.354282	-1.934146	0.810972	7
C	0.392852	0.401624	0.085882	6
C	-0.345168	1.660293	-0.425968	6
N	0.282672	2.430774	0.673082	7
C	0.419782	1.162584	1.432102	6
H	-1.138288	-0.643436	-1.962648	1
H	-1.104708	-2.329596	-1.429788	1
H	0.398912	-1.510746	-1.897478	1
H	-1.362088	-0.786286	0.515362	1
H	1.232322	-2.153026	0.340972	1
H	-0.180308	-2.802836	0.811822	1
H	1.397912	0.309944	-0.355668	1
H	-1.438758	1.622304	-0.355098	1
H	-0.071678	1.992184	-1.431848	1
H	1.184172	2.833774	0.415112	1
H	1.345482	1.072384	2.008101	1
H	-0.428648	0.966314	2.098652	1
Es	-0.563004	-1.378084	-1.388238	99
Es	1.081056	0.338143	-0.217470	99
Es	0.283024	2.430326	0.672813	99
Es	-1.092063	1.624907	-0.368163	99
Es	-1.052839	-0.822985	0.370022	99
Es	-0.932340	-2.030647	-1.411799	99
Es	0.418623	-1.831594	1.144685	99
Es	0.041772	-1.509636	0.465167	99
Es	-0.159495	1.891850	-1.120003	99
Es	0.100687	-1.468511	-1.728416	99
Es	0.354202	-1.934321	0.810459	99
Es	-0.167955	1.027618	1.874773	99
Es	0.392821	0.401647	0.085891	99
Es	0.837672	2.635965	0.500865	99
Es	1.055841	1.106253	1.829960	99
Es	-0.007886	0.974647	-0.256739	99
Es	0.013426	-0.266159	0.064345	99
Es	0.419780	1.162696	1.431988	99
Es	0.008717	2.144705	0.156375	99
Es	0.373878	1.910017	1.045627	99
Es	-0.473895	-1.147549	-0.686969	99
Es	0.027176	-2.459436	0.788325	99
Es	0.082650	2.690676	0.822851	99
Es	-0.375665	-0.914130	0.054682	99
Es	0.876427	-2.065274	0.504013	99
Es	-0.956589	-0.873682	-1.779876	99
Es	0.430237	0.694086	0.803457	99
Es	-0.345091	1.660342	-0.425866	99
47
Properties=species:S:1:pos:R:3:Z:I:1 energy=-305.2762679844236 field_type=dipole dipole="0.000000 0.000000 0.000000" charge=0
C	-0.562998	-1.378086	-1.388218	6
C	-0.375748	-0.914016	0.054662	6
N	0.354282	-1.934146	0.810972	7
C	0.392852	0.401624	0.085882	6
C	-0.345168	1.660293	-0.425968	6
N	0.282672	2.430774	0.673082	7
C	0.419782	1.162584	1.432102	6
H	-1.138288	-0.643436	-1.962648	1
H	-1.104708	-2.329596	-1.429788	1
H	0.398912	-1.510746	-1.897478	1
H	-1.362088	-0.786286	0.515362	1
H	1.232322	-2.153026	0.340972	1
H	-0.180308	-2.802836	0.811822	1
H	1.397912	0.309944	-0.355668	1
H	-1.438758	1.622304	-0.355098	1
H	-0.071678	1.992184	-1.431848	1
H	1.184172	2.833774	0.415112	1
H	1.345482	1.072384	2.008101	1
H	-0.428648	0.966314	2.098652	1
Es	0.013425	-0.266177	0.064268	99
Es	0.419351	-1.831431	1.144387	99
Es	0.876027	-2.065528	0.503419	99
Es	-0.375662	-0.914132	0.054685	99
Es	0.430306	0.693910	0.803553	99
Es	0.373753	1.910171	1.045766	99
Es	0.027079	-2.459398	0.789055	99
Es	-0.932336	-2.030600	-1.411856	99
Es	0.008520	2.144802	0.156353	99
Es	1.080953	0.338136	-0.217488	99
Es	0.082950	2.690672	0.822690	99
Es	0.392823	0.401648	0.085888	99
Es	0.041541	-1.509581	0.465366	99
Es	-0.159509	1.891871	-1.119918	99
Es	0.837694	2.635840	0.500888	99
Es	0.419778	1.162696	1.431999	99
Es	1.055782	1.106189	1.829984	99
Es	-0.007895	0.974679	-0.256734	99
Es	-0.167873	1.027663	1.874736	99
Es	0.283007	2.430339	0.672823	99
Es	-1.092013	1.624921	-0.368262	99
Es	-0.956544	-0.873691	-1.779922	99
Es	-0.473985	-1.147578	-0.686922	99
Es	0.100689	-1.468548	-1.728379	99
Es	-0.563004	-1.378084	-1.388239	99
Es	0.354186	-1.934318	0.810445	99
Es	-0.345083	1.660338	-0.425859	99
Es	-1.052798	-0.822941	0.370033	99
47
Properties=species:S:1:pos:R:3:Z:I:1 energy=-305.2762679844236 field_type=dipole dipole="0.000000 0.000000 0.000000" charge=0
C	-0.562998	-1.378086	-1.388218	6
C	-0.375748	-0.914016	0.054662	6
N	0.354282	-1.934146	0.810972	7
C	0.392852	0.401624	0.085882	6
C	-0.345168	1.660293	-0.425968	6
N	0.282672	2.430774	0.673082	7
C	0.419782	1.162584	1.432102	6
H	-1.138288	-0.643436	-1.962648	1
H	-1.104708	-2.329596	-1.429788	1
H	0.398912	-1.510746	-1.897478	1
H	-1.362088	-0.786286	0.515362	1
H	1.232322	-2.153026	0.340972	1
H	-0.180308	-2.802836	0.811822	1
H	1.397912	0.309944	-0.355668	1
H	-1.438758	1.622304	-0.355098	1
H	-0.071678	1.992184	-1.431848	1
H	1.184172	2.833774	0.415112	1
H	1.345482	1.072384	2.008101	1
H	-0.428648	0.966314	2.098652	1
Es	1.055767	1.106208	1.829975	99
Es	0.392816	0.401651	0.085892	99
Es	-0.956576	-0.873692	-1.779892	99
Es	0.876089	-2.065447	0.503572	99
Es	0.419778	1.162697	1.431999	99
Es	0.282972	2.430353	0.672843	99
Es	-0.159543	1.891798	-1.119856	99
Es	-0.563004	-1.378084	-1.388239	99
Es	0.009057	2.144685	0.156262	99
Es	1.080979	0.338183	-0.217379	99
Es	-1.092037	1.624971	-0.368270	99
Es	0.837593	2.636153	0.501067	99
Es	0.430177	0.693967	0.803544	99
Es	0.027155	-2.459451	0.788967	99
Es	0.100683	-1.468562	-1.728429	99
Es	0.373659	1.910174	1.046134	99
Es	-0.167863	1.027672	1.874750	99
Es	0.354185	-1.934315	0.810448	99
Es	-0.345090	1.660342	-0.425865	99
Es	0.419244	-1.831510	1.144367	99
Es	-0.007875	0.974570	-0.256866	99
Es	0.013454	-0.266205	0.064295	99
Es	0.041528	-1.509545	0.465329	99
Es	-0.473922	-1.147564	-0.686937	99
Es	-0.375665	-0.914126	0.054681	99
Es	0.082732	2.690502	0.822205	99
Es	-0.932335	-2.030570	-1.411838	99
Es	-1.052794	-0.822984	0.369999	99
47
Properties=species:S:1:pos:R:3:Z:I:1 energy=-305.2762679844236 field_type=dipole dipole="0.000000 0.000000 0.000000" charge=0
C	-0.562998	-1.378086	-1.388218	6
C	-0.375748	-0.914016	0.054662	6
N	0.354282	-1.934146	0.810972	7
C	0.392852	0.401624	0.085882	6
C	-0.345168	1.660293	-0.425968	6
N	0.282672	2.430774	0.673082	7
C	0.419782	1.162584	1.432102	6
H	-1.138288	-0.643436	-1.962648	1
H	-1.104708	-2.329596	-1.429788	1
H	0.398912	-1.510746	-1.897478	1
H	-1.362088	-0.786286	0.515362	1
H	1.232322	-2.153026	0.340972	1
H	-0.180308	-2.802836	0.811822	1
H	1.397912	0.309944	-0.355668	1
H	-1.438758	1.622304	-0.355098	1
H	-0.071678	1.992184	-1.431848	1
H	1.184172	2.833774	0.415112	1
H	1.345482	1.072384	2.008101	1
H	-0.428648	0.966314	2.098652	1
Es	0.283006	2.430340	0.672824	99
Es	0.027105	-2.459451	0.789105	99
Es	-0.956525	-0.873678	-1.779929	99
Es	-0.375666	-0.914128	0.054682	99
Es	0.013473	-0.266175	0.064325	99
Es	-0.159605	1.891913	-1.119872	99
Es	-1.091876	1.624934	-0.368300	99
Es	-0.345099	1.660340	-0.425871	99
Es	0.392823	0.401647	0.085889	99
Es	1.080928	0.338158	-0.217445	99
Es	0.876001	-2.065494	0.503456	99
Es	0.041481	-1.509490	0.465439	99
Es	0.419414	-1.831568	1.144237	99
Es	0.430244	0.693893	0.803580	99
Es	-1.052769	-0.822962	0.369982	99
Es	0.008400	2.144881	0.156313	99
Es	0.354184	-1.934315	0.810449	99
Es	0.083152	2.690202	0.822311	99
Es	-0.473928	-1.147515	-0.686895	99
Es	0.100599	-1.468499	-1.728360	99
Es	-0.007858	0.974464	-0.256875	99
Es	-0.167740	1.027664	1.874802	99
Es	1.055690	1.106232	1.829913	99
Es	-0.932318	-2.030674	-1.411893	99
Es	0.373709	1.910266	1.046143	99
Es	0.419781	1.162692	1.432006	99
Es	0.837566	2.636275	0.500979	99
Es	-0.563006	-1.378082	-1.388237	99
