48
Properties=species:S:1:pos:R:3:Z:I:1 energy=-289.2734220385106 field_type=dipole dipole="0.000000 0.000000 0.000000" charge=0
C	-0.342215	-1.911343	-1.183323	6
C	-1.095195	-1.138473	-0.106443	6
N	-0.640955	0.257447	0.026467	7
C	-1.541715	0.977307	0.933097	6
C	0.761315	0.361877	0.480497	6
C	1.846505	0.540697	-0.549773	6
C	1.491125	1.674437	0.361527	6
H	-0.797846	-2.897713	-1.321593	1
H	0.705644	-2.069933	-0.910203	1
H	-0.377085	-1.388623	-2.144773	1
H	-1.012256	-1.670483	0.849767	1
H	-2.155675	-1.145853	-0.389053	1
H	-2.572445	0.946537	0.562867	1
H	-1.266175	2.035617	0.994937	1
H	-1.521686	0.559027	1.945977	1
H	1.010624	-0.239693	1.353677	1
H	1.559074	0.624627	-1.591823	1
H	2.787084	0.028887	-0.387923	1
H	2.190404	1.934667	1.146907	1
H	0.971464	2.520987	-0.070813	1
Es	1.649366	0.597409	-1.250277	99
Es	-1.349069	1.697616	0.978116	99
Es	1.803005	1.215102	-0.171025	99
Es	-1.095124	-1.138362	-0.106459	99
Es	-0.704849	-1.521330	-0.644536	99
Es	-1.527815	0.683915	1.635582	99
Es	-2.245898	0.946184	0.679644	99
Es	-0.658572	-2.584347	-1.271685	99
Es	-0.640907	0.257157	0.027095	99
Es	-1.024874	0.554333	0.449407	99
Es	-0.342238	-1.911333	-1.183300	99
Es	1.491095	1.674259	0.361476	99
Es	2.487417	0.193125	-0.434480	99
Es	0.370596	-2.018816	-0.994887	99
Es	0.761300	0.361985	0.480359	99
Es	1.135636	2.243476	0.070108	99
Es	-1.823529	-1.135949	-0.295465	99
Es	-0.368136	-1.554601	-1.835902	99
Es	-1.033936	-1.507316	0.560648	99
Es	0.933153	-0.053557	1.080780	99
Es	1.282701	0.266068	-0.095192	99
Es	1.846421	0.540767	-0.549631	99
Es	1.013886	1.095966	0.563764	99
Es	-0.821767	-0.355164	0.000508	99
Es	1.965666	1.846155	0.897078	99
Es	-1.541641	0.977244	0.933021	99
Es	-0.032327	0.288401	0.251696	99
Es	-0.658510	0.408398	-0.286779	99
48
Properties=species:S:1:pos:R:3:Z:I:1 energy=-289.2734220385106 field_type=dipole dipole="0.000000 0.000000 0.000000" charge=0
C	-0.342215	-1.911343	-1.183323	6
C	-1.095195	-1.138473	-0.106443	6
N	-0.640955	0.257447	0.026467	7
C	-1.541715	0.977307	0.933097	6
C	0.761315	0.361877	0.480497	6
C	1.846505	0.540697	-0.549773	6
C	1.491125	1.674437	0.361527	6
H	-0.797846	-2.897713	-1.321593	1
H	0.705644	-2.069933	-0.910203	1
H	-0.377085	-1.388623	-2.144773	1
H	-1.012256	-1.670483	0.849767	1
H	-2.155675	-1.145853	-0.389053	1
H	-2.572445	0.946537	0.562867	1
H	-1.266175	2.035617	0.994937	1
H	-1.521686	0.559027	1.945977	1
H	1.010624	-0.239693	1.353677	1
H	1.559074	0.624627	-1.591823	1
H	2.787084	0.028887	-0.387923	1
H	2.190404	1.934667	1.146907	1
H	0.971464	2.520987	-0.070813	1
Es	-0.032434	0.288329	0.252013	99
Es	1.846414	0.540762	-0.549622	99
Es	1.803284	1.215297	-0.171074	99
Es	0.933137	-0.053427	1.080810	99
Es	-0.640913	0.257164	0.027111	99
Es	1.965534	1.846219	0.897054	99
Es	-1.541641	0.977243	0.933021	99
Es	-1.349131	1.697542	0.978101	99
Es	-0.368179	-1.554601	-1.835906	99
Es	2.487346	0.193151	-0.434597	99
Es	1.013794	1.095949	0.563710	99
Es	-2.245932	0.946189	0.679651	99
Es	-1.033906	-1.507274	0.560615	99
Es	1.649413	0.597418	-1.250168	99
Es	-1.024809	0.554136	0.449404	99
Es	-1.095128	-1.138364	-0.106462	99
Es	-0.704847	-1.521373	-0.644588	99
Es	-1.823495	-1.135982	-0.295337	99
Es	-0.821805	-0.355118	0.000269	99
Es	0.370638	-2.018884	-0.994925	99
Es	-0.658599	-2.584278	-1.271676	99
Es	1.282575	0.265740	-0.095187	99
Es	-0.342233	-1.911342	-1.183300	99
Es	1.135745	2.243404	0.070104	99
Es	1.491103	1.674261	0.361478	99
Es	-0.658379	0.408632	-0.286797	99
Es	0.761297	0.361989	0.480360	99
Es	-1.527801	0.684000	1.635603	99
48
Properties=species:S:1:pos:R:3:Z:I:1 energy=-289.2734220385106 field_type=dipole dipole="0.000000 0.000000 0.000000" charge=0
C	-0.342215	-1.911343	-1.183323	6
C	-1.095195	-1.138473	-0.106443	6
N	-0.640955	0.257447	0.026467	7
C	-1.541715	0.977307	0.933097	6
C	0.761315	0.361877	0.480497	6
C	1.846505	0.540697	-0.549773	6
C	1.491125	1.674437	0.361527	6
H	-0.797846	-2.897713	-1.321593	1
H	0.705644	-2.069933	-0.910203	1
H	-0.377085	-1.388623	-2.144773	1
H	-1.012256	-1.670483	0.849767	1
H	-2.155675	-1.145853	-0.389053	1
H	-2.572445	0.946537	0.562867	1
H	-1.266175	2.035617	0.994937	1
H	-1.521686	0.559027	1.945977	1
H	1.010624	-0.239693	1.353677	1
H	1.559074	0.624627	-1.591823	1
H	2.787084	0.028887	-0.387923	1
H	2.190404	1.934667	1.146907	1
H	0.971464	2.520987	-0.070813	1
Es	1.282562	0.265564	-0.095206	99
Es	1.491102	1.674270	0.361481	99
Es	-1.034003	-1.507248	0.560566	99
Es	0.933099	-0.053346	1.080685	99
Es	-1.527892	0.683979	1.635557	99
Es	1.846421	0.540767	-0.549629	99
Es	0.761305	0.361983	0.480353	99
Es	1.965444	1.846227	0.896982	99
Es	-2.245866	0.946200	0.679657	99
Es	-1.823470	-1.135954	-0.295340	99
Es	-0.658603	-2.584341	-1.271692	99
Es	-0.704821	-1.521380	-0.644604	99
Es	-0.368119	-1.554633	-1.835878	99
Es	1.649510	0.597313	-1.250094	99
Es	-1.024693	0.553903	0.449587	99
Es	-0.032344	0.288515	0.251708	99
Es	-1.095127	-1.138365	-0.106461	99
Es	0.370599	-2.018847	-0.994922	99
Es	1.135826	2.243372	0.070167	99
Es	-0.658846	0.408576	-0.287078	99
Es	-0.640903	0.257134	0.027125	99
Es	1.013736	1.096021	0.563925	99
Es	-0.821584	-0.355035	0.000735	99
Es	1.803475	1.215445	-0.171205	99
Es	-0.342234	-1.911343	-1.183299	99
Es	2.487219	0.193147	-0.434612	99
Es	-1.541642	0.977245	0.933022	99
Es	-1.349104	1.697611	0.978135	99
48
Properties=species:S:1:pos:R:3:Z:I:1 energy=-289.2734220385106 field_type=dipole dipole="0.000000 0.000000 0.000000" charge=0
C	-0.342215	-1.911343	-1.183323	6
C	-1.095195	-1.138473	-0.106443	6
N	-0.640955	0.257447	0.026467	7
C	-1.541715	0.977307	0.933097	6
C	0.761315	0.361877	0.480497	6
C	1.846505	0.540697	-0.549773	6
C	1.491125	1.674437	0.361527	6
H	-0.797846	-2.897713	-1.321593	1
H	0.705644	-2.069933	-0.910203	1
H	-0.377085	-1.388623	-2.144773	1
H	-1.012256	-1.670483	0.849767	1
H	-2.155675	-1.145853	-0.389053	1
H	-2.572445	0.946537	0.562867	1
H	-1.266175	2.035617	0.994937	1
H	-1.521686	0.559027	1.945977	1
H	1.010624	-0.239693	1.353677	1
H	1.559074	0.624627	-1.591823	1
H	2.787084	0.028887	-0.387923	1
H	2.190404	1.934667	1.146907	1
H	0.971464	2.520987	-0.070813	1
Es	-1.095127	-1.138365	-0.106462	99
Es	-1.823465	-1.135977	-0.295281	99
Es	-1.024747	0.554051	0.449508	99
Es	-1.541643	0.977245	0.933022	99
Es	-0.368110	-1.554673	-1.835892	99
Es	1.965379	1.846268	0.896907	99
Es	0.933073	-0.053340	1.080567	99
Es	1.013615	1.096126	0.564130	99
Es	2.487135	0.193190	-0.434680	99
Es	-0.658823	0.408346	-0.286688	99
Es	1.282515	0.265398	-0.095157	99
Es	-1.527877	0.684004	1.635532	99
Es	1.803664	1.215589	-0.171323	99
Es	-0.342234	-1.911343	-1.183299	99
Es	1.135904	2.243308	0.070242	99
Es	-0.640908	0.257188	0.027038	99
Es	1.491101	1.674263	0.361478	99
Es	-1.349127	1.697579	0.978165	99
Es	1.846421	0.540766	-0.549629	99
Es	1.649560	0.597285	-1.250028	99
Es	0.761303	0.361985	0.480355	99
Es	-0.658555	-2.584312	-1.271702	99
Es	-2.245893	0.946216	0.679689	99
Es	-0.704866	-1.521369	-0.644567	99
Es	-0.821622	-0.355077	0.000609	99
Es	-0.032212	0.288538	0.251571	99
Es	-1.033988	-1.507236	0.560528	99
Es	0.370574	-2.018870	-0.994969	99
48
Properties=species:S:1:pos:R:3:Z:I:1 energy=-289.2734220385106 field_type=dipole dipole="0.000000 0.000000 0.000000" charge=0
C	-0.342215	-1.911343	-1.183323	6
C	-1.095195	-1.138473	-0.106443	6
N	-0.640955	0.257447	0.026467	7
C	-1.541715	0.977307	0.933097	6
C	0.761315	0.361877	0.480497	6
C	1.846505	0.540697	-0.549773	6
C	1.491125	1.674437	0.361527	6
H	-0.797846	-2.897713	-1.321593	1
H	0.705644	-2.069933	-0.910203	1
H	-0.377085	-1.388623	-2.144773	1
H	-1.012256	-1.670483	0.849767	1
H	-2.155675	-1.145853	-0.389053	1
H	-2.572445	0.946537	0.562867	1
H	-1.266175	2.035617	0.994937	1
H	-1.521686	0.559027	1.945977	1
H	1.010624	-0.239693	1.353677	1
H	1.559074	0.624627	-1.591823	1
H	2.787084	0.028887	-0.387923	1
H	2.190404	1.934667	1.146907	1
H	0.971464	2.520987	-0.070813	1
Es	1.282465	0.265132	-0.095124	99
Es	1.803861	1.215697	-0.171427	99
Es	-2.245898	0.946245	0.679720	99
Es	-0.821944	-0.355137	-0.000095	99
Es	2.487055	0.193237	-0.434754	99
Es	0.370559	-2.018811	-0.994947	99
Es	-0.658496	-2.584342	-1.271678	99
Es	1.965283	1.846291	0.896817	99
Es	-1.025228	0.554672	0.448878	99
Es	-0.368102	-1.554721	-1.835916	99
Es	1.013540	1.096232	0.564288	99
Es	-1.034017	-1.507252	0.560474	99
Es	-0.657542	0.408309	-0.286221	99
Es	-1.095126	-1.138364	-0.106462	99
Es	-1.823441	-1.135919	-0.295204	99
Es	-0.704952	-1.521387	-0.644670	99
Es	-0.032660	0.287997	0.252482	99
Es	1.491101	1.674263	0.361479	99
Es	-0.342233	-1.911343	-1.183299	99
Es	1.136027	2.243271	0.070272	99
Es	0.933042	-0.053267	1.080486	99
Es	-1.349123	1.697567	0.978183	99
Es	1.649597	0.597228	-1.249944	99
Es	1.846420	0.540769	-0.549627	99
Es	0.761305	0.361986	0.480355	99
Es	-1.541644	0.977246	0.933024	99
Es	-1.527876	0.684003	1.635517	99
Es	-0.640926	0.257180	0.027055	99
48
Properties=species:S:1:pos:R:3:Z:I:1 energy=-289.2734220385106 field_type=dipole dipole="0.000000 0.000000 0.000000" charge=0
C	-0.342215	-1.911343	-1.183323	6
C	-1.095195	-1.138473	-0.106443	6
N	-0.640955	0.257447	0.026467	7
C	-1.541715	0.977307	0.933097	6
C	0.761315	0.361877	0.480497	6
C	1.846505	0.540697	-0.549773	6
C	1.491125	1.674437	0.361527	6
H	-0.797846	-2.897713	-1.321593	1
H	0.705644	-2.069933	-0.910203	1
H	-0.377085	-1.388623	-2.144773	1
H	-1.012256	-1.670483	0.849767	1
H	-2.155675	-1.145853	-0.389053	1
H	-2.572445	0.946537	0.562867	1
H	-1.266175	2.035617	0.994937	1
H	-1.521686	0.559027	1.945977	1
H	1.010624	-0.239693	1.353677	1
H	1.559074	0.624627	-1.591823	1
H	2.787084	0.028887	-0.387923	1
H	2.190404	1.934667	1.146907	1
H	0.971464	2.520987	-0.070813	1
Es	-2.245885	0.946226	0.679729	99
Es	0.761306	0.361987	0.480355	99
Es	1.013435	1.096190	0.564455	99
Es	-0.704844	-1.521397	-0.644530	99
Es	-1.034074	-1.507176	0.560468	99
Es	-0.658520	-2.584308	-1.271719	99
Es	1.649671	0.597214	-1.249879	99
Es	-0.658408	0.408208	-0.286418	99
Es	1.136024	2.243225	0.070385	99
Es	-0.342234	-1.911343	-1.183299	99
Es	-0.368075	-1.554722	-1.835890	99
Es	1.491101	1.674262	0.361478	99
Es	-0.821740	-0.355084	0.000385	99
Es	-1.024910	0.554328	0.449244	99
Es	-0.640909	0.257167	0.027086	99
Es	1.282482	0.265023	-0.095173	99
Es	-1.527898	0.684040	1.635503	99
Es	1.804048	1.215885	-0.171543	99
Es	1.846419	0.540768	-0.549626	99
Es	-0.032318	0.288375	0.251794	99
Es	-1.349162	1.697571	0.978188	99
Es	1.965207	1.846310	0.896757	99
Es	0.933019	-0.053227	1.080411	99
Es	-1.541643	0.977246	0.933023	99
Es	0.370531	-2.018887	-0.995020	99
Es	-1.823420	-1.135987	-0.295237	99
Es	2.486972	0.193257	-0.434802	99
Es	-1.095127	-1.138366	-0.106462	99
48
Properties=species:S:1:pos:R:3:Z:I:1 energy=-289.2734220385106 field_type=dipole dipole="0.000000 0.000000 0.000000" charge=0
C	-0.342215	-1.911343	-1.183323	6
C	-1.095195	-1.138473	-0.106443	6
N	-0.640955	0.257447	0.026467	7
C	-1.541715	0.977307	0.933097	6
C	0.761315	0.361877	0.480497	6
C	1.846505	0.540697	-0.549773	6
C	1.491125	1.674437	0.361527	6
H	-0.797846	-2.897713	-1.321593	1
H	0.705644	-2.069933	-0.910203	1
H	-0.377085	-1.388623	-2.144773	1
H	-1.012256	-1.670483	0.849767	1
H	-2.155675	-1.145853	-0.389053	1
H	-2.572445	0.946537	0.562867	1
H	-1.266175	2.035617	0.994937	1
H	-1.521686	0.559027	1.945977	1
H	1.010624	-0.239693	1.353677	1
H	1.559074	0.624627	-1.591823	1
H	2.787084	0.028887	-0.387923	1
H	2.190404	1.934667	1.146907	1
H	0.971464	2.520987	-0.070813	1
Es	-0.658392	0.408140	-0.286260	99
Es	-0.704774	-1.521368	-0.644562	99
Es	1.804251	1.215790	-0.171701	99
Es	-1.095128	-1.138366	-0.106462	99
Es	1.846423	0.540764	-0.549633	99
Es	-1.034108	-1.507147	0.560426	99
Es	-0.032306	0.288292	0.251798	99
Es	2.486837	0.193229	-0.434933	99
Es	0.761307	0.361988	0.480355	99
Es	1.491100	1.674261	0.361478	99
Es	-1.024884	0.554313	0.449235	99
Es	-1.349176	1.697560	0.978205	99
Es	-1.527915	0.684060	1.635489	99
Es	0.370498	-2.018877	-0.995055	99
Es	1.965213	1.846340	0.896655	99
Es	-1.541643	0.977246	0.933022	99
Es	-0.658590	-2.584383	-1.271760	99
Es	-0.342234	-1.911343	-1.183299	99
Es	-0.821736	-0.355091	0.000396	99
Es	1.136146	2.243168	0.070420	99
Es	-0.640923	0.257241	0.026947	99
Es	-2.245884	0.946241	0.679745	99
Es	0.933000	-0.053160	1.080313	99
Es	1.282443	0.264924	-0.095156	99
Es	1.649731	0.597268	-1.249774	99
Es	1.013215	1.096402	0.564785	99
Es	-1.823407	-1.135981	-0.295200	99
Es	-0.368016	-1.554731	-1.835810	99
48
Properties=species:S:1:pos:R:3:Z:I:1 energy=-289.2734220385106 field_type=dipole dipole="0.000000 0.000000 0.000000" charge=0
C	-0.342215	-1.911343	-1.183323	6
C	-1.095195	-1.138473	-0.106443	6
N	-0.640955	0.257447	0.026467	7
C	-1.541715	0.977307	0.933097	6
C	0.761315	0.361877	0.480497	6
C	1.846505	0.540697	-0.549773	6
C	1.491125	1.674437	0.361527	6
H	-0.797846	-2.897713	-1.321593	1
H	0.705644	-2.069933	-0.910203	1
H	-0.377085	-1.388623	-2.144773	1
H	-1.012256	-1.670483	0.849767	1
H	-2.155675	-1.145853	-0.389053	1
H	-2.572445	0.946537	0.562867	1
H	-1.266175	2.035617	0.994937	1
H	-1.521686	0.559027	1.945977	1
H	1.010624	-0.239693	1.353677	1
H	1.559074	0.624627	-1.591823	1
H	2.787084	0.028887	-0.387923	1
H	2.190404	1.934667	1.146907	1
H	0.971464	2.520987	-0.070813	1
Es	-0.032303	0.288359	0.251798	99
Es	2.486879	0.193283	-0.434929	99
Es	-1.823419	-1.135996	-0.295191	99
Es	1.136110	2.243101	0.070497	99
Es	-1.349164	1.697575	0.978245	99
Es	-1.527894	0.684070	1.635426	99
Es	-1.541644	0.977246	0.933023	99
Es	-1.095128	-1.138367	-0.106462	99
Es	1.282450	0.264749	-0.095197	99
Es	1.649740	0.597152	-1.249697	99
Es	1.491100	1.674260	0.361478	99
Es	-0.640915	0.257204	0.027004	99
Es	0.932975	-0.053138	1.080263	99
Es	-2.245921	0.946219	0.679770	99
Es	-1.034101	-1.507144	0.560405	99
Es	-1.024952	0.554419	0.449159	99
Es	1.013286	1.096263	0.564680	99
Es	0.761308	0.361988	0.480354	99
Es	1.846418	0.540769	-0.549625	99
Es	-0.704762	-1.521373	-0.644517	99
Es	1.804297	1.216142	-0.171760	99
Es	-0.821741	-0.355096	0.000361	99
Es	-0.658341	0.408053	-0.286176	99
Es	-0.658540	-2.584426	-1.271735	99
Es	0.370419	-2.018847	-0.995074	99
Es	-0.368001	-1.554712	-1.835857	99
Es	1.965125	1.846374	0.896716	99
Es	-0.342233	-1.911343	-1.183299	99
48
Properties=species:S:1:pos:R:3:Z:I:1 energy=-289.2734220385106 field_type=dipole dipole="0.000000 0.000000 0.000000" charge=0
C	-0.342215	-1.911343	-1.183323	6
C	-1.095195	-1.138473	-0.106443	6
N	-0.640955	0.257447	0.026467	7
C	-1.541715	0.977307	0.933097	6
C	0.761315	0.361877	0.480497	6
C	1.846505	0.540697	-0.549773	6
C	1.491125	1.674437	0.361527	6
H	-0.797846	-2.897713	-1.321593	1
H	0.705644	-2.069933	-0.910203	1
H	-0.377085	-1.388623	-2.144773	1
H	-1.012256	-1.670483	0.849767	1
H	-2.155675	-1.145853	-0.389053	1
H	-2.572445	0.946537	0.562867	1
H	-1.266175	2.035617	0.994937	1
H	-1.521686	0.559027	1.945977	1
H	1.010624	-0.239693	1.353677	1
H	1.559074	0.624627	-1.591823	1
H	2.787084	0.028887	-0.387923	1
H	2.190404	1.934667	1.146907	1
H	0.971464	2.520987	-0.070813	1
Es	-2.245940	0.946118	0.679917	99
Es	0.932972	-0.053135	1.080156	99
Es	1.649834	0.597124	-1.249661	99
Es	-1.349280	1.697589	0.978149	99
Es	1.282362	0.264614	-0.095181	99
Es	-0.342233	-1.911343	-1.183299	99
Es	-1.823356	-1.135992	-0.295134	99
Es	0.370474	-2.018984	-0.995030	99
Es	1.964940	1.846499	0.896514	99
Es	0.761312	0.361993	0.480354	99
Es	-0.367962	-1.554805	-1.835896	99
Es	-1.541648	0.977250	0.933027	99
Es	-0.658326	0.407973	-0.286008	99
Es	-0.032236	0.288382	0.251749	99
Es	-0.658469	-2.584224	-1.271787	99
Es	-1.034153	-1.507122	0.560385	99
Es	1.013192	1.096222	0.565012	99
Es	-0.704928	-1.521406	-0.644523	99
Es	-0.821782	-0.355083	0.000257	99
Es	-0.640909	0.257170	0.027084	99
Es	1.804707	1.216291	-0.171851	99
Es	1.136137	2.243011	0.070520	99
Es	-1.527757	0.684172	1.635448	99
Es	1.846418	0.540769	-0.549625	99
Es	-1.095129	-1.138367	-0.106462	99
Es	2.486712	0.193311	-0.434976	99
Es	1.491101	1.674263	0.361479	99
Es	-1.025006	0.554495	0.449047	99
48
Properties=species:S:1:pos:R:3:Z:I:1 energy=-289.2734220385106 field_type=dipole dipole="0.000000 0.000000 0.000000" charge=0
C	-0.342215	-1.911343	-1.183323	6
C	-1.095195	-1.138473	-0.106443	6
N	-0.640955	0.257447	0.026467	7
C	-1.541715	0.977307	0.933097	6
C	0.761315	0.361877	0.480497	6
C	1.846505	0.540697	-0.549773	6
C	1.491125	1.674437	0.361527	6
H	-0.797846	-2.897713	-1.321593	1
H	0.705644	-2.069933	-0.910203	1
H	-0.377085	-1.388623	-2.144773	1
H	-1.012256	-1.670483	0.849767	1
H	-2.155675	-1.145853	-0.389053	1
H	-2.572445	0.946537	0.562867	1
H	-1.266175	2.035617	0.994937	1
H	-1.521686	0.559027	1.945977	1
H	1.010624	-0.239693	1.353677	1
H	1.559074	0.624627	-1.591823	1
H	2.787084	0.028887	-0.387923	1
H	2.190404	1.934667	1.146907	1
H	0.971464	2.520987	-0.070813	1
Es	-2.245949	0.946319	0.679788	99
Es	-1.349146	1.697499	0.978333	99
Es	2.486635	0.193274	-0.435040	99
Es	-0.368019	-1.554809	-1.835862	99
Es	-1.024905	0.554494	0.449060	99
Es	0.370458	-2.018910	-0.995127	99
Es	-0.821718	-0.355022	0.000545	99
Es	1.804829	1.216197	-0.171997	99
Es	1.964926	1.846459	0.896470	99
Es	-1.527946	0.684100	1.635371	99
Es	1.649839	0.597124	-1.249616	99
Es	-0.704899	-1.521417	-0.644502	99
Es	-0.658421	0.407874	-0.286158	99
Es	-1.541646	0.977248	0.933025	99
Es	-0.032233	0.288353	0.251639	99
Es	0.932943	-0.053037	1.080121	99
Es	0.761306	0.361986	0.480355	99
Es	-0.658446	-2.584305	-1.271772	99
Es	-1.095131	-1.138372	-0.106463	99
Es	-0.640910	0.257161	0.027101	99
Es	1.282521	0.264687	-0.095198	99
Es	1.846409	0.540761	-0.549617	99
Es	-1.034208	-1.507145	0.560334	99
Es	-0.342232	-1.911344	-1.183300	99
Es	1.012950	1.096306	0.565241	99
Es	1.136254	2.243009	0.070577	99
Es	-1.823316	-1.135965	-0.295117	99
Es	1.491102	1.674257	0.361474	99
48
Properties=species:S:1:pos:R:3:Z:I:1 energy=-289.2734220385106 field_type=dipole dipole="0.000000 0.000000 0.000000" charge=0
C	-0.342215	-1.911343	-1.183323	6
C	-1.095195	-1.138473	-0.106443	6
N	-0.640955	0.257447	0.026467	7
C	-1.541715	0.977307	0.933097	6
C	0.761315	0.361877	0.480497	6
C	1.846505	0.540697	-0.549773	6
C	1.491125	1.674437	0.361527	6
H	-0.797846	-2.897713	-1.321593	1
H	0.705644	-2.069933	-0.910203	1
H	-0.377085	-1.388623	-2.144773	1
H	-1.012256	-1.670483	0.849767	1
H	-2.155675	-1.145853	-0.389053	1
H	-2.572445	0.946537	0.562867	1
H	-1.266175	2.035617	0.994937	1
H	-1.521686	0.559027	1.945977	1
H	1.010624	-0.239693	1.353677	1
H	1.559074	0.624627	-1.591823	1
H	2.787084	0.028887	-0.387923	1
H	2.190404	1.934667	1.146907	1
H	0.971464	2.520987	-0.070813	1
Es	1.846417	0.540770	-0.549623	99
Es	-1.541645	0.977247	0.933024	99
Es	2.486594	0.193423	-0.435092	99
Es	1.804885	1.216530	-0.172049	99
Es	0.932914	-0.052998	1.080055	99
Es	-1.095129	-1.138368	-0.106462	99
Es	-0.658234	0.407874	-0.285943	99
Es	1.136302	2.243001	0.070708	99
Es	-1.823318	-1.136012	-0.295072	99
Es	1.964846	1.846416	0.896424	99
Es	0.370444	-2.018932	-0.995160	99
Es	-1.034201	-1.507082	0.560320	99
Es	-1.349236	1.697544	0.978258	99
Es	1.013002	1.096354	0.565206	99
Es	0.761312	0.361990	0.480353	99
Es	-0.342233	-1.911343	-1.183299	99
Es	-0.658444	-2.584293	-1.271776	99
Es	-0.032289	0.288326	0.251798	99
Es	-0.640914	0.257191	0.027033	99
Es	1.282410	0.264222	-0.095213	99
Es	-0.821778	-0.355057	0.000319	99
Es	-0.368004	-1.554838	-1.835858	99
Es	-2.245867	0.946263	0.679819	99
Es	1.649920	0.597054	-1.249522	99
Es	1.491100	1.674257	0.361477	99
Es	-1.024977	0.554533	0.448992	99
Es	-1.527963	0.684135	1.635422	99
Es	-0.704864	-1.521424	-0.644477	99
