42
Properties=species:S:1:pos:R:3:Z:I:1 energy=-286.9033040920689 field_type=dipole dipole="0.000000 0.000000 0.000000" charge=0
C	-1.636078	-0.171061	0.512021	6
C	-0.109968	-0.154911	0.346131	6
N	0.483122	-0.861731	1.482991	7
C	0.263882	-0.925961	-0.901019	6
C	0.866322	-0.485001	-2.016989	6
C	0.372052	1.206259	0.346131	6
C	0.769332	2.328159	0.346131	6
H	-2.132658	0.335939	-0.325259	1
H	-1.949098	0.343649	1.429541	1
H	-2.030828	-1.193871	0.556681	1
H	0.244012	-0.359281	2.335781	1
H	1.496602	-0.793401	1.398311	1
H	-0.002048	-1.983281	-0.870989	1
H	1.168702	0.548869	-2.146799	1
H	1.071352	-1.166861	-2.836339	1
H	1.125302	3.332479	0.343681	1
Es	0.769424	2.328407	0.346146	99
Es	-1.636027	-0.171052	0.512016	99
Es	0.263828	-0.925957	-0.900903	99
Es	1.091802	-0.803814	1.428845	99
Es	0.369324	-1.198023	1.488200	99
Es	0.076323	-1.635922	-0.868163	99
Es	1.002267	2.984221	0.345664	99
Es	1.072035	0.209027	-2.110214	99
Es	1.005775	-0.943507	-2.573571	99
Es	-1.891209	-0.865827	0.539370	99
Es	0.088802	-0.509706	-0.285200	99
Es	0.275629	-0.625966	-1.589002	99
Es	-0.109896	-0.154893	0.346203	99
Es	0.384373	1.850757	0.052739	99
Es	0.139727	0.559996	0.330773	99
Es	-1.834289	0.178267	1.139486	99
Es	-0.858303	-0.151032	0.420845	99
Es	0.862582	-0.767188	-1.327099	99
Es	0.238190	-0.520196	0.986411	99
Es	0.483284	-0.861199	1.482962	99
Es	0.340760	-0.541516	1.987783	99
Es	0.371973	1.206034	0.346133	99
Es	0.866356	-0.484978	-2.017059	99
Es	0.426261	1.824861	0.676495	99
Es	0.914733	1.658516	0.318927	99
Es	-1.964028	0.174392	-0.056959	99
42
Properties=species:S:1:pos:R:3:Z:I:1 energy=-286.9033040920689 field_type=dipole dipole="0.000000 0.000000 0.000000" charge=0
C	-1.636078	-0.171061	0.512021	6
C	-0.109968	-0.154911	0.346131	6
N	0.483122	-0.861731	1.482991	7
C	0.263882	-0.925961	-0.901019	6
C	0.866322	-0.485001	-2.016989	6
C	0.372052	1.206259	0.346131	6
C	0.769332	2.328159	0.346131	6
H	-2.132658	0.335939	-0.325259	1
H	-1.949098	0.343649	1.429541	1
H	-2.030828	-1.193871	0.556681	1
H	0.244012	-0.359281	2.335781	1
H	1.496602	-0.793401	1.398311	1
H	-0.002048	-1.983281	-0.870989	1
H	1.168702	0.548869	-2.146799	1
H	1.071352	-1.166861	-2.836339	1
H	1.125302	3.332479	0.343681	1
Es	0.427289	1.824512	0.676840	99
Es	0.483288	-0.861196	1.482969	99
Es	1.091947	-0.803959	1.428881	99
Es	1.005762	-0.943501	-2.573588	99
Es	0.088791	-0.509884	-0.285290	99
Es	-0.858102	-0.150877	0.420899	99
Es	0.914599	1.658564	0.318383	99
Es	0.275747	-0.625961	-1.588903	99
Es	-1.964046	0.174358	-0.056979	99
Es	0.862576	-0.767186	-1.327116	99
Es	0.769417	2.328409	0.346144	99
Es	0.369451	-1.197597	1.488100	99
Es	0.076308	-1.635969	-0.868232	99
Es	0.866356	-0.484977	-2.017059	99
Es	-1.834359	0.178239	1.139442	99
Es	0.371972	1.206034	0.346134	99
Es	-0.109895	-0.154893	0.346203	99
Es	-1.891191	-0.865788	0.539387	99
Es	-1.636027	-0.171052	0.512018	99
Es	0.383595	1.851036	0.052959	99
Es	0.139539	0.559942	0.330667	99
Es	1.002267	2.984207	0.345667	99
Es	0.263828	-0.925956	-0.900905	99
Es	1.071960	0.209058	-2.110227	99
Es	0.340522	-0.541634	1.987915	99
Es	0.238101	-0.520224	0.986520	99
42
Properties=species:S:1:pos:R:3:Z:I:1 energy=-286.9033040920689 field_type=dipole dipole="0.000000 0.000000 0.000000" charge=0
C	-1.636078	-0.171061	0.512021	6
C	-0.109968	-0.154911	0.346131	6
N	0.483122	-0.861731	1.482991	7
C	0.263882	-0.925961	-0.901019	6
C	0.866322	-0.485001	-2.016989	6
C	0.372052	1.206259	0.346131	6
C	0.769332	2.328159	0.346131	6
H	-2.132658	0.335939	-0.325259	1
H	-1.949098	0.343649	1.429541	1
H	-2.030828	-1.193871	0.556681	1
H	0.244012	-0.359281	2.335781	1
H	1.496602	-0.793401	1.398311	1
H	-0.002048	-1.983281	-0.870989	1
H	1.168702	0.548869	-2.146799	1
H	1.071352	-1.166861	-2.836339	1
H	1.125302	3.332479	0.343681	1
Es	0.483290	-0.861151	1.482943	99
Es	0.769419	2.328400	0.346146	99
Es	-1.834394	0.178262	1.139421	99
Es	-1.964035	0.174316	-0.056972	99
Es	1.091856	-0.803834	1.428909	99
Es	0.906086	1.661366	0.266867	99
Es	0.263829	-0.925957	-0.900908	99
Es	0.076357	-1.636002	-0.868237	99
Es	0.369470	-1.197846	1.488257	99
Es	0.473764	1.807858	0.695918	99
Es	-1.891193	-0.865783	0.539398	99
Es	0.866362	-0.484979	-2.017057	99
Es	0.862455	-0.767104	-1.327124	99
Es	-0.858237	-0.150819	0.420983	99
Es	1.005772	-0.943541	-2.573613	99
Es	0.088710	-0.509792	-0.285168	99
Es	1.071999	0.209016	-2.110202	99
Es	0.139601	0.559856	0.330639	99
Es	0.238203	-0.520169	0.986409	99
Es	-1.636029	-0.171052	0.512017	99
Es	-0.109896	-0.154893	0.346200	99
Es	0.345669	1.864921	0.085343	99
Es	0.275762	-0.625955	-1.588914	99
Es	1.002254	2.984174	0.345639	99
Es	0.340647	-0.541624	1.987801	99
Es	0.371973	1.206034	0.346131	99
42
Properties=species:S:1:pos:R:3:Z:I:1 energy=-286.9033040920689 field_type=dipole dipole="0.000000 0.000000 0.000000" charge=0
C	-1.636078	-0.171061	0.512021	6
C	-0.109968	-0.154911	0.346131	6
N	0.483122	-0.861731	1.482991	7
C	0.263882	-0.925961	-0.901019	6
C	0.866322	-0.485001	-2.016989	6
C	0.372052	1.206259	0.346131	6
C	0.769332	2.328159	0.346131	6
H	-2.132658	0.335939	-0.325259	1
H	-1.949098	0.343649	1.429541	1
H	-2.030828	-1.193871	0.556681	1
H	0.244012	-0.359281	2.335781	1
H	1.496602	-0.793401	1.398311	1
H	-0.002048	-1.983281	-0.870989	1
H	1.168702	0.548869	-2.146799	1
H	1.071352	-1.166861	-2.836339	1
H	1.125302	3.332479	0.343681	1
Es	0.862402	-0.767142	-1.327168	99
Es	0.088836	-0.509576	-0.285245	99
Es	0.139800	0.559547	0.330699	99
Es	0.866359	-0.484977	-2.017059	99
Es	-1.636029	-0.171053	0.512017	99
Es	1.002235	2.984160	0.345652	99
Es	0.483305	-0.861180	1.482961	99
Es	0.424697	1.835853	0.027776	99
Es	-1.963993	0.174246	-0.056893	99
Es	1.005721	-0.943538	-2.573636	99
Es	0.340515	-0.541814	1.987914	99
Es	0.915832	1.658256	0.369111	99
Es	0.263835	-0.925957	-0.900909	99
Es	0.769437	2.328400	0.346152	99
Es	-1.834425	0.178328	1.139436	99
Es	-0.858323	-0.150665	0.420827	99
Es	0.076317	-1.636037	-0.868283	99
Es	1.071924	0.209092	-2.110203	99
Es	1.091966	-0.803854	1.428913	99
Es	-0.109895	-0.154893	0.346202	99
Es	0.276007	-0.626064	-1.588805	99
Es	0.371968	1.206038	0.346136	99
Es	0.384762	1.840104	0.651229	99
Es	0.369657	-1.197505	1.488216	99
Es	0.238019	-0.520292	0.986418	99
Es	-1.891235	-0.865777	0.539370	99
42
Properties=species:S:1:pos:R:3:Z:I:1 energy=-286.9033040920689 field_type=dipole dipole="0.000000 0.000000 0.000000" charge=0
C	-1.636078	-0.171061	0.512021	6
C	-0.109968	-0.154911	0.346131	6
N	0.483122	-0.861731	1.482991	7
C	0.263882	-0.925961	-0.901019	6
C	0.866322	-0.485001	-2.016989	6
C	0.372052	1.206259	0.346131	6
C	0.769332	2.328159	0.346131	6
H	-2.132658	0.335939	-0.325259	1
H	-1.949098	0.343649	1.429541	1
H	-2.030828	-1.193871	0.556681	1
H	0.244012	-0.359281	2.335781	1
H	1.496602	-0.793401	1.398311	1
H	-0.002048	-1.983281	-0.870989	1
H	1.168702	0.548869	-2.146799	1
H	1.071352	-1.166861	-2.836339	1
H	1.125302	3.332479	0.343681	1
Es	0.866351	-0.484977	-2.017061	99
Es	0.385446	1.850331	0.051268	99
Es	0.263829	-0.925956	-0.900903	99
Es	0.275924	-0.626023	-1.588842	99
Es	0.238422	-0.519813	0.986823	99
Es	1.002236	2.984116	0.345594	99
Es	1.072031	0.209073	-2.110179	99
Es	1.005796	-0.943577	-2.573577	99
Es	1.091831	-0.803884	1.428850	99
Es	0.769422	2.328402	0.346146	99
Es	0.076412	-1.636055	-0.868376	99
Es	-1.964006	0.174345	-0.056908	99
Es	0.340698	-0.541740	1.987917	99
Es	0.915080	1.658424	0.321352	99
Es	0.139699	0.559496	0.330659	99
Es	-0.109895	-0.154893	0.346201	99
Es	0.369244	-1.197959	1.487930	99
Es	-1.636029	-0.171052	0.512016	99
Es	-1.891260	-0.865753	0.539339	99
Es	0.862169	-0.767077	-1.327259	99
Es	0.424847	1.825439	0.675579	99
Es	0.088984	-0.509576	-0.285102	99
Es	-0.858400	-0.150663	0.420839	99
Es	0.483296	-0.861196	1.482957	99
Es	-1.834406	0.178235	1.139431	99
Es	0.371974	1.206034	0.346133	99
42
Properties=species:S:1:pos:R:3:Z:I:1 energy=-286.9033040920689 field_type=dipole dipole="0.000000 0.000000 0.000000" charge=0
C	-1.636078	-0.171061	0.512021	6
C	-0.109968	-0.154911	0.346131	6
N	0.483122	-0.861731	1.482991	7
C	0.263882	-0.925961	-0.901019	6
C	0.866322	-0.485001	-2.016989	6
C	0.372052	1.206259	0.346131	6
C	0.769332	2.328159	0.346131	6
H	-2.132658	0.335939	-0.325259	1
H	-1.949098	0.343649	1.429541	1
H	-2.030828	-1.193871	0.556681	1
H	0.244012	-0.359281	2.335781	1
H	1.496602	-0.793401	1.398311	1
H	-0.002048	-1.983281	-0.870989	1
H	1.168702	0.548869	-2.146799	1
H	1.071352	-1.166861	-2.836339	1
H	1.125302	3.332479	0.343681	1
Es	0.769423	2.328405	0.346142	99
Es	0.275952	-0.626031	-1.588831	99
Es	0.371965	1.206031	0.346135	99
Es	0.769562	1.707218	0.640960	99
Es	0.866367	-0.484979	-2.017056	99
Es	-1.964084	0.174319	-0.056943	99
Es	0.263829	-0.925960	-0.900912	99
Es	0.089105	-0.509393	-0.285090	99
Es	1.091864	-0.804102	1.429000	99
Es	0.340568	-0.541837	1.988008	99
Es	1.005769	-0.943546	-2.573603	99
Es	1.072038	0.209078	-2.110152	99
Es	-1.891227	-0.865747	0.539443	99
Es	-0.858365	-0.150625	0.420806	99
Es	1.002304	2.984104	0.345506	99
Es	0.238275	-0.519998	0.986416	99
Es	0.076388	-1.636120	-0.868293	99
Es	0.369497	-1.197464	1.488027	99
Es	0.862037	-0.767126	-1.327328	99
Es	0.139484	0.559208	0.330947	99
Es	-1.636032	-0.171052	0.512018	99
Es	-0.109895	-0.154892	0.346202	99
Es	0.483270	-0.861232	1.482955	99
Es	0.241136	1.898652	0.380987	99
Es	0.714852	1.728570	0.026129	99
Es	-1.834386	0.178220	1.139352	99
42
Properties=species:S:1:pos:R:3:Z:I:1 energy=-286.9033040920689 field_type=dipole dipole="0.000000 0.000000 0.000000" charge=0
C	-1.636078	-0.171061	0.512021	6
C	-0.109968	-0.154911	0.346131	6
N	0.483122	-0.861731	1.482991	7
C	0.263882	-0.925961	-0.901019	6
C	0.866322	-0.485001	-2.016989	6
C	0.372052	1.206259	0.346131	6
C	0.769332	2.328159	0.346131	6
H	-2.132658	0.335939	-0.325259	1
H	-1.949098	0.343649	1.429541	1
H	-2.030828	-1.193871	0.556681	1
H	0.244012	-0.359281	2.335781	1
H	1.496602	-0.793401	1.398311	1
H	-0.002048	-1.983281	-0.870989	1
H	1.168702	0.548869	-2.146799	1
H	1.071352	-1.166861	-2.836339	1
H	1.125302	3.332479	0.343681	1
Es	0.076472	-1.636110	-0.868351	99
Es	-0.109895	-0.154893	0.346202	99
Es	0.369577	-1.197398	1.487992	99
Es	-0.858341	-0.150561	0.420766	99
Es	0.340604	-0.541996	1.988094	99
Es	1.002279	2.984068	0.345429	99
Es	1.091849	-0.804100	1.428952	99
Es	0.861982	-0.767081	-1.327337	99
Es	-1.964088	0.174301	-0.056891	99
Es	0.263828	-0.925957	-0.900908	99
Es	0.241976	1.898135	0.390366	99
Es	0.769425	2.328405	0.346150	99
Es	0.139467	0.559115	0.330895	99
Es	0.866356	-0.484979	-2.017055	99
Es	0.276082	-0.626156	-1.588798	99
Es	0.089035	-0.509258	-0.285001	99
Es	1.005761	-0.943599	-2.573568	99
Es	-1.891236	-0.865716	0.539395	99
Es	0.371973	1.206034	0.346133	99
Es	0.483303	-0.861179	1.482965	99
Es	-1.834432	0.178191	1.139367	99
Es	0.706848	1.731476	0.022221	99
Es	-1.636030	-0.171052	0.512017	99
Es	1.071970	0.209091	-2.110236	99
Es	0.238201	-0.519948	0.986476	99
Es	0.776727	1.704867	0.635552	99
42
Properties=species:S:1:pos:R:3:Z:I:1 energy=-286.9033040920689 field_type=dipole dipole="0.000000 0.000000 0.000000" charge=0
C	-1.636078	-0.171061	0.512021	6
C	-0.109968	-0.154911	0.346131	6
N	0.483122	-0.861731	1.482991	7
C	0.263882	-0.925961	-0.901019	6
C	0.866322	-0.485001	-2.016989	6
C	0.372052	1.206259	0.346131	6
C	0.769332	2.328159	0.346131	6
H	-2.132658	0.335939	-0.325259	1
H	-1.949098	0.343649	1.429541	1
H	-2.030828	-1.193871	0.556681	1
H	0.244012	-0.359281	2.335781	1
H	1.496602	-0.793401	1.398311	1
H	-0.002048	-1.983281	-0.870989	1
H	1.168702	0.548869	-2.146799	1
H	1.071352	-1.166861	-2.836339	1
H	1.125302	3.332479	0.343681	1
Es	0.369634	-1.197102	1.488073	99
Es	1.002205	2.984034	0.345585	99
Es	0.276140	-0.626129	-1.588750	99
Es	1.072030	0.209100	-2.110128	99
Es	0.390165	1.848620	0.048072	99
Es	-0.858477	-0.150377	0.420740	99
Es	0.371977	1.206035	0.346134	99
Es	0.263830	-0.925956	-0.900907	99
Es	0.866356	-0.484978	-2.017057	99
Es	0.238304	-0.520042	0.986461	99
Es	1.005773	-0.943567	-2.573627	99
Es	-1.636030	-0.171052	0.512016	99
Es	-1.964143	0.174279	-0.056861	99
Es	-1.834469	0.178138	1.139398	99
Es	-0.109896	-0.154892	0.346201	99
Es	0.089123	-0.509127	-0.285157	99
Es	-1.891157	-0.865726	0.539359	99
Es	0.915531	1.658317	0.326877	99
Es	0.340561	-0.542033	1.988080	99
Es	0.769423	2.328405	0.346146	99
Es	0.861948	-0.767117	-1.327368	99
Es	0.076387	-1.636139	-0.868378	99
Es	0.139577	0.559148	0.330733	99
Es	1.091902	-0.804251	1.429012	99
Es	0.419706	1.827339	0.673200	99
Es	0.483294	-0.861227	1.482972	99
42
Properties=species:S:1:pos:R:3:Z:I:1 energy=-286.9033040920689 field_type=dipole dipole="0.000000 0.000000 0.000000" charge=0
C	-1.636078	-0.171061	0.512021	6
C	-0.109968	-0.154911	0.346131	6
N	0.483122	-0.861731	1.482991	7
C	0.263882	-0.925961	-0.901019	6
C	0.866322	-0.485001	-2.016989	6
C	0.372052	1.206259	0.346131	6
C	0.769332	2.328159	0.346131	6
H	-2.132658	0.335939	-0.325259	1
H	-1.949098	0.343649	1.429541	1
H	-2.030828	-1.193871	0.556681	1
H	0.244012	-0.359281	2.335781	1
H	1.496602	-0.793401	1.398311	1
H	-0.002048	-1.983281	-0.870989	1
H	1.168702	0.548869	-2.146799	1
H	1.071352	-1.166861	-2.836339	1
H	1.125302	3.332479	0.343681	1
Es	0.263829	-0.925956	-0.900908	99
Es	-0.858500	-0.150253	0.420571	99
Es	-1.891208	-0.865725	0.539506	99
Es	1.091851	-0.804413	1.429082	99
Es	0.371976	1.206038	0.346133	99
Es	0.089171	-0.509109	-0.285110	99
Es	0.369610	-1.197032	1.488033	99
Es	0.139554	0.559016	0.330688	99
Es	0.076374	-1.636163	-0.868408	99
Es	-0.109896	-0.154893	0.346200	99
Es	1.002242	2.984010	0.345573	99
Es	1.072012	0.209097	-2.110152	99
Es	0.344516	1.865388	0.086710	99
Es	-1.834357	0.178164	1.139309	99
Es	0.483297	-0.861202	1.482955	99
Es	-1.636027	-0.171051	0.512016	99
Es	0.276188	-0.626122	-1.588710	99
Es	0.866358	-0.484978	-2.017056	99
Es	0.769423	2.328404	0.346145	99
Es	0.340531	-0.542035	1.988157	99
Es	1.005808	-0.943625	-2.573607	99
Es	0.861880	-0.767062	-1.327387	99
Es	0.906161	1.661339	0.265037	99
Es	0.474772	1.807566	0.696417	99
Es	0.238370	-0.519974	0.986475	99
Es	-1.964239	0.174270	-0.056841	99
42
Properties=species:S:1:pos:R:3:Z:I:1 energy=-286.9033040920689 field_type=dipole dipole="0.000000 0.000000 0.000000" charge=0
C	-1.636078	-0.171061	0.512021	6
C	-0.109968	-0.154911	0.346131	6
N	0.483122	-0.861731	1.482991	7
C	0.263882	-0.925961	-0.901019	6
C	0.866322	-0.485001	-2.016989	6
C	0.372052	1.206259	0.346131	6
C	0.769332	2.328159	0.346131	6
H	-2.132658	0.335939	-0.325259	1
H	-1.949098	0.343649	1.429541	1
H	-2.030828	-1.193871	0.556681	1
H	0.244012	-0.359281	2.335781	1
H	1.496602	-0.793401	1.398311	1
H	-0.002048	-1.983281	-0.870989	1
H	1.168702	0.548869	-2.146799	1
H	1.071352	-1.166861	-2.836339	1
H	1.125302	3.332479	0.343681	1
Es	-1.891275	-0.865671	0.539442	99
Es	0.861860	-0.767065	-1.327387	99
Es	1.005839	-0.943577	-2.573626	99
Es	0.276222	-0.626183	-1.588699	99
Es	0.896380	1.664616	0.231813	99
Es	-0.109896	-0.154893	0.346201	99
Es	0.340573	-0.542153	1.988002	99
Es	-0.858492	-0.150334	0.420665	99
Es	0.506750	1.796280	0.704734	99
Es	-1.636031	-0.171052	0.512017	99
Es	0.076395	-1.636178	-0.868454	99
Es	1.071981	0.209059	-2.110134	99
Es	0.263830	-0.925956	-0.900907	99
Es	0.322379	1.873419	0.111540	99
Es	0.139442	0.558966	0.330699	99
Es	0.238472	-0.519856	0.986588	99
Es	0.483262	-0.861279	1.482971	99
Es	0.369602	-1.197104	1.488010	99
Es	1.002242	2.983971	0.345615	99
Es	0.769423	2.328404	0.346144	99
Es	-1.964105	0.174229	-0.056856	99
Es	-1.834481	0.178217	1.139300	99
Es	0.089128	-0.508953	-0.285061	99
Es	0.371974	1.206037	0.346133	99
Es	0.866356	-0.484978	-2.017056	99
Es	1.091862	-0.804263	1.429137	99
42
Properties=species:S:1:pos:R:3:Z:I:1 energy=-286.9033040920689 field_type=dipole dipole="0.000000 0.000000 0.000000" charge=0
C	-1.636078	-0.171061	0.512021	6
C	-0.109968	-0.154911	0.346131	6
N	0.483122	-0.861731	1.482991	7
C	0.263882	-0.925961	-0.901019	6
C	0.866322	-0.485001	-2.016989	6
C	0.372052	1.206259	0.346131	6
C	0.769332	2.328159	0.346131	6
H	-2.132658	0.335939	-0.325259	1
H	-1.949098	0.343649	1.429541	1
H	-2.030828	-1.193871	0.556681	1
H	0.244012	-0.359281	2.335781	1
H	1.496602	-0.793401	1.398311	1
H	-0.002048	-1.983281	-0.870989	1
H	1.168702	0.548869	-2.146799	1
H	1.071352	-1.166861	-2.836339	1
H	1.125302	3.332479	0.343681	1
Es	1.072013	0.209122	-2.110130	99
Es	0.371973	1.206039	0.346130	99
Es	0.483293	-0.861178	1.482975	99
Es	0.340220	-0.542624	1.988339	99
Es	-1.834413	0.178291	1.139284	99
Es	0.769422	2.328404	0.346142	99
Es	1.002135	2.983970	0.345545	99
Es	0.263832	-0.925956	-0.900911	99
Es	0.421371	1.826769	0.674216	99
Es	0.089235	-0.508852	-0.285092	99
Es	-0.109894	-0.154891	0.346200	99
Es	1.005743	-0.943617	-2.573640	99
Es	-1.964131	0.174186	-0.056897	99
Es	0.076418	-1.636206	-0.868427	99
Es	0.370085	-1.196905	1.487710	99
Es	0.276370	-0.626229	-1.588643	99
Es	0.139574	0.558753	0.330661	99
Es	-1.636031	-0.171051	0.512017	99
Es	0.915414	1.658400	0.325043	99
Es	0.861719	-0.767094	-1.327459	99
Es	0.238300	-0.519847	0.986549	99
Es	0.866357	-0.484977	-2.017061	99
Es	1.091932	-0.804041	1.429182	99
Es	-1.891296	-0.865642	0.539547	99
Es	0.388673	1.849170	0.048908	99
Es	-0.858618	-0.150293	0.420639	99
42
Properties=species:S:1:pos:R:3:Z:I:1 energy=-286.9033040920689 field_type=dipole dipole="0.000000 0.000000 0.000000" charge=0
C	-1.636078	-0.171061	0.512021	6
C	-0.109968	-0.154911	0.346131	6
N	0.483122	-0.861731	1.482991	7
C	0.263882	-0.925961	-0.901019	6
C	0.866322	-0.485001	-2.016989	6
C	0.372052	1.206259	0.346131	6
C	0.769332	2.328159	0.346131	6
H	-2.132658	0.335939	-0.325259	1
H	-1.949098	0.343649	1.429541	1
H	-2.030828	-1.193871	0.556681	1
H	0.244012	-0.359281	2.335781	1
H	1.496602	-0.793401	1.398311	1
H	-0.002048	-1.983281	-0.870989	1
H	1.168702	0.548869	-2.146799	1
H	1.071352	-1.166861	-2.836339	1
H	1.125302	3.332479	0.343681	1
Es	0.369182	-1.196582	1.487833	99
Es	0.388054	1.849450	0.049804	99
Es	-0.109894	-0.154894	0.346202	99
Es	0.263833	-0.925956	-0.900908	99
Es	1.071957	0.209151	-2.110128	99
Es	0.769423	2.328403	0.346145	99
Es	0.483285	-0.861204	1.482960	99
Es	0.340663	-0.542198	1.988259	99
Es	-0.858644	-0.150285	0.420680	99
Es	0.422246	1.826393	0.675362	99
Es	-1.636030	-0.171052	0.512016	99
Es	0.371975	1.206042	0.346136	99
Es	-1.964029	0.174206	-0.056859	99
Es	1.005809	-0.943606	-2.573617	99
Es	0.276416	-0.626276	-1.588627	99
Es	0.238791	-0.519438	0.986623	99
Es	0.861653	-0.767014	-1.327462	99
Es	1.091964	-0.805134	1.429118	99
Es	1.002110	2.983948	0.345679	99
Es	-1.891275	-0.865614	0.539346	99
Es	0.076466	-1.636261	-0.868511	99
Es	0.866358	-0.484979	-2.017056	99
Es	0.915205	1.658477	0.322808	99
Es	-1.834602	0.178199	1.139339	99
Es	0.139507	0.558740	0.330671	99
Es	0.089271	-0.508813	-0.284986	99
42
Properties=species:S:1:pos:R:3:Z:I:1 energy=-286.9033040920689 field_type=dipole dipole="0.000000 0.000000 0.000000" charge=0
C	-1.636078	-0.171061	0.512021	6
C	-0.109968	-0.154911	0.346131	6
N	0.483122	-0.861731	1.482991	7
C	0.263882	-0.925961	-0.901019	6
C	0.866322	-0.485001	-2.016989	6
C	0.372052	1.206259	0.346131	6
C	0.769332	2.328159	0.346131	6
H	-2.132658	0.335939	-0.325259	1
H	-1.949098	0.343649	1.429541	1
H	-2.030828	-1.193871	0.556681	1
H	0.244012	-0.359281	2.335781	1
H	1.496602	-0.793401	1.398311	1
H	-0.002048	-1.983281	-0.870989	1
H	1.168702	0.548869	-2.146799	1
H	1.071352	-1.166861	-2.836339	1
H	1.125302	3.332479	0.343681	1
Es	0.481634	1.805181	0.698584	99
Es	0.076394	-1.636261	-0.868536	99
Es	0.904520	1.661910	0.257812	99
Es	0.483301	-0.861209	1.482962	99
Es	0.089307	-0.508714	-0.285038	99
Es	0.866358	-0.484978	-2.017053	99
Es	0.339330	1.867287	0.091757	99
Es	1.002195	2.983885	0.345549	99
Es	0.369478	-1.197017	1.487987	99
Es	0.769422	2.328403	0.346146	99
Es	-1.636032	-0.171052	0.512017	99
Es	-0.858628	-0.150181	0.420640	99
Es	-1.964135	0.174246	-0.056803	99
Es	0.139421	0.558612	0.330640	99
Es	-1.834483	0.178163	1.139307	99
Es	0.340584	-0.542267	1.988040	99
Es	1.091938	-0.804454	1.429176	99
Es	0.238648	-0.519628	0.986651	99
Es	1.005775	-0.943636	-2.573643	99
Es	0.263831	-0.925956	-0.900909	99
Es	1.072007	0.209157	-2.110099	99
Es	0.276501	-0.626239	-1.588571	99
Es	-0.109897	-0.154893	0.346200	99
Es	0.371975	1.206038	0.346133	99
Es	0.861557	-0.767070	-1.327528	99
Es	-1.891307	-0.865625	0.539409	99
42
Properties=species:S:1:pos:R:3:Z:I:1 energy=-286.9033040920689 field_type=dipole dipole="0.000000 0.000000 0.000000" charge=0
C	-1.636078	-0.171061	0.512021	6
C	-0.109968	-0.154911	0.346131	6
N	0.483122	-0.861731	1.482991	7
C	0.263882	-0.925961	-0.901019	6
C	0.866322	-0.485001	-2.016989	6
C	0.372052	1.206259	0.346131	6
C	0.769332	2.328159	0.346131	6
H	-2.132658	0.335939	-0.325259	1
H	-1.949098	0.343649	1.429541	1
H	-2.030828	-1.193871	0.556681	1
H	0.244012	-0.359281	2.335781	1
H	1.496602	-0.793401	1.398311	1
H	-0.002048	-1.983281	-0.870989	1
H	1.168702	0.548869	-2.146799	1
H	1.071352	-1.166861	-2.836339	1
H	1.125302	3.332479	0.343681	1
Es	0.861514	-0.767057	-1.327553	99
Es	0.276603	-0.626293	-1.588520	99
Es	-0.858669	-0.150161	0.420656	99
Es	0.340498	-0.542549	1.988317	99
Es	0.263830	-0.925955	-0.900907	99
Es	0.076415	-1.636278	-0.868539	99
Es	0.769425	2.328401	0.346151	99
Es	0.866347	-0.484980	-2.017063	99
Es	-0.109895	-0.154897	0.346194	99
Es	-1.834507	0.178124	1.139322	99
Es	1.071999	0.209151	-2.110101	99
Es	1.091951	-0.804847	1.429240	99
Es	0.411834	1.830269	0.668993	99
Es	1.005744	-0.943645	-2.573655	99
Es	1.002115	2.983897	0.345522	99
Es	0.238840	-0.519380	0.986648	99
Es	0.089301	-0.508557	-0.285065	99
Es	0.483282	-0.861198	1.482958	99
Es	0.916143	1.658186	0.336389	99
Es	0.371973	1.206042	0.346133	99
Es	-1.891373	-0.865638	0.539299	99
Es	0.139467	0.558504	0.330678	99
Es	0.369467	-1.196620	1.487676	99
Es	-1.964057	0.174316	-0.056725	99
Es	0.397480	1.845921	0.042763	99
Es	-1.636035	-0.171055	0.512018	99
42
Properties=species:S:1:pos:R:3:Z:I:1 energy=-286.9033040920689 field_type=dipole dipole="0.000000 0.000000 0.000000" charge=0
C	-1.636078	-0.171061	0.512021	6
C	-0.109968	-0.154911	0.346131	6
N	0.483122	-0.861731	1.482991	7
C	0.263882	-0.925961	-0.901019	6
C	0.866322	-0.485001	-2.016989	6
C	0.372052	1.206259	0.346131	6
C	0.769332	2.328159	0.346131	6
H	-2.132658	0.335939	-0.325259	1
H	-1.949098	0.343649	1.429541	1
H	-2.030828	-1.193871	0.556681	1
H	0.244012	-0.359281	2.335781	1
H	1.496602	-0.793401	1.398311	1
H	-0.002048	-1.983281	-0.870989	1
H	1.168702	0.548869	-2.146799	1
H	1.071352	-1.166861	-2.836339	1
H	1.125302	3.332479	0.343681	1
Es	0.340879	-0.542033	1.987970	99
Es	0.866355	-0.484980	-2.017054	99
Es	0.904389	1.661980	0.257865	99
Es	0.276571	-0.626375	-1.588588	99
Es	-1.891322	-0.865539	0.539412	99
Es	0.339240	1.867295	0.091552	99
Es	-0.109899	-0.154893	0.346201	99
Es	0.371970	1.206042	0.346128	99
Es	0.481947	1.805094	0.698760	99
Es	0.238829	-0.519588	0.986471	99
Es	1.002126	2.983872	0.345507	99
Es	-1.834566	0.178207	1.139304	99
Es	0.263829	-0.925957	-0.900911	99
Es	0.076557	-1.636329	-0.868519	99
Es	-1.636031	-0.171051	0.512016	99
Es	1.005825	-0.943654	-2.573666	99
Es	0.089302	-0.508501	-0.285022	99
Es	1.072020	0.209166	-2.110032	99
Es	0.483302	-0.861189	1.482965	99
Es	1.091935	-0.805170	1.429171	99
Es	0.139375	0.558383	0.330630	99
Es	-1.964115	0.174147	-0.056782	99
Es	0.369150	-1.196584	1.488283	99
Es	-0.858694	-0.150072	0.420634	99
Es	0.769428	2.328397	0.346139	99
Es	0.861293	-0.766968	-1.327606	99
42
Properties=species:S:1:pos:R:3:Z:I:1 energy=-286.9033040920689 field_type=dipole dipole="0.000000 0.000000 0.000000" charge=0
C	-1.636078	-0.171061	0.512021	6
C	-0.109968	-0.154911	0.346131	6
N	0.483122	-0.861731	1.482991	7
C	0.263882	-0.925961	-0.901019	6
C	0.866322	-0.485001	-2.016989	6
C	0.372052	1.206259	0.346131	6
C	0.769332	2.328159	0.346131	6
H	-2.132658	0.335939	-0.325259	1
H	-1.949098	0.343649	1.429541	1
H	-2.030828	-1.193871	0.556681	1
H	0.244012	-0.359281	2.335781	1
H	1.496602	-0.793401	1.398311	1
H	-0.002048	-1.983281	-0.870989	1
H	1.168702	0.548869	-2.146799	1
H	1.071352	-1.166861	-2.836339	1
H	1.125302	3.332479	0.343681	1
Es	0.673897	1.743562	0.009023	99
Es	0.247171	1.895449	0.426975	99
Es	0.769422	2.328402	0.346145	99
Es	0.804515	1.695765	0.612062	99
Es	-1.636032	-0.171049	0.512017	99
Es	1.002151	2.983799	0.345340	99
Es	0.369667	-1.196552	1.487819	99
Es	-0.109898	-0.154893	0.346199	99
Es	0.861341	-0.766986	-1.327602	99
Es	0.340611	-0.542568	1.988391	99
Es	-1.964154	0.174183	-0.056781	99
Es	0.866356	-0.484978	-2.017054	99
Es	-0.858667	-0.150004	0.420575	99
Es	0.238535	-0.519494	0.986557	99
Es	1.071996	0.209174	-2.110035	99
Es	0.076466	-1.636362	-0.868611	99
Es	0.263832	-0.925957	-0.900907	99
Es	0.089293	-0.508504	-0.284989	99
Es	0.276697	-0.626357	-1.588482	99
Es	1.091868	-0.804799	1.429117	99
Es	0.371974	1.206036	0.346134	99
Es	0.139396	0.558044	0.330946	99
Es	-1.891301	-0.865569	0.539429	99
Es	1.005808	-0.943634	-2.573662	99
Es	-1.834543	0.178151	1.139272	99
Es	0.483293	-0.861158	1.482949	99
42
Properties=species:S:1:pos:R:3:Z:I:1 energy=-286.9033040920689 field_type=dipole dipole="0.000000 0.000000 0.000000" charge=0
C	-1.636078	-0.171061	0.512021	6
C	-0.109968	-0.154911	0.346131	6
N	0.483122	-0.861731	1.482991	7
C	0.263882	-0.925961	-0.901019	6
C	0.866322	-0.485001	-2.016989	6
C	0.372052	1.206259	0.346131	6
C	0.769332	2.328159	0.346131	6
H	-2.132658	0.335939	-0.325259	1
H	-1.949098	0.343649	1.429541	1
H	-2.030828	-1.193871	0.556681	1
H	0.244012	-0.359281	2.335781	1
H	1.496602	-0.793401	1.398311	1
H	-0.002048	-1.983281	-0.870989	1
H	1.168702	0.548869	-2.146799	1
H	1.071352	-1.166861	-2.836339	1
H	1.125302	3.332479	0.343681	1
Es	0.729620	1.723319	0.033300	99
Es	0.076418	-1.636350	-0.868588	99
Es	0.369608	-1.196582	1.487896	99
Es	-0.858730	-0.150145	0.420466	99
Es	1.005753	-0.943644	-2.573676	99
Es	0.139088	0.558030	0.331031	99
Es	1.091810	-0.804859	1.429200	99
Es	-1.834569	0.178194	1.139252	99
Es	0.089572	-0.508267	-0.284952	99
Es	0.866356	-0.484979	-2.017055	99
Es	-1.636033	-0.171051	0.512017	99
Es	0.263833	-0.925957	-0.900905	99
Es	1.002200	2.983734	0.345336	99
Es	0.755965	1.711925	0.650965	99
Es	0.240115	1.899591	0.363793	99
Es	0.769422	2.328401	0.346144	99
Es	0.276742	-0.626356	-1.588455	99
Es	0.340653	-0.542448	1.988315	99
Es	0.483284	-0.861203	1.482964	99
Es	0.238659	-0.519475	0.986490	99
Es	0.861311	-0.767059	-1.327638	99
Es	-0.109896	-0.154893	0.346205	99
Es	1.071966	0.209166	-2.110071	99
Es	-1.964108	0.174156	-0.056790	99
Es	-1.891313	-0.865582	0.539436	99
Es	0.371969	1.206033	0.346146	99
42
Properties=species:S:1:pos:R:3:Z:I:1 energy=-286.9033040920689 field_type=dipole dipole="0.000000 0.000000 0.000000" charge=0
C	-1.636078	-0.171061	0.512021	6
C	-0.109968	-0.154911	0.346131	6
N	0.483122	-0.861731	1.482991	7
C	0.263882	-0.925961	-0.901019	6
C	0.866322	-0.485001	-2.016989	6
C	0.372052	1.206259	0.346131	6
C	0.769332	2.328159	0.346131	6
H	-2.132658	0.335939	-0.325259	1
H	-1.949098	0.343649	1.429541	1
H	-2.030828	-1.193871	0.556681	1
H	0.244012	-0.359281	2.335781	1
H	1.496602	-0.793401	1.398311	1
H	-0.002048	-1.983281	-0.870989	1
H	1.168702	0.548869	-2.146799	1
H	1.071352	-1.166861	-2.836339	1
H	1.125302	3.332479	0.343681	1
Es	0.089430	-0.508309	-0.285008	99
Es	-1.636033	-0.171051	0.512017	99
Es	0.371976	1.206039	0.346135	99
Es	1.005748	-0.943695	-2.573722	99
Es	1.002054	2.983825	0.345386	99
Es	1.091864	-0.804917	1.429314	99
Es	0.421469	1.826830	0.674008	99
Es	-0.858753	-0.149897	0.420565	99
Es	0.139400	0.558128	0.330546	99
Es	0.388541	1.849164	0.048013	99
Es	0.483294	-0.861179	1.482965	99
Es	0.915536	1.658412	0.326325	99
Es	-1.964130	0.174182	-0.056721	99
Es	-1.891364	-0.865564	0.539409	99
Es	0.340537	-0.542647	1.988337	99
Es	0.769422	2.328401	0.346146	99
Es	1.071983	0.209222	-2.110008	99
Es	-0.109901	-0.154892	0.346198	99
Es	0.076521	-1.636401	-0.868627	99
Es	0.263832	-0.925955	-0.900910	99
Es	0.238848	-0.519304	0.986598	99
Es	-1.834556	0.178161	1.139254	99
Es	0.276894	-0.626410	-1.588393	99
Es	0.861112	-0.766993	-1.327713	99
Es	0.369615	-1.196469	1.487767	99
Es	0.866355	-0.484979	-2.017054	99
42
Properties=species:S:1:pos:R:3:Z:I:1 energy=-286.9033040920689 field_type=dipole dipole="0.000000 0.000000 0.000000" charge=0
C	-1.636078	-0.171061	0.512021	6
C	-0.109968	-0.154911	0.346131	6
N	0.483122	-0.861731	1.482991	7
C	0.263882	-0.925961	-0.901019	6
C	0.866322	-0.485001	-2.016989	6
C	0.372052	1.206259	0.346131	6
C	0.769332	2.328159	0.346131	6
H	-2.132658	0.335939	-0.325259	1
H	-1.949098	0.343649	1.429541	1
H	-2.030828	-1.193871	0.556681	1
H	0.244012	-0.359281	2.335781	1
H	1.496602	-0.793401	1.398311	1
H	-0.002048	-1.983281	-0.870989	1
H	1.168702	0.548869	-2.146799	1
H	1.071352	-1.166861	-2.836339	1
H	1.125302	3.332479	0.343681	1
Es	0.089537	-0.508180	-0.284916	99
Es	-1.891386	-0.865605	0.539434	99
Es	0.350936	1.862986	0.079052	99
Es	-1.964047	0.174151	-0.056763	99
Es	0.263831	-0.925955	-0.900911	99
Es	0.861027	-0.766983	-1.327741	99
Es	0.340514	-0.542650	1.988400	99
Es	1.071999	0.209216	-2.110026	99
Es	0.276898	-0.626439	-1.588390	99
Es	1.001979	2.983817	0.345380	99
Es	-1.834576	0.178245	1.139222	99
Es	0.371977	1.206038	0.346134	99
Es	0.369674	-1.196110	1.487845	99
Es	1.091956	-0.805113	1.429274	99
Es	0.238828	-0.519374	0.986546	99
Es	-0.858912	-0.149907	0.420551	99
Es	-1.636030	-0.171050	0.512016	99
Es	0.076479	-1.636421	-0.868660	99
Es	0.466159	1.810750	0.693641	99
Es	1.005810	-0.943706	-2.573669	99
Es	0.483283	-0.861214	1.482970	99
Es	0.139254	0.558038	0.330472	99
Es	0.866357	-0.484979	-2.017052	99
Es	0.908626	1.660642	0.275671	99
Es	-0.109897	-0.154894	0.346201	99
Es	0.769421	2.328400	0.346147	99
42
Properties=species:S:1:pos:R:3:Z:I:1 energy=-286.9033040920689 field_type=dipole dipole="0.000000 0.000000 0.000000" charge=0
C	-1.636078	-0.171061	0.512021	6
C	-0.109968	-0.154911	0.346131	6
N	0.483122	-0.861731	1.482991	7
C	0.263882	-0.925961	-0.901019	6
C	0.866322	-0.485001	-2.016989	6
C	0.372052	1.206259	0.346131	6
C	0.769332	2.328159	0.346131	6
H	-2.132658	0.335939	-0.325259	1
H	-1.949098	0.343649	1.429541	1
H	-2.030828	-1.193871	0.556681	1
H	0.244012	-0.359281	2.335781	1
H	1.496602	-0.793401	1.398311	1
H	-0.002048	-1.983281	-0.870989	1
H	1.168702	0.548869	-2.146799	1
H	1.071352	-1.166861	-2.836339	1
H	1.125302	3.332479	0.343681	1
Es	-1.891315	-0.865546	0.539503	99
Es	0.239007	-0.519264	0.986568	99
Es	1.005734	-0.943662	-2.573695	99
Es	0.089562	-0.508064	-0.285015	99
Es	-0.109899	-0.154894	0.346201	99
Es	0.371974	1.206037	0.346134	99
Es	-0.858847	-0.149897	0.420464	99
Es	0.769421	2.328399	0.346146	99
Es	1.002064	2.983743	0.345447	99
Es	0.866352	-0.484979	-2.017055	99
Es	0.076432	-1.636446	-0.868689	99
Es	0.340503	-0.542749	1.988442	99
Es	0.438330	1.830802	0.020111	99
Es	0.914781	1.658820	0.385814	99
Es	1.091853	-0.805090	1.429324	99
Es	0.139287	0.557886	0.330687	99
Es	0.263827	-0.925955	-0.900910	99
Es	0.483283	-0.861165	1.482952	99
Es	-1.636033	-0.171052	0.512017	99
Es	0.372374	1.844936	0.642228	99
Es	0.861086	-0.767030	-1.327721	99
Es	-1.834503	0.178169	1.139245	99
Es	-1.964234	0.174130	-0.056726	99
Es	1.072015	0.209182	-2.110035	99
Es	0.276942	-0.626386	-1.588337	99
Es	0.369697	-1.196223	1.487729	99
42
Properties=species:S:1:pos:R:3:Z:I:1 energy=-286.9033040920689 field_type=dipole dipole="0.000000 0.000000 0.000000" charge=0
C	-1.636078	-0.171061	0.512021	6
C	-0.109968	-0.154911	0.346131	6
N	0.483122	-0.861731	1.482991	7
C	0.263882	-0.925961	-0.901019	6
C	0.866322	-0.485001	-2.016989	6
C	0.372052	1.206259	0.346131	6
C	0.769332	2.328159	0.346131	6
H	-2.132658	0.335939	-0.325259	1
H	-1.949098	0.343649	1.429541	1
H	-2.030828	-1.193871	0.556681	1
H	0.244012	-0.359281	2.335781	1
H	1.496602	-0.793401	1.398311	1
H	-0.002048	-1.983281	-0.870989	1
H	1.168702	0.548869	-2.146799	1
H	1.071352	-1.166861	-2.836339	1
H	1.125302	3.332479	0.343681	1
Es	-1.636036	-0.171051	0.512016	99
Es	0.240657	1.900257	0.325965	99
Es	-0.858806	-0.149710	0.420461	99
Es	1.071956	0.209233	-2.110020	99
Es	0.860939	-0.766968	-1.327772	99
Es	-1.964108	0.174116	-0.056746	99
Es	0.263842	-0.925956	-0.900913	99
Es	0.076503	-1.636460	-0.868670	99
Es	0.760358	1.712279	0.052135	99
Es	0.277029	-0.626472	-1.588325	99
Es	0.371975	1.206039	0.346134	99
Es	1.002177	2.983634	0.345278	99
Es	0.370046	-1.195919	1.487665	99
Es	0.139154	0.557556	0.330842	99
Es	0.866356	-0.484979	-2.017053	99
Es	-0.109895	-0.154896	0.346203	99
Es	-1.891349	-0.865527	0.539429	99
Es	0.769420	2.328398	0.346144	99
Es	0.340271	-0.543011	1.988605	99
Es	0.089536	-0.508018	-0.284883	99
Es	-1.834647	0.178170	1.139201	99
Es	0.483296	-0.861207	1.482946	99
Es	0.724702	1.722350	0.670058	99
Es	1.005749	-0.943726	-2.573707	99
Es	1.091927	-0.804924	1.429376	99
Es	0.238642	-0.519507	0.986459	99
42
Properties=species:S:1:pos:R:3:Z:I:1 energy=-286.9033040920689 field_type=dipole dipole="0.000000 0.000000 0.000000" charge=0
C	-1.636078	-0.171061	0.512021	6
C	-0.109968	-0.154911	0.346131	6
N	0.483122	-0.861731	1.482991	7
C	0.263882	-0.925961	-0.901019	6
C	0.866322	-0.485001	-2.016989	6
C	0.372052	1.206259	0.346131	6
C	0.769332	2.328159	0.346131	6
H	-2.132658	0.335939	-0.325259	1
H	-1.949098	0.343649	1.429541	1
H	-2.030828	-1.193871	0.556681	1
H	0.244012	-0.359281	2.335781	1
H	1.496602	-0.793401	1.398311	1
H	-0.002048	-1.983281	-0.870989	1
H	1.168702	0.548869	-2.146799	1
H	1.071352	-1.166861	-2.836339	1
H	1.125302	3.332479	0.343681	1
Es	0.076467	-1.636458	-0.868741	99
Es	0.139344	0.557696	0.330605	99
Es	0.263833	-0.925952	-0.900919	99
Es	-1.834617	0.178109	1.139248	99
Es	0.277050	-0.626455	-1.588293	99
Es	-0.109898	-0.154895	0.346198	99
Es	0.416841	1.828500	0.672156	99
Es	-1.636035	-0.171047	0.512009	99
Es	0.483262	-0.861193	1.483004	99
Es	0.769421	2.328399	0.346145	99
Es	0.340649	-0.542650	1.988253	99
Es	0.089619	-0.507976	-0.284927	99
Es	0.392522	1.847777	0.046034	99
Es	0.371964	1.206043	0.346122	99
Es	0.369469	-1.196684	1.487659	99
Es	0.916140	1.658213	0.329935	99
Es	0.860883	-0.766981	-1.327802	99
Es	0.866354	-0.484979	-2.017053	99
Es	1.005794	-0.943728	-2.573702	99
Es	-1.891365	-0.865557	0.539353	99
Es	-1.964114	0.174181	-0.056667	99
Es	0.239264	-0.518953	0.986807	99
Es	1.091739	-0.804970	1.429413	99
Es	1.002030	2.983733	0.345485	99
Es	1.072003	0.209216	-2.109992	99
Es	-0.858924	-0.149685	0.420497	99
