45
Properties=species:S:1:pos:R:3:Z:I:1 energy=-288.07699163704604 field_type=dipole dipole="0.000000 0.000000 0.000000" charge=0
C	-0.249756	-2.186123	-0.089959	6
C	-0.876656	-0.817893	0.157381	6
N	-0.378816	0.228757	-0.745829	7
C	-1.148746	1.462507	-0.581129	6
C	1.067874	0.478547	-0.652909	6
C	1.533854	0.907237	0.676681	6
C	1.921004	1.256217	1.760011	6
H	-0.767196	-2.945513	0.505801	1
H	0.805804	-2.209053	0.197121	1
H	-0.331826	-2.474453	-1.143149	1
H	-0.746386	-0.540293	1.210491	1
H	-1.956726	-0.931913	-0.002269	1
H	-2.207566	1.283517	-0.800229	1
H	-0.813196	2.228367	-1.289429	1
H	-1.077816	1.872457	0.432451	1
H	1.345524	1.240347	-1.392879	1
H	1.618183	-0.417273	-0.962699	1
H	2.262444	1.564567	2.720551	1
Es	-0.571554	-0.206379	-0.325337	99
Es	-0.699693	0.771896	-0.640719	99
Es	0.261378	0.351587	-0.646514	99
Es	-1.870614	1.332904	-0.725592	99
Es	-0.605391	-2.697471	0.319523	99
Es	-0.876583	-0.817835	0.157272	99
Es	1.439790	-0.123378	-0.837238	99
Es	-0.546096	-1.499119	0.028133	99
Es	0.471409	-2.196530	0.103815	99
Es	1.660320	0.759398	1.365538	99
Es	1.921068	1.256289	1.760205	99
Es	1.478842	1.341593	1.237636	99
Es	1.067788	0.478573	-0.652772	99
Es	1.533770	0.907163	0.676458	99
Es	-1.616221	-0.887343	0.044062	99
Es	2.143824	1.457800	2.387010	99
Es	-0.909368	1.983965	-1.062594	99
Es	1.252405	1.002071	-1.131199	99
Es	-0.249766	-2.186100	-0.089944	99
Es	1.307725	0.704145	0.051943	99
Es	-0.425963	0.117366	-1.069567	99
Es	-0.305857	-2.379425	-0.806342	99
Es	2.052332	1.152876	1.082965	99
Es	-1.098587	1.742200	0.116710	99
Es	-1.148677	1.462396	-0.581154	99
Es	-0.782836	-0.625394	0.882850	99
Es	-0.378684	0.229001	-0.745120	99
45
Properties=species:S:1:pos:R:3:Z:I:1 energy=-288.07699163704604 field_type=dipole dipole="0.000000 0.000000 0.000000" charge=0
C	-0.249756	-2.186123	-0.089959	6
C	-0.876656	-0.817893	0.157381	6
N	-0.378816	0.228757	-0.745829	7
C	-1.148746	1.462507	-0.581129	6
C	1.067874	0.478547	-0.652909	6
C	1.533854	0.907237	0.676681	6
C	1.921004	1.256217	1.760011	6
H	-0.767196	-2.945513	0.505801	1
H	0.805804	-2.209053	0.197121	1
H	-0.331826	-2.474453	-1.143149	1
H	-0.746386	-0.540293	1.210491	1
H	-1.956726	-0.931913	-0.002269	1
H	-2.207566	1.283517	-0.800229	1
H	-0.813196	2.228367	-1.289429	1
H	-1.077816	1.872457	0.432451	1
H	1.345524	1.240347	-1.392879	1
H	1.618183	-0.417273	-0.962699	1
H	2.262444	1.564567	2.720551	1
Es	-1.148677	1.462395	-0.581153	99
Es	-0.571454	-0.206318	-0.325272	99
Es	-0.426227	0.117412	-1.069795	99
Es	1.067790	0.478571	-0.652773	99
Es	-0.305939	-2.379239	-0.806341	99
Es	-0.249766	-2.186099	-0.089944	99
Es	1.599334	0.783026	1.376348	99
Es	-0.782926	-0.625357	0.882759	99
Es	2.064902	1.089711	1.098513	99
Es	-0.876584	-0.817835	0.157271	99
Es	0.261327	0.351711	-0.646632	99
Es	-0.699550	0.771681	-0.640456	99
Es	-0.545908	-1.499066	0.028441	99
Es	1.533767	0.907164	0.676459	99
Es	1.307545	0.704390	0.051832	99
Es	1.439825	-0.123444	-0.837009	99
Es	1.252514	1.001940	-1.131288	99
Es	-0.378698	0.229002	-0.745189	99
Es	1.527355	1.381144	1.211246	99
Es	1.921075	1.256322	1.760224	99
Es	-0.605387	-2.697584	0.319462	99
Es	-1.870650	1.332971	-0.725525	99
Es	2.143847	1.457659	2.387029	99
Es	-1.616247	-0.887417	0.044041	99
Es	0.471402	-2.196649	0.103686	99
Es	-0.909402	1.983945	-1.062580	99
Es	-1.098506	1.742212	0.116673	99
45
Properties=species:S:1:pos:R:3:Z:I:1 energy=-288.07699163704604 field_type=dipole dipole="0.000000 0.000000 0.000000" charge=0
C	-0.249756	-2.186123	-0.089959	6
C	-0.876656	-0.817893	0.157381	6
N	-0.378816	0.228757	-0.745829	7
C	-1.148746	1.462507	-0.581129	6
C	1.067874	0.478547	-0.652909	6
C	1.533854	0.907237	0.676681	6
C	1.921004	1.256217	1.760011	6
H	-0.767196	-2.945513	0.505801	1
H	0.805804	-2.209053	0.197121	1
H	-0.331826	-2.474453	-1.143149	1
H	-0.746386	-0.540293	1.210491	1
H	-1.956726	-0.931913	-0.002269	1
H	-2.207566	1.283517	-0.800229	1
H	-0.813196	2.228367	-1.289429	1
H	-1.077816	1.872457	0.432451	1
H	1.345524	1.240347	-1.392879	1
H	1.618183	-0.417273	-0.962699	1
H	2.262444	1.564567	2.720551	1
Es	-1.870610	1.332936	-0.725476	99
Es	0.261519	0.351435	-0.646897	99
Es	0.471439	-2.196639	0.103763	99
Es	-1.148676	1.462394	-0.581154	99
Es	1.252548	1.002145	-1.131163	99
Es	-0.378698	0.228980	-0.745218	99
Es	-0.699598	0.771815	-0.640458	99
Es	1.921077	1.256288	1.760217	99
Es	2.063757	1.102726	1.094657	99
Es	-0.909474	1.983999	-1.062596	99
Es	-1.616130	-0.887337	0.044076	99
Es	-0.426371	0.117506	-1.069313	99
Es	-0.571486	-0.206308	-0.325466	99
Es	1.439861	-0.123332	-0.837117	99
Es	1.611624	0.777528	1.374475	99
Es	1.067788	0.478572	-0.652776	99
Es	-0.605389	-2.697467	0.319467	99
Es	-0.876583	-0.817835	0.157272	99
Es	1.516292	1.373704	1.216897	99
Es	-1.098536	1.742202	0.116651	99
Es	1.307490	0.704175	0.051894	99
Es	-0.249766	-2.186100	-0.089944	99
Es	-0.305895	-2.379421	-0.806258	99
Es	2.143812	1.457586	2.387021	99
Es	-0.546064	-1.499101	0.028188	99
Es	1.533770	0.907165	0.676465	99
Es	-0.782938	-0.625366	0.882820	99
45
Properties=species:S:1:pos:R:3:Z:I:1 energy=-288.07699163704604 field_type=dipole dipole="0.000000 0.000000 0.000000" charge=0
C	-0.249756	-2.186123	-0.089959	6
C	-0.876656	-0.817893	0.157381	6
N	-0.378816	0.228757	-0.745829	7
C	-1.148746	1.462507	-0.581129	6
C	1.067874	0.478547	-0.652909	6
C	1.533854	0.907237	0.676681	6
C	1.921004	1.256217	1.760011	6
H	-0.767196	-2.945513	0.505801	1
H	0.805804	-2.209053	0.197121	1
H	-0.331826	-2.474453	-1.143149	1
H	-0.746386	-0.540293	1.210491	1
H	-1.956726	-0.931913	-0.002269	1
H	-2.207566	1.283517	-0.800229	1
H	-0.813196	2.228367	-1.289429	1
H	-1.077816	1.872457	0.432451	1
H	1.345524	1.240347	-1.392879	1
H	1.618183	-0.417273	-0.962699	1
H	2.262444	1.564567	2.720551	1
Es	-0.782988	-0.625357	0.882706	99
Es	-1.870613	1.332936	-0.725434	99
Es	1.599888	1.415762	1.177706	99
Es	-0.305799	-2.379411	-0.806308	99
Es	1.439956	-0.123331	-0.837133	99
Es	2.065942	1.006405	1.126677	99
Es	-0.571465	-0.206399	-0.325450	99
Es	1.252470	1.002209	-1.131138	99
Es	1.921062	1.256266	1.760240	99
Es	-1.098538	1.742174	0.116607	99
Es	-0.605360	-2.697494	0.319389	99
Es	-1.148679	1.462400	-0.581153	99
Es	-0.546123	-1.499149	0.028335	99
Es	-1.616185	-0.887315	0.044075	99
Es	1.307578	0.704331	0.051631	99
Es	-0.378692	0.229001	-0.745173	99
Es	-0.699721	0.771848	-0.640827	99
Es	1.533771	0.907165	0.676452	99
Es	1.525835	0.831913	1.381735	99
Es	-0.249766	-2.186099	-0.089945	99
Es	-0.909502	1.984040	-1.062584	99
Es	2.143751	1.457319	2.387069	99
Es	-0.876585	-0.817837	0.157274	99
Es	0.261543	0.351417	-0.646875	99
Es	0.471396	-2.196606	0.103858	99
Es	1.067785	0.478571	-0.652770	99
Es	-0.426202	0.117492	-1.068935	99
45
Properties=species:S:1:pos:R:3:Z:I:1 energy=-288.07699163704604 field_type=dipole dipole="0.000000 0.000000 0.000000" charge=0
C	-0.249756	-2.186123	-0.089959	6
C	-0.876656	-0.817893	0.157381	6
N	-0.378816	0.228757	-0.745829	7
C	-1.148746	1.462507	-0.581129	6
C	1.067874	0.478547	-0.652909	6
C	1.533854	0.907237	0.676681	6
C	1.921004	1.256217	1.760011	6
H	-0.767196	-2.945513	0.505801	1
H	0.805804	-2.209053	0.197121	1
H	-0.331826	-2.474453	-1.143149	1
H	-0.746386	-0.540293	1.210491	1
H	-1.956726	-0.931913	-0.002269	1
H	-2.207566	1.283517	-0.800229	1
H	-0.813196	2.228367	-1.289429	1
H	-1.077816	1.872457	0.432451	1
H	1.345524	1.240347	-1.392879	1
H	1.618183	-0.417273	-0.962699	1
H	2.262444	1.564567	2.720551	1
Es	1.252588	1.002219	-1.131092	99
Es	1.308154	0.703971	0.051379	99
Es	1.439923	-0.123248	-0.837091	99
Es	1.067789	0.478571	-0.652773	99
Es	-1.616180	-0.887327	0.044109	99
Es	1.393080	1.061030	1.345565	99
Es	-0.378695	0.228985	-0.745203	99
Es	2.143276	1.457564	2.387114	99
Es	-1.098564	1.742189	0.116565	99
Es	1.947262	0.800733	1.248723	99
Es	-0.876584	-0.817836	0.157274	99
Es	1.921077	1.256285	1.760232	99
Es	-0.546000	-1.499029	0.028331	99
Es	-0.571544	-0.206531	-0.325663	99
Es	0.471327	-2.196724	0.103773	99
Es	-0.783000	-0.625389	0.882659	99
Es	1.851069	1.392338	1.092114	99
Es	-1.870633	1.332972	-0.725471	99
Es	1.533770	0.907163	0.676460	99
Es	0.261517	0.351459	-0.646796	99
Es	-0.909460	1.984027	-1.062554	99
Es	-0.305799	-2.379413	-0.806253	99
Es	-0.699785	0.771775	-0.640706	99
Es	-0.249766	-2.186099	-0.089945	99
Es	-1.148678	1.462397	-0.581154	99
Es	-0.426006	0.117682	-1.068973	99
Es	-0.605378	-2.697515	0.319403	99
45
Properties=species:S:1:pos:R:3:Z:I:1 energy=-288.07699163704604 field_type=dipole dipole="0.000000 0.000000 0.000000" charge=0
C	-0.249756	-2.186123	-0.089959	6
C	-0.876656	-0.817893	0.157381	6
N	-0.378816	0.228757	-0.745829	7
C	-1.148746	1.462507	-0.581129	6
C	1.067874	0.478547	-0.652909	6
C	1.533854	0.907237	0.676681	6
C	1.921004	1.256217	1.760011	6
H	-0.767196	-2.945513	0.505801	1
H	0.805804	-2.209053	0.197121	1
H	-0.331826	-2.474453	-1.143149	1
H	-0.746386	-0.540293	1.210491	1
H	-1.956726	-0.931913	-0.002269	1
H	-2.207566	1.283517	-0.800229	1
H	-0.813196	2.228367	-1.289429	1
H	-1.077816	1.872457	0.432451	1
H	1.345524	1.240347	-1.392879	1
H	1.618183	-0.417273	-0.962699	1
H	2.262444	1.564567	2.720551	1
Es	2.143836	1.457591	2.386909	99
Es	1.067787	0.478571	-0.652772	99
Es	1.533769	0.907164	0.676461	99
Es	-0.305729	-2.379457	-0.806221	99
Es	-1.870647	1.332997	-0.725476	99
Es	-0.699814	0.771882	-0.640953	99
Es	-0.249766	-2.186100	-0.089944	99
Es	1.921088	1.256291	1.760226	99
Es	-0.909441	1.984037	-1.062525	99
Es	-0.783020	-0.625394	0.882643	99
Es	0.261467	0.351329	-0.647101	99
Es	-0.571462	-0.206382	-0.325394	99
Es	-0.426161	0.117494	-1.068445	99
Es	-0.605362	-2.697523	0.319375	99
Es	2.060927	1.117715	1.090873	99
Es	1.625877	0.771098	1.372304	99
Es	1.504826	1.365253	1.222924	99
Es	-0.876584	-0.817838	0.157274	99
Es	-1.148678	1.462397	-0.581152	99
Es	-0.546090	-1.499051	0.028272	99
Es	1.307471	0.703981	0.051664	99
Es	1.252645	1.002289	-1.131205	99
Es	-0.378717	0.228993	-0.745261	99
Es	-1.098582	1.742175	0.116534	99
Es	1.439954	-0.123280	-0.836941	99
Es	0.471302	-2.196723	0.103805	99
Es	-1.616133	-0.887260	0.044157	99
45
Properties=species:S:1:pos:R:3:Z:I:1 energy=-288.07699163704604 field_type=dipole dipole="0.000000 0.000000 0.000000" charge=0
C	-0.249756	-2.186123	-0.089959	6
C	-0.876656	-0.817893	0.157381	6
N	-0.378816	0.228757	-0.745829	7
C	-1.148746	1.462507	-0.581129	6
C	1.067874	0.478547	-0.652909	6
C	1.533854	0.907237	0.676681	6
C	1.921004	1.256217	1.760011	6
H	-0.767196	-2.945513	0.505801	1
H	0.805804	-2.209053	0.197121	1
H	-0.331826	-2.474453	-1.143149	1
H	-0.746386	-0.540293	1.210491	1
H	-1.956726	-0.931913	-0.002269	1
H	-2.207566	1.283517	-0.800229	1
H	-0.813196	2.228367	-1.289429	1
H	-1.077816	1.872457	0.432451	1
H	1.345524	1.240347	-1.392879	1
H	1.618183	-0.417273	-0.962699	1
H	2.262444	1.564567	2.720551	1
Es	-0.249765	-2.186100	-0.089944	99
Es	-1.148679	1.462398	-0.581153	99
Es	1.883781	1.373883	1.084494	99
Es	-0.378687	0.228965	-0.745202	99
Es	-1.870625	1.332998	-0.725455	99
Es	1.918535	0.782523	1.266509	99
Es	0.261602	0.351320	-0.647261	99
Es	1.439983	-0.123248	-0.836952	99
Es	-0.605305	-2.697523	0.319438	99
Es	1.308144	0.703954	0.051189	99
Es	1.252658	1.002236	-1.131130	99
Es	-1.098603	1.742189	0.116499	99
Es	2.143271	1.457647	2.387048	99
Es	-0.699756	0.771839	-0.641107	99
Es	1.921078	1.256288	1.760231	99
Es	-1.616158	-0.887273	0.044164	99
Es	1.533772	0.907165	0.676459	99
Es	-0.305774	-2.379504	-0.806197	99
Es	0.471287	-2.196714	0.103719	99
Es	-0.783042	-0.625417	0.882579	99
Es	-0.571452	-0.206155	-0.325204	99
Es	-0.909495	1.984049	-1.062517	99
Es	1.067788	0.478570	-0.652772	99
Es	1.389096	1.097652	1.335486	99
Es	-0.876585	-0.817836	0.157274	99
Es	-0.426284	0.117362	-1.068443	99
Es	-0.546028	-1.499019	0.028278	99
45
Properties=species:S:1:pos:R:3:Z:I:1 energy=-288.07699163704604 field_type=dipole dipole="0.000000 0.000000 0.000000" charge=0
C	-0.249756	-2.186123	-0.089959	6
C	-0.876656	-0.817893	0.157381	6
N	-0.378816	0.228757	-0.745829	7
C	-1.148746	1.462507	-0.581129	6
C	1.067874	0.478547	-0.652909	6
C	1.533854	0.907237	0.676681	6
C	1.921004	1.256217	1.760011	6
H	-0.767196	-2.945513	0.505801	1
H	0.805804	-2.209053	0.197121	1
H	-0.331826	-2.474453	-1.143149	1
H	-0.746386	-0.540293	1.210491	1
H	-1.956726	-0.931913	-0.002269	1
H	-2.207566	1.283517	-0.800229	1
H	-0.813196	2.228367	-1.289429	1
H	-1.077816	1.872457	0.432451	1
H	1.345524	1.240347	-1.392879	1
H	1.618183	-0.417273	-0.962699	1
H	2.262444	1.564567	2.720551	1
Es	0.471272	-2.196746	0.103699	99
Es	0.261418	0.351420	-0.646975	99
Es	-1.148679	1.462398	-0.581153	99
Es	1.533771	0.907168	0.676458	99
Es	-1.870628	1.333029	-0.725475	99
Es	1.307856	0.704353	0.051122	99
Es	2.036889	0.906911	1.174123	99
Es	1.440044	-0.123286	-0.836884	99
Es	-0.783093	-0.625406	0.882534	99
Es	-0.699859	0.771758	-0.641045	99
Es	-0.305775	-2.379525	-0.806172	99
Es	2.143545	1.457218	2.387057	99
Es	-0.546003	-1.498999	0.028323	99
Es	-0.571631	-0.206641	-0.325672	99
Es	-0.909478	1.984049	-1.062489	99
Es	1.704780	1.430267	1.136843	99
Es	-0.876585	-0.817836	0.157274	99
Es	-0.605289	-2.697522	0.319437	99
Es	1.067788	0.478571	-0.652773	99
Es	-0.425905	0.117867	-1.068192	99
Es	-1.098629	1.742191	0.116480	99
Es	1.449777	0.916890	1.375444	99
Es	-0.378697	0.228960	-0.745277	99
Es	1.252693	1.002264	-1.131123	99
Es	-0.249765	-2.186100	-0.089944	99
Es	-1.616137	-0.887283	0.044179	99
Es	1.921079	1.256285	1.760231	99
45
Properties=species:S:1:pos:R:3:Z:I:1 energy=-288.07699163704604 field_type=dipole dipole="0.000000 0.000000 0.000000" charge=0
C	-0.249756	-2.186123	-0.089959	6
C	-0.876656	-0.817893	0.157381	6
N	-0.378816	0.228757	-0.745829	7
C	-1.148746	1.462507	-0.581129	6
C	1.067874	0.478547	-0.652909	6
C	1.533854	0.907237	0.676681	6
C	1.921004	1.256217	1.760011	6
H	-0.767196	-2.945513	0.505801	1
H	0.805804	-2.209053	0.197121	1
H	-0.331826	-2.474453	-1.143149	1
H	-0.746386	-0.540293	1.210491	1
H	-1.956726	-0.931913	-0.002269	1
H	-2.207566	1.283517	-0.800229	1
H	-0.813196	2.228367	-1.289429	1
H	-1.077816	1.872457	0.432451	1
H	1.345524	1.240347	-1.392879	1
H	1.618183	-0.417273	-0.962699	1
H	2.262444	1.564567	2.720551	1
Es	-1.098646	1.742198	0.116441	99
Es	1.921082	1.256280	1.760228	99
Es	1.655588	0.760361	1.366723	99
Es	-0.571617	-0.206587	-0.325623	99
Es	-0.909432	1.984039	-1.062458	99
Es	-0.699918	0.771706	-0.641078	99
Es	0.261355	0.351504	-0.646963	99
Es	-0.876586	-0.817837	0.157275	99
Es	0.471219	-2.196796	0.103721	99
Es	-0.605310	-2.697576	0.319365	99
Es	2.143784	1.457659	2.386785	99
Es	-1.148679	1.462398	-0.581153	99
Es	1.440053	-0.123363	-0.836852	99
Es	-1.616102	-0.887256	0.044235	99
Es	-0.546014	-1.498988	0.028350	99
Es	-0.305684	-2.379498	-0.806128	99
Es	2.053924	1.148508	1.083757	99
Es	-0.425928	0.117777	-1.068243	99
Es	1.307445	0.703936	0.051456	99
Es	1.067792	0.478571	-0.652774	99
Es	1.482144	1.345149	1.235721	99
Es	1.252760	1.002329	-1.131090	99
Es	-1.870646	1.333081	-0.725502	99
Es	-0.249766	-2.186100	-0.089948	99
Es	-0.783134	-0.625411	0.882475	99
Es	1.533767	0.907165	0.676463	99
Es	-0.378691	0.229000	-0.745156	99
45
Properties=species:S:1:pos:R:3:Z:I:1 energy=-288.07699163704604 field_type=dipole dipole="0.000000 0.000000 0.000000" charge=0
C	-0.249756	-2.186123	-0.089959	6
C	-0.876656	-0.817893	0.157381	6
N	-0.378816	0.228757	-0.745829	7
C	-1.148746	1.462507	-0.581129	6
C	1.067874	0.478547	-0.652909	6
C	1.533854	0.907237	0.676681	6
C	1.921004	1.256217	1.760011	6
H	-0.767196	-2.945513	0.505801	1
H	0.805804	-2.209053	0.197121	1
H	-0.331826	-2.474453	-1.143149	1
H	-0.746386	-0.540293	1.210491	1
H	-1.956726	-0.931913	-0.002269	1
H	-2.207566	1.283517	-0.800229	1
H	-0.813196	2.228367	-1.289429	1
H	-1.077816	1.872457	0.432451	1
H	1.345524	1.240347	-1.392879	1
H	1.618183	-0.417273	-0.962699	1
H	2.262444	1.564567	2.720551	1
Es	-0.909515	1.984064	-1.062480	99
Es	-0.425942	0.117753	-1.068270	99
Es	1.917979	1.349667	1.077832	99
Es	-0.546027	-1.499004	0.028330	99
Es	-0.305729	-2.379539	-0.806136	99
Es	-0.249765	-2.186101	-0.089944	99
Es	1.308065	0.703771	0.051016	99
Es	1.533771	0.907164	0.676460	99
Es	0.261384	0.351381	-0.646973	99
Es	1.440085	-0.123248	-0.836846	99
Es	-1.098628	1.742201	0.116409	99
Es	-0.876586	-0.817837	0.157275	99
Es	1.921077	1.256288	1.760229	99
Es	-0.699839	0.771723	-0.641079	99
Es	-0.605263	-2.697559	0.319418	99
Es	-1.616117	-0.887220	0.044256	99
Es	1.067789	0.478570	-0.652774	99
Es	-0.571602	-0.206531	-0.325601	99
Es	1.389087	1.138241	1.323282	99
Es	1.252766	1.002341	-1.131072	99
Es	2.143265	1.457739	2.386910	99
Es	-0.783115	-0.625437	0.882444	99
Es	1.884407	0.766166	1.285438	99
Es	0.471218	-2.196777	0.103672	99
Es	-1.870633	1.333043	-0.725433	99
Es	-0.378692	0.228990	-0.745185	99
Es	-1.148680	1.462399	-0.581153	99
45
Properties=species:S:1:pos:R:3:Z:I:1 energy=-288.07699163704604 field_type=dipole dipole="0.000000 0.000000 0.000000" charge=0
C	-0.249756	-2.186123	-0.089959	6
C	-0.876656	-0.817893	0.157381	6
N	-0.378816	0.228757	-0.745829	7
C	-1.148746	1.462507	-0.581129	6
C	1.067874	0.478547	-0.652909	6
C	1.533854	0.907237	0.676681	6
C	1.921004	1.256217	1.760011	6
H	-0.767196	-2.945513	0.505801	1
H	0.805804	-2.209053	0.197121	1
H	-0.331826	-2.474453	-1.143149	1
H	-0.746386	-0.540293	1.210491	1
H	-1.956726	-0.931913	-0.002269	1
H	-2.207566	1.283517	-0.800229	1
H	-0.813196	2.228367	-1.289429	1
H	-1.077816	1.872457	0.432451	1
H	1.345524	1.240347	-1.392879	1
H	1.618183	-0.417273	-0.962699	1
H	2.262444	1.564567	2.720551	1
Es	1.067791	0.478570	-0.652775	99
Es	1.533772	0.907164	0.676464	99
Es	-1.616086	-0.887233	0.044286	99
Es	-0.783141	-0.625429	0.882425	99
Es	1.686979	0.751925	1.359623	99
Es	-0.909485	1.984072	-1.062444	99
Es	-0.378685	0.228991	-0.745185	99
Es	1.307521	0.703772	0.051267	99
Es	-0.425882	0.117145	-1.068180	99
Es	-0.605292	-2.697574	0.319379	99
Es	-1.098645	1.742172	0.116385	99
Es	2.043483	1.179200	1.078238	99
Es	1.461176	1.322879	1.248424	99
Es	-0.876588	-0.817842	0.157278	99
Es	-1.148691	1.462420	-0.581155	99
Es	1.440166	-0.123254	-0.836798	99
Es	0.261139	0.351409	-0.646844	99
Es	1.252789	1.002428	-1.131056	99
Es	-0.249766	-2.186100	-0.089944	99
Es	-0.700031	0.771745	-0.641572	99
Es	2.143711	1.457768	2.386716	99
Es	0.471245	-2.196837	0.103648	99
Es	-0.305751	-2.379495	-0.806095	99
Es	-1.870612	1.333118	-0.725436	99
Es	-0.545995	-1.498993	0.028371	99
Es	1.921080	1.256288	1.760229	99
Es	-0.571445	-0.206059	-0.325220	99
45
Properties=species:S:1:pos:R:3:Z:I:1 energy=-288.07699163704604 field_type=dipole dipole="0.000000 0.000000 0.000000" charge=0
C	-0.249756	-2.186123	-0.089959	6
C	-0.876656	-0.817893	0.157381	6
N	-0.378816	0.228757	-0.745829	7
C	-1.148746	1.462507	-0.581129	6
C	1.067874	0.478547	-0.652909	6
C	1.533854	0.907237	0.676681	6
C	1.921004	1.256217	1.760011	6
H	-0.767196	-2.945513	0.505801	1
H	0.805804	-2.209053	0.197121	1
H	-0.331826	-2.474453	-1.143149	1
H	-0.746386	-0.540293	1.210491	1
H	-1.956726	-0.931913	-0.002269	1
H	-2.207566	1.283517	-0.800229	1
H	-0.813196	2.228367	-1.289429	1
H	-1.077816	1.872457	0.432451	1
H	1.345524	1.240347	-1.392879	1
H	1.618183	-0.417273	-0.962699	1
H	2.262444	1.564567	2.720551	1
Es	-0.876587	-0.817838	0.157276	99
Es	-0.425869	0.117850	-1.068045	99
Es	1.507537	1.367455	1.221519	99
Es	-0.699876	0.771692	-0.641150	99
Es	-0.909544	1.984078	-1.062458	99
Es	-1.148680	1.462400	-0.581153	99
Es	2.143868	1.457574	2.386713	99
Es	-1.616095	-0.887189	0.044313	99
Es	-1.098639	1.742209	0.116345	99
Es	1.440194	-0.123291	-0.836767	99
Es	1.067789	0.478570	-0.652775	99
Es	1.921080	1.256287	1.760228	99
Es	-1.870639	1.333069	-0.725400	99
Es	-0.571641	-0.206587	-0.325705	99
Es	1.533769	0.907165	0.676462	99
Es	1.307411	0.703913	0.051197	99
Es	1.252829	1.002460	-1.131025	99
Es	-0.305744	-2.379597	-0.806085	99
Es	0.261204	0.351378	-0.646850	99
Es	0.471189	-2.196833	0.103615	99
Es	-0.783159	-0.625451	0.882367	99
Es	2.062435	1.113526	1.091702	99
Es	-0.378690	0.228992	-0.745184	99
Es	-0.546002	-1.498975	0.028342	99
Es	-0.605229	-2.697544	0.319436	99
Es	1.621613	0.773037	1.373055	99
Es	-0.249765	-2.186101	-0.089944	99
