48
Properties=species:S:1:pos:R:3:Z:I:1 energy=-289.2975337297573 field_type=dipole dipole="0.000000 0.000000 0.000000" charge=0
C	-2.825525	-0.074224	0.647761	6
C	-1.325905	0.136367	0.795561	6
N	-0.626215	-0.545503	-0.290928	7
C	0.831205	-0.474913	-0.168339	6
C	1.445555	-1.400303	-1.221828	6
C	1.345585	0.927157	-0.370288	6
C	2.055235	1.608297	0.539791	6
H	-3.358915	0.441846	1.452561	1
H	-3.082825	-1.137414	0.700232	1
H	-3.190835	0.321717	-0.305779	1
H	-1.007615	-0.261754	1.765801	1
H	-1.121145	1.212567	0.784052	1
H	-0.918895	-0.168743	-1.190258	1
H	1.130105	-0.857574	0.816082	1
H	1.175745	-1.096413	-2.240579	1
H	1.108335	-2.433513	-1.079558	1
H	2.539575	-1.398504	-1.152878	1
H	1.123905	1.404137	-1.322489	1
H	2.303565	1.179337	1.505912	1
H	2.399065	2.617436	0.335172	1
Es	-2.999647	-0.796785	0.684026	99
Es	0.831101	-0.474887	-0.168405	99
Es	1.144068	-0.928697	-0.704109	99
Es	1.345527	0.927113	-0.370358	99
Es	1.432989	1.396421	0.219830	99
Es	-3.068713	0.198750	-0.008172	99
Es	1.032824	-0.726281	0.509753	99
Es	2.055297	1.608347	0.539860	99
Es	-3.187320	0.281847	1.198117	99
Es	0.008933	-0.471801	-0.237641	99
Es	-0.626039	-0.544876	-0.290934	99
Es	-2.081937	0.029465	0.717558	99
Es	1.215823	-2.099020	-1.121950	99
Es	2.292933	2.293998	0.408459	99
Es	-0.715593	-0.884017	-0.282004	99
Es	1.255036	-1.182728	-1.915334	99
Es	-0.791331	-0.287511	-0.829924	99
Es	-1.099988	-0.139330	1.458533	99
Es	1.095196	0.243232	-0.268871	99
Es	-1.325882	0.136283	0.795448	99
Es	2.191413	-1.393232	-1.173107	99
Es	2.226377	1.320210	1.197591	99
Es	-2.825513	-0.074205	0.647762	99
Es	1.985820	1.154601	-0.030942	99
Es	1.445552	-1.400278	-1.221821	99
Es	-0.910847	-0.219547	0.172841	99
Es	-1.186008	0.880917	0.790120	99
Es	1.184723	1.240891	-1.023716	99
48
Properties=species:S:1:pos:R:3:Z:I:1 energy=-289.2975337297573 field_type=dipole dipole="0.000000 0.000000 0.000000" charge=0
C	-2.825525	-0.074224	0.647761	6
C	-1.325905	0.136367	0.795561	6
N	-0.626215	-0.545503	-0.290928	7
C	0.831205	-0.474913	-0.168339	6
C	1.445555	-1.400303	-1.221828	6
C	1.345585	0.927157	-0.370288	6
C	2.055235	1.608297	0.539791	6
H	-3.358915	0.441846	1.452561	1
H	-3.082825	-1.137414	0.700232	1
H	-3.190835	0.321717	-0.305779	1
H	-1.007615	-0.261754	1.765801	1
H	-1.121145	1.212567	0.784052	1
H	-0.918895	-0.168743	-1.190258	1
H	1.130105	-0.857574	0.816082	1
H	1.175745	-1.096413	-2.240579	1
H	1.108335	-2.433513	-1.079558	1
H	2.539575	-1.398504	-1.152878	1
H	1.123905	1.404137	-1.322489	1
H	2.303565	1.179337	1.505912	1
H	2.399065	2.617436	0.335172	1
Es	-0.910872	-0.219605	0.172916	99
Es	0.831100	-0.474887	-0.168405	99
Es	1.095246	0.243093	-0.268854	99
Es	-0.791411	-0.287633	-0.829827	99
Es	2.055296	1.608346	0.539862	99
Es	2.292968	2.293972	0.408355	99
Es	2.191370	-1.393280	-1.172877	99
Es	1.985648	1.154655	-0.030861	99
Es	1.143976	-0.928710	-0.704271	99
Es	-1.099967	-0.139216	1.458496	99
Es	-1.325882	0.136286	0.795450	99
Es	-0.715625	-0.883761	-0.282049	99
Es	-3.068823	0.198735	-0.008063	99
Es	-1.186009	0.880898	0.790079	99
Es	-2.825513	-0.074205	0.647763	99
Es	1.432998	1.396401	0.219850	99
Es	1.032831	-0.726238	0.509739	99
Es	1.184745	1.240931	-1.023731	99
Es	-2.999612	-0.796822	0.684005	99
Es	1.345528	0.927112	-0.370360	99
Es	0.009112	-0.471833	-0.237678	99
Es	1.215830	-2.098942	-1.121934	99
Es	-0.626054	-0.544908	-0.290939	99
Es	2.226415	1.320230	1.197632	99
Es	1.445555	-1.400279	-1.221825	99
Es	1.255189	-1.182782	-1.915497	99
Es	-3.187304	0.281796	1.198124	99
Es	-2.081940	0.029528	0.717510	99
48
Properties=species:S:1:pos:R:3:Z:I:1 energy=-289.2975337297573 field_type=dipole dipole="0.000000 0.000000 0.000000" charge=0
C	-2.825525	-0.074224	0.647761	6
C	-1.325905	0.136367	0.795561	6
N	-0.626215	-0.545503	-0.290928	7
C	0.831205	-0.474913	-0.168339	6
C	1.445555	-1.400303	-1.221828	6
C	1.345585	0.927157	-0.370288	6
C	2.055235	1.608297	0.539791	6
H	-3.358915	0.441846	1.452561	1
H	-3.082825	-1.137414	0.700232	1
H	-3.190835	0.321717	-0.305779	1
H	-1.007615	-0.261754	1.765801	1
H	-1.121145	1.212567	0.784052	1
H	-0.918895	-0.168743	-1.190258	1
H	1.130105	-0.857574	0.816082	1
H	1.175745	-1.096413	-2.240579	1
H	1.108335	-2.433513	-1.079558	1
H	2.539575	-1.398504	-1.152878	1
H	1.123905	1.404137	-1.322489	1
H	2.303565	1.179337	1.505912	1
H	2.399065	2.617436	0.335172	1
Es	1.433105	1.396380	0.219763	99
Es	-1.099939	-0.139187	1.458451	99
Es	2.055294	1.608349	0.539862	99
Es	2.226398	1.320169	1.197624	99
Es	1.184802	1.240983	-1.023759	99
Es	1.985554	1.154703	-0.030827	99
Es	-0.715749	-0.883948	-0.282212	99
Es	-2.825514	-0.074205	0.647761	99
Es	-1.185959	0.880766	0.790153	99
Es	1.215906	-2.098949	-1.121921	99
Es	-1.325881	0.136286	0.795450	99
Es	1.095210	0.243029	-0.268707	99
Es	-3.187346	0.281796	1.198070	99
Es	1.445555	-1.400281	-1.221827	99
Es	0.009118	-0.471648	-0.237509	99
Es	1.255211	-1.182786	-1.915578	99
Es	-3.068740	0.198774	-0.007996	99
Es	-2.081995	0.029565	0.717594	99
Es	-2.999717	-0.796828	0.683926	99
Es	-0.910907	-0.219700	0.172694	99
Es	1.032780	-0.726245	0.509687	99
Es	2.191257	-1.393293	-1.172879	99
Es	1.144062	-0.928679	-0.704219	99
Es	-0.626049	-0.544972	-0.290929	99
Es	-0.791260	-0.287417	-0.829699	99
Es	0.831098	-0.474888	-0.168404	99
Es	1.345531	0.927112	-0.370360	99
Es	2.292972	2.293994	0.408401	99
48
Properties=species:S:1:pos:R:3:Z:I:1 energy=-289.2975337297573 field_type=dipole dipole="0.000000 0.000000 0.000000" charge=0
C	-2.825525	-0.074224	0.647761	6
C	-1.325905	0.136367	0.795561	6
N	-0.626215	-0.545503	-0.290928	7
C	0.831205	-0.474913	-0.168339	6
C	1.445555	-1.400303	-1.221828	6
C	1.345585	0.927157	-0.370288	6
C	2.055235	1.608297	0.539791	6
H	-3.358915	0.441846	1.452561	1
H	-3.082825	-1.137414	0.700232	1
H	-3.190835	0.321717	-0.305779	1
H	-1.007615	-0.261754	1.765801	1
H	-1.121145	1.212567	0.784052	1
H	-0.918895	-0.168743	-1.190258	1
H	1.130105	-0.857574	0.816082	1
H	1.175745	-1.096413	-2.240579	1
H	1.108335	-2.433513	-1.079558	1
H	2.539575	-1.398504	-1.152878	1
H	1.123905	1.404137	-1.322489	1
H	2.303565	1.179337	1.505912	1
H	2.399065	2.617436	0.335172	1
Es	-2.825512	-0.074206	0.647761	99
Es	2.226383	1.320170	1.197656	99
Es	-2.999714	-0.796729	0.684042	99
Es	2.191336	-1.393328	-1.172874	99
Es	1.255321	-1.182823	-1.915449	99
Es	1.345528	0.927112	-0.370359	99
Es	1.215801	-2.098957	-1.122021	99
Es	1.433200	1.396358	0.219712	99
Es	-2.081979	0.029526	0.717597	99
Es	1.143975	-0.928599	-0.704303	99
Es	1.032831	-0.726210	0.509697	99
Es	1.445555	-1.400279	-1.221825	99
Es	0.009366	-0.472382	-0.237574	99
Es	-0.910563	-0.219128	0.172540	99
Es	-1.325882	0.136287	0.795450	99
Es	-1.100029	-0.139194	1.458396	99
Es	2.292949	2.293990	0.408399	99
Es	-3.068840	0.198770	-0.008121	99
Es	-3.187277	0.281746	1.198049	99
Es	2.055303	1.608346	0.539860	99
Es	1.985500	1.154760	-0.030845	99
Es	0.831104	-0.474890	-0.168404	99
Es	-0.626041	-0.544955	-0.290946	99
Es	-1.185943	0.880769	0.790251	99
Es	-0.791524	-0.288111	-0.830116	99
Es	1.095189	0.242920	-0.268693	99
Es	1.184773	1.241013	-1.023747	99
Es	-0.716016	-0.883100	-0.281522	99
48
Properties=species:S:1:pos:R:3:Z:I:1 energy=-289.2975337297573 field_type=dipole dipole="0.000000 0.000000 0.000000" charge=0
C	-2.825525	-0.074224	0.647761	6
C	-1.325905	0.136367	0.795561	6
N	-0.626215	-0.545503	-0.290928	7
C	0.831205	-0.474913	-0.168339	6
C	1.445555	-1.400303	-1.221828	6
C	1.345585	0.927157	-0.370288	6
C	2.055235	1.608297	0.539791	6
H	-3.358915	0.441846	1.452561	1
H	-3.082825	-1.137414	0.700232	1
H	-3.190835	0.321717	-0.305779	1
H	-1.007615	-0.261754	1.765801	1
H	-1.121145	1.212567	0.784052	1
H	-0.918895	-0.168743	-1.190258	1
H	1.130105	-0.857574	0.816082	1
H	1.175745	-1.096413	-2.240579	1
H	1.108335	-2.433513	-1.079558	1
H	2.539575	-1.398504	-1.152878	1
H	1.123905	1.404137	-1.322489	1
H	2.303565	1.179337	1.505912	1
H	2.399065	2.617436	0.335172	1
Es	-1.325882	0.136287	0.795451	99
Es	1.985374	1.154842	-0.030827	99
Es	2.055304	1.608342	0.539855	99
Es	-0.715557	-0.883089	-0.282391	99
Es	1.345528	0.927112	-0.370356	99
Es	1.095215	0.242792	-0.268686	99
Es	-0.626048	-0.544900	-0.290930	99
Es	1.445555	-1.400280	-1.221824	99
Es	0.009278	-0.472143	-0.237557	99
Es	-2.999704	-0.796741	0.683962	99
Es	-2.081938	0.029605	0.717593	99
Es	1.433259	1.396303	0.219700	99
Es	2.191338	-1.393338	-1.173019	99
Es	1.032736	-0.726035	0.509729	99
Es	1.255211	-1.182858	-1.915410	99
Es	-2.825513	-0.074205	0.647764	99
Es	2.292970	2.293986	0.408361	99
Es	-1.099981	-0.139152	1.458371	99
Es	-0.791348	-0.287685	-0.829856	99
Es	1.184720	1.241082	-1.023742	99
Es	2.226451	1.320175	1.197623	99
Es	1.144067	-0.928772	-0.704113	99
Es	-0.911068	-0.219809	0.173095	99
Es	-1.185946	0.880728	0.790249	99
Es	-3.187376	0.281725	1.198024	99
Es	0.831098	-0.474888	-0.168406	99
Es	-3.068850	0.198709	-0.007987	99
Es	1.215901	-2.098913	-1.122061	99
48
Properties=species:S:1:pos:R:3:Z:I:1 energy=-289.2975337297573 field_type=dipole dipole="0.000000 0.000000 0.000000" charge=0
C	-2.825525	-0.074224	0.647761	6
C	-1.325905	0.136367	0.795561	6
N	-0.626215	-0.545503	-0.290928	7
C	0.831205	-0.474913	-0.168339	6
C	1.445555	-1.400303	-1.221828	6
C	1.345585	0.927157	-0.370288	6
C	2.055235	1.608297	0.539791	6
H	-3.358915	0.441846	1.452561	1
H	-3.082825	-1.137414	0.700232	1
H	-3.190835	0.321717	-0.305779	1
H	-1.007615	-0.261754	1.765801	1
H	-1.121145	1.212567	0.784052	1
H	-0.918895	-0.168743	-1.190258	1
H	1.130105	-0.857574	0.816082	1
H	1.175745	-1.096413	-2.240579	1
H	1.108335	-2.433513	-1.079558	1
H	2.539575	-1.398504	-1.152878	1
H	1.123905	1.404137	-1.322489	1
H	2.303565	1.179337	1.505912	1
H	2.399065	2.617436	0.335172	1
Es	-2.999756	-0.796727	0.684003	99
Es	1.095165	0.242718	-0.268580	99
Es	-0.791245	-0.287601	-0.829563	99
Es	1.144018	-0.928681	-0.704245	99
Es	1.985473	1.154952	-0.030740	99
Es	1.433452	1.396073	0.219480	99
Es	-3.187374	0.281790	1.197992	99
Es	-1.185943	0.880669	0.790255	99
Es	-0.715650	-0.883644	-0.282406	99
Es	1.255302	-1.182856	-1.915467	99
Es	-2.081947	0.029599	0.717595	99
Es	1.345530	0.927113	-0.370358	99
Es	0.009138	-0.471725	-0.237704	99
Es	2.226337	1.320138	1.197690	99
Es	1.445555	-1.400280	-1.221825	99
Es	2.191310	-1.393353	-1.172910	99
Es	1.184698	1.241172	-1.023717	99
Es	-1.325881	0.136286	0.795450	99
Es	-0.910963	-0.219664	0.172973	99
Es	2.055293	1.608348	0.539861	99
Es	-2.825512	-0.074205	0.647763	99
Es	2.292917	2.294056	0.408384	99
Es	-0.626045	-0.544905	-0.290961	99
Es	-1.099970	-0.139120	1.458372	99
Es	1.032755	-0.726133	0.509703	99
Es	0.831100	-0.474888	-0.168403	99
Es	-3.068828	0.198661	-0.007984	99
Es	1.215865	-2.098917	-1.122046	99
48
Properties=species:S:1:pos:R:3:Z:I:1 energy=-289.2975337297573 field_type=dipole dipole="0.000000 0.000000 0.000000" charge=0
C	-2.825525	-0.074224	0.647761	6
C	-1.325905	0.136367	0.795561	6
N	-0.626215	-0.545503	-0.290928	7
C	0.831205	-0.474913	-0.168339	6
C	1.445555	-1.400303	-1.221828	6
C	1.345585	0.927157	-0.370288	6
C	2.055235	1.608297	0.539791	6
H	-3.358915	0.441846	1.452561	1
H	-3.082825	-1.137414	0.700232	1
H	-3.190835	0.321717	-0.305779	1
H	-1.007615	-0.261754	1.765801	1
H	-1.121145	1.212567	0.784052	1
H	-0.918895	-0.168743	-1.190258	1
H	1.130105	-0.857574	0.816082	1
H	1.175745	-1.096413	-2.240579	1
H	1.108335	-2.433513	-1.079558	1
H	2.539575	-1.398504	-1.152878	1
H	1.123905	1.404137	-1.322489	1
H	2.303565	1.179337	1.505912	1
H	2.399065	2.617436	0.335172	1
Es	-2.081903	0.029496	0.717623	99
Es	1.032785	-0.726117	0.509646	99
Es	-0.715411	-0.883198	-0.282114	99
Es	-0.791502	-0.288072	-0.829871	99
Es	-1.186002	0.880691	0.790310	99
Es	1.445555	-1.400281	-1.221826	99
Es	1.433356	1.396300	0.219619	99
Es	2.191306	-1.393575	-1.172802	99
Es	1.095136	0.242731	-0.268510	99
Es	-0.910979	-0.219574	0.172940	99
Es	-0.626046	-0.544897	-0.290930	99
Es	-1.325882	0.136287	0.795451	99
Es	-1.099947	-0.139092	1.458296	99
Es	-3.187417	0.281747	1.197988	99
Es	1.345534	0.927113	-0.370359	99
Es	1.215693	-2.098829	-1.122202	99
Es	-3.068836	0.198664	-0.007926	99
Es	1.255493	-1.182773	-1.915465	99
Es	2.292983	2.294026	0.408346	99
Es	1.184840	1.241097	-1.023806	99
Es	0.831100	-0.474890	-0.168403	99
Es	1.985274	1.154804	-0.030721	99
Es	-2.825513	-0.074205	0.647763	99
Es	2.226398	1.320158	1.197640	99
Es	-2.999780	-0.796694	0.683940	99
Es	2.055294	1.608348	0.539863	99
Es	0.009200	-0.471791	-0.237658	99
Es	1.144066	-0.928596	-0.704220	99
48
Properties=species:S:1:pos:R:3:Z:I:1 energy=-289.2975337297573 field_type=dipole dipole="0.000000 0.000000 0.000000" charge=0
C	-2.825525	-0.074224	0.647761	6
C	-1.325905	0.136367	0.795561	6
N	-0.626215	-0.545503	-0.290928	7
C	0.831205	-0.474913	-0.168339	6
C	1.445555	-1.400303	-1.221828	6
C	1.345585	0.927157	-0.370288	6
C	2.055235	1.608297	0.539791	6
H	-3.358915	0.441846	1.452561	1
H	-3.082825	-1.137414	0.700232	1
H	-3.190835	0.321717	-0.305779	1
H	-1.007615	-0.261754	1.765801	1
H	-1.121145	1.212567	0.784052	1
H	-0.918895	-0.168743	-1.190258	1
H	1.130105	-0.857574	0.816082	1
H	1.175745	-1.096413	-2.240579	1
H	1.108335	-2.433513	-1.079558	1
H	2.539575	-1.398504	-1.152878	1
H	1.123905	1.404137	-1.322489	1
H	2.303565	1.179337	1.505912	1
H	2.399065	2.617436	0.335172	1
Es	-2.825514	-0.074205	0.647763	99
Es	-2.999818	-0.796681	0.683975	99
Es	2.055297	1.608342	0.539872	99
Es	-1.185963	0.880588	0.790285	99
Es	0.009199	-0.471725	-0.237648	99
Es	-2.081890	0.029601	0.717604	99
Es	1.032799	-0.726026	0.509637	99
Es	-1.099958	-0.139052	1.458340	99
Es	1.433392	1.396390	0.219512	99
Es	-0.626052	-0.544923	-0.290931	99
Es	1.095068	0.242635	-0.268478	99
Es	1.445557	-1.400281	-1.221827	99
Es	-0.715324	-0.883110	-0.281987	99
Es	-0.910975	-0.219529	0.172942	99
Es	1.184849	1.241161	-1.023816	99
Es	1.985194	1.154929	-0.030774	99
Es	-1.325886	0.136292	0.795459	99
Es	2.191300	-1.393420	-1.172973	99
Es	-3.068867	0.198644	-0.007911	99
Es	1.144033	-0.928619	-0.704186	99
Es	-3.187413	0.281732	1.197918	99
Es	1.215904	-2.098857	-1.122125	99
Es	2.292995	2.293879	0.408406	99
Es	-0.791575	-0.288255	-0.829940	99
Es	2.226464	1.320088	1.197687	99
Es	0.831103	-0.474890	-0.168403	99
Es	1.345537	0.927111	-0.370362	99
Es	1.255340	-1.182941	-1.915428	99
48
Properties=species:S:1:pos:R:3:Z:I:1 energy=-289.2975337297573 field_type=dipole dipole="0.000000 0.000000 0.000000" charge=0
C	-2.825525	-0.074224	0.647761	6
C	-1.325905	0.136367	0.795561	6
N	-0.626215	-0.545503	-0.290928	7
C	0.831205	-0.474913	-0.168339	6
C	1.445555	-1.400303	-1.221828	6
C	1.345585	0.927157	-0.370288	6
C	2.055235	1.608297	0.539791	6
H	-3.358915	0.441846	1.452561	1
H	-3.082825	-1.137414	0.700232	1
H	-3.190835	0.321717	-0.305779	1
H	-1.007615	-0.261754	1.765801	1
H	-1.121145	1.212567	0.784052	1
H	-0.918895	-0.168743	-1.190258	1
H	1.130105	-0.857574	0.816082	1
H	1.175745	-1.096413	-2.240579	1
H	1.108335	-2.433513	-1.079558	1
H	2.539575	-1.398504	-1.152878	1
H	1.123905	1.404137	-1.322489	1
H	2.303565	1.179337	1.505912	1
H	2.399065	2.617436	0.335172	1
Es	1.255240	-1.183070	-1.915457	99
Es	2.226445	1.320123	1.197630	99
Es	1.184718	1.241177	-1.023748	99
Es	1.032774	-0.726024	0.509575	99
Es	2.191262	-1.393264	-1.173054	99
Es	-3.068914	0.198610	-0.007954	99
Es	-1.185939	0.880530	0.790319	99
Es	-3.187389	0.281728	1.197889	99
Es	-2.081926	0.029606	0.717665	99
Es	-0.626052	-0.544911	-0.290932	99
Es	1.985198	1.154944	-0.030768	99
Es	-0.910901	-0.219463	0.172844	99
Es	0.009158	-0.471716	-0.237677	99
Es	-0.791550	-0.288263	-0.829887	99
Es	-2.825516	-0.074205	0.647761	99
Es	2.293001	2.294012	0.408340	99
Es	-1.325882	0.136287	0.795451	99
Es	1.095157	0.242544	-0.268383	99
Es	1.345535	0.927120	-0.370358	99
Es	1.216031	-2.098926	-1.121949	99
Es	2.055293	1.608350	0.539863	99
Es	-0.715410	-0.883201	-0.281961	99
Es	1.433417	1.396222	0.219609	99
Es	-1.099942	-0.138990	1.458287	99
Es	-2.999831	-0.796630	0.684044	99
Es	1.445555	-1.400280	-1.221825	99
Es	1.144161	-0.928541	-0.704310	99
Es	0.831102	-0.474888	-0.168404	99
48
Properties=species:S:1:pos:R:3:Z:I:1 energy=-289.2975337297573 field_type=dipole dipole="0.000000 0.000000 0.000000" charge=0
C	-2.825525	-0.074224	0.647761	6
C	-1.325905	0.136367	0.795561	6
N	-0.626215	-0.545503	-0.290928	7
C	0.831205	-0.474913	-0.168339	6
C	1.445555	-1.400303	-1.221828	6
C	1.345585	0.927157	-0.370288	6
C	2.055235	1.608297	0.539791	6
H	-3.358915	0.441846	1.452561	1
H	-3.082825	-1.137414	0.700232	1
H	-3.190835	0.321717	-0.305779	1
H	-1.007615	-0.261754	1.765801	1
H	-1.121145	1.212567	0.784052	1
H	-0.918895	-0.168743	-1.190258	1
H	1.130105	-0.857574	0.816082	1
H	1.175745	-1.096413	-2.240579	1
H	1.108335	-2.433513	-1.079558	1
H	2.539575	-1.398504	-1.152878	1
H	1.123905	1.404137	-1.322489	1
H	2.303565	1.179337	1.505912	1
H	2.399065	2.617436	0.335172	1
Es	1.215913	-2.098893	-1.122102	99
Es	-2.081912	0.029611	0.717656	99
Es	1.255375	-1.182958	-1.915437	99
Es	1.445555	-1.400279	-1.221826	99
Es	1.985091	1.154954	-0.030722	99
Es	1.144202	-0.928623	-0.704223	99
Es	1.095101	0.242427	-0.268377	99
Es	1.032734	-0.725926	0.509602	99
Es	-1.099883	-0.138960	1.458292	99
Es	0.009143	-0.471585	-0.237709	99
Es	2.293013	2.294009	0.408359	99
Es	2.055292	1.608348	0.539861	99
Es	1.345530	0.927116	-0.370357	99
Es	-0.626051	-0.544912	-0.290937	99
Es	-0.791596	-0.288322	-0.829900	99
Es	-1.325881	0.136286	0.795450	99
Es	-2.999824	-0.796663	0.683868	99
Es	-0.911014	-0.219555	0.172925	99
Es	-0.715237	-0.883081	-0.282032	99
Es	2.226402	1.320094	1.197656	99
Es	-3.187431	0.281646	1.197954	99
Es	0.831101	-0.474889	-0.168404	99
Es	1.433575	1.396214	0.219508	99
Es	-3.068916	0.198684	-0.007815	99
Es	-1.185993	0.880494	0.790316	99
Es	-2.825515	-0.074204	0.647765	99
Es	2.191248	-1.393412	-1.172982	99
Es	1.184773	1.241259	-1.023777	99
48
Properties=species:S:1:pos:R:3:Z:I:1 energy=-289.2975337297573 field_type=dipole dipole="0.000000 0.000000 0.000000" charge=0
C	-2.825525	-0.074224	0.647761	6
C	-1.325905	0.136367	0.795561	6
N	-0.626215	-0.545503	-0.290928	7
C	0.831205	-0.474913	-0.168339	6
C	1.445555	-1.400303	-1.221828	6
C	1.345585	0.927157	-0.370288	6
C	2.055235	1.608297	0.539791	6
H	-3.358915	0.441846	1.452561	1
H	-3.082825	-1.137414	0.700232	1
H	-3.190835	0.321717	-0.305779	1
H	-1.007615	-0.261754	1.765801	1
H	-1.121145	1.212567	0.784052	1
H	-0.918895	-0.168743	-1.190258	1
H	1.130105	-0.857574	0.816082	1
H	1.175745	-1.096413	-2.240579	1
H	1.108335	-2.433513	-1.079558	1
H	2.539575	-1.398504	-1.152878	1
H	1.123905	1.404137	-1.322489	1
H	2.303565	1.179337	1.505912	1
H	2.399065	2.617436	0.335172	1
Es	-0.911320	-0.219752	0.173051	99
Es	1.433821	1.396117	0.219340	99
Es	2.292995	2.294056	0.408363	99
Es	-2.999858	-0.796605	0.683951	99
Es	1.345534	0.927114	-0.370357	99
Es	-0.715059	-0.883032	-0.282347	99
Es	1.216155	-2.098863	-1.122023	99
Es	-0.626056	-0.544906	-0.290937	99
Es	0.831102	-0.474889	-0.168404	99
Es	1.144082	-0.928567	-0.704208	99
Es	1.255371	-1.183227	-1.915500	99
Es	-1.185944	0.880448	0.790354	99
Es	1.032709	-0.725852	0.509541	99
Es	-3.187463	0.281716	1.197898	99
Es	2.226326	1.320059	1.197703	99
Es	-3.068881	0.198601	-0.007876	99
Es	2.055293	1.608348	0.539860	99
Es	-1.325883	0.136288	0.795453	99
Es	1.095049	0.242444	-0.268198	99
Es	1.445556	-1.400279	-1.221824	99
Es	-2.825515	-0.074206	0.647763	99
Es	-0.791491	-0.288273	-0.829770	99
Es	1.985060	1.154965	-0.030680	99
Es	0.009134	-0.471435	-0.237605	99
Es	1.184702	1.241299	-1.023853	99
Es	2.191172	-1.393307	-1.173034	99
Es	-1.099825	-0.138954	1.458220	99
Es	-2.081973	0.029570	0.717732	99
48
Properties=species:S:1:pos:R:3:Z:I:1 energy=-289.2975337297573 field_type=dipole dipole="0.000000 0.000000 0.000000" charge=0
C	-2.825525	-0.074224	0.647761	6
C	-1.325905	0.136367	0.795561	6
N	-0.626215	-0.545503	-0.290928	7
C	0.831205	-0.474913	-0.168339	6
C	1.445555	-1.400303	-1.221828	6
C	1.345585	0.927157	-0.370288	6
C	2.055235	1.608297	0.539791	6
H	-3.358915	0.441846	1.452561	1
H	-3.082825	-1.137414	0.700232	1
H	-3.190835	0.321717	-0.305779	1
H	-1.007615	-0.261754	1.765801	1
H	-1.121145	1.212567	0.784052	1
H	-0.918895	-0.168743	-1.190258	1
H	1.130105	-0.857574	0.816082	1
H	1.175745	-1.096413	-2.240579	1
H	1.108335	-2.433513	-1.079558	1
H	2.539575	-1.398504	-1.152878	1
H	1.123905	1.404137	-1.322489	1
H	2.303565	1.179337	1.505912	1
H	2.399065	2.617436	0.335172	1
Es	0.831109	-0.474890	-0.168404	99
Es	1.433741	1.396290	0.219428	99
Es	2.055288	1.608345	0.539853	99
Es	-2.825514	-0.074205	0.647763	99
Es	0.009169	-0.471077	-0.237860	99
Es	-0.792187	-0.289431	-0.830362	99
Es	-1.185904	0.880383	0.790416	99
Es	1.255573	-1.182971	-1.915534	99
Es	1.345530	0.927112	-0.370360	99
Es	-0.626054	-0.544908	-0.290951	99
Es	-2.999857	-0.796570	0.683952	99
Es	2.191119	-1.393487	-1.172853	99
Es	1.032733	-0.725893	0.509532	99
Es	1.984955	1.154931	-0.030714	99
Es	1.144091	-0.928617	-0.704196	99
Es	-3.187478	0.281692	1.197891	99
Es	2.226377	1.320075	1.197670	99
Es	1.184857	1.241289	-1.023820	99
Es	-2.081948	0.029664	0.717733	99
Es	1.445556	-1.400282	-1.221825	99
Es	-1.099880	-0.138924	1.458190	99
Es	1.215954	-2.098865	-1.122203	99
Es	-3.068929	0.198567	-0.007851	99
Es	-0.910986	-0.219245	0.172657	99
Es	2.293005	2.294006	0.408385	99
Es	1.095039	0.242361	-0.268259	99
Es	-1.325880	0.136286	0.795449	99
Es	-0.714685	-0.882757	-0.281114	99
48
Properties=species:S:1:pos:R:3:Z:I:1 energy=-289.2975337297573 field_type=dipole dipole="0.000000 0.000000 0.000000" charge=0
C	-2.825525	-0.074224	0.647761	6
C	-1.325905	0.136367	0.795561	6
N	-0.626215	-0.545503	-0.290928	7
C	0.831205	-0.474913	-0.168339	6
C	1.445555	-1.400303	-1.221828	6
C	1.345585	0.927157	-0.370288	6
C	2.055235	1.608297	0.539791	6
H	-3.358915	0.441846	1.452561	1
H	-3.082825	-1.137414	0.700232	1
H	-3.190835	0.321717	-0.305779	1
H	-1.007615	-0.261754	1.765801	1
H	-1.121145	1.212567	0.784052	1
H	-0.918895	-0.168743	-1.190258	1
H	1.130105	-0.857574	0.816082	1
H	1.175745	-1.096413	-2.240579	1
H	1.108335	-2.433513	-1.079558	1
H	2.539575	-1.398504	-1.152878	1
H	1.123905	1.404137	-1.322489	1
H	2.303565	1.179337	1.505912	1
H	2.399065	2.617436	0.335172	1
Es	1.984868	1.155031	-0.030636	99
Es	-1.325884	0.136289	0.795454	99
Es	0.831105	-0.474891	-0.168404	99
Es	2.226375	1.320053	1.197683	99
Es	1.216035	-2.098899	-1.122159	99
Es	1.032703	-0.725823	0.509526	99
Es	-3.187506	0.281679	1.197899	99
Es	2.055295	1.608348	0.539862	99
Es	2.191274	-1.393326	-1.173080	99
Es	-0.911003	-0.219448	0.172880	99
Es	-0.791685	-0.288643	-0.829945	99
Es	-3.068909	0.198579	-0.007792	99
Es	1.144148	-0.928618	-0.704230	99
Es	-1.099883	-0.138871	1.458187	99
Es	1.255371	-1.183120	-1.915339	99
Es	1.445559	-1.400281	-1.221825	99
Es	-1.185920	0.880351	0.790405	99
Es	1.345532	0.927114	-0.370356	99
Es	-0.626051	-0.544931	-0.290930	99
Es	1.094995	0.242244	-0.268194	99
Es	-0.715214	-0.882751	-0.281928	99
Es	-2.081952	0.029644	0.717711	99
Es	1.184850	1.241360	-1.023810	99
Es	-2.999876	-0.796573	0.683893	99
Es	0.009243	-0.471639	-0.237700	99
Es	2.292997	2.294055	0.408345	99
Es	1.433844	1.396149	0.219337	99
Es	-2.825516	-0.074204	0.647759	99
48
Properties=species:S:1:pos:R:3:Z:I:1 energy=-289.2975337297573 field_type=dipole dipole="0.000000 0.000000 0.000000" charge=0
C	-2.825525	-0.074224	0.647761	6
C	-1.325905	0.136367	0.795561	6
N	-0.626215	-0.545503	-0.290928	7
C	0.831205	-0.474913	-0.168339	6
C	1.445555	-1.400303	-1.221828	6
C	1.345585	0.927157	-0.370288	6
C	2.055235	1.608297	0.539791	6
H	-3.358915	0.441846	1.452561	1
H	-3.082825	-1.137414	0.700232	1
H	-3.190835	0.321717	-0.305779	1
H	-1.007615	-0.261754	1.765801	1
H	-1.121145	1.212567	0.784052	1
H	-0.918895	-0.168743	-1.190258	1
H	1.130105	-0.857574	0.816082	1
H	1.175745	-1.096413	-2.240579	1
H	1.108335	-2.433513	-1.079558	1
H	2.539575	-1.398504	-1.152878	1
H	1.123905	1.404137	-1.322489	1
H	2.303565	1.179337	1.505912	1
H	2.399065	2.617436	0.335172	1
Es	-2.825514	-0.074205	0.647763	99
Es	1.433953	1.396028	0.219301	99
Es	-0.626068	-0.544978	-0.290937	99
Es	-3.068931	0.198559	-0.007810	99
Es	-0.715531	-0.883165	-0.282322	99
Es	-1.325892	0.136288	0.795460	99
Es	2.191180	-1.393367	-1.173036	99
Es	1.095028	0.242185	-0.268143	99
Es	1.984857	1.155069	-0.030612	99
Es	1.216035	-2.098937	-1.122254	99
Es	2.292898	2.294086	0.408312	99
Es	0.009211	-0.471593	-0.237722	99
Es	1.184833	1.241410	-1.023826	99
Es	1.144172	-0.928654	-0.704171	99
Es	-1.099852	-0.138856	1.458165	99
Es	-1.185967	0.880250	0.790483	99
Es	-3.187511	0.281668	1.197867	99
Es	1.445556	-1.400280	-1.221826	99
Es	-2.999908	-0.796519	0.683914	99
Es	2.226384	1.320086	1.197731	99
Es	-0.910885	-0.219337	0.172811	99
Es	0.831106	-0.474889	-0.168403	99
Es	-0.791418	-0.288229	-0.829483	99
Es	2.055287	1.608345	0.539857	99
Es	-2.081937	0.029632	0.717740	99
Es	1.255439	-1.182988	-1.915373	99
Es	1.032732	-0.725840	0.509483	99
Es	1.345536	0.927110	-0.370356	99
