50
Properties=species:S:1:pos:R:3:Z:I:1 energy=-306.4928949722111 field_type=dipole dipole="0.000000 0.000000 0.000000" charge=0
C	-2.492307	-0.149647	-0.325150	6
C	-0.993617	-0.446307	-0.402950	6
N	-0.688357	-1.097917	-1.679231	7
C	-0.179997	0.849083	-0.246810	6
C	1.344113	0.664183	-0.275320	6
C	1.904853	-0.261397	0.806190	6
N	1.595284	0.222783	2.147400	7
H	-2.744427	0.309343	0.636740	1
H	-3.079867	-1.069747	-0.416560	1
H	-2.809637	0.535283	-1.118981	1
H	-0.745707	-1.139987	0.407510	1
H	-0.944327	-0.478407	-2.447360	1
H	-1.270987	-1.927767	-1.783380	1
H	-0.464967	1.341553	0.691330	1
H	-0.451167	1.550413	-1.047150	1
H	1.811633	1.652603	-0.178390	1
H	1.650573	0.282093	-1.256970	1
H	2.993643	-0.321067	0.694100	1
H	1.517893	-1.278297	0.686730	1
H	2.004323	1.147063	2.275790	1
H	2.043043	-0.383857	2.832470	1
Es	-0.688920	-1.097765	-1.679202	99
Es	-0.369528	1.324180	-0.806045	99
Es	-0.824167	-0.923149	0.150198	99
Es	1.595857	0.222786	2.147320	99
Es	-2.703040	0.318825	-0.873802	99
Es	2.662403	-0.302359	0.719781	99
Es	1.612404	0.201954	0.273984	99
Es	-0.378340	1.181708	0.390550	99
Es	-2.664816	0.164931	0.332366	99
Es	1.665627	1.346348	-0.197679	99
Es	1.885916	-0.143007	2.552453	99
Es	1.863982	0.776492	2.216035	99
Es	-0.840942	-0.814450	-1.139420	99
Es	-1.760161	-0.287093	-0.361430	99
Es	1.245310	0.236502	2.205891	99
Es	1.344094	0.664180	-0.275286	99
Es	-0.579434	0.198240	-0.330930	99
Es	-2.492324	-0.149645	-0.325147	99
Es	-0.993617	-0.446327	-0.403090	99
Es	-0.865400	-0.715891	-2.134432	99
Es	0.580201	0.740366	-0.254549	99
Es	-0.344504	-1.187127	-1.707214	99
Es	-0.179976	0.849055	-0.246827	99
Es	1.555361	0.403860	-0.940108	99
Es	-1.060656	-1.589476	-1.736150	99
Es	-2.890562	-0.784186	-0.391583	99
Es	1.750435	0.018303	1.574343	99
Es	1.904808	-0.261325	0.806309	99
Es	1.636324	-0.956671	0.728408	99
50
Properties=species:S:1:pos:R:3:Z:I:1 energy=-306.4928949722111 field_type=dipole dipole="0.000000 0.000000 0.000000" charge=0
C	-2.492307	-0.149647	-0.325150	6
C	-0.993617	-0.446307	-0.402950	6
N	-0.688357	-1.097917	-1.679231	7
C	-0.179997	0.849083	-0.246810	6
C	1.344113	0.664183	-0.275320	6
C	1.904853	-0.261397	0.806190	6
N	1.595284	0.222783	2.147400	7
H	-2.744427	0.309343	0.636740	1
H	-3.079867	-1.069747	-0.416560	1
H	-2.809637	0.535283	-1.118981	1
H	-0.745707	-1.139987	0.407510	1
H	-0.944327	-0.478407	-2.447360	1
H	-1.270987	-1.927767	-1.783380	1
H	-0.464967	1.341553	0.691330	1
H	-0.451167	1.550413	-1.047150	1
H	1.811633	1.652603	-0.178390	1
H	1.650573	0.282093	-1.256970	1
H	2.993643	-0.321067	0.694100	1
H	1.517893	-1.278297	0.686730	1
H	2.004323	1.147063	2.275790	1
H	2.043043	-0.383857	2.832470	1
Es	-2.664784	0.164906	0.332350	99
Es	-1.760025	-0.287135	-0.361491	99
Es	-0.378253	1.181641	0.390474	99
Es	-2.492324	-0.149645	-0.325147	99
Es	-2.890570	-0.784162	-0.391546	99
Es	1.750045	0.018096	1.574113	99
Es	0.580105	0.740356	-0.254441	99
Es	-0.369557	1.324280	-0.806041	99
Es	-1.060417	-1.589595	-1.736195	99
Es	1.665680	1.346300	-0.197771	99
Es	1.636357	-0.956704	0.728327	99
Es	1.864263	0.776382	2.216052	99
Es	1.612660	0.201961	0.273878	99
Es	2.662294	-0.302369	0.719841	99
Es	-0.343819	-1.186696	-1.707386	99
Es	1.555275	0.403910	-0.940047	99
Es	-0.179976	0.849056	-0.246826	99
Es	1.344093	0.664179	-0.275285	99
Es	-0.824218	-0.923189	0.150263	99
Es	-2.703092	0.318841	-0.873794	99
Es	1.904812	-0.261323	0.806309	99
Es	1.595777	0.222757	2.147320	99
Es	-0.688838	-1.097796	-1.679196	99
Es	1.245788	0.236969	2.206033	99
Es	1.885579	-0.143111	2.552595	99
Es	-0.579554	0.198288	-0.330868	99
Es	-0.865999	-0.716051	-2.134051	99
Es	-0.841354	-0.814562	-1.139638	99
Es	-0.993617	-0.446328	-0.403090	99
50
Properties=species:S:1:pos:R:3:Z:I:1 energy=-306.4928949722111 field_type=dipole dipole="0.000000 0.000000 0.000000" charge=0
C	-2.492307	-0.149647	-0.325150	6
C	-0.993617	-0.446307	-0.402950	6
N	-0.688357	-1.097917	-1.679231	7
C	-0.179997	0.849083	-0.246810	6
C	1.344113	0.664183	-0.275320	6
C	1.904853	-0.261397	0.806190	6
N	1.595284	0.222783	2.147400	7
H	-2.744427	0.309343	0.636740	1
H	-3.079867	-1.069747	-0.416560	1
H	-2.809637	0.535283	-1.118981	1
H	-0.745707	-1.139987	0.407510	1
H	-0.944327	-0.478407	-2.447360	1
H	-1.270987	-1.927767	-1.783380	1
H	-0.464967	1.341553	0.691330	1
H	-0.451167	1.550413	-1.047150	1
H	1.811633	1.652603	-0.178390	1
H	1.650573	0.282093	-1.256970	1
H	2.993643	-0.321067	0.694100	1
H	1.517893	-1.278297	0.686730	1
H	2.004323	1.147063	2.275790	1
H	2.043043	-0.383857	2.832470	1
Es	-0.824219	-0.923125	0.150184	99
Es	-2.492324	-0.149645	-0.325147	99
Es	-2.703130	0.318865	-0.873779	99
Es	-0.345033	-1.186539	-1.706808	99
Es	-0.378346	1.181684	0.390465	99
Es	-2.664842	0.164836	0.332344	99
Es	-1.759977	-0.287196	-0.361410	99
Es	1.344092	0.664178	-0.275286	99
Es	1.864035	0.776533	2.216016	99
Es	1.595865	0.222764	2.147309	99
Es	2.662365	-0.302662	0.719828	99
Es	-0.579523	0.198333	-0.330897	99
Es	1.665639	1.346205	-0.197702	99
Es	-0.841277	-0.814413	-1.139453	99
Es	1.612632	0.201977	0.273798	99
Es	-0.865101	-0.715958	-2.134741	99
Es	-1.060104	-1.590062	-1.736276	99
Es	0.580140	0.740367	-0.254392	99
Es	-0.688922	-1.097776	-1.679195	99
Es	1.904815	-0.261329	0.806306	99
Es	1.555304	0.404028	-0.940113	99
Es	1.749931	0.018084	1.574043	99
Es	-0.369484	1.324226	-0.806032	99
Es	-0.179976	0.849057	-0.246826	99
Es	-2.890565	-0.784064	-0.391573	99
Es	-0.993617	-0.446329	-0.403090	99
Es	1.885900	-0.143011	2.552449	99
Es	1.245820	0.236690	2.206287	99
Es	1.636236	-0.956464	0.728434	99
50
Properties=species:S:1:pos:R:3:Z:I:1 energy=-306.4928949722111 field_type=dipole dipole="0.000000 0.000000 0.000000" charge=0
C	-2.492307	-0.149647	-0.325150	6
C	-0.993617	-0.446307	-0.402950	6
N	-0.688357	-1.097917	-1.679231	7
C	-0.179997	0.849083	-0.246810	6
C	1.344113	0.664183	-0.275320	6
C	1.904853	-0.261397	0.806190	6
N	1.595284	0.222783	2.147400	7
H	-2.744427	0.309343	0.636740	1
H	-3.079867	-1.069747	-0.416560	1
H	-2.809637	0.535283	-1.118981	1
H	-0.745707	-1.139987	0.407510	1
H	-0.944327	-0.478407	-2.447360	1
H	-1.270987	-1.927767	-1.783380	1
H	-0.464967	1.341553	0.691330	1
H	-0.451167	1.550413	-1.047150	1
H	1.811633	1.652603	-0.178390	1
H	1.650573	0.282093	-1.256970	1
H	2.993643	-0.321067	0.694100	1
H	1.517893	-1.278297	0.686730	1
H	2.004323	1.147063	2.275790	1
H	2.043043	-0.383857	2.832470	1
Es	1.344093	0.664179	-0.275285	99
Es	-0.344648	-1.187224	-1.707608	99
Es	2.662263	-0.302427	0.719789	99
Es	1.749964	0.018050	1.573960	99
Es	1.636449	-0.956636	0.728470	99
Es	1.612611	0.201836	0.273764	99
Es	1.595854	0.222759	2.147316	99
Es	-0.865487	-0.715997	-2.134331	99
Es	1.885697	-0.143007	2.552688	99
Es	1.665613	1.346237	-0.197740	99
Es	1.904809	-0.261323	0.806308	99
Es	-0.579525	0.198357	-0.330879	99
Es	-1.060684	-1.589337	-1.736179	99
Es	-2.492324	-0.149645	-0.325147	99
Es	-2.890565	-0.784094	-0.391623	99
Es	-1.759961	-0.287115	-0.361336	99
Es	0.580163	0.740244	-0.254368	99
Es	-0.824240	-0.923057	0.150114	99
Es	-0.840710	-0.814457	-1.139224	99
Es	-0.378345	1.181562	0.390429	99
Es	1.863793	0.776663	2.216076	99
Es	1.246219	0.236656	2.206099	99
Es	-2.703131	0.318865	-0.873715	99
Es	-0.993616	-0.446329	-0.403089	99
Es	1.555298	0.404067	-0.940052	99
Es	-2.664878	0.164811	0.332330	99
Es	-0.688905	-1.097778	-1.679191	99
Es	-0.369499	1.324341	-0.806004	99
Es	-0.179976	0.849057	-0.246826	99
50
Properties=species:S:1:pos:R:3:Z:I:1 energy=-306.4928949722111 field_type=dipole dipole="0.000000 0.000000 0.000000" charge=0
C	-2.492307	-0.149647	-0.325150	6
C	-0.993617	-0.446307	-0.402950	6
N	-0.688357	-1.097917	-1.679231	7
C	-0.179997	0.849083	-0.246810	6
C	1.344113	0.664183	-0.275320	6
C	1.904853	-0.261397	0.806190	6
N	1.595284	0.222783	2.147400	7
H	-2.744427	0.309343	0.636740	1
H	-3.079867	-1.069747	-0.416560	1
H	-2.809637	0.535283	-1.118981	1
H	-0.745707	-1.139987	0.407510	1
H	-0.944327	-0.478407	-2.447360	1
H	-1.270987	-1.927767	-1.783380	1
H	-0.464967	1.341553	0.691330	1
H	-0.451167	1.550413	-1.047150	1
H	1.811633	1.652603	-0.178390	1
H	1.650573	0.282093	-1.256970	1
H	2.993643	-0.321067	0.694100	1
H	1.517893	-1.278297	0.686730	1
H	2.004323	1.147063	2.275790	1
H	2.043043	-0.383857	2.832470	1
Es	1.636502	-0.956615	0.728442	99
Es	1.344093	0.664179	-0.275286	99
Es	-0.993617	-0.446329	-0.403091	99
Es	1.555353	0.404223	-0.939959	99
Es	-2.492325	-0.149645	-0.325147	99
Es	-0.579446	0.198281	-0.330777	99
Es	1.246266	0.236516	2.206081	99
Es	1.665599	1.346283	-0.197648	99
Es	-0.840700	-0.814342	-1.138983	99
Es	1.863707	0.776750	2.216248	99
Es	-0.865425	-0.716134	-2.134435	99
Es	1.750067	0.018061	1.573970	99
Es	-0.688873	-1.097787	-1.679210	99
Es	1.885577	-0.142945	2.552625	99
Es	-1.060261	-1.589825	-1.736266	99
Es	-0.179976	0.849056	-0.246826	99
Es	-0.369555	1.324301	-0.805925	99
Es	-0.824357	-0.923081	0.150074	99
Es	1.595900	0.222764	2.147304	99
Es	1.612645	0.201683	0.273661	99
Es	1.904813	-0.261326	0.806305	99
Es	-0.378340	1.181582	0.390305	99
Es	2.662197	-0.302433	0.719765	99
Es	-2.664870	0.164808	0.332318	99
Es	-2.890580	-0.784083	-0.391614	99
Es	-0.345159	-1.186728	-1.707582	99
Es	-2.703146	0.318863	-0.873692	99
Es	0.580180	0.740298	-0.254483	99
Es	-1.759934	-0.287118	-0.361430	99
50
Properties=species:S:1:pos:R:3:Z:I:1 energy=-306.4928949722111 field_type=dipole dipole="0.000000 0.000000 0.000000" charge=0
C	-2.492307	-0.149647	-0.325150	6
C	-0.993617	-0.446307	-0.402950	6
N	-0.688357	-1.097917	-1.679231	7
C	-0.179997	0.849083	-0.246810	6
C	1.344113	0.664183	-0.275320	6
C	1.904853	-0.261397	0.806190	6
N	1.595284	0.222783	2.147400	7
H	-2.744427	0.309343	0.636740	1
H	-3.079867	-1.069747	-0.416560	1
H	-2.809637	0.535283	-1.118981	1
H	-0.745707	-1.139987	0.407510	1
H	-0.944327	-0.478407	-2.447360	1
H	-1.270987	-1.927767	-1.783380	1
H	-0.464967	1.341553	0.691330	1
H	-0.451167	1.550413	-1.047150	1
H	1.811633	1.652603	-0.178390	1
H	1.650573	0.282093	-1.256970	1
H	2.993643	-0.321067	0.694100	1
H	1.517893	-1.278297	0.686730	1
H	2.004323	1.147063	2.275790	1
H	2.043043	-0.383857	2.832470	1
Es	1.555309	0.404069	-0.939982	99
Es	-0.579526	0.198264	-0.330780	99
Es	1.612663	0.201877	0.273760	99
Es	-1.759901	-0.287259	-0.361391	99
Es	-2.890614	-0.784005	-0.391662	99
Es	2.662161	-0.302406	0.719783	99
Es	-2.492324	-0.149645	-0.325147	99
Es	-0.688900	-1.097784	-1.679194	99
Es	-2.664862	0.164798	0.332374	99
Es	1.665637	1.346168	-0.197821	99
Es	1.636550	-0.956630	0.728402	99
Es	-0.824278	-0.923009	0.150031	99
Es	1.344093	0.664178	-0.275286	99
Es	-0.369539	1.324227	-0.805886	99
Es	-0.179976	0.849058	-0.246826	99
Es	-0.345306	-1.187593	-1.707143	99
Es	0.580219	0.740500	-0.254342	99
Es	1.904812	-0.261324	0.806307	99
Es	1.864352	0.776304	2.216122	99
Es	-1.060962	-1.589254	-1.736214	99
Es	-0.378406	1.181632	0.390223	99
Es	-2.703153	0.318857	-0.873628	99
Es	-0.993617	-0.446329	-0.403090	99
Es	-0.864586	-0.716015	-2.134778	99
Es	-0.840680	-0.814191	-1.139217	99
Es	1.595845	0.222768	2.147312	99
Es	1.246815	0.237503	2.206167	99
Es	1.885065	-0.143338	2.552969	99
Es	1.749442	0.017837	1.573680	99
50
Properties=species:S:1:pos:R:3:Z:I:1 energy=-306.4928949722111 field_type=dipole dipole="0.000000 0.000000 0.000000" charge=0
C	-2.492307	-0.149647	-0.325150	6
C	-0.993617	-0.446307	-0.402950	6
N	-0.688357	-1.097917	-1.679231	7
C	-0.179997	0.849083	-0.246810	6
C	1.344113	0.664183	-0.275320	6
C	1.904853	-0.261397	0.806190	6
N	1.595284	0.222783	2.147400	7
H	-2.744427	0.309343	0.636740	1
H	-3.079867	-1.069747	-0.416560	1
H	-2.809637	0.535283	-1.118981	1
H	-0.745707	-1.139987	0.407510	1
H	-0.944327	-0.478407	-2.447360	1
H	-1.270987	-1.927767	-1.783380	1
H	-0.464967	1.341553	0.691330	1
H	-0.451167	1.550413	-1.047150	1
H	1.811633	1.652603	-0.178390	1
H	1.650573	0.282093	-1.256970	1
H	2.993643	-0.321067	0.694100	1
H	1.517893	-1.278297	0.686730	1
H	2.004323	1.147063	2.275790	1
H	2.043043	-0.383857	2.832470	1
Es	2.662154	-0.302510	0.719754	99
Es	-1.060639	-1.589412	-1.736283	99
Es	-0.840716	-0.814348	-1.139078	99
Es	1.904812	-0.261325	0.806307	99
Es	-0.864796	-0.716005	-2.134726	99
Es	-2.890557	-0.784055	-0.391654	99
Es	-0.993618	-0.446329	-0.403089	99
Es	-0.688933	-1.097771	-1.679173	99
Es	-0.378339	1.181659	0.390255	99
Es	-0.824308	-0.922978	0.150001	99
Es	-2.492325	-0.149645	-0.325146	99
Es	-1.759925	-0.287149	-0.361281	99
Es	1.665598	1.346149	-0.197782	99
Es	-0.369545	1.324224	-0.805840	99
Es	-0.579541	0.198267	-0.330754	99
Es	1.636539	-0.956550	0.728481	99
Es	-2.664987	0.164842	0.332302	99
Es	1.863670	0.776682	2.216241	99
Es	1.612681	0.201832	0.273659	99
Es	0.580182	0.740396	-0.254432	99
Es	1.885523	-0.143035	2.552763	99
Es	1.344094	0.664178	-0.275286	99
Es	-2.703119	0.318790	-0.873691	99
Es	1.595852	0.222760	2.147313	99
Es	1.555343	0.404146	-0.939984	99
Es	-0.179976	0.849057	-0.246826	99
Es	-0.345314	-1.187331	-1.707258	99
Es	1.246567	0.236683	2.206107	99
Es	1.749954	0.018035	1.573845	99
50
Properties=species:S:1:pos:R:3:Z:I:1 energy=-306.4928949722111 field_type=dipole dipole="0.000000 0.000000 0.000000" charge=0
C	-2.492307	-0.149647	-0.325150	6
C	-0.993617	-0.446307	-0.402950	6
N	-0.688357	-1.097917	-1.679231	7
C	-0.179997	0.849083	-0.246810	6
C	1.344113	0.664183	-0.275320	6
C	1.904853	-0.261397	0.806190	6
N	1.595284	0.222783	2.147400	7
H	-2.744427	0.309343	0.636740	1
H	-3.079867	-1.069747	-0.416560	1
H	-2.809637	0.535283	-1.118981	1
H	-0.745707	-1.139987	0.407510	1
H	-0.944327	-0.478407	-2.447360	1
H	-1.270987	-1.927767	-1.783380	1
H	-0.464967	1.341553	0.691330	1
H	-0.451167	1.550413	-1.047150	1
H	1.811633	1.652603	-0.178390	1
H	1.650573	0.282093	-1.256970	1
H	2.993643	-0.321067	0.694100	1
H	1.517893	-1.278297	0.686730	1
H	2.004323	1.147063	2.275790	1
H	2.043043	-0.383857	2.832470	1
Es	1.344095	0.664181	-0.275286	99
Es	1.555395	0.404267	-0.940044	99
Es	2.662050	-0.302541	0.719764	99
Es	1.665580	1.346021	-0.197686	99
Es	-0.864713	-0.716016	-2.134657	99
Es	1.246511	0.236532	2.206252	99
Es	-0.993617	-0.446328	-0.403088	99
Es	1.885611	-0.142920	2.552624	99
Es	-2.703220	0.318807	-0.873718	99
Es	1.863611	0.776712	2.216305	99
Es	-0.369561	1.324211	-0.805848	99
Es	-2.492325	-0.149645	-0.325147	99
Es	-0.824313	-0.922945	0.149953	99
Es	-1.060864	-1.589236	-1.736303	99
Es	-2.664925	0.164807	0.332316	99
Es	1.904813	-0.261325	0.806307	99
Es	0.580229	0.740525	-0.254417	99
Es	-0.579528	0.198241	-0.330686	99
Es	1.595848	0.222768	2.147307	99
Es	-1.759924	-0.287235	-0.361327	99
Es	1.750030	0.018060	1.573819	99
Es	-0.345420	-1.187570	-1.707432	99
Es	1.636624	-0.956555	0.728551	99
Es	-0.688916	-1.097776	-1.679189	99
Es	-2.890554	-0.783955	-0.391573	99
Es	-0.179977	0.849057	-0.246826	99
Es	-0.840493	-0.814300	-1.138913	99
Es	-0.378348	1.181671	0.390136	99
Es	1.612630	0.201744	0.273551	99
50
Properties=species:S:1:pos:R:3:Z:I:1 energy=-306.4928949722111 field_type=dipole dipole="0.000000 0.000000 0.000000" charge=0
C	-2.492307	-0.149647	-0.325150	6
C	-0.993617	-0.446307	-0.402950	6
N	-0.688357	-1.097917	-1.679231	7
C	-0.179997	0.849083	-0.246810	6
C	1.344113	0.664183	-0.275320	6
C	1.904853	-0.261397	0.806190	6
N	1.595284	0.222783	2.147400	7
H	-2.744427	0.309343	0.636740	1
H	-3.079867	-1.069747	-0.416560	1
H	-2.809637	0.535283	-1.118981	1
H	-0.745707	-1.139987	0.407510	1
H	-0.944327	-0.478407	-2.447360	1
H	-1.270987	-1.927767	-1.783380	1
H	-0.464967	1.341553	0.691330	1
H	-0.451167	1.550413	-1.047150	1
H	1.811633	1.652603	-0.178390	1
H	1.650573	0.282093	-1.256970	1
H	2.993643	-0.321067	0.694100	1
H	1.517893	-1.278297	0.686730	1
H	2.004323	1.147063	2.275790	1
H	2.043043	-0.383857	2.832470	1
Es	1.904812	-0.261324	0.806307	99
Es	1.612652	0.201855	0.273596	99
Es	-0.378417	1.181687	0.390185	99
Es	1.636640	-0.956509	0.728460	99
Es	-0.865082	-0.715991	-2.134698	99
Es	2.662058	-0.302545	0.719764	99
Es	-0.688905	-1.097783	-1.679196	99
Es	-0.369521	1.324177	-0.805838	99
Es	-0.345643	-1.187094	-1.707566	99
Es	1.665642	1.346105	-0.197809	99
Es	-0.179977	0.849057	-0.246826	99
Es	1.555368	0.404181	-0.939897	99
Es	-2.703041	0.318529	-0.873770	99
Es	-0.824391	-0.922918	0.149968	99
Es	-2.492323	-0.149645	-0.325147	99
Es	-2.665062	0.165121	0.332200	99
Es	1.863611	0.776728	2.216326	99
Es	-1.759876	-0.287054	-0.361204	99
Es	-1.060302	-1.589573	-1.736322	99
Es	1.595847	0.222764	2.147317	99
Es	1.749858	0.017864	1.573733	99
Es	1.246819	0.236649	2.206251	99
Es	-0.579469	0.198196	-0.330721	99
Es	-2.890603	-0.784063	-0.391522	99
Es	1.344093	0.664179	-0.275286	99
Es	-0.993618	-0.446327	-0.403081	99
Es	0.580183	0.740450	-0.254438	99
Es	1.885451	-0.142946	2.552731	99
Es	-0.840474	-0.814513	-1.138773	99
50
Properties=species:S:1:pos:R:3:Z:I:1 energy=-306.4928949722111 field_type=dipole dipole="0.000000 0.000000 0.000000" charge=0
C	-2.492307	-0.149647	-0.325150	6
C	-0.993617	-0.446307	-0.402950	6
N	-0.688357	-1.097917	-1.679231	7
C	-0.179997	0.849083	-0.246810	6
C	1.344113	0.664183	-0.275320	6
C	1.904853	-0.261397	0.806190	6
N	1.595284	0.222783	2.147400	7
H	-2.744427	0.309343	0.636740	1
H	-3.079867	-1.069747	-0.416560	1
H	-2.809637	0.535283	-1.118981	1
H	-0.745707	-1.139987	0.407510	1
H	-0.944327	-0.478407	-2.447360	1
H	-1.270987	-1.927767	-1.783380	1
H	-0.464967	1.341553	0.691330	1
H	-0.451167	1.550413	-1.047150	1
H	1.811633	1.652603	-0.178390	1
H	1.650573	0.282093	-1.256970	1
H	2.993643	-0.321067	0.694100	1
H	1.517893	-1.278297	0.686730	1
H	2.004323	1.147063	2.275790	1
H	2.043043	-0.383857	2.832470	1
Es	-0.369562	1.324222	-0.805801	99
Es	-0.864679	-0.716034	-2.134791	99
Es	-0.840687	-0.814319	-1.138842	99
Es	1.246888	0.236695	2.206217	99
Es	-0.179979	0.849056	-0.246826	99
Es	1.636636	-0.956461	0.728477	99
Es	1.555316	0.404233	-0.939881	99
Es	-0.688917	-1.097787	-1.679199	99
Es	1.863538	0.776678	2.216324	99
Es	-2.890641	-0.783941	-0.391636	99
Es	-0.345777	-1.187139	-1.707302	99
Es	1.612699	0.201795	0.273613	99
Es	1.595843	0.222769	2.147308	99
Es	1.904813	-0.261325	0.806305	99
Es	-2.703184	0.318808	-0.873604	99
Es	-0.993617	-0.446329	-0.403094	99
Es	-1.060394	-1.589601	-1.736447	99
Es	0.580167	0.740472	-0.254435	99
Es	-2.664942	0.164799	0.332281	99
Es	-0.378339	1.181657	0.390141	99
Es	1.344095	0.664179	-0.275286	99
Es	-2.492325	-0.149644	-0.325147	99
Es	1.885431	-0.142965	2.552833	99
Es	1.665635	1.346068	-0.197868	99
Es	-0.824310	-0.922949	0.149890	99
Es	-0.579532	0.198233	-0.330652	99
Es	1.749929	0.017894	1.573718	99
Es	-1.759830	-0.287232	-0.361249	99
Es	2.662058	-0.302575	0.719696	99
50
Properties=species:S:1:pos:R:3:Z:I:1 energy=-306.4928949722111 field_type=dipole dipole="0.000000 0.000000 0.000000" charge=0
C	-2.492307	-0.149647	-0.325150	6
C	-0.993617	-0.446307	-0.402950	6
N	-0.688357	-1.097917	-1.679231	7
C	-0.179997	0.849083	-0.246810	6
C	1.344113	0.664183	-0.275320	6
C	1.904853	-0.261397	0.806190	6
N	1.595284	0.222783	2.147400	7
H	-2.744427	0.309343	0.636740	1
H	-3.079867	-1.069747	-0.416560	1
H	-2.809637	0.535283	-1.118981	1
H	-0.745707	-1.139987	0.407510	1
H	-0.944327	-0.478407	-2.447360	1
H	-1.270987	-1.927767	-1.783380	1
H	-0.464967	1.341553	0.691330	1
H	-0.451167	1.550413	-1.047150	1
H	1.811633	1.652603	-0.178390	1
H	1.650573	0.282093	-1.256970	1
H	2.993643	-0.321067	0.694100	1
H	1.517893	-1.278297	0.686730	1
H	2.004323	1.147063	2.275790	1
H	2.043043	-0.383857	2.832470	1
Es	-1.060257	-1.589699	-1.736388	99
Es	-0.369557	1.324180	-0.805786	99
Es	-0.345761	-1.186985	-1.707663	99
Es	1.595845	0.222765	2.147312	99
Es	-0.840439	-0.814380	-1.138680	99
Es	1.612658	0.201773	0.273567	99
Es	-1.759790	-0.287150	-0.361244	99
Es	-2.492327	-0.149645	-0.325147	99
Es	-2.703224	0.318780	-0.873543	99
Es	1.344094	0.664179	-0.275287	99
Es	-0.688887	-1.097765	-1.679205	99
Es	1.247124	0.236720	2.206245	99
Es	-0.993619	-0.446329	-0.403088	99
Es	-0.179977	0.849056	-0.246826	99
Es	1.863512	0.776727	2.216385	99
Es	0.580193	0.740547	-0.254438	99
Es	-0.824373	-0.922866	0.149831	99
Es	-0.579511	0.198221	-0.330587	99
Es	1.665619	1.346008	-0.197908	99
Es	-0.865050	-0.716126	-2.134611	99
Es	1.885379	-0.143052	2.552841	99
Es	-2.664987	0.164788	0.332195	99
Es	-2.890641	-0.784007	-0.391634	99
Es	1.555385	0.404221	-0.939839	99
Es	1.904811	-0.261323	0.806304	99
Es	-0.378388	1.181686	0.390031	99
Es	2.662028	-0.302583	0.719728	99
Es	1.636755	-0.956420	0.728529	99
Es	1.749719	0.017933	1.573648	99
50
Properties=species:S:1:pos:R:3:Z:I:1 energy=-306.4928949722111 field_type=dipole dipole="0.000000 0.000000 0.000000" charge=0
C	-2.492307	-0.149647	-0.325150	6
C	-0.993617	-0.446307	-0.402950	6
N	-0.688357	-1.097917	-1.679231	7
C	-0.179997	0.849083	-0.246810	6
C	1.344113	0.664183	-0.275320	6
C	1.904853	-0.261397	0.806190	6
N	1.595284	0.222783	2.147400	7
H	-2.744427	0.309343	0.636740	1
H	-3.079867	-1.069747	-0.416560	1
H	-2.809637	0.535283	-1.118981	1
H	-0.745707	-1.139987	0.407510	1
H	-0.944327	-0.478407	-2.447360	1
H	-1.270987	-1.927767	-1.783380	1
H	-0.464967	1.341553	0.691330	1
H	-0.451167	1.550413	-1.047150	1
H	1.811633	1.652603	-0.178390	1
H	1.650573	0.282093	-1.256970	1
H	2.993643	-0.321067	0.694100	1
H	1.517893	-1.278297	0.686730	1
H	2.004323	1.147063	2.275790	1
H	2.043043	-0.383857	2.832470	1
Es	-0.345875	-1.186853	-1.707603	99
Es	-2.703185	0.318687	-0.873701	99
Es	-0.579571	0.198233	-0.330652	99
Es	0.580225	0.740279	-0.254520	99
Es	-0.179977	0.849057	-0.246825	99
Es	1.863473	0.776692	2.216362	99
Es	1.904813	-0.261325	0.806306	99
Es	-1.759840	-0.287346	-0.361180	99
Es	1.885368	-0.142992	2.552898	99
Es	-0.840523	-0.814385	-1.138702	99
Es	-0.369584	1.324200	-0.805686	99
Es	1.344094	0.664179	-0.275287	99
Es	-0.864989	-0.716126	-2.134622	99
Es	1.247088	0.236730	2.206213	99
Es	-1.060193	-1.589792	-1.736447	99
Es	-2.664924	0.164956	0.332137	99
Es	1.555387	0.404152	-0.939686	99
Es	1.636688	-0.956475	0.728432	99
Es	-0.824328	-0.922837	0.149817	99
Es	-2.890709	-0.783928	-0.391447	99
Es	1.665459	1.346222	-0.198095	99
Es	-0.688811	-1.097799	-1.679194	99
Es	-0.993618	-0.446329	-0.403086	99
Es	-0.378381	1.181641	0.390043	99
Es	1.612927	0.202005	0.273692	99
Es	1.749828	0.017870	1.573668	99
Es	2.661973	-0.302581	0.719743	99
Es	-2.492326	-0.149642	-0.325143	99
Es	1.595843	0.222762	2.147311	99
50
Properties=species:S:1:pos:R:3:Z:I:1 energy=-306.4928949722111 field_type=dipole dipole="0.000000 0.000000 0.000000" charge=0
C	-2.492307	-0.149647	-0.325150	6
C	-0.993617	-0.446307	-0.402950	6
N	-0.688357	-1.097917	-1.679231	7
C	-0.179997	0.849083	-0.246810	6
C	1.344113	0.664183	-0.275320	6
C	1.904853	-0.261397	0.806190	6
N	1.595284	0.222783	2.147400	7
H	-2.744427	0.309343	0.636740	1
H	-3.079867	-1.069747	-0.416560	1
H	-2.809637	0.535283	-1.118981	1
H	-0.745707	-1.139987	0.407510	1
H	-0.944327	-0.478407	-2.447360	1
H	-1.270987	-1.927767	-1.783380	1
H	-0.464967	1.341553	0.691330	1
H	-0.451167	1.550413	-1.047150	1
H	1.811633	1.652603	-0.178390	1
H	1.650573	0.282093	-1.256970	1
H	2.993643	-0.321067	0.694100	1
H	1.517893	-1.278297	0.686730	1
H	2.004323	1.147063	2.275790	1
H	2.043043	-0.383857	2.832470	1
Es	-2.703190	0.318669	-0.873661	99
Es	1.885691	-0.142782	2.552655	99
Es	2.661991	-0.302655	0.719702	99
Es	1.863038	0.776953	2.216508	99
Es	-0.824346	-0.922801	0.149799	99
Es	1.595839	0.222766	2.147313	99
Es	-0.864877	-0.716161	-2.134837	99
Es	-0.688906	-1.097781	-1.679199	99
Es	-0.840323	-0.814317	-1.138588	99
Es	-0.346153	-1.186940	-1.707611	99
Es	1.247063	0.236171	2.206351	99
Es	1.636703	-0.956376	0.728478	99
Es	1.750018	0.017917	1.573650	99
Es	-0.378381	1.181665	0.390027	99
Es	-2.492325	-0.149646	-0.325147	99
Es	1.904812	-0.261325	0.806304	99
Es	-0.579602	0.198256	-0.330658	99
Es	-2.890743	-0.783923	-0.391445	99
Es	-1.060136	-1.589797	-1.736339	99
Es	-0.993617	-0.446326	-0.403085	99
Es	-2.664981	0.164953	0.332049	99
Es	1.555414	0.404248	-0.939800	99
Es	1.612698	0.201878	0.273576	99
Es	-0.369566	1.324179	-0.805646	99
Es	-1.759737	-0.287344	-0.361114	99
Es	0.580211	0.740542	-0.254519	99
Es	-0.179977	0.849058	-0.246826	99
Es	1.344094	0.664179	-0.275287	99
Es	1.665621	1.345996	-0.197907	99
50
Properties=species:S:1:pos:R:3:Z:I:1 energy=-306.4928949722111 field_type=dipole dipole="0.000000 0.000000 0.000000" charge=0
C	-2.492307	-0.149647	-0.325150	6
C	-0.993617	-0.446307	-0.402950	6
N	-0.688357	-1.097917	-1.679231	7
C	-0.179997	0.849083	-0.246810	6
C	1.344113	0.664183	-0.275320	6
C	1.904853	-0.261397	0.806190	6
N	1.595284	0.222783	2.147400	7
H	-2.744427	0.309343	0.636740	1
H	-3.079867	-1.069747	-0.416560	1
H	-2.809637	0.535283	-1.118981	1
H	-0.745707	-1.139987	0.407510	1
H	-0.944327	-0.478407	-2.447360	1
H	-1.270987	-1.927767	-1.783380	1
H	-0.464967	1.341553	0.691330	1
H	-0.451167	1.550413	-1.047150	1
H	1.811633	1.652603	-0.178390	1
H	1.650573	0.282093	-1.256970	1
H	2.993643	-0.321067	0.694100	1
H	1.517893	-1.278297	0.686730	1
H	2.004323	1.147063	2.275790	1
H	2.043043	-0.383857	2.832470	1
Es	-0.369574	1.324201	-0.805648	99
Es	-0.840389	-0.814482	-1.138471	99
Es	-2.492331	-0.149641	-0.325147	99
Es	-0.688900	-1.097784	-1.679198	99
Es	1.247587	0.236951	2.206621	99
Es	1.885249	-0.143009	2.552806	99
Es	1.612770	0.201827	0.273474	99
Es	-1.060233	-1.589732	-1.736609	99
Es	-2.890751	-0.783844	-0.391705	99
Es	1.636780	-0.956383	0.728503	99
Es	-0.824315	-0.922782	0.149741	99
Es	-0.993621	-0.446325	-0.403080	99
Es	-2.703135	0.318768	-0.873490	99
Es	1.595882	0.222763	2.147310	99
Es	1.749190	0.017657	1.573389	99
Es	1.904813	-0.261325	0.806305	99
Es	-2.665035	0.164807	0.332210	99
Es	-0.864898	-0.716069	-2.134526	99
Es	-1.759773	-0.287371	-0.361140	99
Es	1.344094	0.664180	-0.275286	99
Es	1.863698	0.776702	2.216371	99
Es	-0.345993	-1.186934	-1.707757	99
Es	0.580186	0.740584	-0.254480	99
Es	1.555380	0.404278	-0.939760	99
Es	1.665638	1.345970	-0.197954	99
Es	-0.579561	0.198206	-0.330654	99
Es	-0.179977	0.849058	-0.246825	99
Es	2.661934	-0.302659	0.719758	99
Es	-0.378384	1.181642	0.389988	99
50
Properties=species:S:1:pos:R:3:Z:I:1 energy=-306.4928949722111 field_type=dipole dipole="0.000000 0.000000 0.000000" charge=0
C	-2.492307	-0.149647	-0.325150	6
C	-0.993617	-0.446307	-0.402950	6
N	-0.688357	-1.097917	-1.679231	7
C	-0.179997	0.849083	-0.246810	6
C	1.344113	0.664183	-0.275320	6
C	1.904853	-0.261397	0.806190	6
N	1.595284	0.222783	2.147400	7
H	-2.744427	0.309343	0.636740	1
H	-3.079867	-1.069747	-0.416560	1
H	-2.809637	0.535283	-1.118981	1
H	-0.745707	-1.139987	0.407510	1
H	-0.944327	-0.478407	-2.447360	1
H	-1.270987	-1.927767	-1.783380	1
H	-0.464967	1.341553	0.691330	1
H	-0.451167	1.550413	-1.047150	1
H	1.811633	1.652603	-0.178390	1
H	1.650573	0.282093	-1.256970	1
H	2.993643	-0.321067	0.694100	1
H	1.517893	-1.278297	0.686730	1
H	2.004323	1.147063	2.275790	1
H	2.043043	-0.383857	2.832470	1
Es	0.580195	0.740652	-0.254404	99
Es	-0.579567	0.198175	-0.330522	99
Es	1.904818	-0.261327	0.806305	99
Es	1.665577	1.345887	-0.197942	99
Es	1.636769	-0.956387	0.728511	99
Es	-0.993618	-0.446327	-0.403082	99
Es	-2.665042	0.164778	0.332181	99
Es	-0.378445	1.181753	0.389873	99
Es	1.864352	0.775906	2.216154	99
Es	-0.179977	0.849062	-0.246829	99
Es	-1.060133	-1.589674	-1.736527	99
Es	1.884982	-0.143076	2.553052	99
Es	1.247045	0.237820	2.206511	99
Es	1.555403	0.404378	-0.939787	99
Es	1.344095	0.664183	-0.275288	99
Es	-0.864783	-0.716060	-2.134785	99
Es	1.612777	0.201740	0.273563	99
Es	-0.824358	-0.922797	0.149696	99
Es	-1.759703	-0.287325	-0.361128	99
Es	-0.840501	-0.814439	-1.138553	99
Es	-0.688886	-1.097782	-1.679218	99
Es	1.749469	0.017652	1.573470	99
Es	-0.369506	1.324104	-0.805697	99
Es	2.661924	-0.302643	0.719686	99
Es	-2.492324	-0.149645	-0.325147	99
Es	1.595812	0.222780	2.147333	99
Es	-0.346114	-1.187026	-1.707523	99
Es	-2.703243	0.318753	-0.873517	99
Es	-2.890684	-0.783858	-0.391639	99
50
Properties=species:S:1:pos:R:3:Z:I:1 energy=-306.4928949722111 field_type=dipole dipole="0.000000 0.000000 0.000000" charge=0
C	-2.492307	-0.149647	-0.325150	6
C	-0.993617	-0.446307	-0.402950	6
N	-0.688357	-1.097917	-1.679231	7
C	-0.179997	0.849083	-0.246810	6
C	1.344113	0.664183	-0.275320	6
C	1.904853	-0.261397	0.806190	6
N	1.595284	0.222783	2.147400	7
H	-2.744427	0.309343	0.636740	1
H	-3.079867	-1.069747	-0.416560	1
H	-2.809637	0.535283	-1.118981	1
H	-0.745707	-1.139987	0.407510	1
H	-0.944327	-0.478407	-2.447360	1
H	-1.270987	-1.927767	-1.783380	1
H	-0.464967	1.341553	0.691330	1
H	-0.451167	1.550413	-1.047150	1
H	1.811633	1.652603	-0.178390	1
H	1.650573	0.282093	-1.256970	1
H	2.993643	-0.321067	0.694100	1
H	1.517893	-1.278297	0.686730	1
H	2.004323	1.147063	2.275790	1
H	2.043043	-0.383857	2.832470	1
Es	-0.824378	-0.922767	0.149705	99
Es	-0.378400	1.181636	0.389939	99
Es	-0.688893	-1.097779	-1.679204	99
Es	-0.369549	1.324203	-0.805609	99
Es	-2.890782	-0.783850	-0.391629	99
Es	-0.864429	-0.716178	-2.134859	99
Es	1.665638	1.345962	-0.198017	99
Es	-0.346215	-1.187443	-1.707539	99
Es	0.580166	0.740555	-0.254529	99
Es	1.555407	0.404308	-0.939654	99
Es	-2.665022	0.164824	0.332123	99
Es	1.344095	0.664181	-0.275286	99
Es	-0.993619	-0.446326	-0.403083	99
Es	-1.060538	-1.589405	-1.736458	99
Es	1.863524	0.776658	2.216417	99
Es	1.612764	0.201793	0.273469	99
Es	1.749822	0.017609	1.573557	99
Es	1.884912	-0.142953	2.553163	99
Es	2.661867	-0.302671	0.719709	99
Es	-0.840332	-0.814212	-1.138531	99
Es	-0.179976	0.849063	-0.246828	99
Es	-1.759649	-0.287370	-0.361162	99
Es	1.904813	-0.261325	0.806304	99
Es	-2.703215	0.318725	-0.873455	99
Es	1.247545	0.236989	2.206119	99
Es	-2.492324	-0.149645	-0.325143	99
Es	1.636852	-0.956351	0.728517	99
Es	1.595838	0.222763	2.147319	99
Es	-0.579591	0.198262	-0.330611	99
50
Properties=species:S:1:pos:R:3:Z:I:1 energy=-306.4928949722111 field_type=dipole dipole="0.000000 0.000000 0.000000" charge=0
C	-2.492307	-0.149647	-0.325150	6
C	-0.993617	-0.446307	-0.402950	6
N	-0.688357	-1.097917	-1.679231	7
C	-0.179997	0.849083	-0.246810	6
C	1.344113	0.664183	-0.275320	6
C	1.904853	-0.261397	0.806190	6
N	1.595284	0.222783	2.147400	7
H	-2.744427	0.309343	0.636740	1
H	-3.079867	-1.069747	-0.416560	1
H	-2.809637	0.535283	-1.118981	1
H	-0.745707	-1.139987	0.407510	1
H	-0.944327	-0.478407	-2.447360	1
H	-1.270987	-1.927767	-1.783380	1
H	-0.464967	1.341553	0.691330	1
H	-0.451167	1.550413	-1.047150	1
H	1.811633	1.652603	-0.178390	1
H	1.650573	0.282093	-1.256970	1
H	2.993643	-0.321067	0.694100	1
H	1.517893	-1.278297	0.686730	1
H	2.004323	1.147063	2.275790	1
H	2.043043	-0.383857	2.832470	1
Es	-0.179976	0.849058	-0.246825	99
Es	1.904814	-0.261325	0.806304	99
Es	1.612808	0.201887	0.273472	99
Es	-0.688875	-1.097787	-1.679195	99
Es	-1.759669	-0.287326	-0.361044	99
Es	-0.864295	-0.716122	-2.134742	99
Es	-1.060936	-1.588925	-1.736534	99
Es	1.749405	0.017563	1.573411	99
Es	-2.890705	-0.783823	-0.391601	99
Es	2.661818	-0.302753	0.719717	99
Es	1.247697	0.236910	2.206571	99
Es	-0.579594	0.198200	-0.330486	99
Es	-0.345956	-1.187936	-1.707601	99
Es	-0.840331	-0.814242	-1.138544	99
Es	1.595867	0.222771	2.147313	99
Es	-2.665099	0.164799	0.332098	99
Es	-0.824354	-0.922743	0.149668	99
Es	-0.378395	1.181692	0.389861	99
Es	1.863521	0.776691	2.216367	99
Es	1.885190	-0.142875	2.552946	99
Es	-0.369607	1.324135	-0.805622	99
Es	1.344108	0.664178	-0.275287	99
Es	0.580179	0.740503	-0.254633	99
Es	1.636844	-0.956304	0.728521	99
Es	-2.703244	0.318716	-0.873533	99
Es	1.665578	1.345971	-0.198059	99
Es	-2.492323	-0.149645	-0.325145	99
Es	1.555481	0.404314	-0.939569	99
Es	-0.993619	-0.446327	-0.403084	99
50
Properties=species:S:1:pos:R:3:Z:I:1 energy=-306.4928949722111 field_type=dipole dipole="0.000000 0.000000 0.000000" charge=0
C	-2.492307	-0.149647	-0.325150	6
C	-0.993617	-0.446307	-0.402950	6
N	-0.688357	-1.097917	-1.679231	7
C	-0.179997	0.849083	-0.246810	6
C	1.344113	0.664183	-0.275320	6
C	1.904853	-0.261397	0.806190	6
N	1.595284	0.222783	2.147400	7
H	-2.744427	0.309343	0.636740	1
H	-3.079867	-1.069747	-0.416560	1
H	-2.809637	0.535283	-1.118981	1
H	-0.745707	-1.139987	0.407510	1
H	-0.944327	-0.478407	-2.447360	1
H	-1.270987	-1.927767	-1.783380	1
H	-0.464967	1.341553	0.691330	1
H	-0.451167	1.550413	-1.047150	1
H	1.811633	1.652603	-0.178390	1
H	1.650573	0.282093	-1.256970	1
H	2.993643	-0.321067	0.694100	1
H	1.517893	-1.278297	0.686730	1
H	2.004323	1.147063	2.275790	1
H	2.043043	-0.383857	2.832470	1
Es	-0.378410	1.181683	0.389825	99
Es	-1.060007	-1.589823	-1.736524	99
Es	1.247368	0.237288	2.205544	99
Es	1.665623	1.345902	-0.198000	99
Es	1.904813	-0.261325	0.806306	99
Es	1.612787	0.201801	0.273455	99
Es	1.595829	0.222769	2.147323	99
Es	1.884432	-0.143096	2.553508	99
Es	-0.993613	-0.446329	-0.403085	99
Es	-0.579565	0.198114	-0.330516	99
Es	1.344095	0.664179	-0.275288	99
Es	1.636842	-0.956281	0.728503	99
Es	1.750415	0.017665	1.573751	99
Es	-0.369601	1.324129	-0.805514	99
Es	2.661828	-0.302758	0.719695	99
Es	1.555440	0.404361	-0.939653	99
Es	-0.824404	-0.922684	0.149611	99
Es	-2.890708	-0.783820	-0.391626	99
Es	-0.179977	0.849059	-0.246825	99
Es	-0.864697	-0.716223	-2.134849	99
Es	-2.492325	-0.149645	-0.325146	99
Es	-0.688898	-1.097783	-1.679201	99
Es	1.863634	0.776426	2.216504	99
Es	-2.703213	0.318697	-0.873529	99
Es	-0.346363	-1.186891	-1.707596	99
Es	-1.759732	-0.287359	-0.361067	99
Es	0.580228	0.740718	-0.254578	99
Es	-0.840400	-0.814344	-1.138427	99
Es	-2.665089	0.164827	0.332146	99
