38
Properties=species:S:1:pos:R:3:Z:I:1 energy=-301.7352532440894 field_type=dipole dipole="0.000000 0.000000 0.000000" charge=0
C	-1.691110	0.645748	0.062134	6
C	-0.358220	0.533308	0.016734	6
N	0.401100	-0.611332	-0.019306	7
C	0.019310	-1.914732	-0.013366	6
N	0.802160	-2.935241	-0.053856	7
C	0.434690	1.718838	0.000764	6
C	1.106590	2.714889	-0.012856	6
H	-2.174970	1.617788	0.086954	1
H	-2.343410	-0.219172	0.075424	1
H	1.398540	-0.438882	-0.056726	1
H	-1.069490	-2.077902	0.031194	1
H	1.778100	-2.635261	-0.093106	1
H	1.696710	3.601948	-0.023986	1
Es	-2.011550	1.295077	0.078704	99
Es	-1.047945	0.607005	-0.284580	99
Es	0.399568	-0.611964	-0.022028	99
Es	-1.026199	0.600634	0.364972	99
Es	1.490331	3.290161	-0.020336	99
Es	0.045370	-0.125135	-0.020039	99
Es	0.994420	-0.511912	-0.050053	99
Es	0.062992	1.136920	0.007953	99
Es	0.624531	2.294702	-0.318040	99
Es	1.106722	2.715075	-0.012860	99
Es	1.072791	2.010208	0.009165	99
Es	-2.126520	0.056368	0.070956	99
Es	1.391514	-2.729379	-0.077371	99
Es	0.019302	-1.914505	-0.013357	99
Es	0.508312	-2.513219	0.246476	99
Es	0.218986	-1.166277	-0.042962	99
Es	0.344144	-0.640644	0.038139	99
Es	0.608034	2.316059	0.290622	99
Es	0.434571	1.718631	0.000784	99
Es	0.802261	-2.934709	-0.053857	99
Es	-0.715514	-2.005822	0.016665	99
Es	0.484058	-2.509342	-0.322058	99
Es	0.707415	-3.279135	-0.052267	99
Es	-1.691136	0.645729	0.062116	99
Es	-0.357920	0.533249	0.016724	99
38
Properties=species:S:1:pos:R:3:Z:I:1 energy=-301.7352532440894 field_type=dipole dipole="0.000000 0.000000 0.000000" charge=0
C	-1.691110	0.645748	0.062134	6
C	-0.358220	0.533308	0.016734	6
N	0.401100	-0.611332	-0.019306	7
C	0.019310	-1.914732	-0.013366	6
N	0.802160	-2.935241	-0.053856	7
C	0.434690	1.718838	0.000764	6
C	1.106590	2.714889	-0.012856	6
H	-2.174970	1.617788	0.086954	1
H	-2.343410	-0.219172	0.075424	1
H	1.398540	-0.438882	-0.056726	1
H	-1.069490	-2.077902	0.031194	1
H	1.778100	-2.635261	-0.093106	1
H	1.696710	3.601948	-0.023986	1
Es	0.484029	-2.508536	-0.321709	99
Es	1.391643	-2.729531	-0.077258	99
Es	0.802262	-2.934711	-0.053856	99
Es	0.559405	2.351839	0.242878	99
Es	0.063033	1.136897	0.008289	99
Es	1.063234	2.016473	0.084497	99
Es	-2.011545	1.295076	0.078753	99
Es	0.434543	1.718626	0.000758	99
Es	-0.715553	-2.005869	0.016638	99
Es	0.995220	-0.512084	-0.042552	99
Es	0.219154	-1.168004	-0.021271	99
Es	1.490332	3.290105	-0.020237	99
Es	-1.026167	0.600768	0.364831	99
Es	1.106722	2.715077	-0.012858	99
Es	0.378021	-0.622053	-0.030537	99
Es	-0.357919	0.533250	0.016727	99
Es	0.508273	-2.514071	0.246984	99
Es	0.707351	-3.278873	-0.053186	99
Es	0.682806	2.252620	-0.346073	99
Es	-1.048163	0.606948	-0.284711	99
Es	0.364906	-0.629198	0.003270	99
Es	0.045307	-0.124502	-0.005714	99
Es	-2.126519	0.056307	0.071035	99
Es	0.019302	-1.914507	-0.013364	99
Es	-1.691137	0.645728	0.062133	99
38
Properties=species:S:1:pos:R:3:Z:I:1 energy=-301.7352532440894 field_type=dipole dipole="0.000000 0.000000 0.000000" charge=0
C	-1.691110	0.645748	0.062134	6
C	-0.358220	0.533308	0.016734	6
N	0.401100	-0.611332	-0.019306	7
C	0.019310	-1.914732	-0.013366	6
N	0.802160	-2.935241	-0.053856	7
C	0.434690	1.718838	0.000764	6
C	1.106590	2.714889	-0.012856	6
H	-2.174970	1.617788	0.086954	1
H	-2.343410	-0.219172	0.075424	1
H	1.398540	-0.438882	-0.056726	1
H	-1.069490	-2.077902	0.031194	1
H	1.778100	-2.635261	-0.093106	1
H	1.696710	3.601948	-0.023986	1
Es	0.398848	-0.612349	-0.021997	99
Es	1.071814	2.010977	0.029011	99
Es	0.344529	-0.643529	0.085025	99
Es	0.707417	-3.278508	-0.052113	99
Es	0.508393	-2.513077	0.246782	99
Es	1.490293	3.290065	-0.020133	99
Es	0.802263	-2.934708	-0.053856	99
Es	0.046562	-0.127234	-0.035231	99
Es	-2.126499	0.056284	0.070912	99
Es	0.483837	-2.509627	-0.322057	99
Es	1.391747	-2.729773	-0.077665	99
Es	1.106720	2.715072	-0.012858	99
Es	0.434548	1.718631	0.000767	99
Es	0.593911	2.326438	0.279274	99
Es	0.993052	-0.511794	-0.057250	99
Es	0.219451	-1.161012	-0.067669	99
Es	-0.357919	0.533250	0.016717	99
Es	-1.691140	0.645729	0.062138	99
Es	-0.715547	-2.005969	0.016538	99
Es	-1.026194	0.600447	0.364944	99
Es	0.019302	-1.914502	-0.013357	99
Es	-2.011562	1.295124	0.078748	99
Es	0.062959	1.136969	0.008109	99
Es	-1.047985	0.607296	-0.284323	99
Es	0.639739	2.283574	-0.326988	99
38
Properties=species:S:1:pos:R:3:Z:I:1 energy=-301.7352532440894 field_type=dipole dipole="0.000000 0.000000 0.000000" charge=0
C	-1.691110	0.645748	0.062134	6
C	-0.358220	0.533308	0.016734	6
N	0.401100	-0.611332	-0.019306	7
C	0.019310	-1.914732	-0.013366	6
N	0.802160	-2.935241	-0.053856	7
C	0.434690	1.718838	0.000764	6
C	1.106590	2.714889	-0.012856	6
H	-2.174970	1.617788	0.086954	1
H	-2.343410	-0.219172	0.075424	1
H	1.398540	-0.438882	-0.056726	1
H	-1.069490	-2.077902	0.031194	1
H	1.778100	-2.635261	-0.093106	1
H	1.696710	3.601948	-0.023986	1
Es	0.062864	1.137081	0.008467	99
Es	-2.011568	1.295117	0.078695	99
Es	0.533666	2.370968	0.207422	99
Es	0.721353	2.225602	-0.355133	99
Es	-2.126484	0.056235	0.071106	99
Es	0.484373	-2.510612	-0.323333	99
Es	-0.357926	0.533257	0.016729	99
Es	0.221012	-1.166559	0.010419	99
Es	0.995148	-0.512090	-0.033321	99
Es	-1.048229	0.606895	-0.284604	99
Es	1.050653	2.024171	0.128702	99
Es	0.019303	-1.914506	-0.013355	99
Es	0.802252	-2.934709	-0.053857	99
Es	1.490316	3.290073	-0.020121	99
Es	-1.026067	0.601107	0.364573	99
Es	0.340984	-0.639794	-0.063651	99
Es	0.707458	-3.278170	-0.050767	99
Es	-1.691144	0.645732	0.062145	99
Es	0.046540	-0.125352	0.013549	99
Es	1.392012	-2.729873	-0.077131	99
Es	1.106707	2.715072	-0.012856	99
Es	-0.715630	-2.005947	0.016993	99
Es	0.507548	-2.512280	0.245595	99
Es	0.398853	-0.612267	-0.023544	99
Es	0.434547	1.718623	0.000743	99
38
Properties=species:S:1:pos:R:3:Z:I:1 energy=-301.7352532440894 field_type=dipole dipole="0.000000 0.000000 0.000000" charge=0
C	-1.691110	0.645748	0.062134	6
C	-0.358220	0.533308	0.016734	6
N	0.401100	-0.611332	-0.019306	7
C	0.019310	-1.914732	-0.013366	6
N	0.802160	-2.935241	-0.053856	7
C	0.434690	1.718838	0.000764	6
C	1.106590	2.714889	-0.012856	6
H	-2.174970	1.617788	0.086954	1
H	-2.343410	-0.219172	0.075424	1
H	1.398540	-0.438882	-0.056726	1
H	-1.069490	-2.077902	0.031194	1
H	1.778100	-2.635261	-0.093106	1
H	1.696710	3.601948	-0.023986	1
Es	1.391926	-2.729922	-0.077429	99
Es	-2.126465	0.056233	0.070885	99
Es	0.434543	1.718627	0.000769	99
Es	0.835002	2.150042	-0.349535	99
Es	-1.026558	0.600886	0.365083	99
Es	0.485852	2.406315	0.088435	99
Es	1.490392	3.290052	-0.020184	99
Es	-2.011603	1.295069	0.078572	99
Es	1.106720	2.715076	-0.012857	99
Es	0.508468	-2.513615	0.246887	99
Es	0.707452	-3.278126	-0.052529	99
Es	0.985174	2.063946	0.242262	99
Es	0.019302	-1.914506	-0.013366	99
Es	0.220547	-1.154318	-0.087807	99
Es	-0.357922	0.533250	0.016723	99
Es	0.062460	1.137406	0.008218	99
Es	0.991666	-0.511847	-0.061922	99
Es	0.400588	-0.611529	-0.020541	99
Es	0.483615	-2.509256	-0.321873	99
Es	0.341618	-0.649253	0.117952	99
Es	-1.047831	0.607386	-0.284069	99
Es	0.802259	-2.934708	-0.053860	99
Es	0.048056	-0.129064	-0.044961	99
Es	-0.715585	-2.006098	0.016479	99
Es	-1.691135	0.645728	0.062135	99
38
Properties=species:S:1:pos:R:3:Z:I:1 energy=-301.7352532440894 field_type=dipole dipole="0.000000 0.000000 0.000000" charge=0
C	-1.691110	0.645748	0.062134	6
C	-0.358220	0.533308	0.016734	6
N	0.401100	-0.611332	-0.019306	7
C	0.019310	-1.914732	-0.013366	6
N	0.802160	-2.935241	-0.053856	7
C	0.434690	1.718838	0.000764	6
C	1.106590	2.714889	-0.012856	6
H	-2.174970	1.617788	0.086954	1
H	-2.343410	-0.219172	0.075424	1
H	1.398540	-0.438882	-0.056726	1
H	-1.069490	-2.077902	0.031194	1
H	1.778100	-2.635261	-0.093106	1
H	1.696710	3.601948	-0.023986	1
Es	-1.691136	0.645728	0.062135	99
Es	0.707499	-3.277858	-0.052364	99
Es	0.995287	-0.512025	-0.040694	99
Es	1.392038	-2.730044	-0.077362	99
Es	-1.048225	0.606955	-0.284513	99
Es	0.378616	-0.622407	-0.005361	99
Es	0.434533	1.718627	0.000771	99
Es	0.063012	1.136999	0.008010	99
Es	0.045396	-0.124658	-0.000548	99
Es	-0.357923	0.533251	0.016725	99
Es	1.490279	3.290005	-0.020205	99
Es	1.073376	2.009579	-0.017952	99
Es	1.106720	2.715075	-0.012858	99
Es	0.802265	-2.934713	-0.053857	99
Es	-0.715743	-2.005997	0.016776	99
Es	-1.026153	0.600744	0.364491	99
Es	0.483937	-2.509413	-0.322418	99
Es	0.507920	-2.513531	0.246802	99
Es	0.605935	2.308527	-0.304379	99
Es	0.019304	-1.914508	-0.013358	99
Es	-2.011537	1.295150	0.078771	99
Es	0.626180	2.302918	0.303967	99
Es	0.363802	-0.628757	-0.036450	99
Es	-2.126514	0.056247	0.071052	99
Es	0.219672	-1.168120	-0.013714	99
38
Properties=species:S:1:pos:R:3:Z:I:1 energy=-301.7352532440894 field_type=dipole dipole="0.000000 0.000000 0.000000" charge=0
C	-1.691110	0.645748	0.062134	6
C	-0.358220	0.533308	0.016734	6
N	0.401100	-0.611332	-0.019306	7
C	0.019310	-1.914732	-0.013366	6
N	0.802160	-2.935241	-0.053856	7
C	0.434690	1.718838	0.000764	6
C	1.106590	2.714889	-0.012856	6
H	-2.174970	1.617788	0.086954	1
H	-2.343410	-0.219172	0.075424	1
H	1.398540	-0.438882	-0.056726	1
H	-1.069490	-2.077902	0.031194	1
H	1.778100	-2.635261	-0.093106	1
H	1.696710	3.601948	-0.023986	1
Es	1.061916	2.015245	-0.100789	99
Es	0.507618	-2.513130	0.246536	99
Es	0.045265	-0.124658	-0.004029	99
Es	0.553949	2.348132	-0.252271	99
Es	-1.691136	0.645729	0.062140	99
Es	1.490270	3.290000	-0.020158	99
Es	0.062869	1.137107	0.007621	99
Es	-2.126547	0.056291	0.070808	99
Es	1.106719	2.715076	-0.012857	99
Es	0.995233	-0.512004	-0.042297	99
Es	0.689773	2.257493	0.334998	99
Es	0.434545	1.718628	0.000767	99
Es	-0.715781	-2.006014	0.016833	99
Es	0.374305	-0.623824	-0.031730	99
Es	0.707632	-3.277709	-0.051969	99
Es	-0.357924	0.533251	0.016725	99
Es	0.368520	-0.627409	-0.000049	99
Es	-1.026279	0.600822	0.364789	99
Es	0.219540	-1.168091	-0.018726	99
Es	0.484077	-2.509922	-0.322829	99
Es	0.802256	-2.934712	-0.053856	99
Es	-1.048143	0.606913	-0.284306	99
Es	1.392080	-2.730051	-0.077130	99
Es	0.019304	-1.914511	-0.013362	99
Es	-2.011521	1.295124	0.078608	99
38
Properties=species:S:1:pos:R:3:Z:I:1 energy=-301.7352532440894 field_type=dipole dipole="0.000000 0.000000 0.000000" charge=0
C	-1.691110	0.645748	0.062134	6
C	-0.358220	0.533308	0.016734	6
N	0.401100	-0.611332	-0.019306	7
C	0.019310	-1.914732	-0.013366	6
N	0.802160	-2.935241	-0.053856	7
C	0.434690	1.718838	0.000764	6
C	1.106590	2.714889	-0.012856	6
H	-2.174970	1.617788	0.086954	1
H	-2.343410	-0.219172	0.075424	1
H	1.398540	-0.438882	-0.056726	1
H	-1.069490	-2.077902	0.031194	1
H	1.778100	-2.635261	-0.093106	1
H	1.696710	3.601948	-0.023986	1
Es	0.045350	-0.124678	-0.002371	99
Es	1.020826	2.042216	0.192484	99
Es	-0.715822	-2.006060	0.016812	99
Es	1.106720	2.715072	-0.012858	99
Es	1.392363	-2.730352	-0.077430	99
Es	1.490305	3.289983	-0.020411	99
Es	0.219662	-1.168085	-0.016103	99
Es	0.062510	1.137530	0.008418	99
Es	-0.357927	0.533253	0.016724	99
Es	0.483821	-2.509746	-0.322573	99
Es	-1.026381	0.600883	0.364408	99
Es	-2.126619	0.056242	0.071058	99
Es	0.780759	2.185385	-0.359341	99
Es	0.372732	-0.625301	-0.002844	99
Es	0.507885	-2.513307	0.246573	99
Es	0.369924	-0.625877	-0.033677	99
Es	0.504477	2.392728	0.148197	99
Es	0.019302	-1.914507	-0.013362	99
Es	-2.011411	1.295203	0.078805	99
Es	0.434567	1.718627	0.000782	99
Es	-1.048277	0.607003	-0.284342	99
Es	-1.691120	0.645725	0.062132	99
Es	0.707369	-3.277364	-0.051934	99
Es	0.802257	-2.934712	-0.053858	99
Es	0.995268	-0.512088	-0.041824	99
