44
Properties=species:S:1:pos:R:3:Z:I:1 energy=-304.0815373918017 field_type=dipole dipole="0.000000 0.000000 0.000000" charge=0
C	-1.442257	0.142159	1.017834	6
C	0.002473	0.082259	0.517784	6
N	0.071813	-0.512291	-0.827876	7
N	-0.340867	-1.801420	-0.942856	7
C	-0.317357	-2.234940	-2.159146	6
C	0.577103	1.475549	0.453784	6
C	1.644653	1.891459	1.149004	6
H	-1.494037	0.623719	2.001054	1
H	-1.867377	-0.861981	1.123294	1
H	-2.085247	0.709419	0.334594	1
H	0.591623	-0.533791	1.209174	1
H	1.036503	-0.410041	-1.154906	1
H	-0.632387	-3.268170	-2.373226	1
H	-0.000417	-1.623031	-3.022076	1
H	0.071813	2.179529	-0.205246	1
H	2.181173	1.229279	1.821654	1
H	2.002793	2.912289	1.057154	1
Es	1.319791	1.592877	0.558317	99
Es	0.228284	1.945441	0.005763	99
Es	-0.136122	-0.350307	-1.042456	99
Es	1.892138	2.582116	1.093163	99
Es	0.655450	-0.475442	-1.017005	99
Es	-0.108126	-1.162644	-0.878145	99
Es	0.299125	0.783119	0.477389	99
Es	0.072177	-0.512744	-0.827495	99
Es	0.052063	-0.285873	-0.232353	99
Es	0.923986	1.769834	1.050397	99
Es	0.577026	1.475496	0.453741	99
Es	-1.723669	-0.535705	1.087824	99
Es	2.012323	1.445613	1.606085	99
Es	-0.718458	0.118846	0.761771	99
Es	-1.467759	0.471293	1.686246	99
Es	-1.442218	0.142168	1.017829	99
Es	0.411088	-0.334684	0.998522	99
Es	-0.048202	-2.085915	-1.451619	99
Es	-0.317321	-2.234968	-2.159156	99
Es	0.002456	0.082263	0.517634	99
Es	-0.526051	-2.931674	-2.310349	99
Es	1.644732	1.891491	1.149062	99
Es	-1.871721	0.532245	0.549761	99
Es	-0.340655	-1.801067	-0.943345	99
Es	-0.589649	-1.908087	-1.547664	99
Es	-0.460905	-1.978941	-0.639276	99
Es	-0.095453	-1.820849	-2.743461	99
44
Properties=species:S:1:pos:R:3:Z:I:1 energy=-304.0815373918017 field_type=dipole dipole="0.000000 0.000000 0.000000" charge=0
C	-1.442257	0.142159	1.017834	6
C	0.002473	0.082259	0.517784	6
N	0.071813	-0.512291	-0.827876	7
N	-0.340867	-1.801420	-0.942856	7
C	-0.317357	-2.234940	-2.159146	6
C	0.577103	1.475549	0.453784	6
C	1.644653	1.891459	1.149004	6
H	-1.494037	0.623719	2.001054	1
H	-1.867377	-0.861981	1.123294	1
H	-2.085247	0.709419	0.334594	1
H	0.591623	-0.533791	1.209174	1
H	1.036503	-0.410041	-1.154906	1
H	-0.632387	-3.268170	-2.373226	1
H	-0.000417	-1.623031	-3.022076	1
H	0.071813	2.179529	-0.205246	1
H	2.181173	1.229279	1.821654	1
H	2.002793	2.912289	1.057154	1
Es	-1.871778	0.532213	0.549807	99
Es	-0.718526	0.118918	0.761730	99
Es	-0.135981	-0.350528	-1.042609	99
Es	-1.723649	-0.535686	1.087856	99
Es	-0.589564	-1.908119	-1.547610	99
Es	0.228341	1.945516	0.005680	99
Es	0.577017	1.475493	0.453737	99
Es	1.891974	2.582233	1.093019	99
Es	-0.095418	-1.820876	-2.743458	99
Es	0.072206	-0.512773	-0.827469	99
Es	-0.461004	-1.978892	-0.639219	99
Es	0.299272	0.782971	0.477333	99
Es	1.644732	1.891490	1.149066	99
Es	0.002454	0.082264	0.517631	99
Es	-0.340655	-1.801064	-0.943331	99
Es	-1.442219	0.142167	1.017830	99
Es	1.319511	1.592932	0.558649	99
Es	0.924169	1.769696	1.050303	99
Es	-1.467695	0.471310	1.686263	99
Es	2.012464	1.445573	1.606164	99
Es	-0.526024	-2.931704	-2.310328	99
Es	0.411041	-0.334672	0.998484	99
Es	0.655286	-0.475388	-1.016994	99
Es	0.051914	-0.285602	-0.232324	99
Es	-0.317317	-2.234969	-2.159155	99
Es	-0.107851	-1.162639	-0.878300	99
Es	-0.048371	-2.085968	-1.451576	99
44
Properties=species:S:1:pos:R:3:Z:I:1 energy=-304.0815373918017 field_type=dipole dipole="0.000000 0.000000 0.000000" charge=0
C	-1.442257	0.142159	1.017834	6
C	0.002473	0.082259	0.517784	6
N	0.071813	-0.512291	-0.827876	7
N	-0.340867	-1.801420	-0.942856	7
C	-0.317357	-2.234940	-2.159146	6
C	0.577103	1.475549	0.453784	6
C	1.644653	1.891459	1.149004	6
H	-1.494037	0.623719	2.001054	1
H	-1.867377	-0.861981	1.123294	1
H	-2.085247	0.709419	0.334594	1
H	0.591623	-0.533791	1.209174	1
H	1.036503	-0.410041	-1.154906	1
H	-0.632387	-3.268170	-2.373226	1
H	-0.000417	-1.623031	-3.022076	1
H	0.071813	2.179529	-0.205246	1
H	2.181173	1.229279	1.821654	1
H	2.002793	2.912289	1.057154	1
Es	-0.135957	-0.350548	-1.042371	99
Es	0.923996	1.769851	1.050448	99
Es	-0.340655	-1.801069	-0.943336	99
Es	-0.317318	-2.234969	-2.159157	99
Es	-1.442220	0.142168	1.017830	99
Es	0.052217	-0.285678	-0.232223	99
Es	0.655058	-0.475278	-1.017210	99
Es	1.644717	1.891487	1.149051	99
Es	-0.589859	-1.908184	-1.547600	99
Es	-0.048338	-2.085972	-1.451596	99
Es	-1.723721	-0.535718	1.087856	99
Es	0.411018	-0.334651	0.998481	99
Es	-0.526022	-2.931704	-2.310328	99
Es	-0.095407	-1.820875	-2.743456	99
Es	0.577024	1.475490	0.453730	99
Es	0.002454	0.082264	0.517632	99
Es	0.072159	-0.512702	-0.827492	99
Es	2.012312	1.445610	1.605999	99
Es	-0.460662	-1.978938	-0.639641	99
Es	0.228320	1.945503	0.005669	99
Es	-0.718514	0.118990	0.761747	99
Es	-1.871723	0.532218	0.549853	99
Es	1.319616	1.592904	0.558503	99
Es	0.299314	0.782896	0.477393	99
Es	1.892221	2.582114	1.093150	99
Es	-1.467728	0.471319	1.686208	99
Es	-0.107974	-1.162629	-0.877960	99
44
Properties=species:S:1:pos:R:3:Z:I:1 energy=-304.0815373918017 field_type=dipole dipole="0.000000 0.000000 0.000000" charge=0
C	-1.442257	0.142159	1.017834	6
C	0.002473	0.082259	0.517784	6
N	0.071813	-0.512291	-0.827876	7
N	-0.340867	-1.801420	-0.942856	7
C	-0.317357	-2.234940	-2.159146	6
C	0.577103	1.475549	0.453784	6
C	1.644653	1.891459	1.149004	6
H	-1.494037	0.623719	2.001054	1
H	-1.867377	-0.861981	1.123294	1
H	-2.085247	0.709419	0.334594	1
H	0.591623	-0.533791	1.209174	1
H	1.036503	-0.410041	-1.154906	1
H	-0.632387	-3.268170	-2.373226	1
H	-0.000417	-1.623031	-3.022076	1
H	0.071813	2.179529	-0.205246	1
H	2.181173	1.229279	1.821654	1
H	2.002793	2.912289	1.057154	1
Es	-0.048679	-2.085766	-1.451638	99
Es	-1.723762	-0.535690	1.087879	99
Es	-0.340654	-1.801070	-0.943338	99
Es	-0.108201	-1.162486	-0.878045	99
Es	1.892248	2.582176	1.092954	99
Es	0.002454	0.082264	0.517632	99
Es	-0.460434	-1.979062	-0.639720	99
Es	0.228454	1.945605	0.005590	99
Es	1.319207	1.592972	0.558937	99
Es	-0.317311	-2.234970	-2.159156	99
Es	-0.589948	-1.908347	-1.547565	99
Es	-0.095343	-1.820825	-2.743496	99
Es	2.012431	1.445518	1.605949	99
Es	-0.525935	-2.931761	-2.310275	99
Es	-1.442218	0.142168	1.017829	99
Es	0.411015	-0.334595	0.998449	99
Es	0.655185	-0.475347	-1.017122	99
Es	0.299324	0.782720	0.477355	99
Es	-1.467669	0.471320	1.686209	99
Es	-0.718572	0.118936	0.761718	99
Es	0.052018	-0.285544	-0.232263	99
Es	0.577018	1.475494	0.453739	99
Es	-1.871742	0.532232	0.549897	99
Es	-0.135612	-0.350613	-1.042280	99
Es	1.644730	1.891490	1.149059	99
Es	0.924123	1.769849	1.050362	99
Es	0.072201	-0.512769	-0.827479	99
44
Properties=species:S:1:pos:R:3:Z:I:1 energy=-304.0815373918017 field_type=dipole dipole="0.000000 0.000000 0.000000" charge=0
C	-1.442257	0.142159	1.017834	6
C	0.002473	0.082259	0.517784	6
N	0.071813	-0.512291	-0.827876	7
N	-0.340867	-1.801420	-0.942856	7
C	-0.317357	-2.234940	-2.159146	6
C	0.577103	1.475549	0.453784	6
C	1.644653	1.891459	1.149004	6
H	-1.494037	0.623719	2.001054	1
H	-1.867377	-0.861981	1.123294	1
H	-2.085247	0.709419	0.334594	1
H	0.591623	-0.533791	1.209174	1
H	1.036503	-0.410041	-1.154906	1
H	-0.632387	-3.268170	-2.373226	1
H	-0.000417	-1.623031	-3.022076	1
H	0.071813	2.179529	-0.205246	1
H	2.181173	1.229279	1.821654	1
H	2.002793	2.912289	1.057154	1
Es	0.052085	-0.285648	-0.232288	99
Es	-0.589426	-1.908253	-1.547537	99
Es	0.924204	1.769746	1.050107	99
Es	-0.095535	-1.820822	-2.743472	99
Es	0.072176	-0.512741	-0.827498	99
Es	-0.340661	-1.801074	-0.943308	99
Es	1.644730	1.891490	1.149061	99
Es	-0.317318	-2.234969	-2.159155	99
Es	-0.526138	-2.931737	-2.310316	99
Es	-0.460851	-1.978905	-0.640087	99
Es	-0.135921	-0.350393	-1.042610	99
Es	-1.467764	0.471333	1.686214	99
Es	-1.871717	0.532182	0.549861	99
Es	0.411029	-0.334569	0.998429	99
Es	0.299278	0.782705	0.477407	99
Es	0.002454	0.082264	0.517633	99
Es	1.319475	1.593031	0.558659	99
Es	1.892163	2.582169	1.093169	99
Es	0.577019	1.475494	0.453738	99
Es	0.228375	1.945648	0.005709	99
Es	2.012303	1.445522	1.606073	99
Es	-0.048308	-2.086201	-1.451511	99
Es	-0.718552	0.118935	0.761792	99
Es	-0.107932	-1.162365	-0.877724	99
Es	-1.723747	-0.535654	1.087863	99
Es	0.655126	-0.475459	-1.016860	99
Es	-1.442218	0.142168	1.017828	99
44
Properties=species:S:1:pos:R:3:Z:I:1 energy=-304.0815373918017 field_type=dipole dipole="0.000000 0.000000 0.000000" charge=0
C	-1.442257	0.142159	1.017834	6
C	0.002473	0.082259	0.517784	6
N	0.071813	-0.512291	-0.827876	7
N	-0.340867	-1.801420	-0.942856	7
C	-0.317357	-2.234940	-2.159146	6
C	0.577103	1.475549	0.453784	6
C	1.644653	1.891459	1.149004	6
H	-1.494037	0.623719	2.001054	1
H	-1.867377	-0.861981	1.123294	1
H	-2.085247	0.709419	0.334594	1
H	0.591623	-0.533791	1.209174	1
H	1.036503	-0.410041	-1.154906	1
H	-0.632387	-3.268170	-2.373226	1
H	-0.000417	-1.623031	-3.022076	1
H	0.071813	2.179529	-0.205246	1
H	2.181173	1.229279	1.821654	1
H	2.002793	2.912289	1.057154	1
Es	0.299306	0.782595	0.477415	99
Es	-0.317317	-2.234969	-2.159154	99
Es	-0.108077	-1.162321	-0.877742	99
Es	0.411026	-0.334522	0.998401	99
Es	-0.589512	-1.908306	-1.547534	99
Es	1.319367	1.593057	0.558779	99
Es	2.012315	1.445524	1.606089	99
Es	0.924234	1.769748	1.050059	99
Es	-0.460758	-1.978914	-0.640155	99
Es	-0.526126	-2.931742	-2.310330	99
Es	1.644730	1.891490	1.149061	99
Es	0.051793	-0.285220	-0.232237	99
Es	-0.095524	-1.820807	-2.743458	99
Es	-0.135430	-0.351047	-1.042225	99
Es	0.002454	0.082264	0.517634	99
Es	0.072194	-0.512753	-0.827481	99
Es	-0.340652	-1.801067	-0.943346	99
Es	-0.718509	0.118941	0.761790	99
Es	0.228417	1.945695	0.005662	99
Es	-1.723748	-0.535596	1.087880	99
Es	-1.871763	0.532160	0.549899	99
Es	1.892159	2.582165	1.093138	99
Es	0.577026	1.475494	0.453735	99
Es	-1.442219	0.142168	1.017830	99
Es	0.655131	-0.475246	-1.017239	99
Es	-1.467779	0.471306	1.686205	99
Es	-0.048409	-2.086199	-1.451496	99
