41
Properties=species:S:1:pos:R:3:Z:I:1 energy=-302.87068265133064 field_type=dipole dipole="0.000000 0.000000 0.000000" charge=0
C	-1.013566	0.111405	1.403333	6
C	0.333754	0.194595	0.683543	6
N	0.210004	-0.286325	-0.702887	7
N	-0.100646	-1.600215	-0.863787	7
C	-0.295616	-1.928455	-2.097558	6
C	0.815773	1.555765	0.683543	6
C	1.213054	2.677665	0.683543	6
H	-0.930596	0.489025	2.429313	1
H	-1.372496	-0.921875	1.462203	1
H	-1.780956	0.708265	0.895813	1
H	1.055224	-0.440205	1.212873	1
H	1.081874	-0.056355	-1.186607	1
H	-0.555646	-2.969035	-2.347347	1
H	-0.223987	-1.218135	-2.939757	1
H	1.563833	3.683885	0.683783	1
Es	-0.468335	-2.628376	-2.272600	99
Es	1.068789	2.094669	1.038981	99
Es	0.283946	-0.100317	-0.087850	99
Es	-0.460076	-1.682036	-1.410607	99
Es	-1.246859	-0.586807	1.439325	99
Es	1.213146	2.677901	0.683542	99
Es	0.103192	-1.807237	-1.443801	99
Es	-0.295572	-1.928478	-2.097573	99
Es	0.741010	-0.173897	-0.986845	99
Es	1.442773	3.334295	0.684510	99
Es	-0.046822	-0.131936	-0.858084	99
Es	0.705624	2.242669	0.555265	99
Es	0.829041	-0.217985	1.047106	99
Es	1.283630	2.030519	0.454667	99
Es	-1.525926	0.517521	1.054799	99
Es	0.333746	0.194678	0.683396	99
Es	0.815695	1.555510	0.683549	99
Es	-0.946122	0.368186	2.098203	99
Es	-0.328312	0.169018	1.035761	99
Es	0.585852	0.902253	0.670671	99
Es	0.083069	-0.945810	-0.779030	99
Es	-0.100580	-1.599810	-0.864247	99
Es	-1.013507	0.111414	1.403318	99
Es	-0.239974	-1.447900	-2.668218	99
Es	0.210516	-0.286788	-0.702591	99
Es	-0.138111	-1.813540	-0.560996	99
41
Properties=species:S:1:pos:R:3:Z:I:1 energy=-302.87068265133064 field_type=dipole dipole="0.000000 0.000000 0.000000" charge=0
C	-1.013566	0.111405	1.403333	6
C	0.333754	0.194595	0.683543	6
N	0.210004	-0.286325	-0.702887	7
N	-0.100646	-1.600215	-0.863787	7
C	-0.295616	-1.928455	-2.097558	6
C	0.815773	1.555765	0.683543	6
C	1.213054	2.677665	0.683543	6
H	-0.930596	0.489025	2.429313	1
H	-1.372496	-0.921875	1.462203	1
H	-1.780956	0.708265	0.895813	1
H	1.055224	-0.440205	1.212873	1
H	1.081874	-0.056355	-1.186607	1
H	-0.555646	-2.969035	-2.347347	1
H	-0.223987	-1.218135	-2.939757	1
H	1.563833	3.683885	0.683783	1
Es	0.585729	0.902169	0.670774	99
Es	1.246557	2.040352	0.414964	99
Es	-0.137249	-1.813561	-0.561168	99
Es	-0.295591	-1.928474	-2.097570	99
Es	-0.468225	-2.628409	-2.272587	99
Es	0.210531	-0.286811	-0.702587	99
Es	1.120716	2.078529	1.025206	99
Es	-0.946118	0.368156	2.098342	99
Es	-1.013507	0.111413	1.403317	99
Es	1.213144	2.677912	0.683549	99
Es	0.740714	-0.173718	-0.987114	99
Es	0.082618	-0.945906	-0.779261	99
Es	0.690756	2.249019	0.608916	99
Es	-0.460751	-1.682357	-1.410357	99
Es	0.333745	0.194679	0.683397	99
Es	-1.246933	-0.586753	1.439184	99
Es	-1.525838	0.517509	1.054863	99
Es	-0.046352	-0.132009	-0.857713	99
Es	-0.328389	0.169058	1.035686	99
Es	0.284188	-0.100188	-0.087778	99
Es	-0.239945	-1.447929	-2.668236	99
Es	0.102939	-1.806877	-1.443885	99
Es	0.829032	-0.218018	1.047118	99
Es	0.815697	1.555511	0.683548	99
Es	-0.100572	-1.599811	-0.864219	99
Es	1.442938	3.334230	0.684262	99
41
Properties=species:S:1:pos:R:3:Z:I:1 energy=-302.87068265133064 field_type=dipole dipole="0.000000 0.000000 0.000000" charge=0
C	-1.013566	0.111405	1.403333	6
C	0.333754	0.194595	0.683543	6
N	0.210004	-0.286325	-0.702887	7
N	-0.100646	-1.600215	-0.863787	7
C	-0.295616	-1.928455	-2.097558	6
C	0.815773	1.555765	0.683543	6
C	1.213054	2.677665	0.683543	6
H	-0.930596	0.489025	2.429313	1
H	-1.372496	-0.921875	1.462203	1
H	-1.780956	0.708265	0.895813	1
H	1.055224	-0.440205	1.212873	1
H	1.081874	-0.056355	-1.186607	1
H	-0.555646	-2.969035	-2.347347	1
H	-0.223987	-1.218135	-2.939757	1
H	1.563833	3.683885	0.683783	1
Es	0.701921	2.244239	0.564950	99
Es	0.585852	0.902034	0.670646	99
Es	0.333745	0.194679	0.683397	99
Es	-0.240052	-1.447918	-2.668264	99
Es	0.083063	-0.945627	-0.779024	99
Es	1.277614	2.032071	0.447347	99
Es	1.213145	2.677913	0.683550	99
Es	-0.137490	-1.813510	-0.561369	99
Es	-1.525972	0.517475	1.054848	99
Es	-0.100576	-1.599819	-0.864192	99
Es	1.442824	3.334234	0.684347	99
Es	-0.328364	0.169078	1.035743	99
Es	0.829052	-0.217909	1.047107	99
Es	-0.468496	-2.628400	-2.272495	99
Es	-0.295577	-1.928479	-2.097576	99
Es	-0.946138	0.368132	2.098266	99
Es	-1.013506	0.111415	1.403318	99
Es	0.284584	-0.100639	-0.087959	99
Es	-0.047142	-0.131585	-0.857908	99
Es	-0.460289	-1.682336	-1.410435	99
Es	0.815690	1.555513	0.683542	99
Es	0.740777	-0.173920	-0.986909	99
Es	0.210476	-0.286758	-0.702592	99
Es	0.103051	-1.807114	-1.443814	99
Es	-1.246875	-0.586651	1.439319	99
Es	1.078514	2.091598	1.036808	99
41
Properties=species:S:1:pos:R:3:Z:I:1 energy=-302.87068265133064 field_type=dipole dipole="0.000000 0.000000 0.000000" charge=0
C	-1.013566	0.111405	1.403333	6
C	0.333754	0.194595	0.683543	6
N	0.210004	-0.286325	-0.702887	7
N	-0.100646	-1.600215	-0.863787	7
C	-0.295616	-1.928455	-2.097558	6
C	0.815773	1.555765	0.683543	6
C	1.213054	2.677665	0.683543	6
H	-0.930596	0.489025	2.429313	1
H	-1.372496	-0.921875	1.462203	1
H	-1.780956	0.708265	0.895813	1
H	1.055224	-0.440205	1.212873	1
H	1.081874	-0.056355	-1.186607	1
H	-0.555646	-2.969035	-2.347347	1
H	-0.223987	-1.218135	-2.939757	1
H	1.563833	3.683885	0.683783	1
Es	0.082715	-0.945589	-0.778928	99
Es	-0.468314	-2.628452	-2.272553	99
Es	0.102953	-1.807069	-1.443822	99
Es	1.287043	2.029622	0.458941	99
Es	-0.460449	-1.682489	-1.410352	99
Es	0.210517	-0.286812	-0.702594	99
Es	1.064244	2.096160	1.039346	99
Es	-0.100571	-1.599804	-0.864260	99
Es	1.442820	3.334214	0.684371	99
Es	-1.246930	-0.586675	1.439229	99
Es	0.333746	0.194678	0.683398	99
Es	-1.525902	0.517501	1.054901	99
Es	-0.240032	-1.447883	-2.668233	99
Es	-1.013508	0.111414	1.403318	99
Es	-0.295575	-1.928478	-2.097573	99
Es	1.213144	2.677911	0.683548	99
Es	0.829088	-0.217870	1.047064	99
Es	0.740786	-0.173677	-0.987159	99
Es	-0.046238	-0.132304	-0.857731	99
Es	0.706754	2.242124	0.550795	99
Es	0.283931	-0.100024	-0.087843	99
Es	0.585881	0.901946	0.670657	99
Es	-0.328408	0.169155	1.035830	99
Es	-0.946151	0.368098	2.098303	99
Es	0.815689	1.555516	0.683548	99
Es	-0.137399	-1.813499	-0.561549	99
41
Properties=species:S:1:pos:R:3:Z:I:1 energy=-302.87068265133064 field_type=dipole dipole="0.000000 0.000000 0.000000" charge=0
C	-1.013566	0.111405	1.403333	6
C	0.333754	0.194595	0.683543	6
N	0.210004	-0.286325	-0.702887	7
N	-0.100646	-1.600215	-0.863787	7
C	-0.295616	-1.928455	-2.097558	6
C	0.815773	1.555765	0.683543	6
C	1.213054	2.677665	0.683543	6
H	-0.930596	0.489025	2.429313	1
H	-1.372496	-0.921875	1.462203	1
H	-1.780956	0.708265	0.895813	1
H	1.055224	-0.440205	1.212873	1
H	1.081874	-0.056355	-1.186607	1
H	-0.555646	-2.969035	-2.347347	1
H	-0.223987	-1.218135	-2.939757	1
H	1.563833	3.683885	0.683783	1
Es	0.740888	-0.174192	-0.986645	99
Es	0.829128	-0.217824	1.047059	99
Es	1.442807	3.334181	0.684370	99
Es	-1.525905	0.517485	1.054922	99
Es	-1.246942	-0.586651	1.439239	99
Es	1.288802	2.029177	0.461146	99
Es	0.082638	-0.945521	-0.778798	99
Es	-0.946168	0.368093	2.098296	99
Es	0.815689	1.555516	0.683548	99
Es	1.061552	2.097035	1.039800	99
Es	-0.328439	0.169197	1.035859	99
Es	1.213144	2.677911	0.683548	99
Es	0.585876	0.901849	0.670625	99
Es	-1.013508	0.111414	1.403318	99
Es	-0.295575	-1.928478	-2.097573	99
Es	-0.240058	-1.447862	-2.668221	99
Es	0.210352	-0.286673	-0.702653	99
Es	-0.460384	-1.682520	-1.410341	99
Es	-0.137457	-1.813458	-0.561771	99
Es	0.283831	-0.099908	-0.087836	99
Es	-0.045942	-0.132013	-0.858202	99
Es	-0.100571	-1.599804	-0.864258	99
Es	-0.468339	-2.628468	-2.272555	99
Es	0.707704	2.241716	0.548159	99
Es	0.333746	0.194678	0.683399	99
Es	0.102964	-1.807165	-1.443783	99
41
Properties=species:S:1:pos:R:3:Z:I:1 energy=-302.87068265133064 field_type=dipole dipole="0.000000 0.000000 0.000000" charge=0
C	-1.013566	0.111405	1.403333	6
C	0.333754	0.194595	0.683543	6
N	0.210004	-0.286325	-0.702887	7
N	-0.100646	-1.600215	-0.863787	7
C	-0.295616	-1.928455	-2.097558	6
C	0.815773	1.555765	0.683543	6
C	1.213054	2.677665	0.683543	6
H	-0.930596	0.489025	2.429313	1
H	-1.372496	-0.921875	1.462203	1
H	-1.780956	0.708265	0.895813	1
H	1.055224	-0.440205	1.212873	1
H	1.081874	-0.056355	-1.186607	1
H	-0.555646	-2.969035	-2.347347	1
H	-0.223987	-1.218135	-2.939757	1
H	1.563833	3.683885	0.683783	1
Es	-0.100573	-1.599817	-0.864259	99
Es	-0.468350	-2.628492	-2.272554	99
Es	-0.946182	0.368086	2.098293	99
Es	0.102899	-1.807184	-1.443765	99
Es	-1.525911	0.517475	1.054939	99
Es	-0.460338	-1.682569	-1.410338	99
Es	-0.328417	0.169211	1.035883	99
Es	-1.246947	-0.586631	1.439244	99
Es	0.960403	2.135036	0.332162	99
Es	0.283805	-0.099748	-0.087710	99
Es	-0.295575	-1.928478	-2.097573	99
Es	1.213140	2.677912	0.683546	99
Es	-0.045433	-0.132842	-0.857266	99
Es	-0.137444	-1.813445	-0.561962	99
Es	-0.240069	-1.447844	-2.668213	99
Es	0.333746	0.194678	0.683399	99
Es	0.082593	-0.945504	-0.778753	99
Es	1.337635	2.019747	0.805986	99
Es	0.586222	0.901475	0.671247	99
Es	0.210301	-0.286751	-0.702772	99
Es	1.442393	3.334344	0.683824	99
Es	0.829119	-0.217757	1.047026	99
Es	0.760065	2.213316	0.910809	99
Es	-1.013508	0.111414	1.403318	99
Es	0.815690	1.555515	0.683550	99
Es	0.740569	-0.173430	-0.987409	99
41
Properties=species:S:1:pos:R:3:Z:I:1 energy=-302.87068265133064 field_type=dipole dipole="0.000000 0.000000 0.000000" charge=0
C	-1.013566	0.111405	1.403333	6
C	0.333754	0.194595	0.683543	6
N	0.210004	-0.286325	-0.702887	7
N	-0.100646	-1.600215	-0.863787	7
C	-0.295616	-1.928455	-2.097558	6
C	0.815773	1.555765	0.683543	6
C	1.213054	2.677665	0.683543	6
H	-0.930596	0.489025	2.429313	1
H	-1.372496	-0.921875	1.462203	1
H	-1.780956	0.708265	0.895813	1
H	1.055224	-0.440205	1.212873	1
H	1.081874	-0.056355	-1.186607	1
H	-0.555646	-2.969035	-2.347347	1
H	-0.223987	-1.218135	-2.939757	1
H	1.563833	3.683885	0.683783	1
Es	0.586278	0.901327	0.671180	99
Es	0.333746	0.194677	0.683401	99
Es	-1.246951	-0.586614	1.439249	99
Es	-0.137451	-1.813376	-0.562246	99
Es	0.102934	-1.807307	-1.443724	99
Es	-0.045830	-0.132603	-0.857644	99
Es	0.959645	2.135338	0.332026	99
Es	-1.013508	0.111414	1.403319	99
Es	1.213141	2.677911	0.683546	99
Es	0.740601	-0.173604	-0.987268	99
Es	0.283908	-0.099775	-0.087725	99
Es	1.442391	3.334299	0.683781	99
Es	0.760619	2.213114	0.911074	99
Es	1.337797	2.019703	0.805936	99
Es	-0.468365	-2.628491	-2.272548	99
Es	-0.460368	-1.682635	-1.410306	99
Es	0.829156	-0.217675	1.047006	99
Es	-0.328484	0.169264	1.035952	99
Es	-1.525918	0.517463	1.054947	99
Es	-0.100569	-1.599800	-0.864262	99
Es	0.082727	-0.945441	-0.778505	99
Es	0.210492	-0.286772	-0.702596	99
Es	0.815691	1.555517	0.683551	99
Es	-0.240089	-1.447828	-2.668216	99
Es	-0.295575	-1.928478	-2.097573	99
Es	-0.946184	0.368085	2.098296	99
