46
Properties=species:S:1:pos:R:3:Z:I:1 energy=-272.09979828977674 field_type=dipole dipole="0.000000 0.000000 0.000000" charge=0
C	-2.013058	-1.023823	0.488204	6
C	-1.023848	-1.307433	-0.630446	6
C	0.319692	-0.711793	-0.338456	6
C	1.179042	-0.201453	-1.463816	6
C	0.552202	0.772557	-0.498556	6
C	1.404952	1.449907	0.480654	6
C	1.006782	1.890167	1.682574	6
H	-2.969528	-1.514853	0.285014	1
H	-2.195788	0.051477	0.584774	1
H	-1.636448	-1.386853	1.449914	1
H	-1.427938	-0.923423	-1.574466	1
H	-0.910798	-2.391333	-0.748066	1
H	0.819132	-1.227743	0.475554	1
H	0.786282	-0.226543	-2.474456	1
H	2.245692	-0.388373	-1.407886	1
H	-0.265018	1.378537	-0.879196	1
H	2.443792	1.612327	0.199734	1
H	-0.016998	1.762408	2.016874	1
H	1.701862	2.386237	2.352044	1
Es	0.983048	1.108360	-0.011123	99
Es	1.404978	1.449865	0.480551	99
Es	2.112091	1.553186	0.282682	99
Es	-1.518668	-1.163789	-0.065093	99
Es	1.282288	1.388333	1.226868	99
Es	1.472332	2.228158	2.142064	99
Es	-2.136026	-0.288311	0.551583	99
Es	0.319752	-0.711656	-0.338562	99
Es	-1.023850	-1.307415	-0.630412	99
Es	0.950119	0.428421	-1.074121	99
Es	0.905645	-0.221530	-2.148533	99
Es	0.552261	0.772405	-0.498598	99
Es	0.783949	-0.633213	-0.970509	99
Es	1.178952	-0.201400	-1.463684	99
Es	-0.350732	-0.993258	-0.493601	99
Es	0.328132	0.083282	-0.257831	99
Es	-0.943980	-2.049564	-0.708574	99
Es	-2.667066	-1.360307	0.348673	99
Es	-1.298175	-1.036818	-1.278038	99
Es	-0.002575	1.177268	-0.751864	99
Es	1.124687	1.962166	0.961229	99
Es	1.905872	-0.319483	-1.419505	99
Es	0.311438	1.806924	1.915813	99
Es	-1.751975	-1.274143	1.143638	99
Es	0.664669	-1.052838	0.216905	99
Es	-2.013047	-1.023830	0.488188	99
Es	1.006745	1.890209	1.682671	99
46
Properties=species:S:1:pos:R:3:Z:I:1 energy=-272.09979828977674 field_type=dipole dipole="0.000000 0.000000 0.000000" charge=0
C	-2.013058	-1.023823	0.488204	6
C	-1.023848	-1.307433	-0.630446	6
C	0.319692	-0.711793	-0.338456	6
C	1.179042	-0.201453	-1.463816	6
C	0.552202	0.772557	-0.498556	6
C	1.404952	1.449907	0.480654	6
C	1.006782	1.890167	1.682574	6
H	-2.969528	-1.514853	0.285014	1
H	-2.195788	0.051477	0.584774	1
H	-1.636448	-1.386853	1.449914	1
H	-1.427938	-0.923423	-1.574466	1
H	-0.910798	-2.391333	-0.748066	1
H	0.819132	-1.227743	0.475554	1
H	0.786282	-0.226543	-2.474456	1
H	2.245692	-0.388373	-1.407886	1
H	-0.265018	1.378537	-0.879196	1
H	2.443792	1.612327	0.199734	1
H	-0.016998	1.762408	2.016874	1
H	1.701862	2.386237	2.352044	1
Es	0.982998	1.108398	-0.011282	99
Es	1.178941	-0.201409	-1.463672	99
Es	0.664608	-1.052752	0.216816	99
Es	-1.023851	-1.307417	-0.630414	99
Es	0.319752	-0.711657	-0.338561	99
Es	0.552264	0.772407	-0.498600	99
Es	-0.350749	-0.993152	-0.493597	99
Es	-2.013047	-1.023829	0.488190	99
Es	-0.943822	-2.049562	-0.708548	99
Es	1.472386	2.228239	2.141936	99
Es	-1.298254	-1.036933	-1.278010	99
Es	0.905765	-0.221491	-2.148372	99
Es	1.282154	1.388477	1.226776	99
Es	1.404976	1.449870	0.480549	99
Es	0.328050	0.083551	-0.257721	99
Es	2.112252	1.553201	0.282841	99
Es	-2.667081	-1.360219	0.348740	99
Es	1.124583	1.961970	0.961251	99
Es	1.006746	1.890206	1.682664	99
Es	-1.752052	-1.274097	1.143664	99
Es	1.905679	-0.319409	-1.419682	99
Es	0.784052	-0.633840	-0.970635	99
Es	0.311449	1.806851	1.915955	99
Es	0.950157	0.428649	-1.074162	99
Es	-1.518578	-1.163852	-0.065171	99
Es	-2.136033	-0.288420	0.551618	99
Es	-0.002484	1.177243	-0.751757	99
46
Properties=species:S:1:pos:R:3:Z:I:1 energy=-272.09979828977674 field_type=dipole dipole="0.000000 0.000000 0.000000" charge=0
C	-2.013058	-1.023823	0.488204	6
C	-1.023848	-1.307433	-0.630446	6
C	0.319692	-0.711793	-0.338456	6
C	1.179042	-0.201453	-1.463816	6
C	0.552202	0.772557	-0.498556	6
C	1.404952	1.449907	0.480654	6
C	1.006782	1.890167	1.682574	6
H	-2.969528	-1.514853	0.285014	1
H	-2.195788	0.051477	0.584774	1
H	-1.636448	-1.386853	1.449914	1
H	-1.427938	-0.923423	-1.574466	1
H	-0.910798	-2.391333	-0.748066	1
H	0.819132	-1.227743	0.475554	1
H	0.786282	-0.226543	-2.474456	1
H	2.245692	-0.388373	-1.407886	1
H	-0.265018	1.378537	-0.879196	1
H	2.443792	1.612327	0.199734	1
H	-0.016998	1.762408	2.016874	1
H	1.701862	2.386237	2.352044	1
Es	-2.013048	-1.023829	0.488191	99
Es	-1.023850	-1.307414	-0.630413	99
Es	-2.136036	-0.288396	0.551627	99
Es	1.124629	1.962009	0.961224	99
Es	-0.350656	-0.993332	-0.493616	99
Es	-2.667090	-1.360259	0.348767	99
Es	-1.518667	-1.163770	-0.065160	99
Es	1.178947	-0.201430	-1.463684	99
Es	1.472372	2.228160	2.142009	99
Es	0.784137	-0.633759	-0.970719	99
Es	0.664510	-1.052749	0.216819	99
Es	0.327912	0.083514	-0.257600	99
Es	0.950198	0.428847	-1.074316	99
Es	0.982912	1.108402	-0.011364	99
Es	0.311422	1.806818	1.915908	99
Es	1.404977	1.449866	0.480549	99
Es	-0.943932	-2.049564	-0.708603	99
Es	0.552261	0.772407	-0.498598	99
Es	0.319753	-0.711652	-0.338563	99
Es	1.282157	1.388527	1.226797	99
Es	1.006745	1.890207	1.682663	99
Es	-1.298086	-1.036870	-1.278011	99
Es	2.112212	1.553226	0.282897	99
Es	-0.002403	1.177175	-0.751646	99
Es	-1.752039	-1.274070	1.143618	99
Es	0.905858	-0.221566	-2.148369	99
Es	1.905665	-0.319478	-1.419592	99
46
Properties=species:S:1:pos:R:3:Z:I:1 energy=-272.09979828977674 field_type=dipole dipole="0.000000 0.000000 0.000000" charge=0
C	-2.013058	-1.023823	0.488204	6
C	-1.023848	-1.307433	-0.630446	6
C	0.319692	-0.711793	-0.338456	6
C	1.179042	-0.201453	-1.463816	6
C	0.552202	0.772557	-0.498556	6
C	1.404952	1.449907	0.480654	6
C	1.006782	1.890167	1.682574	6
H	-2.969528	-1.514853	0.285014	1
H	-2.195788	0.051477	0.584774	1
H	-1.636448	-1.386853	1.449914	1
H	-1.427938	-0.923423	-1.574466	1
H	-0.910798	-2.391333	-0.748066	1
H	0.819132	-1.227743	0.475554	1
H	0.786282	-0.226543	-2.474456	1
H	2.245692	-0.388373	-1.407886	1
H	-0.265018	1.378537	-0.879196	1
H	2.443792	1.612327	0.199734	1
H	-0.016998	1.762408	2.016874	1
H	1.701862	2.386237	2.352044	1
Es	-2.136045	-0.288431	0.551656	99
Es	1.124632	1.961810	0.961251	99
Es	0.905919	-0.221538	-2.148303	99
Es	0.552261	0.772403	-0.498599	99
Es	-1.752109	-1.274082	1.143635	99
Es	0.664458	-1.052710	0.216749	99
Es	-1.298061	-1.036883	-1.277993	99
Es	-2.667071	-1.360200	0.348770	99
Es	-0.002278	1.177179	-0.751657	99
Es	-0.943908	-2.049534	-0.708644	99
Es	-1.518658	-1.163809	-0.065190	99
Es	1.905558	-0.319353	-1.419689	99
Es	0.311408	1.806866	1.915888	99
Es	1.282232	1.388566	1.226839	99
Es	1.472340	2.228268	2.141956	99
Es	-0.350602	-0.993325	-0.493531	99
Es	0.950231	0.428896	-1.074334	99
Es	-1.023851	-1.307415	-0.630414	99
Es	2.112267	1.553258	0.282840	99
Es	0.982769	1.108401	-0.011386	99
Es	1.404977	1.449867	0.480552	99
Es	-2.013048	-1.023828	0.488192	99
Es	1.006746	1.890205	1.682664	99
Es	0.319750	-0.711653	-0.338559	99
Es	1.178951	-0.201400	-1.463684	99
Es	0.327766	0.083577	-0.257395	99
Es	0.784224	-0.634112	-0.970798	99
46
Properties=species:S:1:pos:R:3:Z:I:1 energy=-272.09979828977674 field_type=dipole dipole="0.000000 0.000000 0.000000" charge=0
C	-2.013058	-1.023823	0.488204	6
C	-1.023848	-1.307433	-0.630446	6
C	0.319692	-0.711793	-0.338456	6
C	1.179042	-0.201453	-1.463816	6
C	0.552202	0.772557	-0.498556	6
C	1.404952	1.449907	0.480654	6
C	1.006782	1.890167	1.682574	6
H	-2.969528	-1.514853	0.285014	1
H	-2.195788	0.051477	0.584774	1
H	-1.636448	-1.386853	1.449914	1
H	-1.427938	-0.923423	-1.574466	1
H	-0.910798	-2.391333	-0.748066	1
H	0.819132	-1.227743	0.475554	1
H	0.786282	-0.226543	-2.474456	1
H	2.245692	-0.388373	-1.407886	1
H	-0.265018	1.378537	-0.879196	1
H	2.443792	1.612327	0.199734	1
H	-0.016998	1.762408	2.016874	1
H	1.701862	2.386237	2.352044	1
Es	-0.943904	-2.049513	-0.708668	99
Es	-1.752130	-1.274056	1.143623	99
Es	0.552263	0.772400	-0.498602	99
Es	1.006746	1.890206	1.682661	99
Es	0.950362	0.429152	-1.074544	99
Es	0.905995	-0.221558	-2.148228	99
Es	-0.002209	1.177166	-0.751548	99
Es	1.124659	1.961805	0.961286	99
Es	-0.350553	-0.993361	-0.493533	99
Es	-1.023850	-1.307415	-0.630414	99
Es	-2.136073	-0.288458	0.551678	99
Es	2.112302	1.553237	0.282868	99
Es	0.664398	-1.052683	0.216678	99
Es	1.178945	-0.201410	-1.463676	99
Es	0.982679	1.108344	-0.011433	99
Es	1.404977	1.449868	0.480551	99
Es	1.282184	1.388644	1.226769	99
Es	1.905459	-0.319351	-1.419748	99
Es	-1.298043	-1.036904	-1.277973	99
Es	0.327662	0.083532	-0.257235	99
Es	1.472357	2.228249	2.141964	99
Es	-2.013048	-1.023828	0.488191	99
Es	0.311402	1.806868	1.915888	99
Es	0.319753	-0.711653	-0.338562	99
Es	-1.518649	-1.163802	-0.065198	99
Es	-2.667061	-1.360195	0.348808	99
Es	0.784238	-0.634259	-0.970788	99
46
Properties=species:S:1:pos:R:3:Z:I:1 energy=-272.09979828977674 field_type=dipole dipole="0.000000 0.000000 0.000000" charge=0
C	-2.013058	-1.023823	0.488204	6
C	-1.023848	-1.307433	-0.630446	6
C	0.319692	-0.711793	-0.338456	6
C	1.179042	-0.201453	-1.463816	6
C	0.552202	0.772557	-0.498556	6
C	1.404952	1.449907	0.480654	6
C	1.006782	1.890167	1.682574	6
H	-2.969528	-1.514853	0.285014	1
H	-2.195788	0.051477	0.584774	1
H	-1.636448	-1.386853	1.449914	1
H	-1.427938	-0.923423	-1.574466	1
H	-0.910798	-2.391333	-0.748066	1
H	0.819132	-1.227743	0.475554	1
H	0.786282	-0.226543	-2.474456	1
H	2.245692	-0.388373	-1.407886	1
H	-0.265018	1.378537	-0.879196	1
H	2.443792	1.612327	0.199734	1
H	-0.016998	1.762408	2.016874	1
H	1.701862	2.386237	2.352044	1
Es	0.950279	0.428997	-1.074493	99
Es	-1.023851	-1.307415	-0.630414	99
Es	1.178942	-0.201427	-1.463676	99
Es	-2.013049	-1.023828	0.488191	99
Es	-1.518634	-1.163780	-0.065197	99
Es	1.282177	1.388640	1.226725	99
Es	1.905438	-0.319410	-1.419771	99
Es	2.112319	1.553215	0.282935	99
Es	0.552261	0.772401	-0.498599	99
Es	0.906038	-0.221586	-2.148153	99
Es	-0.002077	1.177143	-0.751563	99
Es	-2.136164	-0.288513	0.551705	99
Es	-1.298043	-1.036890	-1.277954	99
Es	0.784336	-0.634540	-0.970960	99
Es	0.664319	-1.052630	0.216657	99
Es	0.319754	-0.711654	-0.338563	99
Es	-0.943894	-2.049466	-0.708731	99
Es	0.327570	0.083948	-0.257037	99
Es	0.311361	1.806879	1.915875	99
Es	1.472309	2.228247	2.141944	99
Es	0.982640	1.108438	-0.011633	99
Es	-0.350523	-0.993385	-0.493523	99
Es	-2.666962	-1.360135	0.348787	99
Es	-1.752170	-1.274108	1.143694	99
Es	1.404977	1.449867	0.480555	99
Es	1.006745	1.890210	1.682662	99
Es	1.124763	1.961804	0.961352	99
46
Properties=species:S:1:pos:R:3:Z:I:1 energy=-272.09979828977674 field_type=dipole dipole="0.000000 0.000000 0.000000" charge=0
C	-2.013058	-1.023823	0.488204	6
C	-1.023848	-1.307433	-0.630446	6
C	0.319692	-0.711793	-0.338456	6
C	1.179042	-0.201453	-1.463816	6
C	0.552202	0.772557	-0.498556	6
C	1.404952	1.449907	0.480654	6
C	1.006782	1.890167	1.682574	6
H	-2.969528	-1.514853	0.285014	1
H	-2.195788	0.051477	0.584774	1
H	-1.636448	-1.386853	1.449914	1
H	-1.427938	-0.923423	-1.574466	1
H	-0.910798	-2.391333	-0.748066	1
H	0.819132	-1.227743	0.475554	1
H	0.786282	-0.226543	-2.474456	1
H	2.245692	-0.388373	-1.407886	1
H	-0.265018	1.378537	-0.879196	1
H	2.443792	1.612327	0.199734	1
H	-0.016998	1.762408	2.016874	1
H	1.701862	2.386237	2.352044	1
Es	0.319749	-0.711661	-0.338557	99
Es	0.784287	-0.634612	-0.970808	99
Es	-2.013048	-1.023829	0.488192	99
Es	-1.518655	-1.163811	-0.065215	99
Es	0.906143	-0.221601	-2.148073	99
Es	1.905271	-0.319334	-1.419856	99
Es	-0.350459	-0.993436	-0.493496	99
Es	1.404979	1.449868	0.480550	99
Es	-2.136103	-0.288508	0.551714	99
Es	-0.002036	1.177124	-0.751415	99
Es	0.950577	0.429506	-1.074869	99
Es	2.112365	1.553216	0.282930	99
Es	0.327446	0.083569	-0.256905	99
Es	-0.943895	-2.049460	-0.708722	99
Es	1.006748	1.890200	1.682662	99
Es	0.982475	1.108284	-0.011570	99
Es	1.178945	-0.201406	-1.463675	99
Es	-2.667047	-1.360155	0.348864	99
Es	1.472370	2.228222	2.141975	99
Es	1.124714	1.961784	0.961357	99
Es	-1.023850	-1.307414	-0.630414	99
Es	-1.297983	-1.036936	-1.277949	99
Es	0.311389	1.806826	1.915896	99
Es	0.664284	-1.052614	0.216556	99
Es	0.552263	0.772395	-0.498602	99
Es	-1.752190	-1.274023	1.143613	99
Es	1.282119	1.388827	1.226632	99
46
Properties=species:S:1:pos:R:3:Z:I:1 energy=-272.09979828977674 field_type=dipole dipole="0.000000 0.000000 0.000000" charge=0
C	-2.013058	-1.023823	0.488204	6
C	-1.023848	-1.307433	-0.630446	6
C	0.319692	-0.711793	-0.338456	6
C	1.179042	-0.201453	-1.463816	6
C	0.552202	0.772557	-0.498556	6
C	1.404952	1.449907	0.480654	6
C	1.006782	1.890167	1.682574	6
H	-2.969528	-1.514853	0.285014	1
H	-2.195788	0.051477	0.584774	1
H	-1.636448	-1.386853	1.449914	1
H	-1.427938	-0.923423	-1.574466	1
H	-0.910798	-2.391333	-0.748066	1
H	0.819132	-1.227743	0.475554	1
H	0.786282	-0.226543	-2.474456	1
H	2.245692	-0.388373	-1.407886	1
H	-0.265018	1.378537	-0.879196	1
H	2.443792	1.612327	0.199734	1
H	-0.016998	1.762408	2.016874	1
H	1.701862	2.386237	2.352044	1
Es	0.982384	1.108256	-0.011649	99
Es	-2.667086	-1.360067	0.348845	99
Es	-0.943869	-2.049446	-0.708742	99
Es	1.404977	1.449864	0.480556	99
Es	-1.023850	-1.307415	-0.630414	99
Es	0.319754	-0.711653	-0.338563	99
Es	-0.350437	-0.993455	-0.493489	99
Es	1.006747	1.890204	1.682662	99
Es	0.664220	-1.052561	0.216506	99
Es	1.178943	-0.201410	-1.463675	99
Es	-1.518615	-1.163858	-0.065191	99
Es	0.906215	-0.221633	-2.148008	99
Es	1.905193	-0.319276	-1.419901	99
Es	0.327327	0.083625	-0.256758	99
Es	0.950615	0.429647	-1.074966	99
Es	-2.136026	-0.288523	0.551762	99
Es	-2.013051	-1.023830	0.488191	99
Es	-1.752286	-1.274050	1.143596	99
Es	-0.001934	1.177126	-0.751367	99
Es	0.552262	0.772389	-0.498601	99
Es	0.311381	1.806825	1.915892	99
Es	1.282117	1.388880	1.226609	99
Es	2.112393	1.553247	0.282950	99
Es	1.472373	2.228242	2.141969	99
Es	-1.297978	-1.036954	-1.277932	99
Es	0.784364	-0.634850	-0.970843	99
Es	1.124726	1.961699	0.961376	99
46
Properties=species:S:1:pos:R:3:Z:I:1 energy=-272.09979828977674 field_type=dipole dipole="0.000000 0.000000 0.000000" charge=0
C	-2.013058	-1.023823	0.488204	6
C	-1.023848	-1.307433	-0.630446	6
C	0.319692	-0.711793	-0.338456	6
C	1.179042	-0.201453	-1.463816	6
C	0.552202	0.772557	-0.498556	6
C	1.404952	1.449907	0.480654	6
C	1.006782	1.890167	1.682574	6
H	-2.969528	-1.514853	0.285014	1
H	-2.195788	0.051477	0.584774	1
H	-1.636448	-1.386853	1.449914	1
H	-1.427938	-0.923423	-1.574466	1
H	-0.910798	-2.391333	-0.748066	1
H	0.819132	-1.227743	0.475554	1
H	0.786282	-0.226543	-2.474456	1
H	2.245692	-0.388373	-1.407886	1
H	-0.265018	1.378537	-0.879196	1
H	2.443792	1.612327	0.199734	1
H	-0.016998	1.762408	2.016874	1
H	1.701862	2.386237	2.352044	1
Es	0.784233	-0.635310	-0.970770	99
Es	-1.518653	-1.163908	-0.065193	99
Es	0.982164	1.108076	-0.011437	99
Es	0.552262	0.772398	-0.498601	99
Es	-0.001937	1.177031	-0.751108	99
Es	-1.297919	-1.036941	-1.277971	99
Es	-1.023847	-1.307413	-0.630414	99
Es	2.112439	1.553284	0.282947	99
Es	-2.013048	-1.023828	0.488190	99
Es	-0.943851	-2.049415	-0.708749	99
Es	1.905103	-0.319288	-1.419926	99
Es	1.282122	1.389008	1.226566	99
Es	0.664132	-1.052491	0.216470	99
Es	1.404976	1.449868	0.480553	99
Es	0.319755	-0.711648	-0.338564	99
Es	-1.752217	-1.273832	1.143625	99
Es	0.311393	1.806777	1.915870	99
Es	-2.667036	-1.360249	0.348951	99
Es	1.124675	1.961587	0.961394	99
Es	1.006746	1.890204	1.682663	99
Es	0.906331	-0.221650	-2.147910	99
Es	1.472383	2.228304	2.141988	99
Es	-0.350406	-0.993455	-0.493314	99
Es	1.178941	-0.201410	-1.463671	99
Es	0.327550	0.083151	-0.257242	99
Es	0.950741	0.430707	-1.075142	99
Es	-2.136173	-0.288535	0.551608	99
46
Properties=species:S:1:pos:R:3:Z:I:1 energy=-272.09979828977674 field_type=dipole dipole="0.000000 0.000000 0.000000" charge=0
C	-2.013058	-1.023823	0.488204	6
C	-1.023848	-1.307433	-0.630446	6
C	0.319692	-0.711793	-0.338456	6
C	1.179042	-0.201453	-1.463816	6
C	0.552202	0.772557	-0.498556	6
C	1.404952	1.449907	0.480654	6
C	1.006782	1.890167	1.682574	6
H	-2.969528	-1.514853	0.285014	1
H	-2.195788	0.051477	0.584774	1
H	-1.636448	-1.386853	1.449914	1
H	-1.427938	-0.923423	-1.574466	1
H	-0.910798	-2.391333	-0.748066	1
H	0.819132	-1.227743	0.475554	1
H	0.786282	-0.226543	-2.474456	1
H	2.245692	-0.388373	-1.407886	1
H	-0.265018	1.378537	-0.879196	1
H	2.443792	1.612327	0.199734	1
H	-0.016998	1.762408	2.016874	1
H	1.701862	2.386237	2.352044	1
Es	1.472349	2.228272	2.141935	99
Es	0.319756	-0.711652	-0.338565	99
Es	0.784606	-0.635315	-0.971025	99
Es	0.311343	1.806825	1.915892	99
Es	-1.752369	-1.274021	1.143589	99
Es	-0.943871	-2.049320	-0.708768	99
Es	1.282116	1.388991	1.226571	99
Es	2.112445	1.553211	0.283011	99
Es	0.950698	0.430006	-1.075055	99
Es	-2.667066	-1.360071	0.348832	99
Es	1.178939	-0.201409	-1.463668	99
Es	0.982180	1.108234	-0.011784	99
Es	-0.001813	1.177075	-0.751210	99
Es	0.906376	-0.221580	-2.147892	99
Es	-2.013048	-1.023829	0.488191	99
Es	-1.518608	-1.163822	-0.065169	99
Es	0.552260	0.772396	-0.498598	99
Es	-0.350301	-0.993649	-0.493451	99
Es	1.006746	1.890206	1.682659	99
Es	1.904979	-0.319222	-1.419994	99
Es	-2.136087	-0.288590	0.551823	99
Es	-1.297900	-1.037009	-1.277966	99
Es	0.664075	-1.052413	0.216391	99
Es	-1.023849	-1.307418	-0.630414	99
Es	1.124804	1.961600	0.961427	99
Es	0.327124	0.083655	-0.256504	99
Es	1.404976	1.449871	0.480559	99
46
Properties=species:S:1:pos:R:3:Z:I:1 energy=-272.09979828977674 field_type=dipole dipole="0.000000 0.000000 0.000000" charge=0
C	-2.013058	-1.023823	0.488204	6
C	-1.023848	-1.307433	-0.630446	6
C	0.319692	-0.711793	-0.338456	6
C	1.179042	-0.201453	-1.463816	6
C	0.552202	0.772557	-0.498556	6
C	1.404952	1.449907	0.480654	6
C	1.006782	1.890167	1.682574	6
H	-2.969528	-1.514853	0.285014	1
H	-2.195788	0.051477	0.584774	1
H	-1.636448	-1.386853	1.449914	1
H	-1.427938	-0.923423	-1.574466	1
H	-0.910798	-2.391333	-0.748066	1
H	0.819132	-1.227743	0.475554	1
H	0.786282	-0.226543	-2.474456	1
H	2.245692	-0.388373	-1.407886	1
H	-0.265018	1.378537	-0.879196	1
H	2.443792	1.612327	0.199734	1
H	-0.016998	1.762408	2.016874	1
H	1.701862	2.386237	2.352044	1
Es	-1.752278	-1.273953	1.143568	99
Es	-2.013048	-1.023829	0.488191	99
Es	0.327077	0.083727	-0.256389	99
Es	0.664047	-1.052433	0.216363	99
Es	-0.350308	-0.993584	-0.493429	99
Es	-0.001709	1.177074	-0.751159	99
Es	-1.518697	-1.163783	-0.065260	99
Es	0.982158	1.108140	-0.011802	99
Es	1.178944	-0.201410	-1.463675	99
Es	-2.667102	-1.360077	0.348965	99
Es	1.124709	1.961680	0.961398	99
Es	0.552261	0.772399	-0.498599	99
Es	0.906385	-0.221670	-2.147821	99
Es	1.281940	1.389250	1.226387	99
Es	1.404976	1.449868	0.480551	99
Es	-1.023851	-1.307414	-0.630411	99
Es	-1.297830	-1.036977	-1.277845	99
Es	0.311450	1.806710	1.915880	99
Es	0.950784	0.430072	-1.075290	99
Es	0.319761	-0.711644	-0.338571	99
Es	1.472497	2.228217	2.142068	99
Es	-0.943902	-2.049421	-0.708857	99
Es	0.784524	-0.635426	-0.970910	99
Es	2.112474	1.553126	0.283038	99
Es	1.904941	-0.319219	-1.420048	99
Es	-2.136083	-0.288627	0.551797	99
Es	1.006738	1.890224	1.682676	99
46
Properties=species:S:1:pos:R:3:Z:I:1 energy=-272.09979828977674 field_type=dipole dipole="0.000000 0.000000 0.000000" charge=0
C	-2.013058	-1.023823	0.488204	6
C	-1.023848	-1.307433	-0.630446	6
C	0.319692	-0.711793	-0.338456	6
C	1.179042	-0.201453	-1.463816	6
C	0.552202	0.772557	-0.498556	6
C	1.404952	1.449907	0.480654	6
C	1.006782	1.890167	1.682574	6
H	-2.969528	-1.514853	0.285014	1
H	-2.195788	0.051477	0.584774	1
H	-1.636448	-1.386853	1.449914	1
H	-1.427938	-0.923423	-1.574466	1
H	-0.910798	-2.391333	-0.748066	1
H	0.819132	-1.227743	0.475554	1
H	0.786282	-0.226543	-2.474456	1
H	2.245692	-0.388373	-1.407886	1
H	-0.265018	1.378537	-0.879196	1
H	2.443792	1.612327	0.199734	1
H	-0.016998	1.762408	2.016874	1
H	1.701862	2.386237	2.352044	1
Es	1.124844	1.961436	0.961503	99
Es	0.319759	-0.711654	-0.338571	99
Es	-1.297854	-1.037034	-1.277936	99
Es	1.404975	1.449868	0.480552	99
Es	0.906519	-0.221539	-2.147712	99
Es	-0.943848	-2.049287	-0.708813	99
Es	-2.667025	-1.360068	0.349020	99
Es	-0.001533	1.176946	-0.751220	99
Es	1.472434	2.228267	2.141883	99
Es	0.784569	-0.635710	-0.971215	99
Es	0.311316	1.806885	1.915933	99
Es	0.981971	1.108336	-0.011910	99
Es	-2.136164	-0.288632	0.551822	99
Es	0.552260	0.772392	-0.498599	99
Es	0.950813	0.430159	-1.075187	99
Es	-2.013051	-1.023828	0.488193	99
Es	1.006746	1.890204	1.682661	99
Es	1.904852	-0.319242	-1.420093	99
Es	-0.350236	-0.993587	-0.493347	99
Es	2.112474	1.553256	0.283008	99
Es	0.326887	0.083820	-0.256085	99
Es	0.664000	-1.052437	0.216249	99
Es	-1.023850	-1.307419	-0.630416	99
Es	1.178940	-0.201413	-1.463673	99
Es	-1.518721	-1.163856	-0.065302	99
Es	-1.752290	-1.273957	1.143568	99
Es	1.282073	1.389115	1.226503	99
46
Properties=species:S:1:pos:R:3:Z:I:1 energy=-272.09979828977674 field_type=dipole dipole="0.000000 0.000000 0.000000" charge=0
C	-2.013058	-1.023823	0.488204	6
C	-1.023848	-1.307433	-0.630446	6
C	0.319692	-0.711793	-0.338456	6
C	1.179042	-0.201453	-1.463816	6
C	0.552202	0.772557	-0.498556	6
C	1.404952	1.449907	0.480654	6
C	1.006782	1.890167	1.682574	6
H	-2.969528	-1.514853	0.285014	1
H	-2.195788	0.051477	0.584774	1
H	-1.636448	-1.386853	1.449914	1
H	-1.427938	-0.923423	-1.574466	1
H	-0.910798	-2.391333	-0.748066	1
H	0.819132	-1.227743	0.475554	1
H	0.786282	-0.226543	-2.474456	1
H	2.245692	-0.388373	-1.407886	1
H	-0.265018	1.378537	-0.879196	1
H	2.443792	1.612327	0.199734	1
H	-0.016998	1.762408	2.016874	1
H	1.701862	2.386237	2.352044	1
Es	-0.350202	-0.993627	-0.493339	99
Es	-1.518550	-1.163877	-0.065251	99
Es	-1.297820	-1.037057	-1.277928	99
Es	0.981905	1.108152	-0.011941	99
Es	0.311309	1.806858	1.915838	99
Es	0.552263	0.772392	-0.498602	99
Es	-1.752452	-1.273817	1.143547	99
Es	0.319757	-0.711649	-0.338567	99
Es	1.178941	-0.201410	-1.463672	99
Es	1.904761	-0.319230	-1.420142	99
Es	-2.667041	-1.360107	0.349014	99
Es	1.282092	1.389190	1.226491	99
Es	0.784588	-0.635833	-0.971058	99
Es	1.472377	2.228290	2.141957	99
Es	-1.023851	-1.307415	-0.630414	99
Es	1.006748	1.890204	1.682658	99
Es	-2.013050	-1.023827	0.488187	99
Es	0.326854	0.083837	-0.256089	99
Es	1.404974	1.449869	0.480553	99
Es	0.663936	-1.052361	0.216251	99
Es	-0.001518	1.177013	-0.751117	99
Es	0.906538	-0.221628	-2.147671	99
Es	-0.943894	-2.049339	-0.708773	99
Es	2.112515	1.553331	0.283043	99
Es	-2.136155	-0.288619	0.551768	99
Es	1.124833	1.961352	0.961515	99
Es	0.951003	0.430332	-1.075444	99
