46
Properties=species:S:1:pos:R:3:Z:I:1 energy=-272.1326302780269 field_type=dipole dipole="0.000000 0.000000 0.000000" charge=0
C	-2.074466	-1.798240	-0.506549	6
C	-0.739386	-1.750160	-0.410589	6
C	0.125584	-0.519810	-0.443329	6
C	-0.571806	0.841380	-0.482359	6
C	0.555144	1.807450	-0.148519	6
C	1.397454	1.079040	0.894921	6
C	1.016894	-0.399680	0.798831	6
H	-2.594736	-2.751070	-0.477109	1
H	-2.683756	-0.908010	-0.619279	1
H	-0.204226	-2.694370	-0.312119	1
H	0.774104	-0.600690	-1.327079	1
H	-1.357556	0.913780	0.279631	1
H	-1.016836	1.056890	-1.458659	1
H	1.159844	2.000150	-1.042999	1
H	0.183494	2.769610	0.216471	1
H	2.465454	1.232540	0.708621	1
H	1.182974	1.456960	1.900741	1
H	1.904584	-1.037250	0.722821	1
H	0.477234	-0.698520	1.706551	1
Es	-0.364644	-2.388794	-0.341753	99
Es	0.565030	-0.489761	0.177706	99
Es	0.970578	1.934815	-0.765761	99
Es	2.130909	1.183695	0.765745	99
Es	1.397431	1.079026	0.894912	99
Es	-0.571781	0.841368	-0.482353	99
Es	1.016889	-0.399660	0.798808	99
Es	-2.491693	-1.196109	-0.582962	99
Es	0.555142	1.807425	-0.148511	99
Es	1.248055	1.337800	1.585321	99
Es	-2.433986	-2.442245	-0.486423	99
Es	-1.402562	-1.796527	-0.784022	99
Es	0.299959	2.468358	0.101714	99
Es	0.982412	1.458310	0.379763	99
Es	-0.739267	-1.750146	-0.410580	99
Es	1.220325	0.334486	0.850528	99
Es	-0.325104	-1.133018	-0.425135	99
Es	-0.021789	1.340730	-0.324113	99
Es	1.624994	-0.840203	0.744819	99
Es	0.125557	-0.519838	-0.443308	99
Es	0.640415	-0.604215	1.416236	99
Es	-1.448750	-1.747083	-0.131438	99
Es	0.564655	-0.577072	-1.046064	99
Es	-2.074566	-1.798241	-0.506554	99
Es	-0.254766	0.143611	-0.475211	99
Es	-1.106429	0.884840	0.044621	99
Es	-0.879292	0.988170	-1.151391	99
46
Properties=species:S:1:pos:R:3:Z:I:1 energy=-272.1326302780269 field_type=dipole dipole="0.000000 0.000000 0.000000" charge=0
C	-2.074466	-1.798240	-0.506549	6
C	-0.739386	-1.750160	-0.410589	6
C	0.125584	-0.519810	-0.443329	6
C	-0.571806	0.841380	-0.482359	6
C	0.555144	1.807450	-0.148519	6
C	1.397454	1.079040	0.894921	6
C	1.016894	-0.399680	0.798831	6
H	-2.594736	-2.751070	-0.477109	1
H	-2.683756	-0.908010	-0.619279	1
H	-0.204226	-2.694370	-0.312119	1
H	0.774104	-0.600690	-1.327079	1
H	-1.357556	0.913780	0.279631	1
H	-1.016836	1.056890	-1.458659	1
H	1.159844	2.000150	-1.042999	1
H	0.183494	2.769610	0.216471	1
H	2.465454	1.232540	0.708621	1
H	1.182974	1.456960	1.900741	1
H	1.904584	-1.037250	0.722821	1
H	0.477234	-0.698520	1.706551	1
Es	-1.402592	-1.796633	-0.783939	99
Es	-0.879286	0.988142	-1.151299	99
Es	2.130870	1.183671	0.765759	99
Es	0.564972	-0.489796	0.177695	99
Es	0.564659	-0.577091	-1.046093	99
Es	0.125560	-0.519838	-0.443313	99
Es	0.555142	1.807425	-0.148511	99
Es	1.248125	1.337776	1.585314	99
Es	-0.739266	-1.750146	-0.410583	99
Es	-0.021814	1.340789	-0.324319	99
Es	-2.491737	-1.195997	-0.582995	99
Es	0.299972	2.468356	0.101582	99
Es	0.982415	1.458366	0.379884	99
Es	1.220309	0.334473	0.850518	99
Es	1.016889	-0.399660	0.798808	99
Es	-2.074565	-1.798240	-0.506551	99
Es	0.970571	1.934821	-0.765620	99
Es	-1.448719	-1.747297	-0.131525	99
Es	1.625013	-0.840246	0.744900	99
Es	1.397436	1.079024	0.894904	99
Es	-1.106452	0.884858	0.044635	99
Es	-0.364797	-2.388721	-0.341804	99
Es	-0.254808	0.143556	-0.475248	99
Es	-0.324905	-1.132895	-0.424980	99
Es	0.640453	-0.604126	1.416182	99
Es	-2.433935	-2.442217	-0.486458	99
Es	-0.571786	0.841370	-0.482350	99
46
Properties=species:S:1:pos:R:3:Z:I:1 energy=-272.1326302780269 field_type=dipole dipole="0.000000 0.000000 0.000000" charge=0
C	-2.074466	-1.798240	-0.506549	6
C	-0.739386	-1.750160	-0.410589	6
C	0.125584	-0.519810	-0.443329	6
C	-0.571806	0.841380	-0.482359	6
C	0.555144	1.807450	-0.148519	6
C	1.397454	1.079040	0.894921	6
C	1.016894	-0.399680	0.798831	6
H	-2.594736	-2.751070	-0.477109	1
H	-2.683756	-0.908010	-0.619279	1
H	-0.204226	-2.694370	-0.312119	1
H	0.774104	-0.600690	-1.327079	1
H	-1.357556	0.913780	0.279631	1
H	-1.016836	1.056890	-1.458659	1
H	1.159844	2.000150	-1.042999	1
H	0.183494	2.769610	0.216471	1
H	2.465454	1.232540	0.708621	1
H	1.182974	1.456960	1.900741	1
H	1.904584	-1.037250	0.722821	1
H	0.477234	-0.698520	1.706551	1
Es	1.220391	0.334519	0.850633	99
Es	-0.021830	1.340894	-0.324243	99
Es	-0.571781	0.841368	-0.482353	99
Es	0.299988	2.468335	0.101545	99
Es	1.016890	-0.399661	0.798808	99
Es	-2.491754	-1.196076	-0.582784	99
Es	-2.433946	-2.442189	-0.486401	99
Es	-0.254875	0.143480	-0.475235	99
Es	-1.448560	-1.747210	-0.131743	99
Es	0.555142	1.807426	-0.148511	99
Es	-0.364820	-2.388721	-0.341609	99
Es	1.624983	-0.840245	0.744896	99
Es	-2.074571	-1.798241	-0.506534	99
Es	2.130764	1.183701	0.765867	99
Es	0.564643	-0.577049	-1.046111	99
Es	-1.106419	0.884785	0.044509	99
Es	-0.879326	0.988130	-1.151258	99
Es	-1.402697	-1.796708	-0.784220	99
Es	0.982486	1.458422	0.379812	99
Es	-0.324845	-1.132799	-0.425075	99
Es	0.125558	-0.519837	-0.443309	99
Es	1.397435	1.079025	0.894904	99
Es	0.970544	1.934840	-0.765596	99
Es	0.640469	-0.604240	1.416061	99
Es	1.248110	1.337776	1.585315	99
Es	-0.739264	-1.750145	-0.410584	99
Es	0.565011	-0.489858	0.177809	99
46
Properties=species:S:1:pos:R:3:Z:I:1 energy=-272.1326302780269 field_type=dipole dipole="0.000000 0.000000 0.000000" charge=0
C	-2.074466	-1.798240	-0.506549	6
C	-0.739386	-1.750160	-0.410589	6
C	0.125584	-0.519810	-0.443329	6
C	-0.571806	0.841380	-0.482359	6
C	0.555144	1.807450	-0.148519	6
C	1.397454	1.079040	0.894921	6
C	1.016894	-0.399680	0.798831	6
H	-2.594736	-2.751070	-0.477109	1
H	-2.683756	-0.908010	-0.619279	1
H	-0.204226	-2.694370	-0.312119	1
H	0.774104	-0.600690	-1.327079	1
H	-1.357556	0.913780	0.279631	1
H	-1.016836	1.056890	-1.458659	1
H	1.159844	2.000150	-1.042999	1
H	0.183494	2.769610	0.216471	1
H	2.465454	1.232540	0.708621	1
H	1.182974	1.456960	1.900741	1
H	1.904584	-1.037250	0.722821	1
H	0.477234	-0.698520	1.706551	1
Es	1.248139	1.337767	1.585205	99
Es	1.624959	-0.840210	0.745018	99
Es	1.220331	0.334468	0.850622	99
Es	1.016890	-0.399660	0.798809	99
Es	-0.021817	1.340874	-0.324271	99
Es	-2.074565	-1.798241	-0.506553	99
Es	-0.739277	-1.750145	-0.410569	99
Es	-2.433911	-2.442267	-0.486556	99
Es	0.970510	1.934986	-0.765507	99
Es	1.397435	1.079024	0.894904	99
Es	0.555142	1.807424	-0.148511	99
Es	-0.571783	0.841369	-0.482353	99
Es	0.640470	-0.604192	1.416047	99
Es	-0.324881	-1.132656	-0.425101	99
Es	-0.879345	0.988199	-1.151182	99
Es	2.130779	1.183707	0.765933	99
Es	0.982598	1.458521	0.379871	99
Es	0.564443	-0.577208	-1.046009	99
Es	-0.364816	-2.388760	-0.341838	99
Es	-1.106364	0.884796	0.044385	99
Es	0.125558	-0.519837	-0.443308	99
Es	-1.402546	-1.796591	-0.783693	99
Es	-2.491745	-1.196034	-0.583004	99
Es	-1.448748	-1.747369	-0.131580	99
Es	0.565214	-0.489945	0.177724	99
Es	0.299980	2.468225	0.101520	99
Es	-0.254926	0.143477	-0.475408	99
46
Properties=species:S:1:pos:R:3:Z:I:1 energy=-272.1326302780269 field_type=dipole dipole="0.000000 0.000000 0.000000" charge=0
C	-2.074466	-1.798240	-0.506549	6
C	-0.739386	-1.750160	-0.410589	6
C	0.125584	-0.519810	-0.443329	6
C	-0.571806	0.841380	-0.482359	6
C	0.555144	1.807450	-0.148519	6
C	1.397454	1.079040	0.894921	6
C	1.016894	-0.399680	0.798831	6
H	-2.594736	-2.751070	-0.477109	1
H	-2.683756	-0.908010	-0.619279	1
H	-0.204226	-2.694370	-0.312119	1
H	0.774104	-0.600690	-1.327079	1
H	-1.357556	0.913780	0.279631	1
H	-1.016836	1.056890	-1.458659	1
H	1.159844	2.000150	-1.042999	1
H	0.183494	2.769610	0.216471	1
H	2.465454	1.232540	0.708621	1
H	1.182974	1.456960	1.900741	1
H	1.904584	-1.037250	0.722821	1
H	0.477234	-0.698520	1.706551	1
Es	-0.739267	-1.750146	-0.410582	99
Es	-2.433911	-2.442260	-0.486544	99
Es	-2.074564	-1.798241	-0.506551	99
Es	0.982582	1.458488	0.379919	99
Es	1.397435	1.079024	0.894904	99
Es	-2.491751	-1.196042	-0.582960	99
Es	-1.448681	-1.747342	-0.131743	99
Es	1.624846	-0.840190	0.745024	99
Es	-0.254965	0.143402	-0.475251	99
Es	0.564361	-0.577164	-1.046148	99
Es	0.555142	1.807425	-0.148511	99
Es	-0.364861	-2.388827	-0.341756	99
Es	1.016889	-0.399662	0.798812	99
Es	-0.021936	1.341025	-0.324325	99
Es	1.248184	1.337787	1.585181	99
Es	-0.571781	0.841368	-0.482352	99
Es	2.130761	1.183721	0.765907	99
Es	0.300108	2.468250	0.101444	99
Es	1.220432	0.334459	0.850737	99
Es	0.970467	1.934908	-0.765505	99
Es	-0.324790	-1.132546	-0.425054	99
Es	0.640515	-0.604241	1.416028	99
Es	-1.106406	0.884833	0.044381	99
Es	0.565277	-0.489962	0.177644	99
Es	0.125559	-0.519838	-0.443311	99
Es	-0.879329	0.988108	-1.151131	99
Es	-1.402594	-1.796616	-0.783665	99
46
Properties=species:S:1:pos:R:3:Z:I:1 energy=-272.1326302780269 field_type=dipole dipole="0.000000 0.000000 0.000000" charge=0
C	-2.074466	-1.798240	-0.506549	6
C	-0.739386	-1.750160	-0.410589	6
C	0.125584	-0.519810	-0.443329	6
C	-0.571806	0.841380	-0.482359	6
C	0.555144	1.807450	-0.148519	6
C	1.397454	1.079040	0.894921	6
C	1.016894	-0.399680	0.798831	6
H	-2.594736	-2.751070	-0.477109	1
H	-2.683756	-0.908010	-0.619279	1
H	-0.204226	-2.694370	-0.312119	1
H	0.774104	-0.600690	-1.327079	1
H	-1.357556	0.913780	0.279631	1
H	-1.016836	1.056890	-1.458659	1
H	1.159844	2.000150	-1.042999	1
H	0.183494	2.769610	0.216471	1
H	2.465454	1.232540	0.708621	1
H	1.182974	1.456960	1.900741	1
H	1.904584	-1.037250	0.722821	1
H	0.477234	-0.698520	1.706551	1
Es	0.555142	1.807425	-0.148511	99
Es	0.565163	-0.490018	0.177737	99
Es	1.248259	1.337754	1.585140	99
Es	1.624799	-0.840212	0.745052	99
Es	-0.324741	-1.132489	-0.425120	99
Es	-0.364895	-2.388865	-0.341739	99
Es	1.016891	-0.399661	0.798808	99
Es	-0.739267	-1.750146	-0.410581	99
Es	0.125560	-0.519837	-0.443309	99
Es	-0.571781	0.841368	-0.482352	99
Es	0.970476	1.934893	-0.765448	99
Es	-0.879354	0.988121	-1.151085	99
Es	-0.255009	0.143371	-0.475358	99
Es	0.982563	1.458583	0.379932	99
Es	1.220508	0.334407	0.850734	99
Es	-2.491759	-1.196034	-0.582922	99
Es	0.300144	2.468260	0.101386	99
Es	0.640571	-0.604206	1.416007	99
Es	-1.106379	0.884822	0.044339	99
Es	-1.402655	-1.796649	-0.783641	99
Es	2.130669	1.183737	0.765974	99
Es	-1.448595	-1.747319	-0.131914	99
Es	-2.074564	-1.798241	-0.506551	99
Es	1.397436	1.079024	0.894905	99
Es	0.564413	-0.577162	-1.046055	99
Es	-0.021964	1.341073	-0.324351	99
Es	-2.433907	-2.442280	-0.486484	99
46
Properties=species:S:1:pos:R:3:Z:I:1 energy=-272.1326302780269 field_type=dipole dipole="0.000000 0.000000 0.000000" charge=0
C	-2.074466	-1.798240	-0.506549	6
C	-0.739386	-1.750160	-0.410589	6
C	0.125584	-0.519810	-0.443329	6
C	-0.571806	0.841380	-0.482359	6
C	0.555144	1.807450	-0.148519	6
C	1.397454	1.079040	0.894921	6
C	1.016894	-0.399680	0.798831	6
H	-2.594736	-2.751070	-0.477109	1
H	-2.683756	-0.908010	-0.619279	1
H	-0.204226	-2.694370	-0.312119	1
H	0.774104	-0.600690	-1.327079	1
H	-1.357556	0.913780	0.279631	1
H	-1.016836	1.056890	-1.458659	1
H	1.159844	2.000150	-1.042999	1
H	0.183494	2.769610	0.216471	1
H	2.465454	1.232540	0.708621	1
H	1.182974	1.456960	1.900741	1
H	1.904584	-1.037250	0.722821	1
H	0.477234	-0.698520	1.706551	1
Es	0.564381	-0.577210	-1.046033	99
Es	-0.364906	-2.388902	-0.341769	99
Es	1.016889	-0.399661	0.798808	99
Es	1.397436	1.079025	0.894905	99
Es	-1.448641	-1.747382	-0.131928	99
Es	-0.324718	-1.132376	-0.425172	99
Es	-2.074564	-1.798241	-0.506552	99
Es	2.130624	1.183737	0.765997	99
Es	0.640618	-0.604257	1.415937	99
Es	-1.402612	-1.796632	-0.783467	99
Es	0.982609	1.458636	0.379915	99
Es	-1.106377	0.884818	0.044271	99
Es	1.248323	1.337754	1.585098	99
Es	-0.739267	-1.750146	-0.410584	99
Es	-0.879347	0.988122	-1.151036	99
Es	0.125559	-0.519837	-0.443309	99
Es	1.624784	-0.840185	0.745085	99
Es	0.565175	-0.490075	0.177750	99
Es	-0.255039	0.143341	-0.475412	99
Es	0.970421	1.934954	-0.765420	99
Es	-2.491738	-1.196012	-0.582967	99
Es	1.220499	0.334416	0.850848	99
Es	-0.021995	1.341111	-0.324353	99
Es	-2.433917	-2.442282	-0.486534	99
Es	-0.571781	0.841368	-0.482352	99
Es	0.300165	2.468212	0.101380	99
Es	0.555142	1.807425	-0.148511	99
46
Properties=species:S:1:pos:R:3:Z:I:1 energy=-272.1326302780269 field_type=dipole dipole="0.000000 0.000000 0.000000" charge=0
C	-2.074466	-1.798240	-0.506549	6
C	-0.739386	-1.750160	-0.410589	6
C	0.125584	-0.519810	-0.443329	6
C	-0.571806	0.841380	-0.482359	6
C	0.555144	1.807450	-0.148519	6
C	1.397454	1.079040	0.894921	6
C	1.016894	-0.399680	0.798831	6
H	-2.594736	-2.751070	-0.477109	1
H	-2.683756	-0.908010	-0.619279	1
H	-0.204226	-2.694370	-0.312119	1
H	0.774104	-0.600690	-1.327079	1
H	-1.357556	0.913780	0.279631	1
H	-1.016836	1.056890	-1.458659	1
H	1.159844	2.000150	-1.042999	1
H	0.183494	2.769610	0.216471	1
H	2.465454	1.232540	0.708621	1
H	1.182974	1.456960	1.900741	1
H	1.904584	-1.037250	0.722821	1
H	0.477234	-0.698520	1.706551	1
Es	1.248369	1.337751	1.585061	99
Es	-2.433898	-2.442293	-0.486576	99
Es	-1.106375	0.884813	0.044223	99
Es	0.640664	-0.604272	1.415901	99
Es	0.300200	2.468186	0.101339	99
Es	-2.491733	-1.196009	-0.583020	99
Es	-0.364927	-2.388939	-0.341796	99
Es	0.555142	1.807426	-0.148512	99
Es	0.565186	-0.490135	0.177744	99
Es	1.624737	-0.840171	0.745117	99
Es	0.970401	1.934978	-0.765374	99
Es	0.982636	1.458685	0.379939	99
Es	2.130584	1.183736	0.766026	99
Es	-2.074571	-1.798248	-0.506554	99
Es	1.397436	1.079025	0.894905	99
Es	-1.448694	-1.747411	-0.131956	99
Es	0.125561	-0.519833	-0.443308	99
Es	-0.571782	0.841370	-0.482353	99
Es	1.220525	0.334410	0.850902	99
Es	-0.255076	0.143295	-0.475435	99
Es	-1.402566	-1.796601	-0.783277	99
Es	-0.022022	1.341163	-0.324380	99
Es	-0.739262	-1.750155	-0.410586	99
Es	1.016889	-0.399661	0.798809	99
Es	0.564336	-0.577225	-1.046036	99
Es	-0.879351	0.988122	-1.150981	99
Es	-0.324685	-1.132284	-0.425229	99
46
Properties=species:S:1:pos:R:3:Z:I:1 energy=-272.1326302780269 field_type=dipole dipole="0.000000 0.000000 0.000000" charge=0
C	-2.074466	-1.798240	-0.506549	6
C	-0.739386	-1.750160	-0.410589	6
C	0.125584	-0.519810	-0.443329	6
C	-0.571806	0.841380	-0.482359	6
C	0.555144	1.807450	-0.148519	6
C	1.397454	1.079040	0.894921	6
C	1.016894	-0.399680	0.798831	6
H	-2.594736	-2.751070	-0.477109	1
H	-2.683756	-0.908010	-0.619279	1
H	-0.204226	-2.694370	-0.312119	1
H	0.774104	-0.600690	-1.327079	1
H	-1.357556	0.913780	0.279631	1
H	-1.016836	1.056890	-1.458659	1
H	1.159844	2.000150	-1.042999	1
H	0.183494	2.769610	0.216471	1
H	2.465454	1.232540	0.708621	1
H	1.182974	1.456960	1.900741	1
H	1.904584	-1.037250	0.722821	1
H	0.477234	-0.698520	1.706551	1
Es	-2.074561	-1.798242	-0.506551	99
Es	-0.739269	-1.750146	-0.410583	99
Es	-1.402608	-1.796590	-0.783273	99
Es	0.565224	-0.490219	0.177743	99
Es	1.248410	1.337793	1.585000	99
Es	-0.324626	-1.132191	-0.425164	99
Es	-2.491734	-1.195994	-0.582953	99
Es	-0.255148	0.143270	-0.475485	99
Es	0.982700	1.458699	0.379876	99
Es	0.300213	2.468140	0.101345	99
Es	1.220587	0.334395	0.850983	99
Es	1.624685	-0.840164	0.745195	99
Es	0.970338	1.935024	-0.765391	99
Es	0.640692	-0.604260	1.415851	99
Es	0.125559	-0.519837	-0.443309	99
Es	-1.106391	0.884803	0.044161	99
Es	1.016890	-0.399661	0.798807	99
Es	2.130523	1.183756	0.766064	99
Es	-0.879330	0.988128	-1.150933	99
Es	1.397435	1.079025	0.894904	99
Es	0.564286	-0.577240	-1.046018	99
Es	-1.448612	-1.747442	-0.132157	99
Es	-0.571783	0.841369	-0.482353	99
Es	-0.022033	1.341196	-0.324318	99
Es	-2.433916	-2.442314	-0.486499	99
Es	0.555138	1.807428	-0.148514	99
Es	-0.364946	-2.389004	-0.341833	99
46
Properties=species:S:1:pos:R:3:Z:I:1 energy=-272.1326302780269 field_type=dipole dipole="0.000000 0.000000 0.000000" charge=0
C	-2.074466	-1.798240	-0.506549	6
C	-0.739386	-1.750160	-0.410589	6
C	0.125584	-0.519810	-0.443329	6
C	-0.571806	0.841380	-0.482359	6
C	0.555144	1.807450	-0.148519	6
C	1.397454	1.079040	0.894921	6
C	1.016894	-0.399680	0.798831	6
H	-2.594736	-2.751070	-0.477109	1
H	-2.683756	-0.908010	-0.619279	1
H	-0.204226	-2.694370	-0.312119	1
H	0.774104	-0.600690	-1.327079	1
H	-1.357556	0.913780	0.279631	1
H	-1.016836	1.056890	-1.458659	1
H	1.159844	2.000150	-1.042999	1
H	0.183494	2.769610	0.216471	1
H	2.465454	1.232540	0.708621	1
H	1.182974	1.456960	1.900741	1
H	1.904584	-1.037250	0.722821	1
H	0.477234	-0.698520	1.706551	1
Es	-1.402580	-1.796597	-0.783138	99
Es	1.397436	1.079025	0.894905	99
Es	-0.879330	0.988104	-1.150905	99
Es	0.125560	-0.519836	-0.443308	99
Es	0.982710	1.458794	0.379943	99
Es	0.565216	-0.490243	0.177728	99
Es	0.555142	1.807425	-0.148511	99
Es	1.248449	1.337740	1.584984	99
Es	1.220600	0.334375	0.851004	99
Es	-2.074524	-1.798243	-0.506587	99
Es	-1.106384	0.884827	0.044087	99
Es	0.300260	2.468128	0.101271	99
Es	-0.739267	-1.750144	-0.410584	99
Es	2.130490	1.183749	0.766108	99
Es	0.640742	-0.604295	1.415835	99
Es	-2.433891	-2.442347	-0.486548	99
Es	-0.022079	1.341253	-0.324387	99
Es	1.016890	-0.399660	0.798809	99
Es	-0.255171	0.143241	-0.475469	99
Es	0.970339	1.935033	-0.765308	99
Es	-1.448681	-1.747433	-0.132203	99
Es	-0.364985	-2.389027	-0.341758	99
Es	1.624648	-0.840139	0.745191	99
Es	-0.324603	-1.132103	-0.425240	99
Es	-0.571781	0.841369	-0.482352	99
Es	0.564258	-0.577278	-1.046004	99
Es	-2.491739	-1.195996	-0.582967	99
46
Properties=species:S:1:pos:R:3:Z:I:1 energy=-272.1326302780269 field_type=dipole dipole="0.000000 0.000000 0.000000" charge=0
C	-2.074466	-1.798240	-0.506549	6
C	-0.739386	-1.750160	-0.410589	6
C	0.125584	-0.519810	-0.443329	6
C	-0.571806	0.841380	-0.482359	6
C	0.555144	1.807450	-0.148519	6
C	1.397454	1.079040	0.894921	6
C	1.016894	-0.399680	0.798831	6
H	-2.594736	-2.751070	-0.477109	1
H	-2.683756	-0.908010	-0.619279	1
H	-0.204226	-2.694370	-0.312119	1
H	0.774104	-0.600690	-1.327079	1
H	-1.357556	0.913780	0.279631	1
H	-1.016836	1.056890	-1.458659	1
H	1.159844	2.000150	-1.042999	1
H	0.183494	2.769610	0.216471	1
H	2.465454	1.232540	0.708621	1
H	1.182974	1.456960	1.900741	1
H	1.904584	-1.037250	0.722821	1
H	0.477234	-0.698520	1.706551	1
Es	0.125560	-0.519836	-0.443309	99
Es	-1.106343	0.884816	0.044081	99
Es	-0.571781	0.841369	-0.482352	99
Es	-0.879381	0.988103	-1.150838	99
Es	1.016889	-0.399660	0.798809	99
Es	1.624604	-0.840125	0.745208	99
Es	-0.255185	0.143228	-0.475538	99
Es	-1.402663	-1.796685	-0.783168	99
Es	0.640787	-0.604315	1.415805	99
Es	1.397436	1.079025	0.894905	99
Es	0.300269	2.468086	0.101240	99
Es	-0.022088	1.341286	-0.324447	99
Es	1.220590	0.334377	0.851054	99
Es	-2.074562	-1.798241	-0.506551	99
Es	-0.739269	-1.750146	-0.410583	99
Es	1.248541	1.337734	1.584962	99
Es	0.564215	-0.577319	-1.045993	99
Es	-0.364998	-2.389035	-0.341722	99
Es	0.565227	-0.490299	0.177750	99
Es	0.982741	1.458877	0.379981	99
Es	-1.448525	-1.747428	-0.132345	99
Es	2.130446	1.183716	0.766104	99
Es	-2.433923	-2.442330	-0.486512	99
Es	-2.491723	-1.195979	-0.582931	99
Es	0.970312	1.935078	-0.765273	99
Es	0.555142	1.807425	-0.148511	99
Es	-0.324595	-1.131997	-0.425231	99
46
Properties=species:S:1:pos:R:3:Z:I:1 energy=-272.1326302780269 field_type=dipole dipole="0.000000 0.000000 0.000000" charge=0
C	-2.074466	-1.798240	-0.506549	6
C	-0.739386	-1.750160	-0.410589	6
C	0.125584	-0.519810	-0.443329	6
C	-0.571806	0.841380	-0.482359	6
C	0.555144	1.807450	-0.148519	6
C	1.397454	1.079040	0.894921	6
C	1.016894	-0.399680	0.798831	6
H	-2.594736	-2.751070	-0.477109	1
H	-2.683756	-0.908010	-0.619279	1
H	-0.204226	-2.694370	-0.312119	1
H	0.774104	-0.600690	-1.327079	1
H	-1.357556	0.913780	0.279631	1
H	-1.016836	1.056890	-1.458659	1
H	1.159844	2.000150	-1.042999	1
H	0.183494	2.769610	0.216471	1
H	2.465454	1.232540	0.708621	1
H	1.182974	1.456960	1.900741	1
H	1.904584	-1.037250	0.722821	1
H	0.477234	-0.698520	1.706551	1
Es	-0.022127	1.341359	-0.324456	99
Es	-0.739269	-1.750146	-0.410584	99
Es	0.555142	1.807425	-0.148511	99
Es	0.300330	2.468081	0.101233	99
Es	-0.324531	-1.131924	-0.425238	99
Es	-2.074562	-1.798241	-0.506552	99
Es	2.130450	1.183705	0.766110	99
Es	-1.402632	-1.796589	-0.782886	99
Es	-0.365050	-2.389096	-0.341753	99
Es	0.970278	1.935086	-0.765242	99
Es	1.016889	-0.399660	0.798809	99
Es	-0.571781	0.841369	-0.482352	99
Es	0.982761	1.458843	0.379950	99
Es	0.565240	-0.490322	0.177744	99
Es	-0.879382	0.988092	-1.150787	99
Es	1.624570	-0.840113	0.745229	99
Es	-2.433961	-2.442459	-0.486543	99
Es	0.125560	-0.519836	-0.443309	99
Es	-2.491657	-1.195955	-0.582996	99
Es	-1.448567	-1.747415	-0.132489	99
Es	-1.106339	0.884812	0.044028	99
Es	0.564165	-0.577336	-1.045995	99
Es	1.220602	0.334407	0.851142	99
Es	1.397436	1.079025	0.894905	99
Es	0.640836	-0.604329	1.415772	99
Es	-0.255232	0.143183	-0.475564	99
Es	1.248553	1.337759	1.584930	99
