43
Properties=species:S:1:pos:R:3:Z:I:1 energy=-270.95769032403405 field_type=dipole dipole="0.000000 0.000000 0.000000" charge=0
C	-2.004853	-1.957680	-0.178504	6
C	-0.676753	-1.799360	-0.160524	6
C	0.008627	-0.543180	-0.016314	6
C	1.340357	-0.408380	0.038346	6
C	1.753847	1.013640	0.221756	6
C	0.469177	1.781200	-0.076134	6
C	-0.674873	0.785670	0.118026	6
H	-2.437203	-2.947390	-0.290524	1
H	-2.695113	-1.126260	-0.081924	1
H	-0.051683	-2.686240	-0.258834	1
H	2.051707	-1.221640	-0.011434	1
H	2.095607	1.180580	1.248356	1
H	2.552547	1.298300	-0.469344	1
H	0.480737	2.132170	-1.116534	1
H	0.359057	2.665050	0.560536	1
H	-1.448673	0.944870	-0.639694	1
H	-1.122513	0.888650	1.112746	1
Es	0.645472	-0.542351	0.318913	99
Es	1.123332	1.413191	0.081797	99
Es	-2.305272	-2.626702	-0.254099	99
Es	1.753825	1.013615	0.221750	99
Es	-0.367244	0.099942	0.042550	99
Es	0.477957	2.016039	-0.790755	99
Es	-2.475218	-1.395656	-0.113430	99
Es	-0.676647	-1.799340	-0.160522	99
Es	-1.205109	0.887517	-0.396111	99
Es	0.393388	2.388147	0.361846	99
Es	-1.339024	-1.898901	0.151847	99
Es	-0.244203	-2.396924	-0.226959	99
Es	-0.116370	1.295446	0.029153	99
Es	-2.004948	-1.957693	-0.178505	99
Es	1.982385	1.118662	0.921417	99
Es	0.008490	-0.543192	-0.016314	99
Es	1.340482	-0.408355	0.038355	99
Es	0.469179	1.781170	-0.076124	99
Es	0.668152	-0.476639	-0.320499	99
Es	1.829293	-0.959976	0.005318	99
Es	-1.339950	-1.826949	-0.488057	99
Es	-0.976711	0.847718	0.796491	99
Es	1.583989	0.289180	0.125921	99
Es	-0.345432	-1.167588	-0.087566	99
Es	2.300719	1.204152	-0.247147	99
Es	-0.674840	0.785648	0.118022	99
43
Properties=species:S:1:pos:R:3:Z:I:1 energy=-270.95769032403405 field_type=dipole dipole="0.000000 0.000000 0.000000" charge=0
C	-2.004853	-1.957680	-0.178504	6
C	-0.676753	-1.799360	-0.160524	6
C	0.008627	-0.543180	-0.016314	6
C	1.340357	-0.408380	0.038346	6
C	1.753847	1.013640	0.221756	6
C	0.469177	1.781200	-0.076134	6
C	-0.674873	0.785670	0.118026	6
H	-2.437203	-2.947390	-0.290524	1
H	-2.695113	-1.126260	-0.081924	1
H	-0.051683	-2.686240	-0.258834	1
H	2.051707	-1.221640	-0.011434	1
H	2.095607	1.180580	1.248356	1
H	2.552547	1.298300	-0.469344	1
H	0.480737	2.132170	-1.116534	1
H	0.359057	2.665050	0.560536	1
H	-1.448673	0.944870	-0.639694	1
H	-1.122513	0.888650	1.112746	1
Es	-1.205013	0.887507	-0.396175	99
Es	-0.345286	-1.167602	-0.087629	99
Es	0.477872	2.016119	-0.790714	99
Es	-0.676651	-1.799340	-0.160521	99
Es	0.645484	-0.542195	0.319202	99
Es	1.584116	0.289213	0.125822	99
Es	-0.367489	0.099757	0.042402	99
Es	-0.116233	1.295476	0.029191	99
Es	1.982292	1.118546	0.921432	99
Es	0.393353	2.388072	0.361849	99
Es	-1.339940	-1.826964	-0.488061	99
Es	-0.976837	0.847716	0.796427	99
Es	-2.305286	-2.626742	-0.254077	99
Es	-0.244234	-2.396951	-0.226864	99
Es	-2.475193	-1.395674	-0.113432	99
Es	1.829219	-0.959983	0.005297	99
Es	1.123398	1.413178	0.081757	99
Es	-1.339031	-1.898816	0.151769	99
Es	0.668159	-0.476570	-0.320503	99
Es	1.340487	-0.408353	0.038356	99
Es	0.469179	1.781170	-0.076124	99
Es	-2.004959	-1.957693	-0.178504	99
Es	0.008506	-0.543187	-0.016327	99
Es	2.300799	1.204216	-0.247052	99
Es	1.753825	1.013615	0.221750	99
Es	-0.674841	0.785648	0.118021	99
43
Properties=species:S:1:pos:R:3:Z:I:1 energy=-270.95769032403405 field_type=dipole dipole="0.000000 0.000000 0.000000" charge=0
C	-2.004853	-1.957680	-0.178504	6
C	-0.676753	-1.799360	-0.160524	6
C	0.008627	-0.543180	-0.016314	6
C	1.340357	-0.408380	0.038346	6
C	1.753847	1.013640	0.221756	6
C	0.469177	1.781200	-0.076134	6
C	-0.674873	0.785670	0.118026	6
H	-2.437203	-2.947390	-0.290524	1
H	-2.695113	-1.126260	-0.081924	1
H	-0.051683	-2.686240	-0.258834	1
H	2.051707	-1.221640	-0.011434	1
H	2.095607	1.180580	1.248356	1
H	2.552547	1.298300	-0.469344	1
H	0.480737	2.132170	-1.116534	1
H	0.359057	2.665050	0.560536	1
H	-1.448673	0.944870	-0.639694	1
H	-1.122513	0.888650	1.112746	1
Es	-0.367443	0.099842	0.042663	99
Es	1.123188	1.413115	0.081714	99
Es	0.668171	-0.476579	-0.320333	99
Es	1.340484	-0.408354	0.038357	99
Es	-1.339933	-1.827003	-0.488023	99
Es	-0.116449	1.295559	0.029164	99
Es	-0.345272	-1.167632	-0.087640	99
Es	0.393477	2.387978	0.361839	99
Es	1.982301	1.118557	0.921408	99
Es	-2.305293	-2.626676	-0.254065	99
Es	0.645487	-0.542271	0.318782	99
Es	-1.339028	-1.898858	0.151920	99
Es	-2.475205	-1.395660	-0.113465	99
Es	1.829205	-0.960087	0.005252	99
Es	0.478007	2.016257	-0.790636	99
Es	2.300780	1.204247	-0.247049	99
Es	-0.676649	-1.799341	-0.160522	99
Es	-0.674841	0.785648	0.118022	99
Es	-0.976862	0.847686	0.796332	99
Es	-1.205011	0.887461	-0.396130	99
Es	1.584260	0.289315	0.125858	99
Es	0.008494	-0.543191	-0.016317	99
Es	1.753825	1.013615	0.221749	99
Es	0.469177	1.781170	-0.076122	99
Es	-2.004953	-1.957691	-0.178508	99
Es	-0.244221	-2.396947	-0.226959	99
43
Properties=species:S:1:pos:R:3:Z:I:1 energy=-270.95769032403405 field_type=dipole dipole="0.000000 0.000000 0.000000" charge=0
C	-2.004853	-1.957680	-0.178504	6
C	-0.676753	-1.799360	-0.160524	6
C	0.008627	-0.543180	-0.016314	6
C	1.340357	-0.408380	0.038346	6
C	1.753847	1.013640	0.221756	6
C	0.469177	1.781200	-0.076134	6
C	-0.674873	0.785670	0.118026	6
H	-2.437203	-2.947390	-0.290524	1
H	-2.695113	-1.126260	-0.081924	1
H	-0.051683	-2.686240	-0.258834	1
H	2.051707	-1.221640	-0.011434	1
H	2.095607	1.180580	1.248356	1
H	2.552547	1.298300	-0.469344	1
H	0.480737	2.132170	-1.116534	1
H	0.359057	2.665050	0.560536	1
H	-1.448673	0.944870	-0.639694	1
H	-1.122513	0.888650	1.112746	1
Es	-2.004952	-1.957692	-0.178504	99
Es	-1.339016	-1.898843	0.151814	99
Es	-0.116402	1.295613	0.029175	99
Es	0.469179	1.781171	-0.076124	99
Es	1.982330	1.118515	0.921363	99
Es	2.300789	1.204171	-0.246988	99
Es	-2.475198	-1.395605	-0.113495	99
Es	1.829132	-0.960149	0.005239	99
Es	1.123399	1.413264	0.081794	99
Es	0.008495	-0.543190	-0.016318	99
Es	-2.305290	-2.626706	-0.254122	99
Es	-0.345208	-1.167585	-0.087628	99
Es	1.340484	-0.408354	0.038362	99
Es	-0.676648	-1.799341	-0.160521	99
Es	-0.367558	0.099925	0.042692	99
Es	1.753825	1.013615	0.221750	99
Es	0.393394	2.388022	0.361678	99
Es	-1.205025	0.887459	-0.396094	99
Es	0.477954	2.016173	-0.790574	99
Es	-1.339951	-1.827005	-0.487832	99
Es	-0.976856	0.847662	0.796299	99
Es	-0.244237	-2.397014	-0.226984	99
Es	0.645489	-0.542310	0.318661	99
Es	-0.674841	0.785648	0.118022	99
Es	1.584243	0.289336	0.125836	99
Es	0.668163	-0.476618	-0.320206	99
43
Properties=species:S:1:pos:R:3:Z:I:1 energy=-270.95769032403405 field_type=dipole dipole="0.000000 0.000000 0.000000" charge=0
C	-2.004853	-1.957680	-0.178504	6
C	-0.676753	-1.799360	-0.160524	6
C	0.008627	-0.543180	-0.016314	6
C	1.340357	-0.408380	0.038346	6
C	1.753847	1.013640	0.221756	6
C	0.469177	1.781200	-0.076134	6
C	-0.674873	0.785670	0.118026	6
H	-2.437203	-2.947390	-0.290524	1
H	-2.695113	-1.126260	-0.081924	1
H	-0.051683	-2.686240	-0.258834	1
H	2.051707	-1.221640	-0.011434	1
H	2.095607	1.180580	1.248356	1
H	2.552547	1.298300	-0.469344	1
H	0.480737	2.132170	-1.116534	1
H	0.359057	2.665050	0.560536	1
H	-1.448673	0.944870	-0.639694	1
H	-1.122513	0.888650	1.112746	1
Es	-2.004953	-1.957692	-0.178503	99
Es	0.008496	-0.543190	-0.016320	99
Es	-0.976860	0.847647	0.796256	99
Es	0.469180	1.781170	-0.076123	99
Es	-0.676647	-1.799340	-0.160523	99
Es	1.829114	-0.960169	0.005215	99
Es	-0.345189	-1.167575	-0.087627	99
Es	0.477936	2.016193	-0.790524	99
Es	0.668139	-0.476652	-0.320100	99
Es	-1.205029	0.887435	-0.396044	99
Es	0.645527	-0.542366	0.318518	99
Es	-0.116413	1.295652	0.029170	99
Es	-2.475201	-1.395595	-0.113482	99
Es	-2.305286	-2.626716	-0.254123	99
Es	0.393399	2.387999	0.361617	99
Es	1.753825	1.013615	0.221750	99
Es	-0.674840	0.785648	0.118022	99
Es	1.584276	0.289399	0.125889	99
Es	2.300794	1.204149	-0.246962	99
Es	1.982344	1.118501	0.921323	99
Es	1.123410	1.413319	0.081780	99
Es	-0.244226	-2.397027	-0.226972	99
Es	1.340483	-0.408354	0.038359	99
Es	-0.367617	0.099962	0.042735	99
Es	-1.339951	-1.827014	-0.487797	99
Es	-1.339015	-1.898836	0.151760	99
43
Properties=species:S:1:pos:R:3:Z:I:1 energy=-270.95769032403405 field_type=dipole dipole="0.000000 0.000000 0.000000" charge=0
C	-2.004853	-1.957680	-0.178504	6
C	-0.676753	-1.799360	-0.160524	6
C	0.008627	-0.543180	-0.016314	6
C	1.340357	-0.408380	0.038346	6
C	1.753847	1.013640	0.221756	6
C	0.469177	1.781200	-0.076134	6
C	-0.674873	0.785670	0.118026	6
H	-2.437203	-2.947390	-0.290524	1
H	-2.695113	-1.126260	-0.081924	1
H	-0.051683	-2.686240	-0.258834	1
H	2.051707	-1.221640	-0.011434	1
H	2.095607	1.180580	1.248356	1
H	2.552547	1.298300	-0.469344	1
H	0.480737	2.132170	-1.116534	1
H	0.359057	2.665050	0.560536	1
H	-1.448673	0.944870	-0.639694	1
H	-1.122513	0.888650	1.112746	1
Es	-0.676653	-1.799340	-0.160528	99
Es	-0.244216	-2.397037	-0.226984	99
Es	-1.339945	-1.827026	-0.487742	99
Es	1.753827	1.013615	0.221750	99
Es	1.123406	1.413375	0.081825	99
Es	-2.004955	-1.957691	-0.178507	99
Es	0.477942	2.016231	-0.790477	99
Es	-0.367649	0.099966	0.042578	99
Es	0.393384	2.387953	0.361554	99
Es	1.982372	1.118450	0.921284	99
Es	1.829077	-0.960227	0.005168	99
Es	-2.305293	-2.626717	-0.254133	99
Es	1.340481	-0.408354	0.038360	99
Es	0.645495	-0.542372	0.318448	99
Es	-0.345181	-1.167556	-0.087648	99
Es	1.584346	0.289470	0.125874	99
Es	-1.339005	-1.898854	0.151727	99
Es	0.008499	-0.543195	-0.016338	99
Es	0.668180	-0.476690	-0.319867	99
Es	-2.475196	-1.395578	-0.113483	99
Es	-1.205074	0.887415	-0.395842	99
Es	-0.976777	0.847626	0.796275	99
Es	2.300787	1.204139	-0.246930	99
Es	-0.674847	0.785650	0.118027	99
Es	0.469182	1.781171	-0.076124	99
Es	-0.116490	1.295741	0.029028	99
43
Properties=species:S:1:pos:R:3:Z:I:1 energy=-270.95769032403405 field_type=dipole dipole="0.000000 0.000000 0.000000" charge=0
C	-2.004853	-1.957680	-0.178504	6
C	-0.676753	-1.799360	-0.160524	6
C	0.008627	-0.543180	-0.016314	6
C	1.340357	-0.408380	0.038346	6
C	1.753847	1.013640	0.221756	6
C	0.469177	1.781200	-0.076134	6
C	-0.674873	0.785670	0.118026	6
H	-2.437203	-2.947390	-0.290524	1
H	-2.695113	-1.126260	-0.081924	1
H	-0.051683	-2.686240	-0.258834	1
H	2.051707	-1.221640	-0.011434	1
H	2.095607	1.180580	1.248356	1
H	2.552547	1.298300	-0.469344	1
H	0.480737	2.132170	-1.116534	1
H	0.359057	2.665050	0.560536	1
H	-1.448673	0.944870	-0.639694	1
H	-1.122513	0.888650	1.112746	1
Es	-2.305297	-2.626716	-0.254129	99
Es	-0.244215	-2.397078	-0.226968	99
Es	2.300812	1.204105	-0.246886	99
Es	-2.004952	-1.957693	-0.178505	99
Es	1.584398	0.289505	0.125857	99
Es	0.645489	-0.542407	0.318338	99
Es	1.982354	1.118455	0.921262	99
Es	-1.339945	-1.826998	-0.487742	99
Es	-1.339014	-1.898824	0.151695	99
Es	0.008517	-0.543187	-0.016316	99
Es	-0.116486	1.295804	0.029196	99
Es	0.477927	2.016235	-0.790455	99
Es	-2.475193	-1.395568	-0.113467	99
Es	-1.205003	0.887378	-0.395957	99
Es	1.829029	-0.960272	0.005159	99
Es	-0.345145	-1.167618	-0.087720	99
Es	1.753825	1.013615	0.221750	99
Es	0.393487	2.387942	0.361486	99
Es	1.123398	1.413383	0.081753	99
Es	-0.676651	-1.799341	-0.160522	99
Es	-0.367714	0.100008	0.042831	99
Es	1.340467	-0.408354	0.038337	99
Es	-0.674841	0.785648	0.118023	99
Es	-0.976906	0.847623	0.796166	99
Es	0.469179	1.781169	-0.076124	99
Es	0.668177	-0.476653	-0.319767	99
43
Properties=species:S:1:pos:R:3:Z:I:1 energy=-270.95769032403405 field_type=dipole dipole="0.000000 0.000000 0.000000" charge=0
C	-2.004853	-1.957680	-0.178504	6
C	-0.676753	-1.799360	-0.160524	6
C	0.008627	-0.543180	-0.016314	6
C	1.340357	-0.408380	0.038346	6
C	1.753847	1.013640	0.221756	6
C	0.469177	1.781200	-0.076134	6
C	-0.674873	0.785670	0.118026	6
H	-2.437203	-2.947390	-0.290524	1
H	-2.695113	-1.126260	-0.081924	1
H	-0.051683	-2.686240	-0.258834	1
H	2.051707	-1.221640	-0.011434	1
H	2.095607	1.180580	1.248356	1
H	2.552547	1.298300	-0.469344	1
H	0.480737	2.132170	-1.116534	1
H	0.359057	2.665050	0.560536	1
H	-1.448673	0.944870	-0.639694	1
H	-1.122513	0.888650	1.112746	1
Es	0.008499	-0.543190	-0.016316	99
Es	-1.339941	-1.827057	-0.487711	99
Es	-0.676651	-1.799340	-0.160523	99
Es	-0.977022	0.847660	0.796069	99
Es	-1.204913	0.887379	-0.396020	99
Es	0.469179	1.781171	-0.076124	99
Es	0.477975	2.016191	-0.790406	99
Es	1.982377	1.118348	0.921237	99
Es	1.753825	1.013615	0.221750	99
Es	1.123436	1.413530	0.081924	99
Es	1.340484	-0.408353	0.038358	99
Es	-0.116357	1.295696	0.029198	99
Es	-0.674840	0.785648	0.118022	99
Es	-0.244134	-2.396993	-0.227033	99
Es	-2.475214	-1.395573	-0.113488	99
Es	-2.305276	-2.626709	-0.254120	99
Es	-0.345178	-1.167497	-0.087744	99
Es	-2.004954	-1.957692	-0.178505	99
Es	0.668052	-0.476471	-0.319785	99
Es	-1.339006	-1.898926	0.151696	99
Es	1.584571	0.289421	0.125968	99
Es	1.828944	-0.960339	0.005028	99
Es	2.300796	1.204181	-0.246831	99
Es	-0.367854	0.100016	0.043009	99
Es	0.393306	2.387960	0.361392	99
Es	0.645591	-0.542513	0.318251	99
43
Properties=species:S:1:pos:R:3:Z:I:1 energy=-270.95769032403405 field_type=dipole dipole="0.000000 0.000000 0.000000" charge=0
C	-2.004853	-1.957680	-0.178504	6
C	-0.676753	-1.799360	-0.160524	6
C	0.008627	-0.543180	-0.016314	6
C	1.340357	-0.408380	0.038346	6
C	1.753847	1.013640	0.221756	6
C	0.469177	1.781200	-0.076134	6
C	-0.674873	0.785670	0.118026	6
H	-2.437203	-2.947390	-0.290524	1
H	-2.695113	-1.126260	-0.081924	1
H	-0.051683	-2.686240	-0.258834	1
H	2.051707	-1.221640	-0.011434	1
H	2.095607	1.180580	1.248356	1
H	2.552547	1.298300	-0.469344	1
H	0.480737	2.132170	-1.116534	1
H	0.359057	2.665050	0.560536	1
H	-1.448673	0.944870	-0.639694	1
H	-1.122513	0.888650	1.112746	1
Es	0.393425	2.387901	0.361386	99
Es	-1.339943	-1.826981	-0.487656	99
Es	-0.367853	0.100102	0.042733	99
Es	1.340480	-0.408353	0.038357	99
Es	-1.205037	0.887351	-0.395865	99
Es	1.828969	-0.960331	0.005087	99
Es	-0.244218	-2.397115	-0.226981	99
Es	-0.676651	-1.799341	-0.160521	99
Es	-1.339018	-1.898817	0.151556	99
Es	-2.305298	-2.626755	-0.254122	99
Es	0.645502	-0.542437	0.318164	99
Es	0.469179	1.781171	-0.076124	99
Es	-2.475184	-1.395549	-0.113440	99
Es	-0.345066	-1.167580	-0.087654	99
Es	1.753825	1.013615	0.221750	99
Es	2.300854	1.204082	-0.246815	99
Es	0.477933	2.016278	-0.790325	99
Es	-0.116488	1.295840	0.029144	99
Es	0.008499	-0.543189	-0.016318	99
Es	-0.976891	0.847548	0.796082	99
Es	1.982346	1.118386	0.921193	99
Es	1.123461	1.413529	0.081758	99
Es	0.668187	-0.476759	-0.319501	99
Es	-0.674841	0.785648	0.118022	99
Es	1.584478	0.289609	0.125886	99
Es	-2.004954	-1.957691	-0.178504	99
43
Properties=species:S:1:pos:R:3:Z:I:1 energy=-270.95769032403405 field_type=dipole dipole="0.000000 0.000000 0.000000" charge=0
C	-2.004853	-1.957680	-0.178504	6
C	-0.676753	-1.799360	-0.160524	6
C	0.008627	-0.543180	-0.016314	6
C	1.340357	-0.408380	0.038346	6
C	1.753847	1.013640	0.221756	6
C	0.469177	1.781200	-0.076134	6
C	-0.674873	0.785670	0.118026	6
H	-2.437203	-2.947390	-0.290524	1
H	-2.695113	-1.126260	-0.081924	1
H	-0.051683	-2.686240	-0.258834	1
H	2.051707	-1.221640	-0.011434	1
H	2.095607	1.180580	1.248356	1
H	2.552547	1.298300	-0.469344	1
H	0.480737	2.132170	-1.116534	1
H	0.359057	2.665050	0.560536	1
H	-1.448673	0.944870	-0.639694	1
H	-1.122513	0.888650	1.112746	1
Es	1.753824	1.013615	0.221750	99
Es	0.469178	1.781170	-0.076124	99
Es	0.008501	-0.543190	-0.016318	99
Es	1.584507	0.289677	0.125912	99
Es	0.393427	2.387895	0.361332	99
Es	-0.116502	1.295888	0.029146	99
Es	-0.674840	0.785649	0.118022	99
Es	2.300848	1.204037	-0.246816	99
Es	0.668194	-0.476786	-0.319371	99
Es	-0.367899	0.100137	0.042743	99
Es	1.982374	1.118381	0.921176	99
Es	1.123475	1.413560	0.081749	99
Es	-0.244217	-2.397133	-0.226982	99
Es	-0.976909	0.847531	0.796050	99
Es	-1.205028	0.887331	-0.395833	99
Es	-1.339019	-1.898794	0.151519	99
Es	1.340481	-0.408354	0.038357	99
Es	0.477918	2.016278	-0.790282	99
Es	-0.676650	-1.799340	-0.160522	99
Es	-0.345037	-1.167576	-0.087668	99
Es	-2.004952	-1.957691	-0.178505	99
Es	-1.339949	-1.826985	-0.487593	99
Es	0.645504	-0.542458	0.318071	99
Es	-2.475192	-1.395538	-0.113455	99
Es	1.828941	-0.960365	0.005064	99
Es	-2.305284	-2.626775	-0.254127	99
43
Properties=species:S:1:pos:R:3:Z:I:1 energy=-270.95769032403405 field_type=dipole dipole="0.000000 0.000000 0.000000" charge=0
C	-2.004853	-1.957680	-0.178504	6
C	-0.676753	-1.799360	-0.160524	6
C	0.008627	-0.543180	-0.016314	6
C	1.340357	-0.408380	0.038346	6
C	1.753847	1.013640	0.221756	6
C	0.469177	1.781200	-0.076134	6
C	-0.674873	0.785670	0.118026	6
H	-2.437203	-2.947390	-0.290524	1
H	-2.695113	-1.126260	-0.081924	1
H	-0.051683	-2.686240	-0.258834	1
H	2.051707	-1.221640	-0.011434	1
H	2.095607	1.180580	1.248356	1
H	2.552547	1.298300	-0.469344	1
H	0.480737	2.132170	-1.116534	1
H	0.359057	2.665050	0.560536	1
H	-1.448673	0.944870	-0.639694	1
H	-1.122513	0.888650	1.112746	1
Es	-1.205019	0.887328	-0.395821	99
Es	-1.339940	-1.827044	-0.487517	99
Es	-0.345002	-1.167547	-0.087711	99
Es	-0.116581	1.295911	0.029131	99
Es	-0.244225	-2.397147	-0.227021	99
Es	0.393461	2.387898	0.361288	99
Es	-1.338992	-1.898840	0.151658	99
Es	1.123532	1.413593	0.081889	99
Es	-2.475201	-1.395550	-0.113538	99
Es	1.340479	-0.408352	0.038356	99
Es	-0.976918	0.847512	0.796074	99
Es	1.753823	1.013617	0.221749	99
Es	1.584538	0.289485	0.125996	99
Es	2.300988	1.204213	-0.246745	99
Es	0.668213	-0.476825	-0.319193	99
Es	1.828886	-0.960400	0.005000	99
Es	-2.004962	-1.957691	-0.178499	99
Es	-0.674840	0.785650	0.118022	99
Es	0.469178	1.781172	-0.076126	99
Es	0.477909	2.016281	-0.790216	99
Es	-0.367915	0.100214	0.042679	99
Es	1.982234	1.118377	0.920864	99
Es	0.645491	-0.542484	0.318006	99
Es	-0.676651	-1.799340	-0.160522	99
Es	-2.305292	-2.626681	-0.254191	99
Es	0.008501	-0.543189	-0.016318	99
