45
Properties=species:S:1:pos:R:3:Z:I:1 energy=-288.12342085574414 field_type=dipole dipole="0.000000 0.000000 0.000000" charge=0
C	-1.869746	-0.037908	0.479762	6
N	-0.519426	-0.066648	1.032682	7
C	0.255984	1.128922	0.664112	6
C	0.710734	1.184212	-0.806808	6
C	1.209994	-0.140238	-1.299399	6
C	0.974724	-1.262608	-0.607788	6
C	0.196664	-1.301388	0.679062	6
H	-2.397516	0.862752	0.813572	1
H	-2.451966	-0.886328	0.857842	1
H	-1.891146	-0.066648	-0.613848	1
H	1.144734	1.165332	1.308212	1
H	-0.309786	2.037932	0.903522	1
H	1.508774	1.929302	-0.902228	1
H	-0.115626	1.507372	-1.450208	1
H	1.778294	-0.167868	-2.224888	1
H	1.370964	-2.207348	-0.968188	1
H	-0.498526	-2.149968	0.647482	1
H	0.902874	-1.528868	1.487112	1
Es	0.147935	1.396041	-1.245867	99
Es	1.371602	-0.656060	-0.787314	99
Es	1.209996	-0.140122	-1.299443	99
Es	0.710739	1.184168	-0.806805	99
Es	-0.555584	-0.063507	1.377474	99
Es	0.871860	1.146357	1.098397	99
Es	-0.186698	0.443187	0.830248	99
Es	-1.882776	-0.057118	-0.277232	99
Es	0.582142	-1.272645	0.022092	99
Es	-0.519371	-0.066644	1.031973	99
Es	-1.869637	-0.037908	0.479807	99
Es	-0.140444	1.747880	0.821523	99
Es	-1.094411	-0.055154	0.749455	99
Es	1.254650	1.688195	-0.870516	99
Es	0.814566	-0.751024	-1.127344	99
Es	1.595406	-0.150222	-1.931195	99
Es	0.689132	-1.454494	1.216582	99
Es	0.255921	1.128806	0.664090	99
Es	-2.223888	0.584028	0.702833	99
Es	-0.206658	-0.595199	0.835748	99
Es	0.479949	1.146168	-0.087111	99
Es	0.962769	0.521255	-1.054752	99
Es	-2.262131	-0.623842	0.733262	99
Es	-0.280507	-1.871938	0.647493	99
Es	0.196628	-1.301269	0.679036	99
Es	0.974689	-1.262699	-0.607716	99
Es	1.239856	-1.912910	-0.843704	99
45
Properties=species:S:1:pos:R:3:Z:I:1 energy=-288.12342085574414 field_type=dipole dipole="0.000000 0.000000 0.000000" charge=0
C	-1.869746	-0.037908	0.479762	6
N	-0.519426	-0.066648	1.032682	7
C	0.255984	1.128922	0.664112	6
C	0.710734	1.184212	-0.806808	6
C	1.209994	-0.140238	-1.299399	6
C	0.974724	-1.262608	-0.607788	6
C	0.196664	-1.301388	0.679062	6
H	-2.397516	0.862752	0.813572	1
H	-2.451966	-0.886328	0.857842	1
H	-1.891146	-0.066648	-0.613848	1
H	1.144734	1.165332	1.308212	1
H	-0.309786	2.037932	0.903522	1
H	1.508774	1.929302	-0.902228	1
H	-0.115626	1.507372	-1.450208	1
H	1.778294	-0.167868	-2.224888	1
H	1.370964	-2.207348	-0.968188	1
H	-0.498526	-2.149968	0.647482	1
H	0.902874	-1.528868	1.487112	1
Es	-0.186882	0.442990	0.829870	99
Es	0.710739	1.184169	-0.806804	99
Es	1.254652	1.688264	-0.870531	99
Es	1.371622	-0.656172	-0.787467	99
Es	1.595304	-0.150333	-1.931266	99
Es	-0.280495	-1.871909	0.647494	99
Es	0.196628	-1.301270	0.679036	99
Es	-0.519373	-0.066654	1.031982	99
Es	0.255922	1.128805	0.664092	99
Es	0.871915	1.146456	1.098338	99
Es	-2.223962	0.583983	0.702890	99
Es	-0.206778	-0.594953	0.835350	99
Es	0.582220	-1.272473	0.022220	99
Es	0.962794	0.521318	-1.054849	99
Es	1.239727	-1.913020	-0.843665	99
Es	-0.140429	1.747835	0.821496	99
Es	0.689177	-1.454522	1.216572	99
Es	-1.094305	-0.055197	0.749650	99
Es	0.479798	1.146144	-0.087090	99
Es	0.814605	-0.750944	-1.127232	99
Es	-2.262078	-0.623915	0.733181	99
Es	-1.882803	-0.057038	-0.277185	99
Es	-0.555321	-0.063486	1.378100	99
Es	0.147990	1.395987	-1.245834	99
Es	1.209998	-0.140127	-1.299440	99
Es	-1.869631	-0.037909	0.479810	99
Es	0.974702	-1.262699	-0.607703	99
45
Properties=species:S:1:pos:R:3:Z:I:1 energy=-288.12342085574414 field_type=dipole dipole="0.000000 0.000000 0.000000" charge=0
C	-1.869746	-0.037908	0.479762	6
N	-0.519426	-0.066648	1.032682	7
C	0.255984	1.128922	0.664112	6
C	0.710734	1.184212	-0.806808	6
C	1.209994	-0.140238	-1.299399	6
C	0.974724	-1.262608	-0.607788	6
C	0.196664	-1.301388	0.679062	6
H	-2.397516	0.862752	0.813572	1
H	-2.451966	-0.886328	0.857842	1
H	-1.891146	-0.066648	-0.613848	1
H	1.144734	1.165332	1.308212	1
H	-0.309786	2.037932	0.903522	1
H	1.508774	1.929302	-0.902228	1
H	-0.115626	1.507372	-1.450208	1
H	1.778294	-0.167868	-2.224888	1
H	1.370964	-2.207348	-0.968188	1
H	-0.498526	-2.149968	0.647482	1
H	0.902874	-1.528868	1.487112	1
Es	1.209994	-0.140128	-1.299445	99
Es	0.962694	0.521392	-1.054699	99
Es	-1.869635	-0.037908	0.479808	99
Es	0.689126	-1.454515	1.216529	99
Es	1.371643	-0.656200	-0.787504	99
Es	-0.186629	0.443319	0.830443	99
Es	-0.206629	-0.595251	0.835935	99
Es	0.871951	1.146531	1.098411	99
Es	1.595213	-0.150297	-1.931301	99
Es	-0.555680	-0.063492	1.377129	99
Es	0.479780	1.146128	-0.087055	99
Es	1.239788	-1.912993	-0.843768	99
Es	0.710737	1.184170	-0.806806	99
Es	-1.094318	-0.055227	0.749505	99
Es	-0.280484	-1.871937	0.647514	99
Es	0.974695	-1.262696	-0.607714	99
Es	0.147992	1.395681	-1.245775	99
Es	0.582064	-1.272531	0.022210	99
Es	-2.223974	0.583961	0.702944	99
Es	1.254568	1.688493	-0.870693	99
Es	-0.140440	1.747784	0.821389	99
Es	-0.519368	-0.066651	1.031990	99
Es	0.815025	-0.750969	-1.127094	99
Es	0.196627	-1.301269	0.679036	99
Es	-2.262084	-0.623895	0.733102	99
Es	0.255921	1.128807	0.664090	99
Es	-1.882839	-0.056977	-0.277164	99
45
Properties=species:S:1:pos:R:3:Z:I:1 energy=-288.12342085574414 field_type=dipole dipole="0.000000 0.000000 0.000000" charge=0
C	-1.869746	-0.037908	0.479762	6
N	-0.519426	-0.066648	1.032682	7
C	0.255984	1.128922	0.664112	6
C	0.710734	1.184212	-0.806808	6
C	1.209994	-0.140238	-1.299399	6
C	0.974724	-1.262608	-0.607788	6
C	0.196664	-1.301388	0.679062	6
H	-2.397516	0.862752	0.813572	1
H	-2.451966	-0.886328	0.857842	1
H	-1.891146	-0.066648	-0.613848	1
H	1.144734	1.165332	1.308212	1
H	-0.309786	2.037932	0.903522	1
H	1.508774	1.929302	-0.902228	1
H	-0.115626	1.507372	-1.450208	1
H	1.778294	-0.167868	-2.224888	1
H	1.370964	-2.207348	-0.968188	1
H	-0.498526	-2.149968	0.647482	1
H	0.902874	-1.528868	1.487112	1
Es	-1.882847	-0.057089	-0.277135	99
Es	0.974694	-1.262698	-0.607713	99
Es	-2.223925	0.584049	0.702860	99
Es	1.239804	-1.912993	-0.843812	99
Es	-0.555831	-0.063658	1.377051	99
Es	-0.140387	1.747836	0.821499	99
Es	0.196629	-1.301273	0.679036	99
Es	-0.186624	0.443419	0.830608	99
Es	0.479820	1.146127	-0.087061	99
Es	0.255922	1.128808	0.664090	99
Es	0.710738	1.184173	-0.806803	99
Es	0.871830	1.146485	1.098335	99
Es	1.371380	-0.656273	-0.787705	99
Es	0.582083	-1.272487	0.022352	99
Es	0.689128	-1.454536	1.216529	99
Es	-1.094210	-0.055364	0.749401	99
Es	-1.869634	-0.037909	0.479807	99
Es	-0.206594	-0.595164	0.835971	99
Es	1.595307	-0.150408	-1.931232	99
Es	0.815073	-0.750968	-1.127083	99
Es	-0.280466	-1.871931	0.647479	99
Es	1.254662	1.688284	-0.870555	99
Es	-0.519372	-0.066638	1.031966	99
Es	0.962649	0.521523	-1.054748	99
Es	-2.262142	-0.623809	0.733152	99
Es	1.209995	-0.140125	-1.299439	99
Es	0.148054	1.395950	-1.245835	99
45
Properties=species:S:1:pos:R:3:Z:I:1 energy=-288.12342085574414 field_type=dipole dipole="0.000000 0.000000 0.000000" charge=0
C	-1.869746	-0.037908	0.479762	6
N	-0.519426	-0.066648	1.032682	7
C	0.255984	1.128922	0.664112	6
C	0.710734	1.184212	-0.806808	6
C	1.209994	-0.140238	-1.299399	6
C	0.974724	-1.262608	-0.607788	6
C	0.196664	-1.301388	0.679062	6
H	-2.397516	0.862752	0.813572	1
H	-2.451966	-0.886328	0.857842	1
H	-1.891146	-0.066648	-0.613848	1
H	1.144734	1.165332	1.308212	1
H	-0.309786	2.037932	0.903522	1
H	1.508774	1.929302	-0.902228	1
H	-0.115626	1.507372	-1.450208	1
H	1.778294	-0.167868	-2.224888	1
H	1.370964	-2.207348	-0.968188	1
H	-0.498526	-2.149968	0.647482	1
H	0.902874	-1.528868	1.487112	1
Es	-1.869635	-0.037909	0.479808	99
Es	0.974694	-1.262695	-0.607713	99
Es	0.710739	1.184169	-0.806804	99
Es	1.371258	-0.656287	-0.787766	99
Es	-0.186660	0.443377	0.830693	99
Es	-0.555598	-0.063567	1.376789	99
Es	1.595326	-0.150443	-1.931251	99
Es	0.582082	-1.272472	0.022353	99
Es	1.209996	-0.140124	-1.299443	99
Es	0.815172	-0.750948	-1.127019	99
Es	-0.206572	-0.595254	0.835930	99
Es	1.239850	-1.913012	-0.843829	99
Es	0.148125	1.395929	-1.245814	99
Es	-2.262112	-0.623857	0.733096	99
Es	0.871896	1.146548	1.098327	99
Es	0.479699	1.146157	-0.087015	99
Es	0.962618	0.521543	-1.054757	99
Es	1.254634	1.688292	-0.870609	99
Es	-0.519388	-0.066669	1.032002	99
Es	0.196628	-1.301272	0.679036	99
Es	0.255923	1.128808	0.664091	99
Es	0.689105	-1.454529	1.216467	99
Es	-0.280460	-1.871961	0.647527	99
Es	-1.094351	-0.055208	0.749675	99
Es	-0.140365	1.747774	0.821469	99
Es	-2.224000	0.583979	0.702862	99
Es	-1.882864	-0.057038	-0.277090	99
45
Properties=species:S:1:pos:R:3:Z:I:1 energy=-288.12342085574414 field_type=dipole dipole="0.000000 0.000000 0.000000" charge=0
C	-1.869746	-0.037908	0.479762	6
N	-0.519426	-0.066648	1.032682	7
C	0.255984	1.128922	0.664112	6
C	0.710734	1.184212	-0.806808	6
C	1.209994	-0.140238	-1.299399	6
C	0.974724	-1.262608	-0.607788	6
C	0.196664	-1.301388	0.679062	6
H	-2.397516	0.862752	0.813572	1
H	-2.451966	-0.886328	0.857842	1
H	-1.891146	-0.066648	-0.613848	1
H	1.144734	1.165332	1.308212	1
H	-0.309786	2.037932	0.903522	1
H	1.508774	1.929302	-0.902228	1
H	-0.115626	1.507372	-1.450208	1
H	1.778294	-0.167868	-2.224888	1
H	1.370964	-2.207348	-0.968188	1
H	-0.498526	-2.149968	0.647482	1
H	0.902874	-1.528868	1.487112	1
Es	0.479659	1.146210	-0.087017	99
Es	1.209993	-0.140125	-1.299439	99
Es	0.974692	-1.262695	-0.607717	99
Es	0.148192	1.395993	-1.245855	99
Es	0.815071	-0.751047	-1.127265	99
Es	0.710739	1.184168	-0.806804	99
Es	-0.555606	-0.063377	1.376216	99
Es	0.255923	1.128810	0.664091	99
Es	1.254654	1.688234	-0.870564	99
Es	-0.140311	1.747763	0.821533	99
Es	-0.280417	-1.871950	0.647530	99
Es	-1.869640	-0.037908	0.479807	99
Es	1.370679	-0.656334	-0.787981	99
Es	-0.519372	-0.066657	1.031973	99
Es	1.240150	-1.912966	-0.843705	99
Es	-2.223977	0.583965	0.702832	99
Es	-0.186662	0.443456	0.830719	99
Es	-0.206495	-0.595468	0.836305	99
Es	0.582079	-1.272464	0.022509	99
Es	-2.262179	-0.623906	0.733053	99
Es	-1.094484	-0.055251	0.749841	99
Es	0.689176	-1.454534	1.216461	99
Es	0.962705	0.521630	-1.054683	99
Es	0.196628	-1.301271	0.679037	99
Es	0.871862	1.146506	1.098318	99
Es	1.595522	-0.150483	-1.931142	99
Es	-1.882845	-0.056969	-0.277035	99
45
Properties=species:S:1:pos:R:3:Z:I:1 energy=-288.12342085574414 field_type=dipole dipole="0.000000 0.000000 0.000000" charge=0
C	-1.869746	-0.037908	0.479762	6
N	-0.519426	-0.066648	1.032682	7
C	0.255984	1.128922	0.664112	6
C	0.710734	1.184212	-0.806808	6
C	1.209994	-0.140238	-1.299399	6
C	0.974724	-1.262608	-0.607788	6
C	0.196664	-1.301388	0.679062	6
H	-2.397516	0.862752	0.813572	1
H	-2.451966	-0.886328	0.857842	1
H	-1.891146	-0.066648	-0.613848	1
H	1.144734	1.165332	1.308212	1
H	-0.309786	2.037932	0.903522	1
H	1.508774	1.929302	-0.902228	1
H	-0.115626	1.507372	-1.450208	1
H	1.778294	-0.167868	-2.224888	1
H	1.370964	-2.207348	-0.968188	1
H	-0.498526	-2.149968	0.647482	1
H	0.902874	-1.528868	1.487112	1
Es	-1.882921	-0.056988	-0.277046	99
Es	0.974694	-1.262696	-0.607714	99
Es	0.962548	0.521682	-1.054890	99
Es	0.815296	-0.750984	-1.127088	99
Es	0.689066	-1.454619	1.216509	99
Es	0.871820	1.146538	1.098316	99
Es	-0.280420	-1.871910	0.647436	99
Es	0.710739	1.184168	-0.806805	99
Es	1.210005	-0.140127	-1.299430	99
Es	0.196628	-1.301273	0.679036	99
Es	-1.869638	-0.037907	0.479807	99
Es	-2.262114	-0.623851	0.733042	99
Es	-0.555471	-0.063412	1.375933	99
Es	0.582107	-1.272468	0.022525	99
Es	1.595389	-0.150527	-1.931178	99
Es	-0.519372	-0.066658	1.031999	99
Es	-0.140306	1.747741	0.821544	99
Es	0.255922	1.128810	0.664091	99
Es	0.479767	1.146165	-0.086994	99
Es	-2.224016	0.583947	0.702888	99
Es	1.239969	-1.912988	-0.843808	99
Es	1.370986	-0.656324	-0.787872	99
Es	0.148148	1.395969	-1.245764	99
Es	1.254612	1.688279	-0.870626	99
Es	-1.094591	-0.055286	0.750015	99
Es	-0.206507	-0.595479	0.836338	99
Es	-0.186603	0.443528	0.830751	99
45
Properties=species:S:1:pos:R:3:Z:I:1 energy=-288.12342085574414 field_type=dipole dipole="0.000000 0.000000 0.000000" charge=0
C	-1.869746	-0.037908	0.479762	6
N	-0.519426	-0.066648	1.032682	7
C	0.255984	1.128922	0.664112	6
C	0.710734	1.184212	-0.806808	6
C	1.209994	-0.140238	-1.299399	6
C	0.974724	-1.262608	-0.607788	6
C	0.196664	-1.301388	0.679062	6
H	-2.397516	0.862752	0.813572	1
H	-2.451966	-0.886328	0.857842	1
H	-1.891146	-0.066648	-0.613848	1
H	1.144734	1.165332	1.308212	1
H	-0.309786	2.037932	0.903522	1
H	1.508774	1.929302	-0.902228	1
H	-0.115626	1.507372	-1.450208	1
H	1.778294	-0.167868	-2.224888	1
H	1.370964	-2.207348	-0.968188	1
H	-0.498526	-2.149968	0.647482	1
H	0.902874	-1.528868	1.487112	1
Es	0.148186	1.395896	-1.245853	99
Es	-2.224015	0.583937	0.702867	99
Es	-1.882919	-0.056957	-0.277005	99
Es	-0.280366	-1.871992	0.647671	99
Es	-0.519375	-0.066669	1.031992	99
Es	0.710739	1.184168	-0.806804	99
Es	-0.140293	1.747698	0.821503	99
Es	1.595332	-0.150572	-1.931238	99
Es	0.196631	-1.301276	0.679037	99
Es	-0.186758	0.442966	0.830184	99
Es	0.962605	0.521751	-1.054725	99
Es	1.370957	-0.656356	-0.787970	99
Es	-1.869632	-0.037908	0.479809	99
Es	1.239965	-1.912986	-0.843911	99
Es	-0.554509	-0.062996	1.375943	99
Es	0.815524	-0.750943	-1.126899	99
Es	-0.206683	-0.595496	0.836216	99
Es	0.871776	1.146606	1.098346	99
Es	1.209996	-0.140122	-1.299440	99
Es	0.974694	-1.262697	-0.607713	99
Es	1.254579	1.688298	-0.870618	99
Es	0.479735	1.146221	-0.086995	99
Es	0.581813	-1.272585	0.022439	99
Es	-2.262141	-0.623898	0.733029	99
Es	0.255923	1.128810	0.664091	99
Es	0.689224	-1.454463	1.216359	99
Es	-1.095252	-0.055102	0.750701	99
45
Properties=species:S:1:pos:R:3:Z:I:1 energy=-288.12342085574414 field_type=dipole dipole="0.000000 0.000000 0.000000" charge=0
C	-1.869746	-0.037908	0.479762	6
N	-0.519426	-0.066648	1.032682	7
C	0.255984	1.128922	0.664112	6
C	0.710734	1.184212	-0.806808	6
C	1.209994	-0.140238	-1.299399	6
C	0.974724	-1.262608	-0.607788	6
C	0.196664	-1.301388	0.679062	6
H	-2.397516	0.862752	0.813572	1
H	-2.451966	-0.886328	0.857842	1
H	-1.891146	-0.066648	-0.613848	1
H	1.144734	1.165332	1.308212	1
H	-0.309786	2.037932	0.903522	1
H	1.508774	1.929302	-0.902228	1
H	-0.115626	1.507372	-1.450208	1
H	1.778294	-0.167868	-2.224888	1
H	1.370964	-2.207348	-0.968188	1
H	-0.498526	-2.149968	0.647482	1
H	0.902874	-1.528868	1.487112	1
Es	0.974697	-1.262700	-0.607710	99
Es	-1.882953	-0.057090	-0.276970	99
Es	0.815644	-0.750900	-1.126794	99
Es	-2.223955	0.583993	0.702735	99
Es	1.239868	-1.913043	-0.843958	99
Es	0.255924	1.128811	0.664091	99
Es	-2.262229	-0.623788	0.733113	99
Es	1.209992	-0.140125	-1.299442	99
Es	0.581870	-1.272452	0.022580	99
Es	-0.206377	-0.595484	0.836913	99
Es	-1.094805	-0.055424	0.750030	99
Es	-1.869631	-0.037909	0.479809	99
Es	0.689202	-1.454639	1.216406	99
Es	0.871745	1.146645	1.098340	99
Es	0.962533	0.521822	-1.054688	99
Es	0.196629	-1.301273	0.679037	99
Es	-0.555488	-0.063342	1.375215	99
Es	-0.280379	-1.871922	0.647460	99
Es	1.370867	-0.656407	-0.788095	99
Es	1.595377	-0.150640	-1.931252	99
Es	0.148244	1.395883	-1.245851	99
Es	1.254603	1.688262	-0.870694	99
Es	-0.186484	0.443602	0.831029	99
Es	0.710739	1.184169	-0.806804	99
Es	-0.519352	-0.066664	1.031947	99
Es	0.479721	1.146294	-0.086956	99
Es	-0.140264	1.747650	0.821524	99
45
Properties=species:S:1:pos:R:3:Z:I:1 energy=-288.12342085574414 field_type=dipole dipole="0.000000 0.000000 0.000000" charge=0
C	-1.869746	-0.037908	0.479762	6
N	-0.519426	-0.066648	1.032682	7
C	0.255984	1.128922	0.664112	6
C	0.710734	1.184212	-0.806808	6
C	1.209994	-0.140238	-1.299399	6
C	0.974724	-1.262608	-0.607788	6
C	0.196664	-1.301388	0.679062	6
H	-2.397516	0.862752	0.813572	1
H	-2.451966	-0.886328	0.857842	1
H	-1.891146	-0.066648	-0.613848	1
H	1.144734	1.165332	1.308212	1
H	-0.309786	2.037932	0.903522	1
H	1.508774	1.929302	-0.902228	1
H	-0.115626	1.507372	-1.450208	1
H	1.778294	-0.167868	-2.224888	1
H	1.370964	-2.207348	-0.968188	1
H	-0.498526	-2.149968	0.647482	1
H	0.902874	-1.528868	1.487112	1
Es	0.148256	1.395876	-1.245838	99
Es	-2.262185	-0.623857	0.733021	99
Es	-0.140236	1.747655	0.821529	99
Es	0.479703	1.146271	-0.086973	99
Es	-1.094697	-0.055243	0.750190	99
Es	0.255924	1.128810	0.664091	99
Es	1.595356	-0.150657	-1.931256	99
Es	1.209993	-0.140127	-1.299439	99
Es	0.815812	-0.750915	-1.126764	99
Es	1.239958	-1.913007	-0.843985	99
Es	-0.519385	-0.066658	1.032010	99
Es	1.370760	-0.656441	-0.788169	99
Es	1.254597	1.688290	-0.870679	99
Es	0.871747	1.146633	1.098337	99
Es	-2.224018	0.583937	0.702796	99
Es	0.196630	-1.301274	0.679037	99
Es	0.689160	-1.454634	1.216398	99
Es	-1.869638	-0.037908	0.479807	99
Es	0.581846	-1.272445	0.022679	99
Es	-1.882962	-0.056992	-0.276934	99
Es	-0.206469	-0.595546	0.836583	99
Es	0.962481	0.521854	-1.054691	99
Es	0.710739	1.184169	-0.806804	99
Es	-0.555382	-0.063399	1.375331	99
Es	-0.280353	-1.871952	0.647439	99
Es	0.974694	-1.262696	-0.607714	99
Es	-0.186593	0.443586	0.831015	99
45
Properties=species:S:1:pos:R:3:Z:I:1 energy=-288.12342085574414 field_type=dipole dipole="0.000000 0.000000 0.000000" charge=0
C	-1.869746	-0.037908	0.479762	6
N	-0.519426	-0.066648	1.032682	7
C	0.255984	1.128922	0.664112	6
C	0.710734	1.184212	-0.806808	6
C	1.209994	-0.140238	-1.299399	6
C	0.974724	-1.262608	-0.607788	6
C	0.196664	-1.301388	0.679062	6
H	-2.397516	0.862752	0.813572	1
H	-2.451966	-0.886328	0.857842	1
H	-1.891146	-0.066648	-0.613848	1
H	1.144734	1.165332	1.308212	1
H	-0.309786	2.037932	0.903522	1
H	1.508774	1.929302	-0.902228	1
H	-0.115626	1.507372	-1.450208	1
H	1.778294	-0.167868	-2.224888	1
H	1.370964	-2.207348	-0.968188	1
H	-0.498526	-2.149968	0.647482	1
H	0.902874	-1.528868	1.487112	1
Es	-0.206449	-0.595250	0.836181	99
Es	0.871712	1.146696	1.098439	99
Es	0.974683	-1.262696	-0.607723	99
Es	1.595364	-0.150676	-1.931254	99
Es	-0.186707	0.443726	0.831149	99
Es	1.370626	-0.656455	-0.788222	99
Es	-2.224058	0.583945	0.702802	99
Es	0.962400	0.521924	-1.054699	99
Es	-2.262150	-0.623817	0.733005	99
Es	1.254598	1.688311	-0.870738	99
Es	-0.140223	1.747594	0.821439	99
Es	0.255925	1.128805	0.664091	99
Es	1.240048	-1.912997	-0.844006	99
Es	0.815980	-0.750924	-1.126733	99
Es	0.581579	-1.272532	0.022594	99
Es	-1.094912	-0.055265	0.750501	99
Es	0.148285	1.395844	-1.245796	99
Es	0.710738	1.184170	-0.806806	99
Es	-0.555067	-0.063785	1.375312	99
Es	0.689310	-1.454565	1.216253	99
Es	-1.869638	-0.037908	0.479807	99
Es	0.479779	1.146257	-0.086893	99
Es	-0.519373	-0.066663	1.032000	99
Es	0.196629	-1.301274	0.679038	99
Es	1.209996	-0.140134	-1.299437	99
Es	-1.882977	-0.057031	-0.276935	99
Es	-0.280361	-1.871970	0.647647	99
45
Properties=species:S:1:pos:R:3:Z:I:1 energy=-288.12342085574414 field_type=dipole dipole="0.000000 0.000000 0.000000" charge=0
C	-1.869746	-0.037908	0.479762	6
N	-0.519426	-0.066648	1.032682	7
C	0.255984	1.128922	0.664112	6
C	0.710734	1.184212	-0.806808	6
C	1.209994	-0.140238	-1.299399	6
C	0.974724	-1.262608	-0.607788	6
C	0.196664	-1.301388	0.679062	6
H	-2.397516	0.862752	0.813572	1
H	-2.451966	-0.886328	0.857842	1
H	-1.891146	-0.066648	-0.613848	1
H	1.144734	1.165332	1.308212	1
H	-0.309786	2.037932	0.903522	1
H	1.508774	1.929302	-0.902228	1
H	-0.115626	1.507372	-1.450208	1
H	1.778294	-0.167868	-2.224888	1
H	1.370964	-2.207348	-0.968188	1
H	-0.498526	-2.149968	0.647482	1
H	0.902874	-1.528868	1.487112	1
Es	-0.206454	-0.595633	0.836758	99
Es	1.370537	-0.656494	-0.788326	99
Es	-0.186595	0.443628	0.831059	99
Es	-0.519371	-0.066653	1.031991	99
Es	1.254589	1.688289	-0.870709	99
Es	0.974695	-1.262695	-0.607714	99
Es	0.816050	-0.750902	-1.126668	99
Es	1.209994	-0.140127	-1.299437	99
Es	-0.280312	-1.871958	0.647470	99
Es	0.148308	1.395855	-1.245845	99
Es	-0.140187	1.747620	0.821548	99
Es	0.962424	0.521988	-1.054667	99
Es	0.710739	1.184169	-0.806805	99
Es	0.581760	-1.272446	0.022750	99
Es	-0.555229	-0.063334	1.374882	99
Es	1.240022	-1.913015	-0.844043	99
Es	-2.262200	-0.623839	0.732989	99
Es	-1.869639	-0.037908	0.479807	99
Es	0.871684	1.146666	1.098328	99
Es	-1.882992	-0.057000	-0.276876	99
Es	-2.224043	0.583932	0.702762	99
Es	-1.094851	-0.055258	0.750478	99
Es	0.255925	1.128812	0.664091	99
Es	0.479702	1.146300	-0.086952	99
Es	0.196630	-1.301275	0.679037	99
Es	1.595377	-0.150750	-1.931241	99
Es	0.689176	-1.454641	1.216346	99
45
Properties=species:S:1:pos:R:3:Z:I:1 energy=-288.12342085574414 field_type=dipole dipole="0.000000 0.000000 0.000000" charge=0
C	-1.869746	-0.037908	0.479762	6
N	-0.519426	-0.066648	1.032682	7
C	0.255984	1.128922	0.664112	6
C	0.710734	1.184212	-0.806808	6
C	1.209994	-0.140238	-1.299399	6
C	0.974724	-1.262608	-0.607788	6
C	0.196664	-1.301388	0.679062	6
H	-2.397516	0.862752	0.813572	1
H	-2.451966	-0.886328	0.857842	1
H	-1.891146	-0.066648	-0.613848	1
H	1.144734	1.165332	1.308212	1
H	-0.309786	2.037932	0.903522	1
H	1.508774	1.929302	-0.902228	1
H	-0.115626	1.507372	-1.450208	1
H	1.778294	-0.167868	-2.224888	1
H	1.370964	-2.207348	-0.968188	1
H	-0.498526	-2.149968	0.647482	1
H	0.902874	-1.528868	1.487112	1
Es	0.255925	1.128812	0.664091	99
Es	1.209994	-0.140127	-1.299438	99
Es	1.595326	-0.150801	-1.931304	99
Es	-0.186597	0.443605	0.831021	99
Es	1.254593	1.688246	-0.870724	99
Es	0.148292	1.395895	-1.245831	99
Es	-0.280308	-1.871973	0.647522	99
Es	-1.869640	-0.037908	0.479807	99
Es	-0.140183	1.747626	0.821553	99
Es	-1.094867	-0.055314	0.750585	99
Es	-0.555116	-0.063290	1.374783	99
Es	-0.519382	-0.066653	1.032021	99
Es	0.689223	-1.454600	1.216330	99
Es	-2.224063	0.583902	0.702769	99
Es	0.581626	-1.272419	0.022741	99
Es	-0.206448	-0.595656	0.836794	99
Es	0.196631	-1.301275	0.679036	99
Es	0.816311	-0.750852	-1.126478	99
Es	1.239981	-1.913035	-0.844125	99
Es	0.962317	0.522013	-1.054682	99
Es	0.974688	-1.262694	-0.607708	99
Es	-2.262209	-0.623868	0.732939	99
Es	1.370533	-0.656531	-0.788398	99
Es	0.479740	1.146289	-0.086941	99
Es	0.710739	1.184169	-0.806805	99
Es	-1.883025	-0.056948	-0.276814	99
Es	0.871657	1.146717	1.098273	99
45
Properties=species:S:1:pos:R:3:Z:I:1 energy=-288.12342085574414 field_type=dipole dipole="0.000000 0.000000 0.000000" charge=0
C	-1.869746	-0.037908	0.479762	6
N	-0.519426	-0.066648	1.032682	7
C	0.255984	1.128922	0.664112	6
C	0.710734	1.184212	-0.806808	6
C	1.209994	-0.140238	-1.299399	6
C	0.974724	-1.262608	-0.607788	6
C	0.196664	-1.301388	0.679062	6
H	-2.397516	0.862752	0.813572	1
H	-2.451966	-0.886328	0.857842	1
H	-1.891146	-0.066648	-0.613848	1
H	1.144734	1.165332	1.308212	1
H	-0.309786	2.037932	0.903522	1
H	1.508774	1.929302	-0.902228	1
H	-0.115626	1.507372	-1.450208	1
H	1.778294	-0.167868	-2.224888	1
H	1.370964	-2.207348	-0.968188	1
H	-0.498526	-2.149968	0.647482	1
H	0.902874	-1.528868	1.487112	1
Es	0.974700	-1.262695	-0.607712	99
Es	0.196631	-1.301276	0.679038	99
Es	1.595404	-0.150778	-1.931261	99
Es	-0.140131	1.747549	0.821574	99
Es	-0.186646	0.443381	0.830766	99
Es	0.871640	1.146714	1.098327	99
Es	0.255925	1.128814	0.664092	99
Es	0.816317	-0.750924	-1.126619	99
Es	1.370358	-0.656559	-0.788480	99
Es	1.254497	1.688306	-0.870584	99
Es	-0.280283	-1.871968	0.647486	99
Es	-2.262178	-0.623839	0.733005	99
Es	1.209993	-0.140128	-1.299436	99
Es	-0.555503	-0.062688	1.374663	99
Es	-1.883036	-0.057023	-0.276847	99
Es	0.148358	1.395861	-1.245934	99
Es	0.581640	-1.272396	0.022842	99
Es	0.962467	0.522039	-1.054621	99
Es	-1.094599	-0.055236	0.750243	99
Es	0.689201	-1.454642	1.216310	99
Es	1.240071	-1.913015	-0.844043	99
Es	0.710740	1.184167	-0.806805	99
Es	0.479618	1.146316	-0.087044	99
Es	-0.206337	-0.596030	0.837483	99
Es	-0.519397	-0.066619	1.032026	99
Es	-1.869637	-0.037908	0.479808	99
Es	-2.224076	0.583909	0.702738	99
45
Properties=species:S:1:pos:R:3:Z:I:1 energy=-288.12342085574414 field_type=dipole dipole="0.000000 0.000000 0.000000" charge=0
C	-1.869746	-0.037908	0.479762	6
N	-0.519426	-0.066648	1.032682	7
C	0.255984	1.128922	0.664112	6
C	0.710734	1.184212	-0.806808	6
C	1.209994	-0.140238	-1.299399	6
C	0.974724	-1.262608	-0.607788	6
C	0.196664	-1.301388	0.679062	6
H	-2.397516	0.862752	0.813572	1
H	-2.451966	-0.886328	0.857842	1
H	-1.891146	-0.066648	-0.613848	1
H	1.144734	1.165332	1.308212	1
H	-0.309786	2.037932	0.903522	1
H	1.508774	1.929302	-0.902228	1
H	-0.115626	1.507372	-1.450208	1
H	1.778294	-0.167868	-2.224888	1
H	1.370964	-2.207348	-0.968188	1
H	-0.498526	-2.149968	0.647482	1
H	0.902874	-1.528868	1.487112	1
Es	1.209994	-0.140127	-1.299437	99
Es	0.962330	0.522145	-1.054643	99
Es	-1.095347	-0.055259	0.751324	99
Es	-1.883028	-0.056995	-0.276801	99
Es	0.871615	1.146715	1.098323	99
Es	1.240058	-1.913019	-0.844147	99
Es	1.254559	1.688280	-0.870747	99
Es	-0.280268	-1.871974	0.647455	99
Es	0.581632	-1.272427	0.022898	99
Es	-2.262234	-0.623828	0.732951	99
Es	0.974695	-1.262694	-0.607717	99
Es	-0.519353	-0.066660	1.032163	99
Es	0.479694	1.146357	-0.086923	99
Es	-0.186618	0.443746	0.831178	99
Es	1.370301	-0.656578	-0.788535	99
Es	1.595368	-0.150878	-1.931256	99
Es	0.689190	-1.454668	1.216290	99
Es	0.196631	-1.301276	0.679038	99
Es	0.816443	-0.750866	-1.126476	99
Es	0.710738	1.184168	-0.806805	99
Es	0.148382	1.395834	-1.245855	99
Es	-2.224054	0.583921	0.702724	99
Es	-0.140121	1.747565	0.821569	99
Es	-0.206462	-0.595711	0.836843	99
Es	0.255926	1.128813	0.664091	99
Es	-1.869641	-0.037907	0.479808	99
Es	-0.554694	-0.063347	1.373704	99
45
Properties=species:S:1:pos:R:3:Z:I:1 energy=-288.12342085574414 field_type=dipole dipole="0.000000 0.000000 0.000000" charge=0
C	-1.869746	-0.037908	0.479762	6
N	-0.519426	-0.066648	1.032682	7
C	0.255984	1.128922	0.664112	6
C	0.710734	1.184212	-0.806808	6
C	1.209994	-0.140238	-1.299399	6
C	0.974724	-1.262608	-0.607788	6
C	0.196664	-1.301388	0.679062	6
H	-2.397516	0.862752	0.813572	1
H	-2.451966	-0.886328	0.857842	1
H	-1.891146	-0.066648	-0.613848	1
H	1.144734	1.165332	1.308212	1
H	-0.309786	2.037932	0.903522	1
H	1.508774	1.929302	-0.902228	1
H	-0.115626	1.507372	-1.450208	1
H	1.778294	-0.167868	-2.224888	1
H	1.370964	-2.207348	-0.968188	1
H	-0.498526	-2.149968	0.647482	1
H	0.902874	-1.528868	1.487112	1
Es	0.710739	1.184170	-0.806804	99
Es	0.581712	-1.272489	0.023002	99
Es	0.962322	0.522204	-1.054605	99
Es	-0.280246	-1.871960	0.647422	99
Es	1.254593	1.688263	-0.870664	99
Es	-1.883020	-0.057029	-0.276746	99
Es	1.595397	-0.150912	-1.931269	99
Es	0.479602	1.146329	-0.086946	99
Es	1.240077	-1.912990	-0.844268	99
Es	-2.262241	-0.623843	0.732941	99
Es	-0.519372	-0.066652	1.031983	99
Es	0.255926	1.128812	0.664090	99
Es	1.370157	-0.656601	-0.788619	99
Es	0.689162	-1.454700	1.216294	99
Es	-0.186592	0.443713	0.831238	99
Es	-1.095022	-0.055230	0.750848	99
Es	-0.140096	1.747541	0.821574	99
Es	-0.555057	-0.063262	1.374148	99
Es	-1.869641	-0.037906	0.479806	99
Es	0.974696	-1.262692	-0.607716	99
Es	0.148454	1.395866	-1.245917	99
Es	-0.206424	-0.595754	0.837021	99
Es	0.816487	-0.750807	-1.126380	99
Es	1.209994	-0.140129	-1.299435	99
Es	-2.224094	0.583928	0.702663	99
Es	0.196630	-1.301275	0.679038	99
Es	0.871595	1.146736	1.098319	99
45
Properties=species:S:1:pos:R:3:Z:I:1 energy=-288.12342085574414 field_type=dipole dipole="0.000000 0.000000 0.000000" charge=0
C	-1.869746	-0.037908	0.479762	6
N	-0.519426	-0.066648	1.032682	7
C	0.255984	1.128922	0.664112	6
C	0.710734	1.184212	-0.806808	6
C	1.209994	-0.140238	-1.299399	6
C	0.974724	-1.262608	-0.607788	6
C	0.196664	-1.301388	0.679062	6
H	-2.397516	0.862752	0.813572	1
H	-2.451966	-0.886328	0.857842	1
H	-1.891146	-0.066648	-0.613848	1
H	1.144734	1.165332	1.308212	1
H	-0.309786	2.037932	0.903522	1
H	1.508774	1.929302	-0.902228	1
H	-0.115626	1.507372	-1.450208	1
H	1.778294	-0.167868	-2.224888	1
H	1.370964	-2.207348	-0.968188	1
H	-0.498526	-2.149968	0.647482	1
H	0.902874	-1.528868	1.487112	1
Es	0.816627	-0.750853	-1.126409	99
Es	-0.554939	-0.063268	1.373674	99
Es	-2.224068	0.583912	0.702693	99
Es	0.974695	-1.262693	-0.607715	99
Es	-1.869641	-0.037908	0.479807	99
Es	0.479683	1.146369	-0.086906	99
Es	1.209993	-0.140129	-1.299436	99
Es	0.196631	-1.301277	0.679038	99
Es	0.871569	1.146750	1.098318	99
Es	1.254572	1.688288	-0.870779	99
Es	-2.262257	-0.623831	0.732929	99
Es	1.240124	-1.913013	-0.844183	99
Es	-0.519383	-0.066636	1.032061	99
Es	-0.186571	0.443772	0.831318	99
Es	0.689198	-1.454701	1.216259	99
Es	-0.206399	-0.595807	0.837177	99
Es	-1.095148	-0.055271	0.751004	99
Es	0.962282	0.522259	-1.054589	99
Es	-0.280233	-1.871970	0.647441	99
Es	1.595421	-0.150946	-1.931268	99
Es	0.255926	1.128814	0.664092	99
Es	-1.883062	-0.056988	-0.276731	99
Es	1.370049	-0.656626	-0.788688	99
Es	0.581584	-1.272411	0.023001	99
Es	0.710739	1.184169	-0.806805	99
Es	-0.140078	1.747526	0.821583	99
Es	0.148423	1.395799	-1.245868	99
45
Properties=species:S:1:pos:R:3:Z:I:1 energy=-288.12342085574414 field_type=dipole dipole="0.000000 0.000000 0.000000" charge=0
C	-1.869746	-0.037908	0.479762	6
N	-0.519426	-0.066648	1.032682	7
C	0.255984	1.128922	0.664112	6
C	0.710734	1.184212	-0.806808	6
C	1.209994	-0.140238	-1.299399	6
C	0.974724	-1.262608	-0.607788	6
C	0.196664	-1.301388	0.679062	6
H	-2.397516	0.862752	0.813572	1
H	-2.451966	-0.886328	0.857842	1
H	-1.891146	-0.066648	-0.613848	1
H	1.144734	1.165332	1.308212	1
H	-0.309786	2.037932	0.903522	1
H	1.508774	1.929302	-0.902228	1
H	-0.115626	1.507372	-1.450208	1
H	1.778294	-0.167868	-2.224888	1
H	1.370964	-2.207348	-0.968188	1
H	-0.498526	-2.149968	0.647482	1
H	0.902874	-1.528868	1.487112	1
Es	-0.140092	1.747488	0.821632	99
Es	-1.883133	-0.056969	-0.276681	99
Es	1.369957	-0.656656	-0.788756	99
Es	-0.280196	-1.871988	0.647495	99
Es	-1.094739	-0.055295	0.750532	99
Es	1.595421	-0.150983	-1.931248	99
Es	0.710738	1.184170	-0.806805	99
Es	0.816752	-0.750853	-1.126360	99
Es	-1.869641	-0.037908	0.479807	99
Es	-0.206443	-0.595510	0.836886	99
Es	-0.519396	-0.066640	1.032113	99
Es	-0.555229	-0.063508	1.374248	99
Es	-0.186544	0.443766	0.831398	99
Es	0.962292	0.522304	-1.054587	99
Es	1.209993	-0.140128	-1.299435	99
Es	0.974695	-1.262692	-0.607716	99
Es	0.871565	1.146767	1.098311	99
Es	1.254549	1.688316	-0.870760	99
Es	-2.262251	-0.623840	0.732925	99
Es	0.479663	1.146407	-0.086953	99
Es	1.240153	-1.913003	-0.844235	99
Es	0.196631	-1.301278	0.679038	99
Es	-2.224068	0.583898	0.702705	99
Es	0.255923	1.128810	0.664091	99
Es	0.689248	-1.454684	1.216189	99
Es	0.581466	-1.272451	0.023039	99
Es	0.148423	1.395791	-1.245856	99
45
Properties=species:S:1:pos:R:3:Z:I:1 energy=-288.12342085574414 field_type=dipole dipole="0.000000 0.000000 0.000000" charge=0
C	-1.869746	-0.037908	0.479762	6
N	-0.519426	-0.066648	1.032682	7
C	0.255984	1.128922	0.664112	6
C	0.710734	1.184212	-0.806808	6
C	1.209994	-0.140238	-1.299399	6
C	0.974724	-1.262608	-0.607788	6
C	0.196664	-1.301388	0.679062	6
H	-2.397516	0.862752	0.813572	1
H	-2.451966	-0.886328	0.857842	1
H	-1.891146	-0.066648	-0.613848	1
H	1.144734	1.165332	1.308212	1
H	-0.309786	2.037932	0.903522	1
H	1.508774	1.929302	-0.902228	1
H	-0.115626	1.507372	-1.450208	1
H	1.778294	-0.167868	-2.224888	1
H	1.370964	-2.207348	-0.968188	1
H	-0.498526	-2.149968	0.647482	1
H	0.902874	-1.528868	1.487112	1
Es	-1.095066	-0.055290	0.750950	99
Es	0.255926	1.128811	0.664088	99
Es	0.479528	1.146426	-0.086887	99
Es	0.581447	-1.272380	0.023105	99
Es	-2.224082	0.583908	0.702668	99
Es	0.148510	1.395773	-1.245925	99
Es	-0.139944	1.747512	0.821660	99
Es	-0.186716	0.444219	0.832147	99
Es	1.595395	-0.151048	-1.931290	99
Es	-0.555006	-0.064002	1.373573	99
Es	-0.519398	-0.066650	1.031956	99
Es	-0.206287	-0.595431	0.836630	99
Es	0.871590	1.146706	1.098255	99
Es	1.210000	-0.140131	-1.299430	99
Es	1.369882	-0.656680	-0.788823	99
Es	0.710740	1.184170	-0.806805	99
Es	-1.869643	-0.037908	0.479805	99
Es	0.962226	0.522392	-1.054561	99
Es	-1.883103	-0.056995	-0.276672	99
Es	1.254565	1.688265	-0.870794	99
Es	0.196632	-1.301279	0.679037	99
Es	1.240170	-1.913007	-0.844230	99
Es	-2.262267	-0.623824	0.732912	99
Es	0.689220	-1.454708	1.216219	99
Es	0.816925	-0.750837	-1.126289	99
Es	0.974696	-1.262694	-0.607714	99
Es	-0.280203	-1.871989	0.647432	99
