40
Properties=species:S:1:pos:R:3:Z:I:1 energy=-269.7716484617907 field_type=dipole dipole="0.000000 0.000000 0.000000" charge=0
C	-1.939848	-1.834798	-0.460189	6
C	-0.668648	-1.632148	-0.093849	6
C	-0.028168	-0.343328	0.010431	6
C	1.275762	-0.195028	0.320371	6
C	1.649072	1.256592	0.364971	6
C	0.348612	1.919262	0.038121	6
C	-0.593548	0.986322	-0.158399	6
H	-2.341108	-2.841878	-0.513069	1
H	-2.609908	-1.022048	-0.717429	1
H	-0.056668	-2.499848	0.145491	1
H	1.975592	-0.994578	0.513621	1
H	2.413302	1.491622	-0.381329	1
H	2.001612	1.543572	1.359871	1
H	0.200222	2.986312	-0.024519	1
H	-1.626278	1.179972	-0.404089	1
Es	-0.368580	0.292117	-0.088774	99
Es	1.275883	-0.194980	0.320388	99
Es	1.500847	0.524049	0.351470	99
Es	-0.365460	-0.977857	-0.046589	99
Es	0.677112	-0.303090	-0.144169	99
Es	-1.297897	1.109092	-0.326092	99
Es	-1.394842	-1.699025	0.030947	99
Es	0.258781	2.645175	-0.001807	99
Es	-2.396715	-1.284106	-0.634681	99
Es	1.018043	1.626185	0.204594	99
Es	2.150177	1.408507	-0.134880	99
Es	-1.939946	-1.834810	-0.460217	99
Es	0.348715	1.919323	0.038144	99
Es	0.532496	-0.281408	0.466582	99
Es	1.649048	1.256581	0.364966	99
Es	-0.668542	-1.632108	-0.093819	99
Es	1.756704	-0.735081	0.453144	99
Es	1.875555	1.443154	1.027088	99
Es	-0.061155	1.443227	-0.373416	99
Es	-1.210291	-1.739168	-0.584505	99
Es	-0.593629	0.986211	-0.158416	99
Es	-0.028288	-0.343344	0.010400	99
Es	-0.244531	-2.213839	0.070142	99
Es	-2.218873	-2.515019	-0.498401	99
Es	-0.206984	1.459089	0.246873	99
40
Properties=species:S:1:pos:R:3:Z:I:1 energy=-269.7716484617907 field_type=dipole dipole="0.000000 0.000000 0.000000" charge=0
C	-1.939848	-1.834798	-0.460189	6
C	-0.668648	-1.632148	-0.093849	6
C	-0.028168	-0.343328	0.010431	6
C	1.275762	-0.195028	0.320371	6
C	1.649072	1.256592	0.364971	6
C	0.348612	1.919262	0.038121	6
C	-0.593548	0.986322	-0.158399	6
H	-2.341108	-2.841878	-0.513069	1
H	-2.609908	-1.022048	-0.717429	1
H	-0.056668	-2.499848	0.145491	1
H	1.975592	-0.994578	0.513621	1
H	2.413302	1.491622	-0.381329	1
H	2.001612	1.543572	1.359871	1
H	0.200222	2.986312	-0.024519	1
H	-1.626278	1.179972	-0.404089	1
Es	1.875599	1.443176	1.026968	99
Es	1.649048	1.256581	0.364965	99
Es	-2.396700	-1.284086	-0.634660	99
Es	1.275882	-0.194979	0.320395	99
Es	1.756700	-0.735119	0.453036	99
Es	-1.297895	1.109158	-0.326177	99
Es	0.348710	1.919319	0.038162	99
Es	-1.210286	-1.739181	-0.584497	99
Es	-2.218899	-2.515041	-0.498371	99
Es	-1.939947	-1.834810	-0.460214	99
Es	-0.061433	1.443321	-0.373162	99
Es	-0.368590	0.292113	-0.088795	99
Es	-0.028286	-0.343344	0.010402	99
Es	-0.593630	0.986217	-0.158400	99
Es	-1.394827	-1.699028	0.030870	99
Es	0.677107	-0.302966	-0.144095	99
Es	-0.668543	-1.632108	-0.093820	99
Es	-0.244555	-2.213839	0.070161	99
Es	-0.206901	1.458855	0.246848	99
Es	0.258666	2.645167	-0.001863	99
Es	1.018153	1.626193	0.204570	99
Es	-0.365440	-0.977808	-0.046587	99
Es	2.150210	1.408508	-0.134915	99
Es	1.500848	0.524113	0.351573	99
Es	0.532638	-0.281533	0.466578	99
40
Properties=species:S:1:pos:R:3:Z:I:1 energy=-269.7716484617907 field_type=dipole dipole="0.000000 0.000000 0.000000" charge=0
C	-1.939848	-1.834798	-0.460189	6
C	-0.668648	-1.632148	-0.093849	6
C	-0.028168	-0.343328	0.010431	6
C	1.275762	-0.195028	0.320371	6
C	1.649072	1.256592	0.364971	6
C	0.348612	1.919262	0.038121	6
C	-0.593548	0.986322	-0.158399	6
H	-2.341108	-2.841878	-0.513069	1
H	-2.609908	-1.022048	-0.717429	1
H	-0.056668	-2.499848	0.145491	1
H	1.975592	-0.994578	0.513621	1
H	2.413302	1.491622	-0.381329	1
H	2.001612	1.543572	1.359871	1
H	0.200222	2.986312	-0.024519	1
H	-1.626278	1.179972	-0.404089	1
Es	0.258676	2.645186	-0.001926	99
Es	0.676914	-0.302890	-0.144202	99
Es	-1.297886	1.109181	-0.326133	99
Es	1.275881	-0.194979	0.320395	99
Es	-0.368593	0.292044	-0.088685	99
Es	-2.218826	-2.515009	-0.498531	99
Es	1.018189	1.626072	0.204632	99
Es	1.500865	0.524205	0.351645	99
Es	-0.244469	-2.213794	0.070071	99
Es	1.756631	-0.735172	0.453109	99
Es	-1.939943	-1.834809	-0.460216	99
Es	0.532828	-0.281583	0.466289	99
Es	-2.396787	-1.283973	-0.634507	99
Es	-0.668545	-1.632109	-0.093817	99
Es	0.348715	1.919324	0.038153	99
Es	-0.206948	1.458974	0.246660	99
Es	-1.394777	-1.699318	0.030846	99
Es	1.649048	1.256582	0.364965	99
Es	-0.365533	-0.977812	-0.046420	99
Es	-1.210320	-1.739128	-0.584446	99
Es	-0.061391	1.443297	-0.373049	99
Es	1.875489	1.443163	1.027007	99
Es	2.150324	1.408550	-0.134860	99
Es	-0.028287	-0.343345	0.010405	99
Es	-0.593623	0.986222	-0.158415	99
40
Properties=species:S:1:pos:R:3:Z:I:1 energy=-269.7716484617907 field_type=dipole dipole="0.000000 0.000000 0.000000" charge=0
C	-1.939848	-1.834798	-0.460189	6
C	-0.668648	-1.632148	-0.093849	6
C	-0.028168	-0.343328	0.010431	6
C	1.275762	-0.195028	0.320371	6
C	1.649072	1.256592	0.364971	6
C	0.348612	1.919262	0.038121	6
C	-0.593548	0.986322	-0.158399	6
H	-2.341108	-2.841878	-0.513069	1
H	-2.609908	-1.022048	-0.717429	1
H	-0.056668	-2.499848	0.145491	1
H	1.975592	-0.994578	0.513621	1
H	2.413302	1.491622	-0.381329	1
H	2.001612	1.543572	1.359871	1
H	0.200222	2.986312	-0.024519	1
H	-1.626278	1.179972	-0.404089	1
Es	-0.593627	0.986216	-0.158416	99
Es	-0.368572	0.292051	-0.088763	99
Es	-1.394803	-1.699015	0.030783	99
Es	0.348715	1.919322	0.038142	99
Es	1.275880	-0.194979	0.320395	99
Es	1.756581	-0.735299	0.452988	99
Es	-1.297942	1.109256	-0.326185	99
Es	-1.939943	-1.834810	-0.460217	99
Es	1.875579	1.443182	1.026938	99
Es	0.258534	2.645202	-0.001973	99
Es	0.532691	-0.281486	0.466231	99
Es	-0.668545	-1.632109	-0.093819	99
Es	0.676951	-0.302893	-0.143778	99
Es	-0.028285	-0.343344	0.010403	99
Es	-0.061434	1.443271	-0.372768	99
Es	-0.365400	-0.977892	-0.046593	99
Es	-0.206844	1.458852	0.246494	99
Es	-2.218863	-2.515075	-0.498369	99
Es	-1.210327	-1.739167	-0.584375	99
Es	1.018257	1.626118	0.204668	99
Es	-2.396721	-1.284060	-0.634679	99
Es	1.649048	1.256582	0.364966	99
Es	-0.244541	-2.213882	0.070166	99
Es	1.500944	0.524287	0.351622	99
Es	2.150296	1.408550	-0.134887	99
40
Properties=species:S:1:pos:R:3:Z:I:1 energy=-269.7716484617907 field_type=dipole dipole="0.000000 0.000000 0.000000" charge=0
C	-1.939848	-1.834798	-0.460189	6
C	-0.668648	-1.632148	-0.093849	6
C	-0.028168	-0.343328	0.010431	6
C	1.275762	-0.195028	0.320371	6
C	1.649072	1.256592	0.364971	6
C	0.348612	1.919262	0.038121	6
C	-0.593548	0.986322	-0.158399	6
H	-2.341108	-2.841878	-0.513069	1
H	-2.609908	-1.022048	-0.717429	1
H	-0.056668	-2.499848	0.145491	1
H	1.975592	-0.994578	0.513621	1
H	2.413302	1.491622	-0.381329	1
H	2.001612	1.543572	1.359871	1
H	0.200222	2.986312	-0.024519	1
H	-1.626278	1.179972	-0.404089	1
Es	-0.668545	-1.632105	-0.093821	99
Es	0.258432	2.645187	-0.001934	99
Es	-0.028284	-0.343344	0.010398	99
Es	0.532979	-0.281704	0.465873	99
Es	-2.396719	-1.284077	-0.634677	99
Es	-0.368619	0.292073	-0.088285	99
Es	-0.206816	1.458841	0.246259	99
Es	-1.939945	-1.834810	-0.460216	99
Es	-1.210328	-1.739144	-0.584389	99
Es	1.275880	-0.194979	0.320395	99
Es	1.875546	1.443233	1.026991	99
Es	-1.394792	-1.698986	0.030763	99
Es	-2.218865	-2.515070	-0.498373	99
Es	-0.244569	-2.213917	0.070182	99
Es	0.348714	1.919322	0.038143	99
Es	-0.061415	1.443226	-0.372733	99
Es	-0.593626	0.986216	-0.158415	99
Es	-1.297954	1.109303	-0.326179	99
Es	2.150357	1.408494	-0.134867	99
Es	1.756563	-0.735312	0.453053	99
Es	1.500811	0.524377	0.351753	99
Es	1.649048	1.256582	0.364966	99
Es	-0.365459	-0.977891	-0.046434	99
Es	1.018435	1.626132	0.204569	99
Es	0.676801	-0.302767	-0.144046	99
40
Properties=species:S:1:pos:R:3:Z:I:1 energy=-269.7716484617907 field_type=dipole dipole="0.000000 0.000000 0.000000" charge=0
C	-1.939848	-1.834798	-0.460189	6
C	-0.668648	-1.632148	-0.093849	6
C	-0.028168	-0.343328	0.010431	6
C	1.275762	-0.195028	0.320371	6
C	1.649072	1.256592	0.364971	6
C	0.348612	1.919262	0.038121	6
C	-0.593548	0.986322	-0.158399	6
H	-2.341108	-2.841878	-0.513069	1
H	-2.609908	-1.022048	-0.717429	1
H	-0.056668	-2.499848	0.145491	1
H	1.975592	-0.994578	0.513621	1
H	2.413302	1.491622	-0.381329	1
H	2.001612	1.543572	1.359871	1
H	0.200222	2.986312	-0.024519	1
H	-1.626278	1.179972	-0.404089	1
Es	-2.396702	-1.284048	-0.634691	99
Es	0.676729	-0.302780	-0.143844	99
Es	-1.394795	-1.699009	0.030792	99
Es	1.756506	-0.735363	0.453103	99
Es	2.150287	1.408584	-0.134901	99
Es	-0.368592	0.292045	-0.088546	99
Es	0.258365	2.645196	-0.001914	99
Es	-0.668554	-1.632110	-0.093811	99
Es	-0.028285	-0.343345	0.010404	99
Es	0.348713	1.919327	0.038142	99
Es	-1.939942	-1.834809	-0.460218	99
Es	1.018441	1.626036	0.204739	99
Es	-0.244528	-2.213916	0.070134	99
Es	-2.218873	-2.515076	-0.498397	99
Es	-0.593627	0.986215	-0.158421	99
Es	1.500915	0.524423	0.351677	99
Es	0.532985	-0.281616	0.465845	99
Es	-0.206795	1.458900	0.246046	99
Es	1.875623	1.443217	1.027000	99
Es	-0.061435	1.443135	-0.372575	99
Es	1.275878	-0.194979	0.320400	99
Es	-0.365402	-0.977927	-0.046516	99
Es	-1.297985	1.109354	-0.326141	99
Es	-1.210348	-1.739158	-0.584297	99
Es	1.649050	1.256583	0.364963	99
40
Properties=species:S:1:pos:R:3:Z:I:1 energy=-269.7716484617907 field_type=dipole dipole="0.000000 0.000000 0.000000" charge=0
C	-1.939848	-1.834798	-0.460189	6
C	-0.668648	-1.632148	-0.093849	6
C	-0.028168	-0.343328	0.010431	6
C	1.275762	-0.195028	0.320371	6
C	1.649072	1.256592	0.364971	6
C	0.348612	1.919262	0.038121	6
C	-0.593548	0.986322	-0.158399	6
H	-2.341108	-2.841878	-0.513069	1
H	-2.609908	-1.022048	-0.717429	1
H	-0.056668	-2.499848	0.145491	1
H	1.975592	-0.994578	0.513621	1
H	2.413302	1.491622	-0.381329	1
H	2.001612	1.543572	1.359871	1
H	0.200222	2.986312	-0.024519	1
H	-1.626278	1.179972	-0.404089	1
Es	1.649048	1.256582	0.364966	99
Es	-1.394777	-1.699007	0.030710	99
Es	-2.218889	-2.515082	-0.498370	99
Es	0.676795	-0.302851	-0.143532	99
Es	1.275879	-0.194979	0.320394	99
Es	-1.297995	1.109411	-0.326187	99
Es	-0.244535	-2.213931	0.070167	99
Es	-0.593625	0.986216	-0.158415	99
Es	-0.028283	-0.343344	0.010403	99
Es	0.348715	1.919320	0.038143	99
Es	-0.206711	1.458750	0.246020	99
Es	1.500928	0.524498	0.351614	99
Es	1.018539	1.626025	0.204702	99
Es	-0.061558	1.443227	-0.372332	99
Es	-0.365376	-0.977951	-0.046580	99
Es	-0.368540	0.292026	-0.088737	99
Es	-1.210350	-1.739160	-0.584302	99
Es	1.875641	1.443221	1.027006	99
Es	-1.939943	-1.834809	-0.460216	99
Es	0.532826	-0.281517	0.465843	99
Es	-2.396700	-1.284031	-0.634668	99
Es	1.756486	-0.735421	0.453029	99
Es	2.150306	1.408593	-0.134891	99
Es	0.258294	2.645201	-0.001973	99
Es	-0.668546	-1.632109	-0.093821	99
40
Properties=species:S:1:pos:R:3:Z:I:1 energy=-269.7716484617907 field_type=dipole dipole="0.000000 0.000000 0.000000" charge=0
C	-1.939848	-1.834798	-0.460189	6
C	-0.668648	-1.632148	-0.093849	6
C	-0.028168	-0.343328	0.010431	6
C	1.275762	-0.195028	0.320371	6
C	1.649072	1.256592	0.364971	6
C	0.348612	1.919262	0.038121	6
C	-0.593548	0.986322	-0.158399	6
H	-2.341108	-2.841878	-0.513069	1
H	-2.609908	-1.022048	-0.717429	1
H	-0.056668	-2.499848	0.145491	1
H	1.975592	-0.994578	0.513621	1
H	2.413302	1.491622	-0.381329	1
H	2.001612	1.543572	1.359871	1
H	0.200222	2.986312	-0.024519	1
H	-1.626278	1.179972	-0.404089	1
Es	1.875653	1.443229	1.027006	99
Es	1.756442	-0.735480	0.453016	99
Es	0.676756	-0.302820	-0.143418	99
Es	-0.028282	-0.343344	0.010404	99
Es	1.018601	1.625973	0.204726	99
Es	-0.244524	-2.213935	0.070153	99
Es	1.649048	1.256582	0.364966	99
Es	-0.368536	0.292015	-0.088699	99
Es	-1.394775	-1.699025	0.030703	99
Es	0.348714	1.919320	0.038143	99
Es	-1.210349	-1.739165	-0.584287	99
Es	-0.593625	0.986217	-0.158415	99
Es	-1.298009	1.109461	-0.326204	99
Es	-1.939944	-1.834809	-0.460216	99
Es	1.275879	-0.194979	0.320394	99
Es	1.500972	0.524553	0.351629	99
Es	0.532841	-0.281508	0.465718	99
Es	0.258229	2.645205	-0.001996	99
Es	-2.396702	-1.284020	-0.634672	99
Es	-0.061586	1.443210	-0.372181	99
Es	-0.206683	1.458726	0.245862	99
Es	-0.365371	-0.977976	-0.046584	99
Es	-0.668547	-1.632109	-0.093821	99
Es	2.150315	1.408632	-0.134889	99
Es	-2.218890	-2.515073	-0.498364	99
40
Properties=species:S:1:pos:R:3:Z:I:1 energy=-269.7716484617907 field_type=dipole dipole="0.000000 0.000000 0.000000" charge=0
C	-1.939848	-1.834798	-0.460189	6
C	-0.668648	-1.632148	-0.093849	6
C	-0.028168	-0.343328	0.010431	6
C	1.275762	-0.195028	0.320371	6
C	1.649072	1.256592	0.364971	6
C	0.348612	1.919262	0.038121	6
C	-0.593548	0.986322	-0.158399	6
H	-2.341108	-2.841878	-0.513069	1
H	-2.609908	-1.022048	-0.717429	1
H	-0.056668	-2.499848	0.145491	1
H	1.975592	-0.994578	0.513621	1
H	2.413302	1.491622	-0.381329	1
H	2.001612	1.543572	1.359871	1
H	0.200222	2.986312	-0.024519	1
H	-1.626278	1.179972	-0.404089	1
Es	-1.939946	-1.834810	-0.460216	99
Es	1.649048	1.256582	0.364966	99
Es	-2.218883	-2.515082	-0.498357	99
Es	-1.394754	-1.699019	0.030639	99
Es	-0.061623	1.443188	-0.372031	99
Es	-0.206647	1.458697	0.245725	99
Es	1.875658	1.443258	1.027008	99
Es	0.258159	2.645204	-0.002013	99
Es	1.756404	-0.735536	0.453002	99
Es	-0.028282	-0.343344	0.010403	99
Es	-1.210358	-1.739162	-0.584255	99
Es	-0.365360	-0.977986	-0.046609	99
Es	-0.593625	0.986217	-0.158415	99
Es	1.275878	-0.194979	0.320394	99
Es	1.018674	1.625945	0.204743	99
Es	-2.396713	-1.284008	-0.634662	99
Es	0.532810	-0.281470	0.465634	99
Es	-1.298031	1.109509	-0.326201	99
Es	-0.668546	-1.632109	-0.093820	99
Es	-0.244523	-2.213957	0.070172	99
Es	-0.368512	0.292005	-0.088750	99
Es	0.676761	-0.302839	-0.143255	99
Es	1.500995	0.524618	0.351615	99
Es	0.348714	1.919320	0.038143	99
Es	2.150329	1.408636	-0.134887	99
40
Properties=species:S:1:pos:R:3:Z:I:1 energy=-269.7716484617907 field_type=dipole dipole="0.000000 0.000000 0.000000" charge=0
C	-1.939848	-1.834798	-0.460189	6
C	-0.668648	-1.632148	-0.093849	6
C	-0.028168	-0.343328	0.010431	6
C	1.275762	-0.195028	0.320371	6
C	1.649072	1.256592	0.364971	6
C	0.348612	1.919262	0.038121	6
C	-0.593548	0.986322	-0.158399	6
H	-2.341108	-2.841878	-0.513069	1
H	-2.609908	-1.022048	-0.717429	1
H	-0.056668	-2.499848	0.145491	1
H	1.975592	-0.994578	0.513621	1
H	2.413302	1.491622	-0.381329	1
H	2.001612	1.543572	1.359871	1
H	0.200222	2.986312	-0.024519	1
H	-1.626278	1.179972	-0.404089	1
Es	1.275878	-0.194979	0.320395	99
Es	1.501125	0.524613	0.351515	99
Es	-0.061761	1.443325	-0.371796	99
Es	-0.593624	0.986217	-0.158414	99
Es	-1.210322	-1.739074	-0.584372	99
Es	-1.394731	-1.699061	0.030517	99
Es	-0.206589	1.458550	0.245745	99
Es	0.258105	2.645194	-0.002036	99
Es	0.348714	1.919320	0.038141	99
Es	-0.365420	-0.977989	-0.046365	99
Es	0.532891	-0.281475	0.465449	99
Es	-0.668546	-1.632109	-0.093822	99
Es	1.018723	1.625835	0.204795	99
Es	1.875704	1.443255	1.026973	99
Es	-2.396703	-1.284020	-0.634598	99
Es	-1.939943	-1.834809	-0.460216	99
Es	1.756347	-0.735586	0.453054	99
Es	-1.298001	1.109547	-0.326318	99
Es	-0.028280	-0.343345	0.010403	99
Es	-0.244532	-2.213984	0.070154	99
Es	-0.368488	0.292013	-0.088697	99
Es	0.676694	-0.302853	-0.143249	99
Es	1.649049	1.256579	0.364966	99
Es	-2.218924	-2.515091	-0.498305	99
Es	2.150263	1.408802	-0.134948	99
40
Properties=species:S:1:pos:R:3:Z:I:1 energy=-269.7716484617907 field_type=dipole dipole="0.000000 0.000000 0.000000" charge=0
C	-1.939848	-1.834798	-0.460189	6
C	-0.668648	-1.632148	-0.093849	6
C	-0.028168	-0.343328	0.010431	6
C	1.275762	-0.195028	0.320371	6
C	1.649072	1.256592	0.364971	6
C	0.348612	1.919262	0.038121	6
C	-0.593548	0.986322	-0.158399	6
H	-2.341108	-2.841878	-0.513069	1
H	-2.609908	-1.022048	-0.717429	1
H	-0.056668	-2.499848	0.145491	1
H	1.975592	-0.994578	0.513621	1
H	2.413302	1.491622	-0.381329	1
H	2.001612	1.543572	1.359871	1
H	0.200222	2.986312	-0.024519	1
H	-1.626278	1.179972	-0.404089	1
Es	-1.394746	-1.698992	0.030567	99
Es	1.018800	1.625867	0.204787	99
Es	-1.210366	-1.739187	-0.584225	99
Es	-1.939942	-1.834809	-0.460215	99
Es	1.649047	1.256581	0.364968	99
Es	1.275877	-0.194979	0.320394	99
Es	1.875670	1.443279	1.027018	99
Es	-2.396686	-1.283982	-0.634701	99
Es	-0.061643	1.443124	-0.371762	99
Es	0.532959	-0.281488	0.465233	99
Es	-0.668546	-1.632110	-0.093824	99
Es	-0.593625	0.986218	-0.158413	99
Es	-1.298074	1.109641	-0.326216	99
Es	-0.368543	0.292008	-0.088649	99
Es	2.150357	1.408673	-0.134892	99
Es	1.501020	0.524762	0.351639	99
Es	0.348714	1.919319	0.038143	99
Es	-0.244517	-2.213967	0.070190	99
Es	1.756323	-0.735662	0.453047	99
Es	-0.206540	1.458644	0.245412	99
Es	0.258030	2.645211	-0.002025	99
Es	-0.028283	-0.343343	0.010421	99
Es	-0.365368	-0.978047	-0.046497	99
Es	0.676620	-0.302782	-0.143124	99
Es	-2.218910	-2.515100	-0.498303	99
40
Properties=species:S:1:pos:R:3:Z:I:1 energy=-269.7716484617907 field_type=dipole dipole="0.000000 0.000000 0.000000" charge=0
C	-1.939848	-1.834798	-0.460189	6
C	-0.668648	-1.632148	-0.093849	6
C	-0.028168	-0.343328	0.010431	6
C	1.275762	-0.195028	0.320371	6
C	1.649072	1.256592	0.364971	6
C	0.348612	1.919262	0.038121	6
C	-0.593548	0.986322	-0.158399	6
H	-2.341108	-2.841878	-0.513069	1
H	-2.609908	-1.022048	-0.717429	1
H	-0.056668	-2.499848	0.145491	1
H	1.975592	-0.994578	0.513621	1
H	2.413302	1.491622	-0.381329	1
H	2.001612	1.543572	1.359871	1
H	0.200222	2.986312	-0.024519	1
H	-1.626278	1.179972	-0.404089	1
Es	-1.394733	-1.698982	0.030580	99
Es	-2.218866	-2.515079	-0.498383	99
Es	-0.668549	-1.632110	-0.093823	99
Es	-1.298053	1.109623	-0.326348	99
Es	-0.368396	0.291962	-0.088863	99
Es	0.348710	1.919315	0.038145	99
Es	1.756277	-0.735682	0.452964	99
Es	1.275876	-0.194980	0.320392	99
Es	-0.365289	-0.978044	-0.046641	99
Es	-2.396714	-1.284009	-0.634691	99
Es	0.532875	-0.281491	0.465296	99
Es	0.258029	2.645215	-0.002178	99
Es	2.150299	1.408646	-0.134828	99
Es	-0.593622	0.986216	-0.158413	99
Es	1.018864	1.625889	0.204631	99
Es	-0.206515	1.458458	0.245600	99
Es	1.649047	1.256582	0.364964	99
Es	-1.939943	-1.834810	-0.460216	99
Es	1.501076	0.524764	0.351663	99
Es	0.676643	-0.302751	-0.142946	99
Es	-0.028280	-0.343343	0.010406	99
Es	1.875758	1.443318	1.026991	99
Es	-0.244566	-2.214046	0.070184	99
Es	-1.210389	-1.739131	-0.584156	99
Es	-0.061908	1.443348	-0.371357	99
