47
Properties=species:S:1:pos:R:3:Z:I:1 energy=-305.28139405268354 field_type=dipole dipole="0.000000 0.000000 0.000000" charge=0
C	-1.336036	-2.595567	-0.845310	6
N	-1.396346	-1.299037	-0.185260	7
C	-0.108727	-0.597507	-0.203990	6
C	0.077024	0.551673	-1.157800	6
C	-0.055506	0.816633	0.320260	6
C	1.118803	1.258103	1.129600	6
N	1.112804	2.710763	1.189250	7
H	-2.330467	-3.051887	-0.848980	1
H	-0.653466	-3.273887	-0.322960	1
H	-1.011036	-2.495127	-1.885550	1
H	-1.719576	-1.426117	0.773860	1
H	0.762954	-1.217267	-0.002650	1
H	-0.756016	0.830773	-1.793430	1
H	1.046874	0.667463	-1.625700	1
H	-0.984226	1.248663	0.677890	1
H	2.062703	0.907923	0.697580	1
H	1.040474	0.850443	2.142340	1
H	1.193514	3.084444	0.244990	1
H	1.936254	3.029513	1.695860	1
Es	-1.395916	-1.299389	-0.184987	99
Es	1.118789	1.258240	1.129591	99
Es	-1.626833	-1.095341	-0.348026	99
Es	-0.858991	-3.067168	-0.486482	99
Es	1.626166	2.892772	1.484193	99
Es	-2.014497	-2.908891	-0.843047	99
Es	-0.818264	-1.015924	-0.180426	99
Es	0.077022	0.551623	-1.157636	99
Es	1.180407	2.921928	0.613613	99
Es	0.540585	1.024737	0.710193	99
Es	1.066422	0.979113	1.825501	99
Es	-0.103844	0.040782	0.233710	99
Es	-1.109261	-2.524318	-1.552588	99
Es	-1.336041	-2.595451	-0.845244	99
Es	0.493477	-1.022210	-0.067898	99
Es	0.743123	0.633838	-1.468096	99
Es	0.037741	0.876656	-0.454483	99
Es	-1.343990	-1.872072	-0.459127	99
Es	0.818172	2.830672	1.342855	99
Es	-0.005319	-0.145186	-0.835757	99
Es	1.770530	1.003734	0.824949	99
Es	1.113286	2.710567	1.189001	99
Es	-1.565576	-1.393302	0.402148	99
Es	-0.055466	0.816499	0.320121	99
Es	-0.684636	1.101570	0.555783	99
Es	-0.108854	-0.597404	-0.204031	99
Es	-0.484760	0.736873	-1.585547	99
Es	1.140725	2.081821	1.153236	99
47
Properties=species:S:1:pos:R:3:Z:I:1 energy=-305.28139405268354 field_type=dipole dipole="0.000000 0.000000 0.000000" charge=0
C	-1.336036	-2.595567	-0.845310	6
N	-1.396346	-1.299037	-0.185260	7
C	-0.108727	-0.597507	-0.203990	6
C	0.077024	0.551673	-1.157800	6
C	-0.055506	0.816633	0.320260	6
C	1.118803	1.258103	1.129600	6
N	1.112804	2.710763	1.189250	7
H	-2.330467	-3.051887	-0.848980	1
H	-0.653466	-3.273887	-0.322960	1
H	-1.011036	-2.495127	-1.885550	1
H	-1.719576	-1.426117	0.773860	1
H	0.762954	-1.217267	-0.002650	1
H	-0.756016	0.830773	-1.793430	1
H	1.046874	0.667463	-1.625700	1
H	-0.984226	1.248663	0.677890	1
H	2.062703	0.907923	0.697580	1
H	1.040474	0.850443	2.142340	1
H	1.193514	3.084444	0.244990	1
H	1.936254	3.029513	1.695860	1
Es	-0.055464	0.816504	0.320114	99
Es	-1.627178	-1.095383	-0.347757	99
Es	0.540267	1.024606	0.710488	99
Es	0.818309	2.830591	1.342805	99
Es	-1.344055	-1.871985	-0.459167	99
Es	-0.484707	0.736771	-1.585557	99
Es	-0.684576	1.101508	0.555638	99
Es	-2.014373	-2.908890	-0.842967	99
Es	1.113282	2.710568	1.189005	99
Es	1.770415	1.003706	0.824915	99
Es	-0.859094	-3.067130	-0.486456	99
Es	0.493401	-1.022130	-0.067848	99
Es	-0.818322	-1.015728	-0.180627	99
Es	-0.005224	-0.145498	-0.835877	99
Es	1.140692	2.081868	1.153125	99
Es	0.077022	0.551618	-1.157632	99
Es	-1.395906	-1.299400	-0.184967	99
Es	1.066569	0.979128	1.825471	99
Es	-0.103854	0.040786	0.233602	99
Es	1.626132	2.892714	1.484317	99
Es	-1.565112	-1.393477	0.402154	99
Es	0.038059	0.877278	-0.454324	99
Es	1.180390	2.922092	0.613628	99
Es	0.742882	0.633706	-1.468171	99
Es	-1.109262	-2.524451	-1.552700	99
Es	1.118789	1.258240	1.129590	99
Es	-0.108848	-0.597391	-0.204038	99
Es	-1.336042	-2.595454	-0.845247	99
47
Properties=species:S:1:pos:R:3:Z:I:1 energy=-305.28139405268354 field_type=dipole dipole="0.000000 0.000000 0.000000" charge=0
C	-1.336036	-2.595567	-0.845310	6
N	-1.396346	-1.299037	-0.185260	7
C	-0.108727	-0.597507	-0.203990	6
C	0.077024	0.551673	-1.157800	6
C	-0.055506	0.816633	0.320260	6
C	1.118803	1.258103	1.129600	6
N	1.112804	2.710763	1.189250	7
H	-2.330467	-3.051887	-0.848980	1
H	-0.653466	-3.273887	-0.322960	1
H	-1.011036	-2.495127	-1.885550	1
H	-1.719576	-1.426117	0.773860	1
H	0.762954	-1.217267	-0.002650	1
H	-0.756016	0.830773	-1.793430	1
H	1.046874	0.667463	-1.625700	1
H	-0.984226	1.248663	0.677890	1
H	2.062703	0.907923	0.697580	1
H	1.040474	0.850443	2.142340	1
H	1.193514	3.084444	0.244990	1
H	1.936254	3.029513	1.695860	1
Es	1.770339	1.003745	0.824890	99
Es	-0.484585	0.736742	-1.585582	99
Es	1.140314	2.081758	1.153336	99
Es	0.742797	0.633754	-1.468110	99
Es	-1.627126	-1.095671	-0.347820	99
Es	-1.565277	-1.393355	0.402126	99
Es	-2.014489	-2.908944	-0.843046	99
Es	-1.343863	-1.872004	-0.458903	99
Es	-1.109253	-2.524401	-1.552551	99
Es	1.118789	1.258240	1.129591	99
Es	-0.103878	0.040743	0.234134	99
Es	1.625995	2.892855	1.484722	99
Es	0.077022	0.551622	-1.157634	99
Es	0.037920	0.877310	-0.454673	99
Es	1.066606	0.979064	1.825520	99
Es	-1.395939	-1.299372	-0.185001	99
Es	0.817961	2.831140	1.341990	99
Es	-0.005177	-0.145685	-0.835868	99
Es	-0.818262	-1.015577	-0.180700	99
Es	0.493258	-1.022081	-0.067942	99
Es	1.181266	2.921513	0.613841	99
Es	1.113288	2.710579	1.188991	99
Es	-0.108852	-0.597396	-0.204023	99
Es	-0.859077	-3.067142	-0.486604	99
Es	0.540296	1.024687	0.710288	99
Es	-0.055463	0.816507	0.320118	99
Es	-1.336042	-2.595455	-0.845248	99
Es	-0.684376	1.101592	0.555677	99
47
Properties=species:S:1:pos:R:3:Z:I:1 energy=-305.28139405268354 field_type=dipole dipole="0.000000 0.000000 0.000000" charge=0
C	-1.336036	-2.595567	-0.845310	6
N	-1.396346	-1.299037	-0.185260	7
C	-0.108727	-0.597507	-0.203990	6
C	0.077024	0.551673	-1.157800	6
C	-0.055506	0.816633	0.320260	6
C	1.118803	1.258103	1.129600	6
N	1.112804	2.710763	1.189250	7
H	-2.330467	-3.051887	-0.848980	1
H	-0.653466	-3.273887	-0.322960	1
H	-1.011036	-2.495127	-1.885550	1
H	-1.719576	-1.426117	0.773860	1
H	0.762954	-1.217267	-0.002650	1
H	-0.756016	0.830773	-1.793430	1
H	1.046874	0.667463	-1.625700	1
H	-0.984226	1.248663	0.677890	1
H	2.062703	0.907923	0.697580	1
H	1.040474	0.850443	2.142340	1
H	1.193514	3.084444	0.244990	1
H	1.936254	3.029513	1.695860	1
Es	0.037961	0.877536	-0.454528	99
Es	-1.344257	-1.871934	-0.459532	99
Es	-1.336041	-2.595455	-0.845247	99
Es	-0.108853	-0.597399	-0.204027	99
Es	-1.109254	-2.524429	-1.552549	99
Es	-1.627160	-1.095649	-0.347041	99
Es	1.626007	2.892838	1.484431	99
Es	0.493201	-1.022049	-0.067897	99
Es	1.770290	1.003681	0.824916	99
Es	-1.564823	-1.393629	0.402171	99
Es	0.818329	2.830743	1.342505	99
Es	-0.055465	0.816502	0.320112	99
Es	-0.103998	0.040675	0.234162	99
Es	1.140678	2.081749	1.153164	99
Es	-0.859086	-3.067127	-0.486610	99
Es	-0.684254	1.101592	0.555685	99
Es	-0.005174	-0.145875	-0.836120	99
Es	-0.818362	-1.015298	-0.181040	99
Es	0.540153	1.024552	0.710379	99
Es	0.742696	0.633764	-1.468151	99
Es	1.180608	2.921987	0.613738	99
Es	-0.484464	0.736825	-1.585475	99
Es	1.066689	0.979146	1.825463	99
Es	1.118790	1.258240	1.129591	99
Es	-1.395840	-1.299451	-0.184920	99
Es	0.077022	0.551624	-1.157633	99
Es	1.113260	2.710574	1.189014	99
Es	-2.014463	-2.908967	-0.843044	99
47
Properties=species:S:1:pos:R:3:Z:I:1 energy=-305.28139405268354 field_type=dipole dipole="0.000000 0.000000 0.000000" charge=0
C	-1.336036	-2.595567	-0.845310	6
N	-1.396346	-1.299037	-0.185260	7
C	-0.108727	-0.597507	-0.203990	6
C	0.077024	0.551673	-1.157800	6
C	-0.055506	0.816633	0.320260	6
C	1.118803	1.258103	1.129600	6
N	1.112804	2.710763	1.189250	7
H	-2.330467	-3.051887	-0.848980	1
H	-0.653466	-3.273887	-0.322960	1
H	-1.011036	-2.495127	-1.885550	1
H	-1.719576	-1.426117	0.773860	1
H	0.762954	-1.217267	-0.002650	1
H	-0.756016	0.830773	-1.793430	1
H	1.046874	0.667463	-1.625700	1
H	-0.984226	1.248663	0.677890	1
H	2.062703	0.907923	0.697580	1
H	1.040474	0.850443	2.142340	1
H	1.193514	3.084444	0.244990	1
H	1.936254	3.029513	1.695860	1
Es	-1.336041	-2.595454	-0.845248	99
Es	0.540167	1.024622	0.710387	99
Es	-0.818175	-1.015801	-0.180474	99
Es	-1.626854	-1.095550	-0.347885	99
Es	-1.343933	-1.872156	-0.458899	99
Es	-0.684230	1.101552	0.555602	99
Es	0.819074	2.830807	1.342218	99
Es	-2.014426	-2.908985	-0.842933	99
Es	-0.484368	0.736768	-1.585488	99
Es	-0.108851	-0.597394	-0.204026	99
Es	1.113275	2.710579	1.189011	99
Es	-1.109316	-2.524425	-1.552636	99
Es	-0.055464	0.816503	0.320114	99
Es	1.140114	2.081515	1.153444	99
Es	1.066636	0.979082	1.825436	99
Es	1.770295	1.003703	0.824951	99
Es	0.493174	-1.021981	-0.067885	99
Es	-0.859090	-3.067101	-0.486695	99
Es	-0.005176	-0.146031	-0.836141	99
Es	0.038022	0.877730	-0.454659	99
Es	0.077022	0.551624	-1.157633	99
Es	0.742564	0.633730	-1.468141	99
Es	-1.395898	-1.299395	-0.184951	99
Es	-0.103970	0.040657	0.234280	99
Es	1.625996	2.892913	1.484509	99
Es	-1.565530	-1.393115	0.401973	99
Es	1.180387	2.922134	0.613697	99
Es	1.118790	1.258239	1.129592	99
47
Properties=species:S:1:pos:R:3:Z:I:1 energy=-305.28139405268354 field_type=dipole dipole="0.000000 0.000000 0.000000" charge=0
C	-1.336036	-2.595567	-0.845310	6
N	-1.396346	-1.299037	-0.185260	7
C	-0.108727	-0.597507	-0.203990	6
C	0.077024	0.551673	-1.157800	6
C	-0.055506	0.816633	0.320260	6
C	1.118803	1.258103	1.129600	6
N	1.112804	2.710763	1.189250	7
H	-2.330467	-3.051887	-0.848980	1
H	-0.653466	-3.273887	-0.322960	1
H	-1.011036	-2.495127	-1.885550	1
H	-1.719576	-1.426117	0.773860	1
H	0.762954	-1.217267	-0.002650	1
H	-0.756016	0.830773	-1.793430	1
H	1.046874	0.667463	-1.625700	1
H	-0.984226	1.248663	0.677890	1
H	2.062703	0.907923	0.697580	1
H	1.040474	0.850443	2.142340	1
H	1.193514	3.084444	0.244990	1
H	1.936254	3.029513	1.695860	1
Es	0.540099	1.024595	0.710377	99
Es	-0.103967	0.040686	0.234377	99
Es	-0.004964	-0.146338	-0.836483	99
Es	-1.626747	-1.095716	-0.347809	99
Es	-0.859141	-3.067146	-0.486663	99
Es	1.770260	1.003674	0.824957	99
Es	-0.818190	-1.015687	-0.180573	99
Es	0.077023	0.551626	-1.157642	99
Es	0.742435	0.633956	-1.468060	99
Es	1.113239	2.710581	1.189025	99
Es	-0.108848	-0.597388	-0.204031	99
Es	-2.014446	-2.908961	-0.843052	99
Es	0.818784	2.830692	1.342291	99
Es	-1.109261	-2.524482	-1.552534	99
Es	-1.343906	-1.872116	-0.458937	99
Es	0.037895	0.877829	-0.454434	99
Es	1.180481	2.922160	0.613764	99
Es	1.118789	1.258238	1.129592	99
Es	-0.484307	0.736725	-1.585485	99
Es	1.140426	2.081637	1.153234	99
Es	-1.336042	-2.595455	-0.845248	99
Es	-0.684113	1.101535	0.555634	99
Es	1.625942	2.892918	1.484561	99
Es	1.066655	0.979083	1.825412	99
Es	-0.055464	0.816504	0.320114	99
Es	0.493076	-1.021930	-0.067917	99
Es	-1.395900	-1.299402	-0.184958	99
Es	-1.565614	-1.393049	0.402006	99
