43
Properties=species:S:1:pos:R:3:Z:I:1 energy=-270.94399524612396 field_type=dipole dipole="0.000000 0.000000 0.000000" charge=0
C	-1.638201	-1.611799	-0.451494	6
C	-0.783901	-1.339719	0.543716	6
C	0.471999	-0.488479	0.492696	6
C	1.017119	-0.107479	-0.900564	6
C	0.598999	1.318061	-1.064704	6
C	0.181999	1.847291	0.089196	6
C	0.245519	0.859521	1.210546	6
H	-2.507231	-2.238939	-0.274244	1
H	-1.519921	-1.211929	-1.452464	1
H	-1.001771	-1.768799	1.521996	1
H	1.243879	-1.062789	1.022316	1
H	0.642709	-0.739559	-1.709334	1
H	2.112099	-0.163129	-0.914784	1
H	0.663619	1.855241	-2.000784	1
H	-0.140501	2.871581	0.215576	1
H	1.087879	1.102341	1.867926	1
H	-0.674291	0.878591	1.804406	1
Es	0.735223	-0.318645	-0.214976	99
Es	0.759502	-0.536395	-1.448371	99
Es	0.821013	1.027050	1.652030	99
Es	0.196545	1.377032	0.669525	99
Es	0.346887	0.169915	0.866338	99
Es	0.075566	1.507780	-0.567191	99
Es	0.809437	0.604709	-1.021035	99
Es	-1.042074	-1.746330	-0.048722	99
Es	-2.229610	-2.036267	-0.336894	99
Es	-0.783811	-1.339684	0.543796	99
Es	0.599042	1.317997	-1.064803	99
Es	1.017102	-0.107451	-0.900539	99
Es	0.471948	-0.488474	0.492682	99
Es	0.181957	1.847329	0.089321	99
Es	-0.379101	0.868509	1.615020	99
Es	1.760382	-0.139295	-0.905317	99
Es	-0.923326	-1.624920	1.215616	99
Es	0.647374	1.674723	-1.707757	99
Es	0.992830	-0.885651	0.857190	99
Es	0.245524	0.859516	1.210505	99
Es	-1.558381	-1.344983	-1.133127	99
Es	-1.638265	-1.611814	-0.451568	99
Es	-1.393953	-1.215132	0.109674	99
Es	-0.038902	2.543063	0.187074	99
Es	-0.168045	-0.910722	0.491868	99
Es	0.685691	1.688441	-0.429422	99
43
Properties=species:S:1:pos:R:3:Z:I:1 energy=-270.94399524612396 field_type=dipole dipole="0.000000 0.000000 0.000000" charge=0
C	-1.638201	-1.611799	-0.451494	6
C	-0.783901	-1.339719	0.543716	6
C	0.471999	-0.488479	0.492696	6
C	1.017119	-0.107479	-0.900564	6
C	0.598999	1.318061	-1.064704	6
C	0.181999	1.847291	0.089196	6
C	0.245519	0.859521	1.210546	6
H	-2.507231	-2.238939	-0.274244	1
H	-1.519921	-1.211929	-1.452464	1
H	-1.001771	-1.768799	1.521996	1
H	1.243879	-1.062789	1.022316	1
H	0.642709	-0.739559	-1.709334	1
H	2.112099	-0.163129	-0.914784	1
H	0.663619	1.855241	-2.000784	1
H	-0.140501	2.871581	0.215576	1
H	1.087879	1.102341	1.867926	1
H	-0.674291	0.878591	1.804406	1
Es	-0.379159	0.868524	1.614954	99
Es	0.471946	-0.488472	0.492680	99
Es	0.599039	1.317998	-1.064804	99
Es	-1.638265	-1.611814	-0.451568	99
Es	-1.393754	-1.215220	0.109632	99
Es	1.760484	-0.139262	-0.905375	99
Es	0.647241	1.674663	-1.707805	99
Es	-0.167932	-0.910703	0.491876	99
Es	0.075800	1.507826	-0.567112	99
Es	0.346863	0.169901	0.866286	99
Es	0.809426	0.604597	-1.021046	99
Es	-1.558412	-1.344920	-1.133112	99
Es	0.820890	1.027018	1.652092	99
Es	0.181959	1.847327	0.089320	99
Es	0.685557	1.688502	-0.429482	99
Es	0.759511	-0.536380	-1.448274	99
Es	0.735166	-0.318621	-0.214964	99
Es	-0.783813	-1.339687	0.543793	99
Es	-2.229627	-2.036269	-0.336877	99
Es	0.992849	-0.885655	0.857234	99
Es	0.245525	0.859516	1.210506	99
Es	-0.038903	2.543103	0.186949	99
Es	1.017102	-0.107445	-0.900540	99
Es	-0.923447	-1.624893	1.215648	99
Es	-1.042131	-1.746349	-0.048758	99
Es	0.196644	1.377017	0.669663	99
43
Properties=species:S:1:pos:R:3:Z:I:1 energy=-270.94399524612396 field_type=dipole dipole="0.000000 0.000000 0.000000" charge=0
C	-1.638201	-1.611799	-0.451494	6
C	-0.783901	-1.339719	0.543716	6
C	0.471999	-0.488479	0.492696	6
C	1.017119	-0.107479	-0.900564	6
C	0.598999	1.318061	-1.064704	6
C	0.181999	1.847291	0.089196	6
C	0.245519	0.859521	1.210546	6
H	-2.507231	-2.238939	-0.274244	1
H	-1.519921	-1.211929	-1.452464	1
H	-1.001771	-1.768799	1.521996	1
H	1.243879	-1.062789	1.022316	1
H	0.642709	-0.739559	-1.709334	1
H	2.112099	-0.163129	-0.914784	1
H	0.663619	1.855241	-2.000784	1
H	-0.140501	2.871581	0.215576	1
H	1.087879	1.102341	1.867926	1
H	-0.674291	0.878591	1.804406	1
Es	-0.038957	2.543107	0.186835	99
Es	0.685393	1.688442	-0.429524	99
Es	0.471946	-0.488473	0.492679	99
Es	0.647280	1.674799	-1.707729	99
Es	0.245525	0.859517	1.210507	99
Es	0.346658	0.169871	0.866382	99
Es	-1.393871	-1.215309	0.109669	99
Es	-1.042243	-1.746177	-0.048607	99
Es	1.017102	-0.107451	-0.900538	99
Es	0.809544	0.604590	-1.021165	99
Es	1.760464	-0.139408	-0.905381	99
Es	-0.923433	-1.624923	1.215642	99
Es	-0.783811	-1.339686	0.543794	99
Es	-0.167719	-0.910735	0.491809	99
Es	-0.379073	0.868650	1.614842	99
Es	0.992832	-0.885611	0.857168	99
Es	-1.638266	-1.611813	-0.451569	99
Es	0.196737	1.377011	0.669762	99
Es	-1.558311	-1.344980	-1.133152	99
Es	0.181961	1.847328	0.089320	99
Es	0.820878	1.026968	1.652191	99
Es	0.075956	1.507843	-0.567036	99
Es	0.735043	-0.318676	-0.214983	99
Es	0.759499	-0.536268	-1.448269	99
Es	-2.229596	-2.036311	-0.336924	99
Es	0.599019	1.317996	-1.064803	99
43
Properties=species:S:1:pos:R:3:Z:I:1 energy=-270.94399524612396 field_type=dipole dipole="0.000000 0.000000 0.000000" charge=0
C	-1.638201	-1.611799	-0.451494	6
C	-0.783901	-1.339719	0.543716	6
C	0.471999	-0.488479	0.492696	6
C	1.017119	-0.107479	-0.900564	6
C	0.598999	1.318061	-1.064704	6
C	0.181999	1.847291	0.089196	6
C	0.245519	0.859521	1.210546	6
H	-2.507231	-2.238939	-0.274244	1
H	-1.519921	-1.211929	-1.452464	1
H	-1.001771	-1.768799	1.521996	1
H	1.243879	-1.062789	1.022316	1
H	0.642709	-0.739559	-1.709334	1
H	2.112099	-0.163129	-0.914784	1
H	0.663619	1.855241	-2.000784	1
H	-0.140501	2.871581	0.215576	1
H	1.087879	1.102341	1.867926	1
H	-0.674291	0.878591	1.804406	1
Es	0.685267	1.688445	-0.429558	99
Es	-1.042201	-1.746201	-0.048678	99
Es	0.820863	1.026986	1.652077	99
Es	0.735045	-0.318703	-0.214937	99
Es	0.647274	1.674815	-1.707728	99
Es	-0.379020	0.868607	1.614969	99
Es	0.076084	1.507991	-0.567076	99
Es	0.181963	1.847327	0.089319	99
Es	0.196682	1.376986	0.669708	99
Es	-1.393820	-1.215378	0.109694	99
Es	-1.638261	-1.611817	-0.451568	99
Es	0.346706	0.169892	0.866480	99
Es	0.992782	-0.885625	0.857108	99
Es	0.471948	-0.488473	0.492680	99
Es	-2.229646	-2.036231	-0.336865	99
Es	0.599044	1.317996	-1.064810	99
Es	-0.783829	-1.339665	0.543795	99
Es	0.759592	-0.536301	-1.448239	99
Es	1.017102	-0.107451	-0.900539	99
Es	1.760430	-0.139305	-0.905423	99
Es	-1.558384	-1.344941	-1.133133	99
Es	0.245526	0.859511	1.210503	99
Es	-0.038964	2.543108	0.186871	99
Es	-0.167725	-0.910660	0.491838	99
Es	-0.923347	-1.625045	1.215610	99
Es	0.809446	0.604434	-1.021180	99
43
Properties=species:S:1:pos:R:3:Z:I:1 energy=-270.94399524612396 field_type=dipole dipole="0.000000 0.000000 0.000000" charge=0
C	-1.638201	-1.611799	-0.451494	6
C	-0.783901	-1.339719	0.543716	6
C	0.471999	-0.488479	0.492696	6
C	1.017119	-0.107479	-0.900564	6
C	0.598999	1.318061	-1.064704	6
C	0.181999	1.847291	0.089196	6
C	0.245519	0.859521	1.210546	6
H	-2.507231	-2.238939	-0.274244	1
H	-1.519921	-1.211929	-1.452464	1
H	-1.001771	-1.768799	1.521996	1
H	1.243879	-1.062789	1.022316	1
H	0.642709	-0.739559	-1.709334	1
H	2.112099	-0.163129	-0.914784	1
H	0.663619	1.855241	-2.000784	1
H	-0.140501	2.871581	0.215576	1
H	1.087879	1.102341	1.867926	1
H	-0.674291	0.878591	1.804406	1
Es	0.647122	1.674875	-1.707731	99
Es	0.685332	1.688393	-0.429517	99
Es	-1.558308	-1.345017	-1.133167	99
Es	0.809389	0.604371	-1.021236	99
Es	-0.167588	-0.910617	0.491685	99
Es	0.735223	-0.318797	-0.214881	99
Es	-1.393793	-1.215445	0.109668	99
Es	0.759618	-0.536292	-1.448225	99
Es	1.760370	-0.139246	-0.905532	99
Es	1.017102	-0.107451	-0.900539	99
Es	0.992675	-0.885635	0.857161	99
Es	0.346682	0.169785	0.866463	99
Es	-1.042343	-1.746001	-0.048551	99
Es	0.076365	1.508064	-0.567012	99
Es	0.245523	0.859517	1.210506	99
Es	0.471948	-0.488473	0.492680	99
Es	-0.039026	2.543077	0.186758	99
Es	0.599043	1.317995	-1.064809	99
Es	-2.229606	-2.036327	-0.336884	99
Es	-0.378978	0.868659	1.614903	99
Es	0.196601	1.376986	0.669849	99
Es	0.181943	1.847323	0.089319	99
Es	-0.783821	-1.339688	0.543791	99
Es	0.820792	1.027061	1.652119	99
Es	-0.923446	-1.625005	1.215670	99
Es	-1.638261	-1.611816	-0.451569	99
43
Properties=species:S:1:pos:R:3:Z:I:1 energy=-270.94399524612396 field_type=dipole dipole="0.000000 0.000000 0.000000" charge=0
C	-1.638201	-1.611799	-0.451494	6
C	-0.783901	-1.339719	0.543716	6
C	0.471999	-0.488479	0.492696	6
C	1.017119	-0.107479	-0.900564	6
C	0.598999	1.318061	-1.064704	6
C	0.181999	1.847291	0.089196	6
C	0.245519	0.859521	1.210546	6
H	-2.507231	-2.238939	-0.274244	1
H	-1.519921	-1.211929	-1.452464	1
H	-1.001771	-1.768799	1.521996	1
H	1.243879	-1.062789	1.022316	1
H	0.642709	-0.739559	-1.709334	1
H	2.112099	-0.163129	-0.914784	1
H	0.663619	1.855241	-2.000784	1
H	-0.140501	2.871581	0.215576	1
H	1.087879	1.102341	1.867926	1
H	-0.674291	0.878591	1.804406	1
Es	0.245525	0.859517	1.210506	99
Es	0.735112	-0.318850	-0.214912	99
Es	0.599043	1.317996	-1.064809	99
Es	-1.393746	-1.215532	0.109654	99
Es	-0.378917	0.868679	1.614931	99
Es	-1.638260	-1.611817	-0.451568	99
Es	1.760354	-0.139273	-0.905486	99
Es	0.647195	1.674957	-1.707700	99
Es	0.685010	1.688346	-0.429609	99
Es	-0.923521	-1.625021	1.215661	99
Es	1.017102	-0.107451	-0.900539	99
Es	-1.558304	-1.344979	-1.133158	99
Es	0.346697	0.169786	0.866490	99
Es	-0.783813	-1.339684	0.543795	99
Es	0.196611	1.376934	0.669898	99
Es	0.471948	-0.488473	0.492680	99
Es	0.181955	1.847324	0.089317	99
Es	-2.229602	-2.036355	-0.336899	99
Es	0.820762	1.027062	1.652089	99
Es	0.759675	-0.536253	-1.448251	99
Es	-1.042386	-1.745934	-0.048534	99
Es	0.076455	1.508113	-0.566996	99
Es	-0.038956	2.543154	0.186747	99
Es	0.992637	-0.885675	0.857111	99
Es	-0.167496	-0.910571	0.491722	99
Es	0.809478	0.604300	-1.021225	99
43
Properties=species:S:1:pos:R:3:Z:I:1 energy=-270.94399524612396 field_type=dipole dipole="0.000000 0.000000 0.000000" charge=0
C	-1.638201	-1.611799	-0.451494	6
C	-0.783901	-1.339719	0.543716	6
C	0.471999	-0.488479	0.492696	6
C	1.017119	-0.107479	-0.900564	6
C	0.598999	1.318061	-1.064704	6
C	0.181999	1.847291	0.089196	6
C	0.245519	0.859521	1.210546	6
H	-2.507231	-2.238939	-0.274244	1
H	-1.519921	-1.211929	-1.452464	1
H	-1.001771	-1.768799	1.521996	1
H	1.243879	-1.062789	1.022316	1
H	0.642709	-0.739559	-1.709334	1
H	2.112099	-0.163129	-0.914784	1
H	0.663619	1.855241	-2.000784	1
H	-0.140501	2.871581	0.215576	1
H	1.087879	1.102341	1.867926	1
H	-0.674291	0.878591	1.804406	1
Es	1.017102	-0.107451	-0.900539	99
Es	-1.638259	-1.611816	-0.451566	99
Es	-1.042444	-1.745873	-0.048507	99
Es	-0.038873	2.543192	0.186712	99
Es	0.992586	-0.885676	0.857092	99
Es	0.759711	-0.536225	-1.448248	99
Es	-1.393687	-1.215613	0.109649	99
Es	1.760327	-0.139271	-0.905513	99
Es	-2.229607	-2.036365	-0.336896	99
Es	0.599043	1.317996	-1.064808	99
Es	0.809594	0.604262	-1.021230	99
Es	-0.378882	0.868700	1.614930	99
Es	0.076427	1.508033	-0.566965	99
Es	0.245525	0.859517	1.210506	99
Es	0.735102	-0.318896	-0.214896	99
Es	0.471949	-0.488473	0.492680	99
Es	-0.783811	-1.339686	0.543794	99
Es	-0.167406	-0.910537	0.491699	99
Es	0.647251	1.675026	-1.707662	99
Es	-1.558294	-1.344972	-1.133160	99
Es	0.346686	0.169763	0.866513	99
Es	-0.923563	-1.625040	1.215670	99
Es	0.196696	1.376948	0.669992	99
Es	0.684703	1.688355	-0.429729	99
Es	0.820719	1.027077	1.652085	99
Es	0.181965	1.847326	0.089318	99
43
Properties=species:S:1:pos:R:3:Z:I:1 energy=-270.94399524612396 field_type=dipole dipole="0.000000 0.000000 0.000000" charge=0
C	-1.638201	-1.611799	-0.451494	6
C	-0.783901	-1.339719	0.543716	6
C	0.471999	-0.488479	0.492696	6
C	1.017119	-0.107479	-0.900564	6
C	0.598999	1.318061	-1.064704	6
C	0.181999	1.847291	0.089196	6
C	0.245519	0.859521	1.210546	6
H	-2.507231	-2.238939	-0.274244	1
H	-1.519921	-1.211929	-1.452464	1
H	-1.001771	-1.768799	1.521996	1
H	1.243879	-1.062789	1.022316	1
H	0.642709	-0.739559	-1.709334	1
H	2.112099	-0.163129	-0.914784	1
H	0.663619	1.855241	-2.000784	1
H	-0.140501	2.871581	0.215576	1
H	1.087879	1.102341	1.867926	1
H	-0.674291	0.878591	1.804406	1
Es	0.076698	1.508180	-0.566935	99
Es	1.760305	-0.139269	-0.905542	99
Es	0.346666	0.169741	0.866530	99
Es	0.647160	1.675066	-1.707664	99
Es	-0.167315	-0.910505	0.491676	99
Es	0.684675	1.688296	-0.429710	99
Es	0.735096	-0.318947	-0.214887	99
Es	1.017102	-0.107451	-0.900539	99
Es	-1.558282	-1.344972	-1.133167	99
Es	-0.378835	0.868717	1.614934	99
Es	0.599043	1.317996	-1.064808	99
Es	0.992538	-0.885682	0.857073	99
Es	-1.042496	-1.745789	-0.048472	99
Es	0.820686	1.027098	1.652075	99
Es	-2.229601	-2.036383	-0.336898	99
Es	0.181963	1.847326	0.089317	99
Es	-0.038923	2.543200	0.186645	99
Es	-0.923596	-1.625066	1.215676	99
Es	-1.393656	-1.215686	0.109648	99
Es	-1.638260	-1.611817	-0.451568	99
Es	0.196618	1.376908	0.670059	99
Es	-0.783813	-1.339684	0.543794	99
Es	0.245525	0.859517	1.210507	99
Es	0.471949	-0.488473	0.492680	99
Es	0.809570	0.604175	-1.021263	99
Es	0.759740	-0.536194	-1.448242	99
43
Properties=species:S:1:pos:R:3:Z:I:1 energy=-270.94399524612396 field_type=dipole dipole="0.000000 0.000000 0.000000" charge=0
C	-1.638201	-1.611799	-0.451494	6
C	-0.783901	-1.339719	0.543716	6
C	0.471999	-0.488479	0.492696	6
C	1.017119	-0.107479	-0.900564	6
C	0.598999	1.318061	-1.064704	6
C	0.181999	1.847291	0.089196	6
C	0.245519	0.859521	1.210546	6
H	-2.507231	-2.238939	-0.274244	1
H	-1.519921	-1.211929	-1.452464	1
H	-1.001771	-1.768799	1.521996	1
H	1.243879	-1.062789	1.022316	1
H	0.642709	-0.739559	-1.709334	1
H	2.112099	-0.163129	-0.914784	1
H	0.663619	1.855241	-2.000784	1
H	-0.140501	2.871581	0.215576	1
H	1.087879	1.102341	1.867926	1
H	-0.674291	0.878591	1.804406	1
Es	1.017102	-0.107451	-0.900539	99
Es	-0.378798	0.868736	1.614912	99
Es	0.599044	1.317995	-1.064808	99
Es	0.759778	-0.536183	-1.448240	99
Es	-1.638261	-1.611818	-0.451579	99
Es	0.820657	1.027106	1.652093	99
Es	0.076866	1.508257	-0.566905	99
Es	-2.229603	-2.036398	-0.336896	99
Es	0.735112	-0.318987	-0.214893	99
Es	0.181963	1.847326	0.089317	99
Es	0.992458	-0.885675	0.857037	99
Es	0.245525	0.859518	1.210506	99
Es	0.809572	0.604128	-1.021309	99
Es	0.647114	1.675082	-1.707648	99
Es	-1.393764	-1.215701	0.109674	99
Es	-1.558257	-1.344980	-1.133176	99
Es	0.346672	0.169718	0.866570	99
Es	1.760266	-0.139264	-0.905564	99
Es	-1.042521	-1.745646	-0.048404	99
Es	-0.167219	-0.910519	0.491697	99
Es	-0.923543	-1.625162	1.215610	99
Es	0.684653	1.688298	-0.429715	99
Es	0.471950	-0.488473	0.492680	99
Es	-0.038994	2.543196	0.186607	99
Es	0.196604	1.376881	0.670099	99
Es	-0.783817	-1.339684	0.543791	99
43
Properties=species:S:1:pos:R:3:Z:I:1 energy=-270.94399524612396 field_type=dipole dipole="0.000000 0.000000 0.000000" charge=0
C	-1.638201	-1.611799	-0.451494	6
C	-0.783901	-1.339719	0.543716	6
C	0.471999	-0.488479	0.492696	6
C	1.017119	-0.107479	-0.900564	6
C	0.598999	1.318061	-1.064704	6
C	0.181999	1.847291	0.089196	6
C	0.245519	0.859521	1.210546	6
H	-2.507231	-2.238939	-0.274244	1
H	-1.519921	-1.211929	-1.452464	1
H	-1.001771	-1.768799	1.521996	1
H	1.243879	-1.062789	1.022316	1
H	0.642709	-0.739559	-1.709334	1
H	2.112099	-0.163129	-0.914784	1
H	0.663619	1.855241	-2.000784	1
H	-0.140501	2.871581	0.215576	1
H	1.087879	1.102341	1.867926	1
H	-0.674291	0.878591	1.804406	1
Es	0.820597	1.027135	1.652077	99
Es	0.809576	0.604034	-1.021323	99
Es	0.196611	1.376884	0.670196	99
Es	-0.167127	-0.910438	0.491629	99
Es	0.647063	1.675140	-1.707649	99
Es	0.471949	-0.488473	0.492681	99
Es	-0.783813	-1.339685	0.543793	99
Es	0.992447	-0.885688	0.857034	99
Es	-1.393568	-1.215850	0.109625	99
Es	0.735076	-0.319029	-0.214862	99
Es	-0.923671	-1.625122	1.215679	99
Es	-1.558249	-1.344977	-1.133167	99
Es	0.181963	1.847325	0.089316	99
Es	-1.638250	-1.611809	-0.451570	99
Es	0.245525	0.859517	1.210507	99
Es	0.759815	-0.536150	-1.448229	99
Es	-0.378762	0.868760	1.614920	99
Es	-2.229620	-2.036416	-0.336889	99
Es	0.599043	1.317996	-1.064807	99
Es	1.017102	-0.107453	-0.900543	99
Es	0.077036	1.508311	-0.566873	99
Es	1.760249	-0.139250	-0.905588	99
Es	-1.042615	-1.745619	-0.048401	99
Es	0.684498	1.688261	-0.429755	99
Es	-0.038959	2.543212	0.186539	99
Es	0.346643	0.169683	0.866581	99
43
Properties=species:S:1:pos:R:3:Z:I:1 energy=-270.94399524612396 field_type=dipole dipole="0.000000 0.000000 0.000000" charge=0
C	-1.638201	-1.611799	-0.451494	6
C	-0.783901	-1.339719	0.543716	6
C	0.471999	-0.488479	0.492696	6
C	1.017119	-0.107479	-0.900564	6
C	0.598999	1.318061	-1.064704	6
C	0.181999	1.847291	0.089196	6
C	0.245519	0.859521	1.210546	6
H	-2.507231	-2.238939	-0.274244	1
H	-1.519921	-1.211929	-1.452464	1
H	-1.001771	-1.768799	1.521996	1
H	1.243879	-1.062789	1.022316	1
H	0.642709	-0.739559	-1.709334	1
H	2.112099	-0.163129	-0.914784	1
H	0.663619	1.855241	-2.000784	1
H	-0.140501	2.871581	0.215576	1
H	1.087879	1.102341	1.867926	1
H	-0.674291	0.878591	1.804406	1
Es	-0.923724	-1.625094	1.215695	99
Es	-0.167051	-0.910462	0.491671	99
Es	0.992255	-0.885603	0.856930	99
Es	-1.638255	-1.611814	-0.451563	99
Es	0.820535	1.027124	1.652043	99
Es	-2.229614	-2.036407	-0.336888	99
Es	0.196617	1.376913	0.670227	99
Es	0.759906	-0.536096	-1.448189	99
Es	-0.783814	-1.339684	0.543793	99
Es	-0.378745	0.868775	1.614945	99
Es	0.077195	1.508406	-0.566863	99
Es	0.735110	-0.319154	-0.214916	99
Es	1.017102	-0.107451	-0.900538	99
Es	0.346677	0.169717	0.866715	99
Es	0.245523	0.859518	1.210508	99
Es	0.646977	1.675160	-1.707650	99
Es	0.181962	1.847324	0.089318	99
Es	1.760288	-0.139202	-0.905616	99
Es	-0.038988	2.543195	0.186512	99
Es	0.684529	1.688240	-0.429733	99
Es	-1.042654	-1.745667	-0.048425	99
Es	-1.558257	-1.344955	-1.133177	99
Es	0.809454	0.603914	-1.021393	99
Es	-1.393462	-1.215921	0.109642	99
Es	0.599042	1.317996	-1.064809	99
Es	0.471950	-0.488473	0.492681	99
43
Properties=species:S:1:pos:R:3:Z:I:1 energy=-270.94399524612396 field_type=dipole dipole="0.000000 0.000000 0.000000" charge=0
C	-1.638201	-1.611799	-0.451494	6
C	-0.783901	-1.339719	0.543716	6
C	0.471999	-0.488479	0.492696	6
C	1.017119	-0.107479	-0.900564	6
C	0.598999	1.318061	-1.064704	6
C	0.181999	1.847291	0.089196	6
C	0.245519	0.859521	1.210546	6
H	-2.507231	-2.238939	-0.274244	1
H	-1.519921	-1.211929	-1.452464	1
H	-1.001771	-1.768799	1.521996	1
H	1.243879	-1.062789	1.022316	1
H	0.642709	-0.739559	-1.709334	1
H	2.112099	-0.163129	-0.914784	1
H	0.663619	1.855241	-2.000784	1
H	-0.140501	2.871581	0.215576	1
H	1.087879	1.102341	1.867926	1
H	-0.674291	0.878591	1.804406	1
Es	0.647027	1.675236	-1.707603	99
Es	1.760211	-0.139236	-0.905630	99
Es	-0.038945	2.543268	0.186442	99
Es	0.245524	0.859517	1.210505	99
Es	0.820514	1.027169	1.652031	99
Es	0.599043	1.318000	-1.064804	99
Es	0.196647	1.376834	0.670349	99
Es	-0.923711	-1.625195	1.215691	99
Es	-0.378714	0.868808	1.614945	99
Es	0.346643	0.169648	0.866621	99
Es	0.471954	-0.488478	0.492682	99
Es	0.809645	0.603896	-1.021361	99
Es	-0.166971	-0.910418	0.491583	99
Es	-1.638259	-1.611818	-0.451569	99
Es	-1.393559	-1.215963	0.109609	99
Es	0.077296	1.508379	-0.566811	99
Es	0.181962	1.847325	0.089315	99
Es	1.017107	-0.107451	-0.900541	99
Es	-1.042673	-1.745403	-0.048327	99
Es	-1.558215	-1.344988	-1.133166	99
Es	-0.783813	-1.339685	0.543793	99
Es	0.759872	-0.536110	-1.448228	99
Es	0.735073	-0.319110	-0.214839	99
Es	0.684186	1.688220	-0.429847	99
Es	-2.229626	-2.036466	-0.336897	99
Es	0.992341	-0.885676	0.856976	99
43
Properties=species:S:1:pos:R:3:Z:I:1 energy=-270.94399524612396 field_type=dipole dipole="0.000000 0.000000 0.000000" charge=0
C	-1.638201	-1.611799	-0.451494	6
C	-0.783901	-1.339719	0.543716	6
C	0.471999	-0.488479	0.492696	6
C	1.017119	-0.107479	-0.900564	6
C	0.598999	1.318061	-1.064704	6
C	0.181999	1.847291	0.089196	6
C	0.245519	0.859521	1.210546	6
H	-2.507231	-2.238939	-0.274244	1
H	-1.519921	-1.211929	-1.452464	1
H	-1.001771	-1.768799	1.521996	1
H	1.243879	-1.062789	1.022316	1
H	0.642709	-0.739559	-1.709334	1
H	2.112099	-0.163129	-0.914784	1
H	0.663619	1.855241	-2.000784	1
H	-0.140501	2.871581	0.215576	1
H	1.087879	1.102341	1.867926	1
H	-0.674291	0.878591	1.804406	1
Es	-1.393451	-1.216027	0.109614	99
Es	0.734977	-0.319078	-0.214862	99
Es	-2.229609	-2.036489	-0.336932	99
Es	1.017103	-0.107450	-0.900541	99
Es	0.245524	0.859518	1.210508	99
Es	0.992345	-0.885686	0.856986	99
Es	0.471951	-0.488474	0.492680	99
Es	0.077424	1.508459	-0.566800	99
Es	-0.783812	-1.339687	0.543792	99
Es	0.809615	0.603858	-1.021426	99
Es	-0.923796	-1.625207	1.215731	99
Es	-1.638260	-1.611815	-0.451565	99
Es	0.820496	1.027161	1.652059	99
Es	0.647003	1.675217	-1.707617	99
Es	-0.038989	2.543244	0.186385	99
Es	0.181960	1.847323	0.089317	99
Es	1.760225	-0.139252	-0.905593	99
Es	-1.558180	-1.344952	-1.133171	99
Es	-1.042768	-1.745357	-0.048315	99
Es	0.196614	1.376839	0.670418	99
Es	-0.378660	0.868815	1.614920	99
Es	0.684183	1.688245	-0.429852	99
Es	0.599046	1.317991	-1.064801	99
Es	0.346582	0.169621	0.866599	99
Es	-0.166903	-0.910401	0.491580	99
Es	0.759936	-0.536112	-1.448196	99
43
Properties=species:S:1:pos:R:3:Z:I:1 energy=-270.94399524612396 field_type=dipole dipole="0.000000 0.000000 0.000000" charge=0
C	-1.638201	-1.611799	-0.451494	6
C	-0.783901	-1.339719	0.543716	6
C	0.471999	-0.488479	0.492696	6
C	1.017119	-0.107479	-0.900564	6
C	0.598999	1.318061	-1.064704	6
C	0.181999	1.847291	0.089196	6
C	0.245519	0.859521	1.210546	6
H	-2.507231	-2.238939	-0.274244	1
H	-1.519921	-1.211929	-1.452464	1
H	-1.001771	-1.768799	1.521996	1
H	1.243879	-1.062789	1.022316	1
H	0.642709	-0.739559	-1.709334	1
H	2.112099	-0.163129	-0.914784	1
H	0.663619	1.855241	-2.000784	1
H	-0.140501	2.871581	0.215576	1
H	1.087879	1.102341	1.867926	1
H	-0.674291	0.878591	1.804406	1
Es	0.196550	1.376767	0.670473	99
Es	0.735037	-0.319195	-0.214827	99
Es	0.346593	0.169623	0.866655	99
Es	0.820471	1.027207	1.652050	99
Es	0.759945	-0.536055	-1.448217	99
Es	-2.229606	-2.036491	-0.336888	99
Es	-0.378658	0.868836	1.614915	99
Es	0.181964	1.847324	0.089315	99
Es	1.017101	-0.107451	-0.900540	99
Es	-0.166805	-0.910328	0.491538	99
Es	0.077656	1.508565	-0.566762	99
Es	0.646912	1.675294	-1.707595	99
Es	-0.923800	-1.625211	1.215710	99
Es	0.684113	1.688161	-0.429844	99
Es	0.471951	-0.488473	0.492681	99
Es	-0.039014	2.543254	0.186328	99
Es	1.760179	-0.139225	-0.905677	99
Es	-0.783809	-1.339691	0.543792	99
Es	-1.558198	-1.344971	-1.133197	99
Es	0.599051	1.317998	-1.064804	99
Es	0.992274	-0.885704	0.856962	99
Es	0.809628	0.603774	-1.021420	99
Es	-1.042818	-1.745311	-0.048285	99
Es	-1.393421	-1.216111	0.109622	99
Es	0.245524	0.859526	1.210498	99
Es	-1.638261	-1.611811	-0.451565	99
43
Properties=species:S:1:pos:R:3:Z:I:1 energy=-270.94399524612396 field_type=dipole dipole="0.000000 0.000000 0.000000" charge=0
C	-1.638201	-1.611799	-0.451494	6
C	-0.783901	-1.339719	0.543716	6
C	0.471999	-0.488479	0.492696	6
C	1.017119	-0.107479	-0.900564	6
C	0.598999	1.318061	-1.064704	6
C	0.181999	1.847291	0.089196	6
C	0.245519	0.859521	1.210546	6
H	-2.507231	-2.238939	-0.274244	1
H	-1.519921	-1.211929	-1.452464	1
H	-1.001771	-1.768799	1.521996	1
H	1.243879	-1.062789	1.022316	1
H	0.642709	-0.739559	-1.709334	1
H	2.112099	-0.163129	-0.914784	1
H	0.663619	1.855241	-2.000784	1
H	-0.140501	2.871581	0.215576	1
H	1.087879	1.102341	1.867926	1
H	-0.674291	0.878591	1.804406	1
Es	-0.923824	-1.625224	1.215713	99
Es	0.077680	1.508536	-0.566738	99
Es	0.992244	-0.885701	0.856950	99
Es	-1.393418	-1.216169	0.109646	99
Es	0.346572	0.169612	0.866650	99
Es	0.181964	1.847323	0.089315	99
Es	0.809697	0.603715	-1.021409	99
Es	-1.638258	-1.611816	-0.451566	99
Es	-1.558189	-1.344960	-1.133195	99
Es	0.735007	-0.319217	-0.214821	99
Es	-0.038918	2.543308	0.186281	99
Es	1.017102	-0.107451	-0.900540	99
Es	0.759982	-0.536050	-1.448248	99
Es	0.820451	1.027208	1.652009	99
Es	-1.042858	-1.745241	-0.048257	99
Es	-0.378636	0.868858	1.614954	99
Es	0.599042	1.317997	-1.064805	99
Es	0.196574	1.376782	0.670554	99
Es	1.760155	-0.139188	-0.905670	99
Es	-0.783815	-1.339684	0.543792	99
Es	-0.166728	-0.910304	0.491513	99
Es	0.471951	-0.488473	0.492681	99
Es	0.683895	1.688109	-0.429903	99
Es	0.245525	0.859518	1.210507	99
Es	-2.229579	-2.036533	-0.336911	99
Es	0.646940	1.675348	-1.707587	99
43
Properties=species:S:1:pos:R:3:Z:I:1 energy=-270.94399524612396 field_type=dipole dipole="0.000000 0.000000 0.000000" charge=0
C	-1.638201	-1.611799	-0.451494	6
C	-0.783901	-1.339719	0.543716	6
C	0.471999	-0.488479	0.492696	6
C	1.017119	-0.107479	-0.900564	6
C	0.598999	1.318061	-1.064704	6
C	0.181999	1.847291	0.089196	6
C	0.245519	0.859521	1.210546	6
H	-2.507231	-2.238939	-0.274244	1
H	-1.519921	-1.211929	-1.452464	1
H	-1.001771	-1.768799	1.521996	1
H	1.243879	-1.062789	1.022316	1
H	0.642709	-0.739559	-1.709334	1
H	2.112099	-0.163129	-0.914784	1
H	0.663619	1.855241	-2.000784	1
H	-0.140501	2.871581	0.215576	1
H	1.087879	1.102341	1.867926	1
H	-0.674291	0.878591	1.804406	1
Es	0.599042	1.317997	-1.064804	99
Es	1.017102	-0.107451	-0.900540	99
Es	0.735013	-0.319252	-0.214815	99
Es	0.196569	1.376753	0.670592	99
Es	0.077870	1.508588	-0.566692	99
Es	1.760134	-0.139198	-0.905685	99
Es	-0.166657	-0.910223	0.491467	99
Es	-2.229675	-2.036634	-0.336889	99
Es	-0.038885	2.543391	0.186225	99
Es	-0.783815	-1.339685	0.543792	99
Es	0.245524	0.859518	1.210507	99
Es	0.809672	0.603672	-1.021465	99
Es	-0.378593	0.868865	1.614902	99
Es	-1.638257	-1.611816	-0.451565	99
Es	0.346576	0.169577	0.866696	99
Es	-1.393286	-1.216268	0.109571	99
Es	0.820405	1.027244	1.652048	99
Es	0.992193	-0.885740	0.856938	99
Es	-1.558115	-1.344986	-1.133146	99
Es	0.471951	-0.488473	0.492681	99
Es	-0.923878	-1.625265	1.215729	99
Es	0.646960	1.675471	-1.707570	99
Es	0.683665	1.687953	-0.429908	99
Es	0.181964	1.847323	0.089314	99
Es	-1.042947	-1.745024	-0.048242	99
Es	0.760026	-0.536034	-1.448222	99
43
Properties=species:S:1:pos:R:3:Z:I:1 energy=-270.94399524612396 field_type=dipole dipole="0.000000 0.000000 0.000000" charge=0
C	-1.638201	-1.611799	-0.451494	6
C	-0.783901	-1.339719	0.543716	6
C	0.471999	-0.488479	0.492696	6
C	1.017119	-0.107479	-0.900564	6
C	0.598999	1.318061	-1.064704	6
C	0.181999	1.847291	0.089196	6
C	0.245519	0.859521	1.210546	6
H	-2.507231	-2.238939	-0.274244	1
H	-1.519921	-1.211929	-1.452464	1
H	-1.001771	-1.768799	1.521996	1
H	1.243879	-1.062789	1.022316	1
H	0.642709	-0.739559	-1.709334	1
H	2.112099	-0.163129	-0.914784	1
H	0.663619	1.855241	-2.000784	1
H	-0.140501	2.871581	0.215576	1
H	1.087879	1.102341	1.867926	1
H	-0.674291	0.878591	1.804406	1
Es	0.599041	1.317996	-1.064804	99
Es	-0.038941	2.543312	0.186164	99
Es	-1.558129	-1.344998	-1.133263	99
Es	-1.638257	-1.611817	-0.451566	99
Es	-2.229557	-2.036566	-0.336885	99
Es	-1.393390	-1.216293	0.109626	99
Es	0.646898	1.675431	-1.707519	99
Es	1.760156	-0.139204	-0.905716	99
Es	0.683640	1.688125	-0.430003	99
Es	0.471950	-0.488472	0.492680	99
Es	0.992229	-0.885655	0.856916	99
Es	-0.923893	-1.625303	1.215695	99
Es	0.077927	1.508608	-0.566669	99
Es	0.734929	-0.319302	-0.214803	99
Es	1.017104	-0.107450	-0.900540	99
Es	-1.042984	-1.745012	-0.048150	99
Es	-0.166492	-0.910329	0.491500	99
Es	-0.378523	0.868941	1.614930	99
Es	0.809751	0.603586	-1.021474	99
Es	0.760035	-0.535986	-1.448203	99
Es	-0.783814	-1.339686	0.543791	99
Es	0.181971	1.847324	0.089313	99
Es	0.346425	0.169542	0.866701	99
Es	0.196547	1.376707	0.670687	99
Es	0.820414	1.027283	1.652004	99
Es	0.245522	0.859516	1.210507	99
