47
Properties=species:S:1:pos:R:3:Z:I:1 energy=-305.27101125342006 field_type=dipole dipole="0.000000 0.000000 0.000000" charge=0
C	-0.952944	-2.108212	-1.252686	6
N	-0.756724	-1.499092	0.058704	7
C	0.201016	-0.395922	-0.051056	6
C	-0.525244	0.896188	-0.495576	6
C	0.121956	1.625418	0.699514	6
N	1.397066	2.216008	0.281484	7
C	0.375267	0.247348	1.346104	6
H	-1.685364	-2.917092	-1.170426	1
H	-0.021464	-2.535222	-1.638446	1
H	-1.342224	-1.386882	-1.978256	1
H	-0.461134	-2.225452	0.711694	1
H	1.143486	-0.614642	-0.565236	1
H	-1.620454	0.867038	-0.421776	1
H	-0.267974	1.259948	-1.496106	1
H	-0.528644	2.307298	1.252084	1
H	2.019596	1.599038	-0.237496	1
H	1.947067	2.584348	1.056874	1
H	1.351956	0.092918	1.816644	1
H	-0.395244	-0.013032	2.083964	1
Es	-0.231271	1.335595	0.067205	99
Es	-1.211879	-1.609781	-1.745675	99
Es	1.759561	1.810798	-0.007544	99
Es	0.868616	1.939818	0.479317	99
Es	-0.304728	-1.055639	-0.005258	99
Es	-0.546189	-1.942994	0.439404	99
Es	-0.155926	0.058669	1.837787	99
Es	0.329291	-0.144176	0.679666	99
Es	-0.344332	1.149685	-1.179549	99
Es	-0.305074	-2.400713	-1.524475	99
Es	-1.264262	0.864155	-0.437342	99
Es	-0.313662	2.104328	1.082077	99
Es	-0.178399	0.213379	-0.358119	99
Es	1.724976	2.409228	0.769158	99
Es	-1.450993	-2.665065	-1.197489	99
Es	-0.525206	0.896173	-0.495540	99
Es	1.397194	2.215553	0.281845	99
Es	-0.952928	-2.108163	-1.252579	99
Es	0.200919	-0.395991	-0.051019	99
Es	0.264856	0.962145	1.111258	99
Es	-0.820965	-1.774153	-0.521276	99
Es	-1.057159	-1.361362	0.175570	99
Es	1.052324	0.147637	1.670762	99
Es	-0.756199	-1.499356	0.058474	99
Es	1.334646	2.484729	0.070473	99
Es	0.122099	1.625426	0.699452	99
Es	0.375265	0.247340	1.346065	99
Es	0.851161	-0.546620	-0.411897	99
47
Properties=species:S:1:pos:R:3:Z:I:1 energy=-305.27101125342006 field_type=dipole dipole="0.000000 0.000000 0.000000" charge=0
C	-0.952944	-2.108212	-1.252686	6
N	-0.756724	-1.499092	0.058704	7
C	0.201016	-0.395922	-0.051056	6
C	-0.525244	0.896188	-0.495576	6
C	0.121956	1.625418	0.699514	6
N	1.397066	2.216008	0.281484	7
C	0.375267	0.247348	1.346104	6
H	-1.685364	-2.917092	-1.170426	1
H	-0.021464	-2.535222	-1.638446	1
H	-1.342224	-1.386882	-1.978256	1
H	-0.461134	-2.225452	0.711694	1
H	1.143486	-0.614642	-0.565236	1
H	-1.620454	0.867038	-0.421776	1
H	-0.267974	1.259948	-1.496106	1
H	-0.528644	2.307298	1.252084	1
H	2.019596	1.599038	-0.237496	1
H	1.947067	2.584348	1.056874	1
H	1.351956	0.092918	1.816644	1
H	-0.395244	-0.013032	2.083964	1
Es	-0.155899	0.058751	1.837793	99
Es	1.052229	0.147672	1.670805	99
Es	-0.756206	-1.499362	0.058481	99
Es	0.375265	0.247340	1.346068	99
Es	-0.231333	1.335690	0.067110	99
Es	-0.344415	1.149674	-1.179507	99
Es	-0.313537	2.104267	1.082031	99
Es	-0.821051	-1.774221	-0.521229	99
Es	-0.546306	-1.942957	0.439507	99
Es	1.725132	2.408307	0.769283	99
Es	-1.264224	0.864242	-0.437312	99
Es	1.397186	2.215570	0.281845	99
Es	-0.952928	-2.108163	-1.252579	99
Es	-0.305113	-2.400543	-1.524435	99
Es	0.200919	-0.395987	-0.051020	99
Es	0.122099	1.625426	0.699452	99
Es	-1.057035	-1.361294	0.175490	99
Es	-0.304611	-1.055802	-0.005277	99
Es	0.850974	-0.546585	-0.411792	99
Es	-0.178403	0.213323	-0.358292	99
Es	-0.525205	0.896173	-0.495539	99
Es	1.759379	1.810978	-0.008324	99
Es	0.264841	0.962142	1.111273	99
Es	1.334809	2.485251	0.071211	99
Es	0.329461	-0.144289	0.679681	99
Es	-1.211888	-1.609778	-1.745698	99
Es	-1.450923	-2.665223	-1.197542	99
Es	0.868519	1.940044	0.479267	99
47
Properties=species:S:1:pos:R:3:Z:I:1 energy=-305.27101125342006 field_type=dipole dipole="0.000000 0.000000 0.000000" charge=0
C	-0.952944	-2.108212	-1.252686	6
N	-0.756724	-1.499092	0.058704	7
C	0.201016	-0.395922	-0.051056	6
C	-0.525244	0.896188	-0.495576	6
C	0.121956	1.625418	0.699514	6
N	1.397066	2.216008	0.281484	7
C	0.375267	0.247348	1.346104	6
H	-1.685364	-2.917092	-1.170426	1
H	-0.021464	-2.535222	-1.638446	1
H	-1.342224	-1.386882	-1.978256	1
H	-0.461134	-2.225452	0.711694	1
H	1.143486	-0.614642	-0.565236	1
H	-1.620454	0.867038	-0.421776	1
H	-0.267974	1.259948	-1.496106	1
H	-0.528644	2.307298	1.252084	1
H	2.019596	1.599038	-0.237496	1
H	1.947067	2.584348	1.056874	1
H	1.351956	0.092918	1.816644	1
H	-0.395244	-0.013032	2.083964	1
Es	0.329590	-0.144452	0.679762	99
Es	-0.756234	-1.499349	0.058486	99
Es	-1.211821	-1.609841	-1.745743	99
Es	-0.155829	0.058784	1.837810	99
Es	0.264837	0.962210	1.111301	99
Es	-0.525205	0.896174	-0.495539	99
Es	1.725084	2.408292	0.769159	99
Es	-0.313461	2.104213	1.082008	99
Es	-0.952928	-2.108164	-1.252580	99
Es	1.397197	2.215544	0.281854	99
Es	-0.304666	-1.055520	-0.005138	99
Es	-0.344481	1.149658	-1.179492	99
Es	0.850875	-0.546525	-0.411880	99
Es	-0.305220	-2.400707	-1.524463	99
Es	0.375263	0.247338	1.346066	99
Es	1.759417	1.810945	-0.008149	99
Es	1.334537	2.485529	0.070929	99
Es	0.868765	1.939879	0.479493	99
Es	0.122099	1.625426	0.699452	99
Es	-1.056538	-1.361590	0.175282	99
Es	0.200917	-0.395986	-0.051020	99
Es	-0.821115	-1.774185	-0.521341	99
Es	-1.264122	0.864229	-0.437369	99
Es	1.052190	0.147759	1.670820	99
Es	-0.546471	-1.942921	0.439737	99
Es	-0.231453	1.335729	0.067126	99
Es	-0.178512	0.213258	-0.358290	99
Es	-1.450982	-2.665083	-1.197530	99
47
Properties=species:S:1:pos:R:3:Z:I:1 energy=-305.27101125342006 field_type=dipole dipole="0.000000 0.000000 0.000000" charge=0
C	-0.952944	-2.108212	-1.252686	6
N	-0.756724	-1.499092	0.058704	7
C	0.201016	-0.395922	-0.051056	6
C	-0.525244	0.896188	-0.495576	6
C	0.121956	1.625418	0.699514	6
N	1.397066	2.216008	0.281484	7
C	0.375267	0.247348	1.346104	6
H	-1.685364	-2.917092	-1.170426	1
H	-0.021464	-2.535222	-1.638446	1
H	-1.342224	-1.386882	-1.978256	1
H	-0.461134	-2.225452	0.711694	1
H	1.143486	-0.614642	-0.565236	1
H	-1.620454	0.867038	-0.421776	1
H	-0.267974	1.259948	-1.496106	1
H	-0.528644	2.307298	1.252084	1
H	2.019596	1.599038	-0.237496	1
H	1.947067	2.584348	1.056874	1
H	1.351956	0.092918	1.816644	1
H	-0.395244	-0.013032	2.083964	1
Es	1.759336	1.810702	-0.007496	99
Es	-0.525205	0.896172	-0.495540	99
Es	-0.313438	2.104160	1.081904	99
Es	-0.305167	-2.400681	-1.524520	99
Es	-1.056633	-1.361442	0.175364	99
Es	-0.546498	-1.942892	0.439690	99
Es	-0.155804	0.058762	1.837719	99
Es	0.122098	1.625426	0.699452	99
Es	0.375264	0.247339	1.346068	99
Es	1.334893	2.485238	0.070416	99
Es	-0.178371	0.213218	-0.358466	99
Es	-0.344600	1.149683	-1.179430	99
Es	-0.304553	-1.055701	-0.005198	99
Es	1.052031	0.147658	1.670889	99
Es	0.329667	-0.144426	0.679728	99
Es	0.200918	-0.395986	-0.051021	99
Es	0.850802	-0.546523	-0.411804	99
Es	1.397196	2.215555	0.281844	99
Es	-1.211848	-1.609849	-1.745672	99
Es	-0.952928	-2.108165	-1.252581	99
Es	1.725076	2.408633	0.769102	99
Es	0.264858	0.962322	1.111485	99
Es	-0.821141	-1.774235	-0.521317	99
Es	-0.756202	-1.499353	0.058474	99
Es	-1.450985	-2.665071	-1.197557	99
Es	-1.264065	0.864135	-0.437401	99
Es	-0.231497	1.335846	0.067161	99
Es	0.868534	1.940118	0.479458	99
47
Properties=species:S:1:pos:R:3:Z:I:1 energy=-305.27101125342006 field_type=dipole dipole="0.000000 0.000000 0.000000" charge=0
C	-0.952944	-2.108212	-1.252686	6
N	-0.756724	-1.499092	0.058704	7
C	0.201016	-0.395922	-0.051056	6
C	-0.525244	0.896188	-0.495576	6
C	0.121956	1.625418	0.699514	6
N	1.397066	2.216008	0.281484	7
C	0.375267	0.247348	1.346104	6
H	-1.685364	-2.917092	-1.170426	1
H	-0.021464	-2.535222	-1.638446	1
H	-1.342224	-1.386882	-1.978256	1
H	-0.461134	-2.225452	0.711694	1
H	1.143486	-0.614642	-0.565236	1
H	-1.620454	0.867038	-0.421776	1
H	-0.267974	1.259948	-1.496106	1
H	-0.528644	2.307298	1.252084	1
H	2.019596	1.599038	-0.237496	1
H	1.947067	2.584348	1.056874	1
H	1.351956	0.092918	1.816644	1
H	-0.395244	-0.013032	2.083964	1
Es	-0.178421	0.213107	-0.358512	99
Es	0.122099	1.625426	0.699451	99
Es	-0.952928	-2.108164	-1.252580	99
Es	-0.756201	-1.499356	0.058474	99
Es	-0.305239	-2.400633	-1.524458	99
Es	-0.313356	2.104097	1.081819	99
Es	0.375264	0.247340	1.346067	99
Es	0.868528	1.940175	0.479524	99
Es	-1.056394	-1.361455	0.175283	99
Es	-1.264000	0.864178	-0.437518	99
Es	0.200923	-0.395986	-0.051026	99
Es	-1.211742	-1.609828	-1.745702	99
Es	-0.231576	1.335987	0.067205	99
Es	1.397194	2.215577	0.281832	99
Es	-0.525205	0.896173	-0.495539	99
Es	0.264699	0.962338	1.111562	99
Es	-1.451012	-2.665129	-1.197649	99
Es	0.850753	-0.546478	-0.411766	99
Es	-0.821280	-1.774286	-0.521304	99
Es	1.051980	0.147722	1.670852	99
Es	0.329670	-0.144477	0.679727	99
Es	1.725100	2.409075	0.769055	99
Es	-0.155679	0.058747	1.837758	99
Es	1.334952	2.484842	0.070160	99
Es	1.759323	1.810603	-0.007194	99
Es	-0.546675	-1.942865	0.439793	99
Es	-0.344585	1.149650	-1.179380	99
Es	-0.304457	-1.055735	-0.005182	99
47
Properties=species:S:1:pos:R:3:Z:I:1 energy=-305.27101125342006 field_type=dipole dipole="0.000000 0.000000 0.000000" charge=0
C	-0.952944	-2.108212	-1.252686	6
N	-0.756724	-1.499092	0.058704	7
C	0.201016	-0.395922	-0.051056	6
C	-0.525244	0.896188	-0.495576	6
C	0.121956	1.625418	0.699514	6
N	1.397066	2.216008	0.281484	7
C	0.375267	0.247348	1.346104	6
H	-1.685364	-2.917092	-1.170426	1
H	-0.021464	-2.535222	-1.638446	1
H	-1.342224	-1.386882	-1.978256	1
H	-0.461134	-2.225452	0.711694	1
H	1.143486	-0.614642	-0.565236	1
H	-1.620454	0.867038	-0.421776	1
H	-0.267974	1.259948	-1.496106	1
H	-0.528644	2.307298	1.252084	1
H	2.019596	1.599038	-0.237496	1
H	1.947067	2.584348	1.056874	1
H	1.351956	0.092918	1.816644	1
H	-0.395244	-0.013032	2.083964	1
Es	-0.304434	-1.055727	-0.005177	99
Es	0.200918	-0.395984	-0.051019	99
Es	-0.952928	-2.108164	-1.252580	99
Es	0.329830	-0.144544	0.679761	99
Es	1.334918	2.485216	0.070433	99
Es	-0.231605	1.336113	0.067150	99
Es	-1.264001	0.864166	-0.437567	99
Es	0.122096	1.625424	0.699451	99
Es	1.397187	2.215568	0.281847	99
Es	-0.344638	1.149610	-1.179296	99
Es	0.850620	-0.546494	-0.411730	99
Es	-0.756207	-1.499352	0.058473	99
Es	1.759330	1.810762	-0.007517	99
Es	-0.525205	0.896172	-0.495539	99
Es	-0.313288	2.104085	1.081766	99
Es	-0.546751	-1.942828	0.439872	99
Es	-1.056303	-1.361466	0.175218	99
Es	-1.211808	-1.609904	-1.745665	99
Es	-0.821266	-1.774274	-0.521336	99
Es	0.264744	0.962363	1.111666	99
Es	-0.178360	0.213105	-0.358634	99
Es	-0.305218	-2.400624	-1.524531	99
Es	0.375264	0.247340	1.346067	99
Es	1.051867	0.147716	1.670861	99
Es	0.868528	1.940109	0.479579	99
Es	-0.155666	0.058744	1.837758	99
Es	-1.450986	-2.665114	-1.197620	99
Es	1.725099	2.408626	0.769060	99
47
Properties=species:S:1:pos:R:3:Z:I:1 energy=-305.27101125342006 field_type=dipole dipole="0.000000 0.000000 0.000000" charge=0
C	-0.952944	-2.108212	-1.252686	6
N	-0.756724	-1.499092	0.058704	7
C	0.201016	-0.395922	-0.051056	6
C	-0.525244	0.896188	-0.495576	6
C	0.121956	1.625418	0.699514	6
N	1.397066	2.216008	0.281484	7
C	0.375267	0.247348	1.346104	6
H	-1.685364	-2.917092	-1.170426	1
H	-0.021464	-2.535222	-1.638446	1
H	-1.342224	-1.386882	-1.978256	1
H	-0.461134	-2.225452	0.711694	1
H	1.143486	-0.614642	-0.565236	1
H	-1.620454	0.867038	-0.421776	1
H	-0.267974	1.259948	-1.496106	1
H	-0.528644	2.307298	1.252084	1
H	2.019596	1.599038	-0.237496	1
H	1.947067	2.584348	1.056874	1
H	1.351956	0.092918	1.816644	1
H	-0.395244	-0.013032	2.083964	1
Es	1.397179	2.215613	0.281831	99
Es	-0.178387	0.213132	-0.358739	99
Es	-0.344679	1.149662	-1.179288	99
Es	1.335079	2.485369	0.070261	99
Es	-0.546918	-1.942775	0.439960	99
Es	0.850573	-0.546484	-0.411615	99
Es	-0.313250	2.104032	1.081770	99
Es	0.868446	1.940154	0.479537	99
Es	1.725028	2.408455	0.769068	99
Es	-1.263963	0.864209	-0.437536	99
Es	0.375263	0.247341	1.346071	99
Es	-0.952930	-2.108167	-1.252585	99
Es	-0.525205	0.896172	-0.495540	99
Es	-0.231665	1.336072	0.067102	99
Es	-0.155628	0.058657	1.837775	99
Es	0.122097	1.625424	0.699455	99
Es	-0.304371	-1.055791	-0.005113	99
Es	-1.056178	-1.361425	0.175146	99
Es	1.051821	0.147718	1.670810	99
Es	-1.211799	-1.609920	-1.745688	99
Es	1.759318	1.810736	-0.007282	99
Es	0.329877	-0.144564	0.679704	99
Es	-0.756145	-1.499399	0.058447	99
Es	-1.450957	-2.665096	-1.197658	99
Es	-0.305263	-2.400628	-1.524529	99
Es	0.200925	-0.395984	-0.051025	99
Es	-0.821278	-1.774315	-0.521307	99
Es	0.264747	0.962447	1.111718	99
47
Properties=species:S:1:pos:R:3:Z:I:1 energy=-305.27101125342006 field_type=dipole dipole="0.000000 0.000000 0.000000" charge=0
C	-0.952944	-2.108212	-1.252686	6
N	-0.756724	-1.499092	0.058704	7
C	0.201016	-0.395922	-0.051056	6
C	-0.525244	0.896188	-0.495576	6
C	0.121956	1.625418	0.699514	6
N	1.397066	2.216008	0.281484	7
C	0.375267	0.247348	1.346104	6
H	-1.685364	-2.917092	-1.170426	1
H	-0.021464	-2.535222	-1.638446	1
H	-1.342224	-1.386882	-1.978256	1
H	-0.461134	-2.225452	0.711694	1
H	1.143486	-0.614642	-0.565236	1
H	-1.620454	0.867038	-0.421776	1
H	-0.267974	1.259948	-1.496106	1
H	-0.528644	2.307298	1.252084	1
H	2.019596	1.599038	-0.237496	1
H	1.947067	2.584348	1.056874	1
H	1.351956	0.092918	1.816644	1
H	-0.395244	-0.013032	2.083964	1
Es	-0.313174	2.103975	1.081715	99
Es	1.334486	2.484643	0.069340	99
Es	-0.305286	-2.400635	-1.524551	99
Es	-1.056932	-1.361954	0.175047	99
Es	0.264673	0.962518	1.111835	99
Es	0.200917	-0.395983	-0.051019	99
Es	-0.304841	-1.055305	-0.004936	99
Es	1.759329	1.810492	-0.006548	99
Es	0.122096	1.625423	0.699451	99
Es	0.375264	0.247340	1.346066	99
Es	1.051744	0.147724	1.670870	99
Es	-0.820392	-1.774406	-0.521236	99
Es	-0.178322	0.212971	-0.358777	99
Es	-1.211803	-1.609953	-1.745689	99
Es	-0.525200	0.896171	-0.495538	99
Es	1.725126	2.409778	0.768790	99
Es	-0.546506	-1.942632	0.439727	99
Es	0.329948	-0.144649	0.679792	99
Es	-0.756238	-1.499354	0.058487	99
Es	0.868943	1.939880	0.480011	99
Es	1.397199	2.215563	0.281847	99
Es	-0.952928	-2.108165	-1.252582	99
Es	-1.263895	0.864204	-0.437618	99
Es	-0.231717	1.336235	0.067134	99
Es	0.850470	-0.546466	-0.411711	99
Es	-1.450948	-2.665080	-1.197675	99
Es	-0.344775	1.149605	-1.179202	99
Es	-0.155503	0.058705	1.837720	99
47
Properties=species:S:1:pos:R:3:Z:I:1 energy=-305.27101125342006 field_type=dipole dipole="0.000000 0.000000 0.000000" charge=0
C	-0.952944	-2.108212	-1.252686	6
N	-0.756724	-1.499092	0.058704	7
C	0.201016	-0.395922	-0.051056	6
C	-0.525244	0.896188	-0.495576	6
C	0.121956	1.625418	0.699514	6
N	1.397066	2.216008	0.281484	7
C	0.375267	0.247348	1.346104	6
H	-1.685364	-2.917092	-1.170426	1
H	-0.021464	-2.535222	-1.638446	1
H	-1.342224	-1.386882	-1.978256	1
H	-0.461134	-2.225452	0.711694	1
H	1.143486	-0.614642	-0.565236	1
H	-1.620454	0.867038	-0.421776	1
H	-0.267974	1.259948	-1.496106	1
H	-0.528644	2.307298	1.252084	1
H	2.019596	1.599038	-0.237496	1
H	1.947067	2.584348	1.056874	1
H	1.351956	0.092918	1.816644	1
H	-0.395244	-0.013032	2.083964	1
Es	0.122096	1.625422	0.699451	99
Es	-0.178316	0.212974	-0.358877	99
Es	-0.525204	0.896173	-0.495539	99
Es	-1.263840	0.864181	-0.437655	99
Es	0.375264	0.247340	1.346066	99
Es	1.051671	0.147743	1.670882	99
Es	-0.304351	-1.055677	-0.005137	99
Es	-0.231773	1.336319	0.067149	99
Es	0.330024	-0.144715	0.679762	99
Es	1.334996	2.485358	0.070205	99
Es	0.264666	0.962547	1.111929	99
Es	1.725116	2.408591	0.768967	99
Es	-0.952929	-2.108165	-1.252582	99
Es	0.200917	-0.395982	-0.051018	99
Es	0.850374	-0.546452	-0.411644	99
Es	-1.055833	-1.361564	0.174968	99
Es	-1.450997	-2.665141	-1.197691	99
Es	-0.305317	-2.400582	-1.524556	99
Es	-0.756182	-1.499368	0.058471	99
Es	-0.821382	-1.774332	-0.521359	99
Es	-0.155442	0.058730	1.837716	99
Es	-0.547112	-1.942732	0.440140	99
Es	-0.313109	2.103936	1.081668	99
Es	1.759273	1.810759	-0.007251	99
Es	1.397193	2.215543	0.281842	99
Es	-0.344822	1.149581	-1.179181	99
Es	-1.211749	-1.609975	-1.745668	99
Es	0.868507	1.940133	0.479693	99
