47
Properties=species:S:1:pos:R:3:Z:I:1 energy=-305.26295250452876 field_type=dipole dipole="0.000000 0.000000 0.000000" charge=0
C	-0.934518	-1.762531	-1.640766	6
N	-0.825988	-1.217471	-0.293426	7
C	0.071903	-0.054381	-0.306956	6
C	-0.697128	1.235039	-0.674366	6
N	-0.016407	1.918769	0.460944	7
C	0.131943	0.580729	1.110494	6
C	1.441813	0.443209	1.863694	6
H	-1.624448	-2.612591	-1.635176	1
H	0.034202	-2.117811	-2.008206	1
H	-1.332698	-1.022831	-2.343556	1
H	-0.517838	-1.957351	0.336624	1
H	1.042792	-0.185851	-0.798986	1
H	-1.787758	1.201699	-0.557586	1
H	-0.466928	1.655329	-1.658416	1
H	0.870412	2.345229	0.192454	1
H	-0.723358	0.345299	1.760364	1
H	2.304132	0.708309	1.242004	1
H	1.579372	-0.589461	2.201313	1
H	1.450492	1.086669	2.749554	1
Es	-0.312161	1.675433	-0.066982	99
Es	-1.138173	-1.102699	-0.183629	99
Es	0.071806	-0.054476	-0.306944	99
Es	0.799155	0.507787	1.494330	99
Es	-0.260738	-2.004566	-1.899634	99
Es	-0.336286	0.544340	-0.586207	99
Es	0.081927	1.366845	0.782842	99
Es	-0.208917	2.168908	0.641799	99
Es	-0.397601	-0.750946	-0.316317	99
Es	-0.697021	1.235096	-0.674265	99
Es	0.140922	0.176163	0.433264	99
Es	-0.850936	-1.464300	-0.886961	99
Es	-1.434401	1.201530	-0.587917	99
Es	-0.607061	-1.667285	0.074783	99
Es	-0.451177	0.415723	1.544861	99
Es	-0.825441	-1.217700	-0.293644	99
Es	0.131992	0.580859	1.110426	99
Es	1.441811	0.443197	1.863693	99
Es	-1.402901	-2.346821	-1.638481	99
Es	-0.537511	1.529016	-1.354719	99
Es	0.533579	2.134058	0.281068	99
Es	2.026107	0.626993	1.430173	99
Es	-0.934508	-1.762485	-1.640657	99
Es	-0.016074	1.918351	0.460633	99
Es	1.532292	-0.264137	2.090497	99
Es	0.741043	-0.141842	-0.646986	99
Es	1.445681	0.881234	2.463818	99
Es	-1.199869	-1.250169	-2.117506	99
47
Properties=species:S:1:pos:R:3:Z:I:1 energy=-305.26295250452876 field_type=dipole dipole="0.000000 0.000000 0.000000" charge=0
C	-0.934518	-1.762531	-1.640766	6
N	-0.825988	-1.217471	-0.293426	7
C	0.071903	-0.054381	-0.306956	6
C	-0.697128	1.235039	-0.674366	6
N	-0.016407	1.918769	0.460944	7
C	0.131943	0.580729	1.110494	6
C	1.441813	0.443209	1.863694	6
H	-1.624448	-2.612591	-1.635176	1
H	0.034202	-2.117811	-2.008206	1
H	-1.332698	-1.022831	-2.343556	1
H	-0.517838	-1.957351	0.336624	1
H	1.042792	-0.185851	-0.798986	1
H	-1.787758	1.201699	-0.557586	1
H	-0.466928	1.655329	-1.658416	1
H	0.870412	2.345229	0.192454	1
H	-0.723358	0.345299	1.760364	1
H	2.304132	0.708309	1.242004	1
H	1.579372	-0.589461	2.201313	1
H	1.450492	1.086669	2.749554	1
Es	0.082137	1.366779	0.782933	99
Es	0.140893	0.176114	0.433378	99
Es	-0.260740	-2.004562	-1.899600	99
Es	-1.434317	1.201464	-0.587902	99
Es	-1.402881	-2.346839	-1.638470	99
Es	-1.199847	-1.250275	-2.117566	99
Es	-1.138003	-1.102539	-0.183880	99
Es	-0.850932	-1.464303	-0.886966	99
Es	0.799073	0.507824	1.494315	99
Es	-0.825435	-1.217694	-0.293645	99
Es	-0.336249	0.544293	-0.586427	99
Es	0.741010	-0.141840	-0.646920	99
Es	-0.016049	1.918334	0.460616	99
Es	-0.697023	1.235096	-0.674266	99
Es	1.445718	0.881236	2.463788	99
Es	0.071803	-0.054478	-0.306943	99
Es	2.026070	0.626995	1.430186	99
Es	-0.537652	1.529035	-1.354695	99
Es	-0.397488	-0.751017	-0.316400	99
Es	1.441812	0.443196	1.863694	99
Es	-0.312213	1.675579	-0.067035	99
Es	-0.607340	-1.667247	0.075087	99
Es	-0.451116	0.415720	1.544891	99
Es	1.532319	-0.264161	2.090513	99
Es	0.533366	2.134697	0.281272	99
Es	-0.208860	2.168323	0.641615	99
Es	-0.934508	-1.762485	-1.640655	99
Es	0.131990	0.580860	1.110422	99
47
Properties=species:S:1:pos:R:3:Z:I:1 energy=-305.26295250452876 field_type=dipole dipole="0.000000 0.000000 0.000000" charge=0
C	-0.934518	-1.762531	-1.640766	6
N	-0.825988	-1.217471	-0.293426	7
C	0.071903	-0.054381	-0.306956	6
C	-0.697128	1.235039	-0.674366	6
N	-0.016407	1.918769	0.460944	7
C	0.131943	0.580729	1.110494	6
C	1.441813	0.443209	1.863694	6
H	-1.624448	-2.612591	-1.635176	1
H	0.034202	-2.117811	-2.008206	1
H	-1.332698	-1.022831	-2.343556	1
H	-0.517838	-1.957351	0.336624	1
H	1.042792	-0.185851	-0.798986	1
H	-1.787758	1.201699	-0.557586	1
H	-0.466928	1.655329	-1.658416	1
H	0.870412	2.345229	0.192454	1
H	-0.723358	0.345299	1.760364	1
H	2.304132	0.708309	1.242004	1
H	1.579372	-0.589461	2.201313	1
H	1.450492	1.086669	2.749554	1
Es	1.532346	-0.264159	2.090439	99
Es	-0.851129	-1.464252	-0.886918	99
Es	-0.537685	1.529082	-1.354601	99
Es	0.533456	2.134166	0.281380	99
Es	0.071802	-0.054474	-0.306941	99
Es	-0.697027	1.235096	-0.674271	99
Es	1.441811	0.443197	1.863693	99
Es	0.081696	1.366891	0.783366	99
Es	0.140937	0.176118	0.433443	99
Es	-0.260830	-2.004509	-1.899656	99
Es	-0.451109	0.415763	1.544890	99
Es	-0.607346	-1.667335	0.075006	99
Es	-0.934508	-1.762486	-1.640656	99
Es	-0.016073	1.918354	0.460633	99
Es	1.445680	0.881209	2.463855	99
Es	0.799053	0.507775	1.494205	99
Es	-0.336226	0.544214	-0.586598	99
Es	2.026073	0.627014	1.430299	99
Es	-0.825440	-1.217691	-0.293648	99
Es	-0.208608	2.168771	0.641159	99
Es	-0.312060	1.675599	-0.067120	99
Es	0.740893	-0.141840	-0.646848	99
Es	-1.137814	-1.102502	-0.183738	99
Es	-0.397388	-0.751145	-0.316396	99
Es	0.131991	0.580859	1.110420	99
Es	-1.402841	-2.346865	-1.638519	99
Es	-1.434249	1.201508	-0.587987	99
Es	-1.199868	-1.250251	-2.117551	99
47
Properties=species:S:1:pos:R:3:Z:I:1 energy=-305.26295250452876 field_type=dipole dipole="0.000000 0.000000 0.000000" charge=0
C	-0.934518	-1.762531	-1.640766	6
N	-0.825988	-1.217471	-0.293426	7
C	0.071903	-0.054381	-0.306956	6
C	-0.697128	1.235039	-0.674366	6
N	-0.016407	1.918769	0.460944	7
C	0.131943	0.580729	1.110494	6
C	1.441813	0.443209	1.863694	6
H	-1.624448	-2.612591	-1.635176	1
H	0.034202	-2.117811	-2.008206	1
H	-1.332698	-1.022831	-2.343556	1
H	-0.517838	-1.957351	0.336624	1
H	1.042792	-0.185851	-0.798986	1
H	-1.787758	1.201699	-0.557586	1
H	-0.466928	1.655329	-1.658416	1
H	0.870412	2.345229	0.192454	1
H	-0.723358	0.345299	1.760364	1
H	2.304132	0.708309	1.242004	1
H	1.579372	-0.589461	2.201313	1
H	1.450492	1.086669	2.749554	1
Es	-0.016134	1.918401	0.460675	99
Es	-0.451044	0.415782	1.544810	99
Es	1.441812	0.443197	1.863694	99
Es	0.140992	0.176055	0.433498	99
Es	0.740814	-0.141817	-0.646845	99
Es	-1.137703	-1.102823	-0.184033	99
Es	-0.697022	1.235095	-0.674266	99
Es	-0.397583	-0.750814	-0.316232	99
Es	-0.934509	-1.762486	-1.640657	99
Es	2.026081	0.627008	1.430249	99
Es	-0.336232	0.544210	-0.586607	99
Es	-0.312674	1.675861	-0.067184	99
Es	-0.607470	-1.667238	0.075138	99
Es	-1.199837	-1.250290	-2.117518	99
Es	-1.402858	-2.346837	-1.638572	99
Es	0.533406	2.134484	0.281348	99
Es	1.532358	-0.264134	2.090498	99
Es	-0.850975	-1.464337	-0.886907	99
Es	1.445764	0.881162	2.463779	99
Es	-0.207972	2.168193	0.641075	99
Es	-1.434225	1.201508	-0.587994	99
Es	-0.825393	-1.217724	-0.293643	99
Es	0.071802	-0.054477	-0.306941	99
Es	0.131990	0.580860	1.110421	99
Es	-0.260825	-2.004510	-1.899679	99
Es	0.081796	1.366982	0.783473	99
Es	0.798925	0.507803	1.494359	99
Es	-0.537747	1.528994	-1.354600	99
47
Properties=species:S:1:pos:R:3:Z:I:1 energy=-305.26295250452876 field_type=dipole dipole="0.000000 0.000000 0.000000" charge=0
C	-0.934518	-1.762531	-1.640766	6
N	-0.825988	-1.217471	-0.293426	7
C	0.071903	-0.054381	-0.306956	6
C	-0.697128	1.235039	-0.674366	6
N	-0.016407	1.918769	0.460944	7
C	0.131943	0.580729	1.110494	6
C	1.441813	0.443209	1.863694	6
H	-1.624448	-2.612591	-1.635176	1
H	0.034202	-2.117811	-2.008206	1
H	-1.332698	-1.022831	-2.343556	1
H	-0.517838	-1.957351	0.336624	1
H	1.042792	-0.185851	-0.798986	1
H	-1.787758	1.201699	-0.557586	1
H	-0.466928	1.655329	-1.658416	1
H	0.870412	2.345229	0.192454	1
H	-0.723358	0.345299	1.760364	1
H	2.304132	0.708309	1.242004	1
H	1.579372	-0.589461	2.201313	1
H	1.450492	1.086669	2.749554	1
Es	0.140970	0.176038	0.433503	99
Es	1.441812	0.443196	1.863695	99
Es	-0.934508	-1.762485	-1.640655	99
Es	0.131991	0.580860	1.110419	99
Es	0.533247	2.134442	0.281295	99
Es	-0.312934	1.676143	-0.067113	99
Es	-0.397409	-0.750808	-0.316295	99
Es	1.445811	0.881231	2.463835	99
Es	-0.336237	0.544162	-0.586731	99
Es	-1.402814	-2.346884	-1.638550	99
Es	-0.450976	0.415776	1.544798	99
Es	0.081686	1.366855	0.783852	99
Es	-1.199851	-1.250292	-2.117575	99
Es	-0.260889	-2.004483	-1.899659	99
Es	-0.851363	-1.464306	-0.886987	99
Es	-0.825439	-1.217704	-0.293632	99
Es	-0.207570	2.168218	0.640869	99
Es	0.071801	-0.054475	-0.306941	99
Es	-0.016046	1.918316	0.460605	99
Es	-0.697021	1.235095	-0.674266	99
Es	0.740756	-0.141823	-0.646781	99
Es	2.026014	0.626933	1.430301	99
Es	0.798905	0.507754	1.494283	99
Es	-1.137374	-1.102867	-0.183787	99
Es	-0.537790	1.529023	-1.354559	99
Es	1.532402	-0.264094	2.090466	99
Es	-1.434146	1.201530	-0.588051	99
Es	-0.607491	-1.667242	0.075001	99
47
Properties=species:S:1:pos:R:3:Z:I:1 energy=-305.26295250452876 field_type=dipole dipole="0.000000 0.000000 0.000000" charge=0
C	-0.934518	-1.762531	-1.640766	6
N	-0.825988	-1.217471	-0.293426	7
C	0.071903	-0.054381	-0.306956	6
C	-0.697128	1.235039	-0.674366	6
N	-0.016407	1.918769	0.460944	7
C	0.131943	0.580729	1.110494	6
C	1.441813	0.443209	1.863694	6
H	-1.624448	-2.612591	-1.635176	1
H	0.034202	-2.117811	-2.008206	1
H	-1.332698	-1.022831	-2.343556	1
H	-0.517838	-1.957351	0.336624	1
H	1.042792	-0.185851	-0.798986	1
H	-1.787758	1.201699	-0.557586	1
H	-0.466928	1.655329	-1.658416	1
H	0.870412	2.345229	0.192454	1
H	-0.723358	0.345299	1.760364	1
H	2.304132	0.708309	1.242004	1
H	1.579372	-0.589461	2.201313	1
H	1.450492	1.086669	2.749554	1
Es	-0.260837	-2.004414	-1.899763	99
Es	0.081526	1.367105	0.784056	99
Es	-0.207649	2.167986	0.640533	99
Es	-0.450888	0.415762	1.544745	99
Es	0.533307	2.134661	0.281547	99
Es	0.131991	0.580859	1.110421	99
Es	-1.199899	-1.250328	-2.117457	99
Es	-0.312709	1.675956	-0.067292	99
Es	-0.537876	1.528998	-1.354528	99
Es	-0.934509	-1.762487	-1.640658	99
Es	1.532363	-0.264100	2.090533	99
Es	-1.137175	-1.102815	-0.183718	99
Es	-0.697021	1.235095	-0.674267	99
Es	-0.016128	1.918378	0.460667	99
Es	-0.397462	-0.750902	-0.316316	99
Es	-0.851517	-1.464350	-0.887047	99
Es	0.740665	-0.141805	-0.646782	99
Es	0.071800	-0.054473	-0.306941	99
Es	1.445808	0.881193	2.463759	99
Es	-0.607459	-1.667237	0.075080	99
Es	0.798891	0.507799	1.494352	99
Es	-0.336247	0.544130	-0.586806	99
Es	-1.434095	1.201535	-0.588049	99
Es	2.026069	0.626937	1.430286	99
Es	1.441813	0.443197	1.863694	99
Es	0.141026	0.175991	0.433561	99
Es	-0.825453	-1.217697	-0.293643	99
Es	-1.402798	-2.346868	-1.638628	99
47
Properties=species:S:1:pos:R:3:Z:I:1 energy=-305.26295250452876 field_type=dipole dipole="0.000000 0.000000 0.000000" charge=0
C	-0.934518	-1.762531	-1.640766	6
N	-0.825988	-1.217471	-0.293426	7
C	0.071903	-0.054381	-0.306956	6
C	-0.697128	1.235039	-0.674366	6
N	-0.016407	1.918769	0.460944	7
C	0.131943	0.580729	1.110494	6
C	1.441813	0.443209	1.863694	6
H	-1.624448	-2.612591	-1.635176	1
H	0.034202	-2.117811	-2.008206	1
H	-1.332698	-1.022831	-2.343556	1
H	-0.517838	-1.957351	0.336624	1
H	1.042792	-0.185851	-0.798986	1
H	-1.787758	1.201699	-0.557586	1
H	-0.466928	1.655329	-1.658416	1
H	0.870412	2.345229	0.192454	1
H	-0.723358	0.345299	1.760364	1
H	2.304132	0.708309	1.242004	1
H	1.579372	-0.589461	2.201313	1
H	1.450492	1.086669	2.749554	1
Es	-1.199806	-1.250361	-2.117600	99
Es	-0.697021	1.235095	-0.674266	99
Es	-1.402808	-2.346852	-1.638601	99
Es	0.798772	0.507839	1.494363	99
Es	0.071800	-0.054474	-0.306941	99
Es	-0.450913	0.415787	1.544731	99
Es	-0.825466	-1.217678	-0.293639	99
Es	-0.336226	0.544084	-0.586924	99
Es	-0.397356	-0.751029	-0.316255	99
Es	-0.260941	-2.004503	-1.899664	99
Es	0.141120	0.175938	0.433549	99
Es	-0.208038	2.167723	0.640777	99
Es	-0.016024	1.918351	0.460609	99
Es	-0.934509	-1.762487	-1.640658	99
Es	0.533118	2.135056	0.281705	99
Es	-1.137481	-1.102748	-0.183821	99
Es	2.026009	0.626969	1.430335	99
Es	-0.851160	-1.464324	-0.886962	99
Es	-1.434040	1.201523	-0.588038	99
Es	-0.312493	1.676069	-0.067321	99
Es	0.131991	0.580858	1.110422	99
Es	-0.607569	-1.667156	0.075067	99
Es	1.445820	0.881196	2.463781	99
Es	0.081887	1.366961	0.783743	99
Es	1.532410	-0.264153	2.090487	99
Es	-0.537989	1.529011	-1.354483	99
Es	1.441813	0.443197	1.863695	99
Es	0.740640	-0.141787	-0.646751	99
47
Properties=species:S:1:pos:R:3:Z:I:1 energy=-305.26295250452876 field_type=dipole dipole="0.000000 0.000000 0.000000" charge=0
C	-0.934518	-1.762531	-1.640766	6
N	-0.825988	-1.217471	-0.293426	7
C	0.071903	-0.054381	-0.306956	6
C	-0.697128	1.235039	-0.674366	6
N	-0.016407	1.918769	0.460944	7
C	0.131943	0.580729	1.110494	6
C	1.441813	0.443209	1.863694	6
H	-1.624448	-2.612591	-1.635176	1
H	0.034202	-2.117811	-2.008206	1
H	-1.332698	-1.022831	-2.343556	1
H	-0.517838	-1.957351	0.336624	1
H	1.042792	-0.185851	-0.798986	1
H	-1.787758	1.201699	-0.557586	1
H	-0.466928	1.655329	-1.658416	1
H	0.870412	2.345229	0.192454	1
H	-0.723358	0.345299	1.760364	1
H	2.304132	0.708309	1.242004	1
H	1.579372	-0.589461	2.201313	1
H	1.450492	1.086669	2.749554	1
Es	-1.433982	1.201587	-0.588096	99
Es	-1.402857	-2.346833	-1.638629	99
Es	-1.199802	-1.250349	-2.117512	99
Es	0.141078	0.175903	0.433691	99
Es	0.071801	-0.054472	-0.306940	99
Es	-0.537978	1.528978	-1.354480	99
Es	-0.450845	0.415844	1.544633	99
Es	0.081736	1.367029	0.783961	99
Es	-0.336308	0.544046	-0.586980	99
Es	-0.697021	1.235095	-0.674266	99
Es	1.532434	-0.264141	2.090534	99
Es	-0.312794	1.676258	-0.067491	99
Es	-0.016093	1.918350	0.460640	99
Es	-0.850836	-1.464511	-0.886969	99
Es	-1.137549	-1.102796	-0.183950	99
Es	-0.207498	2.167328	0.640475	99
Es	1.445813	0.881152	2.463723	99
Es	0.798758	0.507749	1.494444	99
Es	0.131992	0.580858	1.110421	99
Es	-0.934509	-1.762486	-1.640657	99
Es	1.441811	0.443197	1.863694	99
Es	0.533117	2.135274	0.281929	99
Es	-0.607665	-1.667005	0.075143	99
Es	-0.260991	-2.004494	-1.899769	99
Es	-0.397377	-0.751044	-0.316227	99
Es	0.740524	-0.141729	-0.646695	99
Es	-0.825462	-1.217683	-0.293633	99
Es	2.026040	0.627001	1.430348	99
47
Properties=species:S:1:pos:R:3:Z:I:1 energy=-305.26295250452876 field_type=dipole dipole="0.000000 0.000000 0.000000" charge=0
C	-0.934518	-1.762531	-1.640766	6
N	-0.825988	-1.217471	-0.293426	7
C	0.071903	-0.054381	-0.306956	6
C	-0.697128	1.235039	-0.674366	6
N	-0.016407	1.918769	0.460944	7
C	0.131943	0.580729	1.110494	6
C	1.441813	0.443209	1.863694	6
H	-1.624448	-2.612591	-1.635176	1
H	0.034202	-2.117811	-2.008206	1
H	-1.332698	-1.022831	-2.343556	1
H	-0.517838	-1.957351	0.336624	1
H	1.042792	-0.185851	-0.798986	1
H	-1.787758	1.201699	-0.557586	1
H	-0.466928	1.655329	-1.658416	1
H	0.870412	2.345229	0.192454	1
H	-0.723358	0.345299	1.760364	1
H	2.304132	0.708309	1.242004	1
H	1.579372	-0.589461	2.201313	1
H	1.450492	1.086669	2.749554	1
Es	-0.934509	-1.762487	-1.640659	99
Es	-0.607782	-1.667115	0.075244	99
Es	-0.825455	-1.217706	-0.293640	99
Es	1.532455	-0.264125	2.090504	99
Es	-0.336238	0.543927	-0.587060	99
Es	0.131993	0.580857	1.110423	99
Es	-0.397398	-0.750910	-0.316129	99
Es	0.141101	0.176002	0.433713	99
Es	2.026018	0.626982	1.430387	99
Es	0.071799	-0.054474	-0.306940	99
Es	-0.313320	1.676539	-0.067451	99
Es	-1.136982	-1.102906	-0.183966	99
Es	-1.199773	-1.250370	-2.117547	99
Es	-0.206786	2.167335	0.640120	99
Es	-0.538021	1.528963	-1.354393	99
Es	1.445866	0.881130	2.463741	99
Es	0.081536	1.367068	0.784506	99
Es	-1.433951	1.201564	-0.588177	99
Es	-0.016097	1.918336	0.460637	99
Es	-0.450817	0.415767	1.544635	99
Es	0.798693	0.507791	1.494380	99
Es	0.533036	2.135085	0.281773	99
Es	-0.697021	1.235094	-0.674268	99
Es	-0.260970	-2.004456	-1.899703	99
Es	-0.851343	-1.464421	-0.887075	99
Es	-1.402807	-2.346848	-1.638711	99
Es	0.740497	-0.141711	-0.646702	99
Es	1.441812	0.443196	1.863695	99
47
Properties=species:S:1:pos:R:3:Z:I:1 energy=-305.26295250452876 field_type=dipole dipole="0.000000 0.000000 0.000000" charge=0
C	-0.934518	-1.762531	-1.640766	6
N	-0.825988	-1.217471	-0.293426	7
C	0.071903	-0.054381	-0.306956	6
C	-0.697128	1.235039	-0.674366	6
N	-0.016407	1.918769	0.460944	7
C	0.131943	0.580729	1.110494	6
C	1.441813	0.443209	1.863694	6
H	-1.624448	-2.612591	-1.635176	1
H	0.034202	-2.117811	-2.008206	1
H	-1.332698	-1.022831	-2.343556	1
H	-0.517838	-1.957351	0.336624	1
H	1.042792	-0.185851	-0.798986	1
H	-1.787758	1.201699	-0.557586	1
H	-0.466928	1.655329	-1.658416	1
H	0.870412	2.345229	0.192454	1
H	-0.723358	0.345299	1.760364	1
H	2.304132	0.708309	1.242004	1
H	1.579372	-0.589461	2.201313	1
H	1.450492	1.086669	2.749554	1
Es	-1.433910	1.201566	-0.588203	99
Es	1.445887	0.881145	2.463716	99
Es	0.131992	0.580858	1.110420	99
Es	0.071800	-0.054471	-0.306940	99
Es	-0.697021	1.235095	-0.674267	99
Es	-0.608229	-1.667125	0.075576	99
Es	0.081309	1.367120	0.784786	99
Es	1.532466	-0.264096	2.090537	99
Es	0.141171	0.175875	0.433715	99
Es	0.740407	-0.141737	-0.646669	99
Es	-0.851211	-1.464508	-0.886934	99
Es	-1.402799	-2.346839	-1.638708	99
Es	-0.336242	0.543983	-0.587104	99
Es	-0.261041	-2.004472	-1.899720	99
Es	0.533087	2.134833	0.281659	99
Es	-0.397187	-0.751001	-0.316216	99
Es	-0.538059	1.528938	-1.354380	99
Es	0.798636	0.507763	1.494493	99
Es	-0.016126	1.918396	0.460669	99
Es	-0.934509	-1.762488	-1.640659	99
Es	-1.136851	-1.102700	-0.184338	99
Es	-0.825446	-1.217690	-0.293642	99
Es	1.441812	0.443197	1.863696	99
Es	-0.206280	2.167343	0.639922	99
Es	-0.450731	0.415796	1.544567	99
Es	-0.313639	1.676756	-0.067407	99
Es	2.026014	0.626964	1.430344	99
Es	-1.199762	-1.250393	-2.117573	99
