48
Properties=species:S:1:pos:R:3:Z:I:1 energy=-289.28010737233683 field_type=dipole dipole="0.000000 0.000000 0.000000" charge=0
C	-2.944369	0.710367	-0.694137	6
N	-1.503119	0.669577	-0.900067	7
C	-0.882309	-0.355123	-0.058877	6
C	0.619211	-0.392903	-0.311677	6
C	1.471131	0.774737	0.261472	6
C	2.560991	-0.269953	0.573732	6
C	1.437091	-1.324523	0.622512	6
H	-3.384609	1.473207	-1.343507	1
H	-3.194789	0.964927	0.342253	1
H	-3.409349	-0.247513	-0.948967	1
H	-1.109459	1.581397	-0.668767	1
H	-1.306639	-1.337183	-0.299257	1
H	-1.085679	-0.152593	0.999693	1
H	0.845841	-0.589693	-1.370788	1
H	1.049321	1.248817	1.155652	1
H	1.752961	1.551797	-0.453737	1
H	3.273901	-0.422513	-0.244477	1
H	3.112471	-0.118683	1.504852	1
H	1.690551	-2.305013	0.211423	1
H	1.006851	-1.459133	1.622672	1
Es	2.945689	-0.165518	1.214051	99
Es	-1.272991	1.219898	-0.732690	99
Es	-1.178752	-1.028201	-0.224080	99
Es	0.779886	-0.526015	-1.029963	99
Es	-2.131900	0.690989	-0.781258	99
Es	0.969658	-0.928904	0.148256	99
Es	1.608806	-2.003992	0.342612	99
Es	2.058457	-0.859383	0.637103	99
Es	-0.137307	-0.369580	-0.184403	99
Es	0.619236	-0.392894	-0.311610	99
Es	3.038798	-0.374957	0.007375	99
Es	1.471143	0.774686	0.261473	99
Es	1.175745	1.087476	0.877135	99
Es	1.138172	-1.403247	1.306165	99
Es	-3.257017	0.052028	-0.863000	99
Es	-2.944249	0.710366	-0.694152	99
Es	-0.882354	-0.355027	-0.058962	99
Es	1.437103	-1.324472	0.622493	99
Es	-1.019380	-0.215556	0.681615	99
Es	-1.503267	0.669707	-0.899396	99
Es	2.075991	0.323046	0.433293	99
Es	-1.433441	0.596860	-1.239551	99
Es	-3.119720	0.882450	0.027146	99
Es	0.984693	0.260641	-0.058416	99
Es	2.560928	-0.269951	0.573724	99
Es	1.662289	1.315815	-0.228133	99
Es	-3.246386	1.235388	-1.134134	99
Es	-1.248162	0.237659	-0.508931	99
48
Properties=species:S:1:pos:R:3:Z:I:1 energy=-289.28010737233683 field_type=dipole dipole="0.000000 0.000000 0.000000" charge=0
C	-2.944369	0.710367	-0.694137	6
N	-1.503119	0.669577	-0.900067	7
C	-0.882309	-0.355123	-0.058877	6
C	0.619211	-0.392903	-0.311677	6
C	1.471131	0.774737	0.261472	6
C	2.560991	-0.269953	0.573732	6
C	1.437091	-1.324523	0.622512	6
H	-3.384609	1.473207	-1.343507	1
H	-3.194789	0.964927	0.342253	1
H	-3.409349	-0.247513	-0.948967	1
H	-1.109459	1.581397	-0.668767	1
H	-1.306639	-1.337183	-0.299257	1
H	-1.085679	-0.152593	0.999693	1
H	0.845841	-0.589693	-1.370788	1
H	1.049321	1.248817	1.155652	1
H	1.752961	1.551797	-0.453737	1
H	3.273901	-0.422513	-0.244477	1
H	3.112471	-0.118683	1.504852	1
H	1.690551	-2.305013	0.211423	1
H	1.006851	-1.459133	1.622672	1
Es	2.076188	0.323173	0.433436	99
Es	-2.944250	0.710367	-0.694151	99
Es	2.945696	-0.165544	1.213938	99
Es	-1.433518	0.596888	-1.239070	99
Es	2.560929	-0.269951	0.573724	99
Es	-1.019335	-0.215531	0.681506	99
Es	1.437104	-1.324475	0.622495	99
Es	1.662177	1.315840	-0.228108	99
Es	0.984680	0.260635	-0.058361	99
Es	1.608753	-2.003981	0.342743	99
Es	-0.882355	-0.355029	-0.058963	99
Es	0.969542	-0.928992	0.148221	99
Es	-1.503234	0.669710	-0.899502	99
Es	-3.257057	0.052013	-0.862844	99
Es	0.619235	-0.392893	-0.311611	99
Es	-1.272761	1.220239	-0.732498	99
Es	1.175735	1.087453	0.876952	99
Es	-2.131883	0.690759	-0.781502	99
Es	-3.246369	1.235235	-1.134230	99
Es	-0.137205	-0.369544	-0.184509	99
Es	1.138124	-1.403240	1.306032	99
Es	2.058553	-0.859437	0.637227	99
Es	-1.248381	0.237475	-0.509268	99
Es	3.038793	-0.374950	0.007439	99
Es	-1.178806	-1.028213	-0.223965	99
Es	1.471137	0.774686	0.261470	99
Es	-3.119743	0.882661	0.027097	99
Es	0.779920	-0.526043	-1.029935	99
48
Properties=species:S:1:pos:R:3:Z:I:1 energy=-289.28010737233683 field_type=dipole dipole="0.000000 0.000000 0.000000" charge=0
C	-2.944369	0.710367	-0.694137	6
N	-1.503119	0.669577	-0.900067	7
C	-0.882309	-0.355123	-0.058877	6
C	0.619211	-0.392903	-0.311677	6
C	1.471131	0.774737	0.261472	6
C	2.560991	-0.269953	0.573732	6
C	1.437091	-1.324523	0.622512	6
H	-3.384609	1.473207	-1.343507	1
H	-3.194789	0.964927	0.342253	1
H	-3.409349	-0.247513	-0.948967	1
H	-1.109459	1.581397	-0.668767	1
H	-1.306639	-1.337183	-0.299257	1
H	-1.085679	-0.152593	0.999693	1
H	0.845841	-0.589693	-1.370788	1
H	1.049321	1.248817	1.155652	1
H	1.752961	1.551797	-0.453737	1
H	3.273901	-0.422513	-0.244477	1
H	3.112471	-0.118683	1.504852	1
H	1.690551	-2.305013	0.211423	1
H	1.006851	-1.459133	1.622672	1
Es	-3.246352	1.235351	-1.134109	99
Es	0.984572	0.260726	-0.058535	99
Es	1.175823	1.087430	0.876995	99
Es	-2.944248	0.710366	-0.694152	99
Es	-2.132024	0.690948	-0.781363	99
Es	-1.248079	0.237333	-0.509197	99
Es	0.779813	-0.526012	-1.029866	99
Es	-1.178871	-1.028147	-0.223926	99
Es	-1.433678	0.597173	-1.238901	99
Es	2.560929	-0.269951	0.573724	99
Es	2.058690	-0.859570	0.637163	99
Es	2.076193	0.323285	0.433312	99
Es	1.662162	1.315837	-0.227924	99
Es	-1.272766	1.219937	-0.732856	99
Es	-1.503253	0.669700	-0.899458	99
Es	0.619236	-0.392894	-0.311612	99
Es	-1.019200	-0.215573	0.681538	99
Es	1.437104	-1.324475	0.622494	99
Es	0.969494	-0.929152	0.148151	99
Es	-0.882355	-0.355029	-0.058962	99
Es	1.471137	0.774686	0.261471	99
Es	1.608691	-2.003907	0.342854	99
Es	1.138192	-1.403241	1.306059	99
Es	2.945710	-0.165527	1.213816	99
Es	3.038778	-0.374918	0.007549	99
Es	-3.119774	0.882458	0.027155	99
Es	-3.257085	0.052137	-0.863016	99
Es	-0.137172	-0.369658	-0.184639	99
48
Properties=species:S:1:pos:R:3:Z:I:1 energy=-289.28010737233683 field_type=dipole dipole="0.000000 0.000000 0.000000" charge=0
C	-2.944369	0.710367	-0.694137	6
N	-1.503119	0.669577	-0.900067	7
C	-0.882309	-0.355123	-0.058877	6
C	0.619211	-0.392903	-0.311677	6
C	1.471131	0.774737	0.261472	6
C	2.560991	-0.269953	0.573732	6
C	1.437091	-1.324523	0.622512	6
H	-3.384609	1.473207	-1.343507	1
H	-3.194789	0.964927	0.342253	1
H	-3.409349	-0.247513	-0.948967	1
H	-1.109459	1.581397	-0.668767	1
H	-1.306639	-1.337183	-0.299257	1
H	-1.085679	-0.152593	0.999693	1
H	0.845841	-0.589693	-1.370788	1
H	1.049321	1.248817	1.155652	1
H	1.752961	1.551797	-0.453737	1
H	3.273901	-0.422513	-0.244477	1
H	3.112471	-0.118683	1.504852	1
H	1.690551	-2.305013	0.211423	1
H	1.006851	-1.459133	1.622672	1
Es	0.619236	-0.392893	-0.311609	99
Es	3.038789	-0.374950	0.007641	99
Es	2.945698	-0.165575	1.213723	99
Es	-0.882354	-0.355030	-0.058962	99
Es	0.779814	-0.525961	-1.029753	99
Es	-1.178832	-1.028133	-0.223907	99
Es	2.058721	-0.859617	0.637337	99
Es	2.560927	-0.269950	0.573724	99
Es	-0.137119	-0.369770	-0.184648	99
Es	-3.256998	0.052195	-0.863065	99
Es	1.175812	1.087513	0.876870	99
Es	0.984464	0.260843	-0.058513	99
Es	-3.246436	1.235428	-1.134096	99
Es	-1.433720	0.597138	-1.238894	99
Es	2.076381	0.323429	0.433371	99
Es	1.471139	0.774684	0.261470	99
Es	-3.119831	0.882275	0.027130	99
Es	1.608687	-2.003818	0.342852	99
Es	1.138216	-1.403393	1.305937	99
Es	-2.944246	0.710365	-0.694152	99
Es	-2.132017	0.690990	-0.781195	99
Es	0.969475	-0.929132	0.148096	99
Es	1.662079	1.315747	-0.227897	99
Es	-1.248071	0.237395	-0.509266	99
Es	-1.503250	0.669697	-0.899470	99
Es	-1.272720	1.219927	-0.732921	99
Es	1.437104	-1.324472	0.622492	99
Es	-1.019281	-0.215616	0.681467	99
48
Properties=species:S:1:pos:R:3:Z:I:1 energy=-289.28010737233683 field_type=dipole dipole="0.000000 0.000000 0.000000" charge=0
C	-2.944369	0.710367	-0.694137	6
N	-1.503119	0.669577	-0.900067	7
C	-0.882309	-0.355123	-0.058877	6
C	0.619211	-0.392903	-0.311677	6
C	1.471131	0.774737	0.261472	6
C	2.560991	-0.269953	0.573732	6
C	1.437091	-1.324523	0.622512	6
H	-3.384609	1.473207	-1.343507	1
H	-3.194789	0.964927	0.342253	1
H	-3.409349	-0.247513	-0.948967	1
H	-1.109459	1.581397	-0.668767	1
H	-1.306639	-1.337183	-0.299257	1
H	-1.085679	-0.152593	0.999693	1
H	0.845841	-0.589693	-1.370788	1
H	1.049321	1.248817	1.155652	1
H	1.752961	1.551797	-0.453737	1
H	3.273901	-0.422513	-0.244477	1
H	3.112471	-0.118683	1.504852	1
H	1.690551	-2.305013	0.211423	1
H	1.006851	-1.459133	1.622672	1
Es	1.662081	1.315763	-0.227829	99
Es	0.984418	0.260861	-0.058648	99
Es	-1.178773	-1.028124	-0.223904	99
Es	-2.944249	0.710366	-0.694151	99
Es	-3.119834	0.882373	0.027082	99
Es	0.619236	-0.392893	-0.311609	99
Es	0.969472	-0.929258	0.148039	99
Es	-1.248107	0.237370	-0.509251	99
Es	-2.132099	0.691142	-0.781400	99
Es	1.471138	0.774685	0.261470	99
Es	2.076346	0.323498	0.433375	99
Es	2.560927	-0.269951	0.573724	99
Es	-0.137128	-0.369686	-0.184607	99
Es	-3.257010	0.052142	-0.862990	99
Es	1.437104	-1.324474	0.622494	99
Es	-1.433760	0.597130	-1.238499	99
Es	-1.019223	-0.215684	0.681483	99
Es	3.038728	-0.374915	0.007709	99
Es	1.608596	-2.003810	0.342997	99
Es	-1.272573	1.219934	-0.733164	99
Es	-0.882350	-0.355030	-0.058962	99
Es	2.945762	-0.165587	1.213603	99
Es	0.779675	-0.525950	-1.029724	99
Es	1.175883	1.087502	0.876845	99
Es	2.058902	-0.859770	0.637382	99
Es	-3.246463	1.235327	-1.134093	99
Es	1.138220	-1.403342	1.305864	99
Es	-1.503249	0.669697	-0.899472	99
48
Properties=species:S:1:pos:R:3:Z:I:1 energy=-289.28010737233683 field_type=dipole dipole="0.000000 0.000000 0.000000" charge=0
C	-2.944369	0.710367	-0.694137	6
N	-1.503119	0.669577	-0.900067	7
C	-0.882309	-0.355123	-0.058877	6
C	0.619211	-0.392903	-0.311677	6
C	1.471131	0.774737	0.261472	6
C	2.560991	-0.269953	0.573732	6
C	1.437091	-1.324523	0.622512	6
H	-3.384609	1.473207	-1.343507	1
H	-3.194789	0.964927	0.342253	1
H	-3.409349	-0.247513	-0.948967	1
H	-1.109459	1.581397	-0.668767	1
H	-1.306639	-1.337183	-0.299257	1
H	-1.085679	-0.152593	0.999693	1
H	0.845841	-0.589693	-1.370788	1
H	1.049321	1.248817	1.155652	1
H	1.752961	1.551797	-0.453737	1
H	3.273901	-0.422513	-0.244477	1
H	3.112471	-0.118683	1.504852	1
H	1.690551	-2.305013	0.211423	1
H	1.006851	-1.459133	1.622672	1
Es	0.619237	-0.392893	-0.311609	99
Es	-0.137021	-0.369705	-0.184694	99
Es	-3.119835	0.882391	0.027072	99
Es	2.945754	-0.165641	1.213487	99
Es	1.437105	-1.324473	0.622493	99
Es	-3.246443	1.235316	-1.134076	99
Es	0.984320	0.260913	-0.058645	99
Es	-1.272858	1.219726	-0.732795	99
Es	1.608581	-2.003743	0.342940	99
Es	0.969310	-0.929261	0.148123	99
Es	-1.503253	0.669690	-0.899477	99
Es	-2.944251	0.710366	-0.694151	99
Es	1.661993	1.315806	-0.227711	99
Es	-1.178812	-1.028074	-0.223889	99
Es	-3.257064	0.052186	-0.862985	99
Es	2.560926	-0.269951	0.573724	99
Es	3.038730	-0.374859	0.007777	99
Es	1.175904	1.087451	0.876671	99
Es	-1.433466	0.597327	-1.238899	99
Es	-1.248124	0.237426	-0.509168	99
Es	1.138303	-1.403460	1.305836	99
Es	-0.882354	-0.355030	-0.058961	99
Es	0.779692	-0.525958	-1.029728	99
Es	1.471140	0.774679	0.261467	99
Es	2.076512	0.323583	0.433514	99
Es	-1.019238	-0.215699	0.681473	99
Es	-2.132061	0.691046	-0.781435	99
Es	2.058942	-0.859846	0.637409	99
48
Properties=species:S:1:pos:R:3:Z:I:1 energy=-289.28010737233683 field_type=dipole dipole="0.000000 0.000000 0.000000" charge=0
C	-2.944369	0.710367	-0.694137	6
N	-1.503119	0.669577	-0.900067	7
C	-0.882309	-0.355123	-0.058877	6
C	0.619211	-0.392903	-0.311677	6
C	1.471131	0.774737	0.261472	6
C	2.560991	-0.269953	0.573732	6
C	1.437091	-1.324523	0.622512	6
H	-3.384609	1.473207	-1.343507	1
H	-3.194789	0.964927	0.342253	1
H	-3.409349	-0.247513	-0.948967	1
H	-1.109459	1.581397	-0.668767	1
H	-1.306639	-1.337183	-0.299257	1
H	-1.085679	-0.152593	0.999693	1
H	0.845841	-0.589693	-1.370788	1
H	1.049321	1.248817	1.155652	1
H	1.752961	1.551797	-0.453737	1
H	3.273901	-0.422513	-0.244477	1
H	3.112471	-0.118683	1.504852	1
H	1.690551	-2.305013	0.211423	1
H	1.006851	-1.459133	1.622672	1
Es	-1.019225	-0.215734	0.681404	99
Es	1.437105	-1.324473	0.622492	99
Es	-3.246456	1.235297	-1.134062	99
Es	3.038733	-0.374805	0.007832	99
Es	-1.503275	0.669684	-0.899476	99
Es	2.076525	0.323612	0.433513	99
Es	1.608528	-2.003756	0.343066	99
Es	-0.136992	-0.369773	-0.184732	99
Es	1.662005	1.315690	-0.227616	99
Es	0.984261	0.261049	-0.058800	99
Es	-2.944251	0.710367	-0.694152	99
Es	2.059100	-0.859965	0.637576	99
Es	-3.119869	0.882394	0.027009	99
Es	-1.272712	1.219888	-0.733253	99
Es	2.945750	-0.165661	1.213386	99
Es	2.560923	-0.269951	0.573725	99
Es	1.471137	0.774685	0.261469	99
Es	-1.178820	-1.028061	-0.223840	99
Es	-3.257075	0.052172	-0.862966	99
Es	-1.433015	0.596673	-1.238510	99
Es	1.138259	-1.403452	1.305651	99
Es	0.969361	-0.929307	0.148039	99
Es	-0.882352	-0.355031	-0.058961	99
Es	0.779655	-0.525915	-1.029618	99
Es	1.175876	1.087539	0.876702	99
Es	0.619237	-0.392893	-0.311610	99
Es	-2.132189	0.691106	-0.781939	99
Es	-1.248557	0.237932	-0.508566	99
48
Properties=species:S:1:pos:R:3:Z:I:1 energy=-289.28010737233683 field_type=dipole dipole="0.000000 0.000000 0.000000" charge=0
C	-2.944369	0.710367	-0.694137	6
N	-1.503119	0.669577	-0.900067	7
C	-0.882309	-0.355123	-0.058877	6
C	0.619211	-0.392903	-0.311677	6
C	1.471131	0.774737	0.261472	6
C	2.560991	-0.269953	0.573732	6
C	1.437091	-1.324523	0.622512	6
H	-3.384609	1.473207	-1.343507	1
H	-3.194789	0.964927	0.342253	1
H	-3.409349	-0.247513	-0.948967	1
H	-1.109459	1.581397	-0.668767	1
H	-1.306639	-1.337183	-0.299257	1
H	-1.085679	-0.152593	0.999693	1
H	0.845841	-0.589693	-1.370788	1
H	1.049321	1.248817	1.155652	1
H	1.752961	1.551797	-0.453737	1
H	3.273901	-0.422513	-0.244477	1
H	3.112471	-0.118683	1.504852	1
H	1.690551	-2.305013	0.211423	1
H	1.006851	-1.459133	1.622672	1
Es	2.560928	-0.269949	0.573724	99
Es	-0.882354	-0.355029	-0.058962	99
Es	2.059136	-0.860016	0.637518	99
Es	0.779588	-0.525948	-1.029604	99
Es	2.076585	0.323757	0.433495	99
Es	1.138287	-1.403424	1.305637	99
Es	-1.503251	0.669689	-0.899471	99
Es	0.619237	-0.392893	-0.311609	99
Es	3.038753	-0.374817	0.007954	99
Es	1.608511	-2.003737	0.343164	99
Es	-1.272564	1.219884	-0.733408	99
Es	1.437105	-1.324473	0.622492	99
Es	-1.248094	0.237458	-0.509124	99
Es	-1.178891	-1.028019	-0.223727	99
Es	-3.257074	0.052156	-0.862956	99
Es	-1.019156	-0.215699	0.681362	99
Es	-3.119878	0.882384	0.026966	99
Es	-2.132089	0.691207	-0.781451	99
Es	1.471138	0.774685	0.261469	99
Es	0.969284	-0.929397	0.147984	99
Es	-1.433736	0.597106	-1.238308	99
Es	1.661998	1.315625	-0.227565	99
Es	1.175968	1.087613	0.876614	99
Es	0.984176	0.261023	-0.058837	99
Es	-3.246468	1.235302	-1.134056	99
Es	-0.136938	-0.369868	-0.184744	99
Es	2.945718	-0.165677	1.213359	99
Es	-2.944252	0.710367	-0.694151	99
48
Properties=species:S:1:pos:R:3:Z:I:1 energy=-289.28010737233683 field_type=dipole dipole="0.000000 0.000000 0.000000" charge=0
C	-2.944369	0.710367	-0.694137	6
N	-1.503119	0.669577	-0.900067	7
C	-0.882309	-0.355123	-0.058877	6
C	0.619211	-0.392903	-0.311677	6
C	1.471131	0.774737	0.261472	6
C	2.560991	-0.269953	0.573732	6
C	1.437091	-1.324523	0.622512	6
H	-3.384609	1.473207	-1.343507	1
H	-3.194789	0.964927	0.342253	1
H	-3.409349	-0.247513	-0.948967	1
H	-1.109459	1.581397	-0.668767	1
H	-1.306639	-1.337183	-0.299257	1
H	-1.085679	-0.152593	0.999693	1
H	0.845841	-0.589693	-1.370788	1
H	1.049321	1.248817	1.155652	1
H	1.752961	1.551797	-0.453737	1
H	3.273901	-0.422513	-0.244477	1
H	3.112471	-0.118683	1.504852	1
H	1.690551	-2.305013	0.211423	1
H	1.006851	-1.459133	1.622672	1
Es	1.437105	-1.324473	0.622493	99
Es	3.038718	-0.374823	0.008022	99
Es	-1.019195	-0.215769	0.681360	99
Es	1.661989	1.315675	-0.227479	99
Es	0.779611	-0.525912	-1.029509	99
Es	1.608466	-2.003625	0.343212	99
Es	-1.248219	0.237691	-0.508866	99
Es	-1.178815	-1.028039	-0.223786	99
Es	2.560926	-0.269951	0.573724	99
Es	-2.944255	0.710364	-0.694152	99
Es	-1.434035	0.596547	-1.238156	99
Es	2.076638	0.323834	0.433576	99
Es	0.969143	-0.929509	0.147964	99
Es	1.175910	1.087552	0.876504	99
Es	-1.272237	1.220030	-0.734034	99
Es	1.138341	-1.403516	1.305611	99
Es	-3.246513	1.235313	-1.133984	99
Es	0.984178	0.261099	-0.058885	99
Es	1.471139	0.774684	0.261469	99
Es	-1.503247	0.669691	-0.899477	99
Es	-0.136920	-0.369779	-0.184839	99
Es	-2.132002	0.691376	-0.781258	99
Es	-3.257076	0.052246	-0.863002	99
Es	-3.119872	0.882294	0.027009	99
Es	2.945751	-0.165687	1.213264	99
Es	2.059254	-0.860079	0.637548	99
Es	0.619240	-0.392893	-0.311604	99
Es	-0.882354	-0.355031	-0.058961	99
