37
Properties=species:S:1:pos:R:3:Z:I:1 energy=-268.5609536185232 field_type=dipole dipole="0.000000 0.000000 0.000000" charge=0
C	-3.180084	0.020782	-0.002912	6
C	-1.989924	0.020782	-0.002912	6
C	-0.583924	0.020782	-0.002912	6
C	0.195846	-1.071328	0.002148	6
C	1.637396	-0.656588	0.004208	6
C	1.532306	0.841462	-0.000502	6
C	0.240676	1.204312	-0.004602	6
H	-4.244964	0.020532	-0.002912	1
H	-0.147344	-2.094648	0.005688	1
H	2.154756	-1.020048	-0.888431	1
H	2.150296	-1.014578	0.901648	1
H	2.376116	1.514912	-0.000302	1
H	-0.141154	2.213622	-0.008212	1
Es	0.926719	-0.901063	0.003228	99
Es	-1.989659	0.020784	-0.002913	99
Es	-0.236076	-0.506783	0.313122	99
Es	1.970850	-0.893788	-0.590012	99
Es	1.625395	0.093951	0.001998	99
Es	1.967897	-0.890188	0.601522	99
Es	-2.574409	0.082935	-0.350845	99
Es	-2.584366	0.293354	0.227522	99
Es	-3.180351	0.020783	-0.002912	99
Es	-0.025678	-1.765267	0.004664	99
Es	-1.309462	0.029201	-0.002878	99
Es	-0.235192	-0.508996	-0.314718	99
Es	-2.589742	-0.317459	0.114304	99
Es	0.240551	1.204317	-0.004601	99
Es	0.880596	1.028595	-0.320975	99
Es	-0.025533	1.883829	-0.007111	99
Es	1.532414	0.841392	-0.000498	99
Es	0.195934	-1.071388	0.002148	99
Es	-0.584090	0.020878	-0.002911	99
Es	-0.231537	0.640173	-0.004049	99
Es	2.111273	1.288595	-0.000453	99
Es	1.637366	-0.656571	0.004208	99
Es	0.879128	1.030508	0.315756	99
Es	-3.875523	0.020567	-0.002936	99
37
Properties=species:S:1:pos:R:3:Z:I:1 energy=-268.5609536185232 field_type=dipole dipole="0.000000 0.000000 0.000000" charge=0
C	-3.180084	0.020782	-0.002912	6
C	-1.989924	0.020782	-0.002912	6
C	-0.583924	0.020782	-0.002912	6
C	0.195846	-1.071328	0.002148	6
C	1.637396	-0.656588	0.004208	6
C	1.532306	0.841462	-0.000502	6
C	0.240676	1.204312	-0.004602	6
H	-4.244964	0.020532	-0.002912	1
H	-0.147344	-2.094648	0.005688	1
H	2.154756	-1.020048	-0.888431	1
H	2.150296	-1.014578	0.901648	1
H	2.376116	1.514912	-0.000302	1
H	-0.141154	2.213622	-0.008212	1
Es	-0.584088	0.020874	-0.002911	99
Es	1.637365	-0.656570	0.004208	99
Es	0.240553	1.204316	-0.004611	99
Es	1.625305	0.093842	0.001983	99
Es	-0.236019	-0.506576	0.312859	99
Es	1.970956	-0.893814	-0.589994	99
Es	2.111285	1.288613	-0.000372	99
Es	0.880623	1.028665	-0.320773	99
Es	-2.574858	-0.073278	-0.343773	99
Es	-0.025477	1.883894	-0.007037	99
Es	1.532412	0.841394	-0.000498	99
Es	0.195933	-1.071387	0.002149	99
Es	-1.989664	0.020777	-0.002920	99
Es	1.967856	-0.890142	0.601526	99
Es	-0.025955	-1.765289	0.004566	99
Es	-1.309420	0.029448	-0.002892	99
Es	-2.582985	-0.236010	0.243605	99
Es	-2.590795	0.367609	0.091223	99
Es	0.879118	1.030454	0.315507	99
Es	-0.231613	0.640151	-0.004098	99
Es	-3.875475	0.020548	-0.002943	99
Es	-3.180347	0.020781	-0.002913	99
Es	-0.235128	-0.508844	-0.314405	99
Es	0.926925	-0.901098	0.003172	99
37
Properties=species:S:1:pos:R:3:Z:I:1 energy=-268.5609536185232 field_type=dipole dipole="0.000000 0.000000 0.000000" charge=0
C	-3.180084	0.020782	-0.002912	6
C	-1.989924	0.020782	-0.002912	6
C	-0.583924	0.020782	-0.002912	6
C	0.195846	-1.071328	0.002148	6
C	1.637396	-0.656588	0.004208	6
C	1.532306	0.841462	-0.000502	6
C	0.240676	1.204312	-0.004602	6
H	-4.244964	0.020532	-0.002912	1
H	-0.147344	-2.094648	0.005688	1
H	2.154756	-1.020048	-0.888431	1
H	2.150296	-1.014578	0.901648	1
H	2.376116	1.514912	-0.000302	1
H	-0.141154	2.213622	-0.008212	1
Es	-0.026087	-1.765278	0.004517	99
Es	-0.231613	0.640250	-0.004146	99
Es	-2.586498	-0.280731	0.187587	99
Es	-0.236062	-0.506689	0.312661	99
Es	0.879092	1.030411	0.315437	99
Es	-1.309523	0.029252	-0.002971	99
Es	-3.180347	0.020781	-0.002912	99
Es	-2.588260	0.340816	0.159210	99
Es	1.625304	0.093788	0.002009	99
Es	1.971029	-0.893703	-0.589993	99
Es	2.111199	1.288686	-0.000435	99
Es	-1.989656	0.020780	-0.002914	99
Es	-3.875484	0.020608	-0.003017	99
Es	-0.025399	1.883969	-0.007052	99
Es	-0.235130	-0.508840	-0.313988	99
Es	1.532410	0.841393	-0.000501	99
Es	-0.584092	0.020879	-0.002909	99
Es	0.880580	1.028595	-0.320595	99
Es	1.967887	-0.890177	0.601539	99
Es	0.240552	1.204315	-0.004600	99
Es	0.195933	-1.071386	0.002150	99
Es	1.637365	-0.656570	0.004208	99
Es	-2.573777	-0.001644	-0.355713	99
Es	0.927084	-0.901147	0.003086	99
37
Properties=species:S:1:pos:R:3:Z:I:1 energy=-268.5609536185232 field_type=dipole dipole="0.000000 0.000000 0.000000" charge=0
C	-3.180084	0.020782	-0.002912	6
C	-1.989924	0.020782	-0.002912	6
C	-0.583924	0.020782	-0.002912	6
C	0.195846	-1.071328	0.002148	6
C	1.637396	-0.656588	0.004208	6
C	1.532306	0.841462	-0.000502	6
C	0.240676	1.204312	-0.004602	6
H	-4.244964	0.020532	-0.002912	1
H	-0.147344	-2.094648	0.005688	1
H	2.154756	-1.020048	-0.888431	1
H	2.150296	-1.014578	0.901648	1
H	2.376116	1.514912	-0.000302	1
H	-0.141154	2.213622	-0.008212	1
Es	0.880583	1.028589	-0.320384	99
Es	1.967915	-0.890130	0.601542	99
Es	0.195937	-1.071391	0.002150	99
Es	-2.577940	-0.155826	-0.310216	99
Es	-1.309430	0.029398	-0.003081	99
Es	1.970980	-0.893849	-0.589961	99
Es	-2.592133	0.380595	0.002798	99
Es	1.637366	-0.656572	0.004207	99
Es	0.879132	1.030427	0.315135	99
Es	-0.025345	1.883995	-0.007065	99
Es	2.111235	1.288765	-0.000395	99
Es	-0.231738	0.640171	-0.004100	99
Es	-0.235139	-0.508746	-0.314028	99
Es	0.240552	1.204316	-0.004602	99
Es	1.625288	0.093696	0.001906	99
Es	-1.989662	0.020787	-0.002911	99
Es	-0.584091	0.020879	-0.002912	99
Es	-0.026068	-1.765335	0.004492	99
Es	0.927072	-0.900999	0.003120	99
Es	-2.578643	-0.166581	0.298697	99
Es	1.532407	0.841395	-0.000514	99
Es	-3.875396	0.020563	-0.002911	99
Es	-3.180346	0.020776	-0.002926	99
Es	-0.236027	-0.506566	0.312616	99
37
Properties=species:S:1:pos:R:3:Z:I:1 energy=-268.5609536185232 field_type=dipole dipole="0.000000 0.000000 0.000000" charge=0
C	-3.180084	0.020782	-0.002912	6
C	-1.989924	0.020782	-0.002912	6
C	-0.583924	0.020782	-0.002912	6
C	0.195846	-1.071328	0.002148	6
C	1.637396	-0.656588	0.004208	6
C	1.532306	0.841462	-0.000502	6
C	0.240676	1.204312	-0.004602	6
H	-4.244964	0.020532	-0.002912	1
H	-0.147344	-2.094648	0.005688	1
H	2.154756	-1.020048	-0.888431	1
H	2.150296	-1.014578	0.901648	1
H	2.376116	1.514912	-0.000302	1
H	-0.141154	2.213622	-0.008212	1
Es	-3.875400	0.020483	-0.002985	99
Es	1.625361	0.093605	0.001906	99
Es	-3.180348	0.020782	-0.002913	99
Es	-2.575619	-0.099790	-0.335713	99
Es	-1.309439	0.029328	-0.002963	99
Es	-0.231613	0.640174	-0.003958	99
Es	-0.584090	0.020878	-0.002919	99
Es	-1.989663	0.020795	-0.002910	99
Es	1.532410	0.841393	-0.000501	99
Es	0.195934	-1.071387	0.002151	99
Es	-0.236156	-0.506674	0.312369	99
Es	0.240552	1.204317	-0.004605	99
Es	1.967949	-0.890197	0.601519	99
Es	0.880658	1.028669	-0.320138	99
Es	-2.581584	-0.215841	0.262888	99
Es	0.927197	-0.901014	0.003171	99
Es	-0.025352	1.884055	-0.007127	99
Es	-0.235152	-0.508701	-0.313949	99
Es	1.637366	-0.656572	0.004208	99
Es	-0.026209	-1.765279	0.004517	99
Es	0.879044	1.030289	0.315024	99
Es	1.970964	-0.893820	-0.589991	99
Es	2.111168	1.288844	-0.000388	99
Es	-2.591470	0.374023	0.063966	99
37
Properties=species:S:1:pos:R:3:Z:I:1 energy=-268.5609536185232 field_type=dipole dipole="0.000000 0.000000 0.000000" charge=0
C	-3.180084	0.020782	-0.002912	6
C	-1.989924	0.020782	-0.002912	6
C	-0.583924	0.020782	-0.002912	6
C	0.195846	-1.071328	0.002148	6
C	1.637396	-0.656588	0.004208	6
C	1.532306	0.841462	-0.000502	6
C	0.240676	1.204312	-0.004602	6
H	-4.244964	0.020532	-0.002912	1
H	-0.147344	-2.094648	0.005688	1
H	2.154756	-1.020048	-0.888431	1
H	2.150296	-1.014578	0.901648	1
H	2.376116	1.514912	-0.000302	1
H	-0.141154	2.213622	-0.008212	1
Es	0.240553	1.204316	-0.004602	99
Es	-3.180328	0.020803	-0.002903	99
Es	1.625353	0.093542	0.001921	99
Es	0.880599	1.028573	-0.320060	99
Es	-1.989662	0.020783	-0.002912	99
Es	1.967966	-0.890188	0.601522	99
Es	-0.025316	1.884076	-0.007075	99
Es	-3.875374	0.020552	-0.002989	99
Es	1.532412	0.841396	-0.000502	99
Es	-1.309409	0.029327	-0.002880	99
Es	1.970997	-0.893820	-0.589983	99
Es	-0.231669	0.640181	-0.004003	99
Es	0.195937	-1.071386	0.002148	99
Es	-0.026274	-1.765268	0.004560	99
Es	-0.236143	-0.506780	0.312245	99
Es	2.111139	1.288904	-0.000353	99
Es	0.927291	-0.901000	0.003197	99
Es	-2.591387	0.373474	0.067423	99
Es	1.637366	-0.656572	0.004208	99
Es	-0.235224	-0.508614	-0.313894	99
Es	-2.581786	-0.218462	0.260496	99
Es	-2.575537	-0.096714	-0.336814	99
Es	0.879093	1.030357	0.314821	99
Es	-0.584089	0.020878	-0.002912	99
37
Properties=species:S:1:pos:R:3:Z:I:1 energy=-268.5609536185232 field_type=dipole dipole="0.000000 0.000000 0.000000" charge=0
C	-3.180084	0.020782	-0.002912	6
C	-1.989924	0.020782	-0.002912	6
C	-0.583924	0.020782	-0.002912	6
C	0.195846	-1.071328	0.002148	6
C	1.637396	-0.656588	0.004208	6
C	1.532306	0.841462	-0.000502	6
C	0.240676	1.204312	-0.004602	6
H	-4.244964	0.020532	-0.002912	1
H	-0.147344	-2.094648	0.005688	1
H	2.154756	-1.020048	-0.888431	1
H	2.150296	-1.014578	0.901648	1
H	2.376116	1.514912	-0.000302	1
H	-0.141154	2.213622	-0.008212	1
Es	1.637367	-0.656572	0.004209	99
Es	-0.025282	1.884126	-0.006980	99
Es	-3.180344	0.020780	-0.002910	99
Es	0.240553	1.204316	-0.004601	99
Es	-1.309506	0.028693	-0.002841	99
Es	1.625365	0.093462	0.002034	99
Es	-2.590148	-0.321354	0.103554	99
Es	-0.235271	-0.508766	-0.313750	99
Es	0.195932	-1.071385	0.002149	99
Es	-3.875431	0.020764	-0.003052	99
Es	-0.026355	-1.765250	0.004572	99
Es	-0.231681	0.640251	-0.003842	99
Es	-1.989663	0.020785	-0.002915	99
Es	-2.574586	0.094598	-0.348889	99
Es	1.532409	0.841394	-0.000501	99
Es	0.880470	1.028293	-0.320087	99
Es	-0.584089	0.020876	-0.002917	99
Es	0.927376	-0.900972	0.003206	99
Es	-2.583716	0.285696	0.236432	99
Es	1.971014	-0.893820	-0.589983	99
Es	1.967988	-0.890194	0.601510	99
Es	0.879224	1.030588	0.314423	99
Es	-0.236221	-0.506929	0.312098	99
Es	2.111103	1.288979	-0.000260	99
37
Properties=species:S:1:pos:R:3:Z:I:1 energy=-268.5609536185232 field_type=dipole dipole="0.000000 0.000000 0.000000" charge=0
C	-3.180084	0.020782	-0.002912	6
C	-1.989924	0.020782	-0.002912	6
C	-0.583924	0.020782	-0.002912	6
C	0.195846	-1.071328	0.002148	6
C	1.637396	-0.656588	0.004208	6
C	1.532306	0.841462	-0.000502	6
C	0.240676	1.204312	-0.004602	6
H	-4.244964	0.020532	-0.002912	1
H	-0.147344	-2.094648	0.005688	1
H	2.154756	-1.020048	-0.888431	1
H	2.150296	-1.014578	0.901648	1
H	2.376116	1.514912	-0.000302	1
H	-0.141154	2.213622	-0.008212	1
Es	0.927446	-0.900937	0.003105	99
Es	-1.989663	0.020783	-0.002912	99
Es	0.880598	1.028532	-0.319696	99
Es	1.625395	0.093404	0.001935	99
Es	2.111079	1.289068	-0.000363	99
Es	0.879076	1.030294	0.314473	99
Es	0.195933	-1.071384	0.002148	99
Es	1.637366	-0.656572	0.004208	99
Es	-1.309474	0.028925	-0.002821	99
Es	-0.025284	1.884153	-0.007056	99
Es	-3.180346	0.020783	-0.002912	99
Es	-0.584088	0.020877	-0.002913	99
Es	-0.235291	-0.508897	-0.313430	99
Es	-0.231671	0.640207	-0.004158	99
Es	1.971040	-0.893834	-0.589965	99
Es	-2.588750	0.345950	0.148633	99
Es	-3.875382	0.020606	-0.003105	99
Es	-0.236145	-0.506527	0.312087	99
Es	-0.026445	-1.765263	0.004555	99
Es	0.240554	1.204315	-0.004603	99
Es	-2.573804	-0.012366	-0.354883	99
Es	-2.586036	-0.274915	0.197323	99
Es	1.967992	-0.890236	0.601510	99
Es	1.532408	0.841394	-0.000502	99
37
Properties=species:S:1:pos:R:3:Z:I:1 energy=-268.5609536185232 field_type=dipole dipole="0.000000 0.000000 0.000000" charge=0
C	-3.180084	0.020782	-0.002912	6
C	-1.989924	0.020782	-0.002912	6
C	-0.583924	0.020782	-0.002912	6
C	0.195846	-1.071328	0.002148	6
C	1.637396	-0.656588	0.004208	6
C	1.532306	0.841462	-0.000502	6
C	0.240676	1.204312	-0.004602	6
H	-4.244964	0.020532	-0.002912	1
H	-0.147344	-2.094648	0.005688	1
H	2.154756	-1.020048	-0.888431	1
H	2.150296	-1.014578	0.901648	1
H	2.376116	1.514912	-0.000302	1
H	-0.141154	2.213622	-0.008212	1
Es	-2.580753	0.239139	-0.283540	99
Es	-0.236282	-0.507316	0.311604	99
Es	1.971049	-0.893830	-0.589982	99
Es	0.927532	-0.900927	0.003272	99
Es	-3.875423	0.020870	-0.002776	99
Es	0.240554	1.204315	-0.004602	99
Es	1.968030	-0.890193	0.601511	99
Es	-3.180344	0.020784	-0.002910	99
Es	0.879103	1.030305	0.314271	99
Es	2.111035	1.289116	-0.000344	99
Es	1.532408	0.841394	-0.000502	99
Es	0.880580	1.028464	-0.319565	99
Es	1.625387	0.093306	0.001937	99
Es	-0.231706	0.640283	-0.003857	99
Es	-0.584086	0.020877	-0.002910	99
Es	-0.025206	1.884221	-0.007071	99
Es	-1.309545	0.028433	-0.003132	99
Es	-1.989679	0.020778	-0.002912	99
Es	-2.576219	0.154915	0.325525	99
Es	-0.235331	-0.508417	-0.313669	99
Es	1.637366	-0.656572	0.004208	99
Es	-2.591381	-0.334969	-0.050640	99
Es	-0.026512	-1.765234	0.004594	99
Es	0.195933	-1.071384	0.002149	99
