42
Properties=species:S:1:pos:R:3:Z:I:1 energy=-286.9028592755577 field_type=dipole dipole="0.000000 0.000000 0.000000" charge=0
C	-3.025748	-1.125439	0.038116	6
N	-1.570748	-1.095039	0.081286	7
C	-1.073338	0.278271	0.069526	6
C	0.370662	0.278271	0.069526	6
C	1.560822	0.278271	0.069526	6
C	2.966822	0.278271	0.069526	6
C	3.669562	1.414281	0.011726	6
H	-3.369018	-2.164569	0.054676	1
H	-3.410998	-0.658769	-0.874294	1
H	-3.458308	-0.622239	0.908296	1
H	-1.196328	-1.585099	-0.730574	1
H	-1.441028	0.815251	0.951566	1
H	-1.441138	0.807731	-0.817414	1
H	3.480032	-0.677439	0.120856	1
H	3.184522	2.384400	-0.037444	1
H	4.754232	1.393851	0.015096	1
Es	-1.358761	-1.371686	-0.426918	99
Es	1.561074	0.278265	0.069515	99
Es	-0.323996	0.279084	0.067620	99
Es	-1.310394	0.643517	-0.535951	99
Es	-2.207141	-1.085891	0.038034	99
Es	-1.357660	-0.480539	0.052065	99
Es	-1.310717	0.638486	0.662969	99
Es	3.348384	2.070648	-0.021889	99
Es	0.370398	0.278282	0.069524	99
Es	3.292717	0.852881	0.359925	99
Es	-3.293326	-0.796140	-0.592561	99
Es	3.669611	1.414350	0.011719	99
Es	-1.570951	-1.094763	0.080766	99
Es	-3.025616	-1.125434	0.038118	99
Es	2.966677	0.278182	0.069532	99
Es	0.973820	0.006759	-0.169115	99
Es	-1.073252	0.278146	0.069525	99
Es	2.244240	0.271177	0.068763	99
Es	4.404148	1.405981	0.013609	99
Es	1.003014	0.214398	0.415280	99
Es	3.295791	-0.366089	0.103492	99
Es	0.966881	0.623991	-0.047097	99
Es	-3.258881	-1.833162	0.044446	99
Es	-3.315475	-0.773962	0.629911	99
Es	3.294574	0.820491	-0.279038	99
Es	-1.459967	-1.252029	0.372896	99
42
Properties=species:S:1:pos:R:3:Z:I:1 energy=-286.9028592755577 field_type=dipole dipole="0.000000 0.000000 0.000000" charge=0
C	-3.025748	-1.125439	0.038116	6
N	-1.570748	-1.095039	0.081286	7
C	-1.073338	0.278271	0.069526	6
C	0.370662	0.278271	0.069526	6
C	1.560822	0.278271	0.069526	6
C	2.966822	0.278271	0.069526	6
C	3.669562	1.414281	0.011726	6
H	-3.369018	-2.164569	0.054676	1
H	-3.410998	-0.658769	-0.874294	1
H	-3.458308	-0.622239	0.908296	1
H	-1.196328	-1.585099	-0.730574	1
H	-1.441028	0.815251	0.951566	1
H	-1.441138	0.807731	-0.817414	1
H	3.480032	-0.677439	0.120856	1
H	3.184522	2.384400	-0.037444	1
H	4.754232	1.393851	0.015096	1
Es	3.294459	0.820572	-0.279069	99
Es	0.984158	0.065803	-0.222461	99
Es	3.295729	-0.366166	0.103503	99
Es	-3.258961	-1.833199	0.044370	99
Es	-1.570972	-1.094720	0.080742	99
Es	3.669610	1.414350	0.011716	99
Es	-1.358637	-1.371838	-0.426606	99
Es	3.292834	0.852939	0.359824	99
Es	-1.357504	-0.480608	0.052074	99
Es	-1.310719	0.638621	0.662970	99
Es	-2.207108	-1.085859	0.037657	99
Es	1.561074	0.278264	0.069513	99
Es	-3.315383	-0.774075	0.629910	99
Es	0.370402	0.278281	0.069523	99
Es	-1.073253	0.278150	0.069526	99
Es	-0.324072	0.278800	0.067543	99
Es	0.962177	0.640682	0.027274	99
Es	-1.310253	0.643466	-0.535950	99
Es	-1.460253	-1.252075	0.372944	99
Es	2.244245	0.271679	0.069267	99
Es	-3.293357	-0.795963	-0.592468	99
Es	-3.025615	-1.125433	0.038118	99
Es	3.348371	2.070683	-0.021779	99
Es	2.966675	0.278180	0.069536	99
Es	0.997393	0.138464	0.393839	99
Es	4.404152	1.405946	0.013624	99
42
Properties=species:S:1:pos:R:3:Z:I:1 energy=-286.9028592755577 field_type=dipole dipole="0.000000 0.000000 0.000000" charge=0
C	-3.025748	-1.125439	0.038116	6
N	-1.570748	-1.095039	0.081286	7
C	-1.073338	0.278271	0.069526	6
C	0.370662	0.278271	0.069526	6
C	1.560822	0.278271	0.069526	6
C	2.966822	0.278271	0.069526	6
C	3.669562	1.414281	0.011726	6
H	-3.369018	-2.164569	0.054676	1
H	-3.410998	-0.658769	-0.874294	1
H	-3.458308	-0.622239	0.908296	1
H	-1.196328	-1.585099	-0.730574	1
H	-1.441028	0.815251	0.951566	1
H	-1.441138	0.807731	-0.817414	1
H	3.480032	-0.677439	0.120856	1
H	3.184522	2.384400	-0.037444	1
H	4.754232	1.393851	0.015096	1
Es	-0.324231	0.278575	0.067554	99
Es	-3.258967	-1.833161	0.044469	99
Es	-1.460265	-1.252066	0.372926	99
Es	4.404117	1.405864	0.013683	99
Es	3.292692	0.853030	0.359744	99
Es	1.561074	0.278262	0.069517	99
Es	0.982822	0.057373	-0.216068	99
Es	0.962565	0.639405	0.017050	99
Es	-3.293364	-0.796153	-0.592466	99
Es	2.966675	0.278179	0.069509	99
Es	-1.310174	0.643523	-0.536026	99
Es	0.998379	0.148193	0.397792	99
Es	3.669611	1.414351	0.011724	99
Es	0.370405	0.278280	0.069524	99
Es	-1.073253	0.278153	0.069524	99
Es	-2.207158	-1.085795	0.037506	99
Es	3.348395	2.070769	-0.021791	99
Es	-1.357390	-0.480584	0.051906	99
Es	-1.570962	-1.094721	0.080771	99
Es	3.295807	-0.366179	0.103608	99
Es	-3.315428	-0.773933	0.629871	99
Es	-3.025618	-1.125433	0.038117	99
Es	-1.310597	0.638685	0.663054	99
Es	-1.358703	-1.371919	-0.426332	99
Es	3.294490	0.820585	-0.279028	99
Es	2.244271	0.271663	0.069007	99
42
Properties=species:S:1:pos:R:3:Z:I:1 energy=-286.9028592755577 field_type=dipole dipole="0.000000 0.000000 0.000000" charge=0
C	-3.025748	-1.125439	0.038116	6
N	-1.570748	-1.095039	0.081286	7
C	-1.073338	0.278271	0.069526	6
C	0.370662	0.278271	0.069526	6
C	1.560822	0.278271	0.069526	6
C	2.966822	0.278271	0.069526	6
C	3.669562	1.414281	0.011726	6
H	-3.369018	-2.164569	0.054676	1
H	-3.410998	-0.658769	-0.874294	1
H	-3.458308	-0.622239	0.908296	1
H	-1.196328	-1.585099	-0.730574	1
H	-1.441028	0.815251	0.951566	1
H	-1.441138	0.807731	-0.817414	1
H	3.480032	-0.677439	0.120856	1
H	3.184522	2.384400	-0.037444	1
H	4.754232	1.393851	0.015096	1
Es	3.294449	0.820626	-0.278942	99
Es	4.404135	1.405858	0.013725	99
Es	-1.358396	-1.372105	-0.426352	99
Es	-0.324242	0.278650	0.067569	99
Es	-1.310655	0.638700	0.663078	99
Es	-1.460451	-1.251646	0.372208	99
Es	2.244301	0.271671	0.069087	99
Es	-1.357379	-0.480466	0.052194	99
Es	-3.025618	-1.125434	0.038117	99
Es	3.348315	2.070801	-0.021814	99
Es	0.370393	0.278278	0.069523	99
Es	-2.207247	-1.086195	0.037837	99
Es	3.669610	1.414349	0.011723	99
Es	-3.259008	-1.833133	0.044477	99
Es	-3.315422	-0.773928	0.629854	99
Es	-1.570947	-1.094746	0.080807	99
Es	3.295812	-0.366261	0.103492	99
Es	3.292729	0.853032	0.359639	99
Es	0.963123	0.637619	0.005683	99
Es	1.561072	0.278267	0.069520	99
Es	-1.073253	0.278148	0.069524	99
Es	0.999344	0.159066	0.401841	99
Es	-3.293371	-0.796154	-0.592448	99
Es	-1.310127	0.643503	-0.535972	99
Es	2.966676	0.278181	0.069530	99
Es	0.981347	0.048263	-0.208761	99
42
Properties=species:S:1:pos:R:3:Z:I:1 energy=-286.9028592755577 field_type=dipole dipole="0.000000 0.000000 0.000000" charge=0
C	-3.025748	-1.125439	0.038116	6
N	-1.570748	-1.095039	0.081286	7
C	-1.073338	0.278271	0.069526	6
C	0.370662	0.278271	0.069526	6
C	1.560822	0.278271	0.069526	6
C	2.966822	0.278271	0.069526	6
C	3.669562	1.414281	0.011726	6
H	-3.369018	-2.164569	0.054676	1
H	-3.410998	-0.658769	-0.874294	1
H	-3.458308	-0.622239	0.908296	1
H	-1.196328	-1.585099	-0.730574	1
H	-1.441028	0.815251	0.951566	1
H	-1.441138	0.807731	-0.817414	1
H	3.480032	-0.677439	0.120856	1
H	3.184522	2.384400	-0.037444	1
H	4.754232	1.393851	0.015096	1
Es	-1.073253	0.278151	0.069524	99
Es	1.001795	0.191171	0.410902	99
Es	0.964988	0.630432	-0.025582	99
Es	3.669610	1.414350	0.011723	99
Es	-0.324381	0.278567	0.067713	99
Es	0.370403	0.278279	0.069524	99
Es	-1.310472	0.638658	0.663081	99
Es	-1.358546	-1.371608	-0.426249	99
Es	2.966677	0.278183	0.069530	99
Es	-3.293454	-0.796248	-0.592516	99
Es	-2.207488	-1.085924	0.037570	99
Es	3.292641	0.853076	0.359480	99
Es	-1.310206	0.643608	-0.535992	99
Es	0.977013	0.023327	-0.186471	99
Es	-1.357485	-0.480849	0.051939	99
Es	4.404331	1.405824	0.013680	99
Es	3.295840	-0.366263	0.103481	99
Es	-1.570960	-1.094738	0.080779	99
Es	-1.459938	-1.251984	0.372733	99
Es	-3.258756	-1.833055	0.044410	99
Es	3.348267	2.070712	-0.021805	99
Es	2.244320	0.271797	0.068824	99
Es	3.294382	0.820701	-0.278746	99
Es	-3.315588	-0.774054	0.629971	99
Es	-3.025620	-1.125434	0.038117	99
Es	1.561071	0.278267	0.069520	99
