40
Properties=species:S:1:pos:R:3:Z:I:1 energy=-269.7394535694882 field_type=dipole dipole="0.000000 0.000000 0.000000" charge=0
C	-2.654627	-0.000265	0.860210	6
C	-1.464467	-0.000265	0.860210	6
C	-0.020468	-0.000265	0.860210	6
C	0.537193	-1.219855	0.098810	6
C	0.859323	-0.668085	-1.254880	6
C	0.860173	0.668975	-1.254830	6
C	0.537343	1.219045	0.101020	6
H	-3.720307	-0.000265	0.856070	1
H	0.338003	-0.000955	1.896310	1
H	-0.177697	-2.046415	0.034760	1
H	1.457093	-1.587995	0.565570	1
H	1.082552	-1.285025	-2.114790	1
H	1.083903	1.287215	-2.113280	1
H	1.458573	1.586975	0.567630	1
H	-0.176587	2.047185	0.036980	1
Es	0.859326	-0.668212	-1.254854	99
Es	1.011067	-1.097666	-1.831712	99
Es	0.234623	0.614200	0.499823	99
Es	1.175063	0.000291	-1.194507	99
Es	-2.654892	-0.000253	0.860219	99
Es	0.537192	-1.219800	0.098804	99
Es	0.544026	0.000616	-1.355082	99
Es	-2.074323	-0.308539	0.679405	99
Es	-2.072310	-0.001435	1.217613	99
Es	0.204022	-0.000742	1.560788	99
Es	0.054531	1.777965	0.060781	99
Es	1.012382	1.099335	-1.830819	99
Es	1.164640	-1.462302	0.414966	99
Es	0.860167	0.669107	-1.254805	99
Es	-1.464215	-0.000278	0.860218	99
Es	-0.020567	-0.000266	0.860170	99
Es	-0.771312	-0.000285	0.855512	99
Es	0.696304	0.975418	-0.591744	99
Es	-2.074556	0.309410	0.684806	99
Es	0.695716	-0.975324	-0.592963	99
Es	1.165500	1.461247	0.417260	99
Es	-3.351984	-0.000466	0.858091	99
Es	0.537343	1.218990	0.101013	99
Es	0.053886	-1.777887	0.058308	99
Es	0.234448	-0.614807	0.498801	99
40
Properties=species:S:1:pos:R:3:Z:I:1 energy=-269.7394535694882 field_type=dipole dipole="0.000000 0.000000 0.000000" charge=0
C	-2.654627	-0.000265	0.860210	6
C	-1.464467	-0.000265	0.860210	6
C	-0.020468	-0.000265	0.860210	6
C	0.537193	-1.219855	0.098810	6
C	0.859323	-0.668085	-1.254880	6
C	0.860173	0.668975	-1.254830	6
C	0.537343	1.219045	0.101020	6
H	-3.720307	-0.000265	0.856070	1
H	0.338003	-0.000955	1.896310	1
H	-0.177697	-2.046415	0.034760	1
H	1.457093	-1.587995	0.565570	1
H	1.082552	-1.285025	-2.114790	1
H	1.083903	1.287215	-2.113280	1
H	1.458573	1.586975	0.567630	1
H	-0.176587	2.047185	0.036980	1
Es	0.054570	1.777874	0.060741	99
Es	1.012349	1.099313	-1.830835	99
Es	0.696240	0.975486	-0.591663	99
Es	-2.074863	0.303270	1.057026	99
Es	-2.071020	0.019077	0.502346	99
Es	1.164554	-1.462365	0.414890	99
Es	-0.020567	-0.000265	0.860171	99
Es	-0.771300	-0.000252	0.855884	99
Es	1.165477	1.461361	0.417244	99
Es	0.859320	-0.668214	-1.254851	99
Es	0.537343	1.218991	0.101012	99
Es	0.860172	0.669106	-1.254804	99
Es	1.174745	0.000270	-1.194612	99
Es	-1.464207	-0.000263	0.860212	99
Es	0.544398	0.000628	-1.355122	99
Es	-2.654892	-0.000265	0.860212	99
Es	0.203912	-0.000766	1.560878	99
Es	0.695808	-0.975237	-0.592806	99
Es	0.053903	-1.777857	0.058339	99
Es	1.011063	-1.097737	-1.831824	99
Es	-2.075221	-0.323185	1.022307	99
Es	0.537193	-1.219799	0.098802	99
Es	0.234466	-0.614940	0.498763	99
Es	0.234523	0.614336	0.499812	99
Es	-3.351889	-0.000251	0.857970	99
40
Properties=species:S:1:pos:R:3:Z:I:1 energy=-269.7394535694882 field_type=dipole dipole="0.000000 0.000000 0.000000" charge=0
C	-2.654627	-0.000265	0.860210	6
C	-1.464467	-0.000265	0.860210	6
C	-0.020468	-0.000265	0.860210	6
C	0.537193	-1.219855	0.098810	6
C	0.859323	-0.668085	-1.254880	6
C	0.860173	0.668975	-1.254830	6
C	0.537343	1.219045	0.101020	6
H	-3.720307	-0.000265	0.856070	1
H	0.338003	-0.000955	1.896310	1
H	-0.177697	-2.046415	0.034760	1
H	1.457093	-1.587995	0.565570	1
H	1.082552	-1.285025	-2.114790	1
H	1.083903	1.287215	-2.113280	1
H	1.458573	1.586975	0.567630	1
H	-0.176587	2.047185	0.036980	1
Es	1.174649	0.000277	-1.194839	99
Es	0.537342	1.218990	0.101013	99
Es	0.053907	-1.777765	0.058366	99
Es	1.165408	1.461345	0.417186	99
Es	0.695827	-0.975373	-0.592804	99
Es	-1.464210	-0.000264	0.860212	99
Es	-0.771195	-0.000178	0.855933	99
Es	0.696416	0.975609	-0.591588	99
Es	0.203796	-0.000765	1.560869	99
Es	0.234475	-0.614974	0.498815	99
Es	-3.351815	-0.000242	0.858080	99
Es	-2.654901	-0.000247	0.860226	99
Es	-2.075176	0.316121	1.033626	99
Es	0.859321	-0.668213	-1.254859	99
Es	0.537193	-1.219800	0.098803	99
Es	1.164545	-1.462481	0.414819	99
Es	-2.075030	-0.308602	1.047774	99
Es	0.234515	0.614359	0.499853	99
Es	1.011176	-1.097668	-1.831785	99
Es	-0.020566	-0.000264	0.860171	99
Es	1.012284	1.099228	-1.830851	99
Es	-2.070929	-0.008412	0.500141	99
Es	0.544237	0.000621	-1.355029	99
Es	0.860171	0.669107	-1.254803	99
Es	0.054634	1.777908	0.060765	99
40
Properties=species:S:1:pos:R:3:Z:I:1 energy=-269.7394535694882 field_type=dipole dipole="0.000000 0.000000 0.000000" charge=0
C	-2.654627	-0.000265	0.860210	6
C	-1.464467	-0.000265	0.860210	6
C	-0.020468	-0.000265	0.860210	6
C	0.537193	-1.219855	0.098810	6
C	0.859323	-0.668085	-1.254880	6
C	0.860173	0.668975	-1.254830	6
C	0.537343	1.219045	0.101020	6
H	-3.720307	-0.000265	0.856070	1
H	0.338003	-0.000955	1.896310	1
H	-0.177697	-2.046415	0.034760	1
H	1.457093	-1.587995	0.565570	1
H	1.082552	-1.285025	-2.114790	1
H	1.083903	1.287215	-2.113280	1
H	1.458573	1.586975	0.567630	1
H	-0.176587	2.047185	0.036980	1
Es	0.544430	0.000610	-1.355002	99
Es	-2.074880	0.299647	1.061428	99
Es	1.012399	1.099213	-1.830906	99
Es	0.860168	0.669105	-1.254805	99
Es	-2.654894	-0.000266	0.860210	99
Es	0.203767	-0.000813	1.560852	99
Es	1.165435	1.461275	0.417216	99
Es	0.234441	0.614390	0.499730	99
Es	0.054705	1.777958	0.060759	99
Es	-2.070971	0.024383	0.501700	99
Es	1.011139	-1.097629	-1.831853	99
Es	0.859321	-0.668219	-1.254854	99
Es	-1.464208	-0.000265	0.860214	99
Es	1.174382	0.000273	-1.194901	99
Es	1.164508	-1.462369	0.414836	99
Es	-2.075284	-0.324864	1.018670	99
Es	0.053943	-1.777889	0.058317	99
Es	0.537343	1.218991	0.101012	99
Es	0.696422	0.975695	-0.591513	99
Es	0.537193	-1.219801	0.098803	99
Es	-3.351827	-0.000237	0.857927	99
Es	0.695906	-0.975370	-0.592628	99
Es	-0.771081	-0.000187	0.855922	99
Es	0.234287	-0.615047	0.498786	99
Es	-0.020567	-0.000265	0.860172	99
40
Properties=species:S:1:pos:R:3:Z:I:1 energy=-269.7394535694882 field_type=dipole dipole="0.000000 0.000000 0.000000" charge=0
C	-2.654627	-0.000265	0.860210	6
C	-1.464467	-0.000265	0.860210	6
C	-0.020468	-0.000265	0.860210	6
C	0.537193	-1.219855	0.098810	6
C	0.859323	-0.668085	-1.254880	6
C	0.860173	0.668975	-1.254830	6
C	0.537343	1.219045	0.101020	6
H	-3.720307	-0.000265	0.856070	1
H	0.338003	-0.000955	1.896310	1
H	-0.177697	-2.046415	0.034760	1
H	1.457093	-1.587995	0.565570	1
H	1.082552	-1.285025	-2.114790	1
H	1.083903	1.287215	-2.113280	1
H	1.458573	1.586975	0.567630	1
H	-0.176587	2.047185	0.036980	1
Es	0.696339	0.975665	-0.591530	99
Es	1.174347	0.000272	-1.194888	99
Es	1.011104	-1.097587	-1.831924	99
Es	-2.654894	-0.000264	0.860208	99
Es	0.234352	-0.615004	0.498876	99
Es	0.860171	0.669102	-1.254803	99
Es	0.544675	0.000613	-1.354949	99
Es	1.012333	1.099173	-1.830966	99
Es	-3.351823	-0.000294	0.858059	99
Es	0.054022	-1.777795	0.058365	99
Es	0.537193	-1.219800	0.098802	99
Es	-0.770741	-0.000196	0.855580	99
Es	0.234434	0.614419	0.499939	99
Es	-1.464209	-0.000267	0.860215	99
Es	0.203662	-0.000747	1.560830	99
Es	-2.074205	-0.297105	0.662051	99
Es	-2.072412	-0.024195	1.216619	99
Es	0.537343	1.218991	0.101013	99
Es	0.859318	-0.668213	-1.254857	99
Es	1.165379	1.461388	0.417108	99
Es	1.164496	-1.462449	0.414801	99
Es	0.054698	1.777886	0.060767	99
Es	-0.020566	-0.000265	0.860172	99
Es	-2.074751	0.320474	0.703272	99
Es	0.695808	-0.975484	-0.592664	99
40
Properties=species:S:1:pos:R:3:Z:I:1 energy=-269.7394535694882 field_type=dipole dipole="0.000000 0.000000 0.000000" charge=0
C	-2.654627	-0.000265	0.860210	6
C	-1.464467	-0.000265	0.860210	6
C	-0.020468	-0.000265	0.860210	6
C	0.537193	-1.219855	0.098810	6
C	0.859323	-0.668085	-1.254880	6
C	0.860173	0.668975	-1.254830	6
C	0.537343	1.219045	0.101020	6
H	-3.720307	-0.000265	0.856070	1
H	0.338003	-0.000955	1.896310	1
H	-0.177697	-2.046415	0.034760	1
H	1.457093	-1.587995	0.565570	1
H	1.082552	-1.285025	-2.114790	1
H	1.083903	1.287215	-2.113280	1
H	1.458573	1.586975	0.567630	1
H	-0.176587	2.047185	0.036980	1
Es	-3.351781	-0.000208	0.858003	99
Es	0.544786	0.000620	-1.354867	99
Es	0.695836	-0.975586	-0.592608	99
Es	-1.464206	-0.000265	0.860213	99
Es	0.537344	1.218992	0.101012	99
Es	0.696379	0.975723	-0.591437	99
Es	0.537192	-1.219800	0.098802	99
Es	1.011123	-1.097528	-1.831969	99
Es	1.012354	1.099124	-1.831027	99
Es	-0.770662	-0.000418	0.855752	99
Es	0.203566	-0.000722	1.560847	99
Es	1.165375	1.461425	0.417104	99
Es	-2.072665	0.216190	0.575523	99
Es	0.860169	0.669105	-1.254805	99
Es	0.859320	-0.668213	-1.254856	99
Es	-2.072961	0.139330	1.190263	99
Es	0.234328	0.614508	0.499919	99
Es	0.054762	1.777858	0.060727	99
Es	-2.654890	-0.000265	0.860209	99
Es	-0.020566	-0.000266	0.860172	99
Es	0.054056	-1.777809	0.058352	99
Es	1.174160	0.000284	-1.194972	99
Es	-2.075693	-0.356211	0.816115	99
Es	1.164465	-1.462453	0.414760	99
Es	0.234285	-0.615099	0.498859	99
40
Properties=species:S:1:pos:R:3:Z:I:1 energy=-269.7394535694882 field_type=dipole dipole="0.000000 0.000000 0.000000" charge=0
C	-2.654627	-0.000265	0.860210	6
C	-1.464467	-0.000265	0.860210	6
C	-0.020468	-0.000265	0.860210	6
C	0.537193	-1.219855	0.098810	6
C	0.859323	-0.668085	-1.254880	6
C	0.860173	0.668975	-1.254830	6
C	0.537343	1.219045	0.101020	6
H	-3.720307	-0.000265	0.856070	1
H	0.338003	-0.000955	1.896310	1
H	-0.177697	-2.046415	0.034760	1
H	1.457093	-1.587995	0.565570	1
H	1.082552	-1.285025	-2.114790	1
H	1.083903	1.287215	-2.113280	1
H	1.458573	1.586975	0.567630	1
H	-0.176587	2.047185	0.036980	1
Es	-2.075831	-0.355715	0.919611	99
Es	-0.770599	-0.000435	0.855915	99
Es	1.011095	-1.097494	-1.831992	99
Es	0.537192	-1.219801	0.098803	99
Es	-1.464209	-0.000265	0.860213	99
Es	0.234257	-0.615149	0.498871	99
Es	-2.073869	0.228985	1.137855	99
Es	1.012304	1.099118	-1.831045	99
Es	-0.020566	-0.000265	0.860172	99
Es	0.537343	1.218992	0.101012	99
Es	0.054730	1.777950	0.060731	99
Es	-2.654891	-0.000265	0.860209	99
Es	0.054049	-1.777698	0.058314	99
Es	-3.351755	-0.000191	0.857988	99
Es	1.174181	0.000280	-1.194976	99
Es	0.203498	-0.000730	1.560889	99
Es	-2.071544	0.126038	0.524355	99
Es	0.695868	-0.975650	-0.592614	99
Es	0.544875	0.000629	-1.354835	99
Es	0.696337	0.975752	-0.591352	99
Es	1.164380	-1.462598	0.414753	99
Es	0.859320	-0.668213	-1.254856	99
Es	0.860178	0.669098	-1.254803	99
Es	0.234308	0.614591	0.499825	99
Es	1.165425	1.461353	0.417049	99
40
Properties=species:S:1:pos:R:3:Z:I:1 energy=-269.7394535694882 field_type=dipole dipole="0.000000 0.000000 0.000000" charge=0
C	-2.654627	-0.000265	0.860210	6
C	-1.464467	-0.000265	0.860210	6
C	-0.020468	-0.000265	0.860210	6
C	0.537193	-1.219855	0.098810	6
C	0.859323	-0.668085	-1.254880	6
C	0.860173	0.668975	-1.254830	6
C	0.537343	1.219045	0.101020	6
H	-3.720307	-0.000265	0.856070	1
H	0.338003	-0.000955	1.896310	1
H	-0.177697	-2.046415	0.034760	1
H	1.457093	-1.587995	0.565570	1
H	1.082552	-1.285025	-2.114790	1
H	1.083903	1.287215	-2.113280	1
H	1.458573	1.586975	0.567630	1
H	-0.176587	2.047185	0.036980	1
Es	0.859319	-0.668211	-1.254857	99
Es	1.012292	1.099045	-1.831101	99
Es	0.054126	-1.777782	0.058340	99
Es	0.203382	-0.000718	1.560845	99
Es	1.174000	0.000279	-1.195073	99
Es	0.234270	0.614633	0.499944	99
Es	-2.073177	0.162963	1.179670	99
Es	0.537343	1.218991	0.101012	99
Es	-3.351718	-0.000186	0.858047	99
Es	0.860170	0.669103	-1.254805	99
Es	-0.020566	-0.000265	0.860172	99
Es	-2.654892	-0.000265	0.860210	99
Es	1.165302	1.461424	0.417038	99
Es	0.537192	-1.219801	0.098803	99
Es	0.696363	0.975826	-0.591348	99
Es	0.054809	1.777891	0.060735	99
Es	0.545142	0.000624	-1.354785	99
Es	-2.072385	0.195252	0.560362	99
Es	0.695835	-0.975676	-0.592524	99
Es	1.011084	-1.097452	-1.832061	99
Es	-1.464209	-0.000265	0.860214	99
Es	-2.075813	-0.358948	0.841803	99
Es	1.164393	-1.462501	0.414720	99
Es	0.234214	-0.615245	0.498886	99
Es	-0.770404	-0.000397	0.855845	99
40
Properties=species:S:1:pos:R:3:Z:I:1 energy=-269.7394535694882 field_type=dipole dipole="0.000000 0.000000 0.000000" charge=0
C	-2.654627	-0.000265	0.860210	6
C	-1.464467	-0.000265	0.860210	6
C	-0.020468	-0.000265	0.860210	6
C	0.537193	-1.219855	0.098810	6
C	0.859323	-0.668085	-1.254880	6
C	0.860173	0.668975	-1.254830	6
C	0.537343	1.219045	0.101020	6
H	-3.720307	-0.000265	0.856070	1
H	0.338003	-0.000955	1.896310	1
H	-0.177697	-2.046415	0.034760	1
H	1.457093	-1.587995	0.565570	1
H	1.082552	-1.285025	-2.114790	1
H	1.083903	1.287215	-2.113280	1
H	1.458573	1.586975	0.567630	1
H	-0.176587	2.047185	0.036980	1
Es	-2.075441	-0.330747	1.005812	99
Es	1.164369	-1.462496	0.414678	99
Es	0.234141	-0.615342	0.498850	99
Es	0.537344	1.218991	0.101012	99
Es	1.012360	1.099000	-1.831126	99
Es	0.545195	0.000622	-1.354769	99
Es	-1.464210	-0.000261	0.860212	99
Es	0.695858	-0.975730	-0.592451	99
Es	0.054839	1.777886	0.060734	99
Es	0.054167	-1.777797	0.058343	99
Es	-0.020567	-0.000265	0.860171	99
Es	-3.351687	-0.000194	0.857986	99
Es	1.165275	1.461440	0.417009	99
Es	-2.074744	0.292149	1.072997	99
Es	0.696405	0.975862	-0.591278	99
Es	0.203301	-0.000736	1.560879	99
Es	0.860158	0.669102	-1.254810	99
Es	0.234209	0.614750	0.499916	99
Es	-2.071061	0.037726	0.502941	99
Es	1.011150	-1.097411	-1.832085	99
Es	1.173770	0.000295	-1.195171	99
Es	0.859320	-0.668213	-1.254856	99
Es	0.537196	-1.219804	0.098805	99
Es	-2.654891	-0.000266	0.860205	99
Es	-0.770379	-0.000245	0.856088	99
40
Properties=species:S:1:pos:R:3:Z:I:1 energy=-269.7394535694882 field_type=dipole dipole="0.000000 0.000000 0.000000" charge=0
C	-2.654627	-0.000265	0.860210	6
C	-1.464467	-0.000265	0.860210	6
C	-0.020468	-0.000265	0.860210	6
C	0.537193	-1.219855	0.098810	6
C	0.859323	-0.668085	-1.254880	6
C	0.860173	0.668975	-1.254830	6
C	0.537343	1.219045	0.101020	6
H	-3.720307	-0.000265	0.856070	1
H	0.338003	-0.000955	1.896310	1
H	-0.177697	-2.046415	0.034760	1
H	1.457093	-1.587995	0.565570	1
H	1.082552	-1.285025	-2.114790	1
H	1.083903	1.287215	-2.113280	1
H	1.458573	1.586975	0.567630	1
H	-0.176587	2.047185	0.036980	1
Es	-2.654887	-0.000285	0.860209	99
Es	0.203225	-0.000736	1.560881	99
Es	0.234157	0.614803	0.499929	99
Es	1.165264	1.461446	0.416971	99
Es	-0.770257	-0.000280	0.856084	99
Es	0.054184	-1.777792	0.058315	99
Es	-2.075400	-0.329509	1.009054	99
Es	1.173660	0.000274	-1.195198	99
Es	0.054882	1.777886	0.060745	99
Es	1.011124	-1.097358	-1.832128	99
Es	1.164381	-1.462527	0.414640	99
Es	1.012337	1.098967	-1.831173	99
Es	-2.074831	0.293540	1.070425	99
Es	0.537197	-1.219796	0.098786	99
Es	-2.071037	0.035205	0.502349	99
Es	0.234097	-0.615376	0.498852	99
Es	0.859320	-0.668212	-1.254856	99
Es	0.696349	0.975935	-0.591248	99
Es	-1.464210	-0.000265	0.860213	99
Es	-0.020565	-0.000265	0.860172	99
Es	-3.351659	-0.000244	0.857942	99
Es	0.537343	1.218992	0.101012	99
Es	0.545430	0.000616	-1.354756	99
Es	0.695803	-0.975801	-0.592323	99
Es	0.860169	0.669102	-1.254805	99
40
Properties=species:S:1:pos:R:3:Z:I:1 energy=-269.7394535694882 field_type=dipole dipole="0.000000 0.000000 0.000000" charge=0
C	-2.654627	-0.000265	0.860210	6
C	-1.464467	-0.000265	0.860210	6
C	-0.020468	-0.000265	0.860210	6
C	0.537193	-1.219855	0.098810	6
C	0.859323	-0.668085	-1.254880	6
C	0.860173	0.668975	-1.254830	6
C	0.537343	1.219045	0.101020	6
H	-3.720307	-0.000265	0.856070	1
H	0.338003	-0.000955	1.896310	1
H	-0.177697	-2.046415	0.034760	1
H	1.457093	-1.587995	0.565570	1
H	1.082552	-1.285025	-2.114790	1
H	1.083903	1.287215	-2.113280	1
H	1.458573	1.586975	0.567630	1
H	-0.176587	2.047185	0.036980	1
Es	0.537343	1.218990	0.101013	99
Es	-3.351639	-0.000297	0.857978	99
Es	-2.071074	-0.039794	0.502869	99
Es	0.203167	-0.000717	1.560859	99
Es	0.537192	-1.219801	0.098803	99
Es	1.012314	1.098943	-1.831194	99
Es	1.164347	-1.462561	0.414611	99
Es	1.011124	-1.097377	-1.832105	99
Es	0.859320	-0.668211	-1.254856	99
Es	-2.074766	-0.291756	1.073727	99
Es	0.054922	1.777877	0.060748	99
Es	0.234052	-0.615457	0.498902	99
Es	1.165230	1.461458	0.416961	99
Es	-0.020561	-0.000264	0.860168	99
Es	-1.464208	-0.000265	0.860213	99
Es	0.234086	0.614867	0.499918	99
Es	0.054216	-1.777770	0.058309	99
Es	0.860169	0.669105	-1.254805	99
Es	0.695836	-0.975793	-0.592402	99
Es	-2.654889	-0.000264	0.860209	99
Es	0.696317	0.975968	-0.591247	99
Es	-0.770122	-0.000178	0.856141	99
Es	1.173674	0.000280	-1.195153	99
Es	-2.075447	0.330714	1.005209	99
Es	0.545471	0.000622	-1.354783	99
40
Properties=species:S:1:pos:R:3:Z:I:1 energy=-269.7394535694882 field_type=dipole dipole="0.000000 0.000000 0.000000" charge=0
C	-2.654627	-0.000265	0.860210	6
C	-1.464467	-0.000265	0.860210	6
C	-0.020468	-0.000265	0.860210	6
C	0.537193	-1.219855	0.098810	6
C	0.859323	-0.668085	-1.254880	6
C	0.860173	0.668975	-1.254830	6
C	0.537343	1.219045	0.101020	6
H	-3.720307	-0.000265	0.856070	1
H	0.338003	-0.000955	1.896310	1
H	-0.177697	-2.046415	0.034760	1
H	1.457093	-1.587995	0.565570	1
H	1.082552	-1.285025	-2.114790	1
H	1.083903	1.287215	-2.113280	1
H	1.458573	1.586975	0.567630	1
H	-0.176587	2.047185	0.036980	1
Es	0.860168	0.669102	-1.254803	99
Es	0.203109	-0.000742	1.560912	99
Es	-0.769951	-0.000194	0.856181	99
Es	1.164308	-1.462577	0.414601	99
Es	0.233991	-0.615451	0.498837	99
Es	0.696412	0.975999	-0.591142	99
Es	0.859316	-0.668211	-1.254856	99
Es	1.011117	-1.097298	-1.832198	99
Es	0.545731	0.000613	-1.354672	99
Es	0.537343	1.218995	0.101010	99
Es	-2.654894	-0.000266	0.860208	99
Es	0.695802	-0.975912	-0.592304	99
Es	1.165164	1.461525	0.416930	99
Es	-1.464207	-0.000265	0.860214	99
Es	0.234017	0.614910	0.499951	99
Es	0.537192	-1.219801	0.098803	99
Es	0.054255	-1.777755	0.058324	99
Es	-2.075446	0.330820	1.005078	99
Es	1.012299	1.098918	-1.831268	99
Es	1.173462	0.000275	-1.195271	99
Es	-3.351613	-0.000266	0.858005	99
Es	-0.020565	-0.000264	0.860173	99
Es	0.054930	1.777843	0.060701	99
Es	-2.071088	-0.039981	0.502891	99
Es	-2.074779	-0.291701	1.073791	99
40
Properties=species:S:1:pos:R:3:Z:I:1 energy=-269.7394535694882 field_type=dipole dipole="0.000000 0.000000 0.000000" charge=0
C	-2.654627	-0.000265	0.860210	6
C	-1.464467	-0.000265	0.860210	6
C	-0.020468	-0.000265	0.860210	6
C	0.537193	-1.219855	0.098810	6
C	0.859323	-0.668085	-1.254880	6
C	0.860173	0.668975	-1.254830	6
C	0.537343	1.219045	0.101020	6
H	-3.720307	-0.000265	0.856070	1
H	0.338003	-0.000955	1.896310	1
H	-0.177697	-2.046415	0.034760	1
H	1.457093	-1.587995	0.565570	1
H	1.082552	-1.285025	-2.114790	1
H	1.083903	1.287215	-2.113280	1
H	1.458573	1.586975	0.567630	1
H	-0.176587	2.047185	0.036980	1
Es	-2.074664	0.285167	1.081386	99
Es	0.545914	0.000622	-1.354611	99
Es	0.233954	-0.615553	0.498859	99
Es	-3.351711	-0.000299	0.857955	99
Es	0.696350	0.976088	-0.591110	99
Es	-2.071070	0.049050	0.504177	99
Es	0.860170	0.669100	-1.254805	99
Es	0.537192	-1.219801	0.098802	99
Es	0.695739	-0.975838	-0.592310	99
Es	-0.769884	-0.000288	0.856113	99
Es	-2.654897	-0.000264	0.860213	99
Es	0.202989	-0.000716	1.560872	99
Es	0.055017	1.777857	0.060667	99
Es	1.173365	0.000292	-1.195264	99
Es	0.233942	0.615006	0.499899	99
Es	0.054287	-1.777785	0.058382	99
Es	1.011016	-1.097396	-1.832237	99
Es	0.537340	1.218997	0.101012	99
Es	-0.020563	-0.000266	0.860171	99
Es	0.859319	-0.668216	-1.254855	99
Es	-2.075441	-0.334935	0.996333	99
Es	1.012382	1.098812	-1.831336	99
Es	1.165225	1.461476	0.416987	99
Es	-1.464216	-0.000264	0.860210	99
Es	1.164319	-1.462531	0.414584	99
