50
Properties=species:S:1:pos:R:3:Z:I:1 energy=-306.48120473185986 field_type=dipole dipole="0.000000 0.000000 0.000000" charge=0
C	-2.900314	-0.015498	0.970422	6
N	-1.448214	0.099252	1.021912	7
C	-0.833004	-0.478668	-0.176188	6
C	0.705826	-0.364128	-0.140008	6
C	1.290086	-1.105078	-1.350528	6
C	1.155466	1.109652	-0.111228	6
N	2.612016	1.239402	-0.036228	7
H	-3.333394	0.443332	1.864472	1
H	-3.218884	-1.062438	0.940472	1
H	-3.308994	0.508902	0.100702	1
H	-1.104014	-0.390208	1.848232	1
H	-1.213014	0.029752	-1.071258	1
H	-1.112524	-1.537108	-0.252578	1
H	1.071626	-0.864988	0.767092	1
H	0.981766	-0.633088	-2.289658	1
H	0.950516	-2.146318	-1.368478	1
H	2.384096	-1.121138	-1.320848	1
H	0.724566	1.625062	0.753782	1
H	0.802326	1.628442	-1.009568	1
H	2.942866	0.806722	0.824542	1
H	2.851196	2.228142	0.034942	1
Es	0.854624	1.459839	0.482869	99
Es	0.956193	-0.706318	0.491746	99
Es	-0.833030	-0.478605	-0.176068	99
Es	0.912452	1.461922	-0.732786	99
Es	-2.082219	0.019291	0.993731	99
Es	-1.096095	-0.126737	-0.788542	99
Es	-1.194429	-0.175584	0.507621	99
Es	-1.360446	0.439553	1.045957	99
Es	-3.123030	-0.742443	0.944584	99
Es	2.027381	-1.118889	-1.328756	99
Es	1.072731	-0.778752	-1.989387	99
Es	-3.174141	0.338309	0.371464	99
Es	-1.025482	-1.216966	-0.233127	99
Es	2.795920	0.986518	0.499339	99
Es	1.050403	-1.817290	-1.358732	99
Es	2.778991	1.094124	-0.315230	99
Es	0.999027	-0.732949	-0.750496	99
Es	0.705808	-0.364122	-0.140037	99
Es	2.741578	1.841077	0.024399	99
Es	1.983617	1.188167	-0.051458	99
Es	1.155621	1.109621	-0.111232	99
Es	-1.448378	0.098608	1.021891	99
Es	-1.248436	-0.222860	1.514372	99
Es	1.290058	-1.105070	-1.350507	99
Es	-3.197399	0.293461	1.583881	99
Es	-2.900189	-0.015489	0.970428	99
Es	0.933021	0.371115	-0.127413	99
Es	-0.066293	-0.414877	-0.152622	99
Es	2.611759	1.239637	-0.035772	99
50
Properties=species:S:1:pos:R:3:Z:I:1 energy=-306.48120473185986 field_type=dipole dipole="0.000000 0.000000 0.000000" charge=0
C	-2.900314	-0.015498	0.970422	6
N	-1.448214	0.099252	1.021912	7
C	-0.833004	-0.478668	-0.176188	6
C	0.705826	-0.364128	-0.140008	6
C	1.290086	-1.105078	-1.350528	6
C	1.155466	1.109652	-0.111228	6
N	2.612016	1.239402	-0.036228	7
H	-3.333394	0.443332	1.864472	1
H	-3.218884	-1.062438	0.940472	1
H	-3.308994	0.508902	0.100702	1
H	-1.104014	-0.390208	1.848232	1
H	-1.213014	0.029752	-1.071258	1
H	-1.112524	-1.537108	-0.252578	1
H	1.071626	-0.864988	0.767092	1
H	0.981766	-0.633088	-2.289658	1
H	0.950516	-2.146318	-1.368478	1
H	2.384096	-1.121138	-1.320848	1
H	0.724566	1.625062	0.753782	1
H	0.802326	1.628442	-1.009568	1
H	2.942866	0.806722	0.824542	1
H	2.851196	2.228142	0.034942	1
Es	-1.194239	-0.175337	0.507207	99
Es	1.290057	-1.105071	-1.350507	99
Es	2.795534	0.987206	0.499609	99
Es	1.050483	-1.817342	-1.358722	99
Es	-1.096098	-0.126786	-0.788534	99
Es	-2.900190	-0.015489	0.970428	99
Es	-1.360452	0.438796	1.046333	99
Es	-1.248305	-0.222704	1.514144	99
Es	1.072732	-0.778832	-1.989382	99
Es	-3.197345	0.293429	1.583805	99
Es	2.779340	1.093598	-0.314635	99
Es	1.155621	1.109621	-0.111237	99
Es	0.705809	-0.364123	-0.140036	99
Es	0.912473	1.461955	-0.732710	99
Es	0.933005	0.371177	-0.127585	99
Es	-3.123004	-0.742448	0.944710	99
Es	-0.066255	-0.414951	-0.152573	99
Es	-2.082548	0.019658	0.994072	99
Es	2.741797	1.841086	0.023857	99
Es	-0.833030	-0.478606	-0.176071	99
Es	-1.025484	-1.216901	-0.233141	99
Es	-1.448385	0.098644	1.021873	99
Es	0.956177	-0.706195	0.491701	99
Es	-3.174232	0.338308	0.371394	99
Es	2.027323	-1.118825	-1.328822	99
Es	0.999016	-0.732995	-0.750435	99
Es	0.854558	1.459770	0.482878	99
Es	1.983496	1.188003	-0.051755	99
Es	2.611762	1.239641	-0.035754	99
50
Properties=species:S:1:pos:R:3:Z:I:1 energy=-306.48120473185986 field_type=dipole dipole="0.000000 0.000000 0.000000" charge=0
C	-2.900314	-0.015498	0.970422	6
N	-1.448214	0.099252	1.021912	7
C	-0.833004	-0.478668	-0.176188	6
C	0.705826	-0.364128	-0.140008	6
C	1.290086	-1.105078	-1.350528	6
C	1.155466	1.109652	-0.111228	6
N	2.612016	1.239402	-0.036228	7
H	-3.333394	0.443332	1.864472	1
H	-3.218884	-1.062438	0.940472	1
H	-3.308994	0.508902	0.100702	1
H	-1.104014	-0.390208	1.848232	1
H	-1.213014	0.029752	-1.071258	1
H	-1.112524	-1.537108	-0.252578	1
H	1.071626	-0.864988	0.767092	1
H	0.981766	-0.633088	-2.289658	1
H	0.950516	-2.146318	-1.368478	1
H	2.384096	-1.121138	-1.320848	1
H	0.724566	1.625062	0.753782	1
H	0.802326	1.628442	-1.009568	1
H	2.942866	0.806722	0.824542	1
H	2.851196	2.228142	0.034942	1
Es	-1.025484	-1.216882	-0.233173	99
Es	-0.066299	-0.414888	-0.152663	99
Es	0.999107	-0.732961	-0.750364	99
Es	0.956070	-0.706255	0.491705	99
Es	1.155620	1.109622	-0.111235	99
Es	-1.096069	-0.126769	-0.788530	99
Es	0.854613	1.459766	0.482775	99
Es	2.027219	-1.118929	-1.328788	99
Es	-3.174253	0.338407	0.371531	99
Es	1.072829	-0.778764	-1.989444	99
Es	-1.448385	0.098652	1.021859	99
Es	-0.833031	-0.478602	-0.176065	99
Es	2.779039	1.094100	-0.314216	99
Es	-1.193993	-0.175079	0.507133	99
Es	-1.248427	-0.222837	1.513855	99
Es	-1.360701	0.439178	1.046785	99
Es	2.741917	1.841137	0.023811	99
Es	-2.900190	-0.015490	0.970429	99
Es	-3.197323	0.293341	1.583790	99
Es	1.290057	-1.105071	-1.350507	99
Es	0.912443	1.461973	-0.732660	99
Es	2.611743	1.239648	-0.035748	99
Es	1.983439	1.187919	-0.052051	99
Es	-2.082352	0.019130	0.994013	99
Es	2.795828	0.986767	0.499524	99
Es	0.705808	-0.364123	-0.140035	99
Es	1.050478	-1.817317	-1.358784	99
Es	0.932996	0.371070	-0.127427	99
Es	-3.123085	-0.742457	0.944597	99
50
Properties=species:S:1:pos:R:3:Z:I:1 energy=-306.48120473185986 field_type=dipole dipole="0.000000 0.000000 0.000000" charge=0
C	-2.900314	-0.015498	0.970422	6
N	-1.448214	0.099252	1.021912	7
C	-0.833004	-0.478668	-0.176188	6
C	0.705826	-0.364128	-0.140008	6
C	1.290086	-1.105078	-1.350528	6
C	1.155466	1.109652	-0.111228	6
N	2.612016	1.239402	-0.036228	7
H	-3.333394	0.443332	1.864472	1
H	-3.218884	-1.062438	0.940472	1
H	-3.308994	0.508902	0.100702	1
H	-1.104014	-0.390208	1.848232	1
H	-1.213014	0.029752	-1.071258	1
H	-1.112524	-1.537108	-0.252578	1
H	1.071626	-0.864988	0.767092	1
H	0.981766	-0.633088	-2.289658	1
H	0.950516	-2.146318	-1.368478	1
H	2.384096	-1.121138	-1.320848	1
H	0.724566	1.625062	0.753782	1
H	0.802326	1.628442	-1.009568	1
H	2.942866	0.806722	0.824542	1
H	2.851196	2.228142	0.034942	1
Es	-2.900190	-0.015489	0.970428	99
Es	0.932909	0.371130	-0.127208	99
Es	2.027259	-1.118844	-1.328863	99
Es	2.779101	1.093315	-0.314144	99
Es	-0.066152	-0.414868	-0.152639	99
Es	1.155620	1.109620	-0.111236	99
Es	-3.123078	-0.742377	0.944520	99
Es	1.072805	-0.778936	-1.989395	99
Es	-0.833030	-0.478606	-0.176073	99
Es	0.998990	-0.732837	-0.750438	99
Es	-2.082451	0.019465	0.994048	99
Es	-1.025493	-1.216810	-0.233188	99
Es	0.956078	-0.706304	0.491637	99
Es	2.795474	0.987326	0.499543	99
Es	-1.248362	-0.222674	1.514010	99
Es	2.611762	1.239632	-0.035783	99
Es	0.705807	-0.364121	-0.140038	99
Es	-3.174218	0.338349	0.371557	99
Es	-1.360673	0.438669	1.046688	99
Es	2.742219	1.841247	0.023450	99
Es	1.050548	-1.817323	-1.358751	99
Es	0.854556	1.460021	0.482688	99
Es	0.912513	1.461731	-0.732668	99
Es	-1.448388	0.098636	1.021859	99
Es	1.983482	1.188010	-0.051788	99
Es	-1.096087	-0.126899	-0.788476	99
Es	1.290057	-1.105071	-1.350508	99
Es	-3.197411	0.293350	1.583848	99
Es	-1.194031	-0.175051	0.507033	99
50
Properties=species:S:1:pos:R:3:Z:I:1 energy=-306.48120473185986 field_type=dipole dipole="0.000000 0.000000 0.000000" charge=0
C	-2.900314	-0.015498	0.970422	6
N	-1.448214	0.099252	1.021912	7
C	-0.833004	-0.478668	-0.176188	6
C	0.705826	-0.364128	-0.140008	6
C	1.290086	-1.105078	-1.350528	6
C	1.155466	1.109652	-0.111228	6
N	2.612016	1.239402	-0.036228	7
H	-3.333394	0.443332	1.864472	1
H	-3.218884	-1.062438	0.940472	1
H	-3.308994	0.508902	0.100702	1
H	-1.104014	-0.390208	1.848232	1
H	-1.213014	0.029752	-1.071258	1
H	-1.112524	-1.537108	-0.252578	1
H	1.071626	-0.864988	0.767092	1
H	0.981766	-0.633088	-2.289658	1
H	0.950516	-2.146318	-1.368478	1
H	2.384096	-1.121138	-1.320848	1
H	0.724566	1.625062	0.753782	1
H	0.802326	1.628442	-1.009568	1
H	2.942866	0.806722	0.824542	1
H	2.851196	2.228142	0.034942	1
Es	2.778946	1.094241	-0.313887	99
Es	0.932855	0.371069	-0.127443	99
Es	-0.066096	-0.414907	-0.152616	99
Es	1.983343	1.187769	-0.052048	99
Es	2.796061	0.986820	0.499437	99
Es	-1.025503	-1.216740	-0.233274	99
Es	-0.833031	-0.478606	-0.176072	99
Es	2.027230	-1.118854	-1.328958	99
Es	-1.360729	0.438744	1.046642	99
Es	2.741954	1.841144	0.023645	99
Es	1.155622	1.109621	-0.111235	99
Es	-3.197411	0.293358	1.583768	99
Es	0.999048	-0.732877	-0.750413	99
Es	-1.194023	-0.175194	0.507115	99
Es	0.912464	1.462000	-0.732529	99
Es	-3.123111	-0.742399	0.944553	99
Es	1.050554	-1.817332	-1.358742	99
Es	2.611766	1.239634	-0.035794	99
Es	-1.096138	-0.126870	-0.788410	99
Es	1.290058	-1.105072	-1.350508	99
Es	-3.174216	0.338346	0.371564	99
Es	0.705809	-0.364123	-0.140035	99
Es	0.854592	1.459744	0.482670	99
Es	-2.900191	-0.015489	0.970428	99
Es	-1.248302	-0.222560	1.513986	99
Es	-2.082408	0.019349	0.994162	99
Es	1.072782	-0.778968	-1.989364	99
Es	0.956084	-0.706202	0.491614	99
Es	-1.448391	0.098639	1.021858	99
50
Properties=species:S:1:pos:R:3:Z:I:1 energy=-306.48120473185986 field_type=dipole dipole="0.000000 0.000000 0.000000" charge=0
C	-2.900314	-0.015498	0.970422	6
N	-1.448214	0.099252	1.021912	7
C	-0.833004	-0.478668	-0.176188	6
C	0.705826	-0.364128	-0.140008	6
C	1.290086	-1.105078	-1.350528	6
C	1.155466	1.109652	-0.111228	6
N	2.612016	1.239402	-0.036228	7
H	-3.333394	0.443332	1.864472	1
H	-3.218884	-1.062438	0.940472	1
H	-3.308994	0.508902	0.100702	1
H	-1.104014	-0.390208	1.848232	1
H	-1.213014	0.029752	-1.071258	1
H	-1.112524	-1.537108	-0.252578	1
H	1.071626	-0.864988	0.767092	1
H	0.981766	-0.633088	-2.289658	1
H	0.950516	-2.146318	-1.368478	1
H	2.384096	-1.121138	-1.320848	1
H	0.724566	1.625062	0.753782	1
H	0.802326	1.628442	-1.009568	1
H	2.942866	0.806722	0.824542	1
H	2.851196	2.228142	0.034942	1
Es	-1.360664	0.438577	1.046689	99
Es	1.072831	-0.778949	-1.989404	99
Es	1.155618	1.109622	-0.111236	99
Es	2.796378	0.986271	0.499157	99
Es	-0.066140	-0.414980	-0.152639	99
Es	-2.900190	-0.015489	0.970428	99
Es	2.611761	1.239634	-0.035772	99
Es	0.999069	-0.732937	-0.750237	99
Es	-1.448381	0.098661	1.021866	99
Es	2.741685	1.840969	0.024320	99
Es	-0.833030	-0.478606	-0.176071	99
Es	1.050582	-1.817265	-1.358810	99
Es	2.778886	1.094839	-0.314509	99
Es	-3.174232	0.338260	0.371518	99
Es	1.290058	-1.105072	-1.350507	99
Es	-3.123058	-0.742318	0.944564	99
Es	2.027196	-1.118925	-1.328933	99
Es	0.932905	0.371052	-0.127491	99
Es	0.912427	1.462034	-0.732559	99
Es	-1.193958	-0.175175	0.507108	99
Es	0.705807	-0.364122	-0.140036	99
Es	1.983323	1.187901	-0.051864	99
Es	-1.096114	-0.126829	-0.788455	99
Es	-1.025520	-1.216707	-0.233273	99
Es	0.956044	-0.706131	0.491660	99
Es	-3.197487	0.293361	1.583800	99
Es	-1.248375	-0.222604	1.513996	99
Es	-2.082439	0.019508	0.994103	99
Es	0.854634	1.459709	0.482703	99
50
Properties=species:S:1:pos:R:3:Z:I:1 energy=-306.48120473185986 field_type=dipole dipole="0.000000 0.000000 0.000000" charge=0
C	-2.900314	-0.015498	0.970422	6
N	-1.448214	0.099252	1.021912	7
C	-0.833004	-0.478668	-0.176188	6
C	0.705826	-0.364128	-0.140008	6
C	1.290086	-1.105078	-1.350528	6
C	1.155466	1.109652	-0.111228	6
N	2.612016	1.239402	-0.036228	7
H	-3.333394	0.443332	1.864472	1
H	-3.218884	-1.062438	0.940472	1
H	-3.308994	0.508902	0.100702	1
H	-1.104014	-0.390208	1.848232	1
H	-1.213014	0.029752	-1.071258	1
H	-1.112524	-1.537108	-0.252578	1
H	1.071626	-0.864988	0.767092	1
H	0.981766	-0.633088	-2.289658	1
H	0.950516	-2.146318	-1.368478	1
H	2.384096	-1.121138	-1.320848	1
H	0.724566	1.625062	0.753782	1
H	0.802326	1.628442	-1.009568	1
H	2.942866	0.806722	0.824542	1
H	2.851196	2.228142	0.034942	1
Es	1.050567	-1.817270	-1.358864	99
Es	2.795903	0.986902	0.499423	99
Es	0.956067	-0.706177	0.491560	99
Es	-1.194035	-0.175271	0.507074	99
Es	-1.096133	-0.126953	-0.788427	99
Es	-1.448390	0.098635	1.021855	99
Es	0.854645	1.459689	0.482630	99
Es	-0.833031	-0.478608	-0.176074	99
Es	0.705808	-0.364123	-0.140036	99
Es	0.999022	-0.732874	-0.750275	99
Es	1.983227	1.187957	-0.052085	99
Es	1.155613	1.109624	-0.111238	99
Es	1.290057	-1.105071	-1.350507	99
Es	-2.900193	-0.015490	0.970428	99
Es	-3.174265	0.338150	0.371464	99
Es	-1.360635	0.438408	1.046561	99
Es	-1.025512	-1.216665	-0.233252	99
Es	-3.197556	0.293375	1.583820	99
Es	-0.066106	-0.414896	-0.152591	99
Es	0.932919	0.370966	-0.127398	99
Es	2.742109	1.841032	0.023685	99
Es	0.912428	1.462056	-0.732501	99
Es	-3.123008	-0.742210	0.944610	99
Es	2.611758	1.239640	-0.035769	99
Es	2.779070	1.094126	-0.313900	99
Es	2.027184	-1.118944	-1.328976	99
Es	-2.082484	0.019586	0.994228	99
Es	1.072866	-0.778959	-1.989354	99
Es	-1.248281	-0.222350	1.514022	99
50
Properties=species:S:1:pos:R:3:Z:I:1 energy=-306.48120473185986 field_type=dipole dipole="0.000000 0.000000 0.000000" charge=0
C	-2.900314	-0.015498	0.970422	6
N	-1.448214	0.099252	1.021912	7
C	-0.833004	-0.478668	-0.176188	6
C	0.705826	-0.364128	-0.140008	6
C	1.290086	-1.105078	-1.350528	6
C	1.155466	1.109652	-0.111228	6
N	2.612016	1.239402	-0.036228	7
H	-3.333394	0.443332	1.864472	1
H	-3.218884	-1.062438	0.940472	1
H	-3.308994	0.508902	0.100702	1
H	-1.104014	-0.390208	1.848232	1
H	-1.213014	0.029752	-1.071258	1
H	-1.112524	-1.537108	-0.252578	1
H	1.071626	-0.864988	0.767092	1
H	0.981766	-0.633088	-2.289658	1
H	0.950516	-2.146318	-1.368478	1
H	2.384096	-1.121138	-1.320848	1
H	0.724566	1.625062	0.753782	1
H	0.802326	1.628442	-1.009568	1
H	2.942866	0.806722	0.824542	1
H	2.851196	2.228142	0.034942	1
Es	-2.082458	0.019362	0.994155	99
Es	-3.197571	0.293495	1.583795	99
Es	-1.360938	0.438191	1.046523	99
Es	-1.025416	-1.216680	-0.233200	99
Es	1.050668	-1.817299	-1.358851	99
Es	2.611764	1.239640	-0.035777	99
Es	2.027073	-1.118917	-1.328962	99
Es	1.290058	-1.105072	-1.350508	99
Es	-2.900191	-0.015489	0.970429	99
Es	-1.248130	-0.222222	1.514172	99
Es	0.999052	-0.732855	-0.750217	99
Es	2.742171	1.841076	0.023627	99
Es	-1.448392	0.098642	1.021861	99
Es	0.912465	1.461995	-0.732478	99
Es	0.705808	-0.364123	-0.140036	99
Es	-0.833029	-0.478606	-0.176072	99
Es	0.956038	-0.706117	0.491505	99
Es	-3.174193	0.338082	0.371473	99
Es	-1.096183	-0.126994	-0.788471	99
Es	0.854565	1.459716	0.482544	99
Es	2.778995	1.094225	-0.313697	99
Es	-0.066147	-0.414912	-0.152594	99
Es	-3.123097	-0.742182	0.944640	99
Es	1.072911	-0.779001	-1.989434	99
Es	1.983204	1.187906	-0.052093	99
Es	0.932868	0.371008	-0.127371	99
Es	1.155619	1.109620	-0.111236	99
Es	2.795990	0.986852	0.499360	99
Es	-1.193885	-0.175053	0.507027	99
50
Properties=species:S:1:pos:R:3:Z:I:1 energy=-306.48120473185986 field_type=dipole dipole="0.000000 0.000000 0.000000" charge=0
C	-2.900314	-0.015498	0.970422	6
N	-1.448214	0.099252	1.021912	7
C	-0.833004	-0.478668	-0.176188	6
C	0.705826	-0.364128	-0.140008	6
C	1.290086	-1.105078	-1.350528	6
C	1.155466	1.109652	-0.111228	6
N	2.612016	1.239402	-0.036228	7
H	-3.333394	0.443332	1.864472	1
H	-3.218884	-1.062438	0.940472	1
H	-3.308994	0.508902	0.100702	1
H	-1.104014	-0.390208	1.848232	1
H	-1.213014	0.029752	-1.071258	1
H	-1.112524	-1.537108	-0.252578	1
H	1.071626	-0.864988	0.767092	1
H	0.981766	-0.633088	-2.289658	1
H	0.950516	-2.146318	-1.368478	1
H	2.384096	-1.121138	-1.320848	1
H	0.724566	1.625062	0.753782	1
H	0.802326	1.628442	-1.009568	1
H	2.942866	0.806722	0.824542	1
H	2.851196	2.228142	0.034942	1
Es	0.705809	-0.364123	-0.140035	99
Es	2.795885	0.987036	0.499429	99
Es	-1.096116	-0.127033	-0.788400	99
Es	2.611772	1.239643	-0.035760	99
Es	1.290058	-1.105071	-1.350508	99
Es	0.956037	-0.706069	0.491371	99
Es	1.050611	-1.817253	-1.358897	99
Es	-3.174221	0.338195	0.371576	99
Es	0.854672	1.459758	0.482497	99
Es	1.155617	1.109621	-0.111236	99
Es	1.983127	1.188162	-0.052022	99
Es	1.072892	-0.779015	-1.989344	99
Es	0.999057	-0.732908	-0.750343	99
Es	-3.123146	-0.742234	0.944568	99
Es	2.778628	1.093748	-0.313354	99
Es	-1.193802	-0.174838	0.506887	99
Es	2.742744	1.841085	0.023046	99
Es	-0.833031	-0.478607	-0.176073	99
Es	2.027139	-1.118963	-1.329041	99
Es	-3.197556	0.293383	1.583708	99
Es	0.912433	1.462017	-0.732399	99
Es	-1.025547	-1.216588	-0.233269	99
Es	-1.361181	0.438298	1.046718	99
Es	-1.248102	-0.222225	1.514051	99
Es	0.932794	0.370907	-0.127216	99
Es	-2.082318	0.019106	0.994275	99
Es	-0.066063	-0.414930	-0.152413	99
Es	-1.448386	0.098675	1.021868	99
Es	-2.900192	-0.015489	0.970428	99
50
Properties=species:S:1:pos:R:3:Z:I:1 energy=-306.48120473185986 field_type=dipole dipole="0.000000 0.000000 0.000000" charge=0
C	-2.900314	-0.015498	0.970422	6
N	-1.448214	0.099252	1.021912	7
C	-0.833004	-0.478668	-0.176188	6
C	0.705826	-0.364128	-0.140008	6
C	1.290086	-1.105078	-1.350528	6
C	1.155466	1.109652	-0.111228	6
N	2.612016	1.239402	-0.036228	7
H	-3.333394	0.443332	1.864472	1
H	-3.218884	-1.062438	0.940472	1
H	-3.308994	0.508902	0.100702	1
H	-1.104014	-0.390208	1.848232	1
H	-1.213014	0.029752	-1.071258	1
H	-1.112524	-1.537108	-0.252578	1
H	1.071626	-0.864988	0.767092	1
H	0.981766	-0.633088	-2.289658	1
H	0.950516	-2.146318	-1.368478	1
H	2.384096	-1.121138	-1.320848	1
H	0.724566	1.625062	0.753782	1
H	0.802326	1.628442	-1.009568	1
H	2.942866	0.806722	0.824542	1
H	2.851196	2.228142	0.034942	1
Es	2.611803	1.239631	-0.035809	99
Es	-3.197564	0.293391	1.583706	99
Es	0.999055	-0.732916	-0.750172	99
Es	2.027074	-1.118933	-1.329049	99
Es	-2.082349	0.019321	0.994271	99
Es	2.742039	1.840942	0.023780	99
Es	1.050700	-1.817264	-1.358867	99
Es	1.290056	-1.105069	-1.350506	99
Es	0.912442	1.461958	-0.732361	99
Es	1.072873	-0.779038	-1.989402	99
Es	-2.900194	-0.015489	0.970428	99
Es	-3.123141	-0.742192	0.944601	99
Es	-1.448377	0.098668	1.021869	99
Es	-1.025546	-1.216586	-0.233309	99
Es	-1.194086	-0.175343	0.507148	99
Es	-3.174254	0.338149	0.371566	99
Es	-1.096122	-0.127069	-0.788337	99
Es	-0.833030	-0.478606	-0.176071	99
Es	-1.360720	0.438543	1.046505	99
Es	0.932847	0.370932	-0.127353	99
Es	0.956029	-0.706061	0.491445	99
Es	0.705809	-0.364124	-0.140036	99
Es	-1.248267	-0.222193	1.513976	99
Es	2.795963	0.986937	0.499353	99
Es	0.854614	1.459772	0.482507	99
Es	2.779220	1.094404	-0.313600	99
Es	1.155616	1.109621	-0.111235	99
Es	1.983131	1.187834	-0.052402	99
Es	-0.066007	-0.414933	-0.152532	99
