44
Properties=species:S:1:pos:R:3:Z:I:1 energy=-304.09299596080314 field_type=dipole dipole="0.000000 0.000000 0.000000" charge=0
C	-1.808396	-1.183349	0.812855	6
N	-0.422536	-0.813809	0.572655	7
C	-0.163006	0.223141	-0.161865	6
C	-1.259786	1.072111	-0.784375	6
N	1.124694	0.667021	-0.460105	7
C	2.167284	-0.359289	-0.622425	6
C	2.147034	0.511421	0.587185	6
H	-1.830666	-2.093709	1.420475	1
H	-2.338006	-1.405279	-0.118655	1
H	-2.340956	-0.408209	1.372295	1
H	-1.847316	0.465091	-1.479255	1
H	-0.831286	1.912301	-1.338825	1
H	-1.911276	1.472171	-0.003065	1
H	2.859644	-0.129859	-1.418915	1
H	1.832294	-1.384199	-0.541045	1
H	1.797124	0.103971	1.525675	1
H	2.825154	1.350481	0.637395	1
Es	2.349845	-0.025076	0.058491	99
Es	-2.169463	-0.645297	1.186193	99
Es	-0.152878	-1.020050	0.724452	99
Es	-1.039524	-0.945398	0.656076	99
Es	-0.422901	-0.813468	0.572413	99
Es	0.577357	0.439948	-0.305203	99
Es	1.149931	0.960158	-0.671198	99
Es	-1.827315	-1.804345	1.227556	99
Es	-2.167688	-1.324074	0.171497	99
Es	-0.162902	0.223223	-0.161924	99
Es	-1.650745	0.653525	-1.242214	99
Es	-1.694487	1.329319	-0.252410	99
Es	2.167132	-0.359078	-0.622349	99
Es	2.640577	-0.207317	-1.162303	99
Es	1.457622	0.678102	0.066704	99
Es	-0.331611	-0.555750	0.033459	99
Es	2.610673	1.079058	0.624762	99
Es	-1.259767	1.072065	-0.784344	99
Es	1.470053	0.175327	-0.629851	99
Es	-0.709983	0.655907	-0.477923	99
Es	1.918681	0.240562	1.216992	99
Es	1.124711	0.666473	-0.459710	99
Es	-0.973789	1.636636	-1.156884	99
Es	-1.808266	-1.183307	0.812828	99
Es	-0.339423	-0.219021	0.506763	99
Es	1.949103	-1.046017	-0.570070	99
Es	2.146882	0.511413	0.586952	99
44
Properties=species:S:1:pos:R:3:Z:I:1 energy=-304.09299596080314 field_type=dipole dipole="0.000000 0.000000 0.000000" charge=0
C	-1.808396	-1.183349	0.812855	6
N	-0.422536	-0.813809	0.572655	7
C	-0.163006	0.223141	-0.161865	6
C	-1.259786	1.072111	-0.784375	6
N	1.124694	0.667021	-0.460105	7
C	2.167284	-0.359289	-0.622425	6
C	2.147034	0.511421	0.587185	6
H	-1.830666	-2.093709	1.420475	1
H	-2.338006	-1.405279	-0.118655	1
H	-2.340956	-0.408209	1.372295	1
H	-1.847316	0.465091	-1.479255	1
H	-0.831286	1.912301	-1.338825	1
H	-1.911276	1.472171	-0.003065	1
H	2.859644	-0.129859	-1.418915	1
H	1.832294	-1.384199	-0.541045	1
H	1.797124	0.103971	1.525675	1
H	2.825154	1.350481	0.637395	1
Es	-1.039672	-0.945551	0.656101	99
Es	1.949008	-1.045951	-0.570177	99
Es	2.640586	-0.207373	-1.162247	99
Es	-0.422894	-0.813478	0.572414	99
Es	2.350062	-0.025268	0.058513	99
Es	-2.169512	-0.645291	1.186203	99
Es	-0.162904	0.223221	-0.161917	99
Es	0.577380	0.439948	-0.305802	99
Es	1.149962	0.960164	-0.670434	99
Es	1.456846	0.678201	0.066968	99
Es	-0.153102	-1.019973	0.724020	99
Es	-0.973721	1.636591	-1.156929	99
Es	-2.167650	-1.324025	0.171598	99
Es	1.470754	0.175406	-0.630239	99
Es	-1.808266	-1.183306	0.812826	99
Es	-1.650830	0.653691	-1.242147	99
Es	2.610579	1.078996	0.624797	99
Es	2.146877	0.511417	0.586954	99
Es	-0.339071	-0.218776	0.506745	99
Es	-1.259767	1.072064	-0.784344	99
Es	-1.827331	-1.804417	1.227505	99
Es	-0.331549	-0.555875	0.033779	99
Es	-0.710083	0.655741	-0.478005	99
Es	-1.694434	1.329382	-0.252341	99
Es	2.167135	-0.359080	-0.622344	99
Es	1.918720	0.240592	1.216970	99
Es	1.124706	0.666472	-0.459710	99
44
Properties=species:S:1:pos:R:3:Z:I:1 energy=-304.09299596080314 field_type=dipole dipole="0.000000 0.000000 0.000000" charge=0
C	-1.808396	-1.183349	0.812855	6
N	-0.422536	-0.813809	0.572655	7
C	-0.163006	0.223141	-0.161865	6
C	-1.259786	1.072111	-0.784375	6
N	1.124694	0.667021	-0.460105	7
C	2.167284	-0.359289	-0.622425	6
C	2.147034	0.511421	0.587185	6
H	-1.830666	-2.093709	1.420475	1
H	-2.338006	-1.405279	-0.118655	1
H	-2.340956	-0.408209	1.372295	1
H	-1.847316	0.465091	-1.479255	1
H	-0.831286	1.912301	-1.338825	1
H	-1.911276	1.472171	-0.003065	1
H	2.859644	-0.129859	-1.418915	1
H	1.832294	-1.384199	-0.541045	1
H	1.797124	0.103971	1.525675	1
H	2.825154	1.350481	0.637395	1
Es	-2.169414	-0.645371	1.186137	99
Es	0.577465	0.440223	-0.305658	99
Es	-1.650771	0.653620	-1.242263	99
Es	-0.153535	-1.019956	0.723877	99
Es	2.610557	1.078928	0.624760	99
Es	-2.167756	-1.324057	0.171562	99
Es	-1.694470	1.329292	-0.252405	99
Es	1.469692	0.175589	-0.631333	99
Es	1.124749	0.666558	-0.459766	99
Es	-1.039754	-0.945350	0.656196	99
Es	-1.808265	-1.183304	0.812827	99
Es	-0.331346	-0.555949	0.033702	99
Es	-0.710145	0.655856	-0.477957	99
Es	-0.162901	0.223224	-0.161922	99
Es	1.457869	0.678335	0.067479	99
Es	-1.827381	-1.804320	1.227603	99
Es	1.149684	0.959426	-0.670017	99
Es	-0.422904	-0.813497	0.572426	99
Es	1.949175	-1.045972	-0.570177	99
Es	2.146879	0.511415	0.586954	99
Es	-0.338697	-0.218871	0.506813	99
Es	-0.973762	1.636660	-1.156818	99
Es	2.167120	-0.359073	-0.622350	99
Es	2.640425	-0.207398	-1.162137	99
Es	-1.259768	1.072065	-0.784344	99
Es	1.918835	0.240651	1.216938	99
Es	2.350248	-0.025204	0.058629	99
44
Properties=species:S:1:pos:R:3:Z:I:1 energy=-304.09299596080314 field_type=dipole dipole="0.000000 0.000000 0.000000" charge=0
C	-1.808396	-1.183349	0.812855	6
N	-0.422536	-0.813809	0.572655	7
C	-0.163006	0.223141	-0.161865	6
C	-1.259786	1.072111	-0.784375	6
N	1.124694	0.667021	-0.460105	7
C	2.167284	-0.359289	-0.622425	6
C	2.147034	0.511421	0.587185	6
H	-1.830666	-2.093709	1.420475	1
H	-2.338006	-1.405279	-0.118655	1
H	-2.340956	-0.408209	1.372295	1
H	-1.847316	0.465091	-1.479255	1
H	-0.831286	1.912301	-1.338825	1
H	-1.911276	1.472171	-0.003065	1
H	2.859644	-0.129859	-1.418915	1
H	1.832294	-1.384199	-0.541045	1
H	1.797124	0.103971	1.525675	1
H	2.825154	1.350481	0.637395	1
Es	2.640398	-0.207402	-1.162143	99
Es	1.457386	0.678946	0.067480	99
Es	1.149455	0.959277	-0.670047	99
Es	-1.694434	1.329272	-0.252373	99
Es	1.949213	-1.045892	-0.570223	99
Es	2.350535	-0.025485	0.058587	99
Es	-1.827419	-1.804379	1.227534	99
Es	-0.422911	-0.813486	0.572419	99
Es	-2.169460	-0.645379	1.186154	99
Es	2.610493	1.078863	0.624935	99
Es	-0.162904	0.223223	-0.161919	99
Es	-0.710241	0.655842	-0.477983	99
Es	1.918797	0.240667	1.216788	99
Es	-0.338918	-0.218829	0.506483	99
Es	-0.331306	-0.556054	0.033753	99
Es	-1.650809	0.653631	-1.242285	99
Es	2.167116	-0.359069	-0.622348	99
Es	-0.153341	-1.019413	0.723944	99
Es	1.470066	0.175508	-0.631204	99
Es	1.124712	0.666485	-0.459718	99
Es	0.577669	0.440137	-0.305739	99
Es	-1.039707	-0.945798	0.656403	99
Es	-1.259769	1.072065	-0.784348	99
Es	-1.808266	-1.183306	0.812827	99
Es	2.146880	0.511417	0.586958	99
Es	-0.973706	1.636688	-1.156787	99
Es	-2.167699	-1.324010	0.171607	99
44
Properties=species:S:1:pos:R:3:Z:I:1 energy=-304.09299596080314 field_type=dipole dipole="0.000000 0.000000 0.000000" charge=0
C	-1.808396	-1.183349	0.812855	6
N	-0.422536	-0.813809	0.572655	7
C	-0.163006	0.223141	-0.161865	6
C	-1.259786	1.072111	-0.784375	6
N	1.124694	0.667021	-0.460105	7
C	2.167284	-0.359289	-0.622425	6
C	2.147034	0.511421	0.587185	6
H	-1.830666	-2.093709	1.420475	1
H	-2.338006	-1.405279	-0.118655	1
H	-2.340956	-0.408209	1.372295	1
H	-1.847316	0.465091	-1.479255	1
H	-0.831286	1.912301	-1.338825	1
H	-1.911276	1.472171	-0.003065	1
H	2.859644	-0.129859	-1.418915	1
H	1.832294	-1.384199	-0.541045	1
H	1.797124	0.103971	1.525675	1
H	2.825154	1.350481	0.637395	1
Es	-1.650776	0.653627	-1.242274	99
Es	-1.039595	-0.946098	0.656697	99
Es	2.146877	0.511416	0.586955	99
Es	-0.422891	-0.813483	0.572418	99
Es	0.577752	0.440402	-0.305982	99
Es	-0.973726	1.636647	-1.156813	99
Es	1.149584	0.959033	-0.670012	99
Es	-0.339142	-0.218991	0.506426	99
Es	-1.808265	-1.183305	0.812824	99
Es	-0.153094	-1.019216	0.723756	99
Es	-1.259767	1.072066	-0.784345	99
Es	-1.827497	-1.804400	1.227509	99
Es	-0.710251	0.655827	-0.478005	99
Es	2.610432	1.078806	0.624910	99
Es	2.640361	-0.207407	-1.162049	99
Es	1.124716	0.666470	-0.459709	99
Es	2.350605	-0.025400	0.058748	99
Es	1.949300	-1.045879	-0.570249	99
Es	1.918895	0.240700	1.216776	99
Es	-2.169505	-0.645386	1.186112	99
Es	-0.331453	-0.555707	0.033778	99
Es	1.457262	0.679092	0.067790	99
Es	-0.162902	0.223227	-0.161920	99
Es	-1.694473	1.329310	-0.252414	99
Es	1.469887	0.175222	-0.631437	99
Es	2.167128	-0.359078	-0.622351	99
Es	-2.167631	-1.323978	0.171618	99
44
Properties=species:S:1:pos:R:3:Z:I:1 energy=-304.09299596080314 field_type=dipole dipole="0.000000 0.000000 0.000000" charge=0
C	-1.808396	-1.183349	0.812855	6
N	-0.422536	-0.813809	0.572655	7
C	-0.163006	0.223141	-0.161865	6
C	-1.259786	1.072111	-0.784375	6
N	1.124694	0.667021	-0.460105	7
C	2.167284	-0.359289	-0.622425	6
C	2.147034	0.511421	0.587185	6
H	-1.830666	-2.093709	1.420475	1
H	-2.338006	-1.405279	-0.118655	1
H	-2.340956	-0.408209	1.372295	1
H	-1.847316	0.465091	-1.479255	1
H	-0.831286	1.912301	-1.338825	1
H	-1.911276	1.472171	-0.003065	1
H	2.859644	-0.129859	-1.418915	1
H	1.832294	-1.384199	-0.541045	1
H	1.797124	0.103971	1.525675	1
H	2.825154	1.350481	0.637395	1
Es	1.149273	0.958222	-0.669722	99
Es	2.640374	-0.207604	-1.161996	99
Es	-1.650765	0.653749	-1.242398	99
Es	-0.162901	0.223224	-0.161925	99
Es	-0.153423	-1.018948	0.723812	99
Es	0.577842	0.440571	-0.306056	99
Es	-1.259768	1.072067	-0.784345	99
Es	-1.827432	-1.804382	1.227562	99
Es	-0.710344	0.655761	-0.477976	99
Es	1.124720	0.666468	-0.459707	99
Es	2.146873	0.511413	0.586949	99
Es	-0.422887	-0.813509	0.572437	99
Es	-1.039871	-0.945985	0.656628	99
Es	1.469785	0.175393	-0.631960	99
Es	1.949193	-1.045694	-0.570297	99
Es	-1.694531	1.329330	-0.252424	99
Es	-1.808264	-1.183305	0.812827	99
Es	-2.169496	-0.645424	1.186096	99
Es	1.457461	0.679893	0.068039	99
Es	-0.973701	1.636603	-1.156676	99
Es	2.167124	-0.359073	-0.622349	99
Es	1.918850	0.240852	1.216661	99
Es	-2.167673	-1.324031	0.171644	99
Es	2.610487	1.078699	0.624972	99
Es	-0.331141	-0.556063	0.033970	99
Es	-0.338798	-0.218925	0.506128	99
Es	2.350841	-0.025783	0.058864	99
44
Properties=species:S:1:pos:R:3:Z:I:1 energy=-304.09299596080314 field_type=dipole dipole="0.000000 0.000000 0.000000" charge=0
C	-1.808396	-1.183349	0.812855	6
N	-0.422536	-0.813809	0.572655	7
C	-0.163006	0.223141	-0.161865	6
C	-1.259786	1.072111	-0.784375	6
N	1.124694	0.667021	-0.460105	7
C	2.167284	-0.359289	-0.622425	6
C	2.147034	0.511421	0.587185	6
H	-1.830666	-2.093709	1.420475	1
H	-2.338006	-1.405279	-0.118655	1
H	-2.340956	-0.408209	1.372295	1
H	-1.847316	0.465091	-1.479255	1
H	-0.831286	1.912301	-1.338825	1
H	-1.911276	1.472171	-0.003065	1
H	2.859644	-0.129859	-1.418915	1
H	1.832294	-1.384199	-0.541045	1
H	1.797124	0.103971	1.525675	1
H	2.825154	1.350481	0.637395	1
Es	0.577784	0.440879	-0.306035	99
Es	1.124720	0.666470	-0.459708	99
Es	1.149383	0.957991	-0.669461	99
Es	2.640303	-0.207601	-1.161995	99
Es	2.351039	-0.025795	0.058993	99
Es	-1.259768	1.072066	-0.784345	99
Es	-0.162904	0.223221	-0.161921	99
Es	-2.169393	-0.645451	1.186000	99
Es	-1.694487	1.329278	-0.252426	99
Es	-0.338660	-0.218926	0.506171	99
Es	-2.167753	-1.323991	0.171690	99
Es	-1.808272	-1.183309	0.812828	99
Es	-0.422895	-0.813482	0.572417	99
Es	1.457379	0.679926	0.067973	99
Es	-0.331110	-0.555959	0.034038	99
Es	2.146882	0.511417	0.586960	99
Es	2.167123	-0.359073	-0.622348	99
Es	-1.650760	0.653600	-1.242259	99
Es	-1.039840	-0.946316	0.656804	99
Es	-0.973752	1.636681	-1.156826	99
Es	-0.710395	0.655904	-0.477987	99
Es	1.949303	-1.045611	-0.570320	99
Es	-1.827539	-1.804352	1.227655	99
Es	2.610401	1.078689	0.624972	99
Es	1.469640	0.175148	-0.632227	99
Es	-0.153519	-1.018739	0.723462	99
Es	1.918919	0.240852	1.216652	99
44
Properties=species:S:1:pos:R:3:Z:I:1 energy=-304.09299596080314 field_type=dipole dipole="0.000000 0.000000 0.000000" charge=0
C	-1.808396	-1.183349	0.812855	6
N	-0.422536	-0.813809	0.572655	7
C	-0.163006	0.223141	-0.161865	6
C	-1.259786	1.072111	-0.784375	6
N	1.124694	0.667021	-0.460105	7
C	2.167284	-0.359289	-0.622425	6
C	2.147034	0.511421	0.587185	6
H	-1.830666	-2.093709	1.420475	1
H	-2.338006	-1.405279	-0.118655	1
H	-2.340956	-0.408209	1.372295	1
H	-1.847316	0.465091	-1.479255	1
H	-0.831286	1.912301	-1.338825	1
H	-1.911276	1.472171	-0.003065	1
H	2.859644	-0.129859	-1.418915	1
H	1.832294	-1.384199	-0.541045	1
H	1.797124	0.103971	1.525675	1
H	2.825154	1.350481	0.637395	1
Es	-1.259768	1.072066	-0.784345	99
Es	2.351336	-0.025790	0.059007	99
Es	-1.039895	-0.946294	0.656718	99
Es	-0.973752	1.636680	-1.156843	99
Es	2.640229	-0.207682	-1.161958	99
Es	-0.338397	-0.219001	0.506572	99
Es	2.610307	1.078678	0.625077	99
Es	-1.827544	-1.804383	1.227554	99
Es	1.457304	0.679985	0.068104	99
Es	-0.330893	-0.555744	0.034013	99
Es	1.949353	-1.045569	-0.570284	99
Es	2.167122	-0.359068	-0.622340	99
Es	-1.694463	1.329285	-0.252415	99
Es	1.124727	0.666481	-0.459716	99
Es	-1.808269	-1.183307	0.812828	99
Es	-0.710465	0.655892	-0.478003	99
Es	-0.153892	-1.018815	0.723186	99
Es	1.469606	0.175348	-0.632735	99
Es	-0.422891	-0.813479	0.572415	99
Es	1.149229	0.957827	-0.668988	99
Es	-0.162900	0.223220	-0.161931	99
Es	1.918994	0.240781	1.216555	99
Es	0.577839	0.440838	-0.306214	99
Es	-2.167702	-1.323973	0.171743	99
Es	2.146869	0.511417	0.586946	99
Es	-2.169472	-0.645471	1.186055	99
Es	-1.650785	0.653599	-1.242243	99
44
Properties=species:S:1:pos:R:3:Z:I:1 energy=-304.09299596080314 field_type=dipole dipole="0.000000 0.000000 0.000000" charge=0
C	-1.808396	-1.183349	0.812855	6
N	-0.422536	-0.813809	0.572655	7
C	-0.163006	0.223141	-0.161865	6
C	-1.259786	1.072111	-0.784375	6
N	1.124694	0.667021	-0.460105	7
C	2.167284	-0.359289	-0.622425	6
C	2.147034	0.511421	0.587185	6
H	-1.830666	-2.093709	1.420475	1
H	-2.338006	-1.405279	-0.118655	1
H	-2.340956	-0.408209	1.372295	1
H	-1.847316	0.465091	-1.479255	1
H	-0.831286	1.912301	-1.338825	1
H	-1.911276	1.472171	-0.003065	1
H	2.859644	-0.129859	-1.418915	1
H	1.832294	-1.384199	-0.541045	1
H	1.797124	0.103971	1.525675	1
H	2.825154	1.350481	0.637395	1
Es	2.167121	-0.359071	-0.622346	99
Es	2.640190	-0.207688	-1.161968	99
Es	1.149175	0.957334	-0.668857	99
Es	-1.694490	1.329260	-0.252349	99
Es	-0.710540	0.655854	-0.478108	99
Es	1.457265	0.680539	0.068318	99
Es	-0.331049	-0.555544	0.034254	99
Es	1.949420	-1.045521	-0.570275	99
Es	2.610388	1.078472	0.624995	99
Es	-1.039849	-0.946617	0.657043	99
Es	-0.153665	-1.018490	0.722992	99
Es	0.577890	0.441003	-0.306365	99
Es	-0.422789	-0.813524	0.572449	99
Es	-1.650748	0.653616	-1.242208	99
Es	-0.338544	-0.219121	0.506264	99
Es	-2.169680	-0.645448	1.186171	99
Es	1.919000	0.240990	1.216554	99
Es	-1.259768	1.072066	-0.784345	99
Es	1.124728	0.666480	-0.459715	99
Es	-2.167619	-1.324160	0.171690	99
Es	-0.162902	0.223224	-0.161923	99
Es	2.146877	0.511414	0.586951	99
Es	2.351378	-0.026006	0.059094	99
Es	-1.808269	-1.183308	0.812828	99
Es	1.469541	0.175265	-0.632893	99
Es	-0.973735	1.636702	-1.156877	99
Es	-1.827498	-1.804201	1.227384	99
44
Properties=species:S:1:pos:R:3:Z:I:1 energy=-304.09299596080314 field_type=dipole dipole="0.000000 0.000000 0.000000" charge=0
C	-1.808396	-1.183349	0.812855	6
N	-0.422536	-0.813809	0.572655	7
C	-0.163006	0.223141	-0.161865	6
C	-1.259786	1.072111	-0.784375	6
N	1.124694	0.667021	-0.460105	7
C	2.167284	-0.359289	-0.622425	6
C	2.147034	0.511421	0.587185	6
H	-1.830666	-2.093709	1.420475	1
H	-2.338006	-1.405279	-0.118655	1
H	-2.340956	-0.408209	1.372295	1
H	-1.847316	0.465091	-1.479255	1
H	-0.831286	1.912301	-1.338825	1
H	-1.911276	1.472171	-0.003065	1
H	2.859644	-0.129859	-1.418915	1
H	1.832294	-1.384199	-0.541045	1
H	1.797124	0.103971	1.525675	1
H	2.825154	1.350481	0.637395	1
Es	2.610256	1.078561	0.625085	99
Es	-1.694398	1.329299	-0.252368	99
Es	2.146885	0.511413	0.586961	99
Es	-2.167652	-1.323950	0.171743	99
Es	-0.338409	-0.219311	0.506457	99
Es	-1.259768	1.072066	-0.784344	99
Es	-0.973690	1.636679	-1.156837	99
Es	-1.650851	0.653625	-1.242245	99
Es	2.640154	-0.207742	-1.161848	99
Es	1.457257	0.680425	0.068463	99
Es	1.469451	0.175321	-0.633528	99
Es	-0.162909	0.223220	-0.161923	99
Es	1.919021	0.240948	1.216482	99
Es	-0.710614	0.655865	-0.478062	99
Es	1.149055	0.957221	-0.668413	99
Es	-1.040018	-0.946779	0.657196	99
Es	-1.827570	-1.804419	1.227528	99
Es	-0.331065	-0.555178	0.034217	99
Es	1.124719	0.666492	-0.459719	99
Es	2.167122	-0.359071	-0.622346	99
Es	-0.422898	-0.813487	0.572419	99
Es	0.578037	0.441031	-0.306515	99
Es	-1.808263	-1.183302	0.812827	99
Es	-2.169505	-0.645506	1.186047	99
Es	2.351623	-0.026027	0.059247	99
Es	-0.153585	-1.018444	0.722607	99
Es	1.949442	-1.045432	-0.570375	99
44
Properties=species:S:1:pos:R:3:Z:I:1 energy=-304.09299596080314 field_type=dipole dipole="0.000000 0.000000 0.000000" charge=0
C	-1.808396	-1.183349	0.812855	6
N	-0.422536	-0.813809	0.572655	7
C	-0.163006	0.223141	-0.161865	6
C	-1.259786	1.072111	-0.784375	6
N	1.124694	0.667021	-0.460105	7
C	2.167284	-0.359289	-0.622425	6
C	2.147034	0.511421	0.587185	6
H	-1.830666	-2.093709	1.420475	1
H	-2.338006	-1.405279	-0.118655	1
H	-2.340956	-0.408209	1.372295	1
H	-1.847316	0.465091	-1.479255	1
H	-0.831286	1.912301	-1.338825	1
H	-1.911276	1.472171	-0.003065	1
H	2.859644	-0.129859	-1.418915	1
H	1.832294	-1.384199	-0.541045	1
H	1.797124	0.103971	1.525675	1
H	2.825154	1.350481	0.637395	1
Es	2.640129	-0.207786	-1.161817	99
Es	-1.259767	1.072067	-0.784341	99
Es	1.469246	0.175629	-0.634252	99
Es	-2.169466	-0.645523	1.185995	99
Es	-1.694443	1.329245	-0.252397	99
Es	-0.162903	0.223227	-0.161921	99
Es	-1.827626	-1.804382	1.227571	99
Es	2.146876	0.511413	0.586949	99
Es	-0.973755	1.636710	-1.156801	99
Es	-0.710628	0.655901	-0.478047	99
Es	0.578211	0.441117	-0.306309	99
Es	1.124736	0.666496	-0.459728	99
Es	1.918989	0.241131	1.216415	99
Es	-1.039986	-0.946857	0.657126	99
Es	1.457483	0.680198	0.068332	99
Es	-0.330823	-0.555723	0.034310	99
Es	1.949355	-1.045330	-0.570514	99
Es	-2.167701	-1.323958	0.171811	99
Es	-1.650801	0.653624	-1.242275	99
Es	-0.153725	-1.018029	0.723016	99
Es	2.167127	-0.359077	-0.622350	99
Es	-0.338440	-0.219103	0.505916	99
Es	-1.808270	-1.183308	0.812828	99
Es	2.351973	-0.026437	0.059439	99
Es	2.610193	1.078519	0.625105	99
Es	-0.422895	-0.813483	0.572419	99
Es	1.148737	0.957238	-0.667726	99
44
Properties=species:S:1:pos:R:3:Z:I:1 energy=-304.09299596080314 field_type=dipole dipole="0.000000 0.000000 0.000000" charge=0
C	-1.808396	-1.183349	0.812855	6
N	-0.422536	-0.813809	0.572655	7
C	-0.163006	0.223141	-0.161865	6
C	-1.259786	1.072111	-0.784375	6
N	1.124694	0.667021	-0.460105	7
C	2.167284	-0.359289	-0.622425	6
C	2.147034	0.511421	0.587185	6
H	-1.830666	-2.093709	1.420475	1
H	-2.338006	-1.405279	-0.118655	1
H	-2.340956	-0.408209	1.372295	1
H	-1.847316	0.465091	-1.479255	1
H	-0.831286	1.912301	-1.338825	1
H	-1.911276	1.472171	-0.003065	1
H	2.859644	-0.129859	-1.418915	1
H	1.832294	-1.384199	-0.541045	1
H	1.797124	0.103971	1.525675	1
H	2.825154	1.350481	0.637395	1
Es	-1.827617	-1.804389	1.227545	99
Es	-0.162903	0.223222	-0.161922	99
Es	-0.153782	-1.017826	0.722879	99
Es	2.351999	-0.026274	0.059250	99
Es	2.146871	0.511415	0.586948	99
Es	-0.973770	1.636776	-1.156825	99
Es	1.469236	0.175276	-0.634188	99
Es	2.167123	-0.359071	-0.622344	99
Es	-1.650597	0.653592	-1.242259	99
Es	-0.338446	-0.219594	0.506096	99
Es	-0.330645	-0.555300	0.034033	99
Es	1.124725	0.666478	-0.459714	99
Es	-0.422901	-0.813487	0.572419	99
Es	1.457293	0.680923	0.068932	99
Es	1.919150	0.241001	1.216383	99
Es	-1.259768	1.072066	-0.784345	99
Es	1.148984	0.956605	-0.667871	99
Es	-1.694632	1.329167	-0.252454	99
Es	-2.169546	-0.645570	1.185972	99
Es	1.949462	-1.045283	-0.570461	99
Es	-2.167648	-1.323979	0.171813	99
Es	-1.808272	-1.183309	0.812829	99
Es	2.640019	-0.207836	-1.161815	99
Es	2.610145	1.078441	0.625133	99
Es	-0.710691	0.655928	-0.477967	99
Es	0.578078	0.441436	-0.306673	99
Es	-1.040039	-0.946891	0.657363	99
44
Properties=species:S:1:pos:R:3:Z:I:1 energy=-304.09299596080314 field_type=dipole dipole="0.000000 0.000000 0.000000" charge=0
C	-1.808396	-1.183349	0.812855	6
N	-0.422536	-0.813809	0.572655	7
C	-0.163006	0.223141	-0.161865	6
C	-1.259786	1.072111	-0.784375	6
N	1.124694	0.667021	-0.460105	7
C	2.167284	-0.359289	-0.622425	6
C	2.147034	0.511421	0.587185	6
H	-1.830666	-2.093709	1.420475	1
H	-2.338006	-1.405279	-0.118655	1
H	-2.340956	-0.408209	1.372295	1
H	-1.847316	0.465091	-1.479255	1
H	-0.831286	1.912301	-1.338825	1
H	-1.911276	1.472171	-0.003065	1
H	2.859644	-0.129859	-1.418915	1
H	1.832294	-1.384199	-0.541045	1
H	1.797124	0.103971	1.525675	1
H	2.825154	1.350481	0.637395	1
Es	-0.338251	-0.219284	0.506109	99
Es	0.578183	0.441317	-0.306680	99
Es	-0.330805	-0.555338	0.034345	99
Es	1.949451	-1.045228	-0.570470	99
Es	1.469430	0.175270	-0.634017	99
Es	2.146877	0.511412	0.586949	99
Es	1.148754	0.955995	-0.667980	99
Es	1.124765	0.666571	-0.459779	99
Es	-0.153821	-1.017749	0.722398	99
Es	-1.827656	-1.804368	1.227520	99
Es	-1.040030	-0.947226	0.657468	99
Es	-1.694474	1.329280	-0.252410	99
Es	-0.973744	1.636687	-1.156860	99
Es	-0.710723	0.655887	-0.478037	99
Es	1.457110	0.681623	0.068844	99
Es	-1.259767	1.072065	-0.784344	99
Es	-2.167650	-1.323983	0.171861	99
Es	2.167118	-0.359067	-0.622344	99
Es	-0.162903	0.223224	-0.161919	99
Es	-1.808271	-1.183308	0.812828	99
Es	2.352288	-0.026419	0.059360	99
Es	-1.650779	0.653617	-1.242228	99
Es	-2.169536	-0.645525	1.185999	99
Es	-0.422893	-0.813498	0.572424	99
Es	2.639957	-0.207911	-1.161794	99
Es	2.610090	1.078391	0.625199	99
Es	1.919106	0.241083	1.216313	99
44
Properties=species:S:1:pos:R:3:Z:I:1 energy=-304.09299596080314 field_type=dipole dipole="0.000000 0.000000 0.000000" charge=0
C	-1.808396	-1.183349	0.812855	6
N	-0.422536	-0.813809	0.572655	7
C	-0.163006	0.223141	-0.161865	6
C	-1.259786	1.072111	-0.784375	6
N	1.124694	0.667021	-0.460105	7
C	2.167284	-0.359289	-0.622425	6
C	2.147034	0.511421	0.587185	6
H	-1.830666	-2.093709	1.420475	1
H	-2.338006	-1.405279	-0.118655	1
H	-2.340956	-0.408209	1.372295	1
H	-1.847316	0.465091	-1.479255	1
H	-0.831286	1.912301	-1.338825	1
H	-1.911276	1.472171	-0.003065	1
H	2.859644	-0.129859	-1.418915	1
H	1.832294	-1.384199	-0.541045	1
H	1.797124	0.103971	1.525675	1
H	2.825154	1.350481	0.637395	1
Es	-2.169475	-0.645595	1.185973	99
Es	-1.694488	1.329224	-0.252440	99
Es	-1.808270	-1.183308	0.812828	99
Es	1.148839	0.955753	-0.667458	99
Es	-1.650764	0.653633	-1.242291	99
Es	2.610094	1.078299	0.625146	99
Es	2.146873	0.511414	0.586947	99
Es	1.124728	0.666490	-0.459708	99
Es	0.578105	0.441647	-0.306834	99
Es	1.919166	0.241181	1.216304	99
Es	-1.259769	1.072066	-0.784346	99
Es	-2.167702	-1.323920	0.171858	99
Es	-0.338630	-0.219584	0.505886	99
Es	2.167121	-0.359069	-0.622345	99
Es	-0.162906	0.223218	-0.161928	99
Es	-0.153776	-1.017460	0.722981	99
Es	-1.827688	-1.804395	1.227546	99
Es	-0.422896	-0.813488	0.572411	99
Es	1.469276	0.175298	-0.634661	99
Es	-0.330424	-0.555224	0.034220	99
Es	1.949491	-1.045149	-0.570445	99
Es	-0.973719	1.636738	-1.156785	99
Es	2.352345	-0.026506	0.059501	99
Es	1.457156	0.681614	0.068942	99
Es	2.639983	-0.207966	-1.161757	99
Es	-1.040049	-0.947226	0.657264	99
Es	-0.710792	0.655834	-0.478052	99
44
Properties=species:S:1:pos:R:3:Z:I:1 energy=-304.09299596080314 field_type=dipole dipole="0.000000 0.000000 0.000000" charge=0
C	-1.808396	-1.183349	0.812855	6
N	-0.422536	-0.813809	0.572655	7
C	-0.163006	0.223141	-0.161865	6
C	-1.259786	1.072111	-0.784375	6
N	1.124694	0.667021	-0.460105	7
C	2.167284	-0.359289	-0.622425	6
C	2.147034	0.511421	0.587185	6
H	-1.830666	-2.093709	1.420475	1
H	-2.338006	-1.405279	-0.118655	1
H	-2.340956	-0.408209	1.372295	1
H	-1.847316	0.465091	-1.479255	1
H	-0.831286	1.912301	-1.338825	1
H	-1.911276	1.472171	-0.003065	1
H	2.859644	-0.129859	-1.418915	1
H	1.832294	-1.384199	-0.541045	1
H	1.797124	0.103971	1.525675	1
H	2.825154	1.350481	0.637395	1
Es	1.949534	-1.045107	-0.570515	99
Es	1.124712	0.666450	-0.459694	99
Es	-1.827727	-1.804415	1.227548	99
Es	-0.422880	-0.813509	0.572444	99
Es	2.609989	1.078292	0.625248	99
Es	2.167120	-0.359067	-0.622343	99
Es	0.578168	0.441833	-0.306870	99
Es	-0.162909	0.223227	-0.161921	99
Es	-0.338383	-0.219296	0.505595	99
Es	-0.331187	-0.555096	0.034719	99
Es	1.457035	0.681846	0.068887	99
Es	-1.039938	-0.947745	0.657926	99
Es	-1.650890	0.653585	-1.242126	99
Es	1.148867	0.955566	-0.667463	99
Es	1.469254	0.175087	-0.634715	99
Es	-1.808271	-1.183308	0.812828	99
Es	-1.694349	1.329285	-0.252416	99
Es	1.919153	0.241177	1.216233	99
Es	-0.710858	0.655880	-0.477998	99
Es	-0.973740	1.636722	-1.156951	99
Es	2.146875	0.511411	0.586947	99
Es	-2.167670	-1.323905	0.171896	99
Es	-2.169492	-0.645601	1.185936	99
Es	-0.153322	-1.017361	0.721969	99
Es	2.352581	-0.026525	0.059636	99
Es	-1.259768	1.072067	-0.784345	99
Es	2.639924	-0.207972	-1.161699	99
44
Properties=species:S:1:pos:R:3:Z:I:1 energy=-304.09299596080314 field_type=dipole dipole="0.000000 0.000000 0.000000" charge=0
C	-1.808396	-1.183349	0.812855	6
N	-0.422536	-0.813809	0.572655	7
C	-0.163006	0.223141	-0.161865	6
C	-1.259786	1.072111	-0.784375	6
N	1.124694	0.667021	-0.460105	7
C	2.167284	-0.359289	-0.622425	6
C	2.147034	0.511421	0.587185	6
H	-1.830666	-2.093709	1.420475	1
H	-2.338006	-1.405279	-0.118655	1
H	-2.340956	-0.408209	1.372295	1
H	-1.847316	0.465091	-1.479255	1
H	-0.831286	1.912301	-1.338825	1
H	-1.911276	1.472171	-0.003065	1
H	2.859644	-0.129859	-1.418915	1
H	1.832294	-1.384199	-0.541045	1
H	1.797124	0.103971	1.525675	1
H	2.825154	1.350481	0.637395	1
Es	1.949573	-1.045027	-0.570597	99
Es	1.124727	0.666470	-0.459711	99
Es	2.610017	1.078222	0.625286	99
Es	2.146877	0.511410	0.586947	99
Es	-1.040070	-0.947594	0.657625	99
Es	1.919204	0.241198	1.216133	99
Es	-0.973785	1.636735	-1.156851	99
Es	1.456483	0.683699	0.068799	99
Es	-0.153904	-1.017332	0.722169	99
Es	-1.827782	-1.804330	1.227587	99
Es	-0.162904	0.223223	-0.161921	99
Es	0.578287	0.441989	-0.306490	99
Es	2.352630	-0.026766	0.059531	99
Es	-1.259769	1.072068	-0.784345	99
Es	-0.710872	0.655984	-0.477989	99
Es	-0.330631	-0.555162	0.034574	99
Es	2.639876	-0.207967	-1.161667	99
Es	2.167119	-0.359068	-0.622345	99
Es	1.469797	0.174309	-0.633784	99
Es	-2.167705	-1.323961	0.171934	99
Es	1.148660	0.954462	-0.668371	99
Es	-1.808274	-1.183309	0.812830	99
Es	-2.169462	-0.645591	1.185897	99
Es	-0.422890	-0.813486	0.572419	99
Es	-0.338147	-0.219440	0.505795	99
Es	-1.694508	1.329227	-0.252456	99
Es	-1.650720	0.653558	-1.242243	99
