43
Properties=species:S:1:pos:R:3:Z:I:1 energy=-270.9520172478667 field_type=dipole dipole="0.000000 0.000000 0.000000" charge=0
C	-1.997691	-1.547190	0.350141	6
C	-0.577311	-1.409790	-0.088589	6
C	0.159089	-0.287910	-0.006529	6
C	1.574399	-0.153060	-0.513649	6
C	1.817709	1.325310	-0.512949	6
C	0.789149	1.995130	0.019771	6
C	-0.306281	1.071390	0.458991	6
H	-2.133101	-2.500540	0.871991	1
H	-2.661661	-1.536370	-0.519659	1
H	-2.305341	-0.750370	1.035521	1
H	-0.123711	-2.303850	-0.510819	1
H	1.679049	-0.559750	-1.523639	1
H	2.281459	-0.647950	0.161111	1
H	2.721829	1.779890	-0.893119	1
H	0.740939	3.069070	0.131561	1
H	-0.405031	1.101420	1.549501	1
H	-1.253491	1.354570	-0.009639	1
Es	-1.289183	-1.471358	0.135879	99
Es	-2.439395	-1.537853	-0.240971	99
Es	-0.372862	1.088975	1.193344	99
Es	-0.577386	-1.409875	-0.088578	99
Es	-0.271738	-2.023991	-0.377359	99
Es	0.159170	-0.287798	-0.006512	99
Es	0.872443	-0.240130	-0.259510	99
Es	1.644859	-0.430419	-1.195198	99
Es	2.049302	-0.485556	-0.057637	99
Es	-0.108382	-0.945449	0.264144	99
Es	0.224352	1.560087	0.248971	99
Es	-0.947718	1.259790	0.143625	99
Es	-0.306243	1.071381	0.458975	99
Es	1.817800	1.325229	-0.513001	99
Es	-0.092853	0.383412	0.241880	99
Es	1.574381	-0.153023	-0.513635	99
Es	0.789043	1.995175	0.019828	99
Es	0.745730	2.725508	0.101616	99
Es	1.448505	1.654821	0.043257	99
Es	-0.318544	-0.769756	-0.346102	99
Es	1.174472	1.703483	-0.546713	99
Es	2.437809	1.624477	-0.774070	99
Es	-2.202453	-1.001984	0.812386	99
Es	-2.085351	-2.194324	0.701143	99
Es	-1.997658	-1.547190	0.350130	99
Es	1.727168	0.584098	-0.529331	99
43
Properties=species:S:1:pos:R:3:Z:I:1 energy=-270.9520172478667 field_type=dipole dipole="0.000000 0.000000 0.000000" charge=0
C	-1.997691	-1.547190	0.350141	6
C	-0.577311	-1.409790	-0.088589	6
C	0.159089	-0.287910	-0.006529	6
C	1.574399	-0.153060	-0.513649	6
C	1.817709	1.325310	-0.512949	6
C	0.789149	1.995130	0.019771	6
C	-0.306281	1.071390	0.458991	6
H	-2.133101	-2.500540	0.871991	1
H	-2.661661	-1.536370	-0.519659	1
H	-2.305341	-0.750370	1.035521	1
H	-0.123711	-2.303850	-0.510819	1
H	1.679049	-0.559750	-1.523639	1
H	2.281459	-0.647950	0.161111	1
H	2.721829	1.779890	-0.893119	1
H	0.740939	3.069070	0.131561	1
H	-0.405031	1.101420	1.549501	1
H	-1.253491	1.354570	-0.009639	1
Es	-1.997658	-1.547189	0.350129	99
Es	1.644856	-0.430374	-1.195149	99
Es	0.872521	-0.240378	-0.259549	99
Es	1.448606	1.654746	0.043503	99
Es	2.049284	-0.485614	-0.057713	99
Es	-0.947846	1.259691	0.143776	99
Es	1.174629	1.703468	-0.546383	99
Es	1.727244	0.584074	-0.529462	99
Es	1.817809	1.325223	-0.512996	99
Es	0.159171	-0.287784	-0.006516	99
Es	-0.577388	-1.409874	-0.088574	99
Es	-0.092754	0.383519	0.241844	99
Es	-2.085402	-2.194326	0.701120	99
Es	0.224101	1.560344	0.248757	99
Es	-0.306243	1.071382	0.458976	99
Es	-2.439328	-1.537835	-0.241025	99
Es	1.574382	-0.153023	-0.513635	99
Es	-0.108480	-0.945356	0.264086	99
Es	-1.289186	-1.471438	0.135977	99
Es	2.437710	1.624593	-0.774071	99
Es	-0.372742	1.088895	1.193280	99
Es	0.745755	2.725447	0.101319	99
Es	0.789052	1.995173	0.019854	99
Es	-0.271755	-2.023917	-0.377387	99
Es	-2.202485	-1.001980	0.812382	99
Es	-0.318586	-0.769736	-0.345983	99
43
Properties=species:S:1:pos:R:3:Z:I:1 energy=-270.9520172478667 field_type=dipole dipole="0.000000 0.000000 0.000000" charge=0
C	-1.997691	-1.547190	0.350141	6
C	-0.577311	-1.409790	-0.088589	6
C	0.159089	-0.287910	-0.006529	6
C	1.574399	-0.153060	-0.513649	6
C	1.817709	1.325310	-0.512949	6
C	0.789149	1.995130	0.019771	6
C	-0.306281	1.071390	0.458991	6
H	-2.133101	-2.500540	0.871991	1
H	-2.661661	-1.536370	-0.519659	1
H	-2.305341	-0.750370	1.035521	1
H	-0.123711	-2.303850	-0.510819	1
H	1.679049	-0.559750	-1.523639	1
H	2.281459	-0.647950	0.161111	1
H	2.721829	1.779890	-0.893119	1
H	0.740939	3.069070	0.131561	1
H	-0.405031	1.101420	1.549501	1
H	-1.253491	1.354570	-0.009639	1
Es	-0.093030	0.383404	0.242033	99
Es	1.644865	-0.430427	-1.195073	99
Es	-0.271677	-2.023928	-0.377496	99
Es	-0.318457	-0.769915	-0.345659	99
Es	-2.202379	-1.002011	0.812457	99
Es	-0.372881	1.089030	1.193252	99
Es	0.159173	-0.287783	-0.006516	99
Es	0.872595	-0.240418	-0.259534	99
Es	1.174650	1.703573	-0.546485	99
Es	0.745785	2.725463	0.101578	99
Es	-1.997659	-1.547190	0.350130	99
Es	-2.439427	-1.537765	-0.240970	99
Es	2.049270	-0.485593	-0.057748	99
Es	-0.577385	-1.409877	-0.088571	99
Es	0.789040	1.995174	0.019828	99
Es	-1.289315	-1.471399	0.135867	99
Es	1.448458	1.654838	0.043128	99
Es	-2.085376	-2.194342	0.701084	99
Es	2.437760	1.624598	-0.774055	99
Es	1.574383	-0.153023	-0.513636	99
Es	1.727269	0.584086	-0.529375	99
Es	-0.947697	1.259792	0.143696	99
Es	1.817801	1.325229	-0.512994	99
Es	-0.108549	-0.945217	0.263799	99
Es	0.224298	1.560046	0.248844	99
Es	-0.306246	1.071387	0.458977	99
43
Properties=species:S:1:pos:R:3:Z:I:1 energy=-270.9520172478667 field_type=dipole dipole="0.000000 0.000000 0.000000" charge=0
C	-1.997691	-1.547190	0.350141	6
C	-0.577311	-1.409790	-0.088589	6
C	0.159089	-0.287910	-0.006529	6
C	1.574399	-0.153060	-0.513649	6
C	1.817709	1.325310	-0.512949	6
C	0.789149	1.995130	0.019771	6
C	-0.306281	1.071390	0.458991	6
H	-2.133101	-2.500540	0.871991	1
H	-2.661661	-1.536370	-0.519659	1
H	-2.305341	-0.750370	1.035521	1
H	-0.123711	-2.303850	-0.510819	1
H	1.679049	-0.559750	-1.523639	1
H	2.281459	-0.647950	0.161111	1
H	2.721829	1.779890	-0.893119	1
H	0.740939	3.069070	0.131561	1
H	-0.405031	1.101420	1.549501	1
H	-1.253491	1.354570	-0.009639	1
Es	-0.108599	-0.945272	0.263685	99
Es	-0.372923	1.088887	1.193284	99
Es	-0.306243	1.071383	0.458976	99
Es	-2.439380	-1.537643	-0.240928	99
Es	0.872598	-0.240419	-0.259659	99
Es	0.745764	2.725508	0.101373	99
Es	-0.271667	-2.023947	-0.377458	99
Es	0.789039	1.995175	0.019828	99
Es	0.159171	-0.287783	-0.006518	99
Es	1.448445	1.654934	0.043000	99
Es	1.727262	0.583977	-0.529513	99
Es	2.437726	1.624699	-0.774046	99
Es	1.644997	-0.430529	-1.195050	99
Es	-2.202382	-1.002070	0.812485	99
Es	-0.577389	-1.409877	-0.088572	99
Es	0.224184	1.560184	0.249077	99
Es	-1.289348	-1.471310	0.135816	99
Es	2.049190	-0.485502	-0.057648	99
Es	-1.997658	-1.547189	0.350129	99
Es	-2.085456	-2.194428	0.701013	99
Es	-0.318326	-0.769895	-0.345462	99
Es	1.174719	1.703460	-0.546232	99
Es	1.574382	-0.153023	-0.513635	99
Es	1.817799	1.325232	-0.512996	99
Es	-0.947714	1.259649	0.143714	99
Es	-0.092926	0.383530	0.241898	99
43
Properties=species:S:1:pos:R:3:Z:I:1 energy=-270.9520172478667 field_type=dipole dipole="0.000000 0.000000 0.000000" charge=0
C	-1.997691	-1.547190	0.350141	6
C	-0.577311	-1.409790	-0.088589	6
C	0.159089	-0.287910	-0.006529	6
C	1.574399	-0.153060	-0.513649	6
C	1.817709	1.325310	-0.512949	6
C	0.789149	1.995130	0.019771	6
C	-0.306281	1.071390	0.458991	6
H	-2.133101	-2.500540	0.871991	1
H	-2.661661	-1.536370	-0.519659	1
H	-2.305341	-0.750370	1.035521	1
H	-0.123711	-2.303850	-0.510819	1
H	1.679049	-0.559750	-1.523639	1
H	2.281459	-0.647950	0.161111	1
H	2.721829	1.779890	-0.893119	1
H	0.740939	3.069070	0.131561	1
H	-0.405031	1.101420	1.549501	1
H	-1.253491	1.354570	-0.009639	1
Es	0.745828	2.725533	0.101274	99
Es	1.574384	-0.153021	-0.513636	99
Es	0.789036	1.995178	0.019829	99
Es	-2.085390	-2.194351	0.701135	99
Es	-0.093027	0.383461	0.242014	99
Es	-0.372941	1.088959	1.193247	99
Es	-1.289357	-1.471329	0.135940	99
Es	-0.108658	-0.945167	0.263453	99
Es	2.049250	-0.485576	-0.057770	99
Es	1.817799	1.325232	-0.512987	99
Es	1.175084	1.703640	-0.545798	99
Es	-2.439377	-1.537807	-0.240949	99
Es	0.872666	-0.240547	-0.259599	99
Es	1.727195	0.583928	-0.529603	99
Es	-0.577388	-1.409877	-0.088576	99
Es	-2.202452	-1.002007	0.812369	99
Es	-0.947668	1.259754	0.143725	99
Es	1.644905	-0.430439	-1.195067	99
Es	0.159171	-0.287784	-0.006510	99
Es	0.224072	1.560140	0.248827	99
Es	2.437647	1.624750	-0.774183	99
Es	-0.306243	1.071382	0.458976	99
Es	-0.318367	-0.769901	-0.345402	99
Es	-1.997660	-1.547195	0.350133	99
Es	1.448383	1.654698	0.043185	99
Es	-0.271623	-2.023920	-0.377464	99
43
Properties=species:S:1:pos:R:3:Z:I:1 energy=-270.9520172478667 field_type=dipole dipole="0.000000 0.000000 0.000000" charge=0
C	-1.997691	-1.547190	0.350141	6
C	-0.577311	-1.409790	-0.088589	6
C	0.159089	-0.287910	-0.006529	6
C	1.574399	-0.153060	-0.513649	6
C	1.817709	1.325310	-0.512949	6
C	0.789149	1.995130	0.019771	6
C	-0.306281	1.071390	0.458991	6
H	-2.133101	-2.500540	0.871991	1
H	-2.661661	-1.536370	-0.519659	1
H	-2.305341	-0.750370	1.035521	1
H	-0.123711	-2.303850	-0.510819	1
H	1.679049	-0.559750	-1.523639	1
H	2.281459	-0.647950	0.161111	1
H	2.721829	1.779890	-0.893119	1
H	0.740939	3.069070	0.131561	1
H	-0.405031	1.101420	1.549501	1
H	-1.253491	1.354570	-0.009639	1
Es	-0.271603	-2.023891	-0.377511	99
Es	0.789040	1.995175	0.019826	99
Es	2.049240	-0.485586	-0.057800	99
Es	1.727279	0.583865	-0.529453	99
Es	1.174888	1.703520	-0.545965	99
Es	-1.289414	-1.471306	0.135927	99
Es	-0.318282	-0.769928	-0.345201	99
Es	1.644910	-0.430435	-1.195048	99
Es	-0.108678	-0.945156	0.263326	99
Es	-2.439368	-1.537791	-0.240945	99
Es	-0.947657	1.259755	0.143749	99
Es	2.437702	1.624791	-0.774015	99
Es	-0.306243	1.071383	0.458976	99
Es	0.872701	-0.240601	-0.259627	99
Es	1.448305	1.654913	0.042738	99
Es	1.817802	1.325229	-0.512997	99
Es	0.745957	2.725531	0.101406	99
Es	0.159169	-0.287793	-0.006510	99
Es	-2.085403	-2.194372	0.701143	99
Es	-0.093103	0.383469	0.242028	99
Es	-0.372956	1.088957	1.193226	99
Es	1.574385	-0.153025	-0.513633	99
Es	-1.997661	-1.547189	0.350127	99
Es	0.224097	1.560111	0.249010	99
Es	-0.577390	-1.409876	-0.088576	99
Es	-2.202453	-1.002018	0.812361	99
43
Properties=species:S:1:pos:R:3:Z:I:1 energy=-270.9520172478667 field_type=dipole dipole="0.000000 0.000000 0.000000" charge=0
C	-1.997691	-1.547190	0.350141	6
C	-0.577311	-1.409790	-0.088589	6
C	0.159089	-0.287910	-0.006529	6
C	1.574399	-0.153060	-0.513649	6
C	1.817709	1.325310	-0.512949	6
C	0.789149	1.995130	0.019771	6
C	-0.306281	1.071390	0.458991	6
H	-2.133101	-2.500540	0.871991	1
H	-2.661661	-1.536370	-0.519659	1
H	-2.305341	-0.750370	1.035521	1
H	-0.123711	-2.303850	-0.510819	1
H	1.679049	-0.559750	-1.523639	1
H	2.281459	-0.647950	0.161111	1
H	2.721829	1.779890	-0.893119	1
H	0.740939	3.069070	0.131561	1
H	-0.405031	1.101420	1.549501	1
H	-1.253491	1.354570	-0.009639	1
Es	1.727210	0.583812	-0.529519	99
Es	-2.439496	-1.537731	-0.240817	99
Es	0.789040	1.995174	0.019827	99
Es	1.448299	1.654959	0.042660	99
Es	1.817797	1.325230	-0.512995	99
Es	2.049266	-0.485595	-0.057743	99
Es	-0.271561	-2.023893	-0.377491	99
Es	0.872716	-0.240680	-0.259719	99
Es	-0.577388	-1.409876	-0.088572	99
Es	-0.306243	1.071383	0.458976	99
Es	-0.372972	1.088957	1.193209	99
Es	-1.289297	-1.471399	0.135792	99
Es	-0.108745	-0.945059	0.263182	99
Es	-0.947641	1.259755	0.143763	99
Es	-1.997659	-1.547189	0.350130	99
Es	1.174997	1.703553	-0.545801	99
Es	1.644958	-0.430424	-1.194960	99
Es	1.574382	-0.153022	-0.513638	99
Es	-0.318241	-0.769994	-0.345105	99
Es	2.437669	1.624816	-0.774048	99
Es	-2.202326	-1.002065	0.812279	99
Es	0.224055	1.560092	0.249024	99
Es	-0.093155	0.383464	0.242081	99
Es	-2.085544	-2.194295	0.701217	99
Es	0.745977	2.725537	0.101344	99
Es	0.159168	-0.287780	-0.006516	99
43
Properties=species:S:1:pos:R:3:Z:I:1 energy=-270.9520172478667 field_type=dipole dipole="0.000000 0.000000 0.000000" charge=0
C	-1.997691	-1.547190	0.350141	6
C	-0.577311	-1.409790	-0.088589	6
C	0.159089	-0.287910	-0.006529	6
C	1.574399	-0.153060	-0.513649	6
C	1.817709	1.325310	-0.512949	6
C	0.789149	1.995130	0.019771	6
C	-0.306281	1.071390	0.458991	6
H	-2.133101	-2.500540	0.871991	1
H	-2.661661	-1.536370	-0.519659	1
H	-2.305341	-0.750370	1.035521	1
H	-0.123711	-2.303850	-0.510819	1
H	1.679049	-0.559750	-1.523639	1
H	2.281459	-0.647950	0.161111	1
H	2.721829	1.779890	-0.893119	1
H	0.740939	3.069070	0.131561	1
H	-0.405031	1.101420	1.549501	1
H	-1.253491	1.354570	-0.009639	1
Es	1.644919	-0.430433	-1.195010	99
Es	-0.306243	1.071383	0.458976	99
Es	0.159166	-0.287799	-0.006520	99
Es	1.574383	-0.153023	-0.513637	99
Es	-0.271532	-2.023866	-0.377503	99
Es	-1.997660	-1.547189	0.350130	99
Es	0.872787	-0.240729	-0.259614	99
Es	2.049243	-0.485597	-0.057838	99
Es	1.817796	1.325233	-0.512994	99
Es	0.789041	1.995174	0.019829	99
Es	-0.108776	-0.944991	0.262954	99
Es	-0.093223	0.383487	0.242132	99
Es	-0.318160	-0.770044	-0.344980	99
Es	-0.372987	1.088957	1.193195	99
Es	2.437652	1.624899	-0.774015	99
Es	1.175062	1.703549	-0.545680	99
Es	-2.439359	-1.537757	-0.240947	99
Es	-0.947636	1.259745	0.143781	99
Es	1.448223	1.654941	0.042539	99
Es	-2.085429	-2.194392	0.701143	99
Es	-1.289496	-1.471292	0.135981	99
Es	0.224003	1.560090	0.249031	99
Es	-0.577388	-1.409878	-0.088573	99
Es	1.727292	0.583755	-0.529497	99
Es	-2.202449	-1.002039	0.812346	99
Es	0.746042	2.725549	0.101333	99
43
Properties=species:S:1:pos:R:3:Z:I:1 energy=-270.9520172478667 field_type=dipole dipole="0.000000 0.000000 0.000000" charge=0
C	-1.997691	-1.547190	0.350141	6
C	-0.577311	-1.409790	-0.088589	6
C	0.159089	-0.287910	-0.006529	6
C	1.574399	-0.153060	-0.513649	6
C	1.817709	1.325310	-0.512949	6
C	0.789149	1.995130	0.019771	6
C	-0.306281	1.071390	0.458991	6
H	-2.133101	-2.500540	0.871991	1
H	-2.661661	-1.536370	-0.519659	1
H	-2.305341	-0.750370	1.035521	1
H	-0.123711	-2.303850	-0.510819	1
H	1.679049	-0.559750	-1.523639	1
H	2.281459	-0.647950	0.161111	1
H	2.721829	1.779890	-0.893119	1
H	0.740939	3.069070	0.131561	1
H	-0.405031	1.101420	1.549501	1
H	-1.253491	1.354570	-0.009639	1
Es	0.872831	-0.240784	-0.259620	99
Es	-0.306250	1.071384	0.458974	99
Es	1.448146	1.655069	0.042214	99
Es	-0.318107	-0.770107	-0.344862	99
Es	-0.093273	0.383471	0.242171	99
Es	-1.289542	-1.471269	0.136002	99
Es	-0.947615	1.259750	0.143818	99
Es	1.574383	-0.153023	-0.513636	99
Es	0.223988	1.560068	0.249145	99
Es	1.644930	-0.430439	-1.194992	99
Es	1.727344	0.583703	-0.529414	99
Es	-0.271497	-2.023855	-0.377504	99
Es	-0.577387	-1.409875	-0.088573	99
Es	1.817797	1.325230	-0.512994	99
Es	-2.202453	-1.002053	0.812341	99
Es	0.789041	1.995174	0.019828	99
Es	-2.439361	-1.537748	-0.240947	99
Es	0.746135	2.725551	0.101394	99
Es	2.437678	1.624946	-0.773926	99
Es	2.049227	-0.485604	-0.057857	99
Es	-1.997659	-1.547189	0.350130	99
Es	-0.373000	1.088964	1.193166	99
Es	-2.085423	-2.194403	0.701147	99
Es	0.159170	-0.287785	-0.006518	99
Es	-0.108831	-0.944927	0.262771	99
Es	1.174996	1.703481	-0.545696	99
