37
Properties=species:S:1:pos:R:3:Z:I:1 energy=-317.791113050123 field_type=dipole dipole="0.000000 0.000000 0.000000" charge=0
C	-1.340335	-0.943297	-0.255593	6
N	0.097005	-0.855067	-0.022213	7
C	0.581105	0.554442	-0.016333	6
C	0.081475	1.336742	1.139337	6
N	-0.339825	1.967232	2.020177	7
C	2.062205	0.599672	-0.064203	6
N	3.222425	0.624153	-0.151203	7
H	-1.634685	-1.996987	-0.292323	1
H	-1.621545	-0.484997	-1.209263	1
H	-1.913215	-0.476597	0.551447	1
H	0.581695	-1.362777	-0.763913	1
H	0.223695	1.037483	-0.935913	1
Es	-0.419434	1.537913	1.568887	99
Es	-1.716491	-0.618081	0.286822	99
Es	0.581207	0.554407	-0.016152	99
Es	0.180328	-0.992698	0.282984	99
Es	2.061791	0.599668	-0.064173	99
Es	0.081637	1.336529	1.139026	99
Es	0.314530	-0.196287	-0.028876	99
Es	3.221955	0.624143	-0.151171	99
Es	-1.340164	-0.943280	-0.255576	99
Es	-0.472204	2.164558	2.295363	99
Es	2.679834	0.307092	-0.150354	99
Es	2.699774	0.733049	0.170809	99
Es	0.380473	-1.128399	-0.486117	99
Es	-1.528484	-1.653841	-0.284993	99
Es	0.332411	0.957012	0.598280	99
Es	-0.339657	1.966978	2.019820	99
Es	1.356366	0.582176	-0.019021	99
Es	-0.077928	1.932336	1.454359	99
Es	2.666542	0.797275	-0.358798	99
Es	-1.528658	-0.618975	-0.912295	99
Es	-0.516412	-0.859105	-0.145171	99
Es	3.584654	0.631338	-0.178567	99
Es	0.356447	0.892552	-0.607548	99
Es	0.096855	-0.854724	-0.022810	99
Es	0.064109	1.551632	1.803365	99
37
Properties=species:S:1:pos:R:3:Z:I:1 energy=-317.791113050123 field_type=dipole dipole="0.000000 0.000000 0.000000" charge=0
C	-1.340335	-0.943297	-0.255593	6
N	0.097005	-0.855067	-0.022213	7
C	0.581105	0.554442	-0.016333	6
C	0.081475	1.336742	1.139337	6
N	-0.339825	1.967232	2.020177	7
C	2.062205	0.599672	-0.064203	6
N	3.222425	0.624153	-0.151203	7
H	-1.634685	-1.996987	-0.292323	1
H	-1.621545	-0.484997	-1.209263	1
H	-1.913215	-0.476597	0.551447	1
H	0.581695	-1.362777	-0.763913	1
H	0.223695	1.037483	-0.935913	1
Es	-1.716443	-0.618094	0.286778	99
Es	-0.516618	-0.859421	-0.144901	99
Es	-1.528646	-1.653809	-0.285057	99
Es	2.668323	0.910268	-0.197545	99
Es	0.096870	-0.854737	-0.022771	99
Es	-1.340164	-0.943281	-0.255578	99
Es	0.356508	0.892731	-0.607577	99
Es	-0.339656	1.966977	2.019818	99
Es	1.356308	0.582024	-0.018511	99
Es	0.015652	1.917173	1.504006	99
Es	0.581207	0.554413	-0.016155	99
Es	2.061800	0.599671	-0.064169	99
Es	0.380300	-1.128189	-0.486053	99
Es	-0.471432	2.164629	2.295519	99
Es	2.665916	0.388877	-0.327326	99
Es	2.712253	0.538180	0.186992	99
Es	0.332424	0.956865	0.598353	99
Es	-0.016683	1.481351	1.814947	99
Es	0.180717	-0.992706	0.282750	99
Es	0.314544	-0.196483	-0.029064	99
Es	-0.432868	1.623394	1.507460	99
Es	0.081629	1.336519	1.139024	99
Es	3.221953	0.624142	-0.151171	99
Es	3.584214	0.631655	-0.179460	99
Es	-1.528630	-0.618881	-0.912217	99
37
Properties=species:S:1:pos:R:3:Z:I:1 energy=-317.791113050123 field_type=dipole dipole="0.000000 0.000000 0.000000" charge=0
C	-1.340335	-0.943297	-0.255593	6
N	0.097005	-0.855067	-0.022213	7
C	0.581105	0.554442	-0.016333	6
C	0.081475	1.336742	1.139337	6
N	-0.339825	1.967232	2.020177	7
C	2.062205	0.599672	-0.064203	6
N	3.222425	0.624153	-0.151203	7
H	-1.634685	-1.996987	-0.292323	1
H	-1.621545	-0.484997	-1.209263	1
H	-1.913215	-0.476597	0.551447	1
H	0.581695	-1.362777	-0.763913	1
H	0.223695	1.037483	-0.935913	1
Es	0.081628	1.336556	1.139011	99
Es	-0.381625	1.769685	1.436682	99
Es	-1.340164	-0.943280	-0.255578	99
Es	-1.528614	-0.618968	-0.912202	99
Es	3.584062	0.631456	-0.178210	99
Es	0.118933	1.835251	1.610413	99
Es	2.688805	0.307668	-0.067231	99
Es	0.096846	-0.854700	-0.022845	99
Es	0.179923	-0.992547	0.282779	99
Es	2.691789	0.805548	0.127944	99
Es	1.356203	0.582030	-0.019047	99
Es	0.356499	0.892687	-0.607387	99
Es	-0.170992	1.417671	1.779261	99
Es	-1.716465	-0.618015	0.286739	99
Es	-0.339657	1.966977	2.019819	99
Es	-1.528673	-1.653807	-0.285022	99
Es	-0.471279	2.163954	2.295824	99
Es	3.221956	0.624143	-0.151171	99
Es	2.061815	0.599678	-0.064169	99
Es	2.666179	0.724295	-0.399441	99
Es	0.581209	0.554404	-0.016147	99
Es	0.332086	0.956847	0.598102	99
Es	-0.516267	-0.859263	-0.145443	99
Es	0.380670	-1.128690	-0.485680	99
Es	0.314613	-0.196312	-0.028908	99
37
Properties=species:S:1:pos:R:3:Z:I:1 energy=-317.791113050123 field_type=dipole dipole="0.000000 0.000000 0.000000" charge=0
C	-1.340335	-0.943297	-0.255593	6
N	0.097005	-0.855067	-0.022213	7
C	0.581105	0.554442	-0.016333	6
C	0.081475	1.336742	1.139337	6
N	-0.339825	1.967232	2.020177	7
C	2.062205	0.599672	-0.064203	6
N	3.222425	0.624153	-0.151203	7
H	-1.634685	-1.996987	-0.292323	1
H	-1.621545	-0.484997	-1.209263	1
H	-1.913215	-0.476597	0.551447	1
H	0.581695	-1.362777	-0.763913	1
H	0.223695	1.037483	-0.935913	1
Es	-1.716444	-0.618012	0.286638	99
Es	1.356267	0.582099	-0.018374	99
Es	2.061789	0.599668	-0.064168	99
Es	-1.528641	-0.619005	-0.912247	99
Es	-0.432428	1.597182	1.524696	99
Es	-0.516444	-0.859325	-0.145296	99
Es	0.356463	0.892781	-0.607558	99
Es	-1.340167	-0.943281	-0.255578	99
Es	-0.471672	2.164654	2.294594	99
Es	2.664591	0.427601	-0.361917	99
Es	0.314773	-0.196557	-0.028652	99
Es	-0.339652	1.966973	2.019816	99
Es	-1.528706	-1.653801	-0.284918	99
Es	0.096858	-0.854720	-0.022805	99
Es	0.332560	0.956952	0.598087	99
Es	3.221949	0.624146	-0.151169	99
Es	2.669746	0.920584	-0.147051	99
Es	0.581204	0.554405	-0.016154	99
Es	-0.009152	1.925762	1.487565	99
Es	3.583807	0.631909	-0.179308	99
Es	0.179958	-0.992406	0.282431	99
Es	0.081627	1.336504	1.139036	99
Es	2.712599	0.489020	0.170871	99
Es	0.007846	1.498860	1.815134	99
Es	0.380748	-1.128725	-0.485579	99
37
Properties=species:S:1:pos:R:3:Z:I:1 energy=-317.791113050123 field_type=dipole dipole="0.000000 0.000000 0.000000" charge=0
C	-1.340335	-0.943297	-0.255593	6
N	0.097005	-0.855067	-0.022213	7
C	0.581105	0.554442	-0.016333	6
C	0.081475	1.336742	1.139337	6
N	-0.339825	1.967232	2.020177	7
C	2.062205	0.599672	-0.064203	6
N	3.222425	0.624153	-0.151203	7
H	-1.634685	-1.996987	-0.292323	1
H	-1.621545	-0.484997	-1.209263	1
H	-1.913215	-0.476597	0.551447	1
H	0.581695	-1.362777	-0.763913	1
H	0.223695	1.037483	-0.935913	1
Es	0.581205	0.554410	-0.016156	99
Es	-0.426948	1.666739	1.482634	99
Es	-1.528580	-1.653814	-0.285138	99
Es	2.691319	0.311388	-0.045074	99
Es	-0.339657	1.966977	2.019819	99
Es	-1.340167	-0.943281	-0.255578	99
Es	0.314688	-0.196527	-0.028532	99
Es	1.356038	0.582051	-0.018858	99
Es	0.081627	1.336515	1.139027	99
Es	-0.059782	1.454980	1.812202	99
Es	2.689607	0.823173	0.112946	99
Es	0.180136	-0.992717	0.282323	99
Es	0.332293	0.956904	0.598067	99
Es	2.061818	0.599663	-0.064175	99
Es	-1.716565	-0.618195	0.286716	99
Es	0.356641	0.892749	-0.607468	99
Es	-1.528690	-0.618945	-0.912101	99
Es	0.096856	-0.854721	-0.022809	99
Es	-0.471480	2.164455	2.294687	99
Es	3.221952	0.624143	-0.151171	99
Es	0.380527	-1.128437	-0.485808	99
Es	2.666211	0.703145	-0.407003	99
Es	3.583751	0.631359	-0.177805	99
Es	0.053079	1.900436	1.532519	99
Es	-0.516400	-0.859181	-0.145167	99
37
Properties=species:S:1:pos:R:3:Z:I:1 energy=-317.791113050123 field_type=dipole dipole="0.000000 0.000000 0.000000" charge=0
C	-1.340335	-0.943297	-0.255593	6
N	0.097005	-0.855067	-0.022213	7
C	0.581105	0.554442	-0.016333	6
C	0.081475	1.336742	1.139337	6
N	-0.339825	1.967232	2.020177	7
C	2.062205	0.599672	-0.064203	6
N	3.222425	0.624153	-0.151203	7
H	-1.634685	-1.996987	-0.292323	1
H	-1.621545	-0.484997	-1.209263	1
H	-1.913215	-0.476597	0.551447	1
H	0.581695	-1.362777	-0.763913	1
H	0.223695	1.037483	-0.935913	1
Es	-1.716531	-0.618022	0.286618	99
Es	-1.528683	-1.653798	-0.284981	99
Es	0.356583	0.892869	-0.607570	99
Es	0.040664	1.526927	1.810675	99
Es	1.356077	0.582103	-0.018304	99
Es	-0.339663	1.966983	2.019827	99
Es	0.332806	0.956995	0.598060	99
Es	0.380751	-1.128712	-0.485448	99
Es	-0.046707	1.931951	1.467855	99
Es	0.314910	-0.196606	-0.028352	99
Es	-1.340167	-0.943282	-0.255579	99
Es	-0.427835	1.563462	1.548736	99
Es	0.179985	-0.992332	0.281833	99
Es	3.221980	0.624141	-0.151174	99
Es	2.061797	0.599667	-0.064181	99
Es	2.668963	0.914970	-0.182388	99
Es	-0.471630	2.164094	2.294751	99
Es	3.583276	0.631659	-0.179316	99
Es	0.081617	1.336544	1.139007	99
Es	2.712821	0.522194	0.183670	99
Es	-0.516617	-0.859407	-0.145139	99
Es	0.096861	-0.854747	-0.022791	99
Es	2.665666	0.400287	-0.339406	99
Es	0.581205	0.554405	-0.016153	99
Es	-1.528647	-0.619077	-0.912156	99
37
Properties=species:S:1:pos:R:3:Z:I:1 energy=-317.791113050123 field_type=dipole dipole="0.000000 0.000000 0.000000" charge=0
C	-1.340335	-0.943297	-0.255593	6
N	0.097005	-0.855067	-0.022213	7
C	0.581105	0.554442	-0.016333	6
C	0.081475	1.336742	1.139337	6
N	-0.339825	1.967232	2.020177	7
C	2.062205	0.599672	-0.064203	6
N	3.222425	0.624153	-0.151203	7
H	-1.634685	-1.996987	-0.292323	1
H	-1.621545	-0.484997	-1.209263	1
H	-1.913215	-0.476597	0.551447	1
H	0.581695	-1.362777	-0.763913	1
H	0.223695	1.037483	-0.935913	1
Es	-0.433356	1.606134	1.518712	99
Es	-0.471523	2.163991	2.294409	99
Es	0.180001	-0.992675	0.281256	99
Es	3.583141	0.632075	-0.179462	99
Es	-0.516595	-0.859283	-0.144818	99
Es	-1.528666	-1.653828	-0.285005	99
Es	-1.340171	-0.943282	-0.255583	99
Es	0.315073	-0.196580	-0.027746	99
Es	2.712967	0.488690	0.170867	99
Es	0.096866	-0.854722	-0.022827	99
Es	3.221955	0.624142	-0.151171	99
Es	0.001268	1.492737	1.816280	99
Es	-1.716527	-0.618182	0.286540	99
Es	0.581205	0.554407	-0.016156	99
Es	0.332771	0.956815	0.598161	99
Es	1.356009	0.582154	-0.018388	99
Es	0.081648	1.336506	1.139026	99
Es	-0.001767	1.923768	1.492508	99
Es	-0.339657	1.966977	2.019821	99
Es	0.356550	0.892959	-0.607543	99
Es	-1.528728	-0.619011	-0.912103	99
Es	2.669843	0.921687	-0.147319	99
Es	0.380544	-1.128479	-0.485717	99
Es	2.061804	0.599671	-0.064173	99
Es	2.664825	0.426595	-0.361477	99
37
Properties=species:S:1:pos:R:3:Z:I:1 energy=-317.791113050123 field_type=dipole dipole="0.000000 0.000000 0.000000" charge=0
C	-1.340335	-0.943297	-0.255593	6
N	0.097005	-0.855067	-0.022213	7
C	0.581105	0.554442	-0.016333	6
C	0.081475	1.336742	1.139337	6
N	-0.339825	1.967232	2.020177	7
C	2.062205	0.599672	-0.064203	6
N	3.222425	0.624153	-0.151203	7
H	-1.634685	-1.996987	-0.292323	1
H	-1.621545	-0.484997	-1.209263	1
H	-1.913215	-0.476597	0.551447	1
H	0.581695	-1.362777	-0.763913	1
H	0.223695	1.037483	-0.935913	1
Es	0.315010	-0.196756	-0.028533	99
Es	0.179929	-0.992301	0.281877	99
Es	-1.716486	-0.618096	0.286558	99
Es	0.028640	1.515705	1.813344	99
Es	2.710603	0.423686	0.133401	99
Es	3.221949	0.624142	-0.151169	99
Es	0.096855	-0.854727	-0.022795	99
Es	0.332907	0.956912	0.597975	99
Es	2.673009	0.920493	-0.073153	99
Es	0.356554	0.893040	-0.607557	99
Es	-0.031555	1.930659	1.475326	99
Es	0.380712	-1.128824	-0.485180	99
Es	2.664238	0.492792	-0.398906	99
Es	3.582973	0.632242	-0.178733	99
Es	-0.516570	-0.859346	-0.145276	99
Es	1.355908	0.582083	-0.018321	99
Es	-0.471718	2.163717	2.294293	99
Es	-1.528744	-1.653789	-0.284981	99
Es	-0.430809	1.576386	1.539085	99
Es	-1.528720	-0.619029	-0.912098	99
Es	0.581204	0.554407	-0.016157	99
Es	2.061795	0.599659	-0.064172	99
Es	-1.340169	-0.943282	-0.255579	99
Es	-0.339656	1.966977	2.019819	99
Es	0.081621	1.336517	1.139025	99
37
Properties=species:S:1:pos:R:3:Z:I:1 energy=-317.791113050123 field_type=dipole dipole="0.000000 0.000000 0.000000" charge=0
C	-1.340335	-0.943297	-0.255593	6
N	0.097005	-0.855067	-0.022213	7
C	0.581105	0.554442	-0.016333	6
C	0.081475	1.336742	1.139337	6
N	-0.339825	1.967232	2.020177	7
C	2.062205	0.599672	-0.064203	6
N	3.222425	0.624153	-0.151203	7
H	-1.634685	-1.996987	-0.292323	1
H	-1.621545	-0.484997	-1.209263	1
H	-1.913215	-0.476597	0.551447	1
H	0.581695	-1.362777	-0.763913	1
H	0.223695	1.037483	-0.935913	1
Es	1.355774	0.582263	-0.018722	99
Es	0.381143	-1.129112	-0.485127	99
Es	-1.528731	-1.653811	-0.284972	99
Es	-0.021307	1.477126	1.816439	99
Es	3.221966	0.624143	-0.151171	99
Es	3.582866	0.631519	-0.177981	99
Es	0.020547	1.916911	1.506996	99
Es	2.666535	0.722969	-0.401154	99
Es	-0.433276	1.628680	1.504449	99
Es	-1.716548	-0.618096	0.286477	99
Es	0.179412	-0.991997	0.281463	99
Es	0.332827	0.956750	0.597976	99
Es	-1.528680	-0.619072	-0.912106	99
Es	0.096879	-0.854793	-0.022671	99
Es	0.356628	0.893101	-0.607470	99
Es	-0.516440	-0.859316	-0.145334	99
Es	0.581204	0.554407	-0.016157	99
Es	2.061806	0.599675	-0.064186	99
Es	2.692104	0.807085	0.127825	99
Es	-0.339659	1.966982	2.019826	99
Es	0.081618	1.336509	1.139038	99
Es	-1.340169	-0.943282	-0.255579	99
Es	2.689460	0.307378	-0.065624	99
Es	0.314809	-0.196659	-0.028213	99
Es	-0.471286	2.163907	2.294073	99
37
Properties=species:S:1:pos:R:3:Z:I:1 energy=-317.791113050123 field_type=dipole dipole="0.000000 0.000000 0.000000" charge=0
C	-1.340335	-0.943297	-0.255593	6
N	0.097005	-0.855067	-0.022213	7
C	0.581105	0.554442	-0.016333	6
C	0.081475	1.336742	1.139337	6
N	-0.339825	1.967232	2.020177	7
C	2.062205	0.599672	-0.064203	6
N	3.222425	0.624153	-0.151203	7
H	-1.634685	-1.996987	-0.292323	1
H	-1.621545	-0.484997	-1.209263	1
H	-1.913215	-0.476597	0.551447	1
H	0.581695	-1.362777	-0.763913	1
H	0.223695	1.037483	-0.935913	1
Es	-0.407221	1.726693	1.453687	99
Es	-0.122989	1.428455	1.798206	99
Es	-1.528792	-1.653768	-0.285054	99
Es	-0.516520	-0.859513	-0.144962	99
Es	0.380818	-1.128957	-0.485266	99
Es	0.356752	0.893056	-0.607574	99
Es	-1.528726	-0.618977	-0.912031	99
Es	0.095885	1.867887	1.576004	99
Es	2.711654	0.438110	0.143768	99
Es	2.664258	0.476337	-0.392286	99
Es	3.582576	0.632150	-0.179111	99
Es	0.332453	0.956764	0.597776	99
Es	0.179860	-0.992093	0.281454	99
Es	-0.470719	2.163631	2.294273	99
Es	-1.716500	-0.618159	0.286536	99
Es	0.081625	1.336523	1.139028	99
Es	1.355761	0.582207	-0.018198	99
Es	2.672337	0.922570	-0.089737	99
Es	0.581204	0.554412	-0.016158	99
Es	3.221955	0.624143	-0.151171	99
Es	0.314970	-0.196816	-0.028374	99
Es	-1.340169	-0.943281	-0.255579	99
Es	2.061796	0.599664	-0.064166	99
Es	0.096866	-0.854746	-0.022790	99
Es	-0.339656	1.966977	2.019819	99
37
Properties=species:S:1:pos:R:3:Z:I:1 energy=-317.791113050123 field_type=dipole dipole="0.000000 0.000000 0.000000" charge=0
C	-1.340335	-0.943297	-0.255593	6
N	0.097005	-0.855067	-0.022213	7
C	0.581105	0.554442	-0.016333	6
C	0.081475	1.336742	1.139337	6
N	-0.339825	1.967232	2.020177	7
C	2.062205	0.599672	-0.064203	6
N	3.222425	0.624153	-0.151203	7
H	-1.634685	-1.996987	-0.292323	1
H	-1.621545	-0.484997	-1.209263	1
H	-1.913215	-0.476597	0.551447	1
H	0.581695	-1.362777	-0.763913	1
H	0.223695	1.037483	-0.935913	1
Es	0.096860	-0.854734	-0.022799	99
Es	-1.716518	-0.618080	0.286449	99
Es	3.582312	0.631865	-0.179248	99
Es	-1.528824	-1.653777	-0.284978	99
Es	0.581205	0.554408	-0.016156	99
Es	0.332961	0.956850	0.597849	99
Es	3.221995	0.624146	-0.151174	99
Es	2.713318	0.505686	0.178917	99
Es	0.356686	0.893193	-0.607571	99
Es	0.315020	-0.196855	-0.028093	99
Es	-0.471479	2.163616	2.293660	99
Es	0.380887	-1.128987	-0.485182	99
Es	-0.516547	-0.859508	-0.144972	99
Es	2.669668	0.918922	-0.165834	99
Es	-0.339655	1.966977	2.019818	99
Es	-1.340169	-0.943282	-0.255579	99
Es	-0.433054	1.589325	1.529950	99
Es	-1.528719	-0.619086	-0.912026	99
Es	2.665481	0.412565	-0.351357	99
Es	1.355729	0.582353	-0.018041	99
Es	0.179762	-0.992097	0.281176	99
Es	0.081623	1.336522	1.139022	99
Es	-0.017824	1.928464	1.482802	99
Es	0.016962	1.505115	1.815628	99
Es	2.061800	0.599664	-0.064169	99
37
Properties=species:S:1:pos:R:3:Z:I:1 energy=-317.791113050123 field_type=dipole dipole="0.000000 0.000000 0.000000" charge=0
C	-1.340335	-0.943297	-0.255593	6
N	0.097005	-0.855067	-0.022213	7
C	0.581105	0.554442	-0.016333	6
C	0.081475	1.336742	1.139337	6
N	-0.339825	1.967232	2.020177	7
C	2.062205	0.599672	-0.064203	6
N	3.222425	0.624153	-0.151203	7
H	-1.634685	-1.996987	-0.292323	1
H	-1.621545	-0.484997	-1.209263	1
H	-1.913215	-0.476597	0.551447	1
H	0.581695	-1.362777	-0.763913	1
H	0.223695	1.037483	-0.935913	1
Es	0.081619	1.336513	1.139026	99
Es	-0.004009	1.488494	1.817229	99
Es	-1.528802	-1.653781	-0.285003	99
Es	3.582203	0.631666	-0.179409	99
Es	2.669503	0.917219	-0.175396	99
Es	-1.528793	-0.619012	-0.912000	99
Es	2.061796	0.599667	-0.064171	99
Es	0.356752	0.893303	-0.607447	99
Es	2.665738	0.404447	-0.344785	99
Es	0.179484	-0.991988	0.281246	99
Es	-0.339656	1.966978	2.019819	99
Es	2.713401	0.515744	0.182134	99
Es	-0.434299	1.611769	1.515061	99
Es	0.333003	0.956741	0.597835	99
Es	0.096853	-0.854697	-0.022810	99
Es	-1.340169	-0.943281	-0.255579	99
Es	1.355706	0.582295	-0.018111	99
Es	-1.716483	-0.618184	0.286471	99
Es	-0.516405	-0.859417	-0.145188	99
Es	0.314866	-0.196876	-0.028242	99
Es	0.581205	0.554408	-0.016157	99
Es	0.004170	1.922676	1.496173	99
Es	0.381045	-1.129240	-0.484986	99
Es	-0.471200	2.163680	2.293556	99
Es	3.221952	0.624143	-0.151172	99
37
Properties=species:S:1:pos:R:3:Z:I:1 energy=-317.791113050123 field_type=dipole dipole="0.000000 0.000000 0.000000" charge=0
C	-1.340335	-0.943297	-0.255593	6
N	0.097005	-0.855067	-0.022213	7
C	0.581105	0.554442	-0.016333	6
C	0.081475	1.336742	1.139337	6
N	-0.339825	1.967232	2.020177	7
C	2.062205	0.599672	-0.064203	6
N	3.222425	0.624153	-0.151203	7
H	-1.634685	-1.996987	-0.292323	1
H	-1.621545	-0.484997	-1.209263	1
H	-1.913215	-0.476597	0.551447	1
H	0.581695	-1.362777	-0.763913	1
H	0.223695	1.037483	-0.935913	1
Es	2.683231	0.872107	0.057223	99
Es	2.665632	0.629371	-0.422129	99
Es	-1.528749	-0.619059	-0.911970	99
Es	0.179505	-0.992781	0.281189	99
Es	0.380691	-1.128616	-0.485188	99
Es	-0.470880	2.162382	2.294149	99
Es	0.356784	0.893239	-0.607472	99
Es	0.581206	0.554406	-0.016157	99
Es	-0.516273	-0.859309	-0.145459	99
Es	-0.291312	1.422001	1.713026	99
Es	0.332934	0.957149	0.597312	99
Es	3.582059	0.632128	-0.178039	99
Es	-1.716540	-0.618150	0.286451	99
Es	2.700064	0.335515	0.025832	99
Es	0.081623	1.336526	1.139024	99
Es	2.061795	0.599668	-0.064172	99
Es	0.145284	1.735272	1.701425	99
Es	-1.340175	-0.943282	-0.255579	99
Es	3.221955	0.624143	-0.151171	99
Es	1.355492	0.582236	-0.018474	99
Es	-0.339656	1.966978	2.019818	99
Es	-0.288345	1.866617	1.413927	99
Es	-1.528807	-1.653771	-0.285039	99
Es	0.096855	-0.854721	-0.022814	99
Es	0.315105	-0.196781	-0.027619	99
37
Properties=species:S:1:pos:R:3:Z:I:1 energy=-317.791113050123 field_type=dipole dipole="0.000000 0.000000 0.000000" charge=0
C	-1.340335	-0.943297	-0.255593	6
N	0.097005	-0.855067	-0.022213	7
C	0.581105	0.554442	-0.016333	6
C	0.081475	1.336742	1.139337	6
N	-0.339825	1.967232	2.020177	7
C	2.062205	0.599672	-0.064203	6
N	3.222425	0.624153	-0.151203	7
H	-1.634685	-1.996987	-0.292323	1
H	-1.621545	-0.484997	-1.209263	1
H	-1.913215	-0.476597	0.551447	1
H	0.581695	-1.362777	-0.763913	1
H	0.223695	1.037483	-0.935913	1
Es	0.081635	1.336526	1.139032	99
Es	2.671482	0.924168	-0.114661	99
Es	0.179435	-0.992024	0.280873	99
Es	0.001877	1.492748	1.817279	99
Es	2.712901	0.459138	0.157457	99
Es	0.581202	0.554407	-0.016160	99
Es	-1.340171	-0.943282	-0.255579	99
Es	-0.339657	1.966977	2.019819	99
Es	2.664674	0.453691	-0.380913	99
Es	3.221983	0.624144	-0.151172	99
Es	-0.516541	-0.859426	-0.145263	99
Es	-0.434621	1.605994	1.518720	99
Es	-0.471223	2.163272	2.293302	99
Es	-1.528760	-0.619038	-0.911919	99
Es	0.356754	0.893390	-0.607479	99
Es	-1.716523	-0.618159	0.286432	99
Es	0.381036	-1.129133	-0.484860	99
Es	0.315117	-0.197042	-0.027927	99
Es	3.581765	0.632153	-0.179296	99
Es	2.061794	0.599666	-0.064169	99
Es	-0.001431	1.924628	1.492696	99
Es	1.355562	0.582315	-0.018110	99
Es	-1.528850	-1.653783	-0.285057	99
Es	0.333169	0.956689	0.597789	99
Es	0.096869	-0.854755	-0.022740	99
37
Properties=species:S:1:pos:R:3:Z:I:1 energy=-317.791113050123 field_type=dipole dipole="0.000000 0.000000 0.000000" charge=0
C	-1.340335	-0.943297	-0.255593	6
N	0.097005	-0.855067	-0.022213	7
C	0.581105	0.554442	-0.016333	6
C	0.081475	1.336742	1.139337	6
N	-0.339825	1.967232	2.020177	7
C	2.062205	0.599672	-0.064203	6
N	3.222425	0.624153	-0.151203	7
H	-1.634685	-1.996987	-0.292323	1
H	-1.621545	-0.484997	-1.209263	1
H	-1.913215	-0.476597	0.551447	1
H	0.581695	-1.362777	-0.763913	1
H	0.223695	1.037483	-0.935913	1
Es	-1.716598	-0.618182	0.286438	99
Es	-0.181289	1.415216	1.776886	99
Es	0.332840	0.956678	0.597412	99
Es	-1.528742	-0.619064	-0.911889	99
Es	2.687850	0.842799	0.095630	99
Es	0.381071	-1.129190	-0.484786	99
Es	0.314987	-0.196907	-0.028011	99
Es	2.061807	0.599671	-0.064187	99
Es	0.096864	-0.854733	-0.022791	99
Es	-1.340173	-0.943282	-0.255580	99
Es	-0.469976	2.162922	2.293808	99
Es	1.355370	0.582316	-0.018459	99
Es	0.081625	1.336519	1.139024	99
Es	2.666431	0.677219	-0.415489	99
Es	-1.528849	-1.653717	-0.285121	99
Es	-0.516534	-0.859647	-0.145069	99
Es	-0.339656	1.966978	2.019819	99
Es	2.695085	0.317346	-0.019282	99
Es	-0.377810	1.779306	1.433172	99
Es	0.179525	-0.991873	0.280744	99
Es	3.581680	0.631734	-0.177861	99
Es	0.124034	1.829185	1.618475	99
Es	0.356776	0.893413	-0.607456	99
Es	0.581207	0.554419	-0.016161	99
Es	3.221954	0.624142	-0.151171	99
