44
Properties=species:S:1:pos:R:3:Z:I:1 energy=-304.1219250186634 field_type=dipole dipole="0.000000 0.000000 0.000000" charge=0
C	-2.427419	-0.281313	-0.664499	6
N	-1.005979	-0.506733	-0.756579	7
C	-0.072889	0.466547	-0.561009	6
N	-0.216419	1.735357	-0.671159	7
C	1.273341	-0.031603	-0.195179	6
C	2.009301	0.558867	0.985141	6
C	1.471031	-0.836973	1.069860	6
H	-2.964019	-1.206513	-0.895469	1
H	-2.755859	0.481877	-1.377499	1
H	-2.702559	0.031087	0.347081	1
H	-0.717999	-1.439533	-0.478929	1
H	-1.172239	1.945887	-0.956849	1
H	1.885671	-0.295203	-1.052399	1
H	1.513221	1.339367	1.551430	1
H	3.079961	0.695667	0.889731	1
H	2.180311	-1.655853	1.042641	1
H	0.622541	-1.000933	1.723691	1
Es	-0.216761	1.734981	-0.671230	99
Es	-1.610959	-0.393794	-0.703172	99
Es	1.471038	-0.836835	1.069754	99
Es	0.887741	-0.947491	1.505151	99
Es	1.951433	-1.394256	1.048480	99
Es	-0.254270	1.251161	-0.353582	99
Es	-0.879445	-0.442208	-1.024486	99
Es	2.009217	0.558714	0.985047	99
Es	-1.005970	-0.506614	-0.756097	99
Es	-2.645799	0.240908	-1.146152	99
Es	1.656036	0.418269	0.292037	99
Es	-2.615281	-0.064046	0.026786	99
Es	1.273363	-0.031633	-0.195009	99
Es	0.594518	0.199658	-0.365855	99
Es	1.672516	1.074572	1.369687	99
Es	-0.105095	1.217975	-0.899588	99
Es	-0.072941	0.466354	-0.561037	99
Es	1.675855	-0.215422	-0.772032	99
Es	0.033405	1.989181	-0.618498	99
Es	1.266568	-0.590945	0.353500	99
Es	-0.656402	-0.094043	-0.564439	99
Es	-0.806879	1.850493	-0.843931	99
Es	-2.427246	-0.281345	-0.664516	99
Es	-2.783469	-0.913217	-0.819572	99
Es	2.736423	0.643359	0.918460	99
Es	1.807254	-0.163900	1.200769	99
Es	-0.839916	-1.055142	-0.565796	99
44
Properties=species:S:1:pos:R:3:Z:I:1 energy=-304.1219250186634 field_type=dipole dipole="0.000000 0.000000 0.000000" charge=0
C	-2.427419	-0.281313	-0.664499	6
N	-1.005979	-0.506733	-0.756579	7
C	-0.072889	0.466547	-0.561009	6
N	-0.216419	1.735357	-0.671159	7
C	1.273341	-0.031603	-0.195179	6
C	2.009301	0.558867	0.985141	6
C	1.471031	-0.836973	1.069860	6
H	-2.964019	-1.206513	-0.895469	1
H	-2.755859	0.481877	-1.377499	1
H	-2.702559	0.031087	0.347081	1
H	-0.717999	-1.439533	-0.478929	1
H	-1.172239	1.945887	-0.956849	1
H	1.885671	-0.295203	-1.052399	1
H	1.513221	1.339367	1.551430	1
H	3.079961	0.695667	0.889731	1
H	2.180311	-1.655853	1.042641	1
H	0.622541	-1.000933	1.723691	1
Es	1.807353	-0.163873	1.201106	99
Es	-0.254256	1.250770	-0.353658	99
Es	-0.879075	-0.441224	-1.025099	99
Es	2.736393	0.643315	0.918522	99
Es	1.672707	1.074455	1.369689	99
Es	-0.072941	0.466356	-0.561029	99
Es	-2.783439	-0.913220	-0.819642	99
Es	-2.615349	-0.064086	0.026787	99
Es	1.273363	-0.031634	-0.195007	99
Es	2.009222	0.558709	0.985053	99
Es	-2.427242	-0.281345	-0.664518	99
Es	1.471040	-0.836832	1.069756	99
Es	0.594618	0.199556	-0.365950	99
Es	0.033029	1.989237	-0.618037	99
Es	0.887776	-0.947518	1.505078	99
Es	1.676001	-0.215239	-0.771999	99
Es	-0.657157	-0.094453	-0.563470	99
Es	-0.806859	1.850408	-0.844004	99
Es	1.951297	-1.394264	1.048439	99
Es	-0.104716	1.218404	-0.899970	99
Es	-0.216767	1.734975	-0.671229	99
Es	-0.839632	-1.055376	-0.566432	99
Es	1.266333	-0.590962	0.352932	99
Es	1.655854	0.418310	0.292383	99
Es	-1.610909	-0.394065	-0.702745	99
Es	-2.645737	0.240950	-1.146170	99
Es	-1.005975	-0.506616	-0.756108	99
44
Properties=species:S:1:pos:R:3:Z:I:1 energy=-304.1219250186634 field_type=dipole dipole="0.000000 0.000000 0.000000" charge=0
C	-2.427419	-0.281313	-0.664499	6
N	-1.005979	-0.506733	-0.756579	7
C	-0.072889	0.466547	-0.561009	6
N	-0.216419	1.735357	-0.671159	7
C	1.273341	-0.031603	-0.195179	6
C	2.009301	0.558867	0.985141	6
C	1.471031	-0.836973	1.069860	6
H	-2.964019	-1.206513	-0.895469	1
H	-2.755859	0.481877	-1.377499	1
H	-2.702559	0.031087	0.347081	1
H	-0.717999	-1.439533	-0.478929	1
H	-1.172239	1.945887	-0.956849	1
H	1.885671	-0.295203	-1.052399	1
H	1.513221	1.339367	1.551430	1
H	3.079961	0.695667	0.889731	1
H	2.180311	-1.655853	1.042641	1
H	0.622541	-1.000933	1.723691	1
Es	-2.783468	-0.913205	-0.819630	99
Es	-0.806979	1.850486	-0.844197	99
Es	-2.645737	0.240943	-1.146155	99
Es	1.675842	-0.215364	-0.771943	99
Es	-2.615346	-0.064081	0.026763	99
Es	1.266249	-0.591185	0.353025	99
Es	2.009215	0.558709	0.985049	99
Es	-0.072943	0.466353	-0.561031	99
Es	-0.216764	1.734971	-0.671222	99
Es	-2.427241	-0.281346	-0.664517	99
Es	1.807457	-0.163866	1.201241	99
Es	1.655963	0.418701	0.292040	99
Es	0.887900	-0.947505	1.504999	99
Es	1.471039	-0.836832	1.069754	99
Es	1.672702	1.074344	1.369634	99
Es	0.594859	0.199493	-0.366155	99
Es	-1.610818	-0.394003	-0.702245	99
Es	0.033495	1.988826	-0.620469	99
Es	2.736255	0.643462	0.918616	99
Es	-0.879718	-0.441578	-1.024985	99
Es	-0.839565	-1.055382	-0.566513	99
Es	-0.105555	1.216976	-0.898571	99
Es	-1.005947	-0.506578	-0.755992	99
Es	-0.253873	1.252504	-0.352219	99
Es	1.951259	-1.394221	1.048585	99
Es	1.273366	-0.031623	-0.195010	99
Es	-0.656714	-0.094261	-0.564173	99
44
Properties=species:S:1:pos:R:3:Z:I:1 energy=-304.1219250186634 field_type=dipole dipole="0.000000 0.000000 0.000000" charge=0
C	-2.427419	-0.281313	-0.664499	6
N	-1.005979	-0.506733	-0.756579	7
C	-0.072889	0.466547	-0.561009	6
N	-0.216419	1.735357	-0.671159	7
C	1.273341	-0.031603	-0.195179	6
C	2.009301	0.558867	0.985141	6
C	1.471031	-0.836973	1.069860	6
H	-2.964019	-1.206513	-0.895469	1
H	-2.755859	0.481877	-1.377499	1
H	-2.702559	0.031087	0.347081	1
H	-0.717999	-1.439533	-0.478929	1
H	-1.172239	1.945887	-0.956849	1
H	1.885671	-0.295203	-1.052399	1
H	1.513221	1.339367	1.551430	1
H	3.079961	0.695667	0.889731	1
H	2.180311	-1.655853	1.042641	1
H	0.622541	-1.000933	1.723691	1
Es	-0.072942	0.466354	-0.561032	99
Es	1.471047	-0.836823	1.069760	99
Es	-2.783478	-0.913230	-0.819640	99
Es	-0.657652	-0.094897	-0.563126	99
Es	1.675765	-0.215184	-0.771904	99
Es	-2.427245	-0.281346	-0.664518	99
Es	1.672751	1.074277	1.369586	99
Es	-0.254112	1.250891	-0.353627	99
Es	1.807496	-0.164019	1.201645	99
Es	-1.611035	-0.394044	-0.702999	99
Es	-0.216754	1.734980	-0.671227	99
Es	1.655992	0.418883	0.291904	99
Es	0.594983	0.199548	-0.366004	99
Es	-2.645756	0.240935	-1.146112	99
Es	-0.839621	-1.055220	-0.566222	99
Es	2.736150	0.643522	0.918696	99
Es	-2.615343	-0.064099	0.026734	99
Es	0.888043	-0.947540	1.504829	99
Es	1.273364	-0.031629	-0.195011	99
Es	0.032850	1.988732	-0.618203	99
Es	1.951163	-1.394181	1.048692	99
Es	-0.806979	1.850800	-0.844014	99
Es	-1.005911	-0.506551	-0.755977	99
Es	1.266174	-0.591373	0.352756	99
Es	-0.878565	-0.441063	-1.025528	99
Es	-0.104664	1.218313	-0.899825	99
Es	2.009211	0.558698	0.985047	99
44
Properties=species:S:1:pos:R:3:Z:I:1 energy=-304.1219250186634 field_type=dipole dipole="0.000000 0.000000 0.000000" charge=0
C	-2.427419	-0.281313	-0.664499	6
N	-1.005979	-0.506733	-0.756579	7
C	-0.072889	0.466547	-0.561009	6
N	-0.216419	1.735357	-0.671159	7
C	1.273341	-0.031603	-0.195179	6
C	2.009301	0.558867	0.985141	6
C	1.471031	-0.836973	1.069860	6
H	-2.964019	-1.206513	-0.895469	1
H	-2.755859	0.481877	-1.377499	1
H	-2.702559	0.031087	0.347081	1
H	-0.717999	-1.439533	-0.478929	1
H	-1.172239	1.945887	-0.956849	1
H	1.885671	-0.295203	-1.052399	1
H	1.513221	1.339367	1.551430	1
H	3.079961	0.695667	0.889731	1
H	2.180311	-1.655853	1.042641	1
H	0.622541	-1.000933	1.723691	1
Es	1.807703	-0.163913	1.201962	99
Es	-0.216767	1.734977	-0.671225	99
Es	-2.645680	0.240917	-1.146110	99
Es	1.273367	-0.031634	-0.195002	99
Es	2.736031	0.643485	0.918730	99
Es	0.888058	-0.947602	1.504869	99
Es	-0.876677	-0.439209	-1.027102	99
Es	1.951018	-1.394120	1.048603	99
Es	1.266128	-0.591509	0.352737	99
Es	-0.072943	0.466355	-0.561030	99
Es	0.032602	1.988242	-0.617519	99
Es	-0.104331	1.218643	-0.900156	99
Es	1.672878	1.074325	1.369457	99
Es	-0.806937	1.851324	-0.844159	99
Es	-1.611017	-0.394304	-0.703331	99
Es	-0.659464	-0.096408	-0.560583	99
Es	1.471041	-0.836830	1.069754	99
Es	-1.005877	-0.506509	-0.755924	99
Es	-0.839720	-1.055428	-0.566855	99
Es	1.675645	-0.215163	-0.771886	99
Es	-2.783552	-0.913184	-0.819648	99
Es	0.595087	0.199514	-0.365993	99
Es	-2.427246	-0.281345	-0.664517	99
Es	1.656007	0.418928	0.291712	99
Es	-0.254263	1.250519	-0.353859	99
Es	2.009214	0.558703	0.985048	99
Es	-2.615369	-0.064041	0.026709	99
44
Properties=species:S:1:pos:R:3:Z:I:1 energy=-304.1219250186634 field_type=dipole dipole="0.000000 0.000000 0.000000" charge=0
C	-2.427419	-0.281313	-0.664499	6
N	-1.005979	-0.506733	-0.756579	7
C	-0.072889	0.466547	-0.561009	6
N	-0.216419	1.735357	-0.671159	7
C	1.273341	-0.031603	-0.195179	6
C	2.009301	0.558867	0.985141	6
C	1.471031	-0.836973	1.069860	6
H	-2.964019	-1.206513	-0.895469	1
H	-2.755859	0.481877	-1.377499	1
H	-2.702559	0.031087	0.347081	1
H	-0.717999	-1.439533	-0.478929	1
H	-1.172239	1.945887	-0.956849	1
H	1.885671	-0.295203	-1.052399	1
H	1.513221	1.339367	1.551430	1
H	3.079961	0.695667	0.889731	1
H	2.180311	-1.655853	1.042641	1
H	0.622541	-1.000933	1.723691	1
Es	-2.427247	-0.281345	-0.664517	99
Es	-0.656888	-0.093961	-0.564439	99
Es	-0.879189	-0.442813	-1.025363	99
Es	-0.104365	1.218575	-0.899987	99
Es	-2.783514	-0.913208	-0.819605	99
Es	-2.615338	-0.064110	0.026676	99
Es	1.266085	-0.591642	0.352767	99
Es	-0.253961	1.250649	-0.353770	99
Es	1.672951	1.074259	1.369452	99
Es	0.595234	0.199429	-0.366014	99
Es	-0.072940	0.466359	-0.561031	99
Es	-0.216762	1.734977	-0.671228	99
Es	-2.645771	0.240954	-1.146099	99
Es	1.273365	-0.031634	-0.195006	99
Es	-1.611049	-0.394103	-0.703388	99
Es	-0.807097	1.850995	-0.844035	99
Es	0.888152	-0.947614	1.504804	99
Es	1.950936	-1.394072	1.048676	99
Es	1.471041	-0.836832	1.069756	99
Es	1.656040	0.419288	0.291506	99
Es	-0.839887	-1.054464	-0.564909	99
Es	1.675566	-0.215192	-0.771840	99
Es	2.009211	0.558700	0.985047	99
Es	1.807737	-0.164028	1.202105	99
Es	-1.005794	-0.506413	-0.755739	99
Es	2.735931	0.643526	0.918758	99
Es	0.032489	1.988455	-0.617896	99
44
Properties=species:S:1:pos:R:3:Z:I:1 energy=-304.1219250186634 field_type=dipole dipole="0.000000 0.000000 0.000000" charge=0
C	-2.427419	-0.281313	-0.664499	6
N	-1.005979	-0.506733	-0.756579	7
C	-0.072889	0.466547	-0.561009	6
N	-0.216419	1.735357	-0.671159	7
C	1.273341	-0.031603	-0.195179	6
C	2.009301	0.558867	0.985141	6
C	1.471031	-0.836973	1.069860	6
H	-2.964019	-1.206513	-0.895469	1
H	-2.755859	0.481877	-1.377499	1
H	-2.702559	0.031087	0.347081	1
H	-0.717999	-1.439533	-0.478929	1
H	-1.172239	1.945887	-0.956849	1
H	1.885671	-0.295203	-1.052399	1
H	1.513221	1.339367	1.551430	1
H	3.079961	0.695667	0.889731	1
H	2.180311	-1.655853	1.042641	1
H	0.622541	-1.000933	1.723691	1
Es	-2.615365	-0.064081	0.026660	99
Es	-0.104506	1.218222	-0.899832	99
Es	-0.072942	0.466356	-0.561030	99
Es	-0.839694	-1.055198	-0.566471	99
Es	-2.427247	-0.281345	-0.664518	99
Es	0.595364	0.199458	-0.366027	99
Es	1.807900	-0.163926	1.202355	99
Es	2.009212	0.558703	0.985047	99
Es	1.675460	-0.215152	-0.771776	99
Es	1.471041	-0.836829	1.069752	99
Es	-1.005977	-0.506623	-0.756148	99
Es	-0.253921	1.251025	-0.353560	99
Es	0.888244	-0.947660	1.504742	99
Es	1.273366	-0.031634	-0.195004	99
Es	-1.610916	-0.394135	-0.702820	99
Es	2.735841	0.643532	0.918808	99
Es	1.656084	0.419378	0.291428	99
Es	-0.659067	-0.096057	-0.561317	99
Es	-0.877146	-0.439732	-1.027065	99
Es	1.265922	-0.591836	0.352593	99
Es	1.673033	1.074208	1.369436	99
Es	-0.216760	1.734976	-0.671227	99
Es	-2.783530	-0.913201	-0.819611	99
Es	-2.645761	0.240908	-1.146087	99
Es	-0.807083	1.851201	-0.844012	99
Es	1.950830	-1.394033	1.048673	99
Es	0.032552	1.988212	-0.618310	99
44
Properties=species:S:1:pos:R:3:Z:I:1 energy=-304.1219250186634 field_type=dipole dipole="0.000000 0.000000 0.000000" charge=0
C	-2.427419	-0.281313	-0.664499	6
N	-1.005979	-0.506733	-0.756579	7
C	-0.072889	0.466547	-0.561009	6
N	-0.216419	1.735357	-0.671159	7
C	1.273341	-0.031603	-0.195179	6
C	2.009301	0.558867	0.985141	6
C	1.471031	-0.836973	1.069860	6
H	-2.964019	-1.206513	-0.895469	1
H	-2.755859	0.481877	-1.377499	1
H	-2.702559	0.031087	0.347081	1
H	-0.717999	-1.439533	-0.478929	1
H	-1.172239	1.945887	-0.956849	1
H	1.885671	-0.295203	-1.052399	1
H	1.513221	1.339367	1.551430	1
H	3.079961	0.695667	0.889731	1
H	2.180311	-1.655853	1.042641	1
H	0.622541	-1.000933	1.723691	1
Es	-0.216758	1.734982	-0.671229	99
Es	1.265867	-0.591881	0.352404	99
Es	-0.839690	-1.055437	-0.567044	99
Es	-0.660450	-0.097096	-0.559470	99
Es	1.273367	-0.031629	-0.195005	99
Es	-2.783573	-0.913227	-0.819525	99
Es	-2.427248	-0.281345	-0.664517	99
Es	0.032411	1.987905	-0.618502	99
Es	0.595463	0.199396	-0.366028	99
Es	1.807930	-0.164102	1.202543	99
Es	1.675366	-0.215085	-0.771746	99
Es	-0.875574	-0.438352	-1.027369	99
Es	1.471041	-0.836828	1.069751	99
Es	2.009213	0.558702	0.985047	99
Es	-2.615325	-0.063992	0.026615	99
Es	2.735759	0.643570	0.918844	99
Es	0.888307	-0.947752	1.504671	99
Es	-0.253812	1.251229	-0.353397	99
Es	-0.072942	0.466357	-0.561031	99
Es	-2.645772	0.240851	-1.146101	99
Es	1.673104	1.074107	1.369480	99
Es	-1.005866	-0.506511	-0.755970	99
Es	-0.104467	1.218054	-0.899932	99
Es	1.656173	0.419694	0.291431	99
Es	-0.807099	1.851452	-0.843923	99
Es	-1.611237	-0.394347	-0.703948	99
Es	1.950746	-1.393980	1.048630	99
44
Properties=species:S:1:pos:R:3:Z:I:1 energy=-304.1219250186634 field_type=dipole dipole="0.000000 0.000000 0.000000" charge=0
C	-2.427419	-0.281313	-0.664499	6
N	-1.005979	-0.506733	-0.756579	7
C	-0.072889	0.466547	-0.561009	6
N	-0.216419	1.735357	-0.671159	7
C	1.273341	-0.031603	-0.195179	6
C	2.009301	0.558867	0.985141	6
C	1.471031	-0.836973	1.069860	6
H	-2.964019	-1.206513	-0.895469	1
H	-2.755859	0.481877	-1.377499	1
H	-2.702559	0.031087	0.347081	1
H	-0.717999	-1.439533	-0.478929	1
H	-1.172239	1.945887	-0.956849	1
H	1.885671	-0.295203	-1.052399	1
H	1.513221	1.339367	1.551430	1
H	3.079961	0.695667	0.889731	1
H	2.180311	-1.655853	1.042641	1
H	0.622541	-1.000933	1.723691	1
Es	-0.072946	0.466360	-0.561011	99
Es	0.595658	0.199409	-0.366110	99
Es	-1.005984	-0.506634	-0.756168	99
Es	2.735602	0.643584	0.918885	99
Es	-0.877879	-0.440401	-1.026916	99
Es	1.808143	-0.163888	1.202799	99
Es	1.675278	-0.215085	-0.771695	99
Es	1.471041	-0.836827	1.069751	99
Es	-2.615378	-0.064064	0.026619	99
Es	1.273367	-0.031635	-0.195002	99
Es	1.673190	1.074132	1.369376	99
Es	-2.427248	-0.281345	-0.664517	99
Es	0.032654	1.987778	-0.619603	99
Es	1.950649	-1.393934	1.048736	99
Es	-2.783576	-0.913179	-0.819603	99
Es	-0.216743	1.734993	-0.671228	99
Es	1.265702	-0.592207	0.352346	99
Es	-0.807028	1.851420	-0.844288	99
Es	-0.839636	-1.055017	-0.566191	99
Es	-0.658497	-0.095629	-0.562288	99
Es	0.888409	-0.947714	1.504643	99
Es	2.009212	0.558701	0.985046	99
Es	1.656175	0.419692	0.291200	99
Es	-1.610815	-0.394043	-0.702289	99
Es	-0.104746	1.216840	-0.899048	99
Es	-0.253909	1.252549	-0.352714	99
Es	-2.645762	0.240883	-1.146050	99
44
Properties=species:S:1:pos:R:3:Z:I:1 energy=-304.1219250186634 field_type=dipole dipole="0.000000 0.000000 0.000000" charge=0
C	-2.427419	-0.281313	-0.664499	6
N	-1.005979	-0.506733	-0.756579	7
C	-0.072889	0.466547	-0.561009	6
N	-0.216419	1.735357	-0.671159	7
C	1.273341	-0.031603	-0.195179	6
C	2.009301	0.558867	0.985141	6
C	1.471031	-0.836973	1.069860	6
H	-2.964019	-1.206513	-0.895469	1
H	-2.755859	0.481877	-1.377499	1
H	-2.702559	0.031087	0.347081	1
H	-0.717999	-1.439533	-0.478929	1
H	-1.172239	1.945887	-0.956849	1
H	1.885671	-0.295203	-1.052399	1
H	1.513221	1.339367	1.551430	1
H	3.079961	0.695667	0.889731	1
H	2.180311	-1.655853	1.042641	1
H	0.622541	-1.000933	1.723691	1
Es	0.032241	1.987666	-0.618416	99
Es	-2.645798	0.240871	-1.146059	99
Es	1.673248	1.074094	1.369273	99
Es	-0.253750	1.250921	-0.353455	99
Es	-2.783581	-0.913170	-0.819557	99
Es	1.273365	-0.031631	-0.195007	99
Es	-0.875815	-0.437970	-1.029812	99
Es	1.808155	-0.163878	1.203064	99
Es	1.950579	-1.393912	1.048811	99
Es	-1.005830	-0.506467	-0.755904	99
Es	-0.104404	1.218316	-0.899918	99
Es	-0.807092	1.851666	-0.843951	99
Es	-1.610575	-0.394221	-0.701854	99
Es	1.656256	0.419755	0.291211	99
Es	-2.427247	-0.281345	-0.664517	99
Es	0.595772	0.199482	-0.366054	99
Es	-0.072942	0.466359	-0.561025	99
Es	2.009210	0.558698	0.985045	99
Es	-0.660935	-0.097817	-0.559121	99
Es	-0.216767	1.734974	-0.671233	99
Es	-2.615391	-0.064066	0.026555	99
Es	1.675177	-0.215125	-0.771649	99
Es	1.265599	-0.592284	0.352168	99
Es	0.888469	-0.947716	1.504551	99
Es	2.735602	0.643608	0.918900	99
Es	1.471040	-0.836818	1.069742	99
Es	-0.839655	-1.055253	-0.567109	99
