44
Properties=species:S:1:pos:R:3:Z:I:1 energy=-304.0785988278846 field_type=dipole dipole="0.000000 0.000000 0.000000" charge=0
C	-2.419239	-0.403414	0.446569	6
N	-0.955349	-0.527893	0.470399	7
C	-0.612509	-1.958713	0.501399	6
N	-0.331709	0.191466	-0.503861	7
C	0.799371	0.689847	-0.117031	6
C	1.631651	1.496616	-1.031921	6
C	2.803851	1.990706	-0.620461	6
H	-2.706569	0.652766	0.497399	1
H	-2.870899	-0.898293	1.313389	1
H	-2.846879	-0.828744	-0.468401	1
H	-1.069889	-2.453084	1.365529	1
H	0.471051	-2.088824	0.599049	1
H	-0.934909	-2.469913	-0.412691	1
H	1.194951	0.539766	0.904809	1
H	1.247261	1.660766	-2.031770	1
H	3.185201	1.823457	0.381899	1
H	3.414621	2.583486	-1.294311	1
Es	3.062497	1.877713	0.056945	99
Es	1.213780	1.091065	-0.579716	99
Es	1.074909	0.588940	0.571009	99
Es	-0.933495	-2.286732	1.087825	99
Es	-2.613713	0.315178	0.479415	99
Es	-0.800864	-1.142673	0.439427	99
Es	-0.495306	0.240834	-0.844814	99
Es	-2.419105	-0.403433	0.446585	99
Es	2.051622	1.993702	-0.712487	99
Es	-0.612539	-1.958579	0.501406	99
Es	-0.642615	-0.186795	-0.026421	99
Es	2.345970	1.461881	-0.914320	99
Es	0.295282	0.163985	-0.423276	99
Es	0.799446	0.689848	-0.117079	99
Es	-1.592151	-0.487228	0.416583	99
Es	-0.331464	0.191367	-0.503304	99
Es	-2.716231	-0.750055	1.037075	99
Es	3.222829	2.392370	-1.068703	99
Es	1.631552	1.496550	-1.031906	99
Es	-0.849797	-0.396882	0.781147	99
Es	0.042706	0.645544	-0.240644	99
Es	-0.955576	-0.528178	0.469683	99
Es	0.127941	-2.044317	0.565035	99
Es	1.374118	1.607002	-1.701411	99
Es	2.803940	1.990744	-0.620429	99
Es	-0.838432	-2.311391	-0.127504	99
Es	-2.714604	-0.702089	-0.182092	99
44
Properties=species:S:1:pos:R:3:Z:I:1 energy=-304.0785988278846 field_type=dipole dipole="0.000000 0.000000 0.000000" charge=0
C	-2.419239	-0.403414	0.446569	6
N	-0.955349	-0.527893	0.470399	7
C	-0.612509	-1.958713	0.501399	6
N	-0.331709	0.191466	-0.503861	7
C	0.799371	0.689847	-0.117031	6
C	1.631651	1.496616	-1.031921	6
C	2.803851	1.990706	-0.620461	6
H	-2.706569	0.652766	0.497399	1
H	-2.870899	-0.898293	1.313389	1
H	-2.846879	-0.828744	-0.468401	1
H	-1.069889	-2.453084	1.365529	1
H	0.471051	-2.088824	0.599049	1
H	-0.934909	-2.469913	-0.412691	1
H	1.194951	0.539766	0.904809	1
H	1.247261	1.660766	-2.031770	1
H	3.185201	1.823457	0.381899	1
H	3.414621	2.583486	-1.294311	1
Es	-2.419101	-0.403434	0.446587	99
Es	2.346005	1.461821	-0.914356	99
Es	1.631550	1.496555	-1.031899	99
Es	-0.850202	-0.396574	0.780777	99
Es	-0.955586	-0.528178	0.469703	99
Es	-0.612538	-1.958578	0.501406	99
Es	-0.495359	0.241043	-0.844523	99
Es	0.799437	0.689860	-0.117074	99
Es	-0.331469	0.191373	-0.503319	99
Es	1.374108	1.606991	-1.701360	99
Es	-0.800404	-1.142647	0.440015	99
Es	-0.838394	-2.311391	-0.127490	99
Es	3.222893	2.392309	-1.068674	99
Es	-0.642687	-0.186769	-0.026419	99
Es	1.213697	1.091182	-0.579717	99
Es	2.051615	1.993791	-0.712565	99
Es	3.062441	1.877722	0.056968	99
Es	-2.613704	0.315206	0.479317	99
Es	-2.716308	-0.750024	1.037081	99
Es	0.127906	-2.044391	0.565090	99
Es	1.074869	0.589016	0.571064	99
Es	-0.933528	-2.286721	1.087772	99
Es	0.042930	0.645350	-0.240654	99
Es	-1.592132	-0.487621	0.416375	99
Es	2.803940	1.990744	-0.620430	99
Es	-2.714582	-0.702083	-0.182008	99
Es	0.295302	0.163815	-0.423641	99
44
Properties=species:S:1:pos:R:3:Z:I:1 energy=-304.0785988278846 field_type=dipole dipole="0.000000 0.000000 0.000000" charge=0
C	-2.419239	-0.403414	0.446569	6
N	-0.955349	-0.527893	0.470399	7
C	-0.612509	-1.958713	0.501399	6
N	-0.331709	0.191466	-0.503861	7
C	0.799371	0.689847	-0.117031	6
C	1.631651	1.496616	-1.031921	6
C	2.803851	1.990706	-0.620461	6
H	-2.706569	0.652766	0.497399	1
H	-2.870899	-0.898293	1.313389	1
H	-2.846879	-0.828744	-0.468401	1
H	-1.069889	-2.453084	1.365529	1
H	0.471051	-2.088824	0.599049	1
H	-0.934909	-2.469913	-0.412691	1
H	1.194951	0.539766	0.904809	1
H	1.247261	1.660766	-2.031770	1
H	3.185201	1.823457	0.381899	1
H	3.414621	2.583486	-1.294311	1
Es	-2.419106	-0.403433	0.446584	99
Es	-2.613778	0.315179	0.479427	99
Es	1.074907	0.588973	0.571089	99
Es	3.062518	1.877645	0.056931	99
Es	2.345886	1.462011	-0.914230	99
Es	1.631547	1.496551	-1.031902	99
Es	-0.642980	-0.186689	-0.026394	99
Es	-0.955595	-0.528173	0.469712	99
Es	2.803942	1.990743	-0.620429	99
Es	2.051664	1.993643	-0.712538	99
Es	0.295248	0.164099	-0.423210	99
Es	0.127942	-2.044384	0.565036	99
Es	-0.800406	-1.142657	0.439888	99
Es	3.222862	2.392357	-1.068782	99
Es	0.799447	0.689852	-0.117077	99
Es	-1.592180	-0.487480	0.416548	99
Es	-0.494868	0.240773	-0.844621	99
Es	-2.714588	-0.702076	-0.182055	99
Es	1.213739	1.091109	-0.579719	99
Es	-0.933469	-2.286753	1.087752	99
Es	-2.716250	-0.750070	1.037006	99
Es	-0.612538	-1.958576	0.501406	99
Es	-0.838405	-2.311407	-0.127413	99
Es	1.374122	1.606965	-1.701448	99
Es	-0.331477	0.191369	-0.503314	99
Es	0.042670	0.645572	-0.240833	99
Es	-0.850154	-0.396775	0.780614	99
44
Properties=species:S:1:pos:R:3:Z:I:1 energy=-304.0785988278846 field_type=dipole dipole="0.000000 0.000000 0.000000" charge=0
C	-2.419239	-0.403414	0.446569	6
N	-0.955349	-0.527893	0.470399	7
C	-0.612509	-1.958713	0.501399	6
N	-0.331709	0.191466	-0.503861	7
C	0.799371	0.689847	-0.117031	6
C	1.631651	1.496616	-1.031921	6
C	2.803851	1.990706	-0.620461	6
H	-2.706569	0.652766	0.497399	1
H	-2.870899	-0.898293	1.313389	1
H	-2.846879	-0.828744	-0.468401	1
H	-1.069889	-2.453084	1.365529	1
H	0.471051	-2.088824	0.599049	1
H	-0.934909	-2.469913	-0.412691	1
H	1.194951	0.539766	0.904809	1
H	1.247261	1.660766	-2.031770	1
H	3.185201	1.823457	0.381899	1
H	3.414621	2.583486	-1.294311	1
Es	-0.612540	-1.958578	0.501407	99
Es	1.631549	1.496561	-1.031897	99
Es	0.295270	0.163959	-0.423444	99
Es	-0.494820	0.240851	-0.844432	99
Es	2.051656	1.993548	-0.712503	99
Es	-0.800170	-1.142748	0.440308	99
Es	2.345890	1.462133	-0.914281	99
Es	0.799437	0.689856	-0.117076	99
Es	-1.592170	-0.487590	0.416258	99
Es	-2.613826	0.315203	0.479333	99
Es	2.803941	1.990743	-0.620429	99
Es	-0.850783	-0.396976	0.780211	99
Es	-2.714570	-0.702148	-0.181966	99
Es	-2.716240	-0.750023	1.037015	99
Es	0.042806	0.645495	-0.240860	99
Es	0.127937	-2.044377	0.565069	99
Es	-0.838385	-2.311401	-0.127440	99
Es	3.222785	2.392388	-1.068796	99
Es	-0.955574	-0.528147	0.469722	99
Es	1.374194	1.607019	-1.701442	99
Es	-2.419109	-0.403431	0.446585	99
Es	-0.933504	-2.286749	1.087747	99
Es	1.213711	1.091117	-0.579740	99
Es	1.074830	0.588997	0.571091	99
Es	3.062555	1.877630	0.057009	99
Es	-0.331458	0.191374	-0.503310	99
Es	-0.642714	-0.186335	-0.026112	99
44
Properties=species:S:1:pos:R:3:Z:I:1 energy=-304.0785988278846 field_type=dipole dipole="0.000000 0.000000 0.000000" charge=0
C	-2.419239	-0.403414	0.446569	6
N	-0.955349	-0.527893	0.470399	7
C	-0.612509	-1.958713	0.501399	6
N	-0.331709	0.191466	-0.503861	7
C	0.799371	0.689847	-0.117031	6
C	1.631651	1.496616	-1.031921	6
C	2.803851	1.990706	-0.620461	6
H	-2.706569	0.652766	0.497399	1
H	-2.870899	-0.898293	1.313389	1
H	-2.846879	-0.828744	-0.468401	1
H	-1.069889	-2.453084	1.365529	1
H	0.471051	-2.088824	0.599049	1
H	-0.934909	-2.469913	-0.412691	1
H	1.194951	0.539766	0.904809	1
H	1.247261	1.660766	-2.031770	1
H	3.185201	1.823457	0.381899	1
H	3.414621	2.583486	-1.294311	1
Es	1.374191	1.606978	-1.701427	99
Es	2.345864	1.462058	-0.914277	99
Es	0.042929	0.645318	-0.240838	99
Es	1.213699	1.091177	-0.579792	99
Es	-2.419111	-0.403432	0.446584	99
Es	2.803940	1.990742	-0.620430	99
Es	1.074824	0.588998	0.571127	99
Es	-0.331477	0.191373	-0.503322	99
Es	-2.716277	-0.750038	1.036982	99
Es	0.127893	-2.044427	0.565014	99
Es	-2.714603	-0.702065	-0.182007	99
Es	0.799437	0.689854	-0.117077	99
Es	-2.613789	0.315171	0.479406	99
Es	-0.612538	-1.958579	0.501406	99
Es	3.062509	1.877635	0.057022	99
Es	3.222820	2.392373	-1.068754	99
Es	-0.850283	-0.397490	0.780091	99
Es	0.295169	0.164009	-0.423395	99
Es	1.631552	1.496552	-1.031900	99
Es	-0.800417	-1.142646	0.439752	99
Es	-0.955582	-0.528182	0.469726	99
Es	2.051709	1.993639	-0.712598	99
Es	-0.642838	-0.186313	-0.026051	99
Es	-0.838382	-2.311427	-0.127358	99
Es	-1.592324	-0.487163	0.416778	99
Es	-0.494722	0.240991	-0.844431	99
Es	-0.933493	-2.286736	1.087798	99
44
Properties=species:S:1:pos:R:3:Z:I:1 energy=-304.0785988278846 field_type=dipole dipole="0.000000 0.000000 0.000000" charge=0
C	-2.419239	-0.403414	0.446569	6
N	-0.955349	-0.527893	0.470399	7
C	-0.612509	-1.958713	0.501399	6
N	-0.331709	0.191466	-0.503861	7
C	0.799371	0.689847	-0.117031	6
C	1.631651	1.496616	-1.031921	6
C	2.803851	1.990706	-0.620461	6
H	-2.706569	0.652766	0.497399	1
H	-2.870899	-0.898293	1.313389	1
H	-2.846879	-0.828744	-0.468401	1
H	-1.069889	-2.453084	1.365529	1
H	0.471051	-2.088824	0.599049	1
H	-0.934909	-2.469913	-0.412691	1
H	1.194951	0.539766	0.904809	1
H	1.247261	1.660766	-2.031770	1
H	3.185201	1.823457	0.381899	1
H	3.414621	2.583486	-1.294311	1
Es	-0.955561	-0.528155	0.469753	99
Es	1.631550	1.496559	-1.031897	99
Es	-2.419112	-0.403432	0.446585	99
Es	3.062491	1.877647	0.057047	99
Es	0.295199	0.163994	-0.423471	99
Es	-2.613788	0.315103	0.479419	99
Es	-0.933406	-2.286757	1.087759	99
Es	-0.331472	0.191362	-0.503305	99
Es	-2.716313	-0.750036	1.036986	99
Es	1.213651	1.091276	-0.579806	99
Es	2.345838	1.461999	-0.914193	99
Es	1.074792	0.589066	0.571199	99
Es	2.803940	1.990743	-0.620429	99
Es	-0.612536	-1.958575	0.501406	99
Es	-2.714612	-0.702020	-0.182024	99
Es	1.374174	1.607030	-1.701478	99
Es	2.051804	1.993484	-0.712606	99
Es	-0.838437	-2.311431	-0.127294	99
Es	-0.850463	-0.397085	0.780202	99
Es	-0.800290	-1.142665	0.439994	99
Es	0.799437	0.689856	-0.117076	99
Es	3.222806	2.392427	-1.068804	99
Es	-0.643221	-0.186513	-0.026210	99
Es	-1.592189	-0.487403	0.416509	99
Es	0.042907	0.645431	-0.240963	99
Es	-0.494423	0.240907	-0.844220	99
Es	0.127933	-2.044441	0.564947	99
44
Properties=species:S:1:pos:R:3:Z:I:1 energy=-304.0785988278846 field_type=dipole dipole="0.000000 0.000000 0.000000" charge=0
C	-2.419239	-0.403414	0.446569	6
N	-0.955349	-0.527893	0.470399	7
C	-0.612509	-1.958713	0.501399	6
N	-0.331709	0.191466	-0.503861	7
C	0.799371	0.689847	-0.117031	6
C	1.631651	1.496616	-1.031921	6
C	2.803851	1.990706	-0.620461	6
H	-2.706569	0.652766	0.497399	1
H	-2.870899	-0.898293	1.313389	1
H	-2.846879	-0.828744	-0.468401	1
H	-1.069889	-2.453084	1.365529	1
H	0.471051	-2.088824	0.599049	1
H	-0.934909	-2.469913	-0.412691	1
H	1.194951	0.539766	0.904809	1
H	1.247261	1.660766	-2.031770	1
H	3.185201	1.823457	0.381899	1
H	3.414621	2.583486	-1.294311	1
Es	0.127886	-2.044426	0.565012	99
Es	0.799439	0.689852	-0.117078	99
Es	2.345842	1.462101	-0.914215	99
Es	-1.592216	-0.487314	0.416585	99
Es	0.295246	0.164032	-0.423579	99
Es	-0.612539	-1.958574	0.501406	99
Es	-0.933451	-2.286809	1.087733	99
Es	3.222817	2.392432	-1.068832	99
Es	2.803940	1.990743	-0.620430	99
Es	-0.331525	0.191368	-0.503366	99
Es	-0.643443	-0.186716	-0.026277	99
Es	1.074770	0.589032	0.571176	99
Es	-0.838332	-2.311424	-0.127325	99
Es	-2.714603	-0.702066	-0.181951	99
Es	3.062477	1.877647	0.057059	99
Es	-0.955573	-0.528183	0.469705	99
Es	-2.419111	-0.403432	0.446584	99
Es	1.631555	1.496549	-1.031902	99
Es	-2.613840	0.315147	0.479378	99
Es	2.051796	1.993408	-0.712598	99
Es	1.374166	1.607076	-1.701458	99
Es	-0.850168	-0.397220	0.780508	99
Es	-0.800490	-1.142520	0.439621	99
Es	0.042731	0.645650	-0.241037	99
Es	-0.494114	0.240872	-0.843883	99
Es	1.213715	1.091191	-0.579799	99
Es	-2.716274	-0.750047	1.036991	99
