44
Properties=species:S:1:pos:R:3:Z:I:1 energy=-304.0826573291969 field_type=dipole dipole="0.000000 0.000000 0.000000" charge=0
N	-2.053053	-0.158056	-0.842703	7
C	-0.596003	-0.172316	-0.812183	6
C	-0.028303	-1.294706	0.065747	6
C	0.801817	-0.437536	1.022007	6
C	1.509787	0.636314	0.147657	6
C	0.013677	1.018723	-0.051173	6
N	-0.115013	0.705474	1.444077	7
H	-2.399783	-1.002396	-1.291693	1
H	-2.382963	0.633464	-1.390293	1
H	-0.205683	-0.229286	-1.834463	1
H	0.590936	-1.988387	-0.512583	1
H	-0.794724	-1.869437	0.597647	1
H	1.370397	-0.923826	1.815317	1
H	2.057977	0.282614	-0.730253	1
H	2.129057	1.365263	0.683507	1
H	-0.221213	2.038203	-0.362773	1
H	0.323087	1.395893	2.052157	1
Es	-0.315252	0.456011	-0.446339	99
Es	0.802410	0.889918	-0.044686	99
Es	1.920698	1.135881	0.524118	99
Es	-2.052832	-0.158089	-0.843277	99
Es	0.399160	-0.895491	0.561523	99
Es	-0.028266	-1.294653	0.065744	99
Es	-2.236488	0.314912	-1.196435	99
Es	0.189761	1.121736	1.779923	99
Es	1.893986	0.390315	-0.466839	99
Es	1.260920	0.044536	0.576887	99
Es	0.013703	1.018664	-0.051012	99
Es	-0.313346	-0.204802	-1.517809	99
Es	0.402855	-1.765721	-0.328193	99
Es	1.509738	0.636304	0.147664	99
Es	-0.453656	0.614432	1.576432	99
Es	-0.547531	-1.682260	0.421017	99
Es	-0.160470	1.716884	-0.272909	99
Es	-2.243812	-0.665692	-1.137348	99
Es	-0.331766	-0.764556	-0.394426	99
Es	-0.114477	0.705601	1.443849	99
Es	-2.181965	-0.140141	-0.524067	99
Es	-0.100060	0.900794	0.805776	99
Es	-1.420699	-0.164328	-0.854795	99
Es	0.288494	0.193720	1.330629	99
Es	1.188863	-0.781259	1.568301	99
Es	0.801730	-0.437391	1.022009	99
Es	-0.596118	-0.172298	-0.812131	99
44
Properties=species:S:1:pos:R:3:Z:I:1 energy=-304.0826573291969 field_type=dipole dipole="0.000000 0.000000 0.000000" charge=0
N	-2.053053	-0.158056	-0.842703	7
C	-0.596003	-0.172316	-0.812183	6
C	-0.028303	-1.294706	0.065747	6
C	0.801817	-0.437536	1.022007	6
C	1.509787	0.636314	0.147657	6
C	0.013677	1.018723	-0.051173	6
N	-0.115013	0.705474	1.444077	7
H	-2.399783	-1.002396	-1.291693	1
H	-2.382963	0.633464	-1.390293	1
H	-0.205683	-0.229286	-1.834463	1
H	0.590936	-1.988387	-0.512583	1
H	-0.794724	-1.869437	0.597647	1
H	1.370397	-0.923826	1.815317	1
H	2.057977	0.282614	-0.730253	1
H	2.129057	1.365263	0.683507	1
H	-0.221213	2.038203	-0.362773	1
H	0.323087	1.395893	2.052157	1
Es	-2.236770	0.315020	-1.196307	99
Es	-0.331844	-0.764651	-0.394627	99
Es	0.189448	1.121803	1.780099	99
Es	-0.315274	0.456131	-0.446349	99
Es	-0.160480	1.716786	-0.272871	99
Es	-2.181440	-0.139887	-0.524934	99
Es	0.399078	-0.895480	0.561595	99
Es	-0.453297	0.614611	1.576122	99
Es	-0.313361	-0.204758	-1.517690	99
Es	0.801725	-0.437388	1.022009	99
Es	0.402850	-1.765748	-0.328044	99
Es	0.013704	1.018663	-0.051011	99
Es	1.894018	0.390377	-0.466827	99
Es	-0.100124	0.900833	0.805744	99
Es	1.920649	1.135785	0.524056	99
Es	-1.420401	-0.164382	-0.854755	99
Es	-0.547410	-1.682242	0.421012	99
Es	0.802483	0.890047	-0.044792	99
Es	1.261034	0.044498	0.576902	99
Es	1.509739	0.636301	0.147665	99
Es	-0.114475	0.705604	1.443854	99
Es	-2.052841	-0.158090	-0.843279	99
Es	0.288507	0.193423	1.331108	99
Es	-2.244369	-0.665994	-1.136728	99
Es	1.188815	-0.781282	1.568039	99
Es	-0.596117	-0.172301	-0.812130	99
Es	-0.028267	-1.294656	0.065744	99
44
Properties=species:S:1:pos:R:3:Z:I:1 energy=-304.0826573291969 field_type=dipole dipole="0.000000 0.000000 0.000000" charge=0
N	-2.053053	-0.158056	-0.842703	7
C	-0.596003	-0.172316	-0.812183	6
C	-0.028303	-1.294706	0.065747	6
C	0.801817	-0.437536	1.022007	6
C	1.509787	0.636314	0.147657	6
C	0.013677	1.018723	-0.051173	6
N	-0.115013	0.705474	1.444077	7
H	-2.399783	-1.002396	-1.291693	1
H	-2.382963	0.633464	-1.390293	1
H	-0.205683	-0.229286	-1.834463	1
H	0.590936	-1.988387	-0.512583	1
H	-0.794724	-1.869437	0.597647	1
H	1.370397	-0.923826	1.815317	1
H	2.057977	0.282614	-0.730253	1
H	2.129057	1.365263	0.683507	1
H	-0.221213	2.038203	-0.362773	1
H	0.323087	1.395893	2.052157	1
Es	1.509740	0.636301	0.147665	99
Es	-0.596119	-0.172299	-0.812129	99
Es	-0.315244	0.456139	-0.446351	99
Es	0.399042	-0.895661	0.561809	99
Es	-0.114495	0.705594	1.443852	99
Es	-0.028267	-1.294651	0.065744	99
Es	-2.244279	-0.665808	-1.136674	99
Es	-2.236669	0.314776	-1.196542	99
Es	1.920532	1.135752	0.524036	99
Es	-0.160446	1.716705	-0.272881	99
Es	-0.452986	0.614564	1.576185	99
Es	0.801726	-0.437393	1.022007	99
Es	0.802376	0.890045	-0.044919	99
Es	0.402874	-1.765777	-0.328077	99
Es	1.188770	-0.781168	1.567982	99
Es	0.288616	0.193451	1.331172	99
Es	-0.100424	0.900985	0.805685	99
Es	-0.331724	-0.764679	-0.394636	99
Es	-2.052837	-0.158086	-0.843253	99
Es	1.894140	0.390436	-0.466725	99
Es	-0.313401	-0.204682	-1.517620	99
Es	-0.547474	-1.682205	0.420851	99
Es	-2.181731	-0.139777	-0.524672	99
Es	1.261219	0.044440	0.576884	99
Es	-1.420331	-0.164407	-0.854885	99
Es	0.013706	1.018663	-0.051013	99
Es	0.189266	1.121767	1.780113	99
44
Properties=species:S:1:pos:R:3:Z:I:1 energy=-304.0826573291969 field_type=dipole dipole="0.000000 0.000000 0.000000" charge=0
N	-2.053053	-0.158056	-0.842703	7
C	-0.596003	-0.172316	-0.812183	6
C	-0.028303	-1.294706	0.065747	6
C	0.801817	-0.437536	1.022007	6
C	1.509787	0.636314	0.147657	6
C	0.013677	1.018723	-0.051173	6
N	-0.115013	0.705474	1.444077	7
H	-2.399783	-1.002396	-1.291693	1
H	-2.382963	0.633464	-1.390293	1
H	-0.205683	-0.229286	-1.834463	1
H	0.590936	-1.988387	-0.512583	1
H	-0.794724	-1.869437	0.597647	1
H	1.370397	-0.923826	1.815317	1
H	2.057977	0.282614	-0.730253	1
H	2.129057	1.365263	0.683507	1
H	-0.221213	2.038203	-0.362773	1
H	0.323087	1.395893	2.052157	1
Es	0.802402	0.890217	-0.045048	99
Es	-0.331713	-0.764579	-0.394607	99
Es	0.399264	-0.895748	0.561721	99
Es	-0.315322	0.456133	-0.446459	99
Es	-2.244183	-0.665650	-1.136866	99
Es	-0.313396	-0.204757	-1.517628	99
Es	0.402701	-1.765741	-0.328017	99
Es	1.509737	0.636299	0.147663	99
Es	-0.028266	-1.294657	0.065744	99
Es	-1.420335	-0.164419	-0.854889	99
Es	-2.236714	0.314864	-1.196404	99
Es	-0.160523	1.716591	-0.272846	99
Es	-0.452581	0.614784	1.576200	99
Es	-2.052827	-0.158085	-0.843266	99
Es	1.261383	0.044399	0.577031	99
Es	-0.100657	0.901054	0.805622	99
Es	1.894050	0.390447	-0.466667	99
Es	0.013703	1.018664	-0.051011	99
Es	0.801726	-0.437388	1.022009	99
Es	-0.547449	-1.682223	0.420945	99
Es	0.288513	0.193164	1.331347	99
Es	-0.596114	-0.172300	-0.812130	99
Es	0.189174	1.121772	1.780093	99
Es	1.920585	1.135726	0.523899	99
Es	-0.114445	0.705616	1.443849	99
Es	-2.181803	-0.140017	-0.524589	99
Es	1.188668	-0.781144	1.567913	99
44
Properties=species:S:1:pos:R:3:Z:I:1 energy=-304.0826573291969 field_type=dipole dipole="0.000000 0.000000 0.000000" charge=0
N	-2.053053	-0.158056	-0.842703	7
C	-0.596003	-0.172316	-0.812183	6
C	-0.028303	-1.294706	0.065747	6
C	0.801817	-0.437536	1.022007	6
C	1.509787	0.636314	0.147657	6
C	0.013677	1.018723	-0.051173	6
N	-0.115013	0.705474	1.444077	7
H	-2.399783	-1.002396	-1.291693	1
H	-2.382963	0.633464	-1.390293	1
H	-0.205683	-0.229286	-1.834463	1
H	0.590936	-1.988387	-0.512583	1
H	-0.794724	-1.869437	0.597647	1
H	1.370397	-0.923826	1.815317	1
H	2.057977	0.282614	-0.730253	1
H	2.129057	1.365263	0.683507	1
H	-0.221213	2.038203	-0.362773	1
H	0.323087	1.395893	2.052157	1
Es	-0.114454	0.705618	1.443850	99
Es	0.188822	1.121572	1.780362	99
Es	-2.236612	0.314677	-1.196535	99
Es	-0.028266	-1.294652	0.065744	99
Es	-0.596117	-0.172301	-0.812131	99
Es	-2.052837	-0.158088	-0.843269	99
Es	1.894119	0.390531	-0.466589	99
Es	1.188689	-0.781134	1.567841	99
Es	0.013706	1.018664	-0.051013	99
Es	0.802455	0.890164	-0.045239	99
Es	0.801727	-0.437388	1.022009	99
Es	1.509739	0.636300	0.147664	99
Es	-2.181885	-0.139727	-0.524845	99
Es	-0.100739	0.901376	0.805605	99
Es	-0.547339	-1.682175	0.420956	99
Es	-1.420179	-0.164311	-0.854747	99
Es	1.920533	1.135718	0.523967	99
Es	-0.452212	0.614900	1.575934	99
Es	-2.244340	-0.665756	-1.136678	99
Es	1.261334	0.044322	0.576987	99
Es	-0.331871	-0.764625	-0.394607	99
Es	0.288495	0.192925	1.331519	99
Es	-0.160487	1.716525	-0.272844	99
Es	-0.315302	0.456211	-0.446420	99
Es	0.402633	-1.765793	-0.328044	99
Es	0.399343	-0.895804	0.561723	99
Es	-0.313375	-0.204724	-1.517593	99
44
Properties=species:S:1:pos:R:3:Z:I:1 energy=-304.0826573291969 field_type=dipole dipole="0.000000 0.000000 0.000000" charge=0
N	-2.053053	-0.158056	-0.842703	7
C	-0.596003	-0.172316	-0.812183	6
C	-0.028303	-1.294706	0.065747	6
C	0.801817	-0.437536	1.022007	6
C	1.509787	0.636314	0.147657	6
C	0.013677	1.018723	-0.051173	6
N	-0.115013	0.705474	1.444077	7
H	-2.399783	-1.002396	-1.291693	1
H	-2.382963	0.633464	-1.390293	1
H	-0.205683	-0.229286	-1.834463	1
H	0.590936	-1.988387	-0.512583	1
H	-0.794724	-1.869437	0.597647	1
H	1.370397	-0.923826	1.815317	1
H	2.057977	0.282614	-0.730253	1
H	2.129057	1.365263	0.683507	1
H	-0.221213	2.038203	-0.362773	1
H	0.323087	1.395893	2.052157	1
Es	-0.100776	0.901501	0.805795	99
Es	0.188507	1.121713	1.780786	99
Es	-0.331765	-0.764647	-0.394706	99
Es	-0.596112	-0.172300	-0.812129	99
Es	-0.028266	-1.294652	0.065744	99
Es	1.188544	-0.781141	1.567733	99
Es	0.288611	0.193049	1.331466	99
Es	-0.313446	-0.204696	-1.517490	99
Es	0.402638	-1.765728	-0.327931	99
Es	1.920577	1.135627	0.523877	99
Es	-2.181309	-0.139971	-0.525198	99
Es	-1.420175	-0.164365	-0.854974	99
Es	-0.451938	0.614730	1.575497	99
Es	0.802517	0.890331	-0.045308	99
Es	0.399336	-0.895820	0.561838	99
Es	1.509738	0.636300	0.147664	99
Es	1.261456	0.044126	0.577090	99
Es	-2.237051	0.315031	-1.196123	99
Es	-0.315400	0.456344	-0.446528	99
Es	-0.547293	-1.682243	0.420838	99
Es	0.013707	1.018663	-0.051012	99
Es	-0.114465	0.705610	1.443858	99
Es	-2.244514	-0.665883	-1.136542	99
Es	0.801726	-0.437389	1.022009	99
Es	-2.052832	-0.158105	-0.843252	99
Es	-0.160502	1.716421	-0.272802	99
Es	1.894066	0.390522	-0.466591	99
44
Properties=species:S:1:pos:R:3:Z:I:1 energy=-304.0826573291969 field_type=dipole dipole="0.000000 0.000000 0.000000" charge=0
N	-2.053053	-0.158056	-0.842703	7
C	-0.596003	-0.172316	-0.812183	6
C	-0.028303	-1.294706	0.065747	6
C	0.801817	-0.437536	1.022007	6
C	1.509787	0.636314	0.147657	6
C	0.013677	1.018723	-0.051173	6
N	-0.115013	0.705474	1.444077	7
H	-2.399783	-1.002396	-1.291693	1
H	-2.382963	0.633464	-1.390293	1
H	-0.205683	-0.229286	-1.834463	1
H	0.590936	-1.988387	-0.512583	1
H	-0.794724	-1.869437	0.597647	1
H	1.370397	-0.923826	1.815317	1
H	2.057977	0.282614	-0.730253	1
H	2.129057	1.365263	0.683507	1
H	-0.221213	2.038203	-0.362773	1
H	0.323087	1.395893	2.052157	1
Es	0.188597	1.121634	1.780463	99
Es	-0.315365	0.456343	-0.446612	99
Es	-0.331752	-0.764638	-0.394686	99
Es	0.802559	0.890468	-0.045268	99
Es	1.188548	-0.781080	1.567746	99
Es	-0.160481	1.716339	-0.272795	99
Es	-0.451570	0.615141	1.575769	99
Es	0.801728	-0.437387	1.022008	99
Es	-0.101120	0.901418	0.805452	99
Es	1.894007	0.390548	-0.466564	99
Es	-0.028266	-1.294652	0.065744	99
Es	-2.236906	0.314900	-1.196268	99
Es	-0.114472	0.705624	1.443872	99
Es	-1.420282	-0.164426	-0.855278	99
Es	-2.244199	-0.665532	-1.136834	99
Es	-0.547284	-1.682287	0.420760	99
Es	0.399332	-0.895907	0.561980	99
Es	1.920651	1.135588	0.523897	99
Es	0.402630	-1.765674	-0.327947	99
Es	-0.596113	-0.172300	-0.812130	99
Es	0.013708	1.018663	-0.051014	99
Es	1.509738	0.636299	0.147664	99
Es	-2.181655	-0.140147	-0.524517	99
Es	1.261442	0.044143	0.576982	99
Es	0.288394	0.192716	1.331862	99
Es	-2.052843	-0.158093	-0.843223	99
Es	-0.313446	-0.204675	-1.517454	99
44
Properties=species:S:1:pos:R:3:Z:I:1 energy=-304.0826573291969 field_type=dipole dipole="0.000000 0.000000 0.000000" charge=0
N	-2.053053	-0.158056	-0.842703	7
C	-0.596003	-0.172316	-0.812183	6
C	-0.028303	-1.294706	0.065747	6
C	0.801817	-0.437536	1.022007	6
C	1.509787	0.636314	0.147657	6
C	0.013677	1.018723	-0.051173	6
N	-0.115013	0.705474	1.444077	7
H	-2.399783	-1.002396	-1.291693	1
H	-2.382963	0.633464	-1.390293	1
H	-0.205683	-0.229286	-1.834463	1
H	0.590936	-1.988387	-0.512583	1
H	-0.794724	-1.869437	0.597647	1
H	1.370397	-0.923826	1.815317	1
H	2.057977	0.282614	-0.730253	1
H	2.129057	1.365263	0.683507	1
H	-0.221213	2.038203	-0.362773	1
H	0.323087	1.395893	2.052157	1
Es	-0.596113	-0.172300	-0.812130	99
Es	1.188490	-0.781056	1.567665	99
Es	0.288373	0.192642	1.331975	99
Es	1.261623	0.044047	0.577060	99
Es	-1.420085	-0.164371	-0.854897	99
Es	-0.315378	0.456399	-0.446657	99
Es	0.013708	1.018664	-0.051014	99
Es	0.402587	-1.765691	-0.327911	99
Es	-0.028266	-1.294653	0.065744	99
Es	-0.313456	-0.204662	-1.517396	99
Es	-0.114455	0.705615	1.443854	99
Es	-2.244632	-0.665937	-1.136345	99
Es	-0.451284	0.615176	1.575637	99
Es	-2.237040	0.314938	-1.196217	99
Es	-0.331777	-0.764679	-0.394732	99
Es	1.920569	1.135532	0.523809	99
Es	1.509737	0.636299	0.147664	99
Es	0.801728	-0.437387	1.022008	99
Es	-0.547219	-1.682271	0.420775	99
Es	0.802507	0.890528	-0.045417	99
Es	-0.160470	1.716247	-0.272784	99
Es	-0.101309	0.901443	0.805471	99
Es	0.399408	-0.895907	0.562007	99
Es	-2.181325	-0.139834	-0.525413	99
Es	1.894062	0.390616	-0.466474	99
Es	-2.052839	-0.158091	-0.843271	99
Es	0.188436	1.121720	1.780595	99
44
Properties=species:S:1:pos:R:3:Z:I:1 energy=-304.0826573291969 field_type=dipole dipole="0.000000 0.000000 0.000000" charge=0
N	-2.053053	-0.158056	-0.842703	7
C	-0.596003	-0.172316	-0.812183	6
C	-0.028303	-1.294706	0.065747	6
C	0.801817	-0.437536	1.022007	6
C	1.509787	0.636314	0.147657	6
C	0.013677	1.018723	-0.051173	6
N	-0.115013	0.705474	1.444077	7
H	-2.399783	-1.002396	-1.291693	1
H	-2.382963	0.633464	-1.390293	1
H	-0.205683	-0.229286	-1.834463	1
H	0.590936	-1.988387	-0.512583	1
H	-0.794724	-1.869437	0.597647	1
H	1.370397	-0.923826	1.815317	1
H	2.057977	0.282614	-0.730253	1
H	2.129057	1.365263	0.683507	1
H	-0.221213	2.038203	-0.362773	1
H	0.323087	1.395893	2.052157	1
Es	-0.028266	-1.294653	0.065743	99
Es	-1.420024	-0.164355	-0.854844	99
Es	0.402598	-1.765659	-0.327854	99
Es	1.894062	0.390659	-0.466426	99
Es	-2.244589	-0.665843	-1.136498	99
Es	1.509737	0.636298	0.147664	99
Es	-0.596113	-0.172300	-0.812130	99
Es	1.261718	0.043979	0.577075	99
Es	-0.101474	0.901549	0.805399	99
Es	0.801728	-0.437387	1.022008	99
Es	-2.052844	-0.158089	-0.843216	99
Es	-2.181364	-0.140045	-0.525560	99
Es	0.802504	0.890592	-0.045509	99
Es	-0.547213	-1.682299	0.420669	99
Es	0.188210	1.121737	1.780869	99
Es	-0.313472	-0.204649	-1.517340	99
Es	-0.450732	0.615421	1.575309	99
Es	0.013708	1.018663	-0.051014	99
Es	-0.114459	0.705618	1.443856	99
Es	-2.237119	0.315046	-1.196053	99
Es	-0.160472	1.716164	-0.272773	99
Es	1.920553	1.135498	0.523766	99
Es	0.399384	-0.895999	0.562136	99
Es	0.288186	0.192312	1.332205	99
Es	-0.315383	0.456456	-0.446702	99
Es	-0.331730	-0.764672	-0.394770	99
Es	1.188445	-0.781015	1.567599	99
44
Properties=species:S:1:pos:R:3:Z:I:1 energy=-304.0826573291969 field_type=dipole dipole="0.000000 0.000000 0.000000" charge=0
N	-2.053053	-0.158056	-0.842703	7
C	-0.596003	-0.172316	-0.812183	6
C	-0.028303	-1.294706	0.065747	6
C	0.801817	-0.437536	1.022007	6
C	1.509787	0.636314	0.147657	6
C	0.013677	1.018723	-0.051173	6
N	-0.115013	0.705474	1.444077	7
H	-2.399783	-1.002396	-1.291693	1
H	-2.382963	0.633464	-1.390293	1
H	-0.205683	-0.229286	-1.834463	1
H	0.590936	-1.988387	-0.512583	1
H	-0.794724	-1.869437	0.597647	1
H	1.370397	-0.923826	1.815317	1
H	2.057977	0.282614	-0.730253	1
H	2.129057	1.365263	0.683507	1
H	-0.221213	2.038203	-0.362773	1
H	0.323087	1.395893	2.052157	1
Es	-0.114483	0.705626	1.443867	99
Es	0.801728	-0.437385	1.022008	99
Es	-2.237033	0.314865	-1.196204	99
Es	0.402510	-1.765697	-0.327849	99
Es	0.802526	0.890681	-0.045484	99
Es	-2.052827	-0.158080	-0.843244	99
Es	-0.315413	0.456456	-0.446770	99
Es	1.509739	0.636301	0.147663	99
Es	-2.244744	-0.665887	-1.136273	99
Es	1.920541	1.135427	0.523749	99
Es	-0.028265	-1.294652	0.065744	99
Es	1.894056	0.390737	-0.466421	99
Es	-0.596113	-0.172300	-0.812130	99
Es	-1.420064	-0.164413	-0.855186	99
Es	-0.101641	0.901753	0.805473	99
Es	-0.331788	-0.764727	-0.394783	99
Es	-0.547125	-1.682260	0.420767	99
Es	-0.160445	1.716106	-0.272766	99
Es	1.261787	0.043952	0.577109	99
Es	-0.450705	0.615342	1.575444	99
Es	-2.181293	-0.139769	-0.525317	99
Es	0.013709	1.018663	-0.051016	99
Es	-0.313467	-0.204612	-1.517274	99
Es	1.188401	-0.780981	1.567518	99
Es	0.188221	1.121607	1.780820	99
Es	0.288251	0.192290	1.332106	99
Es	0.399517	-0.896020	0.562056	99
44
Properties=species:S:1:pos:R:3:Z:I:1 energy=-304.0826573291969 field_type=dipole dipole="0.000000 0.000000 0.000000" charge=0
N	-2.053053	-0.158056	-0.842703	7
C	-0.596003	-0.172316	-0.812183	6
C	-0.028303	-1.294706	0.065747	6
C	0.801817	-0.437536	1.022007	6
C	1.509787	0.636314	0.147657	6
C	0.013677	1.018723	-0.051173	6
N	-0.115013	0.705474	1.444077	7
H	-2.399783	-1.002396	-1.291693	1
H	-2.382963	0.633464	-1.390293	1
H	-0.205683	-0.229286	-1.834463	1
H	0.590936	-1.988387	-0.512583	1
H	-0.794724	-1.869437	0.597647	1
H	1.370397	-0.923826	1.815317	1
H	2.057977	0.282614	-0.730253	1
H	2.129057	1.365263	0.683507	1
H	-0.221213	2.038203	-0.362773	1
H	0.323087	1.395893	2.052157	1
Es	-0.547142	-1.682286	0.420683	99
Es	-0.114460	0.705614	1.443851	99
Es	-0.028266	-1.294652	0.065744	99
Es	1.920612	1.135357	0.523724	99
Es	-0.313489	-0.204589	-1.517239	99
Es	0.288256	0.192239	1.332364	99
Es	1.509736	0.636298	0.147663	99
Es	-2.181375	-0.139857	-0.525263	99
Es	-2.052827	-0.158089	-0.843261	99
Es	-0.315403	0.456576	-0.446657	99
Es	1.188356	-0.780970	1.567493	99
Es	1.261826	0.043897	0.577097	99
Es	-2.237045	0.314853	-1.196127	99
Es	0.399412	-0.896019	0.562147	99
Es	-0.101789	0.901706	0.805377	99
Es	0.187984	1.121687	1.780903	99
Es	-1.420019	-0.164396	-0.855204	99
Es	0.402591	-1.765678	-0.327827	99
Es	1.894037	0.390671	-0.466330	99
Es	-0.450329	0.615478	1.575301	99
Es	-0.331779	-0.764778	-0.394849	99
Es	0.802566	0.890748	-0.045719	99
Es	-0.160494	1.716009	-0.272751	99
Es	-0.596111	-0.172300	-0.812130	99
Es	0.013710	1.018663	-0.051014	99
Es	-2.244708	-0.665770	-1.136377	99
Es	0.801729	-0.437386	1.022007	99
44
Properties=species:S:1:pos:R:3:Z:I:1 energy=-304.0826573291969 field_type=dipole dipole="0.000000 0.000000 0.000000" charge=0
N	-2.053053	-0.158056	-0.842703	7
C	-0.596003	-0.172316	-0.812183	6
C	-0.028303	-1.294706	0.065747	6
C	0.801817	-0.437536	1.022007	6
C	1.509787	0.636314	0.147657	6
C	0.013677	1.018723	-0.051173	6
N	-0.115013	0.705474	1.444077	7
H	-2.399783	-1.002396	-1.291693	1
H	-2.382963	0.633464	-1.390293	1
H	-0.205683	-0.229286	-1.834463	1
H	0.590936	-1.988387	-0.512583	1
H	-0.794724	-1.869437	0.597647	1
H	1.370397	-0.923826	1.815317	1
H	2.057977	0.282614	-0.730253	1
H	2.129057	1.365263	0.683507	1
H	-0.221213	2.038203	-0.362773	1
H	0.323087	1.395893	2.052157	1
Es	-0.160415	1.715941	-0.272687	99
Es	0.188019	1.121637	1.780753	99
Es	-2.237197	0.314973	-1.196054	99
Es	0.801728	-0.437389	1.022008	99
Es	-2.181236	-0.139887	-0.525705	99
Es	0.288402	0.192342	1.332278	99
Es	-0.596111	-0.172300	-0.812129	99
Es	-0.102113	0.901815	0.805462	99
Es	-2.244789	-0.665911	-1.136238	99
Es	-0.114479	0.705621	1.443873	99
Es	1.261942	0.043747	0.577139	99
Es	-1.419943	-0.164342	-0.855016	99
Es	1.894061	0.390798	-0.466300	99
Es	1.920528	1.135356	0.523688	99
Es	-0.547100	-1.682206	0.420669	99
Es	-0.028266	-1.294650	0.065743	99
Es	1.188297	-0.780964	1.567414	99
Es	-0.331741	-0.764749	-0.394918	99
Es	0.399579	-0.896092	0.562196	99
Es	-0.450169	0.615362	1.575567	99
Es	-2.052829	-0.158089	-0.843256	99
Es	0.802519	0.890781	-0.045786	99
Es	1.509736	0.636297	0.147663	99
Es	-0.313503	-0.204603	-1.517170	99
Es	0.013711	1.018664	-0.051013	99
Es	-0.315466	0.456608	-0.446843	99
Es	0.402417	-1.765734	-0.327731	99
44
Properties=species:S:1:pos:R:3:Z:I:1 energy=-304.0826573291969 field_type=dipole dipole="0.000000 0.000000 0.000000" charge=0
N	-2.053053	-0.158056	-0.842703	7
C	-0.596003	-0.172316	-0.812183	6
C	-0.028303	-1.294706	0.065747	6
C	0.801817	-0.437536	1.022007	6
C	1.509787	0.636314	0.147657	6
C	0.013677	1.018723	-0.051173	6
N	-0.115013	0.705474	1.444077	7
H	-2.399783	-1.002396	-1.291693	1
H	-2.382963	0.633464	-1.390293	1
H	-0.205683	-0.229286	-1.834463	1
H	0.590936	-1.988387	-0.512583	1
H	-0.794724	-1.869437	0.597647	1
H	1.370397	-0.923826	1.815317	1
H	2.057977	0.282614	-0.730253	1
H	2.129057	1.365263	0.683507	1
H	-0.221213	2.038203	-0.362773	1
H	0.323087	1.395893	2.052157	1
Es	1.894058	0.390781	-0.466248	99
Es	-0.028266	-1.294652	0.065744	99
Es	0.801729	-0.437386	1.022007	99
Es	-2.052841	-0.158076	-0.843256	99
Es	0.399575	-0.896169	0.562289	99
Es	-0.313521	-0.204581	-1.517134	99
Es	0.802520	0.890984	-0.045837	99
Es	-0.331777	-0.764754	-0.394911	99
Es	-0.315460	0.456641	-0.446850	99
Es	1.509736	0.636297	0.147663	99
Es	-2.181217	-0.140108	-0.526069	99
Es	0.013710	1.018663	-0.051014	99
Es	-0.114478	0.705600	1.443849	99
Es	-0.449893	0.615591	1.575160	99
Es	-0.547033	-1.682272	0.420620	99
Es	0.187717	1.121629	1.781032	99
Es	-1.419775	-0.164395	-0.854816	99
Es	-0.101984	0.901900	0.805353	99
Es	1.262033	0.043699	0.577228	99
Es	1.188253	-0.780906	1.567363	99
Es	1.920525	1.135240	0.523562	99
Es	-2.244890	-0.665832	-1.136362	99
Es	-0.596110	-0.172301	-0.812129	99
Es	0.402428	-1.765672	-0.327737	99
Es	-0.160445	1.715853	-0.272711	99
Es	-2.237262	0.315132	-1.195789	99
Es	0.288250	0.192118	1.332601	99
