45
Properties=species:S:1:pos:R:3:Z:I:1 energy=-288.0923953542266 field_type=dipole dipole="0.000000 0.000000 0.000000" charge=0
N	-2.505861	-0.158257	0.087877	7
C	-1.114021	-0.054507	-0.332313	6
C	-0.385061	0.954933	0.578347	6
C	0.710159	-0.112267	0.816047	6
C	-0.300941	-1.182407	0.328367	6
C	1.994529	-0.034287	0.060457	6
C	2.119739	0.519163	-1.151883	6
H	-2.995921	-0.952877	-0.321493	1
H	-3.064051	0.663093	-0.142753	1
H	-0.953161	0.074023	-1.406433	1
H	-0.912171	1.226433	1.502807	1
H	-0.076391	1.885683	0.092487	1
H	0.940279	-0.222977	1.884567	1
H	0.086599	-1.937047	-0.363813	1
H	-0.792581	-1.706507	1.158036	1
H	2.868829	-0.465127	0.542957	1
H	1.291759	0.964513	-1.689403	1
H	3.088259	0.538423	-1.643853	1
Es	-2.508444	-0.195997	0.431118	99
Es	1.994497	-0.034346	0.060555	99
Es	-0.749803	-0.681180	-0.047037	99
Es	-2.832446	0.341592	-0.081083	99
Es	-0.031213	-1.701098	-0.146080	99
Es	0.278200	-0.707271	0.582228	99
Es	-0.996475	0.035608	-1.071533	99
Es	2.773699	0.534703	-1.493938	99
Es	0.710139	-0.112266	0.816000	99
Es	-1.927522	-0.108894	-0.145252	99
Es	1.992774	-0.035772	-0.701816	99
Es	2.583132	-0.332157	0.393165	99
Es	-0.642542	-1.526391	0.890877	99
Es	-1.114143	-0.054520	-0.332233	99
Es	0.877146	-0.188411	1.549493	99
Es	-0.300909	-1.182349	0.328360	99
Es	-2.791784	-0.634635	-0.188364	99
Es	-0.747736	1.125382	1.202365	99
Es	-0.798843	0.519543	0.091887	99
Es	2.119744	0.519200	-1.151986	99
Es	-0.385030	0.954882	0.578325	99
Es	-2.505905	-0.158197	0.087320	99
Es	0.226186	0.487344	0.716873	99
Es	1.556447	0.822648	-1.518027	99
Es	-0.169204	1.593468	0.242480	99
Es	2.127240	0.538549	-0.422459	99
Es	1.349958	-0.063980	0.424803	99
45
Properties=species:S:1:pos:R:3:Z:I:1 energy=-288.0923953542266 field_type=dipole dipole="0.000000 0.000000 0.000000" charge=0
N	-2.505861	-0.158257	0.087877	7
C	-1.114021	-0.054507	-0.332313	6
C	-0.385061	0.954933	0.578347	6
C	0.710159	-0.112267	0.816047	6
C	-0.300941	-1.182407	0.328367	6
C	1.994529	-0.034287	0.060457	6
C	2.119739	0.519163	-1.151883	6
H	-2.995921	-0.952877	-0.321493	1
H	-3.064051	0.663093	-0.142753	1
H	-0.953161	0.074023	-1.406433	1
H	-0.912171	1.226433	1.502807	1
H	-0.076391	1.885683	0.092487	1
H	0.940279	-0.222977	1.884567	1
H	0.086599	-1.937047	-0.363813	1
H	-0.792581	-1.706507	1.158036	1
H	2.868829	-0.465127	0.542957	1
H	1.291759	0.964513	-1.689403	1
H	3.088259	0.538423	-1.643853	1
Es	-0.747695	1.125511	1.202128	99
Es	-2.505907	-0.158188	0.087275	99
Es	2.583240	-0.332197	0.393141	99
Es	0.278225	-0.707340	0.582258	99
Es	2.127163	0.538462	-0.422499	99
Es	-1.927570	-0.108816	-0.145335	99
Es	-0.300910	-1.182347	0.328358	99
Es	-0.642532	-1.526358	0.890822	99
Es	0.710140	-0.112266	0.815999	99
Es	1.994500	-0.034334	0.060558	99
Es	-0.996345	0.035536	-1.071503	99
Es	-1.114148	-0.054525	-0.332236	99
Es	1.992796	-0.035648	-0.701740	99
Es	-2.508346	-0.196243	0.430854	99
Es	1.556486	0.822625	-1.517981	99
Es	-0.031253	-1.701129	-0.146034	99
Es	-0.749856	-0.681120	-0.046995	99
Es	0.877169	-0.188396	1.549408	99
Es	-0.385028	0.954882	0.578324	99
Es	-2.791822	-0.634595	-0.188446	99
Es	0.226397	0.487212	0.717055	99
Es	-0.169239	1.593359	0.242668	99
Es	-0.799040	0.519699	0.091775	99
Es	1.349833	-0.064001	0.424820	99
Es	-2.832554	0.341720	-0.080681	99
Es	2.119745	0.519208	-1.151979	99
Es	2.773717	0.534744	-1.493973	99
45
Properties=species:S:1:pos:R:3:Z:I:1 energy=-288.0923953542266 field_type=dipole dipole="0.000000 0.000000 0.000000" charge=0
N	-2.505861	-0.158257	0.087877	7
C	-1.114021	-0.054507	-0.332313	6
C	-0.385061	0.954933	0.578347	6
C	0.710159	-0.112267	0.816047	6
C	-0.300941	-1.182407	0.328367	6
C	1.994529	-0.034287	0.060457	6
C	2.119739	0.519163	-1.151883	6
H	-2.995921	-0.952877	-0.321493	1
H	-3.064051	0.663093	-0.142753	1
H	-0.953161	0.074023	-1.406433	1
H	-0.912171	1.226433	1.502807	1
H	-0.076391	1.885683	0.092487	1
H	0.940279	-0.222977	1.884567	1
H	0.086599	-1.937047	-0.363813	1
H	-0.792581	-1.706507	1.158036	1
H	2.868829	-0.465127	0.542957	1
H	1.291759	0.964513	-1.689403	1
H	3.088259	0.538423	-1.643853	1
Es	-2.791757	-0.634344	-0.188469	99
Es	-0.642544	-1.526291	0.890767	99
Es	2.119744	0.519197	-1.151985	99
Es	1.992754	-0.035637	-0.701724	99
Es	1.349736	-0.063878	0.424989	99
Es	-0.747736	1.125523	1.202030	99
Es	1.556552	0.822606	-1.518039	99
Es	-2.505898	-0.158197	0.087333	99
Es	0.278490	-0.707561	0.582262	99
Es	-0.798873	0.519676	0.091620	99
Es	-1.927362	-0.108664	-0.145469	99
Es	0.877228	-0.188360	1.549321	99
Es	-0.996492	0.035527	-1.071384	99
Es	-0.749938	-0.681305	-0.047257	99
Es	-1.114144	-0.054520	-0.332235	99
Es	-0.031347	-1.701169	-0.145873	99
Es	-2.508534	-0.196328	0.431034	99
Es	-0.300909	-1.182350	0.328360	99
Es	-0.169282	1.593319	0.242782	99
Es	2.127089	0.538419	-0.422526	99
Es	2.583253	-0.332211	0.393079	99
Es	1.994500	-0.034334	0.060558	99
Es	-2.832591	0.341548	-0.080753	99
Es	-0.385029	0.954887	0.578321	99
Es	2.773785	0.534792	-1.493889	99
Es	0.710139	-0.112267	0.816000	99
Es	0.226327	0.487379	0.717191	99
45
Properties=species:S:1:pos:R:3:Z:I:1 energy=-288.0923953542266 field_type=dipole dipole="0.000000 0.000000 0.000000" charge=0
N	-2.505861	-0.158257	0.087877	7
C	-1.114021	-0.054507	-0.332313	6
C	-0.385061	0.954933	0.578347	6
C	0.710159	-0.112267	0.816047	6
C	-0.300941	-1.182407	0.328367	6
C	1.994529	-0.034287	0.060457	6
C	2.119739	0.519163	-1.151883	6
H	-2.995921	-0.952877	-0.321493	1
H	-3.064051	0.663093	-0.142753	1
H	-0.953161	0.074023	-1.406433	1
H	-0.912171	1.226433	1.502807	1
H	-0.076391	1.885683	0.092487	1
H	0.940279	-0.222977	1.884567	1
H	0.086599	-1.937047	-0.363813	1
H	-0.792581	-1.706507	1.158036	1
H	2.868829	-0.465127	0.542957	1
H	1.291759	0.964513	-1.689403	1
H	3.088259	0.538423	-1.643853	1
Es	1.994505	-0.034335	0.060559	99
Es	0.226549	0.487329	0.717171	99
Es	0.710139	-0.112266	0.816001	99
Es	-0.749930	-0.681354	-0.047235	99
Es	-2.832669	0.341719	-0.080531	99
Es	1.992863	-0.035573	-0.701668	99
Es	-1.114143	-0.054520	-0.332235	99
Es	-0.031342	-1.701071	-0.145881	99
Es	-0.799009	0.519892	0.091634	99
Es	-2.505911	-0.158193	0.087290	99
Es	-0.747686	1.125585	1.202010	99
Es	2.583279	-0.332181	0.393095	99
Es	-1.927360	-0.108696	-0.145241	99
Es	1.556476	0.822607	-1.517983	99
Es	-0.300908	-1.182349	0.328358	99
Es	-0.169321	1.593273	0.242782	99
Es	-2.508454	-0.196249	0.430478	99
Es	-0.996491	0.035504	-1.071275	99
Es	1.349664	-0.063904	0.425063	99
Es	0.278411	-0.707524	0.582304	99
Es	-2.791809	-0.634642	-0.188366	99
Es	0.877210	-0.188375	1.549253	99
Es	-0.385029	0.954882	0.578324	99
Es	2.773749	0.534803	-1.493951	99
Es	2.119745	0.519201	-1.151983	99
Es	2.127140	0.538301	-0.422578	99
Es	-0.642503	-1.526407	0.890649	99
45
Properties=species:S:1:pos:R:3:Z:I:1 energy=-288.0923953542266 field_type=dipole dipole="0.000000 0.000000 0.000000" charge=0
N	-2.505861	-0.158257	0.087877	7
C	-1.114021	-0.054507	-0.332313	6
C	-0.385061	0.954933	0.578347	6
C	0.710159	-0.112267	0.816047	6
C	-0.300941	-1.182407	0.328367	6
C	1.994529	-0.034287	0.060457	6
C	2.119739	0.519163	-1.151883	6
H	-2.995921	-0.952877	-0.321493	1
H	-3.064051	0.663093	-0.142753	1
H	-0.953161	0.074023	-1.406433	1
H	-0.912171	1.226433	1.502807	1
H	-0.076391	1.885683	0.092487	1
H	0.940279	-0.222977	1.884567	1
H	0.086599	-1.937047	-0.363813	1
H	-0.792581	-1.706507	1.158036	1
H	2.868829	-0.465127	0.542957	1
H	1.291759	0.964513	-1.689403	1
H	3.088259	0.538423	-1.643853	1
Es	2.127106	0.538203	-0.422621	99
Es	2.583313	-0.332181	0.393060	99
Es	0.710138	-0.112267	0.816002	99
Es	-0.642482	-1.526409	0.890601	99
Es	1.994501	-0.034330	0.060559	99
Es	-0.031422	-1.701053	-0.145750	99
Es	-2.832380	0.341584	-0.080923	99
Es	2.119746	0.519206	-1.151979	99
Es	2.773779	0.534841	-1.493904	99
Es	-2.505899	-0.158186	0.087322	99
Es	-0.747671	1.125658	1.201987	99
Es	-0.799051	0.519937	0.091600	99
Es	-1.114141	-0.054520	-0.332230	99
Es	1.349549	-0.063870	0.425136	99
Es	-0.996466	0.035462	-1.071276	99
Es	-0.385031	0.954884	0.578325	99
Es	-0.169273	1.593213	0.242793	99
Es	-1.927724	-0.108860	-0.145699	99
Es	0.877283	-0.188386	1.549212	99
Es	-0.300908	-1.182348	0.328359	99
Es	0.278526	-0.707599	0.582285	99
Es	0.226551	0.487339	0.717223	99
Es	1.992893	-0.035532	-0.701643	99
Es	1.556456	0.822599	-1.518008	99
Es	-2.508089	-0.195668	0.430864	99
Es	-2.792128	-0.634912	-0.187950	99
Es	-0.750010	-0.681351	-0.047301	99
45
Properties=species:S:1:pos:R:3:Z:I:1 energy=-288.0923953542266 field_type=dipole dipole="0.000000 0.000000 0.000000" charge=0
N	-2.505861	-0.158257	0.087877	7
C	-1.114021	-0.054507	-0.332313	6
C	-0.385061	0.954933	0.578347	6
C	0.710159	-0.112267	0.816047	6
C	-0.300941	-1.182407	0.328367	6
C	1.994529	-0.034287	0.060457	6
C	2.119739	0.519163	-1.151883	6
H	-2.995921	-0.952877	-0.321493	1
H	-3.064051	0.663093	-0.142753	1
H	-0.953161	0.074023	-1.406433	1
H	-0.912171	1.226433	1.502807	1
H	-0.076391	1.885683	0.092487	1
H	0.940279	-0.222977	1.884567	1
H	0.086599	-1.937047	-0.363813	1
H	-0.792581	-1.706507	1.158036	1
H	2.868829	-0.465127	0.542957	1
H	1.291759	0.964513	-1.689403	1
H	3.088259	0.538423	-1.643853	1
Es	0.226749	0.487479	0.717274	99
Es	-0.747640	1.125634	1.201880	99
Es	-2.832629	0.341583	-0.080499	99
Es	-2.508135	-0.196290	0.431005	99
Es	-0.385028	0.954883	0.578324	99
Es	-0.300909	-1.182351	0.328359	99
Es	2.583412	-0.332054	0.393041	99
Es	1.349477	-0.064063	0.425219	99
Es	-1.114143	-0.054521	-0.332233	99
Es	1.994496	-0.034338	0.060554	99
Es	1.556479	0.822630	-1.517952	99
Es	0.877299	-0.188320	1.549090	99
Es	2.119748	0.519212	-1.151981	99
Es	1.992961	-0.035509	-0.701617	99
Es	2.773776	0.534873	-1.493935	99
Es	-2.505895	-0.158188	0.087284	99
Es	-0.996500	0.035508	-1.071073	99
Es	-0.642391	-1.526340	0.890514	99
Es	-0.169419	1.593210	0.242903	99
Es	-0.799115	0.520038	0.091540	99
Es	0.710137	-0.112268	0.816002	99
Es	-1.927553	-0.108917	-0.146247	99
Es	0.278541	-0.707669	0.582373	99
Es	-0.750036	-0.681518	-0.047383	99
Es	-0.031468	-1.701121	-0.145712	99
Es	2.126988	0.538134	-0.422647	99
Es	-2.792037	-0.634261	-0.188040	99
45
Properties=species:S:1:pos:R:3:Z:I:1 energy=-288.0923953542266 field_type=dipole dipole="0.000000 0.000000 0.000000" charge=0
N	-2.505861	-0.158257	0.087877	7
C	-1.114021	-0.054507	-0.332313	6
C	-0.385061	0.954933	0.578347	6
C	0.710159	-0.112267	0.816047	6
C	-0.300941	-1.182407	0.328367	6
C	1.994529	-0.034287	0.060457	6
C	2.119739	0.519163	-1.151883	6
H	-2.995921	-0.952877	-0.321493	1
H	-3.064051	0.663093	-0.142753	1
H	-0.953161	0.074023	-1.406433	1
H	-0.912171	1.226433	1.502807	1
H	-0.076391	1.885683	0.092487	1
H	0.940279	-0.222977	1.884567	1
H	0.086599	-1.937047	-0.363813	1
H	-0.792581	-1.706507	1.158036	1
H	2.868829	-0.465127	0.542957	1
H	1.291759	0.964513	-1.689403	1
H	3.088259	0.538423	-1.643853	1
Es	-0.385028	0.954881	0.578323	99
Es	-0.169450	1.593175	0.242966	99
Es	2.127061	0.538032	-0.422668	99
Es	-0.799126	0.520099	0.091471	99
Es	-0.300909	-1.182348	0.328359	99
Es	0.226768	0.487518	0.717321	99
Es	-0.642374	-1.526267	0.890428	99
Es	0.710138	-0.112267	0.816002	99
Es	0.278564	-0.707759	0.582411	99
Es	0.877328	-0.188335	1.549043	99
Es	1.994500	-0.034333	0.060556	99
Es	-0.996520	0.035449	-1.071026	99
Es	-2.505903	-0.158218	0.087292	99
Es	-1.114141	-0.054520	-0.332233	99
Es	-0.747611	1.125660	1.201833	99
Es	-1.927601	-0.108683	-0.145805	99
Es	-0.031459	-1.701221	-0.145800	99
Es	-2.791797	-0.634288	-0.188578	99
Es	1.992951	-0.035410	-0.701584	99
Es	-0.750054	-0.681494	-0.047295	99
Es	-2.508305	-0.196527	0.430971	99
Es	-2.832655	0.341672	-0.080391	99
Es	1.349391	-0.063871	0.425302	99
Es	2.773806	0.534845	-1.493951	99
Es	2.583392	-0.332138	0.393033	99
Es	1.556452	0.822596	-1.517957	99
Es	2.119746	0.519207	-1.151979	99
45
Properties=species:S:1:pos:R:3:Z:I:1 energy=-288.0923953542266 field_type=dipole dipole="0.000000 0.000000 0.000000" charge=0
N	-2.505861	-0.158257	0.087877	7
C	-1.114021	-0.054507	-0.332313	6
C	-0.385061	0.954933	0.578347	6
C	0.710159	-0.112267	0.816047	6
C	-0.300941	-1.182407	0.328367	6
C	1.994529	-0.034287	0.060457	6
C	2.119739	0.519163	-1.151883	6
H	-2.995921	-0.952877	-0.321493	1
H	-3.064051	0.663093	-0.142753	1
H	-0.953161	0.074023	-1.406433	1
H	-0.912171	1.226433	1.502807	1
H	-0.076391	1.885683	0.092487	1
H	0.940279	-0.222977	1.884567	1
H	0.086599	-1.937047	-0.363813	1
H	-0.792581	-1.706507	1.158036	1
H	2.868829	-0.465127	0.542957	1
H	1.291759	0.964513	-1.689403	1
H	3.088259	0.538423	-1.643853	1
Es	-1.927392	-0.108495	-0.145602	99
Es	-0.996486	0.035434	-1.070926	99
Es	-0.750143	-0.681612	-0.047536	99
Es	-0.169535	1.593183	0.243041	99
Es	1.992992	-0.035303	-0.701508	99
Es	-0.799157	0.520142	0.091447	99
Es	-0.385027	0.954882	0.578323	99
Es	2.583438	-0.332152	0.393004	99
Es	-0.642402	-1.526414	0.890350	99
Es	-2.832757	0.341503	-0.080568	99
Es	1.349293	-0.063893	0.425408	99
Es	1.556429	0.822577	-1.517981	99
Es	-2.508589	-0.196357	0.430758	99
Es	2.127034	0.537969	-0.422714	99
Es	-0.300909	-1.182348	0.328357	99
Es	-2.505897	-0.158205	0.087308	99
Es	0.226900	0.487615	0.717313	99
Es	0.278722	-0.707868	0.582452	99
Es	-2.791663	-0.634457	-0.188491	99
Es	-1.114140	-0.054521	-0.332231	99
Es	-0.031547	-1.701032	-0.145548	99
Es	0.877362	-0.188280	1.548960	99
Es	1.994500	-0.034332	0.060557	99
Es	0.710138	-0.112268	0.816001	99
Es	2.773820	0.534847	-1.493930	99
Es	-0.747564	1.125631	1.201780	99
Es	2.119747	0.519208	-1.151981	99
45
Properties=species:S:1:pos:R:3:Z:I:1 energy=-288.0923953542266 field_type=dipole dipole="0.000000 0.000000 0.000000" charge=0
N	-2.505861	-0.158257	0.087877	7
C	-1.114021	-0.054507	-0.332313	6
C	-0.385061	0.954933	0.578347	6
C	0.710159	-0.112267	0.816047	6
C	-0.300941	-1.182407	0.328367	6
C	1.994529	-0.034287	0.060457	6
C	2.119739	0.519163	-1.151883	6
H	-2.995921	-0.952877	-0.321493	1
H	-3.064051	0.663093	-0.142753	1
H	-0.953161	0.074023	-1.406433	1
H	-0.912171	1.226433	1.502807	1
H	-0.076391	1.885683	0.092487	1
H	0.940279	-0.222977	1.884567	1
H	0.086599	-1.937047	-0.363813	1
H	-0.792581	-1.706507	1.158036	1
H	2.868829	-0.465127	0.542957	1
H	1.291759	0.964513	-1.689403	1
H	3.088259	0.538423	-1.643853	1
Es	-0.300909	-1.182348	0.328358	99
Es	-1.927349	-0.108709	-0.145676	99
Es	0.710138	-0.112267	0.816002	99
Es	1.349197	-0.063869	0.425482	99
Es	-2.832697	0.341682	-0.080346	99
Es	1.993063	-0.035343	-0.701519	99
Es	-0.799156	0.520239	0.091366	99
Es	2.119738	0.519210	-1.151976	99
Es	-0.996564	0.035431	-1.070853	99
Es	2.126920	0.537817	-0.422783	99
Es	1.556437	0.822554	-1.518044	99
Es	0.226972	0.487647	0.717427	99
Es	-0.747606	1.125703	1.201708	99
Es	0.877413	-0.188280	1.548904	99
Es	-2.508480	-0.196473	0.430548	99
Es	2.583506	-0.332083	0.392997	99
Es	-0.750112	-0.681652	-0.047612	99
Es	1.994495	-0.034333	0.060559	99
Es	-2.791857	-0.634361	-0.188414	99
Es	-1.114140	-0.054521	-0.332232	99
Es	-0.642389	-1.526413	0.890280	99
Es	-0.385028	0.954881	0.578323	99
Es	2.773846	0.534960	-1.493820	99
Es	-0.031555	-1.701037	-0.145514	99
Es	-2.505909	-0.158190	0.087313	99
Es	0.278721	-0.707912	0.582495	99
Es	-0.169529	1.593121	0.243069	99
45
Properties=species:S:1:pos:R:3:Z:I:1 energy=-288.0923953542266 field_type=dipole dipole="0.000000 0.000000 0.000000" charge=0
N	-2.505861	-0.158257	0.087877	7
C	-1.114021	-0.054507	-0.332313	6
C	-0.385061	0.954933	0.578347	6
C	0.710159	-0.112267	0.816047	6
C	-0.300941	-1.182407	0.328367	6
C	1.994529	-0.034287	0.060457	6
C	2.119739	0.519163	-1.151883	6
H	-2.995921	-0.952877	-0.321493	1
H	-3.064051	0.663093	-0.142753	1
H	-0.953161	0.074023	-1.406433	1
H	-0.912171	1.226433	1.502807	1
H	-0.076391	1.885683	0.092487	1
H	0.940279	-0.222977	1.884567	1
H	0.086599	-1.937047	-0.363813	1
H	-0.792581	-1.706507	1.158036	1
H	2.868829	-0.465127	0.542957	1
H	1.291759	0.964513	-1.689403	1
H	3.088259	0.538423	-1.643853	1
Es	1.349158	-0.063789	0.425590	99
Es	0.710137	-0.112268	0.816002	99
Es	-0.385027	0.954881	0.578323	99
Es	-0.996561	0.035388	-1.070776	99
Es	-0.750118	-0.681742	-0.047611	99
Es	-1.114139	-0.054520	-0.332231	99
Es	-0.169563	1.593053	0.243112	99
Es	0.226977	0.487681	0.717494	99
Es	-1.927511	-0.108573	-0.145925	99
Es	-0.642379	-1.526434	0.890260	99
Es	-2.832546	0.341141	-0.081063	99
Es	2.773832	0.534878	-1.493932	99
Es	1.556427	0.822634	-1.517935	99
Es	-2.508369	-0.195464	0.430900	99
Es	-0.747547	1.125776	1.201652	99
Es	0.278849	-0.707997	0.582469	99
Es	-2.791984	-0.634952	-0.187757	99
Es	0.877414	-0.188251	1.548822	99
Es	1.994500	-0.034336	0.060552	99
Es	2.127005	0.537762	-0.422791	99
Es	1.993011	-0.035273	-0.701494	99
Es	-2.505907	-0.158177	0.087221	99
Es	2.583515	-0.332092	0.392971	99
Es	2.119746	0.519207	-1.151976	99
Es	-0.031597	-1.700996	-0.145459	99
Es	-0.799249	0.520273	0.091271	99
Es	-0.300909	-1.182354	0.328356	99
45
Properties=species:S:1:pos:R:3:Z:I:1 energy=-288.0923953542266 field_type=dipole dipole="0.000000 0.000000 0.000000" charge=0
N	-2.505861	-0.158257	0.087877	7
C	-1.114021	-0.054507	-0.332313	6
C	-0.385061	0.954933	0.578347	6
C	0.710159	-0.112267	0.816047	6
C	-0.300941	-1.182407	0.328367	6
C	1.994529	-0.034287	0.060457	6
C	2.119739	0.519163	-1.151883	6
H	-2.995921	-0.952877	-0.321493	1
H	-3.064051	0.663093	-0.142753	1
H	-0.953161	0.074023	-1.406433	1
H	-0.912171	1.226433	1.502807	1
H	-0.076391	1.885683	0.092487	1
H	0.940279	-0.222977	1.884567	1
H	0.086599	-1.937047	-0.363813	1
H	-0.792581	-1.706507	1.158036	1
H	2.868829	-0.465127	0.542957	1
H	1.291759	0.964513	-1.689403	1
H	3.088259	0.538423	-1.643853	1
Es	-0.169611	1.593067	0.243206	99
Es	1.993076	-0.035179	-0.701417	99
Es	-1.114139	-0.054521	-0.332231	99
Es	-0.747530	1.125725	1.201613	99
Es	-0.799254	0.520346	0.091242	99
Es	2.773833	0.534856	-1.493951	99
Es	2.119746	0.519207	-1.151978	99
Es	-0.031656	-1.700998	-0.145416	99
Es	0.278877	-0.708065	0.582504	99
Es	0.227083	0.487762	0.717528	99
Es	-0.385027	0.954879	0.578321	99
Es	-2.508336	-0.196128	0.430911	99
Es	0.877475	-0.188288	1.548759	99
Es	-0.642362	-1.526427	0.890191	99
Es	-2.832605	0.341419	-0.080651	99
Es	1.349040	-0.063846	0.425599	99
Es	-1.927602	-0.108671	-0.146138	99
Es	-0.300909	-1.182353	0.328358	99
Es	2.583531	-0.332097	0.392954	99
Es	1.556405	0.822586	-1.517950	99
Es	-2.505883	-0.158196	0.087411	99
Es	-0.996574	0.035423	-1.070683	99
Es	-0.750133	-0.681755	-0.047711	99
Es	2.127006	0.537749	-0.422802	99
Es	0.710137	-0.112268	0.816003	99
Es	-2.791926	-0.634451	-0.188189	99
Es	1.994503	-0.034318	0.060559	99
