42
Properties=species:S:1:pos:R:3:Z:I:1 energy=-286.8890621580493 field_type=dipole dipole="0.000000 0.000000 0.000000" charge=0
N	-1.967820	0.489302	-0.353461	7
C	-0.514080	0.482712	-0.495311	6
C	0.087390	1.520172	0.478019	6
C	1.155070	0.455122	0.818149	6
C	0.106690	-0.620198	0.414269	6
C	0.635880	-1.780848	-0.274421	6
C	1.073040	-2.745078	-0.838901	6
H	-2.417250	-0.312738	-0.795641	1
H	-2.412160	1.313682	-0.756091	1
H	-0.137360	0.537402	-1.522291	1
H	-0.536670	1.791392	1.338869	1
H	0.469380	2.435762	0.018189	1
H	2.041440	0.505012	0.173519	1
H	1.479320	0.433802	1.862289	1
H	-0.524980	-0.901698	1.269769	1
H	1.462110	-3.603798	-1.336961	1
Es	0.994040	-2.393990	-0.255245	99
Es	-0.245915	0.515376	-1.192474	99
Es	-2.223330	0.007742	-0.645940	99
Es	-0.314666	-0.811989	0.974589	99
Es	1.154992	0.455101	0.818121	99
Es	0.348425	2.153351	0.161356	99
Es	1.379722	0.435885	1.533975	99
Es	-1.967733	0.489311	-0.353968	99
Es	0.635790	-1.780660	-0.274324	99
Es	0.526606	-2.368017	-0.666156	99
Es	0.672443	1.051575	0.689019	99
Es	-0.514207	0.482683	-0.495233	99
Es	1.073139	-2.745274	-0.839027	99
Es	-0.341732	1.689941	1.057515	99
Es	1.058967	-2.058193	-0.777727	99
Es	-0.255267	1.068515	-0.047347	99
Es	-2.038907	0.480639	-0.014566	99
Es	-2.216953	0.986727	-0.622073	99
Es	-0.235659	-0.159520	-0.088335	99
Es	0.378757	-1.234062	0.057696	99
Es	1.327690	-3.305464	-1.165510	99
Es	1.747677	0.484929	0.368999	99
Es	0.106776	-0.620245	0.414182	99
Es	-1.350189	0.484501	-0.469564	99
Es	0.684457	-0.174332	0.637338	99
Es	0.087428	1.520114	0.477999	99
42
Properties=species:S:1:pos:R:3:Z:I:1 energy=-286.8890621580493 field_type=dipole dipole="0.000000 0.000000 0.000000" charge=0
N	-1.967820	0.489302	-0.353461	7
C	-0.514080	0.482712	-0.495311	6
C	0.087390	1.520172	0.478019	6
C	1.155070	0.455122	0.818149	6
C	0.106690	-0.620198	0.414269	6
C	0.635880	-1.780848	-0.274421	6
C	1.073040	-2.745078	-0.838901	6
H	-2.417250	-0.312738	-0.795641	1
H	-2.412160	1.313682	-0.756091	1
H	-0.137360	0.537402	-1.522291	1
H	-0.536670	1.791392	1.338869	1
H	0.469380	2.435762	0.018189	1
H	2.041440	0.505012	0.173519	1
H	1.479320	0.433802	1.862289	1
H	-0.524980	-0.901698	1.269769	1
H	1.462110	-3.603798	-1.336961	1
Es	-0.341600	1.690029	1.057506	99
Es	0.106779	-0.620244	0.414183	99
Es	0.087432	1.520122	0.477999	99
Es	1.043206	-2.057137	-0.791192	99
Es	-0.514207	0.482682	-0.495234	99
Es	0.348335	2.153251	0.161389	99
Es	-2.038615	0.481305	-0.014896	99
Es	1.379628	0.435952	1.533798	99
Es	-1.967738	0.489314	-0.354051	99
Es	-1.350118	0.484437	-0.469652	99
Es	1.011097	-2.383549	-0.259487	99
Es	-0.314553	-0.812093	0.974450	99
Es	0.525320	-2.379546	-0.648394	99
Es	-2.223655	0.007246	-0.645249	99
Es	0.684615	-0.174433	0.637480	99
Es	0.635794	-1.780663	-0.274319	99
Es	1.747777	0.484970	0.369143	99
Es	0.378765	-1.233959	0.057817	99
Es	1.073133	-2.745277	-0.839026	99
Es	-2.216949	0.986598	-0.622349	99
Es	1.154994	0.455105	0.818122	99
Es	-0.245863	0.515543	-1.192441	99
Es	-0.235798	-0.159673	-0.088414	99
Es	1.327636	-3.305448	-1.165549	99
Es	0.672509	1.051647	0.689027	99
Es	-0.255574	1.068463	-0.047361	99
42
Properties=species:S:1:pos:R:3:Z:I:1 energy=-286.8890621580493 field_type=dipole dipole="0.000000 0.000000 0.000000" charge=0
N	-1.967820	0.489302	-0.353461	7
C	-0.514080	0.482712	-0.495311	6
C	0.087390	1.520172	0.478019	6
C	1.155070	0.455122	0.818149	6
C	0.106690	-0.620198	0.414269	6
C	0.635880	-1.780848	-0.274421	6
C	1.073040	-2.745078	-0.838901	6
H	-2.417250	-0.312738	-0.795641	1
H	-2.412160	1.313682	-0.756091	1
H	-0.137360	0.537402	-1.522291	1
H	-0.536670	1.791392	1.338869	1
H	0.469380	2.435762	0.018189	1
H	2.041440	0.505012	0.173519	1
H	1.479320	0.433802	1.862289	1
H	-0.524980	-0.901698	1.269769	1
H	1.462110	-3.603798	-1.336961	1
Es	0.635798	-1.780656	-0.274317	99
Es	0.524518	-2.385412	-0.639387	99
Es	1.022893	-2.376572	-0.261810	99
Es	0.106777	-0.620244	0.414183	99
Es	1.327586	-3.305515	-1.165428	99
Es	-0.514207	0.482681	-0.495234	99
Es	1.154991	0.455101	0.818122	99
Es	-0.245860	0.515457	-1.192333	99
Es	-1.967739	0.489312	-0.354029	99
Es	0.087433	1.520115	0.477997	99
Es	-1.350302	0.484441	-0.470004	99
Es	-0.255525	1.068511	-0.047527	99
Es	-0.341636	1.690082	1.057405	99
Es	-0.235762	-0.159692	-0.088483	99
Es	0.348290	2.153190	0.161469	99
Es	1.073144	-2.745264	-0.839029	99
Es	1.747558	0.484896	0.369158	99
Es	0.684725	-0.174558	0.637562	99
Es	-2.223676	0.007200	-0.645114	99
Es	0.672602	1.051809	0.689119	99
Es	1.032312	-2.058133	-0.798020	99
Es	-2.038289	0.481214	-0.014889	99
Es	0.378570	-1.233997	0.057955	99
Es	-0.314593	-0.812061	0.974424	99
Es	-2.217117	0.986738	-0.622241	99
Es	1.379862	0.436001	1.533751	99
42
Properties=species:S:1:pos:R:3:Z:I:1 energy=-286.8890621580493 field_type=dipole dipole="0.000000 0.000000 0.000000" charge=0
N	-1.967820	0.489302	-0.353461	7
C	-0.514080	0.482712	-0.495311	6
C	0.087390	1.520172	0.478019	6
C	1.155070	0.455122	0.818149	6
C	0.106690	-0.620198	0.414269	6
C	0.635880	-1.780848	-0.274421	6
C	1.073040	-2.745078	-0.838901	6
H	-2.417250	-0.312738	-0.795641	1
H	-2.412160	1.313682	-0.756091	1
H	-0.137360	0.537402	-1.522291	1
H	-0.536670	1.791392	1.338869	1
H	0.469380	2.435762	0.018189	1
H	2.041440	0.505012	0.173519	1
H	1.479320	0.433802	1.862289	1
H	-0.524980	-0.901698	1.269769	1
H	1.462110	-3.603798	-1.336961	1
Es	-0.514206	0.482683	-0.495233	99
Es	-2.223611	0.007449	-0.645445	99
Es	-2.038483	0.480766	-0.015225	99
Es	1.747519	0.484890	0.369240	99
Es	0.535854	-2.429732	-0.558668	99
Es	1.073132	-2.745271	-0.839030	99
Es	-0.255520	1.068605	-0.047532	99
Es	1.154991	0.455101	0.818121	99
Es	1.379902	0.435982	1.533647	99
Es	0.635794	-1.780656	-0.274314	99
Es	0.087432	1.520115	0.477997	99
Es	0.672693	1.051872	0.689221	99
Es	-0.245944	0.515474	-1.192249	99
Es	-1.967743	0.489313	-0.354038	99
Es	1.327627	-3.305421	-1.165499	99
Es	-1.350025	0.484533	-0.469784	99
Es	1.089601	-2.326173	-0.295336	99
Es	-2.217237	0.986883	-0.621807	99
Es	0.106777	-0.620244	0.414182	99
Es	-0.341621	1.690118	1.057313	99
Es	0.684850	-0.174648	0.637643	99
Es	-0.235855	-0.159832	-0.088609	99
Es	0.378453	-1.233869	0.058059	99
Es	0.348242	2.153168	0.161494	99
Es	-0.314536	-0.812130	0.974318	99
Es	0.954266	-2.064333	-0.845165	99
42
Properties=species:S:1:pos:R:3:Z:I:1 energy=-286.8890621580493 field_type=dipole dipole="0.000000 0.000000 0.000000" charge=0
N	-1.967820	0.489302	-0.353461	7
C	-0.514080	0.482712	-0.495311	6
C	0.087390	1.520172	0.478019	6
C	1.155070	0.455122	0.818149	6
C	0.106690	-0.620198	0.414269	6
C	0.635880	-1.780848	-0.274421	6
C	1.073040	-2.745078	-0.838901	6
H	-2.417250	-0.312738	-0.795641	1
H	-2.412160	1.313682	-0.756091	1
H	-0.137360	0.537402	-1.522291	1
H	-0.536670	1.791392	1.338869	1
H	0.469380	2.435762	0.018189	1
H	2.041440	0.505012	0.173519	1
H	1.479320	0.433802	1.862289	1
H	-0.524980	-0.901698	1.269769	1
H	1.462110	-3.603798	-1.336961	1
Es	0.348202	2.153141	0.161577	99
Es	-0.314510	-0.812218	0.974254	99
Es	1.073135	-2.745268	-0.839030	99
Es	-0.341577	1.690131	1.057260	99
Es	-0.514206	0.482684	-0.495233	99
Es	0.106777	-0.620244	0.414183	99
Es	0.378462	-1.233735	0.058066	99
Es	0.684931	-0.174730	0.637720	99
Es	-0.245961	0.515471	-1.192172	99
Es	1.154991	0.455102	0.818121	99
Es	-1.350065	0.484496	-0.469940	99
Es	1.379947	0.435990	1.533541	99
Es	-2.038559	0.480804	-0.015073	99
Es	0.528563	-2.411541	-0.594002	99
Es	-2.223575	0.007523	-0.645451	99
Es	1.061269	-2.349346	-0.278006	99
Es	1.327612	-3.305368	-1.165537	99
Es	0.989852	-2.059450	-0.827021	99
Es	1.747475	0.484866	0.369341	99
Es	0.087433	1.520115	0.477996	99
Es	0.672757	1.051993	0.689262	99
Es	-0.235889	-0.159875	-0.088725	99
Es	-1.967735	0.489313	-0.353941	99
Es	-2.217194	0.986796	-0.621933	99
Es	-0.255578	1.068652	-0.047645	99
Es	0.635795	-1.780656	-0.274312	99
42
Properties=species:S:1:pos:R:3:Z:I:1 energy=-286.8890621580493 field_type=dipole dipole="0.000000 0.000000 0.000000" charge=0
N	-1.967820	0.489302	-0.353461	7
C	-0.514080	0.482712	-0.495311	6
C	0.087390	1.520172	0.478019	6
C	1.155070	0.455122	0.818149	6
C	0.106690	-0.620198	0.414269	6
C	0.635880	-1.780848	-0.274421	6
C	1.073040	-2.745078	-0.838901	6
H	-2.417250	-0.312738	-0.795641	1
H	-2.412160	1.313682	-0.756091	1
H	-0.137360	0.537402	-1.522291	1
H	-0.536670	1.791392	1.338869	1
H	0.469380	2.435762	0.018189	1
H	2.041440	0.505012	0.173519	1
H	1.479320	0.433802	1.862289	1
H	-0.524980	-0.901698	1.269769	1
H	1.462110	-3.603798	-1.336961	1
Es	-0.245999	0.515443	-1.192080	99
Es	1.327573	-3.305404	-1.165420	99
Es	-1.350060	0.484518	-0.470112	99
Es	0.672879	1.052051	0.689359	99
Es	0.378377	-1.233653	0.058178	99
Es	1.045638	-2.360752	-0.270902	99
Es	0.685070	-0.174813	0.637811	99
Es	1.073135	-2.745270	-0.839027	99
Es	0.526102	-2.401550	-0.612097	99
Es	-0.255597	1.068765	-0.047690	99
Es	1.747463	0.484860	0.369400	99
Es	-0.314498	-0.812296	0.974181	99
Es	1.154991	0.455102	0.818121	99
Es	0.635794	-1.780657	-0.274314	99
Es	-0.235935	-0.159955	-0.088828	99
Es	-2.223625	0.007536	-0.645439	99
Es	-1.967700	0.489310	-0.354004	99
Es	-0.514206	0.482684	-0.495232	99
Es	0.106776	-0.620243	0.414183	99
Es	0.348112	2.153108	0.161620	99
Es	1.007958	-2.057974	-0.816160	99
Es	0.087433	1.520115	0.477996	99
Es	-0.341565	1.690157	1.057170	99
Es	-2.217289	0.986860	-0.621745	99
Es	-2.038452	0.480705	-0.015096	99
Es	1.379975	0.435999	1.533426	99
42
Properties=species:S:1:pos:R:3:Z:I:1 energy=-286.8890621580493 field_type=dipole dipole="0.000000 0.000000 0.000000" charge=0
N	-1.967820	0.489302	-0.353461	7
C	-0.514080	0.482712	-0.495311	6
C	0.087390	1.520172	0.478019	6
C	1.155070	0.455122	0.818149	6
C	0.106690	-0.620198	0.414269	6
C	0.635880	-1.780848	-0.274421	6
C	1.073040	-2.745078	-0.838901	6
H	-2.417250	-0.312738	-0.795641	1
H	-2.412160	1.313682	-0.756091	1
H	-0.137360	0.537402	-1.522291	1
H	-0.536670	1.791392	1.338869	1
H	0.469380	2.435762	0.018189	1
H	2.041440	0.505012	0.173519	1
H	1.479320	0.433802	1.862289	1
H	-0.524980	-0.901698	1.269769	1
H	1.462110	-3.603798	-1.336961	1
Es	1.185902	-2.198327	-0.440867	99
Es	-2.223682	0.007482	-0.645312	99
Es	-2.038437	0.480820	-0.015249	99
Es	1.073135	-2.745269	-0.839028	99
Es	-2.217295	0.986821	-0.621784	99
Es	0.643053	-2.487440	-0.379649	99
Es	0.106777	-0.620242	0.414182	99
Es	-1.967746	0.489309	-0.354035	99
Es	0.672971	1.052135	0.689430	99
Es	-0.246024	0.515439	-1.192006	99
Es	-0.341540	1.690176	1.057098	99
Es	-0.255631	1.068832	-0.047755	99
Es	-0.514205	0.482684	-0.495231	99
Es	1.747429	0.484845	0.369478	99
Es	0.635794	-1.780656	-0.274314	99
Es	-0.314476	-0.812335	0.974087	99
Es	-1.349966	0.484512	-0.470059	99
Es	1.380010	0.436004	1.533324	99
Es	1.154991	0.455102	0.818121	99
Es	0.087434	1.520114	0.477996	99
Es	0.750934	-2.134544	-0.878975	99
Es	0.378291	-1.233613	0.058526	99
Es	0.685073	-0.174916	0.637896	99
Es	0.348058	2.153081	0.161677	99
Es	1.327471	-3.305297	-1.165449	99
Es	-0.235970	-0.160073	-0.088802	99
42
Properties=species:S:1:pos:R:3:Z:I:1 energy=-286.8890621580493 field_type=dipole dipole="0.000000 0.000000 0.000000" charge=0
N	-1.967820	0.489302	-0.353461	7
C	-0.514080	0.482712	-0.495311	6
C	0.087390	1.520172	0.478019	6
C	1.155070	0.455122	0.818149	6
C	0.106690	-0.620198	0.414269	6
C	0.635880	-1.780848	-0.274421	6
C	1.073040	-2.745078	-0.838901	6
H	-2.417250	-0.312738	-0.795641	1
H	-2.412160	1.313682	-0.756091	1
H	-0.137360	0.537402	-1.522291	1
H	-0.536670	1.791392	1.338869	1
H	0.469380	2.435762	0.018189	1
H	2.041440	0.505012	0.173519	1
H	1.479320	0.433802	1.862289	1
H	-0.524980	-0.901698	1.269769	1
H	1.462110	-3.603798	-1.336961	1
Es	0.348003	2.153055	0.161741	99
Es	-0.341523	1.690194	1.057011	99
Es	-1.350287	0.484515	-0.470787	99
Es	1.327517	-3.305391	-1.165352	99
Es	1.073140	-2.745279	-0.839034	99
Es	0.673057	1.052242	0.689544	99
Es	-2.217356	0.986854	-0.621641	99
Es	0.087434	1.520114	0.477996	99
Es	1.051134	-2.057632	-0.784724	99
Es	0.635793	-1.780655	-0.274315	99
Es	0.685235	-0.174867	0.637986	99
Es	1.380040	0.435994	1.533202	99
Es	-0.236088	-0.160168	-0.088991	99
Es	-0.514205	0.482684	-0.495231	99
Es	1.154990	0.455102	0.818121	99
Es	1.747424	0.484811	0.369533	99
Es	-2.038021	0.480661	-0.014688	99
Es	0.378348	-1.233407	0.058281	99
Es	-0.255641	1.068882	-0.047835	99
Es	1.002922	-2.388873	-0.256926	99
Es	-0.314417	-0.812490	0.974027	99
Es	0.525610	-2.373818	-0.657514	99
Es	-2.223715	0.007611	-0.645349	99
Es	-0.246059	0.515435	-1.191923	99
Es	0.106777	-0.620242	0.414182	99
Es	-1.967762	0.489311	-0.354016	99
42
Properties=species:S:1:pos:R:3:Z:I:1 energy=-286.8890621580493 field_type=dipole dipole="0.000000 0.000000 0.000000" charge=0
N	-1.967820	0.489302	-0.353461	7
C	-0.514080	0.482712	-0.495311	6
C	0.087390	1.520172	0.478019	6
C	1.155070	0.455122	0.818149	6
C	0.106690	-0.620198	0.414269	6
C	0.635880	-1.780848	-0.274421	6
C	1.073040	-2.745078	-0.838901	6
H	-2.417250	-0.312738	-0.795641	1
H	-2.412160	1.313682	-0.756091	1
H	-0.137360	0.537402	-1.522291	1
H	-0.536670	1.791392	1.338869	1
H	0.469380	2.435762	0.018189	1
H	2.041440	0.505012	0.173519	1
H	1.479320	0.433802	1.862289	1
H	-0.524980	-0.901698	1.269769	1
H	1.462110	-3.603798	-1.336961	1
Es	0.685395	-0.175064	0.637997	99
Es	0.087434	1.520114	0.477996	99
Es	-1.350000	0.484439	-0.470161	99
Es	0.347967	2.153016	0.161797	99
Es	1.073119	-2.745279	-0.839013	99
Es	1.327475	-3.305408	-1.165323	99
Es	-0.341510	1.690219	1.056962	99
Es	-0.514205	0.482684	-0.495230	99
Es	-0.314441	-0.812480	0.973989	99
Es	-2.217395	0.986992	-0.621739	99
Es	1.038572	-2.365801	-0.267906	99
Es	0.106777	-0.620243	0.414182	99
Es	-1.967759	0.489318	-0.354042	99
Es	0.673122	1.052280	0.689588	99
Es	0.635794	-1.780659	-0.274314	99
Es	-2.223594	0.007618	-0.645345	99
Es	0.525053	-2.396624	-0.620853	99
Es	-0.236051	-0.160187	-0.089099	99
Es	0.378088	-1.233384	0.058401	99
Es	1.380083	0.435998	1.533123	99
Es	1.016223	-2.057851	-0.810469	99
Es	-0.255683	1.068981	-0.047894	99
Es	1.747365	0.484842	0.369624	99
Es	1.154989	0.455102	0.818121	99
Es	-2.038397	0.480581	-0.015258	99
Es	-0.246073	0.515437	-1.191835	99
42
Properties=species:S:1:pos:R:3:Z:I:1 energy=-286.8890621580493 field_type=dipole dipole="0.000000 0.000000 0.000000" charge=0
N	-1.967820	0.489302	-0.353461	7
C	-0.514080	0.482712	-0.495311	6
C	0.087390	1.520172	0.478019	6
C	1.155070	0.455122	0.818149	6
C	0.106690	-0.620198	0.414269	6
C	0.635880	-1.780848	-0.274421	6
C	1.073040	-2.745078	-0.838901	6
H	-2.417250	-0.312738	-0.795641	1
H	-2.412160	1.313682	-0.756091	1
H	-0.137360	0.537402	-1.522291	1
H	-0.536670	1.791392	1.338869	1
H	0.469380	2.435762	0.018189	1
H	2.041440	0.505012	0.173519	1
H	1.479320	0.433802	1.862289	1
H	-0.524980	-0.901698	1.269769	1
H	1.462110	-3.603798	-1.336961	1
Es	0.106778	-0.620241	0.414182	99
Es	-2.223726	0.007577	-0.645330	99
Es	-1.349910	0.484542	-0.470347	99
Es	0.347818	2.153046	0.161918	99
Es	-2.217333	0.986783	-0.621668	99
Es	-0.236112	-0.160282	-0.089165	99
Es	-1.967732	0.489311	-0.354022	99
Es	1.380116	0.436018	1.533033	99
Es	0.087434	1.520114	0.477995	99
Es	-0.341465	1.690125	1.056922	99
Es	1.747345	0.484809	0.369694	99
Es	0.543131	-2.319715	-0.732002	99
Es	1.115755	-2.068660	-0.717770	99
Es	-0.514204	0.482684	-0.495230	99
Es	-0.255688	1.069057	-0.048000	99
Es	1.327425	-3.305379	-1.165317	99
Es	0.673268	1.052403	0.689572	99
Es	0.920842	-2.431988	-0.249502	99
Es	-0.314407	-0.812542	0.973938	99
Es	0.685460	-0.175128	0.638066	99
Es	-2.038440	0.480758	-0.015204	99
Es	0.635794	-1.780657	-0.274315	99
Es	-0.246107	0.515410	-1.191774	99
Es	1.154990	0.455102	0.818121	99
Es	1.073134	-2.745269	-0.839026	99
Es	0.378185	-1.233236	0.058529	99
