47
Properties=species:S:1:pos:R:3:Z:I:1 energy=-305.286200939358 field_type=dipole dipole="0.000000 0.000000 0.000000" charge=0
N	-0.874797	-2.130314	-1.467269	7
C	-0.690257	-1.653794	-0.101079	6
C	0.156103	-0.389404	-0.091279	6
C	-0.497837	0.911206	-0.635619	6
C	0.091173	1.676436	0.565481	6
N	1.401263	2.217896	0.202771	7
C	0.275513	0.324326	1.282571	6
H	-1.437387	-2.980144	-1.455099	1
H	0.026593	-2.394504	-1.862989	1
H	-0.202447	-2.436203	0.490721	1
H	-1.672717	-1.467594	0.346431	1
H	1.146373	-0.572544	-0.534309	1
H	-1.595147	0.891966	-0.626569	1
H	-0.174757	1.221287	-1.634679	1
H	-0.574677	2.393527	1.051541	1
H	2.004773	1.586316	-0.321409	1
H	1.948013	2.539056	0.999811	1
H	1.217043	0.164836	1.817921	1
H	-0.546827	0.097646	1.973051	1
Es	-0.321740	-2.301869	-1.686854	99
Es	1.750721	1.804322	-0.088997	99
Es	-0.193116	0.217385	-0.438664	99
Es	-0.874553	-2.130700	-1.466948	99
Es	0.156088	-0.389374	-0.091251	99
Es	0.837033	-0.516307	-0.398637	99
Es	1.356786	2.493076	-0.002257	99
Es	-0.228746	1.368584	-0.070443	99
Es	-0.690261	-1.653836	-0.101222	99
Es	0.855315	1.962704	0.378059	99
Es	-0.347293	-2.192082	0.318777	99
Es	0.091321	1.676441	0.565434	99
Es	1.401358	2.217429	0.203121	99
Es	0.275496	0.324299	1.282535	99
Es	0.193091	1.027576	1.011533	99
Es	-0.267326	-1.025154	-0.099481	99
Es	-0.297213	0.161325	1.746863	99
Es	0.925994	0.221046	1.652578	99
Es	-1.027859	-1.884786	-1.669486	99
Es	-1.364955	-1.522099	0.206268	99
Es	-1.202578	-2.654837	-1.444612	99
Es	-0.355875	2.178821	0.903302	99
Es	-0.783834	-1.947746	-0.871506	99
Es	-0.272683	1.128445	-1.314338	99
Es	0.242097	-0.108929	0.636771	99
Es	-0.497815	0.911180	-0.635566	99
Es	1.725037	2.382979	0.703260	99
Es	-1.245394	0.890353	-0.615158	99
47
Properties=species:S:1:pos:R:3:Z:I:1 energy=-305.286200939358 field_type=dipole dipole="0.000000 0.000000 0.000000" charge=0
N	-0.874797	-2.130314	-1.467269	7
C	-0.690257	-1.653794	-0.101079	6
C	0.156103	-0.389404	-0.091279	6
C	-0.497837	0.911206	-0.635619	6
C	0.091173	1.676436	0.565481	6
N	1.401263	2.217896	0.202771	7
C	0.275513	0.324326	1.282571	6
H	-1.437387	-2.980144	-1.455099	1
H	0.026593	-2.394504	-1.862989	1
H	-0.202447	-2.436203	0.490721	1
H	-1.672717	-1.467594	0.346431	1
H	1.146373	-0.572544	-0.534309	1
H	-1.595147	0.891966	-0.626569	1
H	-0.174757	1.221287	-1.634679	1
H	-0.574677	2.393527	1.051541	1
H	2.004773	1.586316	-0.321409	1
H	1.948013	2.539056	0.999811	1
H	1.217043	0.164836	1.817921	1
H	-0.546827	0.097646	1.973051	1
Es	0.275495	0.324299	1.282535	99
Es	1.750750	1.804835	-0.089369	99
Es	-0.297117	0.161447	1.746894	99
Es	0.836871	-0.516380	-0.398717	99
Es	-0.497817	0.911180	-0.635567	99
Es	-0.874540	-2.130717	-1.466940	99
Es	-0.272727	1.128401	-1.314331	99
Es	-0.321801	-2.301965	-1.686972	99
Es	-0.267294	-1.025050	-0.099500	99
Es	0.855385	1.962231	0.378343	99
Es	1.356575	2.493558	-0.001957	99
Es	0.193067	1.027582	1.011402	99
Es	-0.783679	-1.947893	-0.871517	99
Es	1.401363	2.217435	0.203116	99
Es	-1.364905	-1.522102	0.206223	99
Es	-0.347380	-2.192053	0.318819	99
Es	-1.027814	-1.884703	-1.669378	99
Es	-0.690261	-1.653836	-0.101221	99
Es	-1.245294	0.890344	-0.615223	99
Es	-1.202737	-2.654734	-1.444606	99
Es	0.156087	-0.389372	-0.091249	99
Es	-0.228878	1.368699	-0.070443	99
Es	-0.193159	0.217425	-0.438641	99
Es	0.925902	0.221209	1.652635	99
Es	0.242310	-0.109271	0.636890	99
Es	0.091320	1.676439	0.565435	99
Es	1.725153	2.382487	0.703072	99
Es	-0.355779	2.178751	0.903353	99
47
Properties=species:S:1:pos:R:3:Z:I:1 energy=-305.286200939358 field_type=dipole dipole="0.000000 0.000000 0.000000" charge=0
N	-0.874797	-2.130314	-1.467269	7
C	-0.690257	-1.653794	-0.101079	6
C	0.156103	-0.389404	-0.091279	6
C	-0.497837	0.911206	-0.635619	6
C	0.091173	1.676436	0.565481	6
N	1.401263	2.217896	0.202771	7
C	0.275513	0.324326	1.282571	6
H	-1.437387	-2.980144	-1.455099	1
H	0.026593	-2.394504	-1.862989	1
H	-0.202447	-2.436203	0.490721	1
H	-1.672717	-1.467594	0.346431	1
H	1.146373	-0.572544	-0.534309	1
H	-1.595147	0.891966	-0.626569	1
H	-0.174757	1.221287	-1.634679	1
H	-0.574677	2.393527	1.051541	1
H	2.004773	1.586316	-0.321409	1
H	1.948013	2.539056	0.999811	1
H	1.217043	0.164836	1.817921	1
H	-0.546827	0.097646	1.973051	1
Es	0.836796	-0.516305	-0.398700	99
Es	-0.297096	0.161428	1.746890	99
Es	-1.202796	-2.654604	-1.444958	99
Es	1.750708	1.804504	-0.089052	99
Es	1.725000	2.382333	0.703104	99
Es	-1.027677	-1.884904	-1.669060	99
Es	-1.245223	0.890273	-0.615319	99
Es	0.275495	0.324297	1.282536	99
Es	0.091315	1.676435	0.565433	99
Es	-0.229006	1.368911	-0.070452	99
Es	-1.364846	-1.522078	0.206253	99
Es	-0.193066	0.217293	-0.438717	99
Es	0.925771	0.221213	1.652643	99
Es	0.242354	-0.109301	0.637019	99
Es	1.401344	2.217434	0.203115	99
Es	-0.272821	1.128377	-1.314249	99
Es	0.855289	1.962593	0.378236	99
Es	1.356913	2.493706	-0.002166	99
Es	-0.690261	-1.653836	-0.101222	99
Es	-0.874540	-2.130719	-1.466955	99
Es	-0.355685	2.178701	0.903280	99
Es	-0.783969	-1.947981	-0.871395	99
Es	-0.321633	-2.301820	-1.687099	99
Es	0.156088	-0.389373	-0.091250	99
Es	-0.497813	0.911181	-0.635564	99
Es	-0.347388	-2.192039	0.318831	99
Es	-0.267198	-1.025103	-0.099597	99
Es	0.193043	1.027631	1.011498	99
47
Properties=species:S:1:pos:R:3:Z:I:1 energy=-305.286200939358 field_type=dipole dipole="0.000000 0.000000 0.000000" charge=0
N	-0.874797	-2.130314	-1.467269	7
C	-0.690257	-1.653794	-0.101079	6
C	0.156103	-0.389404	-0.091279	6
C	-0.497837	0.911206	-0.635619	6
C	0.091173	1.676436	0.565481	6
N	1.401263	2.217896	0.202771	7
C	0.275513	0.324326	1.282571	6
H	-1.437387	-2.980144	-1.455099	1
H	0.026593	-2.394504	-1.862989	1
H	-0.202447	-2.436203	0.490721	1
H	-1.672717	-1.467594	0.346431	1
H	1.146373	-0.572544	-0.534309	1
H	-1.595147	0.891966	-0.626569	1
H	-0.174757	1.221287	-1.634679	1
H	-0.574677	2.393527	1.051541	1
H	2.004773	1.586316	-0.321409	1
H	1.948013	2.539056	0.999811	1
H	1.217043	0.164836	1.817921	1
H	-0.546827	0.097646	1.973051	1
Es	1.725091	2.382536	0.703087	99
Es	-1.027523	-1.885149	-1.669194	99
Es	1.401351	2.217451	0.203123	99
Es	-0.355627	2.178624	0.903169	99
Es	-1.202863	-2.654630	-1.444906	99
Es	0.242482	-0.109549	0.636993	99
Es	-0.321647	-2.301892	-1.687021	99
Es	0.193019	1.027678	1.011636	99
Es	-0.272817	1.128368	-1.314220	99
Es	-0.690258	-1.653839	-0.101224	99
Es	-0.267176	-1.025058	-0.099499	99
Es	0.156089	-0.389375	-0.091251	99
Es	-1.245193	0.890355	-0.615352	99
Es	0.275495	0.324296	1.282537	99
Es	-1.364833	-1.522188	0.206282	99
Es	-0.347405	-2.192037	0.318750	99
Es	1.750719	1.804705	-0.089097	99
Es	-0.296977	0.161445	1.746937	99
Es	0.836704	-0.516319	-0.398700	99
Es	0.925656	0.221287	1.652620	99
Es	-0.497814	0.911180	-0.635566	99
Es	1.356791	2.493477	-0.002169	99
Es	0.855263	1.962482	0.378323	99
Es	-0.229028	1.368935	-0.070506	99
Es	-0.784027	-1.947593	-0.871442	99
Es	0.091317	1.676437	0.565433	99
Es	-0.874546	-2.130703	-1.466955	99
Es	-0.193149	0.217323	-0.438705	99
47
Properties=species:S:1:pos:R:3:Z:I:1 energy=-305.286200939358 field_type=dipole dipole="0.000000 0.000000 0.000000" charge=0
N	-0.874797	-2.130314	-1.467269	7
C	-0.690257	-1.653794	-0.101079	6
C	0.156103	-0.389404	-0.091279	6
C	-0.497837	0.911206	-0.635619	6
C	0.091173	1.676436	0.565481	6
N	1.401263	2.217896	0.202771	7
C	0.275513	0.324326	1.282571	6
H	-1.437387	-2.980144	-1.455099	1
H	0.026593	-2.394504	-1.862989	1
H	-0.202447	-2.436203	0.490721	1
H	-1.672717	-1.467594	0.346431	1
H	1.146373	-0.572544	-0.534309	1
H	-1.595147	0.891966	-0.626569	1
H	-0.174757	1.221287	-1.634679	1
H	-0.574677	2.393527	1.051541	1
H	2.004773	1.586316	-0.321409	1
H	1.948013	2.539056	0.999811	1
H	1.217043	0.164836	1.817921	1
H	-0.546827	0.097646	1.973051	1
Es	-0.229091	1.369060	-0.070523	99
Es	0.836642	-0.516336	-0.398675	99
Es	0.275495	0.324298	1.282536	99
Es	-1.027615	-1.885135	-1.669399	99
Es	-0.690261	-1.653836	-0.101220	99
Es	0.242426	-0.109509	0.637026	99
Es	-0.272916	1.128318	-1.314146	99
Es	-0.267050	-1.025059	-0.099531	99
Es	0.091318	1.676438	0.565433	99
Es	-1.202661	-2.654512	-1.444914	99
Es	1.356841	2.493655	-0.002124	99
Es	1.725051	2.382408	0.703048	99
Es	-0.784039	-1.947720	-0.871268	99
Es	0.156088	-0.389372	-0.091250	99
Es	1.750723	1.804634	-0.089127	99
Es	1.401362	2.217389	0.203148	99
Es	-0.355563	2.178593	0.903191	99
Es	0.855272	1.962568	0.378333	99
Es	-0.321746	-2.302003	-1.686992	99
Es	-1.364797	-1.522132	0.206274	99
Es	0.192990	1.027777	1.011704	99
Es	-0.193122	0.217202	-0.438850	99
Es	-0.874563	-2.130706	-1.466956	99
Es	-0.497816	0.911179	-0.635566	99
Es	-1.245149	0.890336	-0.615401	99
Es	-0.296882	0.161457	1.746897	99
Es	0.925621	0.221232	1.652634	99
Es	-0.347461	-2.191978	0.318802	99
47
Properties=species:S:1:pos:R:3:Z:I:1 energy=-305.286200939358 field_type=dipole dipole="0.000000 0.000000 0.000000" charge=0
N	-0.874797	-2.130314	-1.467269	7
C	-0.690257	-1.653794	-0.101079	6
C	0.156103	-0.389404	-0.091279	6
C	-0.497837	0.911206	-0.635619	6
C	0.091173	1.676436	0.565481	6
N	1.401263	2.217896	0.202771	7
C	0.275513	0.324326	1.282571	6
H	-1.437387	-2.980144	-1.455099	1
H	0.026593	-2.394504	-1.862989	1
H	-0.202447	-2.436203	0.490721	1
H	-1.672717	-1.467594	0.346431	1
H	1.146373	-0.572544	-0.534309	1
H	-1.595147	0.891966	-0.626569	1
H	-0.174757	1.221287	-1.634679	1
H	-0.574677	2.393527	1.051541	1
H	2.004773	1.586316	-0.321409	1
H	1.948013	2.539056	0.999811	1
H	1.217043	0.164836	1.817921	1
H	-0.546827	0.097646	1.973051	1
Es	-0.690261	-1.653836	-0.101219	99
Es	1.356356	2.494250	-0.002517	99
Es	0.925534	0.221268	1.652677	99
Es	-0.355433	2.178547	0.903133	99
Es	-0.347450	-2.191974	0.318829	99
Es	-0.267036	-1.025060	-0.099582	99
Es	1.750844	1.804635	-0.088895	99
Es	-0.874553	-2.130725	-1.466949	99
Es	-0.497814	0.911180	-0.635566	99
Es	0.836586	-0.516293	-0.398602	99
Es	-0.296827	0.161465	1.746866	99
Es	0.242436	-0.109612	0.637079	99
Es	1.724914	2.382295	0.702838	99
Es	1.401349	2.217415	0.203128	99
Es	-1.027636	-1.885033	-1.669294	99
Es	-0.784097	-1.947849	-0.871382	99
Es	0.091318	1.676439	0.565432	99
Es	-0.272972	1.128377	-1.314067	99
Es	0.192920	1.027824	1.011818	99
Es	-0.193092	0.217074	-0.438981	99
Es	-0.229174	1.369082	-0.070595	99
Es	-0.321671	-2.301917	-1.686991	99
Es	-1.364734	-1.522164	0.206263	99
Es	0.275495	0.324297	1.282537	99
Es	0.855801	1.962065	0.378777	99
Es	-1.245112	0.890411	-0.615423	99
Es	-1.202683	-2.654545	-1.444980	99
Es	0.156089	-0.389371	-0.091250	99
47
Properties=species:S:1:pos:R:3:Z:I:1 energy=-305.286200939358 field_type=dipole dipole="0.000000 0.000000 0.000000" charge=0
N	-0.874797	-2.130314	-1.467269	7
C	-0.690257	-1.653794	-0.101079	6
C	0.156103	-0.389404	-0.091279	6
C	-0.497837	0.911206	-0.635619	6
C	0.091173	1.676436	0.565481	6
N	1.401263	2.217896	0.202771	7
C	0.275513	0.324326	1.282571	6
H	-1.437387	-2.980144	-1.455099	1
H	0.026593	-2.394504	-1.862989	1
H	-0.202447	-2.436203	0.490721	1
H	-1.672717	-1.467594	0.346431	1
H	1.146373	-0.572544	-0.534309	1
H	-1.595147	0.891966	-0.626569	1
H	-0.174757	1.221287	-1.634679	1
H	-0.574677	2.393527	1.051541	1
H	2.004773	1.586316	-0.321409	1
H	1.948013	2.539056	0.999811	1
H	1.217043	0.164836	1.817921	1
H	-0.546827	0.097646	1.973051	1
Es	-1.245060	0.890422	-0.615437	99
Es	0.156088	-0.389372	-0.091249	99
Es	-1.027446	-1.885280	-1.669267	99
Es	-0.497815	0.911179	-0.635566	99
Es	-1.364737	-1.522133	0.206285	99
Es	-0.784039	-1.947672	-0.871311	99
Es	1.356774	2.493638	-0.002336	99
Es	1.750659	1.804627	-0.088946	99
Es	1.725106	2.382508	0.703015	99
Es	-0.193056	0.217033	-0.439054	99
Es	-0.874545	-2.130711	-1.466944	99
Es	-0.321782	-2.301934	-1.687056	99
Es	-0.229180	1.369138	-0.070559	99
Es	-0.273047	1.128390	-1.314026	99
Es	0.925453	0.221269	1.652670	99
Es	-1.202819	-2.654533	-1.445035	99
Es	-0.355431	2.178515	0.903108	99
Es	-0.267003	-1.025098	-0.099548	99
Es	0.855380	1.962502	0.378457	99
Es	0.192907	1.027877	1.011892	99
Es	0.242541	-0.109669	0.637037	99
Es	0.091317	1.676436	0.565433	99
Es	-0.690257	-1.653830	-0.101217	99
Es	1.401366	2.217420	0.203128	99
Es	-0.347512	-2.191917	0.318823	99
Es	-0.296736	0.161480	1.746872	99
Es	0.836478	-0.516338	-0.398623	99
Es	0.275495	0.324298	1.282536	99
47
Properties=species:S:1:pos:R:3:Z:I:1 energy=-305.286200939358 field_type=dipole dipole="0.000000 0.000000 0.000000" charge=0
N	-0.874797	-2.130314	-1.467269	7
C	-0.690257	-1.653794	-0.101079	6
C	0.156103	-0.389404	-0.091279	6
C	-0.497837	0.911206	-0.635619	6
C	0.091173	1.676436	0.565481	6
N	1.401263	2.217896	0.202771	7
C	0.275513	0.324326	1.282571	6
H	-1.437387	-2.980144	-1.455099	1
H	0.026593	-2.394504	-1.862989	1
H	-0.202447	-2.436203	0.490721	1
H	-1.672717	-1.467594	0.346431	1
H	1.146373	-0.572544	-0.534309	1
H	-1.595147	0.891966	-0.626569	1
H	-0.174757	1.221287	-1.634679	1
H	-0.574677	2.393527	1.051541	1
H	2.004773	1.586316	-0.321409	1
H	1.948013	2.539056	0.999811	1
H	1.217043	0.164836	1.817921	1
H	-0.546827	0.097646	1.973051	1
Es	0.836375	-0.516366	-0.398646	99
Es	-0.497814	0.911179	-0.635564	99
Es	-0.266873	-1.024970	-0.099637	99
Es	-0.690261	-1.653836	-0.101219	99
Es	1.356613	2.493628	-0.003141	99
Es	-1.202838	-2.654525	-1.445077	99
Es	-1.027392	-1.885372	-1.669233	99
Es	-0.193008	0.216900	-0.439117	99
Es	0.091313	1.676436	0.565434	99
Es	-1.364709	-1.522164	0.206284	99
Es	0.275493	0.324298	1.282536	99
Es	0.242602	-0.109678	0.637214	99
Es	0.192810	1.027905	1.011886	99
Es	1.401372	2.217407	0.203129	99
Es	-0.321804	-2.301913	-1.687094	99
Es	-0.347563	-2.191890	0.318813	99
Es	1.725080	2.382957	0.702863	99
Es	-1.244984	0.890435	-0.615461	99
Es	0.925384	0.221272	1.652604	99
Es	-0.784061	-1.947656	-0.871262	99
Es	-0.273154	1.128371	-1.313980	99
Es	-0.296681	0.161376	1.746903	99
Es	0.855658	1.962358	0.378718	99
Es	-0.355362	2.178454	0.903136	99
Es	1.750612	1.804363	-0.088215	99
Es	-0.874551	-2.130705	-1.466948	99
Es	-0.229247	1.369355	-0.070594	99
Es	0.156087	-0.389372	-0.091249	99
47
Properties=species:S:1:pos:R:3:Z:I:1 energy=-305.286200939358 field_type=dipole dipole="0.000000 0.000000 0.000000" charge=0
N	-0.874797	-2.130314	-1.467269	7
C	-0.690257	-1.653794	-0.101079	6
C	0.156103	-0.389404	-0.091279	6
C	-0.497837	0.911206	-0.635619	6
C	0.091173	1.676436	0.565481	6
N	1.401263	2.217896	0.202771	7
C	0.275513	0.324326	1.282571	6
H	-1.437387	-2.980144	-1.455099	1
H	0.026593	-2.394504	-1.862989	1
H	-0.202447	-2.436203	0.490721	1
H	-1.672717	-1.467594	0.346431	1
H	1.146373	-0.572544	-0.534309	1
H	-1.595147	0.891966	-0.626569	1
H	-0.174757	1.221287	-1.634679	1
H	-0.574677	2.393527	1.051541	1
H	2.004773	1.586316	-0.321409	1
H	1.948013	2.539056	0.999811	1
H	1.217043	0.164836	1.817921	1
H	-0.546827	0.097646	1.973051	1
Es	0.925273	0.221331	1.652652	99
Es	-1.027331	-1.885466	-1.669198	99
Es	-1.202856	-2.654502	-1.445161	99
Es	-0.690261	-1.653836	-0.101218	99
Es	-0.355312	2.178426	0.903028	99
Es	-0.784102	-1.947632	-0.871233	99
Es	-0.266802	-1.024998	-0.099570	99
Es	-0.229328	1.369287	-0.070598	99
Es	0.836312	-0.516366	-0.398629	99
Es	-0.347604	-2.191867	0.318820	99
Es	0.275495	0.324298	1.282536	99
Es	-0.321825	-2.301884	-1.687125	99
Es	0.156088	-0.389372	-0.091249	99
Es	1.750600	1.804620	-0.088788	99
Es	-0.273187	1.128434	-1.313940	99
Es	0.192882	1.027923	1.012072	99
Es	-1.364669	-1.522155	0.206288	99
Es	1.725103	2.382357	0.702965	99
Es	-0.296632	0.161514	1.746917	99
Es	-1.244945	0.890415	-0.615486	99
Es	-0.497815	0.911179	-0.635566	99
Es	0.091316	1.676435	0.565433	99
Es	0.855365	1.962536	0.378531	99
Es	0.242666	-0.109844	0.637113	99
Es	-0.874547	-2.130712	-1.466944	99
Es	1.401365	2.217417	0.203129	99
Es	-0.193023	0.216886	-0.439222	99
Es	1.356872	2.493821	-0.002473	99
