37
Properties=species:S:1:pos:R:3:Z:I:1 energy=-317.77789032584155 field_type=dipole dipole="0.000000 0.000000 0.000000" charge=0
N	-3.467985	-0.496821	0.064167	7
C	-2.306265	-0.465801	0.097047	6
C	-0.877925	-0.363771	0.127757	6
N	-0.187465	-1.459391	0.139037	7
N	1.107705	-1.050071	0.208197	7
C	1.253255	0.352529	-0.178433	6
C	-0.121615	0.911589	0.149967	6
H	1.751315	-1.677271	-0.279693	1
H	1.451985	0.429289	-1.253393	1
H	2.053985	0.855489	0.370017	1
H	-0.487595	1.618469	-0.597643	1
H	-0.169395	1.345759	1.152977	1
Es	-3.467526	-0.496806	0.064179	99
Es	0.570782	0.658966	-0.013028	99
Es	-0.187244	-1.458776	0.139047	99
Es	1.479025	-1.420521	-0.101303	99
Es	-2.305909	-0.465803	0.097065	99
Es	-0.551070	-0.935664	0.408944	99
Es	-0.552304	-0.922912	-0.159240	99
Es	-3.834330	-0.508076	0.053113	99
Es	-2.929429	-0.270844	-0.144234	99
Es	1.104167	-1.072722	0.519591	99
Es	-0.121625	0.911500	0.149957	99
Es	1.385064	0.403907	-0.916250	99
Es	0.464037	-1.237841	0.123375	99
Es	-2.938796	-0.391569	0.371441	99
Es	1.107320	-1.050032	0.207431	99
Es	-0.275910	-1.815686	0.133803	99
Es	1.797433	0.689412	0.192402	99
Es	-0.545843	0.283668	0.135105	99
Es	-1.631269	-0.410279	0.117367	99
Es	-2.916909	-0.783109	0.010801	99
Es	-0.368612	1.382465	-0.349829	99
Es	1.253193	0.352395	-0.178384	99
Es	-0.154872	1.193858	0.822710	99
Es	-0.878092	-0.363786	0.127777	99
Es	1.169412	-0.448424	0.014506	99
37
Properties=species:S:1:pos:R:3:Z:I:1 energy=-317.77789032584155 field_type=dipole dipole="0.000000 0.000000 0.000000" charge=0
N	-3.467985	-0.496821	0.064167	7
C	-2.306265	-0.465801	0.097047	6
C	-0.877925	-0.363771	0.127757	6
N	-0.187465	-1.459391	0.139037	7
N	1.107705	-1.050071	0.208197	7
C	1.253255	0.352529	-0.178433	6
C	-0.121615	0.911589	0.149967	6
H	1.751315	-1.677271	-0.279693	1
H	1.451985	0.429289	-1.253393	1
H	2.053985	0.855489	0.370017	1
H	-0.487595	1.618469	-0.597643	1
H	-0.169395	1.345759	1.152977	1
Es	-2.922169	-0.773667	0.180886	99
Es	-2.919874	-0.424627	-0.221619	99
Es	1.104349	-1.072668	0.519417	99
Es	-0.276125	-1.815538	0.133649	99
Es	-1.631266	-0.410278	0.117309	99
Es	-3.467529	-0.496806	0.064177	99
Es	-0.187239	-1.458805	0.139050	99
Es	-0.551212	-0.935600	0.408975	99
Es	-0.545805	0.283757	0.135081	99
Es	-0.154904	1.193886	0.822712	99
Es	-0.368747	1.382364	-0.349767	99
Es	-0.552145	-0.922945	-0.158869	99
Es	-3.834113	-0.507979	0.053494	99
Es	-0.878096	-0.363783	0.127783	99
Es	1.253195	0.352396	-0.178384	99
Es	1.478970	-1.420529	-0.101381	99
Es	0.464140	-1.237993	0.123681	99
Es	-0.121624	0.911502	0.149957	99
Es	-2.305904	-0.465795	0.097072	99
Es	1.385016	0.403944	-0.916279	99
Es	-2.943311	-0.247398	0.278203	99
Es	0.570909	0.659011	-0.013034	99
Es	1.169432	-0.448475	0.014434	99
Es	1.797397	0.689382	0.192297	99
Es	1.107348	-1.050038	0.207503	99
37
Properties=species:S:1:pos:R:3:Z:I:1 energy=-317.77789032584155 field_type=dipole dipole="0.000000 0.000000 0.000000" charge=0
N	-3.467985	-0.496821	0.064167	7
C	-2.306265	-0.465801	0.097047	6
C	-0.877925	-0.363771	0.127757	6
N	-0.187465	-1.459391	0.139037	7
N	1.107705	-1.050071	0.208197	7
C	1.253255	0.352529	-0.178433	6
C	-0.121615	0.911589	0.149967	6
H	1.751315	-1.677271	-0.279693	1
H	1.451985	0.429289	-1.253393	1
H	2.053985	0.855489	0.370017	1
H	-0.487595	1.618469	-0.597643	1
H	-0.169395	1.345759	1.152977	1
Es	-2.942233	-0.172667	0.091600	99
Es	-2.914058	-0.626522	-0.191981	99
Es	1.479302	-1.420731	-0.100892	99
Es	1.797432	0.689342	0.192249	99
Es	0.570888	0.658943	-0.012988	99
Es	1.169605	-0.448320	0.014558	99
Es	-2.929345	-0.647141	0.338254	99
Es	-3.467526	-0.496806	0.064179	99
Es	0.464359	-1.238095	0.123449	99
Es	1.103845	-1.072697	0.519063	99
Es	-0.552104	-0.922799	-0.158693	99
Es	-0.551242	-0.935562	0.408863	99
Es	-0.187238	-1.458777	0.139048	99
Es	1.385060	0.403903	-0.916194	99
Es	-0.155009	1.193920	0.822682	99
Es	-1.631141	-0.410196	0.117320	99
Es	-0.121623	0.911501	0.149958	99
Es	-3.833920	-0.507605	0.053201	99
Es	-2.305901	-0.465797	0.097054	99
Es	-0.276357	-1.815441	0.133480	99
Es	1.253195	0.352398	-0.178384	99
Es	-0.545837	0.283946	0.135107	99
Es	-0.878093	-0.363785	0.127773	99
Es	1.107331	-1.050031	0.207480	99
Es	-0.368697	1.382338	-0.349839	99
37
Properties=species:S:1:pos:R:3:Z:I:1 energy=-317.77789032584155 field_type=dipole dipole="0.000000 0.000000 0.000000" charge=0
N	-3.467985	-0.496821	0.064167	7
C	-2.306265	-0.465801	0.097047	6
C	-0.877925	-0.363771	0.127757	6
N	-0.187465	-1.459391	0.139037	7
N	1.107705	-1.050071	0.208197	7
C	1.253255	0.352529	-0.178433	6
C	-0.121615	0.911589	0.149967	6
H	1.751315	-1.677271	-0.279693	1
H	1.451985	0.429289	-1.253393	1
H	2.053985	0.855489	0.370017	1
H	-0.487595	1.618469	-0.597643	1
H	-0.169395	1.345759	1.152977	1
Es	-0.545883	0.283997	0.135105	99
Es	-0.121623	0.911500	0.149957	99
Es	1.169662	-0.448386	0.014494	99
Es	1.103292	-1.072479	0.518784	99
Es	-2.915090	-0.567869	-0.215376	99
Es	-0.551127	-0.935719	0.408684	99
Es	1.385062	0.403945	-0.916157	99
Es	-0.878094	-0.363784	0.127787	99
Es	-1.631122	-0.410387	0.117442	99
Es	1.797413	0.689376	0.192283	99
Es	-0.552369	-0.922802	-0.158808	99
Es	0.570912	0.658956	-0.013153	99
Es	-2.305908	-0.465794	0.097050	99
Es	1.253194	0.352396	-0.178385	99
Es	-3.833674	-0.507737	0.053397	99
Es	1.107375	-1.050035	0.207527	99
Es	0.464597	-1.238319	0.123147	99
Es	-3.467527	-0.496806	0.064180	99
Es	-0.276442	-1.815068	0.133765	99
Es	1.479760	-1.420942	-0.100362	99
Es	-2.927179	-0.696652	0.300739	99
Es	-0.187243	-1.458776	0.139048	99
Es	-0.154945	1.193861	0.822706	99
Es	-0.368729	1.382374	-0.349673	99
Es	-2.943619	-0.181531	0.152166	99
37
Properties=species:S:1:pos:R:3:Z:I:1 energy=-317.77789032584155 field_type=dipole dipole="0.000000 0.000000 0.000000" charge=0
N	-3.467985	-0.496821	0.064167	7
C	-2.306265	-0.465801	0.097047	6
C	-0.877925	-0.363771	0.127757	6
N	-0.187465	-1.459391	0.139037	7
N	1.107705	-1.050071	0.208197	7
C	1.253255	0.352529	-0.178433	6
C	-0.121615	0.911589	0.149967	6
H	1.751315	-1.677271	-0.279693	1
H	1.451985	0.429289	-1.253393	1
H	2.053985	0.855489	0.370017	1
H	-0.487595	1.618469	-0.597643	1
H	-0.169395	1.345759	1.152977	1
Es	-0.155077	1.193951	0.822648	99
Es	0.464674	-1.238065	0.122674	99
Es	-1.631106	-0.410486	0.116857	99
Es	0.570919	0.659072	-0.012933	99
Es	-0.551881	-0.923290	-0.158510	99
Es	-3.467527	-0.496806	0.064179	99
Es	1.479967	-1.421007	-0.100047	99
Es	1.797439	0.689226	0.192172	99
Es	-0.878096	-0.363781	0.127772	99
Es	1.169823	-0.448281	0.014689	99
Es	1.385086	0.403936	-0.916138	99
Es	-2.917306	-0.784120	0.011982	99
Es	-0.545899	0.284097	0.135024	99
Es	-3.833510	-0.507765	0.053286	99
Es	1.107262	-1.050037	0.207505	99
Es	-0.368699	1.382283	-0.349780	99
Es	-0.551958	-0.935649	0.409417	99
Es	1.253194	0.352398	-0.178386	99
Es	-2.305908	-0.465789	0.097055	99
Es	-2.929588	-0.271599	-0.145960	99
Es	-0.187248	-1.458776	0.139047	99
Es	-0.121623	0.911502	0.149956	99
Es	1.102906	-1.072673	0.518781	99
Es	-0.276090	-1.814975	0.133162	99
Es	-2.939062	-0.390046	0.371893	99
37
Properties=species:S:1:pos:R:3:Z:I:1 energy=-317.77789032584155 field_type=dipole dipole="0.000000 0.000000 0.000000" charge=0
N	-3.467985	-0.496821	0.064167	7
C	-2.306265	-0.465801	0.097047	6
C	-0.877925	-0.363771	0.127757	6
N	-0.187465	-1.459391	0.139037	7
N	1.107705	-1.050071	0.208197	7
C	1.253255	0.352529	-0.178433	6
C	-0.121615	0.911589	0.149967	6
H	1.751315	-1.677271	-0.279693	1
H	1.451985	0.429289	-1.253393	1
H	2.053985	0.855489	0.370017	1
H	-0.487595	1.618469	-0.597643	1
H	-0.169395	1.345759	1.152977	1
Es	-3.467541	-0.496808	0.064182	99
Es	-2.938010	-0.421010	0.379815	99
Es	-2.931583	-0.249144	-0.123734	99
Es	1.107368	-1.050034	0.207519	99
Es	-0.276562	-1.814920	0.133658	99
Es	0.464789	-1.238379	0.123023	99
Es	-0.155109	1.193872	0.822639	99
Es	-0.121625	0.911501	0.149957	99
Es	-0.187222	-1.458767	0.139049	99
Es	-0.368763	1.382303	-0.349633	99
Es	1.253195	0.352400	-0.178386	99
Es	-1.631061	-0.410536	0.117273	99
Es	-2.916674	-0.775773	-0.018527	99
Es	-0.878091	-0.363787	0.127769	99
Es	1.797445	0.689218	0.192174	99
Es	-2.305904	-0.465793	0.097053	99
Es	1.479942	-1.421128	-0.099925	99
Es	0.570982	0.659125	-0.013083	99
Es	1.169697	-0.448457	0.014158	99
Es	-0.545896	0.284209	0.135045	99
Es	1.385121	0.403941	-0.916055	99
Es	-3.833226	-0.507619	0.053554	99
Es	-0.552316	-0.922977	-0.158648	99
Es	1.103039	-1.072350	0.518776	99
Es	-0.551303	-0.935766	0.408693	99
37
Properties=species:S:1:pos:R:3:Z:I:1 energy=-317.77789032584155 field_type=dipole dipole="0.000000 0.000000 0.000000" charge=0
N	-3.467985	-0.496821	0.064167	7
C	-2.306265	-0.465801	0.097047	6
C	-0.877925	-0.363771	0.127757	6
N	-0.187465	-1.459391	0.139037	7
N	1.107705	-1.050071	0.208197	7
C	1.253255	0.352529	-0.178433	6
C	-0.121615	0.911589	0.149967	6
H	1.751315	-1.677271	-0.279693	1
H	1.451985	0.429289	-1.253393	1
H	2.053985	0.855489	0.370017	1
H	-0.487595	1.618469	-0.597643	1
H	-0.169395	1.345759	1.152977	1
Es	1.107318	-1.050039	0.207518	99
Es	-0.121624	0.911499	0.149958	99
Es	1.385220	0.403900	-0.915949	99
Es	0.570958	0.659264	-0.013168	99
Es	1.253194	0.352399	-0.178385	99
Es	-3.467528	-0.496806	0.064179	99
Es	-0.551292	-0.935803	0.408702	99
Es	-2.914995	-0.732681	-0.101636	99
Es	-1.631007	-0.410463	0.117196	99
Es	0.464748	-1.238659	0.123136	99
Es	1.102558	-1.071793	0.517936	99
Es	-0.155102	1.193818	0.822544	99
Es	-0.276597	-1.814758	0.133616	99
Es	-0.552381	-0.922876	-0.158588	99
Es	-0.878092	-0.363786	0.127776	99
Es	1.169745	-0.448520	0.013934	99
Es	1.480642	-1.421485	-0.098985	99
Es	-2.934724	-0.515640	0.384633	99
Es	-3.832971	-0.507328	0.053311	99
Es	-0.368878	1.382322	-0.349569	99
Es	1.797426	0.689169	0.192106	99
Es	-2.305918	-0.465785	0.097042	99
Es	-0.187268	-1.458775	0.139046	99
Es	-2.936860	-0.198068	-0.045092	99
Es	-0.545882	0.284212	0.135086	99
37
Properties=species:S:1:pos:R:3:Z:I:1 energy=-317.77789032584155 field_type=dipole dipole="0.000000 0.000000 0.000000" charge=0
N	-3.467985	-0.496821	0.064167	7
C	-2.306265	-0.465801	0.097047	6
C	-0.877925	-0.363771	0.127757	6
N	-0.187465	-1.459391	0.139037	7
N	1.107705	-1.050071	0.208197	7
C	1.253255	0.352529	-0.178433	6
C	-0.121615	0.911589	0.149967	6
H	1.751315	-1.677271	-0.279693	1
H	1.451985	0.429289	-1.253393	1
H	2.053985	0.855489	0.370017	1
H	-0.487595	1.618469	-0.597643	1
H	-0.169395	1.345759	1.152977	1
Es	1.797472	0.689196	0.192049	99
Es	0.465007	-1.238595	0.122797	99
Es	-0.187236	-1.458795	0.139050	99
Es	-3.832666	-0.507549	0.053359	99
Es	-2.914987	-0.591649	-0.208200	99
Es	1.480433	-1.421390	-0.099200	99
Es	-2.943538	-0.175355	0.128858	99
Es	-0.276762	-1.814720	0.133681	99
Es	-0.368898	1.382306	-0.349597	99
Es	-0.551264	-0.935679	0.408607	99
Es	-1.630980	-0.410524	0.117229	99
Es	-0.552341	-0.922866	-0.158346	99
Es	-0.878087	-0.363792	0.127772	99
Es	1.169713	-0.448593	0.013851	99
Es	1.385164	0.403859	-0.915931	99
Es	-3.467527	-0.496806	0.064179	99
Es	1.253195	0.352398	-0.178385	99
Es	-0.155123	1.193833	0.822532	99
Es	-2.305905	-0.465792	0.097041	99
Es	1.102606	-1.071973	0.518594	99
Es	0.570960	0.659250	-0.013149	99
Es	-0.545861	0.284300	0.135078	99
Es	-0.121624	0.911501	0.149957	99
Es	1.107342	-1.050037	0.207539	99
Es	-2.928404	-0.679210	0.316981	99
37
Properties=species:S:1:pos:R:3:Z:I:1 energy=-317.77789032584155 field_type=dipole dipole="0.000000 0.000000 0.000000" charge=0
N	-3.467985	-0.496821	0.064167	7
C	-2.306265	-0.465801	0.097047	6
C	-0.877925	-0.363771	0.127757	6
N	-0.187465	-1.459391	0.139037	7
N	1.107705	-1.050071	0.208197	7
C	1.253255	0.352529	-0.178433	6
C	-0.121615	0.911589	0.149967	6
H	1.751315	-1.677271	-0.279693	1
H	1.451985	0.429289	-1.253393	1
H	2.053985	0.855489	0.370017	1
H	-0.487595	1.618469	-0.597643	1
H	-0.169395	1.345759	1.152977	1
Es	-0.552390	-0.923097	-0.158370	99
Es	-0.276898	-1.814482	0.133840	99
Es	1.385227	0.403944	-0.915893	99
Es	1.169872	-0.448521	0.014024	99
Es	0.571055	0.659284	-0.013139	99
Es	-3.832640	-0.507459	0.053342	99
Es	-1.630960	-0.410674	0.117287	99
Es	-0.551324	-0.935598	0.408561	99
Es	1.480692	-1.421498	-0.098841	99
Es	-0.155158	1.193815	0.822500	99
Es	0.465174	-1.238787	0.122524	99
Es	-2.944174	-0.226383	0.253127	99
Es	-0.187245	-1.458777	0.139047	99
Es	-3.467527	-0.496806	0.064179	99
Es	-0.545915	0.284380	0.135049	99
Es	-2.305910	-0.465787	0.097055	99
Es	-0.368894	1.382311	-0.349535	99
Es	1.102244	-1.072072	0.518247	99
Es	1.253194	0.352399	-0.178385	99
Es	1.797406	0.689113	0.192034	99
Es	-2.923859	-0.762731	0.211423	99
Es	-2.918863	-0.456934	-0.226974	99
Es	1.107300	-1.050035	0.207506	99
Es	-0.121624	0.911501	0.149957	99
Es	-0.878092	-0.363786	0.127782	99
37
Properties=species:S:1:pos:R:3:Z:I:1 energy=-317.77789032584155 field_type=dipole dipole="0.000000 0.000000 0.000000" charge=0
N	-3.467985	-0.496821	0.064167	7
C	-2.306265	-0.465801	0.097047	6
C	-0.877925	-0.363771	0.127757	6
N	-0.187465	-1.459391	0.139037	7
N	1.107705	-1.050071	0.208197	7
C	1.253255	0.352529	-0.178433	6
C	-0.121615	0.911589	0.149967	6
H	1.751315	-1.677271	-0.279693	1
H	1.451985	0.429289	-1.253393	1
H	2.053985	0.855489	0.370017	1
H	-0.487595	1.618469	-0.597643	1
H	-0.169395	1.345759	1.152977	1
Es	-0.121623	0.911501	0.149957	99
Es	-0.545948	0.284502	0.134995	99
Es	-0.552186	-0.923189	-0.158047	99
Es	-3.832637	-0.507500	0.053230	99
Es	1.170123	-0.448322	0.014292	99
Es	-2.929852	-0.270348	-0.146058	99
Es	1.101814	-1.072147	0.517706	99
Es	0.465317	-1.238880	0.122229	99
Es	1.385327	0.403905	-0.915855	99
Es	-2.305910	-0.465790	0.097058	99
Es	-2.939383	-0.390334	0.372182	99
Es	-3.467525	-0.496806	0.064180	99
Es	-2.917627	-0.785198	0.011846	99
Es	-0.368936	1.382263	-0.349473	99
Es	-0.878090	-0.363788	0.127778	99
Es	-0.551434	-0.935473	0.408556	99
Es	-1.630950	-0.410806	0.117036	99
Es	1.480983	-1.421658	-0.098414	99
Es	-0.155228	1.193825	0.822419	99
Es	-0.187250	-1.458786	0.139047	99
Es	0.571057	0.659344	-0.013199	99
Es	1.253194	0.352400	-0.178386	99
Es	-0.277106	-1.814438	0.133659	99
Es	1.797342	0.689101	0.191995	99
Es	1.107221	-1.050058	0.207612	99
37
Properties=species:S:1:pos:R:3:Z:I:1 energy=-317.77789032584155 field_type=dipole dipole="0.000000 0.000000 0.000000" charge=0
N	-3.467985	-0.496821	0.064167	7
C	-2.306265	-0.465801	0.097047	6
C	-0.877925	-0.363771	0.127757	6
N	-0.187465	-1.459391	0.139037	7
N	1.107705	-1.050071	0.208197	7
C	1.253255	0.352529	-0.178433	6
C	-0.121615	0.911589	0.149967	6
H	1.751315	-1.677271	-0.279693	1
H	1.451985	0.429289	-1.253393	1
H	2.053985	0.855489	0.370017	1
H	-0.487595	1.618469	-0.597643	1
H	-0.169395	1.345759	1.152977	1
Es	1.385261	0.403943	-0.915817	99
Es	1.101712	-1.071918	0.517781	99
Es	-1.630886	-0.410850	0.117209	99
Es	-0.277059	-1.814253	0.133638	99
Es	-2.305910	-0.465791	0.097055	99
Es	-2.918673	-0.463488	-0.227963	99
Es	-2.924211	-0.759881	0.218209	99
Es	0.571058	0.659381	-0.013141	99
Es	-0.121624	0.911501	0.149957	99
Es	1.107199	-1.050044	0.207553	99
Es	-0.878090	-0.363788	0.127777	99
Es	-0.187237	-1.458808	0.139050	99
Es	1.170033	-0.448501	0.013979	99
Es	-0.551415	-0.935711	0.408573	99
Es	-0.368940	1.382291	-0.349476	99
Es	1.797396	0.689052	0.191939	99
Es	-3.467627	-0.496806	0.064176	99
Es	1.481165	-1.421748	-0.098130	99
Es	-2.944441	-0.222444	0.247485	99
Es	-3.832118	-0.507598	0.053219	99
Es	-0.155216	1.193799	0.822439	99
Es	0.465429	-1.238908	0.122277	99
Es	1.253194	0.352401	-0.178386	99
Es	-0.552355	-0.923047	-0.158108	99
Es	-0.545956	0.284535	0.135054	99
