47
Properties=species:S:1:pos:R:3:Z:I:1 energy=-305.284737292046 field_type=dipole dipole="0.000000 0.000000 0.000000" charge=0
N	-3.091966	0.451841	-0.117941	7
C	-1.745376	0.178061	-0.604661	6
C	-0.832996	-0.250859	0.544049	6
C	0.556114	-0.573499	0.009229	6
C	1.455314	0.609551	-0.423411	6
C	2.576643	-0.169739	0.282979	6
N	1.532173	-0.818599	1.106269	7
H	-3.662606	0.814421	-0.880301	1
H	-3.058696	1.185421	0.589279	1
H	-1.346496	1.074211	-1.092541	1
H	-1.792676	-0.610999	-1.363191	1
H	-1.252406	-1.138459	1.035299	1
H	-0.785236	0.544161	1.299839	1
H	0.540664	-1.390259	-0.726421	1
H	1.215374	1.569811	0.048549	1
H	1.576243	0.755481	-1.499501	1
H	3.120564	-0.864119	-0.368121	1
H	3.294724	0.434521	0.843179	1
H	1.700644	-1.800949	1.317419	1
Es	2.945249	-0.651068	-0.172416	99
Es	1.287800	1.256909	-0.094795	99
Es	1.537347	0.712850	-1.164367	99
Es	2.080227	0.278855	-0.113817	99
Es	-0.799428	0.300040	1.052460	99
Es	1.449991	-0.618257	1.390015	99
Es	1.639177	-1.423600	1.215528	99
Es	-3.056491	0.910770	0.295516	99
Es	-2.507381	0.358810	-0.336246	99
Es	1.085474	-0.778119	0.643571	99
Es	3.079022	0.242075	0.667556	99
Es	-0.147727	-0.410295	0.269730	99
Es	-1.745495	0.178084	-0.604594	99
Es	0.545050	-1.134878	-0.503361	99
Es	-1.457221	0.798715	-0.942874	99
Es	2.038960	-0.584478	0.776259	99
Es	1.532286	-0.818806	1.105875	99
Es	-1.776558	-0.365253	-1.126926	99
Es	2.576520	-0.169795	0.283035	99
Es	1.455326	0.609502	-0.423395	99
Es	0.556211	-0.573496	0.009334	99
Es	-3.240640	0.162262	0.019210	99
Es	-0.833004	-0.250854	0.543998	99
Es	-3.091729	0.452315	-0.118160	99
Es	-1.291741	-0.035337	-0.031632	99
Es	0.937109	0.057615	-0.268285	99
Es	-1.115487	-0.859587	0.874061	99
Es	-3.422921	0.687395	-0.585514	99
47
Properties=species:S:1:pos:R:3:Z:I:1 energy=-305.284737292046 field_type=dipole dipole="0.000000 0.000000 0.000000" charge=0
N	-3.091966	0.451841	-0.117941	7
C	-1.745376	0.178061	-0.604661	6
C	-0.832996	-0.250859	0.544049	6
C	0.556114	-0.573499	0.009229	6
C	1.455314	0.609551	-0.423411	6
C	2.576643	-0.169739	0.282979	6
N	1.532173	-0.818599	1.106269	7
H	-3.662606	0.814421	-0.880301	1
H	-3.058696	1.185421	0.589279	1
H	-1.346496	1.074211	-1.092541	1
H	-1.792676	-0.610999	-1.363191	1
H	-1.252406	-1.138459	1.035299	1
H	-0.785236	0.544161	1.299839	1
H	0.540664	-1.390259	-0.726421	1
H	1.215374	1.569811	0.048549	1
H	1.576243	0.755481	-1.499501	1
H	3.120564	-0.864119	-0.368121	1
H	3.294724	0.434521	0.843179	1
H	1.700644	-1.800949	1.317419	1
Es	1.450309	-0.618413	1.389666	99
Es	-3.091780	0.452265	-0.118123	99
Es	-2.507312	0.358207	-0.336067	99
Es	-3.056494	0.910336	0.295971	99
Es	0.556212	-0.573496	0.009334	99
Es	2.945440	-0.651075	-0.172366	99
Es	2.080318	0.278792	-0.113800	99
Es	3.078833	0.242093	0.667555	99
Es	-1.115294	-0.859709	0.873976	99
Es	-1.776529	-0.365265	-1.126882	99
Es	1.455325	0.609501	-0.423395	99
Es	-1.457220	0.798662	-0.942910	99
Es	1.287752	1.256923	-0.094862	99
Es	-3.241655	0.162341	0.018388	99
Es	2.039166	-0.584594	0.776415	99
Es	1.638959	-1.423503	1.215879	99
Es	-1.745494	0.178083	-0.604595	99
Es	1.532322	-0.818892	1.105772	99
Es	1.537375	0.712845	-1.164275	99
Es	1.085057	-0.777939	0.643569	99
Es	0.937116	0.057690	-0.268393	99
Es	2.576520	-0.169794	0.283037	99
Es	-0.833003	-0.250853	0.543999	99
Es	-0.799477	0.299941	1.052575	99
Es	0.545126	-1.134791	-0.503305	99
Es	-1.291846	-0.035274	-0.031596	99
Es	-3.421972	0.688429	-0.585367	99
Es	-0.147832	-0.410140	0.269567	99
47
Properties=species:S:1:pos:R:3:Z:I:1 energy=-305.284737292046 field_type=dipole dipole="0.000000 0.000000 0.000000" charge=0
N	-3.091966	0.451841	-0.117941	7
C	-1.745376	0.178061	-0.604661	6
C	-0.832996	-0.250859	0.544049	6
C	0.556114	-0.573499	0.009229	6
C	1.455314	0.609551	-0.423411	6
C	2.576643	-0.169739	0.282979	6
N	1.532173	-0.818599	1.106269	7
H	-3.662606	0.814421	-0.880301	1
H	-3.058696	1.185421	0.589279	1
H	-1.346496	1.074211	-1.092541	1
H	-1.792676	-0.610999	-1.363191	1
H	-1.252406	-1.138459	1.035299	1
H	-0.785236	0.544161	1.299839	1
H	0.540664	-1.390259	-0.726421	1
H	1.215374	1.569811	0.048549	1
H	1.576243	0.755481	-1.499501	1
H	3.120564	-0.864119	-0.368121	1
H	3.294724	0.434521	0.843179	1
H	1.700644	-1.800949	1.317419	1
Es	2.039144	-0.584740	0.776427	99
Es	-1.115282	-0.859719	0.874006	99
Es	0.556210	-0.573492	0.009329	99
Es	1.537404	0.712928	-1.164194	99
Es	-1.291738	-0.035198	-0.031597	99
Es	2.080362	0.278920	-0.113797	99
Es	1.455326	0.609500	-0.423394	99
Es	-1.457326	0.798566	-0.942933	99
Es	2.945435	-0.651005	-0.172352	99
Es	-3.091726	0.452319	-0.118163	99
Es	-1.745495	0.178084	-0.604595	99
Es	2.576519	-0.169795	0.283037	99
Es	0.937016	0.057613	-0.268580	99
Es	-3.240637	0.162380	0.019243	99
Es	-1.776494	-0.365255	-1.126893	99
Es	-2.507416	0.358767	-0.336229	99
Es	-0.799510	0.299922	1.052539	99
Es	1.450250	-0.618355	1.389975	99
Es	0.545061	-1.134783	-0.503173	99
Es	1.639075	-1.423322	1.215699	99
Es	-3.056493	0.910732	0.295481	99
Es	3.078833	0.242024	0.667506	99
Es	1.287766	1.256846	-0.094933	99
Es	-0.833002	-0.250853	0.543998	99
Es	-3.422992	0.687381	-0.585489	99
Es	1.532324	-0.818888	1.105780	99
Es	-0.147778	-0.410095	0.269569	99
Es	1.085086	-0.778111	0.643497	99
47
Properties=species:S:1:pos:R:3:Z:I:1 energy=-305.284737292046 field_type=dipole dipole="0.000000 0.000000 0.000000" charge=0
N	-3.091966	0.451841	-0.117941	7
C	-1.745376	0.178061	-0.604661	6
C	-0.832996	-0.250859	0.544049	6
C	0.556114	-0.573499	0.009229	6
C	1.455314	0.609551	-0.423411	6
C	2.576643	-0.169739	0.282979	6
N	1.532173	-0.818599	1.106269	7
H	-3.662606	0.814421	-0.880301	1
H	-3.058696	1.185421	0.589279	1
H	-1.346496	1.074211	-1.092541	1
H	-1.792676	-0.610999	-1.363191	1
H	-1.252406	-1.138459	1.035299	1
H	-0.785236	0.544161	1.299839	1
H	0.540664	-1.390259	-0.726421	1
H	1.215374	1.569811	0.048549	1
H	1.576243	0.755481	-1.499501	1
H	3.120564	-0.864119	-0.368121	1
H	3.294724	0.434521	0.843179	1
H	1.700644	-1.800949	1.317419	1
Es	2.576519	-0.169795	0.283039	99
Es	-0.147735	-0.410212	0.269587	99
Es	-0.833005	-0.250851	0.543993	99
Es	3.078794	0.241960	0.667447	99
Es	-1.745495	0.178083	-0.604595	99
Es	1.450117	-0.619087	1.389419	99
Es	1.455325	0.609502	-0.423395	99
Es	0.936890	0.057709	-0.268575	99
Es	-1.457286	0.798544	-0.942952	99
Es	2.945473	-0.650983	-0.172251	99
Es	1.084877	-0.778101	0.643533	99
Es	1.537388	0.712873	-1.164098	99
Es	0.545060	-1.134713	-0.503158	99
Es	-3.240607	0.162453	0.019080	99
Es	-3.056589	0.910662	0.295563	99
Es	-0.799487	0.299859	1.052492	99
Es	1.532312	-0.818866	1.105801	99
Es	-1.115250	-0.859603	0.874071	99
Es	-1.291827	-0.035254	-0.031656	99
Es	2.039554	-0.584214	0.776874	99
Es	2.080455	0.278936	-0.113902	99
Es	1.287844	1.256893	-0.095046	99
Es	0.556213	-0.573494	0.009333	99
Es	-2.507351	0.358817	-0.336349	99
Es	-3.091754	0.452293	-0.118131	99
Es	-3.423000	0.687381	-0.585359	99
Es	1.638991	-1.423231	1.215854	99
Es	-1.776502	-0.365189	-1.126854	99
47
Properties=species:S:1:pos:R:3:Z:I:1 energy=-305.284737292046 field_type=dipole dipole="0.000000 0.000000 0.000000" charge=0
N	-3.091966	0.451841	-0.117941	7
C	-1.745376	0.178061	-0.604661	6
C	-0.832996	-0.250859	0.544049	6
C	0.556114	-0.573499	0.009229	6
C	1.455314	0.609551	-0.423411	6
C	2.576643	-0.169739	0.282979	6
N	1.532173	-0.818599	1.106269	7
H	-3.662606	0.814421	-0.880301	1
H	-3.058696	1.185421	0.589279	1
H	-1.346496	1.074211	-1.092541	1
H	-1.792676	-0.610999	-1.363191	1
H	-1.252406	-1.138459	1.035299	1
H	-0.785236	0.544161	1.299839	1
H	0.540664	-1.390259	-0.726421	1
H	1.215374	1.569811	0.048549	1
H	1.576243	0.755481	-1.499501	1
H	3.120564	-0.864119	-0.368121	1
H	3.294724	0.434521	0.843179	1
H	1.700644	-1.800949	1.317419	1
Es	-1.457274	0.798470	-0.942894	99
Es	1.287821	1.256790	-0.095141	99
Es	3.078760	0.241825	0.667384	99
Es	-1.291802	-0.035259	-0.031521	99
Es	-1.776500	-0.365103	-1.126901	99
Es	2.576524	-0.169791	0.283034	99
Es	0.936812	0.057637	-0.268598	99
Es	1.537389	0.712942	-1.164052	99
Es	-3.240943	0.162670	0.019612	99
Es	-1.745495	0.178083	-0.604595	99
Es	-0.147737	-0.410171	0.269477	99
Es	-3.091751	0.452292	-0.118144	99
Es	0.556211	-0.573494	0.009333	99
Es	-3.056278	0.910840	0.295045	99
Es	-2.507361	0.358434	-0.336370	99
Es	1.450209	-0.618891	1.389189	99
Es	2.945493	-0.650891	-0.172131	99
Es	-0.833003	-0.250853	0.543997	99
Es	1.638915	-1.423137	1.216245	99
Es	2.080520	0.279181	-0.113977	99
Es	0.545045	-1.134686	-0.503145	99
Es	-3.423011	0.687423	-0.585388	99
Es	1.532317	-0.818891	1.105776	99
Es	1.084829	-0.778204	0.643456	99
Es	-1.115258	-0.859675	0.874030	99
Es	2.039637	-0.584486	0.776909	99
Es	1.455326	0.609500	-0.423395	99
Es	-0.799470	0.299817	1.052530	99
47
Properties=species:S:1:pos:R:3:Z:I:1 energy=-305.284737292046 field_type=dipole dipole="0.000000 0.000000 0.000000" charge=0
N	-3.091966	0.451841	-0.117941	7
C	-1.745376	0.178061	-0.604661	6
C	-0.832996	-0.250859	0.544049	6
C	0.556114	-0.573499	0.009229	6
C	1.455314	0.609551	-0.423411	6
C	2.576643	-0.169739	0.282979	6
N	1.532173	-0.818599	1.106269	7
H	-3.662606	0.814421	-0.880301	1
H	-3.058696	1.185421	0.589279	1
H	-1.346496	1.074211	-1.092541	1
H	-1.792676	-0.610999	-1.363191	1
H	-1.252406	-1.138459	1.035299	1
H	-0.785236	0.544161	1.299839	1
H	0.540664	-1.390259	-0.726421	1
H	1.215374	1.569811	0.048549	1
H	1.576243	0.755481	-1.499501	1
H	3.120564	-0.864119	-0.368121	1
H	3.294724	0.434521	0.843179	1
H	1.700644	-1.800949	1.317419	1
Es	-0.833003	-0.250853	0.543998	99
Es	2.576520	-0.169793	0.283035	99
Es	1.287854	1.256791	-0.095150	99
Es	3.078823	0.241840	0.667368	99
Es	1.537305	0.712973	-1.163962	99
Es	1.455327	0.609495	-0.423394	99
Es	-3.091727	0.452294	-0.118156	99
Es	-2.507277	0.358501	-0.336430	99
Es	-3.423042	0.687320	-0.585350	99
Es	2.945434	-0.650882	-0.172111	99
Es	1.638810	-1.423094	1.216418	99
Es	-0.799534	0.299752	1.052529	99
Es	1.450553	-0.619121	1.388897	99
Es	1.084477	-0.778102	0.643690	99
Es	0.936774	0.057715	-0.268679	99
Es	-1.457296	0.798465	-0.942932	99
Es	-0.147634	-0.410245	0.269578	99
Es	-3.240686	0.162852	0.019021	99
Es	-1.776460	-0.365059	-1.126850	99
Es	0.556211	-0.573494	0.009332	99
Es	0.545004	-1.134616	-0.503092	99
Es	-1.291819	-0.035254	-0.031582	99
Es	-1.745488	0.178083	-0.604597	99
Es	-3.056659	0.910652	0.295618	99
Es	-1.115240	-0.859572	0.874018	99
Es	2.039731	-0.584479	0.776831	99
Es	2.080650	0.279085	-0.114063	99
Es	1.532309	-0.818885	1.105784	99
47
Properties=species:S:1:pos:R:3:Z:I:1 energy=-305.284737292046 field_type=dipole dipole="0.000000 0.000000 0.000000" charge=0
N	-3.091966	0.451841	-0.117941	7
C	-1.745376	0.178061	-0.604661	6
C	-0.832996	-0.250859	0.544049	6
C	0.556114	-0.573499	0.009229	6
C	1.455314	0.609551	-0.423411	6
C	2.576643	-0.169739	0.282979	6
N	1.532173	-0.818599	1.106269	7
H	-3.662606	0.814421	-0.880301	1
H	-3.058696	1.185421	0.589279	1
H	-1.346496	1.074211	-1.092541	1
H	-1.792676	-0.610999	-1.363191	1
H	-1.252406	-1.138459	1.035299	1
H	-0.785236	0.544161	1.299839	1
H	0.540664	-1.390259	-0.726421	1
H	1.215374	1.569811	0.048549	1
H	1.576243	0.755481	-1.499501	1
H	3.120564	-0.864119	-0.368121	1
H	3.294724	0.434521	0.843179	1
H	1.700644	-1.800949	1.317419	1
Es	-1.457238	0.798399	-0.942945	99
Es	3.078771	0.241787	0.667335	99
Es	-0.833003	-0.250853	0.543996	99
Es	-0.799486	0.299744	1.052556	99
Es	-3.056738	0.910678	0.295545	99
Es	1.287804	1.256732	-0.095137	99
Es	1.084549	-0.778248	0.643617	99
Es	2.945485	-0.650849	-0.172020	99
Es	-3.091726	0.452325	-0.118158	99
Es	-1.115224	-0.859508	0.874012	99
Es	-3.240679	0.162871	0.019063	99
Es	-1.745490	0.178080	-0.604602	99
Es	2.039849	-0.584243	0.777065	99
Es	0.936683	0.057631	-0.268902	99
Es	0.545024	-1.134598	-0.503000	99
Es	-1.776519	-0.364995	-1.126830	99
Es	2.576519	-0.169793	0.283036	99
Es	1.450289	-0.619340	1.388858	99
Es	-1.291837	-0.035329	-0.031607	99
Es	0.556212	-0.573494	0.009333	99
Es	1.455326	0.609499	-0.423395	99
Es	-0.147667	-0.410358	0.269515	99
Es	-3.423051	0.687238	-0.585346	99
Es	1.638908	-1.422963	1.216395	99
Es	-2.507223	0.358594	-0.336383	99
Es	1.537343	0.713090	-1.163851	99
Es	2.080726	0.279160	-0.114157	99
Es	1.532315	-0.818886	1.105777	99
47
Properties=species:S:1:pos:R:3:Z:I:1 energy=-305.284737292046 field_type=dipole dipole="0.000000 0.000000 0.000000" charge=0
N	-3.091966	0.451841	-0.117941	7
C	-1.745376	0.178061	-0.604661	6
C	-0.832996	-0.250859	0.544049	6
C	0.556114	-0.573499	0.009229	6
C	1.455314	0.609551	-0.423411	6
C	2.576643	-0.169739	0.282979	6
N	1.532173	-0.818599	1.106269	7
H	-3.662606	0.814421	-0.880301	1
H	-3.058696	1.185421	0.589279	1
H	-1.346496	1.074211	-1.092541	1
H	-1.792676	-0.610999	-1.363191	1
H	-1.252406	-1.138459	1.035299	1
H	-0.785236	0.544161	1.299839	1
H	0.540664	-1.390259	-0.726421	1
H	1.215374	1.569811	0.048549	1
H	1.576243	0.755481	-1.499501	1
H	3.120564	-0.864119	-0.368121	1
H	3.294724	0.434521	0.843179	1
H	1.700644	-1.800949	1.317419	1
Es	-1.776453	-0.365016	-1.126839	99
Es	1.532308	-0.818870	1.105798	99
Es	1.450390	-0.619764	1.388292	99
Es	-0.799467	0.299757	1.052439	99
Es	2.040121	-0.584000	0.777295	99
Es	1.084306	-0.778192	0.643703	99
Es	-0.147717	-0.410288	0.269561	99
Es	2.080814	0.279265	-0.114070	99
Es	0.544987	-1.134517	-0.502968	99
Es	-3.056635	0.910787	0.295226	99
Es	3.078776	0.241674	0.667275	99
Es	1.537295	0.712971	-1.163842	99
Es	-0.833003	-0.250853	0.543998	99
Es	2.945463	-0.650841	-0.172031	99
Es	-1.291760	-0.035245	-0.031678	99
Es	1.638780	-1.422955	1.216682	99
Es	-1.115255	-0.859566	0.874126	99
Es	-3.423307	0.687041	-0.585317	99
Es	0.556211	-0.573495	0.009333	99
Es	2.576519	-0.169792	0.283035	99
Es	-3.091752	0.452243	-0.118130	99
Es	-3.240523	0.162945	0.019429	99
Es	1.455326	0.609500	-0.423396	99
Es	-1.745494	0.178084	-0.604596	99
Es	1.287900	1.256734	-0.095354	99
Es	-1.457293	0.798368	-0.942941	99
Es	-2.507246	0.358663	-0.336467	99
Es	0.936630	0.057735	-0.268798	99
47
Properties=species:S:1:pos:R:3:Z:I:1 energy=-305.284737292046 field_type=dipole dipole="0.000000 0.000000 0.000000" charge=0
N	-3.091966	0.451841	-0.117941	7
C	-1.745376	0.178061	-0.604661	6
C	-0.832996	-0.250859	0.544049	6
C	0.556114	-0.573499	0.009229	6
C	1.455314	0.609551	-0.423411	6
C	2.576643	-0.169739	0.282979	6
N	1.532173	-0.818599	1.106269	7
H	-3.662606	0.814421	-0.880301	1
H	-3.058696	1.185421	0.589279	1
H	-1.346496	1.074211	-1.092541	1
H	-1.792676	-0.610999	-1.363191	1
H	-1.252406	-1.138459	1.035299	1
H	-0.785236	0.544161	1.299839	1
H	0.540664	-1.390259	-0.726421	1
H	1.215374	1.569811	0.048549	1
H	1.576243	0.755481	-1.499501	1
H	3.120564	-0.864119	-0.368121	1
H	3.294724	0.434521	0.843179	1
H	1.700644	-1.800949	1.317419	1
Es	2.040210	-0.584178	0.777239	99
Es	1.537159	0.713081	-1.163724	99
Es	-3.091718	0.452321	-0.118165	99
Es	-3.240700	0.163083	0.018889	99
Es	1.287873	1.256714	-0.095264	99
Es	1.532311	-0.818894	1.105782	99
Es	2.945461	-0.650780	-0.171923	99
Es	1.450420	-0.619721	1.388571	99
Es	-3.423121	0.687346	-0.585232	99
Es	0.544985	-1.134476	-0.502954	99
Es	2.576519	-0.169792	0.283035	99
Es	-1.291778	-0.035213	-0.031623	99
Es	1.638783	-1.422732	1.216541	99
Es	1.084235	-0.778347	0.643728	99
Es	0.936602	0.057746	-0.268887	99
Es	3.078776	0.241680	0.667219	99
Es	-3.056807	0.910473	0.295687	99
Es	-2.507136	0.358504	-0.336453	99
Es	-0.799467	0.299685	1.052509	99
Es	-1.115214	-0.859519	0.874061	99
Es	-1.745492	0.178083	-0.604596	99
Es	-0.833003	-0.250854	0.543998	99
Es	0.556213	-0.573494	0.009334	99
Es	2.080920	0.279228	-0.114319	99
Es	-1.457320	0.798289	-0.942935	99
Es	-1.776467	-0.364975	-1.126858	99
Es	1.455326	0.609499	-0.423395	99
Es	-0.147648	-0.410386	0.269499	99
