41
Properties=species:S:1:pos:R:3:Z:I:1 energy=-302.88570070078134 field_type=dipole dipole="0.000000 0.000000 0.000000" charge=0
N	-1.930526	-2.351457	0.320111	7
C	-0.476776	-2.329387	0.264971	6
C	0.005244	-0.968217	0.264971	6
C	0.402524	0.153682	0.264971	6
C	1.003434	1.451692	0.325691	6
C	0.961444	2.338372	-0.890629	6
N	0.147944	2.633632	0.281211	7
H	-2.256986	-3.304317	0.179971	1
H	-2.298076	-1.800977	-0.454629	1
H	-0.141256	-2.850427	-0.638069	1
H	-0.078656	-2.878287	1.124341	1
H	1.880494	1.530313	0.961501	1
H	0.420534	2.003732	-1.766589	1
H	1.803994	2.990433	-1.080659	1
H	0.556664	3.381213	0.842831	1
Es	0.009824	-0.324378	-0.042110	99
Es	-2.137081	-2.033695	-0.162789	99
Es	0.402615	0.153936	0.264963	99
Es	-2.110741	-2.932482	0.216345	99
Es	-0.234378	-2.669967	-0.351959	99
Es	0.675801	0.791642	0.295627	99
Es	1.591056	1.496526	0.754902	99
Es	-1.930337	-2.351682	0.319599	99
Es	1.537609	2.781053	-1.017247	99
Es	0.005147	-0.968453	0.264947	99
Es	0.961347	2.338374	-0.890384	99
Es	0.598290	2.111829	-1.483025	99
Es	-0.202613	2.593494	0.264490	99
Es	1.003250	1.451811	0.325622	99
Es	-0.228581	-1.622933	0.263157	99
Es	-0.476878	-2.329272	0.264972	99
Es	-0.201877	-2.686855	0.843996	99
Es	0.417532	3.074633	0.611267	99
Es	0.467704	2.633483	-0.287008	99
Es	-1.287122	-2.342909	0.273527	99
Es	-2.047947	-2.226728	0.624469	99
Es	1.123176	1.739902	-0.375637	99
Es	0.539842	-0.527268	0.228773	99
Es	0.489677	2.077565	0.435288	99
Es	0.148590	2.633629	0.281191	99
Es	0.062329	-0.355206	0.587960	99
41
Properties=species:S:1:pos:R:3:Z:I:1 energy=-302.88570070078134 field_type=dipole dipole="0.000000 0.000000 0.000000" charge=0
N	-1.930526	-2.351457	0.320111	7
C	-0.476776	-2.329387	0.264971	6
C	0.005244	-0.968217	0.264971	6
C	0.402524	0.153682	0.264971	6
C	1.003434	1.451692	0.325691	6
C	0.961444	2.338372	-0.890629	6
N	0.147944	2.633632	0.281211	7
H	-2.256986	-3.304317	0.179971	1
H	-2.298076	-1.800977	-0.454629	1
H	-0.141256	-2.850427	-0.638069	1
H	-0.078656	-2.878287	1.124341	1
H	1.880494	1.530313	0.961501	1
H	0.420534	2.003732	-1.766589	1
H	1.803994	2.990433	-1.080659	1
H	0.556664	3.381213	0.842831	1
Es	-0.201816	-2.686924	0.844003	99
Es	1.123353	1.739858	-0.375792	99
Es	0.675887	0.791721	0.295484	99
Es	-1.930309	-2.351681	0.319578	99
Es	-2.137034	-2.033602	-0.162736	99
Es	-0.234365	-2.669832	-0.352000	99
Es	0.489533	2.077053	0.435650	99
Es	0.087405	-0.364339	0.598765	99
Es	-1.287063	-2.342810	0.273742	99
Es	-0.228527	-1.623122	0.263246	99
Es	-0.476877	-2.329273	0.264971	99
Es	0.417145	3.074446	0.611440	99
Es	1.590958	1.496396	0.754912	99
Es	1.537495	2.781006	-1.017308	99
Es	0.537035	-0.526184	0.199928	99
Es	-2.048088	-2.226871	0.624299	99
Es	0.467601	2.634074	-0.287378	99
Es	-0.012477	-0.316235	-0.023990	99
Es	0.402613	0.153937	0.264966	99
Es	1.003250	1.451813	0.325623	99
Es	-0.201995	2.593622	0.264500	99
Es	0.961334	2.338370	-0.890376	99
Es	-2.110831	-2.932441	0.216255	99
Es	0.005144	-0.968461	0.264948	99
Es	0.598277	2.111901	-1.482980	99
Es	0.148588	2.633625	0.281185	99
41
Properties=species:S:1:pos:R:3:Z:I:1 energy=-302.88570070078134 field_type=dipole dipole="0.000000 0.000000 0.000000" charge=0
N	-1.930526	-2.351457	0.320111	7
C	-0.476776	-2.329387	0.264971	6
C	0.005244	-0.968217	0.264971	6
C	0.402524	0.153682	0.264971	6
C	1.003434	1.451692	0.325691	6
C	0.961444	2.338372	-0.890629	6
N	0.147944	2.633632	0.281211	7
H	-2.256986	-3.304317	0.179971	1
H	-2.298076	-1.800977	-0.454629	1
H	-0.141256	-2.850427	-0.638069	1
H	-0.078656	-2.878287	1.124341	1
H	1.880494	1.530313	0.961501	1
H	0.420534	2.003732	-1.766589	1
H	1.803994	2.990433	-1.080659	1
H	0.556664	3.381213	0.842831	1
Es	0.598347	2.111951	-1.482927	99
Es	1.003251	1.451814	0.325617	99
Es	-1.287129	-2.342855	0.273755	99
Es	0.675950	0.791857	0.295504	99
Es	0.489518	2.077025	0.435995	99
Es	0.005146	-0.968456	0.264951	99
Es	-0.234309	-2.669895	-0.351955	99
Es	0.148583	2.633622	0.281185	99
Es	-1.930313	-2.351687	0.319588	99
Es	0.961345	2.338371	-0.890377	99
Es	-0.201659	2.593625	0.264782	99
Es	-2.137032	-2.033706	-0.162825	99
Es	-0.476876	-2.329274	0.264971	99
Es	0.112002	-0.373284	0.606753	99
Es	1.123586	1.739621	-0.376043	99
Es	-0.032169	-0.309162	-0.005463	99
Es	0.402615	0.153939	0.264960	99
Es	1.537383	2.780954	-1.017333	99
Es	-0.228558	-1.623100	0.263181	99
Es	-2.048044	-2.226713	0.624177	99
Es	0.532131	-0.524321	0.173463	99
Es	1.590875	1.496315	0.754897	99
Es	0.417101	3.074633	0.611154	99
Es	-2.110845	-2.932519	0.216459	99
Es	0.467121	2.634088	-0.287553	99
Es	-0.201786	-2.686796	0.844019	99
41
Properties=species:S:1:pos:R:3:Z:I:1 energy=-302.88570070078134 field_type=dipole dipole="0.000000 0.000000 0.000000" charge=0
N	-1.930526	-2.351457	0.320111	7
C	-0.476776	-2.329387	0.264971	6
C	0.005244	-0.968217	0.264971	6
C	0.402524	0.153682	0.264971	6
C	1.003434	1.451692	0.325691	6
C	0.961444	2.338372	-0.890629	6
N	0.147944	2.633632	0.281211	7
H	-2.256986	-3.304317	0.179971	1
H	-2.298076	-1.800977	-0.454629	1
H	-0.141256	-2.850427	-0.638069	1
H	-0.078656	-2.878287	1.124341	1
H	1.880494	1.530313	0.961501	1
H	0.420534	2.003732	-1.766589	1
H	1.803994	2.990433	-1.080659	1
H	0.556664	3.381213	0.842831	1
Es	1.590757	1.496239	0.754906	99
Es	0.961346	2.338371	-0.890379	99
Es	0.416698	3.074772	0.611254	99
Es	0.598458	2.112002	-1.482907	99
Es	-2.110929	-2.932507	0.216486	99
Es	1.123856	1.739350	-0.376133	99
Es	-0.201067	2.593675	0.264504	99
Es	0.148562	2.633622	0.281187	99
Es	-2.048023	-2.226762	0.624025	99
Es	-0.234364	-2.669836	-0.351959	99
Es	-2.137061	-2.033696	-0.162748	99
Es	1.003255	1.451810	0.325609	99
Es	0.467086	2.634226	-0.287679	99
Es	0.675879	0.792014	0.295583	99
Es	0.402611	0.153938	0.264957	99
Es	-0.228475	-1.623271	0.263151	99
Es	1.537293	2.780904	-1.017315	99
Es	-0.201681	-2.686808	0.844025	99
Es	0.540959	-0.527653	0.246199	99
Es	0.023357	-0.329387	-0.051414	99
Es	0.489220	2.076933	0.436294	99
Es	-1.930319	-2.351690	0.319589	99
Es	-0.476874	-2.329274	0.264971	99
Es	0.047694	-0.349748	0.579941	99
Es	0.005145	-0.968456	0.264950	99
Es	-1.287149	-2.342722	0.273839	99
41
Properties=species:S:1:pos:R:3:Z:I:1 energy=-302.88570070078134 field_type=dipole dipole="0.000000 0.000000 0.000000" charge=0
N	-1.930526	-2.351457	0.320111	7
C	-0.476776	-2.329387	0.264971	6
C	0.005244	-0.968217	0.264971	6
C	0.402524	0.153682	0.264971	6
C	1.003434	1.451692	0.325691	6
C	0.961444	2.338372	-0.890629	6
N	0.147944	2.633632	0.281211	7
H	-2.256986	-3.304317	0.179971	1
H	-2.298076	-1.800977	-0.454629	1
H	-0.141256	-2.850427	-0.638069	1
H	-0.078656	-2.878287	1.124341	1
H	1.880494	1.530313	0.961501	1
H	0.420534	2.003732	-1.766589	1
H	1.803994	2.990433	-1.080659	1
H	0.556664	3.381213	0.842831	1
Es	0.538242	-0.526646	0.207814	99
Es	1.537258	2.780888	-1.017336	99
Es	0.402613	0.153937	0.264961	99
Es	-0.234225	-2.669848	-0.352037	99
Es	-2.110884	-2.932441	0.216326	99
Es	0.416546	3.074752	0.611246	99
Es	0.961342	2.338374	-0.890380	99
Es	-2.048173	-2.226851	0.624072	99
Es	0.005146	-0.968456	0.264949	99
Es	-0.006913	-0.318300	-0.028850	99
Es	1.123995	1.739123	-0.376285	99
Es	0.080729	-0.361862	0.595877	99
Es	0.148566	2.633613	0.281181	99
Es	0.489131	2.076795	0.436397	99
Es	-0.200685	2.593701	0.264682	99
Es	-1.930323	-2.351660	0.319630	99
Es	1.590688	1.496187	0.754920	99
Es	0.466780	2.634475	-0.287892	99
Es	-2.137055	-2.033741	-0.162666	99
Es	0.598476	2.112045	-1.482869	99
Es	0.676018	0.792138	0.295520	99
Es	1.003252	1.451814	0.325616	99
Es	-0.201713	-2.686710	0.844067	99
Es	-0.476878	-2.329271	0.264973	99
Es	-0.228643	-1.623292	0.263222	99
Es	-1.287055	-2.342715	0.273799	99
41
Properties=species:S:1:pos:R:3:Z:I:1 energy=-302.88570070078134 field_type=dipole dipole="0.000000 0.000000 0.000000" charge=0
N	-1.930526	-2.351457	0.320111	7
C	-0.476776	-2.329387	0.264971	6
C	0.005244	-0.968217	0.264971	6
C	0.402524	0.153682	0.264971	6
C	1.003434	1.451692	0.325691	6
C	0.961444	2.338372	-0.890629	6
N	0.147944	2.633632	0.281211	7
H	-2.256986	-3.304317	0.179971	1
H	-2.298076	-1.800977	-0.454629	1
H	-0.141256	-2.850427	-0.638069	1
H	-0.078656	-2.878287	1.124341	1
H	1.880494	1.530313	0.961501	1
H	0.420534	2.003732	-1.766589	1
H	1.803994	2.990433	-1.080659	1
H	0.556664	3.381213	0.842831	1
Es	-2.110917	-2.932431	0.216340	99
Es	0.416287	3.074718	0.611270	99
Es	-2.137158	-2.033551	-0.162623	99
Es	0.466648	2.634720	-0.288187	99
Es	-0.476875	-2.329274	0.264971	99
Es	-0.228529	-1.623435	0.263226	99
Es	0.148579	2.633628	0.281191	99
Es	0.488885	2.076646	0.436737	99
Es	-1.930324	-2.351672	0.319603	99
Es	1.003254	1.451812	0.325615	99
Es	1.537089	2.780853	-1.017350	99
Es	0.099022	-0.368536	0.602613	99
Es	1.590602	1.496115	0.754901	99
Es	-0.200228	2.593800	0.264650	99
Es	0.402609	0.153939	0.264958	99
Es	-0.234184	-2.669758	-0.351981	99
Es	-1.287127	-2.342699	0.273933	99
Es	0.005145	-0.968455	0.264951	99
Es	0.535043	-0.525388	0.187798	99
Es	1.124250	1.738872	-0.376413	99
Es	0.675999	0.792227	0.295634	99
Es	-2.048097	-2.227059	0.623892	99
Es	0.961347	2.338369	-0.890381	99
Es	-0.201633	-2.686695	0.844052	99
Es	0.598591	2.112125	-1.482816	99
Es	-0.022041	-0.312824	-0.015648	99
41
Properties=species:S:1:pos:R:3:Z:I:1 energy=-302.88570070078134 field_type=dipole dipole="0.000000 0.000000 0.000000" charge=0
N	-1.930526	-2.351457	0.320111	7
C	-0.476776	-2.329387	0.264971	6
C	0.005244	-0.968217	0.264971	6
C	0.402524	0.153682	0.264971	6
C	1.003434	1.451692	0.325691	6
C	0.961444	2.338372	-0.890629	6
N	0.147944	2.633632	0.281211	7
H	-2.256986	-3.304317	0.179971	1
H	-2.298076	-1.800977	-0.454629	1
H	-0.141256	-2.850427	-0.638069	1
H	-0.078656	-2.878287	1.124341	1
H	1.880494	1.530313	0.961501	1
H	0.420534	2.003732	-1.766589	1
H	1.803994	2.990433	-1.080659	1
H	0.556664	3.381213	0.842831	1
Es	-0.201595	-2.686666	0.844111	99
Es	1.590502	1.496108	0.754931	99
Es	1.124414	1.738882	-0.376464	99
Es	-0.476876	-2.329274	0.264971	99
Es	-2.137102	-2.033726	-0.162730	99
Es	-0.234102	-2.669693	-0.351946	99
Es	0.148580	2.633631	0.281193	99
Es	0.402619	0.153942	0.264967	99
Es	0.536776	-0.526051	0.198060	99
Es	0.467008	2.634665	-0.288334	99
Es	1.537002	2.780816	-1.017388	99
Es	-2.111036	-2.932447	0.216612	99
Es	-2.048099	-2.226840	0.623711	99
Es	0.005147	-0.968454	0.264951	99
Es	-0.228592	-1.623523	0.263166	99
Es	0.488296	2.076452	0.437310	99
Es	-1.287164	-2.342713	0.273874	99
Es	0.676122	0.792245	0.295512	99
Es	-0.199777	2.593970	0.264256	99
Es	-1.930312	-2.351677	0.319597	99
Es	0.415932	3.074795	0.611337	99
Es	-0.014606	-0.315506	-0.022546	99
Es	1.003255	1.451815	0.325609	99
Es	0.089892	-0.365205	0.599343	99
Es	0.961345	2.338372	-0.890381	99
Es	0.598608	2.112129	-1.482785	99
41
Properties=species:S:1:pos:R:3:Z:I:1 energy=-302.88570070078134 field_type=dipole dipole="0.000000 0.000000 0.000000" charge=0
N	-1.930526	-2.351457	0.320111	7
C	-0.476776	-2.329387	0.264971	6
C	0.005244	-0.968217	0.264971	6
C	0.402524	0.153682	0.264971	6
C	1.003434	1.451692	0.325691	6
C	0.961444	2.338372	-0.890629	6
N	0.147944	2.633632	0.281211	7
H	-2.256986	-3.304317	0.179971	1
H	-2.298076	-1.800977	-0.454629	1
H	-0.141256	-2.850427	-0.638069	1
H	-0.078656	-2.878287	1.124341	1
H	1.880494	1.530313	0.961501	1
H	0.420534	2.003732	-1.766589	1
H	1.803994	2.990433	-1.080659	1
H	0.556664	3.381213	0.842831	1
Es	0.598675	2.112305	-1.482709	99
Es	-0.199383	2.593946	0.264859	99
Es	1.590469	1.495989	0.754869	99
Es	0.402611	0.153933	0.264958	99
Es	-2.048094	-2.226930	0.623525	99
Es	0.676059	0.792474	0.295776	99
Es	1.124586	1.738346	-0.376671	99
Es	0.466198	2.635248	-0.288647	99
Es	-0.013942	-0.315762	-0.023053	99
Es	-2.137125	-2.033645	-0.162671	99
Es	-1.287122	-2.342669	0.274003	99
Es	-0.476877	-2.329274	0.264972	99
Es	0.088975	-0.364867	0.598965	99
Es	0.536972	-0.526104	0.198799	99
Es	-0.201648	-2.686515	0.844118	99
Es	-1.930311	-2.351685	0.319603	99
Es	0.005145	-0.968457	0.264950	99
Es	-0.233972	-2.669773	-0.352028	99
Es	-0.228544	-1.623643	0.263328	99
Es	-2.111099	-2.932451	0.216611	99
Es	0.488713	2.076368	0.437189	99
Es	0.415882	3.074642	0.611159	99
Es	0.148540	2.633613	0.281186	99
Es	0.961345	2.338372	-0.890381	99
Es	1.536928	2.780773	-1.017390	99
Es	1.003254	1.451813	0.325615	99
41
Properties=species:S:1:pos:R:3:Z:I:1 energy=-302.88570070078134 field_type=dipole dipole="0.000000 0.000000 0.000000" charge=0
N	-1.930526	-2.351457	0.320111	7
C	-0.476776	-2.329387	0.264971	6
C	0.005244	-0.968217	0.264971	6
C	0.402524	0.153682	0.264971	6
C	1.003434	1.451692	0.325691	6
C	0.961444	2.338372	-0.890629	6
N	0.147944	2.633632	0.281211	7
H	-2.256986	-3.304317	0.179971	1
H	-2.298076	-1.800977	-0.454629	1
H	-0.141256	-2.850427	-0.638069	1
H	-0.078656	-2.878287	1.124341	1
H	1.880494	1.530313	0.961501	1
H	0.420534	2.003732	-1.766589	1
H	1.803994	2.990433	-1.080659	1
H	0.556664	3.381213	0.842831	1
Es	0.466486	2.635397	-0.288545	99
Es	-0.201499	-2.686637	0.844054	99
Es	-1.287194	-2.342827	0.274132	99
Es	1.124779	1.738419	-0.376843	99
Es	-2.048006	-2.227077	0.623504	99
Es	-0.476876	-2.329273	0.264970	99
Es	0.961345	2.338372	-0.890382	99
Es	0.005147	-0.968454	0.264951	99
Es	0.402612	0.153935	0.264961	99
Es	-0.012730	-0.316215	-0.024177	99
Es	0.148577	2.633625	0.281187	99
Es	1.003251	1.451813	0.325619	99
Es	-0.198978	2.593946	0.264256	99
Es	1.536773	2.780790	-1.017400	99
Es	1.590407	1.495955	0.754876	99
Es	-2.111297	-2.932416	0.216438	99
Es	-2.137024	-2.033389	-0.162536	99
Es	0.676114	0.792572	0.295712	99
Es	0.087566	-0.364345	0.598495	99
Es	0.598755	2.112221	-1.482715	99
Es	0.415335	3.074741	0.611433	99
Es	0.488367	2.076034	0.437574	99
Es	-0.228502	-1.623694	0.263295	99
Es	-1.930320	-2.351670	0.319597	99
Es	0.537209	-0.526179	0.200498	99
Es	-0.234063	-2.669596	-0.352020	99
41
Properties=species:S:1:pos:R:3:Z:I:1 energy=-302.88570070078134 field_type=dipole dipole="0.000000 0.000000 0.000000" charge=0
N	-1.930526	-2.351457	0.320111	7
C	-0.476776	-2.329387	0.264971	6
C	0.005244	-0.968217	0.264971	6
C	0.402524	0.153682	0.264971	6
C	1.003434	1.451692	0.325691	6
C	0.961444	2.338372	-0.890629	6
N	0.147944	2.633632	0.281211	7
H	-2.256986	-3.304317	0.179971	1
H	-2.298076	-1.800977	-0.454629	1
H	-0.141256	-2.850427	-0.638069	1
H	-0.078656	-2.878287	1.124341	1
H	1.880494	1.530313	0.961501	1
H	0.420534	2.003732	-1.766589	1
H	1.803994	2.990433	-1.080659	1
H	0.556664	3.381213	0.842831	1
Es	1.590290	1.495890	0.754863	99
Es	-0.201434	-2.686545	0.844116	99
Es	0.415294	3.074661	0.611578	99
Es	0.488127	2.076027	0.437542	99
Es	1.125102	1.738134	-0.377038	99
Es	0.539820	-0.527167	0.219635	99
Es	0.402611	0.153935	0.264961	99
Es	0.001539	-0.321425	-0.035921	99
Es	-0.233969	-2.669548	-0.352054	99
Es	-2.137223	-2.033675	-0.162633	99
Es	1.536667	2.780766	-1.017496	99
Es	-2.047803	-2.226840	0.623302	99
Es	-1.287154	-2.342832	0.273879	99
Es	-0.228610	-1.623763	0.263306	99
Es	0.598747	2.112300	-1.482601	99
Es	0.005146	-0.968455	0.264951	99
Es	0.148563	2.633618	0.281188	99
Es	-2.111373	-2.932440	0.216982	99
Es	-1.930325	-2.351662	0.319581	99
Es	-0.476872	-2.329275	0.264971	99
Es	0.676104	0.792693	0.295750	99
Es	0.466287	2.635617	-0.288629	99
Es	0.961346	2.338370	-0.890380	99
Es	-0.198601	2.594018	0.264375	99
Es	1.003251	1.451820	0.325612	99
Es	0.070708	-0.358176	0.591097	99
