45
Properties=species:S:1:pos:R:3:Z:I:1 energy=-288.1142354881005 field_type=dipole dipole="0.000000 0.000000 0.000000" charge=0
N	-1.358872	-0.250946	1.804792	7
C	-0.328002	-0.004846	0.791752	6
C	-0.719501	-0.695706	-0.536138	6
C	0.352458	-0.613536	-1.593878	6
C	0.970438	-1.676076	-2.127228	6
C	-0.194192	1.487324	0.645492	6
C	0.931898	2.176014	0.874432	6
H	-1.047092	0.156584	2.685942	1
H	-1.429892	-1.253406	1.970192	1
H	0.613628	-0.437666	1.153362	1
H	-1.636162	-0.247916	-0.942008	1
H	-0.954292	-1.750386	-0.336758	1
H	0.617578	0.381364	-1.946538	1
H	0.735838	-2.689726	-1.819528	1
H	1.728248	-1.547726	-2.894458	1
H	-1.086092	2.026994	0.331882	1
H	1.847758	1.685344	1.188752	1
H	0.956248	3.254304	0.749942	1
Es	0.329202	-0.297719	1.031469	99
Es	1.485731	-1.597485	-2.648760	99
Es	-0.802183	1.843542	0.430377	99
Es	0.900636	-1.140972	-1.633627	99
Es	-0.872329	-1.416617	-0.392563	99
Es	0.352388	-0.613456	-1.593803	99
Es	0.931978	2.176070	0.874456	99
Es	-0.517344	-0.338373	0.114188	99
Es	-0.328137	-0.004838	0.791796	99
Es	-1.358361	-0.251171	1.804945	99
Es	0.467390	1.798022	0.451803	99
Es	-1.379867	-0.860699	1.904543	99
Es	0.814005	-2.367687	-1.919724	99
Es	-0.173058	-0.652648	-1.059176	99
Es	-0.255290	0.748750	0.710257	99
Es	0.970500	-1.676162	-2.127258	99
Es	0.956381	2.907436	0.792320	99
Es	-0.719444	-0.695684	-0.536141	99
Es	0.437871	-1.176227	-2.093904	99
Es	-0.898566	-0.154699	1.374864	99
Es	0.525919	0.063428	-1.826679	99
Es	0.292697	1.871699	1.078745	99
Es	-1.151145	-0.014914	2.334214	99
Es	1.556019	1.847399	1.088451	99
Es	-0.194278	1.487250	0.645472	99
Es	-1.331890	-0.385237	-0.812762	99
Es	-1.673009	-0.115632	1.705912	99
45
Properties=species:S:1:pos:R:3:Z:I:1 energy=-288.1142354881005 field_type=dipole dipole="0.000000 0.000000 0.000000" charge=0
N	-1.358872	-0.250946	1.804792	7
C	-0.328002	-0.004846	0.791752	6
C	-0.719501	-0.695706	-0.536138	6
C	0.352458	-0.613536	-1.593878	6
C	0.970438	-1.676076	-2.127228	6
C	-0.194192	1.487324	0.645492	6
C	0.931898	2.176014	0.874432	6
H	-1.047092	0.156584	2.685942	1
H	-1.429892	-1.253406	1.970192	1
H	0.613628	-0.437666	1.153362	1
H	-1.636162	-0.247916	-0.942008	1
H	-0.954292	-1.750386	-0.336758	1
H	0.617578	0.381364	-1.946538	1
H	0.735838	-2.689726	-1.819528	1
H	1.728248	-1.547726	-2.894458	1
H	-1.086092	2.026994	0.331882	1
H	1.847758	1.685344	1.188752	1
H	0.956248	3.254304	0.749942	1
Es	-1.151721	-0.014315	2.334412	99
Es	0.931986	2.176067	0.874451	99
Es	-0.872258	-1.416535	-0.392532	99
Es	-1.331907	-0.385407	-0.812830	99
Es	-0.517366	-0.338241	0.114174	99
Es	-0.898729	-0.154348	1.374577	99
Es	-1.672417	-0.116485	1.705965	99
Es	0.956396	2.907517	0.792298	99
Es	-0.255142	0.748686	0.710360	99
Es	0.352383	-0.613455	-1.593807	99
Es	0.900691	-1.140894	-1.633714	99
Es	-0.328139	-0.004838	0.791798	99
Es	-0.173098	-0.652757	-1.059148	99
Es	-1.379713	-0.860792	1.904630	99
Es	0.525903	0.063405	-1.826627	99
Es	-0.802185	1.843568	0.430276	99
Es	-1.358396	-0.251146	1.804928	99
Es	1.556006	1.847330	1.088365	99
Es	0.814088	-2.367690	-1.919669	99
Es	1.485665	-1.597499	-2.648773	99
Es	0.292716	1.871703	1.078654	99
Es	0.437860	-1.176206	-2.093955	99
Es	0.970488	-1.676154	-2.127270	99
Es	-0.194275	1.487246	0.645474	99
Es	0.329099	-0.297726	1.031460	99
Es	0.467323	1.798030	0.452063	99
Es	-0.719444	-0.695685	-0.536141	99
45
Properties=species:S:1:pos:R:3:Z:I:1 energy=-288.1142354881005 field_type=dipole dipole="0.000000 0.000000 0.000000" charge=0
N	-1.358872	-0.250946	1.804792	7
C	-0.328002	-0.004846	0.791752	6
C	-0.719501	-0.695706	-0.536138	6
C	0.352458	-0.613536	-1.593878	6
C	0.970438	-1.676076	-2.127228	6
C	-0.194192	1.487324	0.645492	6
C	0.931898	2.176014	0.874432	6
H	-1.047092	0.156584	2.685942	1
H	-1.429892	-1.253406	1.970192	1
H	0.613628	-0.437666	1.153362	1
H	-1.636162	-0.247916	-0.942008	1
H	-0.954292	-1.750386	-0.336758	1
H	0.617578	0.381364	-1.946538	1
H	0.735838	-2.689726	-1.819528	1
H	1.728248	-1.547726	-2.894458	1
H	-1.086092	2.026994	0.331882	1
H	1.847758	1.685344	1.188752	1
H	0.956248	3.254304	0.749942	1
Es	0.900540	-1.140940	-1.633786	99
Es	0.931985	2.176065	0.874450	99
Es	0.352382	-0.613455	-1.593807	99
Es	0.292655	1.871757	1.078458	99
Es	-0.899020	-0.154105	1.373860	99
Es	-0.872244	-1.416582	-0.392532	99
Es	-1.331916	-0.385381	-0.812836	99
Es	-1.358348	-0.251166	1.804949	99
Es	0.970482	-1.676163	-2.127273	99
Es	1.556008	1.847296	1.088461	99
Es	-1.380390	-0.860890	1.904484	99
Es	0.814045	-2.367692	-1.919711	99
Es	-0.173160	-0.652762	-1.059063	99
Es	-0.328133	-0.004838	0.791795	99
Es	0.329120	-0.297716	1.031431	99
Es	0.525971	0.063427	-1.826668	99
Es	1.485739	-1.597473	-2.648741	99
Es	0.437929	-1.176187	-2.093883	99
Es	-0.255226	0.748606	0.710537	99
Es	-0.719445	-0.695684	-0.536141	99
Es	-0.194264	1.487253	0.645468	99
Es	0.467379	1.798099	0.451917	99
Es	-0.802113	1.843538	0.430328	99
Es	-1.672224	-0.115925	1.707119	99
Es	-1.151002	-0.015039	2.334111	99
Es	-0.517314	-0.338181	0.114133	99
Es	0.956380	2.907516	0.792357	99
45
Properties=species:S:1:pos:R:3:Z:I:1 energy=-288.1142354881005 field_type=dipole dipole="0.000000 0.000000 0.000000" charge=0
N	-1.358872	-0.250946	1.804792	7
C	-0.328002	-0.004846	0.791752	6
C	-0.719501	-0.695706	-0.536138	6
C	0.352458	-0.613536	-1.593878	6
C	0.970438	-1.676076	-2.127228	6
C	-0.194192	1.487324	0.645492	6
C	0.931898	2.176014	0.874432	6
H	-1.047092	0.156584	2.685942	1
H	-1.429892	-1.253406	1.970192	1
H	0.613628	-0.437666	1.153362	1
H	-1.636162	-0.247916	-0.942008	1
H	-0.954292	-1.750386	-0.336758	1
H	0.617578	0.381364	-1.946538	1
H	0.735838	-2.689726	-1.819528	1
H	1.728248	-1.547726	-2.894458	1
H	-1.086092	2.026994	0.331882	1
H	1.847758	1.685344	1.188752	1
H	0.956248	3.254304	0.749942	1
Es	-0.255199	0.748426	0.710455	99
Es	0.525999	0.063342	-1.826886	99
Es	-0.719445	-0.695685	-0.536141	99
Es	-0.517312	-0.338279	0.114184	99
Es	0.931986	2.176067	0.874451	99
Es	0.900343	-1.140901	-1.633925	99
Es	0.814107	-2.367745	-1.919691	99
Es	-1.358365	-0.251158	1.804941	99
Es	-0.802156	1.843598	0.430330	99
Es	-0.872418	-1.416624	-0.392725	99
Es	-0.173187	-0.652654	-1.058857	99
Es	-0.898560	-0.154320	1.374313	99
Es	-0.194266	1.487256	0.645475	99
Es	0.329165	-0.297587	1.031414	99
Es	1.485783	-1.597356	-2.648725	99
Es	-1.151814	-0.014429	2.334424	99
Es	0.292702	1.871741	1.078494	99
Es	-1.379847	-0.860549	1.904704	99
Es	-0.328138	-0.004837	0.791797	99
Es	0.956429	2.907509	0.792351	99
Es	1.555995	1.847276	1.088392	99
Es	0.437995	-1.176297	-2.093729	99
Es	0.970491	-1.676162	-2.127267	99
Es	0.352380	-0.613455	-1.593809	99
Es	0.467271	1.798121	0.452040	99
Es	-1.331742	-0.385273	-0.812835	99
Es	-1.672383	-0.116647	1.706240	99
45
Properties=species:S:1:pos:R:3:Z:I:1 energy=-288.1142354881005 field_type=dipole dipole="0.000000 0.000000 0.000000" charge=0
N	-1.358872	-0.250946	1.804792	7
C	-0.328002	-0.004846	0.791752	6
C	-0.719501	-0.695706	-0.536138	6
C	0.352458	-0.613536	-1.593878	6
C	0.970438	-1.676076	-2.127228	6
C	-0.194192	1.487324	0.645492	6
C	0.931898	2.176014	0.874432	6
H	-1.047092	0.156584	2.685942	1
H	-1.429892	-1.253406	1.970192	1
H	0.613628	-0.437666	1.153362	1
H	-1.636162	-0.247916	-0.942008	1
H	-0.954292	-1.750386	-0.336758	1
H	0.617578	0.381364	-1.946538	1
H	0.735838	-2.689726	-1.819528	1
H	1.728248	-1.547726	-2.894458	1
H	-1.086092	2.026994	0.331882	1
H	1.847758	1.685344	1.188752	1
H	0.956248	3.254304	0.749942	1
Es	-0.719444	-0.695684	-0.536141	99
Es	-0.898636	-0.154518	1.374283	99
Es	1.556061	1.847329	1.088319	99
Es	0.329067	-0.297631	1.031318	99
Es	-0.255085	0.748379	0.710387	99
Es	0.525998	0.063426	-1.826801	99
Es	-0.802109	1.843718	0.430207	99
Es	-1.331770	-0.385319	-0.812851	99
Es	0.292732	1.871743	1.078601	99
Es	1.485766	-1.597445	-2.648775	99
Es	0.467164	1.798041	0.452468	99
Es	-0.517296	-0.338189	0.114166	99
Es	0.931983	2.176067	0.874456	99
Es	-1.672378	-0.116769	1.706208	99
Es	-1.358353	-0.251161	1.804927	99
Es	-1.379907	-0.860296	1.904526	99
Es	0.970483	-1.676159	-2.127270	99
Es	-0.872425	-1.416529	-0.392659	99
Es	0.438113	-1.176104	-2.093615	99
Es	0.956374	2.907512	0.792149	99
Es	-0.173291	-0.652900	-1.059016	99
Es	0.352381	-0.613456	-1.593809	99
Es	-0.194268	1.487253	0.645476	99
Es	0.900472	-1.140982	-1.633951	99
Es	-1.151694	-0.014412	2.334726	99
Es	-0.328132	-0.004836	0.791793	99
Es	0.814007	-2.367698	-1.919707	99
45
Properties=species:S:1:pos:R:3:Z:I:1 energy=-288.1142354881005 field_type=dipole dipole="0.000000 0.000000 0.000000" charge=0
N	-1.358872	-0.250946	1.804792	7
C	-0.328002	-0.004846	0.791752	6
C	-0.719501	-0.695706	-0.536138	6
C	0.352458	-0.613536	-1.593878	6
C	0.970438	-1.676076	-2.127228	6
C	-0.194192	1.487324	0.645492	6
C	0.931898	2.176014	0.874432	6
H	-1.047092	0.156584	2.685942	1
H	-1.429892	-1.253406	1.970192	1
H	0.613628	-0.437666	1.153362	1
H	-1.636162	-0.247916	-0.942008	1
H	-0.954292	-1.750386	-0.336758	1
H	0.617578	0.381364	-1.946538	1
H	0.735838	-2.689726	-1.819528	1
H	1.728248	-1.547726	-2.894458	1
H	-1.086092	2.026994	0.331882	1
H	1.847758	1.685344	1.188752	1
H	0.956248	3.254304	0.749942	1
Es	-0.872274	-1.416520	-0.392666	99
Es	-0.328135	-0.004838	0.791795	99
Es	-1.331846	-0.385475	-0.812814	99
Es	0.814055	-2.367679	-1.919705	99
Es	1.485779	-1.597435	-2.648762	99
Es	-0.517289	-0.338143	0.114166	99
Es	-1.672278	-0.116485	1.706251	99
Es	-1.358367	-0.251175	1.804925	99
Es	-0.173414	-0.652815	-1.059006	99
Es	1.556025	1.847265	1.088468	99
Es	0.956389	2.907522	0.792253	99
Es	0.467205	1.798115	0.452305	99
Es	-0.898439	-0.154336	1.374492	99
Es	-0.719445	-0.695685	-0.536142	99
Es	-1.379961	-0.860675	1.904778	99
Es	-0.802113	1.843694	0.430283	99
Es	0.970483	-1.676153	-2.127269	99
Es	0.329098	-0.297560	1.031336	99
Es	-0.194269	1.487254	0.645477	99
Es	0.292716	1.871797	1.078261	99
Es	0.931985	2.176066	0.874450	99
Es	0.438134	-1.176123	-2.093640	99
Es	0.900358	-1.140971	-1.633993	99
Es	0.526088	0.063392	-1.826814	99
Es	0.352379	-0.613456	-1.593812	99
Es	-0.255113	0.748257	0.710537	99
Es	-1.151935	-0.014457	2.334266	99
45
Properties=species:S:1:pos:R:3:Z:I:1 energy=-288.1142354881005 field_type=dipole dipole="0.000000 0.000000 0.000000" charge=0
N	-1.358872	-0.250946	1.804792	7
C	-0.328002	-0.004846	0.791752	6
C	-0.719501	-0.695706	-0.536138	6
C	0.352458	-0.613536	-1.593878	6
C	0.970438	-1.676076	-2.127228	6
C	-0.194192	1.487324	0.645492	6
C	0.931898	2.176014	0.874432	6
H	-1.047092	0.156584	2.685942	1
H	-1.429892	-1.253406	1.970192	1
H	0.613628	-0.437666	1.153362	1
H	-1.636162	-0.247916	-0.942008	1
H	-0.954292	-1.750386	-0.336758	1
H	0.617578	0.381364	-1.946538	1
H	0.735838	-2.689726	-1.819528	1
H	1.728248	-1.547726	-2.894458	1
H	-1.086092	2.026994	0.331882	1
H	1.847758	1.685344	1.188752	1
H	0.956248	3.254304	0.749942	1
Es	0.329013	-0.297531	1.031300	99
Es	-0.898645	-0.154245	1.374288	99
Es	0.931983	2.176070	0.874462	99
Es	0.813993	-2.367728	-1.919768	99
Es	-0.872475	-1.416424	-0.392684	99
Es	0.352388	-0.613460	-1.593812	99
Es	-0.254981	0.748231	0.710434	99
Es	0.292700	1.871762	1.078517	99
Es	0.900506	-1.140993	-1.633892	99
Es	0.438199	-1.176120	-2.093443	99
Es	-1.331754	-0.385319	-0.812907	99
Es	-0.517219	-0.338164	0.114081	99
Es	-0.328136	-0.004838	0.791796	99
Es	-1.151869	-0.014393	2.334459	99
Es	0.956472	2.907509	0.792175	99
Es	-1.380019	-0.860615	1.904651	99
Es	-0.719446	-0.695685	-0.536141	99
Es	-0.173403	-0.652894	-1.058982	99
Es	0.526068	0.063324	-1.826950	99
Es	-1.672096	-0.116734	1.706424	99
Es	-0.194270	1.487260	0.645486	99
Es	0.970488	-1.676158	-2.127266	99
Es	1.485683	-1.597414	-2.648826	99
Es	-1.358364	-0.251161	1.804940	99
Es	0.467118	1.798114	0.452546	99
Es	1.556008	1.847235	1.088359	99
Es	-0.802128	1.843746	0.430168	99
45
Properties=species:S:1:pos:R:3:Z:I:1 energy=-288.1142354881005 field_type=dipole dipole="0.000000 0.000000 0.000000" charge=0
N	-1.358872	-0.250946	1.804792	7
C	-0.328002	-0.004846	0.791752	6
C	-0.719501	-0.695706	-0.536138	6
C	0.352458	-0.613536	-1.593878	6
C	0.970438	-1.676076	-2.127228	6
C	-0.194192	1.487324	0.645492	6
C	0.931898	2.176014	0.874432	6
H	-1.047092	0.156584	2.685942	1
H	-1.429892	-1.253406	1.970192	1
H	0.613628	-0.437666	1.153362	1
H	-1.636162	-0.247916	-0.942008	1
H	-0.954292	-1.750386	-0.336758	1
H	0.617578	0.381364	-1.946538	1
H	0.735838	-2.689726	-1.819528	1
H	1.728248	-1.547726	-2.894458	1
H	-1.086092	2.026994	0.331882	1
H	1.847758	1.685344	1.188752	1
H	0.956248	3.254304	0.749942	1
Es	0.814033	-2.367718	-1.919678	99
Es	1.485742	-1.597402	-2.648830	99
Es	-0.802158	1.843794	0.430283	99
Es	0.467212	1.798057	0.452414	99
Es	-0.719449	-0.695689	-0.536144	99
Es	0.292765	1.871739	1.078092	99
Es	0.352383	-0.613457	-1.593810	99
Es	-0.328135	-0.004838	0.791796	99
Es	-0.194268	1.487254	0.645475	99
Es	0.956337	2.907525	0.792221	99
Es	0.526146	0.063371	-1.826883	99
Es	-1.151271	-0.015214	2.334388	99
Es	-1.671821	-0.115958	1.707170	99
Es	0.438319	-1.176122	-2.093485	99
Es	-1.358374	-0.251146	1.804918	99
Es	-0.255007	0.748138	0.710568	99
Es	0.970481	-1.676158	-2.127268	99
Es	0.329035	-0.297514	1.031331	99
Es	0.931985	2.176068	0.874445	99
Es	-0.898709	-0.154064	1.374047	99
Es	-1.380844	-0.860724	1.904244	99
Es	1.556020	1.847336	1.088551	99
Es	-0.173491	-0.652952	-1.058833	99
Es	-0.872372	-1.416489	-0.392703	99
Es	-1.331708	-0.385515	-0.812894	99
Es	-0.517248	-0.338051	0.114204	99
Es	0.900211	-1.140897	-1.634202	99
45
Properties=species:S:1:pos:R:3:Z:I:1 energy=-288.1142354881005 field_type=dipole dipole="0.000000 0.000000 0.000000" charge=0
N	-1.358872	-0.250946	1.804792	7
C	-0.328002	-0.004846	0.791752	6
C	-0.719501	-0.695706	-0.536138	6
C	0.352458	-0.613536	-1.593878	6
C	0.970438	-1.676076	-2.127228	6
C	-0.194192	1.487324	0.645492	6
C	0.931898	2.176014	0.874432	6
H	-1.047092	0.156584	2.685942	1
H	-1.429892	-1.253406	1.970192	1
H	0.613628	-0.437666	1.153362	1
H	-1.636162	-0.247916	-0.942008	1
H	-0.954292	-1.750386	-0.336758	1
H	0.617578	0.381364	-1.946538	1
H	0.735838	-2.689726	-1.819528	1
H	1.728248	-1.547726	-2.894458	1
H	-1.086092	2.026994	0.331882	1
H	1.847758	1.685344	1.188752	1
H	0.956248	3.254304	0.749942	1
Es	-0.719446	-0.695685	-0.536141	99
Es	0.292758	1.871675	1.077914	99
Es	0.900110	-1.140885	-1.634268	99
Es	-0.802231	1.843822	0.430409	99
Es	-0.173505	-0.652961	-1.058829	99
Es	0.814011	-2.367726	-1.919641	99
Es	1.556008	1.847244	1.088470	99
Es	-1.671638	-0.116779	1.706720	99
Es	-1.358351	-0.251164	1.804948	99
Es	-0.254907	0.748039	0.710624	99
Es	-0.328135	-0.004837	0.791796	99
Es	0.956407	2.907523	0.792310	99
Es	-1.380375	-0.860735	1.904633	99
Es	0.352385	-0.613459	-1.593807	99
Es	1.485798	-1.597393	-2.648808	99
Es	-1.331767	-0.385509	-0.812873	99
Es	0.329000	-0.297462	1.031308	99
Es	-0.872354	-1.416441	-0.392711	99
Es	0.931986	2.176067	0.874451	99
Es	0.526158	0.063358	-1.826940	99
Es	-0.898686	-0.154018	1.374090	99
Es	0.467156	1.798249	0.452402	99
Es	-0.194264	1.487255	0.645470	99
Es	-0.517175	-0.338104	0.114181	99
Es	0.970488	-1.676161	-2.127269	99
Es	0.438351	-1.176137	-2.093458	99
Es	-1.151970	-0.014399	2.334433	99
45
Properties=species:S:1:pos:R:3:Z:I:1 energy=-288.1142354881005 field_type=dipole dipole="0.000000 0.000000 0.000000" charge=0
N	-1.358872	-0.250946	1.804792	7
C	-0.328002	-0.004846	0.791752	6
C	-0.719501	-0.695706	-0.536138	6
C	0.352458	-0.613536	-1.593878	6
C	0.970438	-1.676076	-2.127228	6
C	-0.194192	1.487324	0.645492	6
C	0.931898	2.176014	0.874432	6
H	-1.047092	0.156584	2.685942	1
H	-1.429892	-1.253406	1.970192	1
H	0.613628	-0.437666	1.153362	1
H	-1.636162	-0.247916	-0.942008	1
H	-0.954292	-1.750386	-0.336758	1
H	0.617578	0.381364	-1.946538	1
H	0.735838	-2.689726	-1.819528	1
H	1.728248	-1.547726	-2.894458	1
H	-1.086092	2.026994	0.331882	1
H	1.847758	1.685344	1.188752	1
H	0.956248	3.254304	0.749942	1
Es	-1.358369	-0.251159	1.804943	99
Es	0.956333	2.907558	0.792218	99
Es	0.328970	-0.297407	1.031286	99
Es	0.526287	0.063380	-1.826870	99
Es	-0.517129	-0.338109	0.114151	99
Es	0.438431	-1.176120	-2.093551	99
Es	0.814026	-2.367743	-1.919638	99
Es	-0.255004	0.747994	0.710666	99
Es	-1.152178	-0.014243	2.334408	99
Es	-0.328134	-0.004838	0.791792	99
Es	-1.671779	-0.116788	1.706318	99
Es	-0.719446	-0.695684	-0.536140	99
Es	0.467173	1.798056	0.452585	99
Es	-1.331729	-0.385476	-0.812896	99
Es	-0.872415	-1.416413	-0.392742	99
Es	0.970493	-1.676162	-2.127263	99
Es	1.556029	1.847326	1.088443	99
Es	0.931982	2.176065	0.874452	99
Es	0.899850	-1.140878	-1.634385	99
Es	0.292780	1.871718	1.078035	99
Es	-1.380242	-0.860672	1.904779	99
Es	-0.194270	1.487252	0.645498	99
Es	0.352384	-0.613459	-1.593810	99
Es	-0.898445	-0.154259	1.374418	99
Es	-0.173544	-0.653072	-1.058746	99
Es	-0.802102	1.843875	0.430206	99
Es	1.485864	-1.597369	-2.648739	99
45
Properties=species:S:1:pos:R:3:Z:I:1 energy=-288.1142354881005 field_type=dipole dipole="0.000000 0.000000 0.000000" charge=0
N	-1.358872	-0.250946	1.804792	7
C	-0.328002	-0.004846	0.791752	6
C	-0.719501	-0.695706	-0.536138	6
C	0.352458	-0.613536	-1.593878	6
C	0.970438	-1.676076	-2.127228	6
C	-0.194192	1.487324	0.645492	6
C	0.931898	2.176014	0.874432	6
H	-1.047092	0.156584	2.685942	1
H	-1.429892	-1.253406	1.970192	1
H	0.613628	-0.437666	1.153362	1
H	-1.636162	-0.247916	-0.942008	1
H	-0.954292	-1.750386	-0.336758	1
H	0.617578	0.381364	-1.946538	1
H	0.735838	-2.689726	-1.819528	1
H	1.728248	-1.547726	-2.894458	1
H	-1.086092	2.026994	0.331882	1
H	1.847758	1.685344	1.188752	1
H	0.956248	3.254304	0.749942	1
Es	0.352384	-0.613461	-1.593811	99
Es	-0.254918	0.747929	0.710693	99
Es	-0.173654	-0.652967	-1.058822	99
Es	-0.802143	1.843903	0.430285	99
Es	1.485807	-1.597408	-2.648791	99
Es	-1.331589	-0.385556	-0.812793	99
Es	-1.380534	-0.860527	1.904640	99
Es	-1.151327	-0.014675	2.334364	99
Es	-1.358393	-0.251153	1.804932	99
Es	0.467107	1.798157	0.452589	99
Es	0.970484	-1.676158	-2.127270	99
Es	1.555966	1.847216	1.088500	99
Es	-0.899068	-0.154094	1.373514	99
Es	0.899978	-1.140872	-1.634411	99
Es	0.328917	-0.297371	1.031270	99
Es	0.931984	2.176065	0.874451	99
Es	-0.194269	1.487254	0.645479	99
Es	-0.719445	-0.695683	-0.536140	99
Es	-1.671720	-0.116703	1.707437	99
Es	0.292807	1.871727	1.077810	99
Es	0.814014	-2.367722	-1.919630	99
Es	-0.328128	-0.004838	0.791798	99
Es	0.438454	-1.176083	-2.093399	99
Es	-0.517101	-0.338052	0.114187	99
Es	0.526253	0.063368	-1.826968	99
Es	0.956410	2.907592	0.792307	99
Es	-0.872462	-1.416511	-0.392804	99
45
Properties=species:S:1:pos:R:3:Z:I:1 energy=-288.1142354881005 field_type=dipole dipole="0.000000 0.000000 0.000000" charge=0
N	-1.358872	-0.250946	1.804792	7
C	-0.328002	-0.004846	0.791752	6
C	-0.719501	-0.695706	-0.536138	6
C	0.352458	-0.613536	-1.593878	6
C	0.970438	-1.676076	-2.127228	6
C	-0.194192	1.487324	0.645492	6
C	0.931898	2.176014	0.874432	6
H	-1.047092	0.156584	2.685942	1
H	-1.429892	-1.253406	1.970192	1
H	0.613628	-0.437666	1.153362	1
H	-1.636162	-0.247916	-0.942008	1
H	-0.954292	-1.750386	-0.336758	1
H	0.617578	0.381364	-1.946538	1
H	0.735838	-2.689726	-1.819528	1
H	1.728248	-1.547726	-2.894458	1
H	-1.086092	2.026994	0.331882	1
H	1.847758	1.685344	1.188752	1
H	0.956248	3.254304	0.749942	1
Es	-0.898400	-0.154345	1.374420	99
Es	-1.671524	-0.116179	1.706644	99
Es	0.467061	1.798148	0.452713	99
Es	0.970481	-1.676154	-2.127270	99
Es	0.438548	-1.176072	-2.093342	99
Es	0.814010	-2.367759	-1.919627	99
Es	-0.173665	-0.653082	-1.058657	99
Es	1.485775	-1.597381	-2.648806	99
Es	1.556016	1.847240	1.088488	99
Es	-0.517105	-0.338006	0.114179	99
Es	0.526292	0.063354	-1.826988	99
Es	-0.328130	-0.004837	0.791794	99
Es	0.292820	1.871736	1.077767	99
Es	0.956370	2.907568	0.792250	99
Es	-0.254918	0.747785	0.710702	99
Es	-0.719447	-0.695685	-0.536142	99
Es	0.899920	-1.140843	-1.634498	99
Es	-0.194265	1.487254	0.645476	99
Es	-1.380936	-0.860738	1.904587	99
Es	0.931981	2.176065	0.874449	99
Es	0.352384	-0.613459	-1.593810	99
Es	-1.358393	-0.251131	1.804931	99
Es	0.328925	-0.297332	1.031300	99
Es	-0.802117	1.843970	0.430274	99
Es	-1.151816	-0.014718	2.334330	99
Es	-0.872338	-1.416390	-0.392786	99
Es	-1.331715	-0.385629	-0.812961	99
45
Properties=species:S:1:pos:R:3:Z:I:1 energy=-288.1142354881005 field_type=dipole dipole="0.000000 0.000000 0.000000" charge=0
N	-1.358872	-0.250946	1.804792	7
C	-0.328002	-0.004846	0.791752	6
C	-0.719501	-0.695706	-0.536138	6
C	0.352458	-0.613536	-1.593878	6
C	0.970438	-1.676076	-2.127228	6
C	-0.194192	1.487324	0.645492	6
C	0.931898	2.176014	0.874432	6
H	-1.047092	0.156584	2.685942	1
H	-1.429892	-1.253406	1.970192	1
H	0.613628	-0.437666	1.153362	1
H	-1.636162	-0.247916	-0.942008	1
H	-0.954292	-1.750386	-0.336758	1
H	0.617578	0.381364	-1.946538	1
H	0.735838	-2.689726	-1.819528	1
H	1.728248	-1.547726	-2.894458	1
H	-1.086092	2.026994	0.331882	1
H	1.847758	1.685344	1.188752	1
H	0.956248	3.254304	0.749942	1
Es	0.526350	0.063406	-1.827032	99
Es	-0.719449	-0.695685	-0.536142	99
Es	-0.802082	1.843974	0.430176	99
Es	-0.872374	-1.416450	-0.392902	99
Es	0.899792	-1.140862	-1.634519	99
Es	-0.517071	-0.338103	0.114197	99
Es	0.956364	2.907601	0.792173	99
Es	0.467012	1.798122	0.452926	99
Es	0.814002	-2.367740	-1.919636	99
Es	0.352385	-0.613459	-1.593811	99
Es	0.438593	-1.176085	-2.093294	99
Es	-1.152137	-0.014441	2.334505	99
Es	0.328922	-0.297361	1.031247	99
Es	-0.194268	1.487257	0.645474	99
Es	-0.898547	-0.154016	1.374002	99
Es	-1.358370	-0.251161	1.804944	99
Es	-0.328132	-0.004838	0.791797	99
Es	-1.380651	-0.860604	1.904625	99
Es	1.556034	1.847218	1.088417	99
Es	-0.173703	-0.653066	-1.058575	99
Es	1.485811	-1.597390	-2.648786	99
Es	0.970481	-1.676157	-2.127270	99
Es	-1.671358	-0.116880	1.706869	99
Es	-0.254869	0.747716	0.710789	99
Es	0.292808	1.871800	1.077736	99
Es	0.931982	2.176063	0.874452	99
Es	-1.331712	-0.385485	-0.812946	99
45
Properties=species:S:1:pos:R:3:Z:I:1 energy=-288.1142354881005 field_type=dipole dipole="0.000000 0.000000 0.000000" charge=0
N	-1.358872	-0.250946	1.804792	7
C	-0.328002	-0.004846	0.791752	6
C	-0.719501	-0.695706	-0.536138	6
C	0.352458	-0.613536	-1.593878	6
C	0.970438	-1.676076	-2.127228	6
C	-0.194192	1.487324	0.645492	6
C	0.931898	2.176014	0.874432	6
H	-1.047092	0.156584	2.685942	1
H	-1.429892	-1.253406	1.970192	1
H	0.613628	-0.437666	1.153362	1
H	-1.636162	-0.247916	-0.942008	1
H	-0.954292	-1.750386	-0.336758	1
H	0.617578	0.381364	-1.946538	1
H	0.735838	-2.689726	-1.819528	1
H	1.728248	-1.547726	-2.894458	1
H	-1.086092	2.026994	0.331882	1
H	1.847758	1.685344	1.188752	1
H	0.956248	3.254304	0.749942	1
Es	0.467018	1.798189	0.452781	99
Es	-0.517110	-0.338036	0.114207	99
Es	0.956402	2.907603	0.792274	99
Es	-1.671952	-0.117087	1.707000	99
Es	-0.898716	-0.153851	1.374012	99
Es	-0.194263	1.487257	0.645478	99
Es	0.352385	-0.613462	-1.593813	99
Es	-0.254878	0.747681	0.710712	99
Es	-0.173735	-0.653126	-1.058632	99
Es	0.526308	0.063349	-1.827081	99
Es	0.328894	-0.297220	1.031201	99
Es	-0.872412	-1.416396	-0.392805	99
Es	-0.719446	-0.695684	-0.536141	99
Es	-1.379998	-0.860517	1.904671	99
Es	0.292831	1.871763	1.077574	99
Es	0.813967	-2.367709	-1.919535	99
Es	0.438630	-1.176041	-2.093236	99
Es	0.931982	2.176062	0.874449	99
Es	1.485764	-1.597485	-2.648849	99
Es	0.899918	-1.140795	-1.634605	99
Es	-1.331632	-0.385633	-0.812961	99
Es	-1.151978	-0.014519	2.334423	99
Es	-0.328133	-0.004839	0.791793	99
Es	-1.358365	-0.251159	1.804933	99
Es	0.970484	-1.676154	-2.127265	99
Es	-0.802123	1.843999	0.430282	99
Es	1.555970	1.847188	1.088550	99
45
Properties=species:S:1:pos:R:3:Z:I:1 energy=-288.1142354881005 field_type=dipole dipole="0.000000 0.000000 0.000000" charge=0
N	-1.358872	-0.250946	1.804792	7
C	-0.328002	-0.004846	0.791752	6
C	-0.719501	-0.695706	-0.536138	6
C	0.352458	-0.613536	-1.593878	6
C	0.970438	-1.676076	-2.127228	6
C	-0.194192	1.487324	0.645492	6
C	0.931898	2.176014	0.874432	6
H	-1.047092	0.156584	2.685942	1
H	-1.429892	-1.253406	1.970192	1
H	0.613628	-0.437666	1.153362	1
H	-1.636162	-0.247916	-0.942008	1
H	-0.954292	-1.750386	-0.336758	1
H	0.617578	0.381364	-1.946538	1
H	0.735838	-2.689726	-1.819528	1
H	1.728248	-1.547726	-2.894458	1
H	-1.086092	2.026994	0.331882	1
H	1.847758	1.685344	1.188752	1
H	0.956248	3.254304	0.749942	1
Es	0.970482	-1.676155	-2.127267	99
Es	-0.194264	1.487253	0.645477	99
Es	-1.152211	-0.014354	2.334429	99
Es	0.899758	-1.140844	-1.634673	99
Es	-0.898660	-0.153840	1.373974	99
Es	0.956387	2.907589	0.792263	99
Es	0.352383	-0.613460	-1.593811	99
Es	-0.517105	-0.337834	0.114066	99
Es	0.526379	0.063387	-1.827068	99
Es	-1.358424	-0.251135	1.804944	99
Es	-1.671361	-0.117151	1.707024	99
Es	-0.254846	0.747560	0.710790	99
Es	-1.331625	-0.385653	-0.813084	99
Es	-0.802087	1.844093	0.430282	99
Es	-0.328132	-0.004837	0.791794	99
Es	0.813929	-2.367744	-1.919631	99
Es	0.931982	2.176063	0.874448	99
Es	-1.380392	-0.860663	1.904703	99
Es	0.438768	-1.176008	-2.093120	99
Es	-0.173762	-0.653328	-1.058529	99
Es	0.292856	1.871720	1.077556	99
Es	1.556004	1.847182	1.088514	99
Es	1.485791	-1.597393	-2.648862	99
Es	0.328852	-0.297242	1.031171	99
Es	-0.719446	-0.695684	-0.536140	99
Es	0.466982	1.798202	0.452892	99
Es	-0.872424	-1.416347	-0.392727	99
45
Properties=species:S:1:pos:R:3:Z:I:1 energy=-288.1142354881005 field_type=dipole dipole="0.000000 0.000000 0.000000" charge=0
N	-1.358872	-0.250946	1.804792	7
C	-0.328002	-0.004846	0.791752	6
C	-0.719501	-0.695706	-0.536138	6
C	0.352458	-0.613536	-1.593878	6
C	0.970438	-1.676076	-2.127228	6
C	-0.194192	1.487324	0.645492	6
C	0.931898	2.176014	0.874432	6
H	-1.047092	0.156584	2.685942	1
H	-1.429892	-1.253406	1.970192	1
H	0.613628	-0.437666	1.153362	1
H	-1.636162	-0.247916	-0.942008	1
H	-0.954292	-1.750386	-0.336758	1
H	0.617578	0.381364	-1.946538	1
H	0.735838	-2.689726	-1.819528	1
H	1.728248	-1.547726	-2.894458	1
H	-1.086092	2.026994	0.331882	1
H	1.847758	1.685344	1.188752	1
H	0.956248	3.254304	0.749942	1
Es	-1.358384	-0.251153	1.804941	99
Es	0.956346	2.907606	0.792233	99
Es	0.466924	1.798234	0.453017	99
Es	-1.331670	-0.385678	-0.813062	99
Es	-0.254799	0.747493	0.710792	99
Es	-0.517097	-0.337932	0.114156	99
Es	0.970468	-1.676147	-2.127275	99
Es	-0.802106	1.844078	0.430266	99
Es	-0.898376	-0.154016	1.374155	99
Es	1.485842	-1.597398	-2.648813	99
Es	0.813980	-2.367744	-1.919542	99
Es	-1.152287	-0.014470	2.334501	99
Es	-0.173815	-0.653214	-1.058416	99
Es	0.899621	-1.140816	-1.634823	99
Es	1.556042	1.847165	1.088510	99
Es	0.328862	-0.297201	1.031176	99
Es	0.292865	1.871753	1.077431	99
Es	0.438771	-1.176022	-2.093155	99
Es	-0.328129	-0.004837	0.791792	99
Es	0.352385	-0.613458	-1.593810	99
Es	-0.194263	1.487259	0.645476	99
Es	0.931981	2.176065	0.874447	99
Es	-0.872344	-1.416364	-0.392830	99
Es	-1.380910	-0.860650	1.904603	99
Es	-0.719446	-0.695685	-0.536142	99
Es	-1.671086	-0.116839	1.706897	99
Es	0.526438	0.063346	-1.827107	99
