45
Properties=species:S:1:pos:R:3:Z:I:1 energy=-288.1226783671917 field_type=dipole dipole="0.000000 0.000000 0.000000" charge=0
N	-3.334553	-0.871112	0.222982	7
C	-1.892693	-1.007182	0.420562	6
C	-1.201213	0.360708	0.400802	6
C	0.283037	0.230138	0.610112	6
C	1.199097	0.599528	-0.297458	6
C	2.618097	0.473708	-0.070198	6
C	3.535477	0.848668	-0.969058	6
H	-3.756913	-1.798432	0.192462	1
H	-3.515363	-0.447682	-0.686698	1
H	-1.482053	-1.651112	-0.365648	1
H	-1.714803	-1.505552	1.380472	1
H	-1.607513	0.995548	1.197552	1
H	-1.412513	0.868678	-0.548238	1
H	0.596716	-0.178412	1.568982	1
H	0.879157	1.015448	-1.251008	1
H	2.948057	0.056118	0.878932	1
H	3.264177	1.272918	-1.930458	1
H	4.593807	0.738028	-0.754098	1
Es	1.909498	0.535934	-0.183304	99
Es	2.831663	0.188896	0.577218	99
Es	-1.343379	0.701808	-0.253744	99
Es	1.199181	0.599554	-0.297523	99
Es	-2.708411	-0.939695	0.288229	99
Es	-3.334313	-0.871433	0.222556	99
Es	2.618016	0.473676	-0.070132	99
Es	-1.536220	-0.318104	0.410902	99
Es	-1.201167	0.360669	0.400804	99
Es	3.071078	0.957997	-0.397857	99
Es	0.987537	0.883101	-0.948119	99
Es	-0.454342	0.289780	0.500581	99
Es	-1.467572	0.785629	0.942815	99
Es	-3.574212	-1.439489	0.189242	99
Es	4.256232	0.776700	-0.830972	99
Es	-1.598475	-1.448666	-0.123530	99
Es	-1.768457	-1.347665	1.080141	99
Es	3.535551	0.848698	-0.969131	99
Es	0.766407	0.117504	0.018815	99
Es	3.353096	1.136961	-1.623067	99
Es	-3.483773	-0.675575	0.477489	99
Es	-1.892822	-1.007124	0.420544	99
Es	0.282934	0.230114	0.610189	99
Es	-3.427111	-0.629714	-0.339298	99
Es	3.060992	0.369164	-0.654055	99
Es	0.778492	0.713454	0.275277	99
Es	0.492128	-0.051392	1.263782	99
45
Properties=species:S:1:pos:R:3:Z:I:1 energy=-288.1226783671917 field_type=dipole dipole="0.000000 0.000000 0.000000" charge=0
N	-3.334553	-0.871112	0.222982	7
C	-1.892693	-1.007182	0.420562	6
C	-1.201213	0.360708	0.400802	6
C	0.283037	0.230138	0.610112	6
C	1.199097	0.599528	-0.297458	6
C	2.618097	0.473708	-0.070198	6
C	3.535477	0.848668	-0.969058	6
H	-3.756913	-1.798432	0.192462	1
H	-3.515363	-0.447682	-0.686698	1
H	-1.482053	-1.651112	-0.365648	1
H	-1.714803	-1.505552	1.380472	1
H	-1.607513	0.995548	1.197552	1
H	-1.412513	0.868678	-0.548238	1
H	0.596716	-0.178412	1.568982	1
H	0.879157	1.015448	-1.251008	1
H	2.948057	0.056118	0.878932	1
H	3.264177	1.272918	-1.930458	1
H	4.593807	0.738028	-0.754098	1
Es	-1.201167	0.360668	0.400804	99
Es	0.492088	-0.051364	1.263774	99
Es	3.071027	0.958073	-0.397875	99
Es	-3.574624	-1.439582	0.189516	99
Es	3.535553	0.848706	-0.969129	99
Es	3.061043	0.369138	-0.654005	99
Es	-1.343487	0.701935	-0.253729	99
Es	-1.768459	-1.347635	1.080148	99
Es	1.199179	0.599545	-0.297529	99
Es	0.778456	0.713607	0.275257	99
Es	-1.536225	-0.318090	0.410861	99
Es	-3.334326	-0.871408	0.222574	99
Es	4.256160	0.776729	-0.830928	99
Es	-3.483008	-0.675533	0.477635	99
Es	-1.467433	0.785539	0.942892	99
Es	2.831682	0.188930	0.577224	99
Es	2.618015	0.473679	-0.070130	99
Es	-0.454368	0.289624	0.500407	99
Es	-1.892820	-1.007123	0.420547	99
Es	-3.427338	-0.629379	-0.339154	99
Es	1.909504	0.535885	-0.183289	99
Es	3.353151	1.136917	-1.623141	99
Es	0.987594	0.883026	-0.948120	99
Es	-1.598483	-1.448696	-0.123484	99
Es	-2.708525	-0.940024	0.287639	99
Es	0.766426	0.117502	0.018900	99
Es	0.282935	0.230117	0.610189	99
45
Properties=species:S:1:pos:R:3:Z:I:1 energy=-288.1226783671917 field_type=dipole dipole="0.000000 0.000000 0.000000" charge=0
N	-3.334553	-0.871112	0.222982	7
C	-1.892693	-1.007182	0.420562	6
C	-1.201213	0.360708	0.400802	6
C	0.283037	0.230138	0.610112	6
C	1.199097	0.599528	-0.297458	6
C	2.618097	0.473708	-0.070198	6
C	3.535477	0.848668	-0.969058	6
H	-3.756913	-1.798432	0.192462	1
H	-3.515363	-0.447682	-0.686698	1
H	-1.482053	-1.651112	-0.365648	1
H	-1.714803	-1.505552	1.380472	1
H	-1.607513	0.995548	1.197552	1
H	-1.412513	0.868678	-0.548238	1
H	0.596716	-0.178412	1.568982	1
H	0.879157	1.015448	-1.251008	1
H	2.948057	0.056118	0.878932	1
H	3.264177	1.272918	-1.930458	1
H	4.593807	0.738028	-0.754098	1
Es	4.256205	0.776650	-0.830960	99
Es	2.831742	0.188850	0.577178	99
Es	3.060949	0.369232	-0.654078	99
Es	1.199181	0.599555	-0.297523	99
Es	3.353080	1.136997	-1.623121	99
Es	3.535550	0.848709	-0.969125	99
Es	-3.574700	-1.439402	0.189583	99
Es	0.282931	0.230112	0.610183	99
Es	-3.427474	-0.629293	-0.339171	99
Es	-3.482859	-0.675555	0.477765	99
Es	1.909508	0.535932	-0.183218	99
Es	-1.467432	0.785753	0.942906	99
Es	0.778649	0.713473	0.275257	99
Es	-2.708550	-0.940278	0.287430	99
Es	-0.454462	0.289738	0.500283	99
Es	0.987533	0.883080	-0.948123	99
Es	3.071099	0.957941	-0.397856	99
Es	0.492193	-0.051529	1.263731	99
Es	2.618013	0.473684	-0.070129	99
Es	-1.201166	0.360670	0.400804	99
Es	-1.598441	-1.448607	-0.123447	99
Es	-1.768455	-1.347697	1.080067	99
Es	-1.343496	0.701732	-0.253690	99
Es	-3.334309	-0.871435	0.222555	99
Es	-1.536166	-0.318147	0.411029	99
Es	-1.892823	-1.007125	0.420546	99
Es	0.766250	0.117741	0.018976	99
45
Properties=species:S:1:pos:R:3:Z:I:1 energy=-288.1226783671917 field_type=dipole dipole="0.000000 0.000000 0.000000" charge=0
N	-3.334553	-0.871112	0.222982	7
C	-1.892693	-1.007182	0.420562	6
C	-1.201213	0.360708	0.400802	6
C	0.283037	0.230138	0.610112	6
C	1.199097	0.599528	-0.297458	6
C	2.618097	0.473708	-0.070198	6
C	3.535477	0.848668	-0.969058	6
H	-3.756913	-1.798432	0.192462	1
H	-3.515363	-0.447682	-0.686698	1
H	-1.482053	-1.651112	-0.365648	1
H	-1.714803	-1.505552	1.380472	1
H	-1.607513	0.995548	1.197552	1
H	-1.412513	0.868678	-0.548238	1
H	0.596716	-0.178412	1.568982	1
H	0.879157	1.015448	-1.251008	1
H	2.948057	0.056118	0.878932	1
H	3.264177	1.272918	-1.930458	1
H	4.593807	0.738028	-0.754098	1
Es	-3.334313	-0.871425	0.222572	99
Es	-1.598493	-1.448603	-0.123345	99
Es	-2.708561	-0.940143	0.287601	99
Es	-1.892821	-1.007124	0.420546	99
Es	-1.467459	0.785698	0.942852	99
Es	-1.536135	-0.318166	0.410895	99
Es	0.282935	0.230110	0.610185	99
Es	0.987649	0.883032	-0.948187	99
Es	0.492330	-0.051369	1.263761	99
Es	3.060996	0.369167	-0.654052	99
Es	1.909555	0.535965	-0.183072	99
Es	-3.574660	-1.439484	0.189503	99
Es	2.831740	0.188945	0.577287	99
Es	3.071052	0.957851	-0.397930	99
Es	4.256214	0.776718	-0.830981	99
Es	-3.482948	-0.675710	0.477607	99
Es	3.535550	0.848713	-0.969123	99
Es	-0.454640	0.289771	0.500399	99
Es	3.353047	1.137005	-1.623096	99
Es	0.766344	0.117819	0.019007	99
Es	-1.768429	-1.347703	1.080069	99
Es	2.618016	0.473681	-0.070131	99
Es	1.199183	0.599555	-0.297524	99
Es	-3.427446	-0.629215	-0.339142	99
Es	-1.201168	0.360670	0.400803	99
Es	-1.343402	0.701809	-0.253708	99
Es	0.778416	0.713217	0.275056	99
45
Properties=species:S:1:pos:R:3:Z:I:1 energy=-288.1226783671917 field_type=dipole dipole="0.000000 0.000000 0.000000" charge=0
N	-3.334553	-0.871112	0.222982	7
C	-1.892693	-1.007182	0.420562	6
C	-1.201213	0.360708	0.400802	6
C	0.283037	0.230138	0.610112	6
C	1.199097	0.599528	-0.297458	6
C	2.618097	0.473708	-0.070198	6
C	3.535477	0.848668	-0.969058	6
H	-3.756913	-1.798432	0.192462	1
H	-3.515363	-0.447682	-0.686698	1
H	-1.482053	-1.651112	-0.365648	1
H	-1.714803	-1.505552	1.380472	1
H	-1.607513	0.995548	1.197552	1
H	-1.412513	0.868678	-0.548238	1
H	0.596716	-0.178412	1.568982	1
H	0.879157	1.015448	-1.251008	1
H	2.948057	0.056118	0.878932	1
H	3.264177	1.272918	-1.930458	1
H	4.593807	0.738028	-0.754098	1
Es	0.987528	0.883059	-0.948216	99
Es	3.071054	0.957814	-0.397953	99
Es	2.618015	0.473683	-0.070129	99
Es	3.353078	1.137013	-1.623094	99
Es	-1.343398	0.701827	-0.253698	99
Es	-1.768482	-1.347708	1.079929	99
Es	-1.598453	-1.448616	-0.123316	99
Es	-1.892821	-1.007124	0.420546	99
Es	-1.201167	0.360669	0.400803	99
Es	4.256245	0.776680	-0.830922	99
Es	-3.483057	-0.675705	0.477133	99
Es	0.492303	-0.051405	1.263781	99
Es	3.535551	0.848698	-0.969129	99
Es	1.909453	0.535887	-0.183279	99
Es	-3.427569	-0.629491	-0.339030	99
Es	0.778549	0.713177	0.275197	99
Es	3.060981	0.369269	-0.654020	99
Es	-3.334312	-0.871423	0.222572	99
Es	-0.454544	0.289859	0.500477	99
Es	-1.536176	-0.318112	0.411045	99
Es	0.766404	0.117857	0.019052	99
Es	-3.574734	-1.439528	0.189711	99
Es	0.282933	0.230125	0.610191	99
Es	-1.467442	0.785666	0.942708	99
Es	2.831736	0.188919	0.577264	99
Es	1.199180	0.599553	-0.297522	99
Es	-2.708304	-0.939860	0.287750	99
45
Properties=species:S:1:pos:R:3:Z:I:1 energy=-288.1226783671917 field_type=dipole dipole="0.000000 0.000000 0.000000" charge=0
N	-3.334553	-0.871112	0.222982	7
C	-1.892693	-1.007182	0.420562	6
C	-1.201213	0.360708	0.400802	6
C	0.283037	0.230138	0.610112	6
C	1.199097	0.599528	-0.297458	6
C	2.618097	0.473708	-0.070198	6
C	3.535477	0.848668	-0.969058	6
H	-3.756913	-1.798432	0.192462	1
H	-3.515363	-0.447682	-0.686698	1
H	-1.482053	-1.651112	-0.365648	1
H	-1.714803	-1.505552	1.380472	1
H	-1.607513	0.995548	1.197552	1
H	-1.412513	0.868678	-0.548238	1
H	0.596716	-0.178412	1.568982	1
H	0.879157	1.015448	-1.251008	1
H	2.948057	0.056118	0.878932	1
H	3.264177	1.272918	-1.930458	1
H	4.593807	0.738028	-0.754098	1
Es	-1.598479	-1.448580	-0.123293	99
Es	-1.768463	-1.347742	1.079940	99
Es	4.256259	0.776690	-0.830904	99
Es	-1.536165	-0.318187	0.410994	99
Es	0.282927	0.230103	0.610188	99
Es	1.199178	0.599553	-0.297519	99
Es	-0.454658	0.289902	0.500462	99
Es	0.492427	-0.051480	1.263720	99
Es	-1.343394	0.701843	-0.253638	99
Es	3.535550	0.848700	-0.969129	99
Es	-3.334328	-0.871424	0.222557	99
Es	3.071021	0.957791	-0.397990	99
Es	-3.574948	-1.439313	0.189597	99
Es	-1.201168	0.360668	0.400803	99
Es	2.831756	0.188934	0.577284	99
Es	0.778437	0.713107	0.275200	99
Es	-1.892822	-1.007125	0.420545	99
Es	-3.427508	-0.629308	-0.338994	99
Es	0.766453	0.117845	0.018990	99
Es	1.909442	0.536003	-0.183301	99
Es	3.353069	1.136984	-1.623108	99
Es	2.618015	0.473679	-0.070131	99
Es	-2.708252	-0.940200	0.287771	99
Es	3.061003	0.369317	-0.653982	99
Es	-1.467420	0.785682	0.942713	99
Es	0.987562	0.883116	-0.948120	99
Es	-3.482944	-0.675775	0.477196	99
