45
Properties=species:S:1:pos:R:3:Z:I:1 energy=-288.11850269204507 field_type=dipole dipole="0.000000 0.000000 0.000000" charge=0
N	-2.752478	-0.363297	-0.146322	7
C	-1.321068	-0.674197	-0.175672	6
C	-0.480938	0.597273	-0.355062	6
C	1.007672	0.306483	-0.385322	6
C	1.655332	0.221853	-1.560482	6
C	1.758571	0.151613	0.853378	6
C	1.271631	0.223303	2.099178	6
H	-3.280578	-1.233907	-0.089022	1
H	-3.023498	0.076063	-1.025672	1
H	-1.127588	-1.372047	-0.998962	1
H	-1.058048	-1.186177	0.755858	1
H	-0.711788	1.329193	0.428878	1
H	-0.777208	1.085513	-1.294262	1
H	1.132242	0.342463	-2.503802	1
H	2.722131	0.027943	-1.621752	1
H	2.827082	-0.036797	0.749598	1
H	0.226072	0.408973	2.318248	1
H	1.932462	0.095753	2.951198	1
Es	-0.480889	0.597227	-0.355067	99
Es	-2.136225	-0.506521	-0.180321	99
Es	1.758591	0.151596	0.853271	99
Es	-2.752347	-0.363654	-0.146784	99
Es	-2.904379	-0.113980	-0.692734	99
Es	2.483032	0.023147	0.771270	99
Es	1.406618	0.575869	-0.953986	99
Es	-1.140672	-1.022130	0.461696	99
Es	1.445360	-0.127910	1.460246	99
Es	-2.834686	-0.149455	0.124530	99
Es	-0.681602	0.921057	-1.002665	99
Es	1.714856	0.137423	2.680187	99
Es	1.655379	0.221831	-1.560579	99
Es	1.285866	-0.056956	-0.971489	99
Es	0.269918	0.444521	-0.360003	99
Es	-1.321193	-0.674114	-0.175676	99
Es	1.368377	0.227041	0.243165	99
Es	-0.629293	1.084394	0.182255	99
Es	2.380437	0.088507	-1.604066	99
Es	1.302237	0.304165	-2.205196	99
Es	-0.886935	-0.034368	-0.262082	99
Es	1.271592	0.223311	2.099271	99
Es	-1.176700	-1.153059	-0.747741	99
Es	0.564123	0.348205	2.249041	99
Es	1.558997	0.507504	1.467492	99
Es	1.007614	0.306493	-0.385215	99
Es	-3.060042	-0.898934	-0.128509	99
45
Properties=species:S:1:pos:R:3:Z:I:1 energy=-288.11850269204507 field_type=dipole dipole="0.000000 0.000000 0.000000" charge=0
N	-2.752478	-0.363297	-0.146322	7
C	-1.321068	-0.674197	-0.175672	6
C	-0.480938	0.597273	-0.355062	6
C	1.007672	0.306483	-0.385322	6
C	1.655332	0.221853	-1.560482	6
C	1.758571	0.151613	0.853378	6
C	1.271631	0.223303	2.099178	6
H	-3.280578	-1.233907	-0.089022	1
H	-3.023498	0.076063	-1.025672	1
H	-1.127588	-1.372047	-0.998962	1
H	-1.058048	-1.186177	0.755858	1
H	-0.711788	1.329193	0.428878	1
H	-0.777208	1.085513	-1.294262	1
H	1.132242	0.342463	-2.503802	1
H	2.722131	0.027943	-1.621752	1
H	2.827082	-0.036797	0.749598	1
H	0.226072	0.408973	2.318248	1
H	1.932462	0.095753	2.951198	1
Es	-1.176636	-1.153074	-0.747770	99
Es	0.269850	0.444383	-0.359830	99
Es	-0.629371	1.084439	0.182143	99
Es	-0.681496	0.921009	-1.002648	99
Es	1.758593	0.151609	0.853271	99
Es	1.655381	0.221839	-1.560578	99
Es	-0.480889	0.597225	-0.355067	99
Es	1.445321	-0.128165	1.460207	99
Es	-0.886976	-0.034418	-0.261981	99
Es	0.564163	0.348261	2.249063	99
Es	1.302215	0.304128	-2.205230	99
Es	2.483081	0.023274	0.771334	99
Es	1.406603	0.575856	-0.953992	99
Es	-2.136341	-0.506574	-0.180507	99
Es	2.380458	0.088435	-1.604018	99
Es	-1.321192	-0.674114	-0.175674	99
Es	1.558891	0.507288	1.467499	99
Es	-1.140699	-1.022105	0.461600	99
Es	1.368543	0.227121	0.243066	99
Es	-3.060126	-0.898954	-0.128498	99
Es	-2.904347	-0.114070	-0.692638	99
Es	1.271599	0.223318	2.099260	99
Es	1.007603	0.306490	-0.385206	99
Es	1.285879	-0.056639	-0.971514	99
Es	-2.834589	-0.149268	0.124625	99
Es	1.714859	0.137566	2.680180	99
Es	-2.752344	-0.363655	-0.146786	99
45
Properties=species:S:1:pos:R:3:Z:I:1 energy=-288.11850269204507 field_type=dipole dipole="0.000000 0.000000 0.000000" charge=0
N	-2.752478	-0.363297	-0.146322	7
C	-1.321068	-0.674197	-0.175672	6
C	-0.480938	0.597273	-0.355062	6
C	1.007672	0.306483	-0.385322	6
C	1.655332	0.221853	-1.560482	6
C	1.758571	0.151613	0.853378	6
C	1.271631	0.223303	2.099178	6
H	-3.280578	-1.233907	-0.089022	1
H	-3.023498	0.076063	-1.025672	1
H	-1.127588	-1.372047	-0.998962	1
H	-1.058048	-1.186177	0.755858	1
H	-0.711788	1.329193	0.428878	1
H	-0.777208	1.085513	-1.294262	1
H	1.132242	0.342463	-2.503802	1
H	2.722131	0.027943	-1.621752	1
H	2.827082	-0.036797	0.749598	1
H	0.226072	0.408973	2.318248	1
H	1.932462	0.095753	2.951198	1
Es	1.559027	0.507393	1.467510	99
Es	0.564150	0.348209	2.249055	99
Es	-0.681554	0.921120	-1.002602	99
Es	-2.904498	-0.113904	-0.692679	99
Es	1.285920	-0.056418	-0.971519	99
Es	-2.135737	-0.506254	-0.179690	99
Es	-2.835009	-0.149980	0.123670	99
Es	1.445428	-0.128002	1.460279	99
Es	-2.752361	-0.363632	-0.146772	99
Es	1.368294	0.226928	0.243042	99
Es	-1.140680	-1.022144	0.461572	99
Es	1.655380	0.221845	-1.560576	99
Es	1.406757	0.575848	-0.953898	99
Es	1.007603	0.306492	-0.385206	99
Es	1.302214	0.304074	-2.205289	99
Es	1.714854	0.137498	2.680186	99
Es	2.483004	0.023191	0.771216	99
Es	-0.629274	1.084357	0.182191	99
Es	2.380473	0.088339	-1.603928	99
Es	1.758592	0.151601	0.853273	99
Es	-3.060188	-0.898768	-0.128336	99
Es	-1.321191	-0.674115	-0.175676	99
Es	1.271594	0.223315	2.099269	99
Es	-0.886925	-0.034470	-0.262037	99
Es	-0.480890	0.597227	-0.355067	99
Es	-1.176662	-1.153037	-0.747685	99
Es	0.269712	0.444493	-0.359993	99
45
Properties=species:S:1:pos:R:3:Z:I:1 energy=-288.11850269204507 field_type=dipole dipole="0.000000 0.000000 0.000000" charge=0
N	-2.752478	-0.363297	-0.146322	7
C	-1.321068	-0.674197	-0.175672	6
C	-0.480938	0.597273	-0.355062	6
C	1.007672	0.306483	-0.385322	6
C	1.655332	0.221853	-1.560482	6
C	1.758571	0.151613	0.853378	6
C	1.271631	0.223303	2.099178	6
H	-3.280578	-1.233907	-0.089022	1
H	-3.023498	0.076063	-1.025672	1
H	-1.127588	-1.372047	-0.998962	1
H	-1.058048	-1.186177	0.755858	1
H	-0.711788	1.329193	0.428878	1
H	-0.777208	1.085513	-1.294262	1
H	1.132242	0.342463	-2.503802	1
H	2.722131	0.027943	-1.621752	1
H	2.827082	-0.036797	0.749598	1
H	0.226072	0.408973	2.318248	1
H	1.932462	0.095753	2.951198	1
Es	-1.140692	-1.022145	0.461519	99
Es	1.368547	0.227042	0.243079	99
Es	1.714888	0.137430	2.680208	99
Es	0.564101	0.348181	2.249022	99
Es	1.271595	0.223308	2.099266	99
Es	-0.629216	1.084362	0.182149	99
Es	-1.176636	-1.153031	-0.747637	99
Es	1.445291	-0.127767	1.460198	99
Es	0.269734	0.444484	-0.359975	99
Es	-1.321187	-0.674115	-0.175676	99
Es	-2.834851	-0.149529	0.124898	99
Es	-3.059885	-0.898845	-0.128934	99
Es	-2.904441	-0.113895	-0.692510	99
Es	-2.752356	-0.363686	-0.146811	99
Es	1.007604	0.306492	-0.385205	99
Es	1.302184	0.304117	-2.205238	99
Es	-0.886954	-0.034417	-0.261972	99
Es	1.758592	0.151609	0.853274	99
Es	-2.136303	-0.506627	-0.180461	99
Es	2.483115	0.023054	0.771337	99
Es	-0.681563	0.921132	-1.002593	99
Es	1.558945	0.507394	1.467478	99
Es	-0.480890	0.597227	-0.355067	99
Es	1.285939	-0.056525	-0.971479	99
Es	1.655379	0.221830	-1.560578	99
Es	1.406588	0.575662	-0.953987	99
Es	2.380504	0.088463	-1.603995	99
45
Properties=species:S:1:pos:R:3:Z:I:1 energy=-288.11850269204507 field_type=dipole dipole="0.000000 0.000000 0.000000" charge=0
N	-2.752478	-0.363297	-0.146322	7
C	-1.321068	-0.674197	-0.175672	6
C	-0.480938	0.597273	-0.355062	6
C	1.007672	0.306483	-0.385322	6
C	1.655332	0.221853	-1.560482	6
C	1.758571	0.151613	0.853378	6
C	1.271631	0.223303	2.099178	6
H	-3.280578	-1.233907	-0.089022	1
H	-3.023498	0.076063	-1.025672	1
H	-1.127588	-1.372047	-0.998962	1
H	-1.058048	-1.186177	0.755858	1
H	-0.711788	1.329193	0.428878	1
H	-0.777208	1.085513	-1.294262	1
H	1.132242	0.342463	-2.503802	1
H	2.722131	0.027943	-1.621752	1
H	2.827082	-0.036797	0.749598	1
H	0.226072	0.408973	2.318248	1
H	1.932462	0.095753	2.951198	1
Es	1.758593	0.151609	0.853274	99
Es	-3.059987	-0.898728	-0.128811	99
Es	0.564106	0.348196	2.248979	99
Es	1.368500	0.226884	0.242953	99
Es	-2.135922	-0.506478	-0.179841	99
Es	-2.835048	-0.150157	0.124273	99
Es	1.271595	0.223312	2.099267	99
Es	2.483089	0.023092	0.771287	99
Es	1.302160	0.304087	-2.205263	99
Es	-0.629147	1.084354	0.182140	99
Es	1.285981	-0.056261	-0.971467	99
Es	1.007603	0.306496	-0.385206	99
Es	-2.904568	-0.113575	-0.692570	99
Es	-1.321190	-0.674117	-0.175676	99
Es	0.269537	0.444579	-0.360005	99
Es	-1.176664	-1.152927	-0.747719	99
Es	1.558991	0.507356	1.467499	99
Es	1.714851	0.137447	2.680240	99
Es	1.445387	-0.127778	1.460238	99
Es	-0.480890	0.597227	-0.355067	99
Es	1.655382	0.221839	-1.560578	99
Es	-1.140647	-1.022250	0.461410	99
Es	-2.752346	-0.363647	-0.146773	99
Es	2.380503	0.088373	-1.603966	99
Es	-0.886915	-0.034479	-0.261821	99
Es	-0.681620	0.921146	-1.002577	99
Es	1.406701	0.575604	-0.953911	99
45
Properties=species:S:1:pos:R:3:Z:I:1 energy=-288.11850269204507 field_type=dipole dipole="0.000000 0.000000 0.000000" charge=0
N	-2.752478	-0.363297	-0.146322	7
C	-1.321068	-0.674197	-0.175672	6
C	-0.480938	0.597273	-0.355062	6
C	1.007672	0.306483	-0.385322	6
C	1.655332	0.221853	-1.560482	6
C	1.758571	0.151613	0.853378	6
C	1.271631	0.223303	2.099178	6
H	-3.280578	-1.233907	-0.089022	1
H	-3.023498	0.076063	-1.025672	1
H	-1.127588	-1.372047	-0.998962	1
H	-1.058048	-1.186177	0.755858	1
H	-0.711788	1.329193	0.428878	1
H	-0.777208	1.085513	-1.294262	1
H	1.132242	0.342463	-2.503802	1
H	2.722131	0.027943	-1.621752	1
H	2.827082	-0.036797	0.749598	1
H	0.226072	0.408973	2.318248	1
H	1.932462	0.095753	2.951198	1
Es	0.269623	0.444519	-0.359981	99
Es	-1.176646	-1.153044	-0.747541	99
Es	-1.140654	-1.022120	0.461410	99
Es	1.007607	0.306487	-0.385207	99
Es	1.558988	0.507371	1.467481	99
Es	1.368468	0.226865	0.243011	99
Es	-0.681587	0.921268	-1.002559	99
Es	-2.834840	-0.149985	0.124300	99
Es	-2.136033	-0.506530	-0.180209	99
Es	-0.886900	-0.034493	-0.262013	99
Es	-3.060080	-0.898766	-0.128646	99
Es	-2.752336	-0.363647	-0.146771	99
Es	1.758591	0.151607	0.853273	99
Es	1.271597	0.223316	2.099271	99
Es	2.483099	0.023093	0.771305	99
Es	1.285968	-0.056229	-0.971491	99
Es	-0.629193	1.084218	0.182101	99
Es	-1.321190	-0.674116	-0.175675	99
Es	-0.480890	0.597228	-0.355067	99
Es	2.380563	0.088415	-1.603966	99
Es	1.406649	0.575635	-0.953934	99
Es	1.445390	-0.127584	1.460252	99
Es	-2.904656	-0.113657	-0.692445	99
Es	1.714885	0.137322	2.680247	99
Es	1.655379	0.221835	-1.560577	99
Es	1.302168	0.304028	-2.205224	99
Es	0.564060	0.348171	2.248965	99
45
Properties=species:S:1:pos:R:3:Z:I:1 energy=-288.11850269204507 field_type=dipole dipole="0.000000 0.000000 0.000000" charge=0
N	-2.752478	-0.363297	-0.146322	7
C	-1.321068	-0.674197	-0.175672	6
C	-0.480938	0.597273	-0.355062	6
C	1.007672	0.306483	-0.385322	6
C	1.655332	0.221853	-1.560482	6
C	1.758571	0.151613	0.853378	6
C	1.271631	0.223303	2.099178	6
H	-3.280578	-1.233907	-0.089022	1
H	-3.023498	0.076063	-1.025672	1
H	-1.127588	-1.372047	-0.998962	1
H	-1.058048	-1.186177	0.755858	1
H	-0.711788	1.329193	0.428878	1
H	-0.777208	1.085513	-1.294262	1
H	1.132242	0.342463	-2.503802	1
H	2.722131	0.027943	-1.621752	1
H	2.827082	-0.036797	0.749598	1
H	0.226072	0.408973	2.318248	1
H	1.932462	0.095753	2.951198	1
Es	-0.681560	0.921208	-1.002521	99
Es	1.714903	0.137564	2.680203	99
Es	-1.321189	-0.674117	-0.175675	99
Es	-1.176653	-1.152963	-0.747486	99
Es	-3.059810	-0.898915	-0.128842	99
Es	1.368529	0.226947	0.242966	99
Es	0.564046	0.348072	2.249008	99
Es	1.302123	0.304116	-2.205222	99
Es	-2.904829	-0.113649	-0.692311	99
Es	-2.752345	-0.363624	-0.146750	99
Es	1.655380	0.221838	-1.560578	99
Es	1.758591	0.151608	0.853271	99
Es	1.271595	0.223302	2.099265	99
Es	-0.629179	1.084299	0.182095	99
Es	1.406607	0.575420	-0.953952	99
Es	1.558902	0.507358	1.467455	99
Es	-0.886883	-0.034543	-0.262019	99
Es	-2.835107	-0.150197	0.124327	99
Es	-2.135869	-0.506191	-0.180261	99
Es	-0.480891	0.597228	-0.355067	99
Es	-1.140662	-1.022203	0.461439	99
Es	2.483101	0.023075	0.771315	99
Es	2.380565	0.088471	-1.604002	99
Es	1.445470	-0.127702	1.460280	99
Es	0.269541	0.444618	-0.360002	99
Es	1.286053	-0.056306	-0.971415	99
Es	1.007606	0.306492	-0.385209	99
45
Properties=species:S:1:pos:R:3:Z:I:1 energy=-288.11850269204507 field_type=dipole dipole="0.000000 0.000000 0.000000" charge=0
N	-2.752478	-0.363297	-0.146322	7
C	-1.321068	-0.674197	-0.175672	6
C	-0.480938	0.597273	-0.355062	6
C	1.007672	0.306483	-0.385322	6
C	1.655332	0.221853	-1.560482	6
C	1.758571	0.151613	0.853378	6
C	1.271631	0.223303	2.099178	6
H	-3.280578	-1.233907	-0.089022	1
H	-3.023498	0.076063	-1.025672	1
H	-1.127588	-1.372047	-0.998962	1
H	-1.058048	-1.186177	0.755858	1
H	-0.711788	1.329193	0.428878	1
H	-0.777208	1.085513	-1.294262	1
H	1.132242	0.342463	-2.503802	1
H	2.722131	0.027943	-1.621752	1
H	2.827082	-0.036797	0.749598	1
H	0.226072	0.408973	2.318248	1
H	1.932462	0.095753	2.951198	1
Es	1.302127	0.304126	-2.205240	99
Es	-0.480891	0.597228	-0.355067	99
Es	1.445321	-0.127651	1.460203	99
Es	-1.321189	-0.674118	-0.175675	99
Es	-1.140756	-1.022098	0.461349	99
Es	0.564110	0.348186	2.249004	99
Es	-2.904726	-0.113571	-0.692407	99
Es	-0.681540	0.921186	-1.002525	99
Es	0.269513	0.444671	-0.360002	99
Es	-2.135794	-0.506421	-0.180000	99
Es	-2.752342	-0.363637	-0.146766	99
Es	1.286110	-0.056273	-0.971374	99
Es	-2.835019	-0.150293	0.123913	99
Es	-3.060121	-0.898713	-0.128611	99
Es	2.483160	0.023116	0.771328	99
Es	-0.629210	1.084307	0.182041	99
Es	1.271596	0.223309	2.099265	99
Es	1.007604	0.306491	-0.385208	99
Es	1.558920	0.507222	1.467479	99
Es	1.758592	0.151607	0.853275	99
Es	1.406546	0.575299	-0.953988	99
Es	-0.886855	-0.034519	-0.261906	99
Es	2.380579	0.088532	-1.603974	99
Es	1.714921	0.137383	2.680240	99
Es	1.655380	0.221839	-1.560576	99
Es	1.368542	0.227063	0.242983	99
Es	-1.176545	-1.153066	-0.747453	99
45
Properties=species:S:1:pos:R:3:Z:I:1 energy=-288.11850269204507 field_type=dipole dipole="0.000000 0.000000 0.000000" charge=0
N	-2.752478	-0.363297	-0.146322	7
C	-1.321068	-0.674197	-0.175672	6
C	-0.480938	0.597273	-0.355062	6
C	1.007672	0.306483	-0.385322	6
C	1.655332	0.221853	-1.560482	6
C	1.758571	0.151613	0.853378	6
C	1.271631	0.223303	2.099178	6
H	-3.280578	-1.233907	-0.089022	1
H	-3.023498	0.076063	-1.025672	1
H	-1.127588	-1.372047	-0.998962	1
H	-1.058048	-1.186177	0.755858	1
H	-0.711788	1.329193	0.428878	1
H	-0.777208	1.085513	-1.294262	1
H	1.132242	0.342463	-2.503802	1
H	2.722131	0.027943	-1.621752	1
H	2.827082	-0.036797	0.749598	1
H	0.226072	0.408973	2.318248	1
H	1.932462	0.095753	2.951198	1
Es	-2.904750	-0.113699	-0.692352	99
Es	-0.681627	0.921291	-1.002417	99
Es	-1.176608	-1.152930	-0.747388	99
Es	2.380645	0.088420	-1.604007	99
Es	1.271595	0.223310	2.099272	99
Es	-3.060059	-0.898608	-0.128708	99
Es	1.368550	0.227041	0.243025	99
Es	1.302065	0.304055	-2.205179	99
Es	-1.140677	-1.022210	0.461332	99
Es	-0.629129	1.084211	0.182044	99
Es	1.758592	0.151607	0.853275	99
Es	1.558984	0.507268	1.467490	99
Es	0.564057	0.348142	2.248971	99
Es	-1.321187	-0.674124	-0.175676	99
Es	-2.835002	-0.150094	0.124256	99
Es	1.007606	0.306493	-0.385209	99
Es	1.406603	0.575279	-0.953945	99
Es	0.269481	0.444609	-0.360128	99
Es	1.445390	-0.127713	1.460235	99
Es	1.286143	-0.055990	-0.971383	99
Es	2.483172	0.023122	0.771247	99
Es	-2.752342	-0.363655	-0.146806	99
Es	-0.886888	-0.034504	-0.261979	99
Es	-2.135907	-0.506584	-0.180247	99
Es	1.655377	0.221833	-1.560573	99
Es	-0.480891	0.597228	-0.355067	99
Es	1.714838	0.137407	2.680228	99
45
Properties=species:S:1:pos:R:3:Z:I:1 energy=-288.11850269204507 field_type=dipole dipole="0.000000 0.000000 0.000000" charge=0
N	-2.752478	-0.363297	-0.146322	7
C	-1.321068	-0.674197	-0.175672	6
C	-0.480938	0.597273	-0.355062	6
C	1.007672	0.306483	-0.385322	6
C	1.655332	0.221853	-1.560482	6
C	1.758571	0.151613	0.853378	6
C	1.271631	0.223303	2.099178	6
H	-3.280578	-1.233907	-0.089022	1
H	-3.023498	0.076063	-1.025672	1
H	-1.127588	-1.372047	-0.998962	1
H	-1.058048	-1.186177	0.755858	1
H	-0.711788	1.329193	0.428878	1
H	-0.777208	1.085513	-1.294262	1
H	1.132242	0.342463	-2.503802	1
H	2.722131	0.027943	-1.621752	1
H	2.827082	-0.036797	0.749598	1
H	0.226072	0.408973	2.318248	1
H	1.932462	0.095753	2.951198	1
Es	-1.140706	-1.022129	0.461265	99
Es	1.302098	0.304139	-2.205244	99
Es	1.445377	-0.127653	1.460232	99
Es	2.483173	0.023161	0.771315	99
Es	-0.681529	0.921245	-1.002444	99
Es	1.714913	0.137437	2.680299	99
Es	-0.629192	1.084273	0.182065	99
Es	1.758591	0.151606	0.853276	99
Es	1.368579	0.227033	0.242924	99
Es	1.286147	-0.056067	-0.971368	99
Es	-0.886805	-0.034531	-0.262048	99
Es	0.564106	0.348161	2.248936	99
Es	1.007604	0.306481	-0.385211	99
Es	-2.752347	-0.363618	-0.146761	99
Es	1.271596	0.223311	2.099264	99
Es	2.380616	0.088496	-1.603957	99
Es	-1.176601	-1.153030	-0.747328	99
Es	1.655379	0.221840	-1.560575	99
Es	0.269403	0.444637	-0.360041	99
Es	-2.835240	-0.150847	0.123933	99
Es	1.558881	0.507159	1.467462	99
Es	-1.321188	-0.674118	-0.175675	99
Es	-2.135584	-0.506336	-0.179879	99
Es	-3.060042	-0.898641	-0.129007	99
Es	-2.904885	-0.113185	-0.692119	99
Es	1.406581	0.575150	-0.953940	99
Es	-0.480892	0.597229	-0.355067	99
45
Properties=species:S:1:pos:R:3:Z:I:1 energy=-288.11850269204507 field_type=dipole dipole="0.000000 0.000000 0.000000" charge=0
N	-2.752478	-0.363297	-0.146322	7
C	-1.321068	-0.674197	-0.175672	6
C	-0.480938	0.597273	-0.355062	6
C	1.007672	0.306483	-0.385322	6
C	1.655332	0.221853	-1.560482	6
C	1.758571	0.151613	0.853378	6
C	1.271631	0.223303	2.099178	6
H	-3.280578	-1.233907	-0.089022	1
H	-3.023498	0.076063	-1.025672	1
H	-1.127588	-1.372047	-0.998962	1
H	-1.058048	-1.186177	0.755858	1
H	-0.711788	1.329193	0.428878	1
H	-0.777208	1.085513	-1.294262	1
H	1.132242	0.342463	-2.503802	1
H	2.722131	0.027943	-1.621752	1
H	2.827082	-0.036797	0.749598	1
H	0.226072	0.408973	2.318248	1
H	1.932462	0.095753	2.951198	1
Es	1.558869	0.506891	1.467509	99
Es	1.286155	-0.055993	-0.971361	99
Es	1.368590	0.227131	0.242923	99
Es	1.302105	0.304115	-2.205254	99
Es	1.271594	0.223308	2.099266	99
Es	-0.629080	1.084320	0.181971	99
Es	-0.681534	0.921228	-1.002450	99
Es	-3.059842	-0.898837	-0.129051	99
Es	-2.752352	-0.363628	-0.146748	99
Es	-0.480890	0.597228	-0.355067	99
Es	1.007607	0.306495	-0.385212	99
Es	-2.135774	-0.506242	-0.180273	99
Es	1.714932	0.137489	2.680245	99
Es	-2.905125	-0.112980	-0.692030	99
Es	1.445382	-0.127661	1.460195	99
Es	-0.886848	-0.034548	-0.261852	99
Es	1.758593	0.151606	0.853270	99
Es	-1.140726	-1.022239	0.461235	99
Es	2.380621	0.088480	-1.603935	99
Es	0.564030	0.348260	2.248956	99
Es	0.269329	0.444641	-0.360099	99
Es	1.406586	0.575113	-0.953934	99
Es	-1.176586	-1.152923	-0.747325	99
Es	1.655379	0.221840	-1.560577	99
Es	-2.835027	-0.150955	0.124225	99
Es	-1.321188	-0.674118	-0.175675	99
Es	2.483233	0.023184	0.771354	99
45
Properties=species:S:1:pos:R:3:Z:I:1 energy=-288.11850269204507 field_type=dipole dipole="0.000000 0.000000 0.000000" charge=0
N	-2.752478	-0.363297	-0.146322	7
C	-1.321068	-0.674197	-0.175672	6
C	-0.480938	0.597273	-0.355062	6
C	1.007672	0.306483	-0.385322	6
C	1.655332	0.221853	-1.560482	6
C	1.758571	0.151613	0.853378	6
C	1.271631	0.223303	2.099178	6
H	-3.280578	-1.233907	-0.089022	1
H	-3.023498	0.076063	-1.025672	1
H	-1.127588	-1.372047	-0.998962	1
H	-1.058048	-1.186177	0.755858	1
H	-0.711788	1.329193	0.428878	1
H	-0.777208	1.085513	-1.294262	1
H	1.132242	0.342463	-2.503802	1
H	2.722131	0.027943	-1.621752	1
H	2.827082	-0.036797	0.749598	1
H	0.226072	0.408973	2.318248	1
H	1.932462	0.095753	2.951198	1
Es	-2.135647	-0.506429	-0.179937	99
Es	1.368532	0.227109	0.242888	99
Es	2.380648	0.088517	-1.603893	99
Es	-1.176604	-1.152861	-0.747375	99
Es	-0.681539	0.921200	-1.002468	99
Es	1.445452	-0.127526	1.460219	99
Es	-0.629064	1.084351	0.181988	99
Es	-2.752349	-0.363626	-0.146745	99
Es	-1.321189	-0.674119	-0.175676	99
Es	1.714868	0.137399	2.680213	99
Es	0.564031	0.348156	2.248985	99
Es	1.655379	0.221837	-1.560576	99
Es	-2.904838	-0.113549	-0.692250	99
Es	-2.835088	-0.150440	0.123697	99
Es	2.483199	0.023075	0.771303	99
Es	0.269194	0.444752	-0.360120	99
Es	1.559001	0.507103	1.467515	99
Es	1.271596	0.223308	2.099266	99
Es	-0.886762	-0.034613	-0.261753	99
Es	-0.480893	0.597232	-0.355067	99
Es	1.302061	0.304136	-2.205292	99
Es	-3.060206	-0.898599	-0.128595	99
Es	-1.140727	-1.022316	0.461169	99
Es	1.007608	0.306502	-0.385212	99
Es	1.286227	-0.055915	-0.971318	99
Es	1.406557	0.574916	-0.953945	99
Es	1.758583	0.151605	0.853288	99
45
Properties=species:S:1:pos:R:3:Z:I:1 energy=-288.11850269204507 field_type=dipole dipole="0.000000 0.000000 0.000000" charge=0
N	-2.752478	-0.363297	-0.146322	7
C	-1.321068	-0.674197	-0.175672	6
C	-0.480938	0.597273	-0.355062	6
C	1.007672	0.306483	-0.385322	6
C	1.655332	0.221853	-1.560482	6
C	1.758571	0.151613	0.853378	6
C	1.271631	0.223303	2.099178	6
H	-3.280578	-1.233907	-0.089022	1
H	-3.023498	0.076063	-1.025672	1
H	-1.127588	-1.372047	-0.998962	1
H	-1.058048	-1.186177	0.755858	1
H	-0.711788	1.329193	0.428878	1
H	-0.777208	1.085513	-1.294262	1
H	1.132242	0.342463	-2.503802	1
H	2.722131	0.027943	-1.621752	1
H	2.827082	-0.036797	0.749598	1
H	0.226072	0.408973	2.318248	1
H	1.932462	0.095753	2.951198	1
Es	-2.904827	-0.113420	-0.692251	99
Es	-1.176586	-1.152949	-0.747252	99
Es	-3.060451	-0.898506	-0.128387	99
Es	-0.480891	0.597229	-0.355067	99
Es	1.655379	0.221840	-1.560575	99
Es	1.714895	0.137384	2.680273	99
Es	1.368545	0.227186	0.242883	99
Es	-2.834921	-0.150577	0.123361	99
Es	-1.321188	-0.674118	-0.175675	99
Es	1.271595	0.223306	2.099265	99
Es	-0.886798	-0.034626	-0.261930	99
Es	-1.140707	-1.022205	0.461148	99
Es	1.406546	0.574989	-0.953968	99
Es	-0.681490	0.921246	-1.002386	99
Es	0.269261	0.444746	-0.360118	99
Es	1.302081	0.304081	-2.205269	99
Es	1.558984	0.507009	1.467508	99
Es	1.007605	0.306489	-0.385207	99
Es	1.445374	-0.127502	1.460221	99
Es	0.564010	0.348189	2.248913	99
Es	1.286300	-0.055954	-0.971273	99
Es	2.483203	0.023076	0.771333	99
Es	2.380652	0.088529	-1.603906	99
Es	1.758590	0.151603	0.853277	99
Es	-0.629128	1.084304	0.181952	99
Es	-2.752360	-0.363640	-0.146768	99
Es	-2.135642	-0.506505	-0.179793	99
45
Properties=species:S:1:pos:R:3:Z:I:1 energy=-288.11850269204507 field_type=dipole dipole="0.000000 0.000000 0.000000" charge=0
N	-2.752478	-0.363297	-0.146322	7
C	-1.321068	-0.674197	-0.175672	6
C	-0.480938	0.597273	-0.355062	6
C	1.007672	0.306483	-0.385322	6
C	1.655332	0.221853	-1.560482	6
C	1.758571	0.151613	0.853378	6
C	1.271631	0.223303	2.099178	6
H	-3.280578	-1.233907	-0.089022	1
H	-3.023498	0.076063	-1.025672	1
H	-1.127588	-1.372047	-0.998962	1
H	-1.058048	-1.186177	0.755858	1
H	-0.711788	1.329193	0.428878	1
H	-0.777208	1.085513	-1.294262	1
H	1.132242	0.342463	-2.503802	1
H	2.722131	0.027943	-1.621752	1
H	2.827082	-0.036797	0.749598	1
H	0.226072	0.408973	2.318248	1
H	1.932462	0.095753	2.951198	1
Es	-0.480893	0.597229	-0.355068	99
Es	-0.629133	1.084235	0.181956	99
Es	-1.176483	-1.152921	-0.747175	99
Es	-2.135662	-0.506539	-0.179906	99
Es	1.286258	-0.055858	-0.971305	99
Es	1.655380	0.221846	-1.560574	99
Es	-2.835287	-0.150478	0.123710	99
Es	-1.140684	-1.022160	0.461104	99
Es	0.564013	0.348192	2.248942	99
Es	1.758590	0.151606	0.853278	99
Es	1.302057	0.304119	-2.205252	99
Es	-2.752353	-0.363639	-0.146759	99
Es	1.007607	0.306494	-0.385211	99
Es	-2.904810	-0.113575	-0.692146	99
Es	2.380684	0.088531	-1.603915	99
Es	1.445432	-0.127478	1.460235	99
Es	-0.681461	0.921325	-1.002321	99
Es	1.271595	0.223308	2.099265	99
Es	1.368591	0.227073	0.242835	99
Es	1.406545	0.574862	-0.953944	99
Es	1.714896	0.137417	2.680249	99
Es	1.558939	0.507014	1.467487	99
Es	-3.060174	-0.898562	-0.128777	99
Es	2.483225	0.023102	0.771351	99
Es	0.269220	0.444787	-0.360083	99
Es	-1.321183	-0.674121	-0.175677	99
Es	-0.886877	-0.034604	-0.261988	99
45
Properties=species:S:1:pos:R:3:Z:I:1 energy=-288.11850269204507 field_type=dipole dipole="0.000000 0.000000 0.000000" charge=0
N	-2.752478	-0.363297	-0.146322	7
C	-1.321068	-0.674197	-0.175672	6
C	-0.480938	0.597273	-0.355062	6
C	1.007672	0.306483	-0.385322	6
C	1.655332	0.221853	-1.560482	6
C	1.758571	0.151613	0.853378	6
C	1.271631	0.223303	2.099178	6
H	-3.280578	-1.233907	-0.089022	1
H	-3.023498	0.076063	-1.025672	1
H	-1.127588	-1.372047	-0.998962	1
H	-1.058048	-1.186177	0.755858	1
H	-0.711788	1.329193	0.428878	1
H	-0.777208	1.085513	-1.294262	1
H	1.132242	0.342463	-2.503802	1
H	2.722131	0.027943	-1.621752	1
H	2.827082	-0.036797	0.749598	1
H	0.226072	0.408973	2.318248	1
H	1.932462	0.095753	2.951198	1
Es	1.445431	-0.127352	1.460232	99
Es	1.714939	0.137373	2.680256	99
Es	1.271596	0.223307	2.099264	99
Es	0.269123	0.444726	-0.360149	99
Es	-0.480891	0.597229	-0.355067	99
Es	2.483252	0.023099	0.771360	99
Es	1.655378	0.221839	-1.560574	99
Es	1.558899	0.506990	1.467476	99
Es	1.286332	-0.055680	-0.971267	99
Es	-2.752367	-0.363615	-0.146761	99
Es	-0.629111	1.084275	0.181937	99
Es	2.380685	0.088463	-1.603908	99
Es	1.758590	0.151607	0.853276	99
Es	-0.886763	-0.034658	-0.261943	99
Es	0.563989	0.348160	2.248937	99
Es	-1.321191	-0.674117	-0.175676	99
Es	-0.681486	0.921286	-1.002331	99
Es	-1.176577	-1.152938	-0.747188	99
Es	-2.834823	-0.151157	0.122975	99
Es	1.406544	0.574827	-0.953950	99
Es	1.007606	0.306493	-0.385203	99
Es	1.368609	0.227080	0.242842	99
Es	-2.905040	-0.113009	-0.691994	99
Es	1.302035	0.304106	-2.205261	99
Es	-2.135446	-0.506361	-0.179700	99
Es	-3.060574	-0.898556	-0.128350	99
Es	-1.140707	-1.022211	0.461077	99
45
Properties=species:S:1:pos:R:3:Z:I:1 energy=-288.11850269204507 field_type=dipole dipole="0.000000 0.000000 0.000000" charge=0
N	-2.752478	-0.363297	-0.146322	7
C	-1.321068	-0.674197	-0.175672	6
C	-0.480938	0.597273	-0.355062	6
C	1.007672	0.306483	-0.385322	6
C	1.655332	0.221853	-1.560482	6
C	1.758571	0.151613	0.853378	6
C	1.271631	0.223303	2.099178	6
H	-3.280578	-1.233907	-0.089022	1
H	-3.023498	0.076063	-1.025672	1
H	-1.127588	-1.372047	-0.998962	1
H	-1.058048	-1.186177	0.755858	1
H	-0.711788	1.329193	0.428878	1
H	-0.777208	1.085513	-1.294262	1
H	1.132242	0.342463	-2.503802	1
H	2.722131	0.027943	-1.621752	1
H	2.827082	-0.036797	0.749598	1
H	0.226072	0.408973	2.318248	1
H	1.932462	0.095753	2.951198	1
Es	1.445444	-0.127371	1.460230	99
Es	-3.060364	-0.898413	-0.128563	99
Es	-0.681483	0.921307	-1.002284	99
Es	1.714902	0.137372	2.680269	99
Es	0.269075	0.444776	-0.360194	99
Es	1.406534	0.574727	-0.953934	99
Es	-0.886789	-0.034674	-0.262008	99
Es	-0.480891	0.597228	-0.355067	99
Es	-1.321184	-0.674122	-0.175676	99
Es	2.483274	0.023125	0.771366	99
Es	-2.904952	-0.113407	-0.692085	99
Es	1.368624	0.227090	0.242812	99
Es	1.007608	0.306490	-0.385217	99
Es	-2.834987	-0.150594	0.123601	99
Es	-1.176600	-1.152982	-0.747067	99
Es	-1.140695	-1.022157	0.461066	99
Es	1.655378	0.221840	-1.560573	99
Es	1.302065	0.304140	-2.205270	99
Es	1.271593	0.223308	2.099273	99
Es	1.758591	0.151607	0.853277	99
Es	1.558922	0.506923	1.467481	99
Es	-2.135632	-0.506657	-0.180019	99
Es	-0.629038	1.084285	0.181904	99
Es	-2.752357	-0.363644	-0.146773	99
Es	2.380685	0.088482	-1.603884	99
Es	0.563992	0.348209	2.248908	99
Es	1.286319	-0.055684	-0.971263	99
45
Properties=species:S:1:pos:R:3:Z:I:1 energy=-288.11850269204507 field_type=dipole dipole="0.000000 0.000000 0.000000" charge=0
N	-2.752478	-0.363297	-0.146322	7
C	-1.321068	-0.674197	-0.175672	6
C	-0.480938	0.597273	-0.355062	6
C	1.007672	0.306483	-0.385322	6
C	1.655332	0.221853	-1.560482	6
C	1.758571	0.151613	0.853378	6
C	1.271631	0.223303	2.099178	6
H	-3.280578	-1.233907	-0.089022	1
H	-3.023498	0.076063	-1.025672	1
H	-1.127588	-1.372047	-0.998962	1
H	-1.058048	-1.186177	0.755858	1
H	-0.711788	1.329193	0.428878	1
H	-0.777208	1.085513	-1.294262	1
H	1.132242	0.342463	-2.503802	1
H	2.722131	0.027943	-1.621752	1
H	2.827082	-0.036797	0.749598	1
H	0.226072	0.408973	2.318248	1
H	1.932462	0.095753	2.951198	1
Es	1.406548	0.574594	-0.953919	99
Es	-2.905271	-0.113007	-0.692136	99
Es	-1.140699	-1.022254	0.461045	99
Es	1.007607	0.306490	-0.385214	99
Es	-0.629088	1.084306	0.181848	99
Es	-0.681433	0.921267	-1.002355	99
Es	-3.060414	-0.898550	-0.128118	99
Es	0.563995	0.348175	2.248936	99
Es	-2.135201	-0.506063	-0.179336	99
Es	1.302015	0.304154	-2.205283	99
Es	1.558891	0.506919	1.467473	99
Es	1.714941	0.137376	2.680257	99
Es	-1.176590	-1.152891	-0.747110	99
Es	1.368655	0.227091	0.242774	99
Es	-1.321186	-0.674120	-0.175676	99
Es	1.271597	0.223308	2.099264	99
Es	-0.480892	0.597230	-0.355068	99
Es	2.380691	0.088540	-1.603897	99
Es	2.483265	0.023137	0.771358	99
Es	-2.752374	-0.363561	-0.146662	99
Es	0.269030	0.444844	-0.360068	99
Es	1.445436	-0.127373	1.460231	99
Es	-0.886784	-0.034644	-0.261909	99
Es	1.286358	-0.055667	-0.971242	99
Es	1.655377	0.221836	-1.560573	99
Es	1.758592	0.151609	0.853282	99
Es	-2.835032	-0.151540	0.122406	99
45
Properties=species:S:1:pos:R:3:Z:I:1 energy=-288.11850269204507 field_type=dipole dipole="0.000000 0.000000 0.000000" charge=0
N	-2.752478	-0.363297	-0.146322	7
C	-1.321068	-0.674197	-0.175672	6
C	-0.480938	0.597273	-0.355062	6
C	1.007672	0.306483	-0.385322	6
C	1.655332	0.221853	-1.560482	6
C	1.758571	0.151613	0.853378	6
C	1.271631	0.223303	2.099178	6
H	-3.280578	-1.233907	-0.089022	1
H	-3.023498	0.076063	-1.025672	1
H	-1.127588	-1.372047	-0.998962	1
H	-1.058048	-1.186177	0.755858	1
H	-0.711788	1.329193	0.428878	1
H	-0.777208	1.085513	-1.294262	1
H	1.132242	0.342463	-2.503802	1
H	2.722131	0.027943	-1.621752	1
H	2.827082	-0.036797	0.749598	1
H	0.226072	0.408973	2.318248	1
H	1.932462	0.095753	2.951198	1
Es	-0.629073	1.084122	0.181912	99
Es	1.368612	0.227161	0.242737	99
Es	1.271594	0.223298	2.099262	99
Es	-3.060941	-0.898331	-0.127592	99
Es	1.714922	0.137387	2.680281	99
Es	-1.140737	-1.022161	0.460969	99
Es	-1.176564	-1.152989	-0.747069	99
Es	2.483259	0.023147	0.771351	99
Es	-2.752355	-0.363607	-0.146738	99
Es	1.286402	-0.055567	-0.971214	99
Es	2.380774	0.088562	-1.603838	99
Es	1.302025	0.304176	-2.205281	99
Es	-0.480891	0.597230	-0.355067	99
Es	0.268971	0.444922	-0.360191	99
Es	1.558946	0.506807	1.467517	99
Es	-2.135473	-0.506641	-0.179752	99
Es	-2.904887	-0.113807	-0.692253	99
Es	0.563949	0.348212	2.248881	99
Es	1.445487	-0.127356	1.460242	99
Es	1.406511	0.574435	-0.953929	99
Es	-1.321182	-0.674118	-0.175674	99
Es	1.758590	0.151609	0.853280	99
Es	-0.886735	-0.034730	-0.262014	99
Es	-2.834673	-0.150341	0.122510	99
Es	1.007606	0.306490	-0.385213	99
Es	-0.681481	0.921456	-1.002233	99
Es	1.655377	0.221839	-1.560573	99
