38
Properties=species:S:1:pos:R:3:Z:I:1 energy=-301.80079715992474 field_type=dipole dipole="0.000000 0.000000 0.000000" charge=0
N	-1.613431	0.517817	0.082657	7
C	-0.231681	0.407447	0.061277	6
C	0.328219	-0.930763	-0.125473	6
C	-0.336791	-2.001953	-0.582463	6
C	0.551489	1.491387	0.231857	6
C	1.957489	1.491387	0.231857	6
N	3.108499	1.491387	0.231857	7
H	-1.963591	1.367427	0.516177	1
H	-2.068411	-0.309893	0.462057	1
H	1.383539	-1.071983	0.106847	1
H	-1.377871	-1.961613	-0.883613	1
H	0.172749	-2.953753	-0.698523	1
H	0.089789	2.463107	0.365487	1
Es	2.590982	1.522067	0.537059	99
Es	0.551638	1.491424	0.231813	99
Es	-1.808078	1.019907	0.354630	99
Es	2.582570	1.735747	0.049416	99
Es	0.255001	1.049360	-0.155271	99
Es	-1.606334	0.525566	-0.220416	99
Es	0.033329	-0.258548	-0.031524	99
Es	-1.011899	0.470033	0.138208	99
Es	0.069870	-1.348714	-0.637443	99
Es	3.478597	1.490913	0.231399	99
Es	-1.870573	0.030382	0.322024	99
Es	0.249794	2.142625	0.324502	99
Es	1.957137	1.491391	0.231857	99
Es	-1.613077	0.517794	0.083171	99
Es	0.272093	0.970814	0.472853	99
Es	1.030159	-1.008117	0.035420	99
Es	-0.231859	0.407358	0.061247	99
Es	-0.096662	-1.512665	-0.038150	99
Es	2.576429	1.206610	0.111033	99
Es	0.328221	-0.930634	-0.125440	99
Es	0.000114	-2.643252	-0.660679	99
Es	-1.041550	-1.978125	-0.779062	99
Es	1.285780	1.481940	0.226748	99
Es	-0.336843	-2.002014	-0.582497	99
Es	3.108059	1.491386	0.231859	99
38
Properties=species:S:1:pos:R:3:Z:I:1 energy=-301.80079715992474 field_type=dipole dipole="0.000000 0.000000 0.000000" charge=0
N	-1.613431	0.517817	0.082657	7
C	-0.231681	0.407447	0.061277	6
C	0.328219	-0.930763	-0.125473	6
C	-0.336791	-2.001953	-0.582463	6
C	0.551489	1.491387	0.231857	6
C	1.957489	1.491387	0.231857	6
N	3.108499	1.491387	0.231857	7
H	-1.963591	1.367427	0.516177	1
H	-2.068411	-0.309893	0.462057	1
H	1.383539	-1.071983	0.106847	1
H	-1.377871	-1.961613	-0.883613	1
H	0.172749	-2.953753	-0.698523	1
H	0.089789	2.463107	0.365487	1
Es	3.108059	1.491387	0.231859	99
Es	0.272007	0.970933	0.472827	99
Es	0.254942	1.049589	-0.155300	99
Es	2.573113	1.800916	0.233765	99
Es	0.033408	-0.258608	-0.031403	99
Es	0.000091	-2.643270	-0.660632	99
Es	-1.012410	0.469893	0.139234	99
Es	0.551642	1.491425	0.231836	99
Es	1.285706	1.481304	0.226552	99
Es	-0.336846	-2.002017	-0.582490	99
Es	0.069779	-1.348676	-0.637390	99
Es	-1.605774	0.525859	-0.221414	99
Es	-1.870703	0.030423	0.321704	99
Es	-0.231860	0.407357	0.061248	99
Es	-1.041512	-1.978097	-0.779164	99
Es	0.249879	2.142534	0.324588	99
Es	-1.807976	1.019733	0.354937	99
Es	2.589797	1.329131	0.495614	99
Es	1.030235	-1.008169	0.035374	99
Es	-0.096716	-1.512597	-0.038184	99
Es	1.957126	1.491389	0.231856	99
Es	3.478238	1.492386	0.232386	99
Es	0.328221	-0.930633	-0.125433	99
Es	2.587588	1.333275	-0.032780	99
Es	-1.613134	0.517783	0.083166	99
38
Properties=species:S:1:pos:R:3:Z:I:1 energy=-301.80079715992474 field_type=dipole dipole="0.000000 0.000000 0.000000" charge=0
N	-1.613431	0.517817	0.082657	7
C	-0.231681	0.407447	0.061277	6
C	0.328219	-0.930763	-0.125473	6
C	-0.336791	-2.001953	-0.582463	6
C	0.551489	1.491387	0.231857	6
C	1.957489	1.491387	0.231857	6
N	3.108499	1.491387	0.231857	7
H	-1.963591	1.367427	0.516177	1
H	-2.068411	-0.309893	0.462057	1
H	1.383539	-1.071983	0.106847	1
H	-1.377871	-1.961613	-0.883613	1
H	0.172749	-2.953753	-0.698523	1
H	0.089789	2.463107	0.365487	1
Es	-0.231857	0.407359	0.061251	99
Es	0.254794	1.049195	-0.155380	99
Es	3.108059	1.491387	0.231859	99
Es	-1.605571	0.526070	-0.221272	99
Es	-1.041606	-1.978099	-0.779176	99
Es	1.030094	-1.008041	0.035269	99
Es	0.272344	0.970888	0.472809	99
Es	2.583187	1.732305	0.043702	99
Es	2.590894	1.528789	0.536222	99
Es	0.069953	-1.348967	-0.637363	99
Es	0.000105	-2.643278	-0.660444	99
Es	3.478277	1.490470	0.231635	99
Es	2.576242	1.203836	0.117494	99
Es	-0.336846	-2.002016	-0.582480	99
Es	0.033404	-0.258474	-0.031599	99
Es	0.249836	2.142594	0.324644	99
Es	0.551642	1.491425	0.231832	99
Es	1.285656	1.481981	0.226589	99
Es	-1.871010	0.030295	0.321492	99
Es	-1.012453	0.469901	0.139306	99
Es	-0.096580	-1.512587	-0.038158	99
Es	-1.807882	1.019679	0.354916	99
Es	0.328221	-0.930629	-0.125435	99
Es	1.957119	1.491385	0.231860	99
Es	-1.613123	0.517783	0.083184	99
38
Properties=species:S:1:pos:R:3:Z:I:1 energy=-301.80079715992474 field_type=dipole dipole="0.000000 0.000000 0.000000" charge=0
N	-1.613431	0.517817	0.082657	7
C	-0.231681	0.407447	0.061277	6
C	0.328219	-0.930763	-0.125473	6
C	-0.336791	-2.001953	-0.582463	6
C	0.551489	1.491387	0.231857	6
C	1.957489	1.491387	0.231857	6
N	3.108499	1.491387	0.231857	7
H	-1.963591	1.367427	0.516177	1
H	-2.068411	-0.309893	0.462057	1
H	1.383539	-1.071983	0.106847	1
H	-1.377871	-1.961613	-0.883613	1
H	0.172749	-2.953753	-0.698523	1
H	0.089789	2.463107	0.365487	1
Es	0.551633	1.491408	0.231871	99
Es	-0.096737	-1.512580	-0.038296	99
Es	2.586481	1.272318	0.453263	99
Es	0.272272	0.971118	0.472719	99
Es	1.957122	1.491383	0.231862	99
Es	0.328219	-0.930637	-0.125436	99
Es	-1.012653	0.469896	0.139522	99
Es	0.033531	-0.258651	-0.031567	99
Es	-1.605324	0.526139	-0.221408	99
Es	0.249887	2.142585	0.324587	99
Es	1.030240	-1.008152	0.035430	99
Es	-1.871029	0.030257	0.321367	99
Es	3.108066	1.491388	0.231859	99
Es	0.069787	-1.348693	-0.637345	99
Es	3.477665	1.492521	0.232914	99
Es	2.591565	1.397362	-0.061302	99
Es	-0.336846	-2.002017	-0.582491	99
Es	0.000127	-2.643297	-0.660581	99
Es	1.285569	1.481405	0.226439	99
Es	-0.231859	0.407358	0.061255	99
Es	0.254769	1.049287	-0.155367	99
Es	-1.041582	-1.978088	-0.779081	99
Es	-1.807865	1.019721	0.355035	99
Es	-1.613181	0.517787	0.083126	99
Es	2.573044	1.793434	0.304380	99
38
Properties=species:S:1:pos:R:3:Z:I:1 energy=-301.80079715992474 field_type=dipole dipole="0.000000 0.000000 0.000000" charge=0
N	-1.613431	0.517817	0.082657	7
C	-0.231681	0.407447	0.061277	6
C	0.328219	-0.930763	-0.125473	6
C	-0.336791	-2.001953	-0.582463	6
C	0.551489	1.491387	0.231857	6
C	1.957489	1.491387	0.231857	6
N	3.108499	1.491387	0.231857	7
H	-1.963591	1.367427	0.516177	1
H	-2.068411	-0.309893	0.462057	1
H	1.383539	-1.071983	0.106847	1
H	-1.377871	-1.961613	-0.883613	1
H	0.172749	-2.953753	-0.698523	1
H	0.089789	2.463107	0.365487	1
Es	0.272114	0.970770	0.472751	99
Es	2.585083	1.254110	0.434224	99
Es	-0.336845	-2.002011	-0.582487	99
Es	0.328220	-0.930640	-0.125436	99
Es	2.592897	1.422945	-0.068864	99
Es	-1.605839	0.526373	-0.221429	99
Es	-1.041621	-1.978090	-0.779090	99
Es	1.030197	-1.008182	0.035415	99
Es	0.255010	1.049536	-0.155474	99
Es	0.249924	2.142590	0.324807	99
Es	-0.231859	0.407360	0.061251	99
Es	1.957126	1.491370	0.231851	99
Es	-0.096625	-1.512564	-0.038433	99
Es	-1.870987	0.030265	0.321373	99
Es	2.573667	1.786399	0.330429	99
Es	0.033559	-0.258607	-0.031391	99
Es	-1.012481	0.469913	0.139297	99
Es	3.108062	1.491387	0.231853	99
Es	1.285412	1.481412	0.226257	99
Es	0.000151	-2.643286	-0.660561	99
Es	-1.807740	1.019451	0.355264	99
Es	0.551634	1.491417	0.231837	99
Es	3.477125	1.492265	0.233537	99
Es	0.069758	-1.348709	-0.637391	99
Es	-1.613045	0.517776	0.083165	99
38
Properties=species:S:1:pos:R:3:Z:I:1 energy=-301.80079715992474 field_type=dipole dipole="0.000000 0.000000 0.000000" charge=0
N	-1.613431	0.517817	0.082657	7
C	-0.231681	0.407447	0.061277	6
C	0.328219	-0.930763	-0.125473	6
C	-0.336791	-2.001953	-0.582463	6
C	0.551489	1.491387	0.231857	6
C	1.957489	1.491387	0.231857	6
N	3.108499	1.491387	0.231857	7
H	-1.963591	1.367427	0.516177	1
H	-2.068411	-0.309893	0.462057	1
H	1.383539	-1.071983	0.106847	1
H	-1.377871	-1.961613	-0.883613	1
H	0.172749	-2.953753	-0.698523	1
H	0.089789	2.463107	0.365487	1
Es	-1.808167	1.019515	0.355035	99
Es	-1.871974	0.029898	0.319912	99
Es	0.000107	-2.643305	-0.660513	99
Es	0.328217	-0.930640	-0.125437	99
Es	0.069859	-1.348612	-0.637437	99
Es	-0.336842	-2.002012	-0.582487	99
Es	0.033661	-0.258593	-0.031491	99
Es	1.030183	-1.008189	0.035478	99
Es	1.285288	1.481400	0.226192	99
Es	-1.613079	0.517774	0.083199	99
Es	0.272853	0.971353	0.473027	99
Es	-1.041634	-1.978077	-0.779047	99
Es	3.108047	1.491374	0.231859	99
Es	-0.231855	0.407359	0.061252	99
Es	2.585715	1.261406	0.442489	99
Es	0.250007	2.142621	0.324632	99
Es	3.477153	1.492319	0.233394	99
Es	0.551637	1.491419	0.231843	99
Es	1.957119	1.491386	0.231861	99
Es	-0.096734	-1.512635	-0.038457	99
Es	2.592468	1.412725	-0.066512	99
Es	-1.013346	0.469726	0.141543	99
Es	-1.603546	0.526857	-0.222036	99
Es	0.254265	1.048886	-0.155510	99
Es	2.573500	1.789297	0.319966	99
38
Properties=species:S:1:pos:R:3:Z:I:1 energy=-301.80079715992474 field_type=dipole dipole="0.000000 0.000000 0.000000" charge=0
N	-1.613431	0.517817	0.082657	7
C	-0.231681	0.407447	0.061277	6
C	0.328219	-0.930763	-0.125473	6
C	-0.336791	-2.001953	-0.582463	6
C	0.551489	1.491387	0.231857	6
C	1.957489	1.491387	0.231857	6
N	3.108499	1.491387	0.231857	7
H	-1.963591	1.367427	0.516177	1
H	-2.068411	-0.309893	0.462057	1
H	1.383539	-1.071983	0.106847	1
H	-1.377871	-1.961613	-0.883613	1
H	0.172749	-2.953753	-0.698523	1
H	0.089789	2.463107	0.365487	1
Es	0.254410	1.048912	-0.155639	99
Es	2.591601	1.517997	0.537908	99
Es	0.272758	0.971046	0.473012	99
Es	2.576917	1.207094	0.107239	99
Es	0.551634	1.491418	0.231832	99
Es	0.250065	2.142639	0.324720	99
Es	0.033675	-0.258594	-0.031555	99
Es	-1.871577	0.030079	0.320659	99
Es	-0.096675	-1.512567	-0.038416	99
Es	0.000138	-2.643326	-0.660547	99
Es	1.957111	1.491381	0.231842	99
Es	1.285290	1.481942	0.226727	99
Es	-1.613123	0.517795	0.083132	99
Es	-1.808081	1.019535	0.354867	99
Es	0.069790	-1.348751	-0.637364	99
Es	-1.012998	0.469889	0.140814	99
Es	2.582737	1.739797	0.052197	99
Es	3.477395	1.490612	0.231579	99
Es	-1.604334	0.526493	-0.221812	99
Es	1.030204	-1.008172	0.035425	99
Es	-0.231858	0.407360	0.061249	99
Es	-1.041616	-1.978067	-0.779049	99
Es	-0.336840	-2.002008	-0.582490	99
Es	3.108059	1.491386	0.231859	99
Es	0.328218	-0.930638	-0.125432	99
38
Properties=species:S:1:pos:R:3:Z:I:1 energy=-301.80079715992474 field_type=dipole dipole="0.000000 0.000000 0.000000" charge=0
N	-1.613431	0.517817	0.082657	7
C	-0.231681	0.407447	0.061277	6
C	0.328219	-0.930763	-0.125473	6
C	-0.336791	-2.001953	-0.582463	6
C	0.551489	1.491387	0.231857	6
C	1.957489	1.491387	0.231857	6
N	3.108499	1.491387	0.231857	7
H	-1.963591	1.367427	0.516177	1
H	-2.068411	-0.309893	0.462057	1
H	1.383539	-1.071983	0.106847	1
H	-1.377871	-1.961613	-0.883613	1
H	0.172749	-2.953753	-0.698523	1
H	0.089789	2.463107	0.365487	1
Es	-1.041639	-1.978076	-0.779079	99
Es	0.069792	-1.348749	-0.637349	99
Es	-1.612978	0.517781	0.083192	99
Es	0.250051	2.142725	0.324715	99
Es	0.328220	-0.930637	-0.125442	99
Es	-1.871340	0.030207	0.320987	99
Es	-1.808057	1.019530	0.354839	99
Es	1.030217	-1.008099	0.035435	99
Es	0.551642	1.491426	0.231831	99
Es	1.285166	1.481969	0.226681	99
Es	3.477115	1.490917	0.231476	99
Es	-1.604653	0.526339	-0.222148	99
Es	0.254281	1.048630	-0.155678	99
Es	3.108060	1.491387	0.231859	99
Es	0.033636	-0.258683	-0.031389	99
Es	0.000164	-2.643311	-0.660524	99
Es	-0.336844	-2.002012	-0.582488	99
Es	-0.096632	-1.512593	-0.038479	99
Es	2.591804	1.515365	0.538365	99
Es	2.577145	1.207733	0.105070	99
Es	-1.013124	0.469997	0.140820	99
Es	2.582573	1.741458	0.053998	99
Es	-0.231853	0.407360	0.061253	99
Es	0.273033	0.971199	0.472947	99
Es	1.957120	1.491388	0.231863	99
38
Properties=species:S:1:pos:R:3:Z:I:1 energy=-301.80079715992474 field_type=dipole dipole="0.000000 0.000000 0.000000" charge=0
N	-1.613431	0.517817	0.082657	7
C	-0.231681	0.407447	0.061277	6
C	0.328219	-0.930763	-0.125473	6
C	-0.336791	-2.001953	-0.582463	6
C	0.551489	1.491387	0.231857	6
C	1.957489	1.491387	0.231857	6
N	3.108499	1.491387	0.231857	7
H	-1.963591	1.367427	0.516177	1
H	-2.068411	-0.309893	0.462057	1
H	1.383539	-1.071983	0.106847	1
H	-1.377871	-1.961613	-0.883613	1
H	0.172749	-2.953753	-0.698523	1
H	0.089789	2.463107	0.365487	1
Es	-0.231858	0.407359	0.061250	99
Es	3.108057	1.491389	0.231859	99
Es	-1.041630	-1.978084	-0.778968	99
Es	0.272877	0.970928	0.472930	99
Es	2.577706	1.212821	0.094020	99
Es	1.285082	1.482004	0.226772	99
Es	2.592207	1.502398	0.538916	99
Es	-1.808528	1.019854	0.354242	99
Es	0.069771	-1.348709	-0.637383	99
Es	0.254543	1.048848	-0.155656	99
Es	1.030192	-1.008202	0.035468	99
Es	-0.096678	-1.512532	-0.038604	99
Es	2.581691	1.749027	0.064473	99
Es	-1.872106	0.029826	0.320070	99
Es	-0.336845	-2.002014	-0.582488	99
Es	0.249981	2.142731	0.324789	99
Es	1.957121	1.491390	0.231867	99
Es	0.328220	-0.930635	-0.125436	99
Es	-1.612983	0.517766	0.083168	99
Es	0.000166	-2.643371	-0.660484	99
Es	-1.012982	0.469932	0.141088	99
Es	0.551632	1.491417	0.231819	99
Es	3.477054	1.491247	0.231476	99
Es	-1.603554	0.526457	-0.220889	99
Es	0.033764	-0.258596	-0.031545	99
38
Properties=species:S:1:pos:R:3:Z:I:1 energy=-301.80079715992474 field_type=dipole dipole="0.000000 0.000000 0.000000" charge=0
N	-1.613431	0.517817	0.082657	7
C	-0.231681	0.407447	0.061277	6
C	0.328219	-0.930763	-0.125473	6
C	-0.336791	-2.001953	-0.582463	6
C	0.551489	1.491387	0.231857	6
C	1.957489	1.491387	0.231857	6
N	3.108499	1.491387	0.231857	7
H	-1.963591	1.367427	0.516177	1
H	-2.068411	-0.309893	0.462057	1
H	1.383539	-1.071983	0.106847	1
H	-1.377871	-1.961613	-0.883613	1
H	0.172749	-2.953753	-0.698523	1
H	0.089789	2.463107	0.365487	1
Es	-0.231853	0.407360	0.061251	99
Es	0.250142	2.142738	0.324832	99
Es	-0.336843	-2.002009	-0.582487	99
Es	0.033788	-0.258683	-0.031554	99
Es	1.030232	-1.008166	0.035483	99
Es	2.573520	1.794129	0.307039	99
Es	-1.603743	0.526838	-0.222093	99
Es	0.551637	1.491420	0.231842	99
Es	0.069795	-1.348608	-0.637296	99
Es	-1.041711	-1.978022	-0.778901	99
Es	0.273004	0.971214	0.472976	99
Es	3.108068	1.491384	0.231858	99
Es	-1.612950	0.517765	0.083144	99
Es	1.957118	1.491381	0.231860	99
Es	-1.013372	0.469769	0.141664	99
Es	2.586807	1.270243	0.451997	99
Es	-1.808046	1.019501	0.354853	99
Es	3.476338	1.492370	0.233182	99
Es	0.254204	1.048834	-0.155628	99
Es	1.284892	1.481329	0.226238	99
Es	0.328217	-0.930639	-0.125437	99
Es	2.592203	1.399119	-0.062946	99
Es	-0.096652	-1.512608	-0.038846	99
Es	-1.872058	0.030012	0.320138	99
Es	0.000163	-2.643422	-0.660412	99
38
Properties=species:S:1:pos:R:3:Z:I:1 energy=-301.80079715992474 field_type=dipole dipole="0.000000 0.000000 0.000000" charge=0
N	-1.613431	0.517817	0.082657	7
C	-0.231681	0.407447	0.061277	6
C	0.328219	-0.930763	-0.125473	6
C	-0.336791	-2.001953	-0.582463	6
C	0.551489	1.491387	0.231857	6
C	1.957489	1.491387	0.231857	6
N	3.108499	1.491387	0.231857	7
H	-1.963591	1.367427	0.516177	1
H	-2.068411	-0.309893	0.462057	1
H	1.383539	-1.071983	0.106847	1
H	-1.377871	-1.961613	-0.883613	1
H	0.172749	-2.953753	-0.698523	1
H	0.089789	2.463107	0.365487	1
Es	-1.041697	-1.977933	-0.778971	99
Es	-1.872074	0.030073	0.320134	99
Es	0.272824	0.971018	0.472869	99
Es	0.254432	1.048941	-0.155778	99
Es	2.580670	1.208622	0.366771	99
Es	1.957117	1.491401	0.231869	99
Es	2.576931	1.750817	0.404031	99
Es	0.551632	1.491417	0.231791	99
Es	1.284863	1.481660	0.226129	99
Es	-0.096580	-1.512540	-0.038698	99
Es	0.000110	-2.643424	-0.660500	99
Es	1.030199	-1.008200	0.035443	99
Es	-1.808443	1.019641	0.354357	99
Es	-0.231856	0.407361	0.061252	99
Es	0.250198	2.142750	0.324940	99
Es	0.033860	-0.258650	-0.031434	99
Es	-1.013766	0.469889	0.142762	99
Es	-0.336844	-2.002011	-0.582491	99
Es	3.108057	1.491389	0.231858	99
Es	-1.602829	0.526514	-0.222719	99
Es	3.476231	1.491585	0.233787	99
Es	-1.613080	0.517781	0.083194	99
Es	0.069749	-1.348779	-0.637271	99
Es	0.328221	-0.930638	-0.125447	99
Es	2.594975	1.504565	-0.075123	99
38
Properties=species:S:1:pos:R:3:Z:I:1 energy=-301.80079715992474 field_type=dipole dipole="0.000000 0.000000 0.000000" charge=0
N	-1.613431	0.517817	0.082657	7
C	-0.231681	0.407447	0.061277	6
C	0.328219	-0.930763	-0.125473	6
C	-0.336791	-2.001953	-0.582463	6
C	0.551489	1.491387	0.231857	6
C	1.957489	1.491387	0.231857	6
N	3.108499	1.491387	0.231857	7
H	-1.963591	1.367427	0.516177	1
H	-2.068411	-0.309893	0.462057	1
H	1.383539	-1.071983	0.106847	1
H	-1.377871	-1.961613	-0.883613	1
H	0.172749	-2.953753	-0.698523	1
H	0.089789	2.463107	0.365487	1
Es	2.585180	1.647178	0.498813	99
Es	0.069799	-1.348753	-0.637367	99
Es	-1.871518	0.030179	0.320626	99
Es	0.000112	-2.643426	-0.660359	99
Es	0.250198	2.142821	0.324664	99
Es	3.476508	1.490510	0.232876	99
Es	-0.096606	-1.512567	-0.038686	99
Es	2.575612	1.178850	0.233469	99
Es	1.957123	1.491396	0.231858	99
Es	1.030203	-1.008127	0.035371	99
Es	0.551635	1.491419	0.231816	99
Es	-1.604408	0.526950	-0.223061	99
Es	-1.013492	0.469946	0.141524	99
Es	0.254194	1.048469	-0.155658	99
Es	1.284879	1.482078	0.226280	99
Es	-0.231853	0.407360	0.061254	99
Es	-1.041711	-1.977994	-0.778947	99
Es	-1.807706	1.019147	0.355450	99
Es	-0.336844	-2.002012	-0.582483	99
Es	2.591339	1.638877	-0.035902	99
Es	0.273206	0.971130	0.473166	99
Es	0.328217	-0.930644	-0.125438	99
Es	0.033836	-0.258704	-0.031553	99
Es	-1.613062	0.517781	0.083187	99
Es	3.108058	1.491387	0.231858	99
38
Properties=species:S:1:pos:R:3:Z:I:1 energy=-301.80079715992474 field_type=dipole dipole="0.000000 0.000000 0.000000" charge=0
N	-1.613431	0.517817	0.082657	7
C	-0.231681	0.407447	0.061277	6
C	0.328219	-0.930763	-0.125473	6
C	-0.336791	-2.001953	-0.582463	6
C	0.551489	1.491387	0.231857	6
C	1.957489	1.491387	0.231857	6
N	3.108499	1.491387	0.231857	7
H	-1.963591	1.367427	0.516177	1
H	-2.068411	-0.309893	0.462057	1
H	1.383539	-1.071983	0.106847	1
H	-1.377871	-1.961613	-0.883613	1
H	0.172749	-2.953753	-0.698523	1
H	0.089789	2.463107	0.365487	1
Es	-1.602984	0.526932	-0.222546	99
Es	-1.808297	1.019431	0.354796	99
Es	-0.336846	-2.002012	-0.582487	99
Es	3.108059	1.491386	0.231859	99
Es	1.284557	1.481647	0.225927	99
Es	0.000127	-2.643421	-0.660463	99
Es	0.551624	1.491413	0.231827	99
Es	0.273446	0.971372	0.473318	99
Es	2.595130	1.517536	-0.074006	99
Es	0.034027	-0.258579	-0.031481	99
Es	-1.613055	0.517780	0.083178	99
Es	1.957125	1.491391	0.231857	99
Es	0.069666	-1.348781	-0.637319	99
Es	0.250395	2.142865	0.324771	99
Es	-1.872198	0.029935	0.319751	99
Es	2.577587	1.743465	0.414746	99
Es	-1.041692	-1.977980	-0.778942	99
Es	-0.096618	-1.512470	-0.038666	99
Es	-1.013723	0.469787	0.142533	99
Es	0.328222	-0.930636	-0.125437	99
Es	3.476040	1.491560	0.233877	99
Es	0.253878	1.048415	-0.155854	99
Es	2.580073	1.203089	0.354863	99
Es	-0.231854	0.407360	0.061250	99
Es	1.030207	-1.008233	0.035405	99
38
Properties=species:S:1:pos:R:3:Z:I:1 energy=-301.80079715992474 field_type=dipole dipole="0.000000 0.000000 0.000000" charge=0
N	-1.613431	0.517817	0.082657	7
C	-0.231681	0.407447	0.061277	6
C	0.328219	-0.930763	-0.125473	6
C	-0.336791	-2.001953	-0.582463	6
C	0.551489	1.491387	0.231857	6
C	1.957489	1.491387	0.231857	6
N	3.108499	1.491387	0.231857	7
H	-1.963591	1.367427	0.516177	1
H	-2.068411	-0.309893	0.462057	1
H	1.383539	-1.071983	0.106847	1
H	-1.377871	-1.961613	-0.883613	1
H	0.172749	-2.953753	-0.698523	1
H	0.089789	2.463107	0.365487	1
Es	0.069773	-1.348755	-0.637297	99
Es	0.328216	-0.930645	-0.125440	99
Es	3.108058	1.491388	0.231859	99
Es	0.000138	-2.643436	-0.660393	99
Es	0.551628	1.491412	0.231833	99
Es	-1.808409	1.019372	0.354746	99
Es	0.254004	1.048590	-0.155795	99
Es	2.589066	1.338442	-0.038449	99
Es	-0.231854	0.407365	0.061252	99
Es	0.273334	0.971258	0.473080	99
Es	0.250286	2.142842	0.324869	99
Es	-1.602698	0.526954	-0.222765	99
Es	3.475347	1.492658	0.232461	99
Es	-1.872202	0.029923	0.319670	99
Es	-0.336839	-2.002006	-0.582490	99
Es	1.957119	1.491386	0.231862	99
Es	2.573865	1.803235	0.241723	99
Es	-0.096598	-1.512491	-0.038920	99
Es	-1.013814	0.469876	0.142919	99
Es	-1.041766	-1.977970	-0.778881	99
Es	-1.613120	0.517781	0.083179	99
Es	1.030205	-1.008218	0.035536	99
Es	1.284544	1.481212	0.226475	99
Es	0.033990	-0.258627	-0.031571	99
Es	2.590627	1.321704	0.493292	99
