44
Properties=species:S:1:pos:R:3:Z:I:1 energy=-304.0925895332433 field_type=dipole dipole="0.000000 0.000000 0.000000" charge=0
N	-1.846956	-1.480988	-0.573762	7
C	-0.390007	-1.368938	-0.465432	6
C	0.123293	0.089852	-0.408032	6
C	-0.436576	0.827602	0.832448	6
N	-0.054286	2.248032	0.887098	7
C	1.567294	0.089852	-0.408032	6
C	2.757453	0.089852	-0.408032	6
H	-2.101806	-2.463968	-0.671732	1
H	-2.161206	-1.021198	-1.429122	1
H	0.056573	-1.883558	-1.325652	1
H	-0.067246	-1.915458	0.429758	1
H	-0.231616	0.611502	-1.307452	1
H	-0.088986	0.339162	1.751268	1
H	-1.530866	0.784812	0.835448	1
H	0.963554	2.317162	0.905438	1
H	-0.381976	2.643891	1.767788	1
H	3.823363	0.092392	-0.412002	1
Es	-0.170023	-1.737024	0.148790	99
Es	-2.011759	-1.339672	-0.295650	99
Es	-0.101418	0.435856	-1.013901	99
Es	-1.846692	-1.481198	-0.574195	99
Es	2.175473	0.015735	-0.755306	99
Es	-0.201475	1.625805	0.877041	99
Es	2.173455	0.432339	-0.295350	99
Es	0.559177	2.275770	0.915764	99
Es	-0.436482	0.827720	0.832384	99
Es	-0.192623	0.475842	1.460360	99
Es	1.567034	0.089862	-0.408031	99
Es	-2.018739	-1.212864	-1.104608	99
Es	-0.128101	0.455055	0.200618	99
Es	-0.054071	2.247741	0.887528	99
Es	-1.175899	0.796940	0.828430	99
Es	0.123396	0.089819	-0.408000	99
Es	2.757717	0.089851	-0.408024	99
Es	-0.390148	-1.368872	-0.465441	99
Es	2.175519	-0.178816	-0.163767	99
Es	0.875383	0.088507	-0.405352	99
Es	-0.123706	-0.624891	-0.430022	99
Es	-1.213825	-1.432235	-0.546550	99
Es	-0.185775	2.428923	0.609976	99
Es	3.454003	0.091282	-0.409794	99
Es	-0.072221	-1.714810	-1.059805	99
Es	-1.981150	-2.076907	-0.648817	99
Es	-0.245814	2.468140	1.430716	99
44
Properties=species:S:1:pos:R:3:Z:I:1 energy=-304.0925895332433 field_type=dipole dipole="0.000000 0.000000 0.000000" charge=0
N	-1.846956	-1.480988	-0.573762	7
C	-0.390007	-1.368938	-0.465432	6
C	0.123293	0.089852	-0.408032	6
C	-0.436576	0.827602	0.832448	6
N	-0.054286	2.248032	0.887098	7
C	1.567294	0.089852	-0.408032	6
C	2.757453	0.089852	-0.408032	6
H	-2.101806	-2.463968	-0.671732	1
H	-2.161206	-1.021198	-1.429122	1
H	0.056573	-1.883558	-1.325652	1
H	-0.067246	-1.915458	0.429758	1
H	-0.231616	0.611502	-1.307452	1
H	-0.088986	0.339162	1.751268	1
H	-1.530866	0.784812	0.835448	1
H	0.963554	2.317162	0.905438	1
H	-0.381976	2.643891	1.767788	1
H	3.823363	0.092392	-0.412002	1
Es	-0.054078	2.247729	0.887541	99
Es	2.757713	0.089839	-0.408041	99
Es	0.559069	2.275599	0.916148	99
Es	2.175885	-0.114696	-0.107886	99
Es	-0.192633	0.475815	1.460319	99
Es	-2.011675	-1.340286	-0.295192	99
Es	0.123397	0.089818	-0.407997	99
Es	-0.390146	-1.368871	-0.465441	99
Es	-0.185148	2.428720	0.609804	99
Es	-1.980898	-2.076824	-0.649427	99
Es	-0.123695	-0.625088	-0.429876	99
Es	1.567031	0.089860	-0.408039	99
Es	-0.101349	0.435878	-1.013981	99
Es	2.174134	0.448209	-0.377538	99
Es	-2.019132	-1.212335	-1.104209	99
Es	3.453950	0.091358	-0.409858	99
Es	-0.128068	0.455148	0.200635	99
Es	-1.213840	-1.432218	-0.546709	99
Es	-0.201620	1.625769	0.877059	99
Es	-0.436480	0.827720	0.832387	99
Es	2.174475	-0.064346	-0.729065	99
Es	-0.169954	-1.737073	0.148743	99
Es	-1.175843	0.796920	0.828468	99
Es	-0.072199	-1.714684	-1.059903	99
Es	-1.846662	-1.481226	-0.574249	99
Es	0.875205	0.088555	-0.405222	99
Es	-0.246200	2.468611	1.430519	99
44
Properties=species:S:1:pos:R:3:Z:I:1 energy=-304.0925895332433 field_type=dipole dipole="0.000000 0.000000 0.000000" charge=0
N	-1.846956	-1.480988	-0.573762	7
C	-0.390007	-1.368938	-0.465432	6
C	0.123293	0.089852	-0.408032	6
C	-0.436576	0.827602	0.832448	6
N	-0.054286	2.248032	0.887098	7
C	1.567294	0.089852	-0.408032	6
C	2.757453	0.089852	-0.408032	6
H	-2.101806	-2.463968	-0.671732	1
H	-2.161206	-1.021198	-1.429122	1
H	0.056573	-1.883558	-1.325652	1
H	-0.067246	-1.915458	0.429758	1
H	-0.231616	0.611502	-1.307452	1
H	-0.088986	0.339162	1.751268	1
H	-1.530866	0.784812	0.835448	1
H	0.963554	2.317162	0.905438	1
H	-0.381976	2.643891	1.767788	1
H	3.823363	0.092392	-0.412002	1
Es	0.123394	0.089819	-0.407999	99
Es	2.175661	0.039872	-0.760157	99
Es	0.875024	0.088544	-0.405486	99
Es	2.757723	0.089848	-0.408028	99
Es	-0.169955	-1.737043	0.148687	99
Es	-1.175803	0.796857	0.828553	99
Es	-0.072133	-1.714658	-1.059860	99
Es	-0.436482	0.827720	0.832384	99
Es	-1.213823	-1.432415	-0.546751	99
Es	-0.054061	2.247745	0.887519	99
Es	-0.390145	-1.368871	-0.465442	99
Es	1.567030	0.089857	-0.408032	99
Es	3.453957	0.091315	-0.410045	99
Es	-0.201501	1.625705	0.877157	99
Es	-0.192626	0.475819	1.460239	99
Es	0.558997	2.275798	0.916024	99
Es	-0.128096	0.455261	0.200688	99
Es	2.173332	0.423482	-0.270401	99
Es	-0.123563	-0.625128	-0.429756	99
Es	-2.018805	-1.212919	-1.104521	99
Es	-1.981448	-2.076908	-0.648580	99
Es	-1.846674	-1.481221	-0.574240	99
Es	-2.011530	-1.339467	-0.295730	99
Es	-0.185201	2.428549	0.609918	99
Es	2.175516	-0.194108	-0.183568	99
Es	-0.101327	0.435740	-1.014063	99
Es	-0.246224	2.468706	1.430483	99
44
Properties=species:S:1:pos:R:3:Z:I:1 energy=-304.0925895332433 field_type=dipole dipole="0.000000 0.000000 0.000000" charge=0
N	-1.846956	-1.480988	-0.573762	7
C	-0.390007	-1.368938	-0.465432	6
C	0.123293	0.089852	-0.408032	6
C	-0.436576	0.827602	0.832448	6
N	-0.054286	2.248032	0.887098	7
C	1.567294	0.089852	-0.408032	6
C	2.757453	0.089852	-0.408032	6
H	-2.101806	-2.463968	-0.671732	1
H	-2.161206	-1.021198	-1.429122	1
H	0.056573	-1.883558	-1.325652	1
H	-0.067246	-1.915458	0.429758	1
H	-0.231616	0.611502	-1.307452	1
H	-0.088986	0.339162	1.751268	1
H	-1.530866	0.784812	0.835448	1
H	0.963554	2.317162	0.905438	1
H	-0.381976	2.643891	1.767788	1
H	3.823363	0.092392	-0.412002	1
Es	-0.201620	1.625613	0.876797	99
Es	0.123396	0.089818	-0.408000	99
Es	3.453902	0.091402	-0.409906	99
Es	-0.192723	0.475880	1.460253	99
Es	2.174160	0.448712	-0.380539	99
Es	-1.981039	-2.076722	-0.649255	99
Es	-0.185424	2.428914	0.610320	99
Es	-1.213792	-1.432340	-0.546845	99
Es	2.175946	-0.111446	-0.106236	99
Es	-0.123608	-0.625228	-0.429840	99
Es	-0.169909	-1.737118	0.148634	99
Es	-0.436481	0.827719	0.832386	99
Es	1.567039	0.089853	-0.408031	99
Es	-0.127997	0.455095	0.200715	99
Es	-2.011604	-1.340226	-0.295309	99
Es	-0.101226	0.435941	-1.014042	99
Es	-0.072181	-1.714581	-1.059783	99
Es	0.558978	2.275901	0.915672	99
Es	2.174426	-0.068148	-0.727625	99
Es	-0.054083	2.247755	0.887555	99
Es	-2.019219	-1.212446	-1.104212	99
Es	-1.846679	-1.481217	-0.574229	99
Es	-0.245783	2.468324	1.430722	99
Es	0.874957	0.088559	-0.405325	99
Es	2.757702	0.089829	-0.408028	99
Es	-0.390142	-1.368873	-0.465439	99
Es	-1.175757	0.796930	0.828582	99
44
Properties=species:S:1:pos:R:3:Z:I:1 energy=-304.0925895332433 field_type=dipole dipole="0.000000 0.000000 0.000000" charge=0
N	-1.846956	-1.480988	-0.573762	7
C	-0.390007	-1.368938	-0.465432	6
C	0.123293	0.089852	-0.408032	6
C	-0.436576	0.827602	0.832448	6
N	-0.054286	2.248032	0.887098	7
C	1.567294	0.089852	-0.408032	6
C	2.757453	0.089852	-0.408032	6
H	-2.101806	-2.463968	-0.671732	1
H	-2.161206	-1.021198	-1.429122	1
H	0.056573	-1.883558	-1.325652	1
H	-0.067246	-1.915458	0.429758	1
H	-0.231616	0.611502	-1.307452	1
H	-0.088986	0.339162	1.751268	1
H	-1.530866	0.784812	0.835448	1
H	0.963554	2.317162	0.905438	1
H	-0.381976	2.643891	1.767788	1
H	3.823363	0.092392	-0.412002	1
Es	-0.123496	-0.625253	-0.429873	99
Es	-1.213756	-1.432423	-0.546807	99
Es	-0.169960	-1.737094	0.148578	99
Es	-0.072191	-1.714661	-1.059722	99
Es	-0.101139	0.435935	-1.014035	99
Es	0.558999	2.275935	0.915718	99
Es	2.175687	0.005892	-0.055311	99
Es	-2.018888	-1.212939	-1.104453	99
Es	0.874788	0.088640	-0.405317	99
Es	2.175567	0.433113	-0.506064	99
Es	-2.011673	-1.339632	-0.295635	99
Es	-0.436482	0.827718	0.832387	99
Es	-0.054076	2.247737	0.887524	99
Es	-0.127990	0.455178	0.200743	99
Es	-1.981326	-2.076768	-0.648761	99
Es	-1.846695	-1.481196	-0.574189	99
Es	-1.175722	0.796918	0.828597	99
Es	-0.201627	1.625589	0.876913	99
Es	-0.245744	2.468302	1.430624	99
Es	1.567034	0.089855	-0.408030	99
Es	-0.185467	2.428989	0.610359	99
Es	-0.390143	-1.368873	-0.465440	99
Es	3.453888	0.091289	-0.409914	99
Es	-0.192770	0.475841	1.460192	99
Es	2.757718	0.089850	-0.408026	99
Es	2.173306	-0.169862	-0.653066	99
Es	0.123395	0.089819	-0.407999	99
44
Properties=species:S:1:pos:R:3:Z:I:1 energy=-304.0925895332433 field_type=dipole dipole="0.000000 0.000000 0.000000" charge=0
N	-1.846956	-1.480988	-0.573762	7
C	-0.390007	-1.368938	-0.465432	6
C	0.123293	0.089852	-0.408032	6
C	-0.436576	0.827602	0.832448	6
N	-0.054286	2.248032	0.887098	7
C	1.567294	0.089852	-0.408032	6
C	2.757453	0.089852	-0.408032	6
H	-2.101806	-2.463968	-0.671732	1
H	-2.161206	-1.021198	-1.429122	1
H	0.056573	-1.883558	-1.325652	1
H	-0.067246	-1.915458	0.429758	1
H	-0.231616	0.611502	-1.307452	1
H	-0.088986	0.339162	1.751268	1
H	-1.530866	0.784812	0.835448	1
H	0.963554	2.317162	0.905438	1
H	-0.381976	2.643891	1.767788	1
H	3.823363	0.092392	-0.412002	1
Es	2.174564	0.448665	-0.416905	99
Es	0.874687	0.088682	-0.405348	99
Es	2.757721	0.089851	-0.408024	99
Es	-0.245739	2.468350	1.430628	99
Es	-1.213693	-1.432468	-0.546918	99
Es	-0.072143	-1.714718	-1.059711	99
Es	-0.101102	0.435910	-1.014088	99
Es	0.558940	2.276034	0.915637	99
Es	-0.201718	1.625481	0.876762	99
Es	3.453832	0.091340	-0.409824	99
Es	-2.018939	-1.212963	-1.104380	99
Es	-2.011652	-1.339610	-0.295596	99
Es	2.174074	-0.099381	-0.710584	99
Es	-0.185345	2.428983	0.610594	99
Es	-1.846694	-1.481200	-0.574187	99
Es	1.567037	0.089855	-0.408029	99
Es	-0.170008	-1.737035	0.148548	99
Es	-1.981359	-2.076738	-0.648771	99
Es	-1.175671	0.796916	0.828624	99
Es	-0.123407	-0.625365	-0.429834	99
Es	-0.436482	0.827718	0.832389	99
Es	-0.054065	2.247733	0.887545	99
Es	0.123396	0.089819	-0.407998	99
Es	-0.390142	-1.368873	-0.465438	99
Es	2.175917	-0.080152	-0.087038	99
Es	-0.192818	0.475857	1.460174	99
Es	-0.127953	0.455209	0.200766	99
44
Properties=species:S:1:pos:R:3:Z:I:1 energy=-304.0925895332433 field_type=dipole dipole="0.000000 0.000000 0.000000" charge=0
N	-1.846956	-1.480988	-0.573762	7
C	-0.390007	-1.368938	-0.465432	6
C	0.123293	0.089852	-0.408032	6
C	-0.436576	0.827602	0.832448	6
N	-0.054286	2.248032	0.887098	7
C	1.567294	0.089852	-0.408032	6
C	2.757453	0.089852	-0.408032	6
H	-2.101806	-2.463968	-0.671732	1
H	-2.161206	-1.021198	-1.429122	1
H	0.056573	-1.883558	-1.325652	1
H	-0.067246	-1.915458	0.429758	1
H	-0.231616	0.611502	-1.307452	1
H	-0.088986	0.339162	1.751268	1
H	-1.530866	0.784812	0.835448	1
H	0.963554	2.317162	0.905438	1
H	-0.381976	2.643891	1.767788	1
H	3.823363	0.092392	-0.412002	1
Es	-0.127806	0.455288	0.200843	99
Es	2.174868	-0.031500	-0.743405	99
Es	-0.245707	2.468344	1.430536	99
Es	-1.213688	-1.432477	-0.546813	99
Es	-0.072189	-1.714662	-1.059636	99
Es	-0.054091	2.247747	0.887505	99
Es	0.874539	0.088559	-0.405393	99
Es	-0.192961	0.475864	1.460139	99
Es	-0.185421	2.428934	0.610663	99
Es	1.567035	0.089855	-0.408030	99
Es	-1.175643	0.796871	0.828536	99
Es	2.173842	0.443851	-0.340919	99
Es	-0.201726	1.625514	0.876960	99
Es	2.757718	0.089850	-0.408023	99
Es	-1.981282	-2.076602	-0.648817	99
Es	-0.436480	0.827718	0.832388	99
Es	3.453839	0.091256	-0.409866	99
Es	-0.390142	-1.368875	-0.465440	99
Es	-2.019542	-1.212316	-1.104317	99
Es	-0.123454	-0.625461	-0.429961	99
Es	-2.011212	-1.340388	-0.295681	99
Es	-0.169946	-1.737070	0.148523	99
Es	-0.100923	0.435938	-1.014030	99
Es	2.175871	-0.143043	-0.130128	99
Es	0.559018	2.276102	0.915590	99
Es	-1.846675	-1.481219	-0.574233	99
Es	0.123395	0.089819	-0.407999	99
44
Properties=species:S:1:pos:R:3:Z:I:1 energy=-304.0925895332433 field_type=dipole dipole="0.000000 0.000000 0.000000" charge=0
N	-1.846956	-1.480988	-0.573762	7
C	-0.390007	-1.368938	-0.465432	6
C	0.123293	0.089852	-0.408032	6
C	-0.436576	0.827602	0.832448	6
N	-0.054286	2.248032	0.887098	7
C	1.567294	0.089852	-0.408032	6
C	2.757453	0.089852	-0.408032	6
H	-2.101806	-2.463968	-0.671732	1
H	-2.161206	-1.021198	-1.429122	1
H	0.056573	-1.883558	-1.325652	1
H	-0.067246	-1.915458	0.429758	1
H	-0.231616	0.611502	-1.307452	1
H	-0.088986	0.339162	1.751268	1
H	-1.530866	0.784812	0.835448	1
H	0.963554	2.317162	0.905438	1
H	-0.381976	2.643891	1.767788	1
H	3.823363	0.092392	-0.412002	1
Es	-0.245754	2.468417	1.430536	99
Es	-0.054075	2.247757	0.887518	99
Es	-1.213548	-1.432283	-0.546546	99
Es	-0.192893	0.475858	1.460099	99
Es	-0.390143	-1.368873	-0.465440	99
Es	0.559010	2.276093	0.915581	99
Es	1.567038	0.089857	-0.408028	99
Es	0.874451	0.088552	-0.405456	99
Es	-2.019213	-1.212606	-1.104143	99
Es	-0.072173	-1.714645	-1.059584	99
Es	-1.175615	0.796897	0.828665	99
Es	-0.201879	1.625450	0.876685	99
Es	-0.185201	2.428931	0.610912	99
Es	2.173554	0.435166	-0.303267	99
Es	-0.100920	0.435959	-1.014091	99
Es	-1.981593	-2.076871	-0.648709	99
Es	2.175339	0.005536	-0.754213	99
Es	-0.169947	-1.737072	0.148462	99
Es	0.123395	0.089819	-0.407999	99
Es	2.175745	-0.171506	-0.156885	99
Es	3.453777	0.091364	-0.409897	99
Es	-0.123402	-0.625427	-0.429915	99
Es	-0.436484	0.827716	0.832388	99
Es	-0.127880	0.455267	0.200819	99
Es	-1.846704	-1.481225	-0.574213	99
Es	2.757718	0.089846	-0.408018	99
Es	-2.011364	-1.340078	-0.296269	99
44
Properties=species:S:1:pos:R:3:Z:I:1 energy=-304.0925895332433 field_type=dipole dipole="0.000000 0.000000 0.000000" charge=0
N	-1.846956	-1.480988	-0.573762	7
C	-0.390007	-1.368938	-0.465432	6
C	0.123293	0.089852	-0.408032	6
C	-0.436576	0.827602	0.832448	6
N	-0.054286	2.248032	0.887098	7
C	1.567294	0.089852	-0.408032	6
C	2.757453	0.089852	-0.408032	6
H	-2.101806	-2.463968	-0.671732	1
H	-2.161206	-1.021198	-1.429122	1
H	0.056573	-1.883558	-1.325652	1
H	-0.067246	-1.915458	0.429758	1
H	-0.231616	0.611502	-1.307452	1
H	-0.088986	0.339162	1.751268	1
H	-1.530866	0.784812	0.835448	1
H	0.963554	2.317162	0.905438	1
H	-0.381976	2.643891	1.767788	1
H	3.823363	0.092392	-0.412002	1
Es	2.174461	-0.066202	-0.728958	99
Es	2.757716	0.089852	-0.408024	99
Es	-0.201752	1.625371	0.877003	99
Es	-1.846686	-1.481233	-0.574237	99
Es	-1.981173	-2.076661	-0.649239	99
Es	-0.436483	0.827718	0.832388	99
Es	-0.072211	-1.714604	-1.059553	99
Es	-0.246146	2.468959	1.430273	99
Es	-2.019427	-1.212337	-1.104040	99
Es	-0.169923	-1.737121	0.148436	99
Es	-1.175564	0.796909	0.828623	99
Es	-0.390141	-1.368875	-0.465440	99
Es	-0.054070	2.247734	0.887534	99
Es	-0.192958	0.475846	1.460131	99
Es	-0.184921	2.428407	0.610752	99
Es	0.558987	2.276200	0.915678	99
Es	2.175975	-0.113134	-0.107006	99
Es	-1.213567	-1.432189	-0.546487	99
Es	3.453756	0.091355	-0.409902	99
Es	2.174180	0.448489	-0.378545	99
Es	0.874342	0.088610	-0.405356	99
Es	-0.123285	-0.625516	-0.429955	99
Es	-0.127860	0.455318	0.200937	99
Es	-0.100845	0.435951	-1.014106	99
Es	0.123395	0.089818	-0.408000	99
Es	1.567041	0.089857	-0.408028	99
Es	-2.011604	-1.340624	-0.295885	99
44
Properties=species:S:1:pos:R:3:Z:I:1 energy=-304.0925895332433 field_type=dipole dipole="0.000000 0.000000 0.000000" charge=0
N	-1.846956	-1.480988	-0.573762	7
C	-0.390007	-1.368938	-0.465432	6
C	0.123293	0.089852	-0.408032	6
C	-0.436576	0.827602	0.832448	6
N	-0.054286	2.248032	0.887098	7
C	1.567294	0.089852	-0.408032	6
C	2.757453	0.089852	-0.408032	6
H	-2.101806	-2.463968	-0.671732	1
H	-2.161206	-1.021198	-1.429122	1
H	0.056573	-1.883558	-1.325652	1
H	-0.067246	-1.915458	0.429758	1
H	-0.231616	0.611502	-1.307452	1
H	-0.088986	0.339162	1.751268	1
H	-1.530866	0.784812	0.835448	1
H	0.963554	2.317162	0.905438	1
H	-0.381976	2.643891	1.767788	1
H	3.823363	0.092392	-0.412002	1
Es	-0.123284	-0.625560	-0.429909	99
Es	2.175960	-0.144262	-0.131108	99
Es	-1.981671	-2.076832	-0.648401	99
Es	2.174888	-0.030518	-0.743820	99
Es	-0.169967	-1.737069	0.148375	99
Es	-0.192948	0.475837	1.460054	99
Es	-0.245532	2.468126	1.430773	99
Es	-0.127838	0.455410	0.200877	99
Es	-2.019033	-1.212919	-1.104379	99
Es	2.173830	0.443918	-0.339366	99
Es	-1.213544	-1.432203	-0.546299	99
Es	0.558917	2.276120	0.915420	99
Es	3.453712	0.091421	-0.409987	99
Es	-0.202035	1.625449	0.876322	99
Es	-0.390140	-1.368872	-0.465440	99
Es	0.123394	0.089819	-0.408000	99
Es	-0.100787	0.435922	-1.014093	99
Es	-0.054073	2.247733	0.887504	99
Es	-0.072174	-1.714664	-1.059536	99
Es	-2.011548	-1.339894	-0.296570	99
Es	0.874261	0.088563	-0.405485	99
Es	-0.185214	2.429286	0.611285	99
Es	-1.175530	0.796863	0.828689	99
Es	2.757711	0.089845	-0.408049	99
Es	-1.846687	-1.481205	-0.574230	99
Es	1.567051	0.089867	-0.408025	99
Es	-0.436485	0.827718	0.832389	99
44
Properties=species:S:1:pos:R:3:Z:I:1 energy=-304.0925895332433 field_type=dipole dipole="0.000000 0.000000 0.000000" charge=0
N	-1.846956	-1.480988	-0.573762	7
C	-0.390007	-1.368938	-0.465432	6
C	0.123293	0.089852	-0.408032	6
C	-0.436576	0.827602	0.832448	6
N	-0.054286	2.248032	0.887098	7
C	1.567294	0.089852	-0.408032	6
C	2.757453	0.089852	-0.408032	6
H	-2.101806	-2.463968	-0.671732	1
H	-2.161206	-1.021198	-1.429122	1
H	0.056573	-1.883558	-1.325652	1
H	-0.067246	-1.915458	0.429758	1
H	-0.231616	0.611502	-1.307452	1
H	-0.088986	0.339162	1.751268	1
H	-1.530866	0.784812	0.835448	1
H	0.963554	2.317162	0.905438	1
H	-0.381976	2.643891	1.767788	1
H	3.823363	0.092392	-0.412002	1
Es	-0.100724	0.435988	-1.014130	99
Es	0.558918	2.276311	0.915464	99
Es	-0.123207	-0.625639	-0.429951	99
Es	-0.201858	1.625363	0.876634	99
Es	-0.072167	-1.714655	-1.059470	99
Es	-0.169961	-1.737058	0.148347	99
Es	2.175848	-0.147052	-0.133420	99
Es	-0.436484	0.827716	0.832389	99
Es	0.123394	0.089819	-0.408000	99
Es	-1.846684	-1.481212	-0.574220	99
Es	-0.245825	2.468568	1.430490	99
Es	-0.127771	0.455375	0.201016	99
Es	-1.213590	-1.432110	-0.546417	99
Es	-0.185070	2.428799	0.611155	99
Es	2.173759	0.443014	-0.336080	99
Es	2.757715	0.089851	-0.408026	99
Es	-1.981312	-2.076727	-0.648572	99
Es	0.874100	0.088535	-0.405490	99
Es	-0.192983	0.475871	1.460024	99
Es	1.567036	0.089855	-0.408029	99
Es	-1.175520	0.796830	0.828696	99
Es	-2.011559	-1.340270	-0.296338	99
Es	2.174911	-0.026686	-0.744902	99
Es	-0.390140	-1.368875	-0.465440	99
Es	3.453860	0.091327	-0.409913	99
Es	-0.054071	2.247733	0.887531	99
Es	-2.019377	-1.212770	-1.104354	99
44
Properties=species:S:1:pos:R:3:Z:I:1 energy=-304.0925895332433 field_type=dipole dipole="0.000000 0.000000 0.000000" charge=0
N	-1.846956	-1.480988	-0.573762	7
C	-0.390007	-1.368938	-0.465432	6
C	0.123293	0.089852	-0.408032	6
C	-0.436576	0.827602	0.832448	6
N	-0.054286	2.248032	0.887098	7
C	1.567294	0.089852	-0.408032	6
C	2.757453	0.089852	-0.408032	6
H	-2.101806	-2.463968	-0.671732	1
H	-2.161206	-1.021198	-1.429122	1
H	0.056573	-1.883558	-1.325652	1
H	-0.067246	-1.915458	0.429758	1
H	-0.231616	0.611502	-1.307452	1
H	-0.088986	0.339162	1.751268	1
H	-1.530866	0.784812	0.835448	1
H	0.963554	2.317162	0.905438	1
H	-0.381976	2.643891	1.767788	1
H	3.823363	0.092392	-0.412002	1
Es	0.123393	0.089818	-0.408002	99
Es	-0.436484	0.827720	0.832387	99
Es	2.175575	-0.200593	-0.192282	99
Es	-2.019310	-1.212745	-1.104186	99
Es	3.453653	0.091436	-0.409882	99
Es	-1.846686	-1.481207	-0.574216	99
Es	0.873943	0.088511	-0.405571	99
Es	-2.011424	-1.340211	-0.296769	99
Es	-0.184982	2.429203	0.611092	99
Es	-0.072153	-1.714698	-1.059413	99
Es	-1.175447	0.796802	0.828705	99
Es	-0.123195	-0.625642	-0.430054	99
Es	-1.213401	-1.432145	-0.546305	99
Es	-0.054084	2.247791	0.887495	99
Es	-1.981718	-2.076794	-0.648449	99
Es	2.757714	0.089849	-0.408029	99
Es	-0.100647	0.436061	-1.014115	99
Es	-0.202042	1.625301	0.876486	99
Es	0.558733	2.276140	0.915685	99
Es	-0.245586	2.468371	1.430515	99
Es	1.567032	0.089856	-0.408030	99
Es	-0.127712	0.455316	0.201048	99
Es	-0.193029	0.475903	1.460043	99
Es	-0.390141	-1.368875	-0.465439	99
Es	-0.169986	-1.737019	0.148329	99
Es	2.175896	0.049946	-0.761759	99
Es	2.173325	0.419803	-0.260291	99
44
Properties=species:S:1:pos:R:3:Z:I:1 energy=-304.0925895332433 field_type=dipole dipole="0.000000 0.000000 0.000000" charge=0
N	-1.846956	-1.480988	-0.573762	7
C	-0.390007	-1.368938	-0.465432	6
C	0.123293	0.089852	-0.408032	6
C	-0.436576	0.827602	0.832448	6
N	-0.054286	2.248032	0.887098	7
C	1.567294	0.089852	-0.408032	6
C	2.757453	0.089852	-0.408032	6
H	-2.101806	-2.463968	-0.671732	1
H	-2.161206	-1.021198	-1.429122	1
H	0.056573	-1.883558	-1.325652	1
H	-0.067246	-1.915458	0.429758	1
H	-0.231616	0.611502	-1.307452	1
H	-0.088986	0.339162	1.751268	1
H	-1.530866	0.784812	0.835448	1
H	0.963554	2.317162	0.905438	1
H	-0.381976	2.643891	1.767788	1
H	3.823363	0.092392	-0.412002	1
Es	-1.981846	-2.076682	-0.648241	99
Es	-0.390141	-1.368876	-0.465440	99
Es	-0.436484	0.827717	0.832389	99
Es	-0.123148	-0.625747	-0.429986	99
Es	-2.019490	-1.212666	-1.104245	99
Es	-0.169936	-1.737149	0.148251	99
Es	-2.011159	-1.340216	-0.296753	99
Es	-0.127639	0.455332	0.201162	99
Es	-0.185022	2.428817	0.611451	99
Es	-0.201946	1.625206	0.876568	99
Es	-0.072188	-1.714554	-1.059424	99
Es	0.558853	2.276451	0.915343	99
Es	2.757716	0.089850	-0.408026	99
Es	1.567039	0.089851	-0.408031	99
Es	2.173857	0.444556	-0.342692	99
Es	2.174906	-0.033371	-0.742772	99
Es	-0.054071	2.247745	0.887503	99
Es	2.175954	-0.142038	-0.128941	99
Es	-1.846686	-1.481212	-0.574223	99
Es	-0.245708	2.468608	1.430428	99
Es	-0.100572	0.436114	-1.014136	99
Es	-1.213390	-1.432343	-0.546472	99
Es	-1.175442	0.796835	0.828713	99
Es	0.873819	0.088531	-0.405527	99
Es	0.123397	0.089820	-0.408001	99
Es	3.453653	0.091415	-0.409910	99
Es	-0.193086	0.475905	1.460004	99
