44
Properties=species:S:1:pos:R:3:Z:I:1 energy=-304.0825224427119 field_type=dipole dipole="0.000000 0.000000 0.000000" charge=0
N	-1.062006	-2.074230	-0.996577	7
C	-1.639667	-1.369501	0.154043	6
C	-1.151447	0.089280	0.255203	6
N	0.312704	0.172889	0.162253	7
C	0.758314	1.559459	0.259753	6
C	2.222814	1.611429	0.164653	6
C	3.421063	1.656909	0.091473	6
H	-1.424476	-3.027061	-1.010267	1
H	-0.059797	-2.170161	-0.824317	1
H	-1.370697	-1.911620	1.068183	1
H	-2.731776	-1.380240	0.073713	1
H	-1.497277	0.507470	1.207693	1
H	-1.607677	0.671769	-0.555227	1
H	0.581404	-0.183221	-0.756177	1
H	0.444873	1.992440	1.216583	1
H	0.319374	2.162839	-0.543347	1
H	4.484273	1.691550	0.032363	1
Es	2.816510	1.992252	0.176114	99
Es	-1.468465	0.496163	-0.304375	99
Es	0.312451	0.173201	0.161877	99
Es	-1.384133	0.377917	0.908974	99
Es	2.222550	1.611421	0.164672	99
Es	0.556471	1.849170	0.902766	99
Es	0.501308	0.794658	0.187071	99
Es	-1.639597	-1.369525	0.153918	99
Es	-1.304900	-1.780090	-0.487935	99
Es	2.862655	1.415665	0.407024	99
Es	0.758424	1.559335	0.259729	99
Es	-1.061915	-2.074455	-0.996122	99
Es	-1.456061	-1.737447	0.791690	99
Es	-0.460582	-2.137233	-0.877384	99
Es	1.522836	1.587739	0.206900	99
Es	-0.324613	0.158429	0.187164	99
Es	-1.151310	0.089246	0.255200	99
Es	4.114966	1.680223	0.051940	99
Es	-2.388648	-1.373653	0.097759	99
Es	2.817126	1.499872	-0.210343	99
Es	-1.278378	-2.650467	-0.985225	99
Es	0.471843	1.973679	-0.287345	99
Es	0.461520	-0.022607	0.419100	99
Es	-1.123647	-1.902752	-1.306074	99
Es	3.421303	1.656918	0.091438	99
Es	-1.385243	-0.640176	0.197874	99
Es	0.463831	-0.023273	-0.399335	99
44
Properties=species:S:1:pos:R:3:Z:I:1 energy=-304.0825224427119 field_type=dipole dipole="0.000000 0.000000 0.000000" charge=0
N	-1.062006	-2.074230	-0.996577	7
C	-1.639667	-1.369501	0.154043	6
C	-1.151447	0.089280	0.255203	6
N	0.312704	0.172889	0.162253	7
C	0.758314	1.559459	0.259753	6
C	2.222814	1.611429	0.164653	6
C	3.421063	1.656909	0.091473	6
H	-1.424476	-3.027061	-1.010267	1
H	-0.059797	-2.170161	-0.824317	1
H	-1.370697	-1.911620	1.068183	1
H	-2.731776	-1.380240	0.073713	1
H	-1.497277	0.507470	1.207693	1
H	-1.607677	0.671769	-0.555227	1
H	0.581404	-0.183221	-0.756177	1
H	0.444873	1.992440	1.216583	1
H	0.319374	2.162839	-0.543347	1
H	4.484273	1.691550	0.032363	1
Es	-2.388575	-1.373570	0.097827	99
Es	1.522515	1.587859	0.206634	99
Es	0.312406	0.173250	0.161799	99
Es	-1.061898	-2.074480	-0.996083	99
Es	2.222551	1.611421	0.164659	99
Es	-1.639598	-1.369523	0.153922	99
Es	0.461441	-0.022522	0.419178	99
Es	-1.456117	-1.737512	0.791645	99
Es	-1.384154	0.377988	0.908909	99
Es	0.758428	1.559331	0.259732	99
Es	-1.151308	0.089247	0.255200	99
Es	-1.304869	-1.779987	-0.488085	99
Es	3.421301	1.656915	0.091455	99
Es	-0.324648	0.158441	0.186997	99
Es	-0.460495	-2.137387	-0.877455	99
Es	-1.278702	-2.650440	-0.985413	99
Es	-1.468460	0.496083	-0.304337	99
Es	2.814323	1.793725	-0.195634	99
Es	4.115004	1.679795	0.052149	99
Es	2.842240	1.833984	0.420928	99
Es	0.501087	0.794683	0.186983	99
Es	-1.385204	-0.640223	0.197990	99
Es	0.472172	1.973716	-0.287320	99
Es	0.556516	1.849357	0.902799	99
Es	-1.123529	-1.902732	-1.305804	99
Es	0.464029	-0.023367	-0.399195	99
Es	2.839846	1.280158	0.147592	99
44
Properties=species:S:1:pos:R:3:Z:I:1 energy=-304.0825224427119 field_type=dipole dipole="0.000000 0.000000 0.000000" charge=0
N	-1.062006	-2.074230	-0.996577	7
C	-1.639667	-1.369501	0.154043	6
C	-1.151447	0.089280	0.255203	6
N	0.312704	0.172889	0.162253	7
C	0.758314	1.559459	0.259753	6
C	2.222814	1.611429	0.164653	6
C	3.421063	1.656909	0.091473	6
H	-1.424476	-3.027061	-1.010267	1
H	-0.059797	-2.170161	-0.824317	1
H	-1.370697	-1.911620	1.068183	1
H	-2.731776	-1.380240	0.073713	1
H	-1.497277	0.507470	1.207693	1
H	-1.607677	0.671769	-0.555227	1
H	0.581404	-0.183221	-0.756177	1
H	0.444873	1.992440	1.216583	1
H	0.319374	2.162839	-0.543347	1
H	4.484273	1.691550	0.032363	1
Es	0.312434	0.173238	0.161835	99
Es	-1.305168	-1.779778	-0.488369	99
Es	3.421303	1.656917	0.091450	99
Es	-1.456155	-1.737468	0.791624	99
Es	0.464073	-0.023312	-0.399070	99
Es	-1.151313	0.089247	0.255200	99
Es	-0.324770	0.158130	0.187139	99
Es	0.501510	0.794673	0.187451	99
Es	0.461167	-0.022464	0.418413	99
Es	-1.061905	-2.074467	-0.996100	99
Es	2.864556	1.481227	0.448393	99
Es	-1.385382	-0.640189	0.198012	99
Es	-1.123580	-1.903259	-1.305587	99
Es	-2.388496	-1.373605	0.097893	99
Es	-1.468437	0.496129	-0.304254	99
Es	1.522701	1.587866	0.206970	99
Es	0.472136	1.973703	-0.287321	99
Es	2.222549	1.611424	0.164668	99
Es	-0.460201	-2.137212	-0.877531	99
Es	0.556491	1.849349	0.902763	99
Es	-1.384114	0.377991	0.908870	99
Es	4.114855	1.680169	0.051776	99
Es	2.818435	1.431479	-0.173907	99
Es	-1.278609	-2.650363	-0.985335	99
Es	-1.639596	-1.369525	0.153920	99
Es	2.813392	1.994972	0.098437	99
Es	0.758425	1.559337	0.259734	99
44
Properties=species:S:1:pos:R:3:Z:I:1 energy=-304.0825224427119 field_type=dipole dipole="0.000000 0.000000 0.000000" charge=0
N	-1.062006	-2.074230	-0.996577	7
C	-1.639667	-1.369501	0.154043	6
C	-1.151447	0.089280	0.255203	6
N	0.312704	0.172889	0.162253	7
C	0.758314	1.559459	0.259753	6
C	2.222814	1.611429	0.164653	6
C	3.421063	1.656909	0.091473	6
H	-1.424476	-3.027061	-1.010267	1
H	-0.059797	-2.170161	-0.824317	1
H	-1.370697	-1.911620	1.068183	1
H	-2.731776	-1.380240	0.073713	1
H	-1.497277	0.507470	1.207693	1
H	-1.607677	0.671769	-0.555227	1
H	0.581404	-0.183221	-0.756177	1
H	0.444873	1.992440	1.216583	1
H	0.319374	2.162839	-0.543347	1
H	4.484273	1.691550	0.032363	1
Es	-1.468424	0.496072	-0.304216	99
Es	2.222565	1.611435	0.164664	99
Es	-1.151313	0.089247	0.255200	99
Es	-1.123079	-1.903152	-1.305385	99
Es	0.312411	0.173249	0.161814	99
Es	-1.385316	-0.640208	0.198055	99
Es	-1.384170	0.378010	0.908813	99
Es	-1.061899	-2.074451	-0.996084	99
Es	-1.278836	-2.650445	-0.985771	99
Es	-1.456188	-1.737464	0.791554	99
Es	0.461315	-0.022491	0.419121	99
Es	0.501236	0.794721	0.186862	99
Es	3.421300	1.656925	0.091454	99
Es	-0.460466	-2.137423	-0.877412	99
Es	-1.305202	-1.779643	-0.488282	99
Es	0.464122	-0.023500	-0.398851	99
Es	2.818282	1.438709	-0.178649	99
Es	2.864457	1.473022	0.444014	99
Es	-2.388515	-1.373585	0.097932	99
Es	-0.324603	0.158347	0.186802	99
Es	0.472083	1.973767	-0.287288	99
Es	2.813633	1.996023	0.107463	99
Es	1.522631	1.587762	0.206872	99
Es	0.758426	1.559335	0.259734	99
Es	4.114842	1.680158	0.051870	99
Es	0.556605	1.849315	0.902870	99
Es	-1.639596	-1.369525	0.153918	99
44
Properties=species:S:1:pos:R:3:Z:I:1 energy=-304.0825224427119 field_type=dipole dipole="0.000000 0.000000 0.000000" charge=0
N	-1.062006	-2.074230	-0.996577	7
C	-1.639667	-1.369501	0.154043	6
C	-1.151447	0.089280	0.255203	6
N	0.312704	0.172889	0.162253	7
C	0.758314	1.559459	0.259753	6
C	2.222814	1.611429	0.164653	6
C	3.421063	1.656909	0.091473	6
H	-1.424476	-3.027061	-1.010267	1
H	-0.059797	-2.170161	-0.824317	1
H	-1.370697	-1.911620	1.068183	1
H	-2.731776	-1.380240	0.073713	1
H	-1.497277	0.507470	1.207693	1
H	-1.607677	0.671769	-0.555227	1
H	0.581404	-0.183221	-0.756177	1
H	0.444873	1.992440	1.216583	1
H	0.319374	2.162839	-0.543347	1
H	4.484273	1.691550	0.032363	1
Es	-1.123553	-1.903389	-1.305403	99
Es	-1.061901	-2.074470	-0.996077	99
Es	4.114801	1.680163	0.051822	99
Es	1.522542	1.587730	0.207005	99
Es	-0.460398	-2.137116	-0.877926	99
Es	-1.384136	0.378016	0.908787	99
Es	2.813879	1.996175	0.114280	99
Es	-1.151316	0.089247	0.255200	99
Es	0.312425	0.173239	0.161812	99
Es	-1.278524	-2.650512	-0.985431	99
Es	2.818140	1.444521	-0.182464	99
Es	-0.324793	0.158177	0.187378	99
Es	0.464060	-0.023484	-0.399063	99
Es	-1.468440	0.496079	-0.304164	99
Es	2.222550	1.611427	0.164665	99
Es	-1.639596	-1.369523	0.153920	99
Es	-2.388521	-1.373659	0.097930	99
Es	-1.305018	-1.779654	-0.488085	99
Es	0.501511	0.794509	0.187235	99
Es	0.461273	-0.022205	0.418349	99
Es	0.472210	1.973794	-0.287352	99
Es	-1.385425	-0.640214	0.198062	99
Es	0.556595	1.849371	0.902810	99
Es	0.758423	1.559339	0.259734	99
Es	-1.456196	-1.737383	0.791545	99
Es	3.421293	1.656920	0.091436	99
Es	2.864417	1.467111	0.441065	99
44
Properties=species:S:1:pos:R:3:Z:I:1 energy=-304.0825224427119 field_type=dipole dipole="0.000000 0.000000 0.000000" charge=0
N	-1.062006	-2.074230	-0.996577	7
C	-1.639667	-1.369501	0.154043	6
C	-1.151447	0.089280	0.255203	6
N	0.312704	0.172889	0.162253	7
C	0.758314	1.559459	0.259753	6
C	2.222814	1.611429	0.164653	6
C	3.421063	1.656909	0.091473	6
H	-1.424476	-3.027061	-1.010267	1
H	-0.059797	-2.170161	-0.824317	1
H	-1.370697	-1.911620	1.068183	1
H	-2.731776	-1.380240	0.073713	1
H	-1.497277	0.507470	1.207693	1
H	-1.607677	0.671769	-0.555227	1
H	0.581404	-0.183221	-0.756177	1
H	0.444873	1.992440	1.216583	1
H	0.319374	2.162839	-0.543347	1
H	4.484273	1.691550	0.032363	1
Es	-1.639596	-1.369526	0.153919	99
Es	0.758425	1.559337	0.259734	99
Es	-1.123131	-1.903042	-1.305510	99
Es	-0.324786	0.158181	0.187354	99
Es	0.464038	-0.023482	-0.398990	99
Es	4.114788	1.680094	0.051804	99
Es	0.461345	-0.022206	0.418395	99
Es	-2.388450	-1.373613	0.097970	99
Es	2.864636	1.488469	0.451617	99
Es	-1.061878	-2.074473	-0.996121	99
Es	3.421300	1.656915	0.091451	99
Es	-1.305137	-1.779735	-0.488133	99
Es	-1.151313	0.089248	0.255201	99
Es	2.818620	1.425023	-0.169629	99
Es	2.222550	1.611426	0.164667	99
Es	0.501493	0.794459	0.187121	99
Es	2.813191	1.994385	0.090855	99
Es	0.312424	0.173238	0.161814	99
Es	-1.456227	-1.737451	0.791530	99
Es	1.522485	1.587771	0.207027	99
Es	0.472192	1.973838	-0.287322	99
Es	0.556659	1.849357	0.902811	99
Es	-1.384144	0.378000	0.908767	99
Es	-0.460645	-2.137424	-0.877483	99
Es	-1.278673	-2.650468	-0.985740	99
Es	-1.385414	-0.640193	0.198092	99
Es	-1.468449	0.496081	-0.304127	99
44
Properties=species:S:1:pos:R:3:Z:I:1 energy=-304.0825224427119 field_type=dipole dipole="0.000000 0.000000 0.000000" charge=0
N	-1.062006	-2.074230	-0.996577	7
C	-1.639667	-1.369501	0.154043	6
C	-1.151447	0.089280	0.255203	6
N	0.312704	0.172889	0.162253	7
C	0.758314	1.559459	0.259753	6
C	2.222814	1.611429	0.164653	6
C	3.421063	1.656909	0.091473	6
H	-1.424476	-3.027061	-1.010267	1
H	-0.059797	-2.170161	-0.824317	1
H	-1.370697	-1.911620	1.068183	1
H	-2.731776	-1.380240	0.073713	1
H	-1.497277	0.507470	1.207693	1
H	-1.607677	0.671769	-0.555227	1
H	0.581404	-0.183221	-0.756177	1
H	0.444873	1.992440	1.216583	1
H	0.319374	2.162839	-0.543347	1
H	4.484273	1.691550	0.032363	1
Es	0.758423	1.559336	0.259733	99
Es	3.421303	1.656922	0.091452	99
Es	2.222550	1.611423	0.164663	99
Es	-1.123241	-1.903413	-1.305648	99
Es	1.522423	1.587684	0.206825	99
Es	0.312415	0.173240	0.161808	99
Es	-0.324832	0.158157	0.187367	99
Es	-1.385543	-0.640121	0.198109	99
Es	4.114759	1.680190	0.051981	99
Es	0.464224	-0.023608	-0.398918	99
Es	-1.468429	0.496103	-0.304084	99
Es	-1.456309	-1.737425	0.791534	99
Es	-1.639597	-1.369525	0.153920	99
Es	-1.384143	0.377997	0.908673	99
Es	0.472331	1.973747	-0.287296	99
Es	0.556645	1.849516	0.902835	99
Es	2.817046	1.514025	-0.215614	99
Es	-1.278426	-2.650476	-0.985458	99
Es	0.501473	0.794348	0.187126	99
Es	2.817346	1.990160	0.190851	99
Es	2.862066	1.403703	0.397606	99
Es	-1.061900	-2.074487	-0.996075	99
Es	-0.460652	-2.137268	-0.877685	99
Es	-1.305177	-1.779535	-0.488080	99
Es	-2.388368	-1.373717	0.097917	99
Es	-1.151315	0.089248	0.255200	99
Es	0.461231	-0.022016	0.418329	99
