44
Properties=species:S:1:pos:R:3:Z:I:1 energy=-304.15325208925776 field_type=dipole dipole="0.000000 0.000000 0.000000" charge=0
N	-0.657417	-2.843416	-0.160474	7
C	-0.959427	-1.716966	0.380306	6
N	-0.323897	-0.537576	0.162696	7
C	-0.701937	0.729804	0.761006	6
C	0.071723	1.764294	-0.050924	6
C	1.329263	1.011054	-0.452404	6
C	0.808663	-0.394666	-0.740494	6
H	-1.299587	-3.565956	0.180966	1
H	-1.800847	-1.640686	1.092036	1
H	-0.393947	0.749964	1.812236	1
H	-1.780657	0.908614	0.703586	1
H	-0.498327	2.043424	-0.945454	1
H	0.281983	2.673104	0.519436	1
H	1.836343	1.454764	-1.313264	1
H	2.033893	0.986254	0.387336	1
H	0.469353	-0.476966	-1.779314	1
H	1.584813	-1.145046	-0.557274	1
Es	-0.491405	0.745355	1.486382	99
Es	-0.657774	-2.843258	-0.160138	99
Es	0.071718	1.764253	-0.050905	99
Es	1.674662	1.312364	-1.041180	99
Es	-0.389581	-2.908697	-0.398119	99
Es	-0.319871	1.948838	-0.663335	99
Es	-0.701887	0.729661	0.760918	99
Es	-0.961719	-2.354758	-0.154516	99
Es	0.808521	-0.394638	-0.740365	99
Es	-0.506660	-0.006315	0.420610	99
Es	-0.959386	-1.716770	0.380321	99
Es	0.151215	-0.489576	-0.225511	99
Es	1.081164	0.306616	-0.605968	99
Es	-0.323981	-0.537646	0.162669	99
Es	0.575681	-0.447457	-1.452425	99
Es	1.329224	1.011044	-0.452400	99
Es	1.806940	0.992425	0.126751	99
Es	-1.534356	-1.650403	0.869513	99
Es	0.710536	1.412865	-0.254895	99
Es	-1.053798	-3.268326	0.055941	99
Es	-0.671002	-0.845734	0.036348	99
Es	0.212139	2.383645	0.341861	99
Es	-0.299652	-0.853193	0.420944	99
Es	-0.610730	-2.464475	0.271646	99
Es	1.332520	-0.903326	-0.613542	99
Es	-1.442690	0.844764	0.725080	99
Es	-0.329128	1.256538	0.367905	99
44
Properties=species:S:1:pos:R:3:Z:I:1 energy=-304.15325208925776 field_type=dipole dipole="0.000000 0.000000 0.000000" charge=0
N	-0.657417	-2.843416	-0.160474	7
C	-0.959427	-1.716966	0.380306	6
N	-0.323897	-0.537576	0.162696	7
C	-0.701937	0.729804	0.761006	6
C	0.071723	1.764294	-0.050924	6
C	1.329263	1.011054	-0.452404	6
C	0.808663	-0.394666	-0.740494	6
H	-1.299587	-3.565956	0.180966	1
H	-1.800847	-1.640686	1.092036	1
H	-0.393947	0.749964	1.812236	1
H	-1.780657	0.908614	0.703586	1
H	-0.498327	2.043424	-0.945454	1
H	0.281983	2.673104	0.519436	1
H	1.836343	1.454764	-1.313264	1
H	2.033893	0.986254	0.387336	1
H	0.469353	-0.476966	-1.779314	1
H	1.584813	-1.145046	-0.557274	1
Es	-1.442766	0.844729	0.725116	99
Es	1.674653	1.312388	-1.041116	99
Es	-0.507882	-0.005639	0.431356	99
Es	0.710710	1.413171	-0.254733	99
Es	-1.534792	-1.649213	0.870444	99
Es	-0.962533	-2.354896	-0.155547	99
Es	-0.328973	1.256405	0.367912	99
Es	-1.053419	-3.268251	0.055856	99
Es	0.159620	-0.495966	-0.224412	99
Es	-0.319792	1.948812	-0.663438	99
Es	0.071717	1.764255	-0.050906	99
Es	-0.389776	-2.908817	-0.398023	99
Es	1.806951	0.992400	0.126731	99
Es	1.329224	1.011043	-0.452399	99
Es	-0.360493	-0.589648	0.165597	99
Es	-0.491482	0.745302	1.486383	99
Es	0.211864	2.383535	0.341721	99
Es	-0.701885	0.729662	0.760920	99
Es	-0.336145	-0.588643	0.189642	99
Es	-0.959385	-1.716773	0.380323	99
Es	-0.657778	-2.843264	-0.160142	99
Es	1.081135	0.306679	-0.606061	99
Es	-0.604245	-1.053842	0.252012	99
Es	0.575520	-0.447709	-1.452570	99
Es	1.332554	-0.903280	-0.613540	99
Es	-0.610428	-2.464003	0.272830	99
Es	0.808525	-0.394639	-0.740366	99
44
Properties=species:S:1:pos:R:3:Z:I:1 energy=-304.15325208925776 field_type=dipole dipole="0.000000 0.000000 0.000000" charge=0
N	-0.657417	-2.843416	-0.160474	7
C	-0.959427	-1.716966	0.380306	6
N	-0.323897	-0.537576	0.162696	7
C	-0.701937	0.729804	0.761006	6
C	0.071723	1.764294	-0.050924	6
C	1.329263	1.011054	-0.452404	6
C	0.808663	-0.394666	-0.740494	6
H	-1.299587	-3.565956	0.180966	1
H	-1.800847	-1.640686	1.092036	1
H	-0.393947	0.749964	1.812236	1
H	-1.780657	0.908614	0.703586	1
H	-0.498327	2.043424	-0.945454	1
H	0.281983	2.673104	0.519436	1
H	1.836343	1.454764	-1.313264	1
H	2.033893	0.986254	0.387336	1
H	0.469353	-0.476966	-1.779314	1
H	1.584813	-1.145046	-0.557274	1
Es	1.674678	1.312428	-1.041045	99
Es	-0.389923	-2.908401	-0.397766	99
Es	-0.657763	-2.843270	-0.160154	99
Es	0.212009	2.383637	0.341735	99
Es	-0.610388	-2.463912	0.271596	99
Es	1.806926	0.992354	0.126640	99
Es	-1.053572	-3.268782	0.056041	99
Es	-0.491465	0.745297	1.486317	99
Es	0.575706	-0.447591	-1.452429	99
Es	0.710651	1.413083	-0.254824	99
Es	1.081148	0.306607	-0.606164	99
Es	-1.534581	-1.650356	0.869475	99
Es	-0.675736	-0.865483	0.046287	99
Es	-0.290899	-0.834164	0.415959	99
Es	-0.961683	-2.355129	-0.154800	99
Es	-0.508413	-0.005927	0.418621	99
Es	1.329224	1.011042	-0.452399	99
Es	-0.329132	1.256563	0.367952	99
Es	0.808525	-0.394638	-0.740367	99
Es	-0.701886	0.729660	0.760918	99
Es	-0.324136	-0.537619	0.162483	99
Es	-1.442614	0.844742	0.725187	99
Es	0.071718	1.764253	-0.050905	99
Es	-0.319801	1.948810	-0.663269	99
Es	0.148984	-0.489379	-0.228353	99
Es	-0.959385	-1.716771	0.380323	99
Es	1.332509	-0.903257	-0.613469	99
44
Properties=species:S:1:pos:R:3:Z:I:1 energy=-304.15325208925776 field_type=dipole dipole="0.000000 0.000000 0.000000" charge=0
N	-0.657417	-2.843416	-0.160474	7
C	-0.959427	-1.716966	0.380306	6
N	-0.323897	-0.537576	0.162696	7
C	-0.701937	0.729804	0.761006	6
C	0.071723	1.764294	-0.050924	6
C	1.329263	1.011054	-0.452404	6
C	0.808663	-0.394666	-0.740494	6
H	-1.299587	-3.565956	0.180966	1
H	-1.800847	-1.640686	1.092036	1
H	-0.393947	0.749964	1.812236	1
H	-1.780657	0.908614	0.703586	1
H	-0.498327	2.043424	-0.945454	1
H	0.281983	2.673104	0.519436	1
H	1.836343	1.454764	-1.313264	1
H	2.033893	0.986254	0.387336	1
H	0.469353	-0.476966	-1.779314	1
H	1.584813	-1.145046	-0.557274	1
Es	-0.657774	-2.843255	-0.160139	99
Es	-1.053665	-3.268849	0.055509	99
Es	-0.491559	0.745301	1.486317	99
Es	-0.959385	-1.716771	0.380323	99
Es	0.071718	1.764253	-0.050906	99
Es	-1.442578	0.844670	0.725151	99
Es	-1.534577	-1.650388	0.869584	99
Es	1.806978	0.992415	0.126622	99
Es	-0.390308	-2.908197	-0.397897	99
Es	-0.961565	-2.354316	-0.154367	99
Es	0.808524	-0.394639	-0.740366	99
Es	0.212006	2.383591	0.341716	99
Es	1.674641	1.312322	-1.040990	99
Es	0.710662	1.413139	-0.254932	99
Es	-0.292352	-0.837922	0.417278	99
Es	-0.508252	-0.005974	0.418750	99
Es	-0.319779	1.948874	-0.663196	99
Es	-0.610064	-2.464830	0.271739	99
Es	0.575720	-0.447642	-1.452358	99
Es	-0.324070	-0.537620	0.162557	99
Es	-0.329193	1.256647	0.367961	99
Es	-0.701886	0.729662	0.760919	99
Es	1.329224	1.011043	-0.452399	99
Es	1.332454	-0.903246	-0.613532	99
Es	0.149302	-0.489392	-0.227763	99
Es	-0.674765	-0.861714	0.044197	99
Es	1.081239	0.306635	-0.606191	99
44
Properties=species:S:1:pos:R:3:Z:I:1 energy=-304.15325208925776 field_type=dipole dipole="0.000000 0.000000 0.000000" charge=0
N	-0.657417	-2.843416	-0.160474	7
C	-0.959427	-1.716966	0.380306	6
N	-0.323897	-0.537576	0.162696	7
C	-0.701937	0.729804	0.761006	6
C	0.071723	1.764294	-0.050924	6
C	1.329263	1.011054	-0.452404	6
C	0.808663	-0.394666	-0.740494	6
H	-1.299587	-3.565956	0.180966	1
H	-1.800847	-1.640686	1.092036	1
H	-0.393947	0.749964	1.812236	1
H	-1.780657	0.908614	0.703586	1
H	-0.498327	2.043424	-0.945454	1
H	0.281983	2.673104	0.519436	1
H	1.836343	1.454764	-1.313264	1
H	2.033893	0.986254	0.387336	1
H	0.469353	-0.476966	-1.779314	1
H	1.584813	-1.145046	-0.557274	1
Es	1.329224	1.011043	-0.452399	99
Es	-1.053497	-3.268973	0.055728	99
Es	1.806926	0.992423	0.126637	99
Es	-0.961592	-2.354987	-0.155263	99
Es	-1.442550	0.844615	0.725176	99
Es	-1.534605	-1.650439	0.869606	99
Es	-0.657771	-2.843253	-0.160140	99
Es	0.071719	1.764253	-0.050905	99
Es	-0.319835	1.948940	-0.663112	99
Es	-0.507642	-0.006144	0.419473	99
Es	1.332380	-0.903275	-0.613604	99
Es	-0.959385	-1.716769	0.380323	99
Es	-0.491607	0.745289	1.486294	99
Es	0.710752	1.413193	-0.255083	99
Es	1.081307	0.306730	-0.606194	99
Es	-0.701886	0.729662	0.760919	99
Es	-0.390062	-2.908343	-0.397237	99
Es	0.149911	-0.489538	-0.227220	99
Es	0.808521	-0.394642	-0.740366	99
Es	-0.673809	-0.856977	0.041933	99
Es	0.211975	2.383505	0.341661	99
Es	-0.324114	-0.537613	0.162506	99
Es	-0.329183	1.256742	0.367978	99
Es	-0.294533	-0.842412	0.418366	99
Es	0.575733	-0.447645	-1.452247	99
Es	-0.610382	-2.463873	0.271679	99
Es	1.674702	1.312286	-1.040921	99
44
Properties=species:S:1:pos:R:3:Z:I:1 energy=-304.15325208925776 field_type=dipole dipole="0.000000 0.000000 0.000000" charge=0
N	-0.657417	-2.843416	-0.160474	7
C	-0.959427	-1.716966	0.380306	6
N	-0.323897	-0.537576	0.162696	7
C	-0.701937	0.729804	0.761006	6
C	0.071723	1.764294	-0.050924	6
C	1.329263	1.011054	-0.452404	6
C	0.808663	-0.394666	-0.740494	6
H	-1.299587	-3.565956	0.180966	1
H	-1.800847	-1.640686	1.092036	1
H	-0.393947	0.749964	1.812236	1
H	-1.780657	0.908614	0.703586	1
H	-0.498327	2.043424	-0.945454	1
H	0.281983	2.673104	0.519436	1
H	1.836343	1.454764	-1.313264	1
H	2.033893	0.986254	0.387336	1
H	0.469353	-0.476966	-1.779314	1
H	1.584813	-1.145046	-0.557274	1
Es	-0.491584	0.745267	1.486216	99
Es	-1.534564	-1.650462	0.869699	99
Es	-0.319769	1.948937	-0.663137	99
Es	0.211955	2.383502	0.341626	99
Es	-1.442513	0.844594	0.725290	99
Es	0.710757	1.413301	-0.254933	99
Es	0.575729	-0.447682	-1.452300	99
Es	0.071718	1.764253	-0.050906	99
Es	-1.053445	-3.269150	0.055550	99
Es	-0.506327	-0.006445	0.421108	99
Es	-0.329237	1.256785	0.367961	99
Es	-0.657773	-2.843258	-0.160139	99
Es	1.332345	-0.903185	-0.613616	99
Es	-0.390218	-2.908164	-0.397110	99
Es	-0.961568	-2.354832	-0.155291	99
Es	-0.959386	-1.716772	0.380323	99
Es	-0.670656	-0.844298	0.036082	99
Es	0.808524	-0.394638	-0.740366	99
Es	-0.300424	-0.854602	0.421020	99
Es	-0.610346	-2.464001	0.271688	99
Es	0.151205	-0.489771	-0.225690	99
Es	1.081329	0.306642	-0.606213	99
Es	-0.701890	0.729667	0.760921	99
Es	-0.324027	-0.537611	0.162593	99
Es	1.674643	1.312263	-1.040907	99
Es	1.329226	1.011044	-0.452399	99
Es	1.806992	0.992414	0.126517	99
44
Properties=species:S:1:pos:R:3:Z:I:1 energy=-304.15325208925776 field_type=dipole dipole="0.000000 0.000000 0.000000" charge=0
N	-0.657417	-2.843416	-0.160474	7
C	-0.959427	-1.716966	0.380306	6
N	-0.323897	-0.537576	0.162696	7
C	-0.701937	0.729804	0.761006	6
C	0.071723	1.764294	-0.050924	6
C	1.329263	1.011054	-0.452404	6
C	0.808663	-0.394666	-0.740494	6
H	-1.299587	-3.565956	0.180966	1
H	-1.800847	-1.640686	1.092036	1
H	-0.393947	0.749964	1.812236	1
H	-1.780657	0.908614	0.703586	1
H	-0.498327	2.043424	-0.945454	1
H	0.281983	2.673104	0.519436	1
H	1.836343	1.454764	-1.313264	1
H	2.033893	0.986254	0.387336	1
H	0.469353	-0.476966	-1.779314	1
H	1.584813	-1.145046	-0.557274	1
Es	-0.329658	-0.569687	0.181586	99
Es	-0.962174	-2.354241	-0.155564	99
Es	-0.508536	-0.005674	0.431167	99
Es	-0.491710	0.745265	1.486292	99
Es	0.158796	-0.495862	-0.225682	99
Es	-1.053473	-3.269186	0.055468	99
Es	-0.363087	-0.609924	0.178397	99
Es	-0.329120	1.256804	0.367856	99
Es	-0.610100	-2.464351	0.272512	99
Es	-0.390387	-2.908091	-0.397261	99
Es	1.329223	1.011043	-0.452399	99
Es	1.081385	0.306721	-0.606126	99
Es	1.806950	0.992445	0.126430	99
Es	-0.657774	-2.843264	-0.160140	99
Es	-0.701886	0.729663	0.760920	99
Es	-0.959385	-1.716772	0.380323	99
Es	-0.606546	-1.052808	0.248644	99
Es	1.332340	-0.903288	-0.613650	99
Es	0.808526	-0.394638	-0.740366	99
Es	-1.534956	-1.649309	0.870521	99
Es	-0.319780	1.948955	-0.663053	99
Es	0.575568	-0.447832	-1.452382	99
Es	0.211879	2.383477	0.341618	99
Es	-1.442597	0.844534	0.725212	99
Es	0.071718	1.764253	-0.050906	99
Es	1.674684	1.312225	-1.040869	99
Es	0.710797	1.413339	-0.254963	99
44
Properties=species:S:1:pos:R:3:Z:I:1 energy=-304.15325208925776 field_type=dipole dipole="0.000000 0.000000 0.000000" charge=0
N	-0.657417	-2.843416	-0.160474	7
C	-0.959427	-1.716966	0.380306	6
N	-0.323897	-0.537576	0.162696	7
C	-0.701937	0.729804	0.761006	6
C	0.071723	1.764294	-0.050924	6
C	1.329263	1.011054	-0.452404	6
C	0.808663	-0.394666	-0.740494	6
H	-1.299587	-3.565956	0.180966	1
H	-1.800847	-1.640686	1.092036	1
H	-0.393947	0.749964	1.812236	1
H	-1.780657	0.908614	0.703586	1
H	-0.498327	2.043424	-0.945454	1
H	0.281983	2.673104	0.519436	1
H	1.836343	1.454764	-1.313264	1
H	2.033893	0.986254	0.387336	1
H	0.469353	-0.476966	-1.779314	1
H	1.584813	-1.145046	-0.557274	1
Es	-1.053436	-3.269328	0.055341	99
Es	-0.961380	-2.354157	-0.154731	99
Es	-0.329255	1.256887	0.367989	99
Es	-0.667331	-0.832601	0.031196	99
Es	1.329224	1.011044	-0.452399	99
Es	-0.701886	0.729663	0.760920	99
Es	-0.657775	-2.843258	-0.160141	99
Es	-0.323943	-0.537655	0.162712	99
Es	-1.534648	-1.650484	0.869773	99
Es	1.674664	1.312230	-1.040791	99
Es	0.575732	-0.447781	-1.452206	99
Es	-0.491768	0.745285	1.486174	99
Es	-0.319712	1.948965	-0.663018	99
Es	0.710810	1.413401	-0.254977	99
Es	-0.306745	-0.865639	0.422452	99
Es	-0.390960	-2.907866	-0.397486	99
Es	-1.442465	0.844538	0.725248	99
Es	0.808527	-0.394639	-0.740367	99
Es	0.152760	-0.490126	-0.224261	99
Es	1.332252	-0.903188	-0.613644	99
Es	-0.504917	-0.006840	0.423038	99
Es	1.081494	0.306696	-0.606280	99
Es	-0.609703	-2.464753	0.271686	99
Es	1.806964	0.992456	0.126410	99
Es	-0.959387	-1.716771	0.380325	99
Es	0.211866	2.383464	0.341531	99
Es	0.071718	1.764253	-0.050906	99
44
Properties=species:S:1:pos:R:3:Z:I:1 energy=-304.15325208925776 field_type=dipole dipole="0.000000 0.000000 0.000000" charge=0
N	-0.657417	-2.843416	-0.160474	7
C	-0.959427	-1.716966	0.380306	6
N	-0.323897	-0.537576	0.162696	7
C	-0.701937	0.729804	0.761006	6
C	0.071723	1.764294	-0.050924	6
C	1.329263	1.011054	-0.452404	6
C	0.808663	-0.394666	-0.740494	6
H	-1.299587	-3.565956	0.180966	1
H	-1.800847	-1.640686	1.092036	1
H	-0.393947	0.749964	1.812236	1
H	-1.780657	0.908614	0.703586	1
H	-0.498327	2.043424	-0.945454	1
H	0.281983	2.673104	0.519436	1
H	1.836343	1.454764	-1.313264	1
H	2.033893	0.986254	0.387336	1
H	0.469353	-0.476966	-1.779314	1
H	1.584813	-1.145046	-0.557274	1
Es	0.071718	1.764255	-0.050905	99
Es	-0.701886	0.729664	0.760920	99
Es	-0.390512	-2.907934	-0.396523	99
Es	1.806950	0.992461	0.126343	99
Es	0.710820	1.413474	-0.254993	99
Es	-0.491783	0.745214	1.486161	99
Es	-1.053422	-3.269588	0.055471	99
Es	-0.329262	1.256981	0.367992	99
Es	1.081550	0.306645	-0.606311	99
Es	-0.959385	-1.716772	0.380323	99
Es	-0.610127	-2.463568	0.271601	99
Es	-0.657775	-2.843257	-0.160143	99
Es	-0.509128	-0.006087	0.417937	99
Es	0.211830	2.383467	0.341502	99
Es	-0.290433	-0.834768	0.416960	99
Es	-1.534684	-1.650449	0.869848	99
Es	-1.442385	0.844540	0.725324	99
Es	1.332237	-0.903204	-0.613645	99
Es	0.575836	-0.447768	-1.452156	99
Es	0.808527	-0.394639	-0.740368	99
Es	-0.324134	-0.537700	0.162545	99
Es	1.674685	1.312192	-1.040735	99
Es	1.329225	1.011043	-0.452399	99
Es	-0.961401	-2.354985	-0.155739	99
Es	-0.319708	1.948960	-0.662966	99
Es	-0.675076	-0.865161	0.046242	99
Es	0.148423	-0.489220	-0.228701	99
