41
Properties=species:S:1:pos:R:3:Z:I:1 energy=-306.7515525438032 field_type=dipole dipole="0.000000 0.000000 0.000000" charge=0
C	-0.864432	0.147731	-1.032258	6
C	-0.315622	1.159581	0.030902	6
C	-0.816082	0.104761	1.075942	6
C	-0.349552	-0.924239	-0.010778	6
C	1.139388	-1.032749	-0.047198	6
C	1.788728	0.140021	-0.038138	6
O	1.131528	1.360351	0.001802	8
H	-1.951712	0.169971	-1.173558	1
H	-0.384112	0.165141	-2.015078	1
H	-0.833492	2.122561	0.062382	1
H	-0.291282	0.082551	2.035582	1
H	-1.895862	0.120171	1.267652	1
H	-0.862022	-1.888819	-0.018758	1
H	1.641968	-1.990719	-0.078248	1
H	2.862558	0.263691	-0.060248	1
Es	1.139314	-1.032792	-0.047198	99
Es	1.457056	-0.480760	-0.376157	99
Es	-0.816052	0.104771	1.075848	99
Es	-0.349544	-0.924151	-0.010777	99
Es	-0.655967	1.828621	0.052262	99
Es	0.593274	1.246112	0.012782	99
Es	1.131381	1.359953	0.001715	99
Es	-1.604271	0.168693	-1.105952	99
Es	-0.585134	-0.480661	0.602955	99
Es	-1.551797	0.122085	1.184271	99
Es	-0.535751	0.159715	-1.705856	99
Es	1.352680	0.875124	-0.011656	99
Es	-0.315381	1.159506	0.030895	99
Es	1.472989	-1.678050	-0.068159	99
Es	1.212419	1.469393	0.263206	99
Es	-0.456902	0.089710	1.733651	99
Es	1.197906	1.472736	-0.260819	99
Es	-0.562926	0.694794	0.630738	99
Es	2.515503	0.226550	-0.053104	99
Es	1.788654	0.140353	-0.038124	99
Es	-0.612588	-0.456084	-0.594476	99
Es	0.396192	-0.989495	-0.029289	99
Es	-0.694935	-1.593831	-0.016547	99
Es	1.472309	-0.494844	0.289359	99
Es	-0.864398	0.147736	-1.032168	99
Es	-0.590591	0.719264	-0.575453	99
41
Properties=species:S:1:pos:R:3:Z:I:1 energy=-306.7515525438032 field_type=dipole dipole="0.000000 0.000000 0.000000" charge=0
C	-0.864432	0.147731	-1.032258	6
C	-0.315622	1.159581	0.030902	6
C	-0.816082	0.104761	1.075942	6
C	-0.349552	-0.924239	-0.010778	6
C	1.139388	-1.032749	-0.047198	6
C	1.788728	0.140021	-0.038138	6
O	1.131528	1.360351	0.001802	8
H	-1.951712	0.169971	-1.173558	1
H	-0.384112	0.165141	-2.015078	1
H	-0.833492	2.122561	0.062382	1
H	-0.291282	0.082551	2.035582	1
H	-1.895862	0.120171	1.267652	1
H	-0.862022	-1.888819	-0.018758	1
H	1.641968	-1.990719	-0.078248	1
H	2.862558	0.263691	-0.060248	1
Es	-0.694867	-1.593756	-0.016575	99
Es	1.788655	0.140342	-0.038130	99
Es	1.212982	1.468933	0.261716	99
Es	2.515536	0.226513	-0.053039	99
Es	1.139314	-1.032795	-0.047217	99
Es	-0.612616	-0.456263	-0.594600	99
Es	-0.864397	0.147738	-1.032167	99
Es	1.352664	0.874969	-0.011439	99
Es	-0.590652	0.719394	-0.575472	99
Es	1.131471	1.360180	0.001893	99
Es	-0.562950	0.694878	0.630793	99
Es	1.197954	1.472358	-0.260764	99
Es	-0.535767	0.159801	-1.705738	99
Es	-0.816053	0.104769	1.075850	99
Es	1.472331	-0.494747	0.289209	99
Es	-0.585101	-0.480718	0.603022	99
Es	-0.457024	0.089677	1.733656	99
Es	-1.604209	0.168752	-1.106078	99
Es	-0.315380	1.159508	0.030895	99
Es	-1.551720	0.122018	1.184237	99
Es	1.472966	-1.678013	-0.068103	99
Es	-0.655924	1.828568	0.052355	99
Es	1.457067	-0.480872	-0.376163	99
Es	-0.349544	-0.924152	-0.010776	99
Es	0.396094	-0.989551	-0.029210	99
Es	0.592610	1.246913	0.013790	99
41
Properties=species:S:1:pos:R:3:Z:I:1 energy=-306.7515525438032 field_type=dipole dipole="0.000000 0.000000 0.000000" charge=0
C	-0.864432	0.147731	-1.032258	6
C	-0.315622	1.159581	0.030902	6
C	-0.816082	0.104761	1.075942	6
C	-0.349552	-0.924239	-0.010778	6
C	1.139388	-1.032749	-0.047198	6
C	1.788728	0.140021	-0.038138	6
O	1.131528	1.360351	0.001802	8
H	-1.951712	0.169971	-1.173558	1
H	-0.384112	0.165141	-2.015078	1
H	-0.833492	2.122561	0.062382	1
H	-0.291282	0.082551	2.035582	1
H	-1.895862	0.120171	1.267652	1
H	-0.862022	-1.888819	-0.018758	1
H	1.641968	-1.990719	-0.078248	1
H	2.862558	0.263691	-0.060248	1
Es	-0.315389	1.159505	0.030893	99
Es	-0.864400	0.147735	-1.032170	99
Es	0.592492	1.247421	0.011897	99
Es	-0.349545	-0.924150	-0.010778	99
Es	1.472981	-1.677988	-0.067985	99
Es	-0.655870	1.828492	0.052300	99
Es	-0.816052	0.104772	1.075852	99
Es	0.395955	-0.989581	-0.029239	99
Es	-0.694769	-1.593706	-0.016539	99
Es	-0.562928	0.694930	0.630887	99
Es	-1.604154	0.168762	-1.105998	99
Es	-1.551665	0.122074	1.184203	99
Es	1.131478	1.360205	0.001729	99
Es	2.515596	0.226475	-0.053059	99
Es	1.139314	-1.032792	-0.047199	99
Es	1.351674	0.875127	-0.015435	99
Es	1.788656	0.140342	-0.038130	99
Es	-0.612590	-0.456414	-0.594815	99
Es	-0.535941	0.159864	-1.705747	99
Es	1.211213	1.460803	0.265036	99
Es	-0.457111	0.089659	1.733670	99
Es	1.472298	-0.494604	0.289037	99
Es	-0.585127	-0.480772	0.603135	99
Es	-0.590579	0.719460	-0.575480	99
Es	1.457080	-0.481029	-0.376085	99
Es	1.200821	1.479856	-0.258036	99
41
Properties=species:S:1:pos:R:3:Z:I:1 energy=-306.7515525438032 field_type=dipole dipole="0.000000 0.000000 0.000000" charge=0
C	-0.864432	0.147731	-1.032258	6
C	-0.315622	1.159581	0.030902	6
C	-0.816082	0.104761	1.075942	6
C	-0.349552	-0.924239	-0.010778	6
C	1.139388	-1.032749	-0.047198	6
C	1.788728	0.140021	-0.038138	6
O	1.131528	1.360351	0.001802	8
H	-1.951712	0.169971	-1.173558	1
H	-0.384112	0.165141	-2.015078	1
H	-0.833492	2.122561	0.062382	1
H	-0.291282	0.082551	2.035582	1
H	-1.895862	0.120171	1.267652	1
H	-0.862022	-1.888819	-0.018758	1
H	1.641968	-1.990719	-0.078248	1
H	2.862558	0.263691	-0.060248	1
Es	-1.604054	0.168811	-1.106047	99
Es	1.131405	1.360033	0.001760	99
Es	-0.694702	-1.593641	-0.016488	99
Es	1.457007	-0.481157	-0.376012	99
Es	-0.457142	0.089822	1.733579	99
Es	2.515640	0.226407	-0.053054	99
Es	-0.563075	0.694952	0.630991	99
Es	-0.584935	-0.480855	0.603144	99
Es	-0.864398	0.147736	-1.032168	99
Es	-0.535980	0.159828	-1.705721	99
Es	-0.612700	-0.456526	-0.594892	99
Es	0.592602	1.246599	0.012536	99
Es	1.472340	-0.494454	0.288875	99
Es	1.139314	-1.032794	-0.047193	99
Es	1.788655	0.140346	-0.038124	99
Es	1.210420	1.463891	0.262536	99
Es	-0.590624	0.719554	-0.575515	99
Es	-0.315384	1.159506	0.030894	99
Es	-1.551700	0.122000	1.184264	99
Es	1.353037	0.875177	-0.011845	99
Es	-0.816053	0.104768	1.075849	99
Es	1.200233	1.477751	-0.259768	99
Es	-0.655814	1.828446	0.052307	99
Es	0.395904	-0.989613	-0.029213	99
Es	-0.349545	-0.924151	-0.010776	99
Es	1.472985	-1.677990	-0.067975	99
41
Properties=species:S:1:pos:R:3:Z:I:1 energy=-306.7515525438032 field_type=dipole dipole="0.000000 0.000000 0.000000" charge=0
C	-0.864432	0.147731	-1.032258	6
C	-0.315622	1.159581	0.030902	6
C	-0.816082	0.104761	1.075942	6
C	-0.349552	-0.924239	-0.010778	6
C	1.139388	-1.032749	-0.047198	6
C	1.788728	0.140021	-0.038138	6
O	1.131528	1.360351	0.001802	8
H	-1.951712	0.169971	-1.173558	1
H	-0.384112	0.165141	-2.015078	1
H	-0.833492	2.122561	0.062382	1
H	-0.291282	0.082551	2.035582	1
H	-1.895862	0.120171	1.267652	1
H	-0.862022	-1.888819	-0.018758	1
H	1.641968	-1.990719	-0.078248	1
H	2.862558	0.263691	-0.060248	1
Es	-0.349545	-0.924151	-0.010777	99
Es	1.457104	-0.480997	-0.375836	99
Es	1.473020	-1.677912	-0.067954	99
Es	-0.816052	0.104770	1.075850	99
Es	1.211157	1.464407	0.263430	99
Es	1.200394	1.476979	-0.258890	99
Es	-0.457231	0.089749	1.733546	99
Es	-0.315390	1.159505	0.030895	99
Es	-0.864397	0.147737	-1.032167	99
Es	1.352416	0.875232	-0.012705	99
Es	-0.585058	-0.481028	0.603329	99
Es	-0.694624	-1.593590	-0.016522	99
Es	2.515675	0.226367	-0.053065	99
Es	1.131350	1.359881	0.001540	99
Es	0.592397	1.247020	0.011830	99
Es	-0.655779	1.828372	0.052326	99
Es	-1.551548	0.122051	1.184311	99
Es	1.472248	-0.494626	0.288857	99
Es	1.788654	0.140347	-0.038129	99
Es	-0.590719	0.719687	-0.575708	99
Es	-1.604034	0.168781	-1.106077	99
Es	-0.536042	0.159834	-1.705664	99
Es	1.139312	-1.032794	-0.047196	99
Es	-0.563030	0.695087	0.630936	99
Es	-0.612625	-0.456568	-0.594809	99
Es	0.395785	-0.989691	-0.029406	99
41
Properties=species:S:1:pos:R:3:Z:I:1 energy=-306.7515525438032 field_type=dipole dipole="0.000000 0.000000 0.000000" charge=0
C	-0.864432	0.147731	-1.032258	6
C	-0.315622	1.159581	0.030902	6
C	-0.816082	0.104761	1.075942	6
C	-0.349552	-0.924239	-0.010778	6
C	1.139388	-1.032749	-0.047198	6
C	1.788728	0.140021	-0.038138	6
O	1.131528	1.360351	0.001802	8
H	-1.951712	0.169971	-1.173558	1
H	-0.384112	0.165141	-2.015078	1
H	-0.833492	2.122561	0.062382	1
H	-0.291282	0.082551	2.035582	1
H	-1.895862	0.120171	1.267652	1
H	-0.862022	-1.888819	-0.018758	1
H	1.641968	-1.990719	-0.078248	1
H	2.862558	0.263691	-0.060248	1
Es	-1.604035	0.168881	-1.106078	99
Es	-0.864397	0.147736	-1.032168	99
Es	-0.349546	-0.924150	-0.010776	99
Es	1.131375	1.359975	0.001727	99
Es	1.201536	1.479716	-0.257325	99
Es	-0.457271	0.089725	1.733494	99
Es	1.352641	0.875145	-0.013953	99
Es	1.210008	1.461491	0.264194	99
Es	-0.694524	-1.593527	-0.016505	99
Es	1.788655	0.140344	-0.038132	99
Es	1.473018	-1.677878	-0.068016	99
Es	-1.551503	0.122053	1.184359	99
Es	1.472304	-0.494587	0.288756	99
Es	2.515705	0.226340	-0.053059	99
Es	-0.816049	0.104771	1.075847	99
Es	-0.562994	0.695136	0.630951	99
Es	1.139317	-1.032788	-0.047197	99
Es	0.592136	1.247241	0.010567	99
Es	0.395695	-0.989726	-0.029280	99
Es	-0.655732	1.828313	0.052430	99
Es	1.457058	-0.481051	-0.375794	99
Es	-0.536092	0.159851	-1.705629	99
Es	-0.612691	-0.456739	-0.595023	99
Es	-0.315387	1.159505	0.030897	99
Es	-0.585161	-0.481038	0.603398	99
Es	-0.590624	0.719709	-0.575738	99
41
Properties=species:S:1:pos:R:3:Z:I:1 energy=-306.7515525438032 field_type=dipole dipole="0.000000 0.000000 0.000000" charge=0
C	-0.864432	0.147731	-1.032258	6
C	-0.315622	1.159581	0.030902	6
C	-0.816082	0.104761	1.075942	6
C	-0.349552	-0.924239	-0.010778	6
C	1.139388	-1.032749	-0.047198	6
C	1.788728	0.140021	-0.038138	6
O	1.131528	1.360351	0.001802	8
H	-1.951712	0.169971	-1.173558	1
H	-0.384112	0.165141	-2.015078	1
H	-0.833492	2.122561	0.062382	1
H	-0.291282	0.082551	2.035582	1
H	-1.895862	0.120171	1.267652	1
H	-0.862022	-1.888819	-0.018758	1
H	1.641968	-1.990719	-0.078248	1
H	2.862558	0.263691	-0.060248	1
Es	1.352441	0.875210	-0.011656	99
Es	-1.551484	0.122044	1.184358	99
Es	1.211975	1.466466	0.262371	99
Es	-0.864396	0.147738	-1.032167	99
Es	-0.457314	0.089827	1.733473	99
Es	1.788656	0.140340	-0.038127	99
Es	0.395573	-0.989785	-0.029203	99
Es	1.473091	-1.677860	-0.067999	99
Es	-0.563097	0.695193	0.631026	99
Es	-0.585120	-0.481158	0.603496	99
Es	-0.694466	-1.593477	-0.016540	99
Es	0.592112	1.247275	0.012265	99
Es	1.472273	-0.494542	0.288549	99
Es	1.457013	-0.481066	-0.375679	99
Es	-0.536139	0.159862	-1.705477	99
Es	-0.655678	1.828240	0.052327	99
Es	-0.349546	-0.924150	-0.010776	99
Es	-0.612588	-0.456768	-0.595114	99
Es	-0.816055	0.104770	1.075854	99
Es	2.515766	0.226328	-0.052999	99
Es	1.199839	1.474634	-0.259612	99
Es	-0.315389	1.159506	0.030895	99
Es	1.139317	-1.032796	-0.047208	99
Es	1.131365	1.359979	0.001850	99
Es	-1.604032	0.168818	-1.106195	99
Es	-0.590677	0.719820	-0.575768	99
41
Properties=species:S:1:pos:R:3:Z:I:1 energy=-306.7515525438032 field_type=dipole dipole="0.000000 0.000000 0.000000" charge=0
C	-0.864432	0.147731	-1.032258	6
C	-0.315622	1.159581	0.030902	6
C	-0.816082	0.104761	1.075942	6
C	-0.349552	-0.924239	-0.010778	6
C	1.139388	-1.032749	-0.047198	6
C	1.788728	0.140021	-0.038138	6
O	1.131528	1.360351	0.001802	8
H	-1.951712	0.169971	-1.173558	1
H	-0.384112	0.165141	-2.015078	1
H	-0.833492	2.122561	0.062382	1
H	-0.291282	0.082551	2.035582	1
H	-1.895862	0.120171	1.267652	1
H	-0.862022	-1.888819	-0.018758	1
H	1.641968	-1.990719	-0.078248	1
H	2.862558	0.263691	-0.060248	1
Es	1.473032	-1.677827	-0.068034	99
Es	1.472326	-0.494618	0.288477	99
Es	-0.536226	0.159852	-1.705575	99
Es	1.213094	1.469199	0.261746	99
Es	1.788655	0.140343	-0.038130	99
Es	-0.563021	0.695346	0.631172	99
Es	-0.655611	1.828158	0.052314	99
Es	-1.603860	0.168776	-1.106141	99
Es	-0.816050	0.104769	1.075848	99
Es	1.457020	-0.481035	-0.375583	99
Es	1.352222	0.875424	-0.010664	99
Es	-0.585143	-0.481276	0.603575	99
Es	-1.551432	0.122077	1.184301	99
Es	-0.457496	0.089728	1.733460	99
Es	1.199708	1.471212	-0.259297	99
Es	0.395507	-0.989705	-0.029210	99
Es	-0.694302	-1.593451	-0.016532	99
Es	1.131361	1.359980	0.001764	99
Es	-0.590779	0.719973	-0.575779	99
Es	2.515794	0.226243	-0.053020	99
Es	-0.864396	0.147737	-1.032165	99
Es	-0.612719	-0.456860	-0.595159	99
Es	1.139316	-1.032788	-0.047189	99
Es	0.591372	1.247834	0.011646	99
Es	-0.315389	1.159505	0.030895	99
Es	-0.349547	-0.924150	-0.010776	99
41
Properties=species:S:1:pos:R:3:Z:I:1 energy=-306.7515525438032 field_type=dipole dipole="0.000000 0.000000 0.000000" charge=0
C	-0.864432	0.147731	-1.032258	6
C	-0.315622	1.159581	0.030902	6
C	-0.816082	0.104761	1.075942	6
C	-0.349552	-0.924239	-0.010778	6
C	1.139388	-1.032749	-0.047198	6
C	1.788728	0.140021	-0.038138	6
O	1.131528	1.360351	0.001802	8
H	-1.951712	0.169971	-1.173558	1
H	-0.384112	0.165141	-2.015078	1
H	-0.833492	2.122561	0.062382	1
H	-0.291282	0.082551	2.035582	1
H	-1.895862	0.120171	1.267652	1
H	-0.862022	-1.888819	-0.018758	1
H	1.641968	-1.990719	-0.078248	1
H	2.862558	0.263691	-0.060248	1
Es	1.472249	-0.494640	0.288435	99
Es	1.788656	0.140342	-0.038125	99
Es	2.515831	0.226186	-0.053086	99
Es	1.131403	1.360079	0.001798	99
Es	-1.603837	0.168798	-1.106120	99
Es	1.352745	0.875184	-0.013995	99
Es	-0.655587	1.828118	0.052315	99
Es	0.591576	1.247758	0.011779	99
Es	-0.816049	0.104771	1.075848	99
Es	-0.457492	0.089764	1.733407	99
Es	1.139314	-1.032789	-0.047201	99
Es	-0.864394	0.147737	-1.032164	99
Es	-0.590736	0.720002	-0.575815	99
Es	-0.585163	-0.481356	0.603655	99
Es	1.200516	1.477437	-0.257314	99
Es	-0.349546	-0.924151	-0.010776	99
Es	1.473080	-1.677781	-0.068033	99
Es	-0.612667	-0.456910	-0.595279	99
Es	-0.563053	0.695399	0.631154	99
Es	-1.551373	0.122098	1.184379	99
Es	0.395420	-0.989867	-0.029246	99
Es	1.457045	-0.480982	-0.375410	99
Es	-0.536316	0.159867	-1.705541	99
Es	-0.315390	1.159505	0.030894	99
Es	-0.694324	-1.593369	-0.016540	99
Es	1.211531	1.463246	0.262926	99
41
Properties=species:S:1:pos:R:3:Z:I:1 energy=-306.7515525438032 field_type=dipole dipole="0.000000 0.000000 0.000000" charge=0
C	-0.864432	0.147731	-1.032258	6
C	-0.315622	1.159581	0.030902	6
C	-0.816082	0.104761	1.075942	6
C	-0.349552	-0.924239	-0.010778	6
C	1.139388	-1.032749	-0.047198	6
C	1.788728	0.140021	-0.038138	6
O	1.131528	1.360351	0.001802	8
H	-1.951712	0.169971	-1.173558	1
H	-0.384112	0.165141	-2.015078	1
H	-0.833492	2.122561	0.062382	1
H	-0.291282	0.082551	2.035582	1
H	-1.895862	0.120171	1.267652	1
H	-0.862022	-1.888819	-0.018758	1
H	1.641968	-1.990719	-0.078248	1
H	2.862558	0.263691	-0.060248	1
Es	1.131399	1.360070	0.001799	99
Es	-0.457561	0.089765	1.733377	99
Es	-0.536380	0.159881	-1.705503	99
Es	1.212471	1.465135	0.262548	99
Es	0.395316	-0.989892	-0.029284	99
Es	-1.551324	0.122082	1.184387	99
Es	1.788660	0.140329	-0.038122	99
Es	-0.585140	-0.481455	0.603759	99
Es	-0.349543	-0.924156	-0.010776	99
Es	1.352825	0.875276	-0.013874	99
Es	1.472241	-0.494567	0.288309	99
Es	-0.655543	1.828061	0.052309	99
Es	-0.563079	0.695488	0.631199	99
Es	-0.590745	0.720073	-0.575868	99
Es	1.139317	-1.032788	-0.047199	99
Es	2.515867	0.226145	-0.053016	99
Es	-0.315392	1.159504	0.030895	99
Es	1.457047	-0.481050	-0.375351	99
Es	-0.694248	-1.593319	-0.016564	99
Es	1.473089	-1.677756	-0.068003	99
Es	0.591582	1.247700	0.012438	99
Es	-1.603791	0.168814	-1.106136	99
Es	-0.864392	0.147737	-1.032162	99
Es	1.199505	1.475562	-0.257722	99
Es	-0.816048	0.104771	1.075846	99
Es	-0.612693	-0.456965	-0.595341	99
41
Properties=species:S:1:pos:R:3:Z:I:1 energy=-306.7515525438032 field_type=dipole dipole="0.000000 0.000000 0.000000" charge=0
C	-0.864432	0.147731	-1.032258	6
C	-0.315622	1.159581	0.030902	6
C	-0.816082	0.104761	1.075942	6
C	-0.349552	-0.924239	-0.010778	6
C	1.139388	-1.032749	-0.047198	6
C	1.788728	0.140021	-0.038138	6
O	1.131528	1.360351	0.001802	8
H	-1.951712	0.169971	-1.173558	1
H	-0.384112	0.165141	-2.015078	1
H	-0.833492	2.122561	0.062382	1
H	-0.291282	0.082551	2.035582	1
H	-1.895862	0.120171	1.267652	1
H	-0.862022	-1.888819	-0.018758	1
H	1.641968	-1.990719	-0.078248	1
H	2.862558	0.263691	-0.060248	1
Es	1.353122	0.875097	-0.016098	99
Es	-1.551299	0.122101	1.184468	99
Es	-0.563100	0.695552	0.631274	99
Es	-0.349547	-0.924150	-0.010777	99
Es	-1.603750	0.168832	-1.106150	99
Es	1.210114	1.458928	0.263533	99
Es	-0.590734	0.720122	-0.575875	99
Es	-0.536429	0.159865	-1.705485	99
Es	1.473085	-1.677714	-0.068021	99
Es	1.472253	-0.494612	0.288187	99
Es	0.395230	-0.989944	-0.029072	99
Es	-0.816049	0.104771	1.075848	99
Es	-0.457591	0.089807	1.733284	99
Es	-0.612669	-0.457083	-0.595507	99
Es	1.457054	-0.481014	-0.375352	99
Es	-0.585205	-0.481511	0.603798	99
Es	-0.864389	0.147737	-1.032157	99
Es	1.788656	0.140343	-0.038132	99
Es	-0.655499	1.828001	0.052272	99
Es	2.515884	0.226113	-0.053013	99
Es	-0.315393	1.159504	0.030895	99
Es	1.202059	1.481513	-0.254427	99
Es	-0.694163	-1.593274	-0.016527	99
Es	1.131397	1.359908	0.001658	99
Es	0.591087	1.248342	0.010517	99
Es	1.139315	-1.032787	-0.047196	99
41
Properties=species:S:1:pos:R:3:Z:I:1 energy=-306.7515525438032 field_type=dipole dipole="0.000000 0.000000 0.000000" charge=0
C	-0.864432	0.147731	-1.032258	6
C	-0.315622	1.159581	0.030902	6
C	-0.816082	0.104761	1.075942	6
C	-0.349552	-0.924239	-0.010778	6
C	1.139388	-1.032749	-0.047198	6
C	1.788728	0.140021	-0.038138	6
O	1.131528	1.360351	0.001802	8
H	-1.951712	0.169971	-1.173558	1
H	-0.384112	0.165141	-2.015078	1
H	-0.833492	2.122561	0.062382	1
H	-0.291282	0.082551	2.035582	1
H	-1.895862	0.120171	1.267652	1
H	-0.862022	-1.888819	-0.018758	1
H	1.641968	-1.990719	-0.078248	1
H	2.862558	0.263691	-0.060248	1
Es	-0.585175	-0.481619	0.603867	99
Es	-1.551219	0.122117	1.184414	99
Es	1.214792	1.474847	0.258073	99
Es	-0.694108	-1.593188	-0.016509	99
Es	-1.603804	0.168796	-1.106180	99
Es	1.139316	-1.032786	-0.047197	99
Es	1.197444	1.465633	-0.260178	99
Es	-0.864391	0.147737	-1.032160	99
Es	-0.536489	0.159874	-1.705389	99
Es	1.473123	-1.677670	-0.067962	99
Es	0.591021	1.248263	0.013527	99
Es	-0.349548	-0.924149	-0.010776	99
Es	1.456990	-0.481046	-0.375214	99
Es	1.472276	-0.494571	0.288101	99
Es	1.788655	0.140344	-0.038130	99
Es	-0.655456	1.827950	0.052301	99
Es	0.395148	-0.990029	-0.029182	99
Es	-0.590713	0.720195	-0.575961	99
Es	-0.612672	-0.457079	-0.595603	99
Es	-0.315395	1.159504	0.030895	99
Es	1.131375	1.359955	0.001916	99
Es	-0.816048	0.104771	1.075847	99
Es	1.353175	0.875128	-0.008097	99
Es	2.515925	0.226060	-0.053076	99
Es	-0.457668	0.089794	1.733328	99
Es	-0.563117	0.695615	0.631289	99
41
Properties=species:S:1:pos:R:3:Z:I:1 energy=-306.7515525438032 field_type=dipole dipole="0.000000 0.000000 0.000000" charge=0
C	-0.864432	0.147731	-1.032258	6
C	-0.315622	1.159581	0.030902	6
C	-0.816082	0.104761	1.075942	6
C	-0.349552	-0.924239	-0.010778	6
C	1.139388	-1.032749	-0.047198	6
C	1.788728	0.140021	-0.038138	6
O	1.131528	1.360351	0.001802	8
H	-1.951712	0.169971	-1.173558	1
H	-0.384112	0.165141	-2.015078	1
H	-0.833492	2.122561	0.062382	1
H	-0.291282	0.082551	2.035582	1
H	-1.895862	0.120171	1.267652	1
H	-0.862022	-1.888819	-0.018758	1
H	1.641968	-1.990719	-0.078248	1
H	2.862558	0.263691	-0.060248	1
Es	1.202041	1.481323	-0.254729	99
Es	0.590963	1.248318	0.010813	99
Es	-0.315394	1.159504	0.030895	99
Es	1.472236	-0.494547	0.288007	99
Es	-0.590760	0.720320	-0.575963	99
Es	-0.536640	0.159936	-1.705456	99
Es	1.473139	-1.677657	-0.067998	99
Es	1.788654	0.140343	-0.038130	99
Es	-0.585213	-0.481637	0.603966	99
Es	-0.349550	-0.924149	-0.010774	99
Es	-0.563061	0.695646	0.631341	99
Es	2.515949	0.226022	-0.053062	99
Es	-1.603635	0.168813	-1.106097	99
Es	-0.864397	0.147737	-1.032169	99
Es	-0.612670	-0.457250	-0.595633	99
Es	-1.551216	0.122149	1.184441	99
Es	-0.816048	0.104772	1.075847	99
Es	-0.655412	1.827888	0.052310	99
Es	1.353120	0.875189	-0.015824	99
Es	1.457030	-0.481082	-0.375087	99
Es	1.139315	-1.032786	-0.047201	99
Es	0.395070	-0.990028	-0.029204	99
Es	-0.457713	0.089750	1.733279	99
Es	1.210341	1.459072	0.263200	99
Es	1.131355	1.359963	0.001716	99
Es	-0.694064	-1.593163	-0.016544	99
41
Properties=species:S:1:pos:R:3:Z:I:1 energy=-306.7515525438032 field_type=dipole dipole="0.000000 0.000000 0.000000" charge=0
C	-0.864432	0.147731	-1.032258	6
C	-0.315622	1.159581	0.030902	6
C	-0.816082	0.104761	1.075942	6
C	-0.349552	-0.924239	-0.010778	6
C	1.139388	-1.032749	-0.047198	6
C	1.788728	0.140021	-0.038138	6
O	1.131528	1.360351	0.001802	8
H	-1.951712	0.169971	-1.173558	1
H	-0.384112	0.165141	-2.015078	1
H	-0.833492	2.122561	0.062382	1
H	-0.291282	0.082551	2.035582	1
H	-1.895862	0.120171	1.267652	1
H	-0.862022	-1.888819	-0.018758	1
H	1.641968	-1.990719	-0.078248	1
H	2.862558	0.263691	-0.060248	1
Es	1.473130	-1.677655	-0.067897	99
Es	1.213744	1.468334	0.260142	99
Es	1.199303	1.471409	-0.257664	99
Es	-0.315392	1.159505	0.030895	99
Es	1.788655	0.140342	-0.038129	99
Es	0.395033	-0.990057	-0.029111	99
Es	-0.655373	1.827828	0.052311	99
Es	1.352675	0.874849	-0.011768	99
Es	-0.563086	0.695715	0.631357	99
Es	-1.551144	0.122139	1.184395	99
Es	-0.816048	0.104771	1.075846	99
Es	2.515988	0.226006	-0.052949	99
Es	-0.590826	0.720358	-0.576019	99
Es	-0.457809	0.089806	1.733302	99
Es	-0.585234	-0.481771	0.604074	99
Es	-0.612738	-0.457306	-0.595669	99
Es	1.139315	-1.032786	-0.047196	99
Es	1.131453	1.360090	0.001799	99
Es	-0.693983	-1.593101	-0.016574	99
Es	-1.603588	0.168839	-1.106225	99
Es	-0.864392	0.147737	-1.032162	99
Es	-0.349542	-0.924149	-0.010777	99
Es	-0.536583	0.159921	-1.705375	99
Es	0.590626	1.249213	0.012706	99
Es	1.456982	-0.481278	-0.375167	99
Es	1.472272	-0.494314	0.287803	99
41
Properties=species:S:1:pos:R:3:Z:I:1 energy=-306.7515525438032 field_type=dipole dipole="0.000000 0.000000 0.000000" charge=0
C	-0.864432	0.147731	-1.032258	6
C	-0.315622	1.159581	0.030902	6
C	-0.816082	0.104761	1.075942	6
C	-0.349552	-0.924239	-0.010778	6
C	1.139388	-1.032749	-0.047198	6
C	1.788728	0.140021	-0.038138	6
O	1.131528	1.360351	0.001802	8
H	-1.951712	0.169971	-1.173558	1
H	-0.384112	0.165141	-2.015078	1
H	-0.833492	2.122561	0.062382	1
H	-0.291282	0.082551	2.035582	1
H	-1.895862	0.120171	1.267652	1
H	-0.862022	-1.888819	-0.018758	1
H	1.641968	-1.990719	-0.078248	1
H	2.862558	0.263691	-0.060248	1
Es	1.788655	0.140342	-0.038130	99
Es	-0.349545	-0.924150	-0.010776	99
Es	-0.612665	-0.457376	-0.595765	99
Es	-0.315407	1.159500	0.030896	99
Es	2.516031	0.225936	-0.053067	99
Es	-0.536668	0.159905	-1.705357	99
Es	-0.693944	-1.593034	-0.016540	99
Es	1.353130	0.875259	-0.014096	99
Es	-0.655334	1.827770	0.052262	99
Es	0.590693	1.248534	0.010811	99
Es	-0.864393	0.147737	-1.032163	99
Es	-0.563114	0.695811	0.631392	99
Es	-0.585261	-0.481758	0.604146	99
Es	-0.590830	0.720456	-0.576053	99
Es	-1.603540	0.168777	-1.106216	99
Es	-0.816049	0.104771	1.075847	99
Es	1.473178	-1.677614	-0.067982	99
Es	0.394932	-0.990135	-0.029176	99
Es	1.457015	-0.481024	-0.374878	99
Es	-0.457820	0.089808	1.733216	99
Es	-1.551138	0.122112	1.184467	99
Es	1.139316	-1.032783	-0.047194	99
Es	1.472195	-0.494557	0.287796	99
Es	1.200750	1.476164	-0.255594	99
Es	1.211887	1.464018	0.262253	99
Es	1.131366	1.359981	0.001849	99
41
Properties=species:S:1:pos:R:3:Z:I:1 energy=-306.7515525438032 field_type=dipole dipole="0.000000 0.000000 0.000000" charge=0
C	-0.864432	0.147731	-1.032258	6
C	-0.315622	1.159581	0.030902	6
C	-0.816082	0.104761	1.075942	6
C	-0.349552	-0.924239	-0.010778	6
C	1.139388	-1.032749	-0.047198	6
C	1.788728	0.140021	-0.038138	6
O	1.131528	1.360351	0.001802	8
H	-1.951712	0.169971	-1.173558	1
H	-0.384112	0.165141	-2.015078	1
H	-0.833492	2.122561	0.062382	1
H	-0.291282	0.082551	2.035582	1
H	-1.895862	0.120171	1.267652	1
H	-0.862022	-1.888819	-0.018758	1
H	1.641968	-1.990719	-0.078248	1
H	2.862558	0.263691	-0.060248	1
Es	0.590486	1.248940	0.011866	99
Es	2.516071	0.225912	-0.053057	99
Es	1.353193	0.875039	-0.011189	99
Es	1.212904	1.468052	0.259932	99
Es	-0.457884	0.089809	1.733210	99
Es	-0.590819	0.720488	-0.576071	99
Es	-0.536774	0.159960	-1.705392	99
Es	-0.864393	0.147737	-1.032164	99
Es	1.788655	0.140341	-0.038130	99
Es	-1.551096	0.122117	1.184454	99
Es	1.457008	-0.481039	-0.374809	99
Es	1.131381	1.359983	0.001837	99
Es	-0.315400	1.159502	0.030895	99
Es	1.472161	-0.494525	0.287720	99
Es	-0.563119	0.695844	0.631440	99
Es	-0.612689	-0.457414	-0.595868	99
Es	-0.349549	-0.924148	-0.010776	99
Es	0.394849	-0.990143	-0.029279	99
Es	-0.816047	0.104771	1.075846	99
Es	-1.603537	0.168762	-1.106121	99
Es	-0.655304	1.827725	0.052310	99
Es	1.139316	-1.032783	-0.047197	99
Es	-0.693863	-1.593046	-0.016520	99
Es	-0.585187	-0.481840	0.604188	99
Es	1.473205	-1.677564	-0.067929	99
Es	1.199874	1.471965	-0.257252	99
41
Properties=species:S:1:pos:R:3:Z:I:1 energy=-306.7515525438032 field_type=dipole dipole="0.000000 0.000000 0.000000" charge=0
C	-0.864432	0.147731	-1.032258	6
C	-0.315622	1.159581	0.030902	6
C	-0.816082	0.104761	1.075942	6
C	-0.349552	-0.924239	-0.010778	6
C	1.139388	-1.032749	-0.047198	6
C	1.788728	0.140021	-0.038138	6
O	1.131528	1.360351	0.001802	8
H	-1.951712	0.169971	-1.173558	1
H	-0.384112	0.165141	-2.015078	1
H	-0.833492	2.122561	0.062382	1
H	-0.291282	0.082551	2.035582	1
H	-1.895862	0.120171	1.267652	1
H	-0.862022	-1.888819	-0.018758	1
H	1.641968	-1.990719	-0.078248	1
H	2.862558	0.263691	-0.060248	1
Es	-0.315402	1.159502	0.030895	99
Es	0.394771	-0.990156	-0.029373	99
Es	1.139317	-1.032784	-0.047198	99
Es	-0.590864	0.720596	-0.576182	99
Es	1.200041	1.471427	-0.258301	99
Es	2.516084	0.225863	-0.053124	99
Es	1.352787	0.874964	-0.010015	99
Es	1.788655	0.140340	-0.038132	99
Es	-0.349550	-0.924146	-0.010776	99
Es	-0.563109	0.695901	0.631453	99
Es	1.457028	-0.480908	-0.374586	99
Es	-0.864392	0.147737	-1.032163	99
Es	-0.655254	1.827638	0.052281	99
Es	-0.457969	0.089855	1.733208	99
Es	-0.693846	-1.592995	-0.016608	99
Es	1.473197	-1.677554	-0.068036	99
Es	-0.816046	0.104771	1.075845	99
Es	-0.612757	-0.457365	-0.595743	99
Es	-0.536727	0.159838	-1.705322	99
Es	-1.551023	0.122145	1.184434	99
Es	-0.585214	-0.482012	0.604356	99
Es	1.131375	1.359975	0.001759	99
Es	-1.603485	0.168807	-1.106239	99
Es	0.590540	1.249222	0.012611	99
Es	1.472170	-0.494669	0.287737	99
Es	1.213112	1.468455	0.259165	99
41
Properties=species:S:1:pos:R:3:Z:I:1 energy=-306.7515525438032 field_type=dipole dipole="0.000000 0.000000 0.000000" charge=0
C	-0.864432	0.147731	-1.032258	6
C	-0.315622	1.159581	0.030902	6
C	-0.816082	0.104761	1.075942	6
C	-0.349552	-0.924239	-0.010778	6
C	1.139388	-1.032749	-0.047198	6
C	1.788728	0.140021	-0.038138	6
O	1.131528	1.360351	0.001802	8
H	-1.951712	0.169971	-1.173558	1
H	-0.384112	0.165141	-2.015078	1
H	-0.833492	2.122561	0.062382	1
H	-0.291282	0.082551	2.035582	1
H	-1.895862	0.120171	1.267652	1
H	-0.862022	-1.888819	-0.018758	1
H	1.641968	-1.990719	-0.078248	1
H	2.862558	0.263691	-0.060248	1
Es	-0.563146	0.695972	0.631515	99
Es	-0.315403	1.159501	0.030895	99
Es	1.139317	-1.032781	-0.047197	99
Es	-0.585212	-0.482013	0.604360	99
Es	1.456972	-0.481018	-0.374667	99
Es	-1.603471	0.168868	-1.106238	99
Es	-0.612763	-0.457551	-0.595958	99
Es	1.198824	1.470618	-0.257628	99
Es	-0.655234	1.827669	0.052276	99
Es	-0.590826	0.720549	-0.576140	99
Es	0.590360	1.248984	0.013226	99
Es	-0.349550	-0.924146	-0.010776	99
Es	1.473205	-1.677518	-0.067942	99
Es	1.472184	-0.494529	0.287560	99
Es	1.353263	0.875153	-0.011387	99
Es	1.214009	1.469177	0.259191	99
Es	0.394671	-0.990199	-0.029216	99
Es	2.516112	0.225823	-0.053090	99
Es	-1.550981	0.122133	1.184442	99
Es	-0.816047	0.104771	1.075847	99
Es	1.788655	0.140341	-0.038130	99
Es	-0.864392	0.147736	-1.032164	99
Es	-0.458012	0.089841	1.733188	99
Es	-0.536776	0.159929	-1.705281	99
Es	-0.693734	-1.592957	-0.016549	99
Es	1.131414	1.360093	0.001806	99
41
Properties=species:S:1:pos:R:3:Z:I:1 energy=-306.7515525438032 field_type=dipole dipole="0.000000 0.000000 0.000000" charge=0
C	-0.864432	0.147731	-1.032258	6
C	-0.315622	1.159581	0.030902	6
C	-0.816082	0.104761	1.075942	6
C	-0.349552	-0.924239	-0.010778	6
C	1.139388	-1.032749	-0.047198	6
C	1.788728	0.140021	-0.038138	6
O	1.131528	1.360351	0.001802	8
H	-1.951712	0.169971	-1.173558	1
H	-0.384112	0.165141	-2.015078	1
H	-0.833492	2.122561	0.062382	1
H	-0.291282	0.082551	2.035582	1
H	-1.895862	0.120171	1.267652	1
H	-0.862022	-1.888819	-0.018758	1
H	1.641968	-1.990719	-0.078248	1
H	2.862558	0.263691	-0.060248	1
Es	1.472145	-0.494532	0.287468	99
Es	0.394602	-0.990243	-0.029209	99
Es	-0.816044	0.104771	1.075845	99
Es	1.457008	-0.481017	-0.374481	99
Es	1.788655	0.140341	-0.038130	99
Es	-0.655187	1.827566	0.052291	99
Es	1.473238	-1.677481	-0.068011	99
Es	-0.315395	1.159504	0.030896	99
Es	-0.536867	0.159929	-1.705248	99
Es	-0.612747	-0.457620	-0.596055	99
Es	-0.590850	0.720675	-0.576180	99
Es	-0.563151	0.696048	0.631567	99
Es	0.590132	1.249323	0.010383	99
Es	-1.603415	0.168823	-1.106245	99
Es	-0.349549	-0.924148	-0.010776	99
Es	1.139317	-1.032781	-0.047197	99
Es	-0.585239	-0.482047	0.604391	99
Es	-0.864392	0.147737	-1.032163	99
Es	2.516150	0.225776	-0.053087	99
Es	1.210003	1.455542	0.263201	99
Es	-0.693706	-1.592892	-0.016541	99
Es	1.203244	1.483960	-0.252361	99
Es	-0.458053	0.089827	1.733134	99
Es	1.353103	0.875275	-0.017761	99
Es	1.131397	1.359995	0.001738	99
Es	-1.550960	0.122116	1.184477	99
41
Properties=species:S:1:pos:R:3:Z:I:1 energy=-306.7515525438032 field_type=dipole dipole="0.000000 0.000000 0.000000" charge=0
C	-0.864432	0.147731	-1.032258	6
C	-0.315622	1.159581	0.030902	6
C	-0.816082	0.104761	1.075942	6
C	-0.349552	-0.924239	-0.010778	6
C	1.139388	-1.032749	-0.047198	6
C	1.788728	0.140021	-0.038138	6
O	1.131528	1.360351	0.001802	8
H	-1.951712	0.169971	-1.173558	1
H	-0.384112	0.165141	-2.015078	1
H	-0.833492	2.122561	0.062382	1
H	-0.291282	0.082551	2.035582	1
H	-1.895862	0.120171	1.267652	1
H	-0.862022	-1.888819	-0.018758	1
H	1.641968	-1.990719	-0.078248	1
H	2.862558	0.263691	-0.060248	1
Es	2.516161	0.225737	-0.053074	99
Es	1.139316	-1.032780	-0.047197	99
Es	1.200083	1.472624	-0.256710	99
Es	-0.585176	-0.482042	0.604402	99
Es	0.590063	1.249387	0.012416	99
Es	-1.550942	0.122044	1.184483	99
Es	1.131394	1.359973	0.001857	99
Es	-0.655153	1.827521	0.052283	99
Es	-0.612742	-0.457701	-0.596144	99
Es	-0.349551	-0.924145	-0.010776	99
Es	-0.590848	0.720711	-0.576211	99
Es	-0.458132	0.089795	1.733090	99
Es	1.456968	-0.481026	-0.374406	99
Es	-0.816045	0.104771	1.075841	99
Es	-0.536930	0.159928	-1.705224	99
Es	-0.864390	0.147737	-1.032162	99
Es	-0.693643	-1.592841	-0.016527	99
Es	-0.563194	0.696199	0.631661	99
Es	0.394535	-0.990274	-0.029197	99
Es	1.788653	0.140341	-0.038129	99
Es	1.473263	-1.677465	-0.068000	99
Es	1.213047	1.467049	0.259181	99
Es	1.353316	0.875094	-0.011516	99
Es	-0.315406	1.159501	0.030895	99
Es	-1.603387	0.168829	-1.106231	99
Es	1.472179	-0.494519	0.287340	99
41
Properties=species:S:1:pos:R:3:Z:I:1 energy=-306.7515525438032 field_type=dipole dipole="0.000000 0.000000 0.000000" charge=0
C	-0.864432	0.147731	-1.032258	6
C	-0.315622	1.159581	0.030902	6
C	-0.816082	0.104761	1.075942	6
C	-0.349552	-0.924239	-0.010778	6
C	1.139388	-1.032749	-0.047198	6
C	1.788728	0.140021	-0.038138	6
O	1.131528	1.360351	0.001802	8
H	-1.951712	0.169971	-1.173558	1
H	-0.384112	0.165141	-2.015078	1
H	-0.833492	2.122561	0.062382	1
H	-0.291282	0.082551	2.035582	1
H	-1.895862	0.120171	1.267652	1
H	-0.862022	-1.888819	-0.018758	1
H	1.641968	-1.990719	-0.078248	1
H	2.862558	0.263691	-0.060248	1
Es	1.472202	-0.494476	0.287222	99
Es	-0.563103	0.696166	0.631631	99
Es	-0.655122	1.827453	0.052289	99
Es	-0.864386	0.147734	-1.032156	99
Es	1.456958	-0.481067	-0.374334	99
Es	-0.585279	-0.482139	0.604540	99
Es	1.473239	-1.677421	-0.067976	99
Es	0.394408	-0.990295	-0.029175	99
Es	1.200290	1.471787	-0.256710	99
Es	-0.536967	0.159965	-1.705195	99
Es	-1.550867	0.122161	1.184445	99
Es	-1.603360	0.168848	-1.106250	99
Es	-0.816041	0.104771	1.075838	99
Es	-0.458204	0.089825	1.733119	99
Es	1.131457	1.360131	0.001798	99
Es	2.516209	0.225683	-0.053086	99
Es	0.590067	1.249387	0.011600	99
Es	-0.315410	1.159497	0.030898	99
Es	-0.612723	-0.457800	-0.596254	99
Es	1.788655	0.140340	-0.038130	99
Es	1.212909	1.467676	0.259535	99
Es	1.139317	-1.032785	-0.047206	99
Es	-0.693598	-1.592808	-0.016509	99
Es	1.353196	0.875200	-0.010986	99
Es	-0.349554	-0.924143	-0.010774	99
Es	-0.590856	0.720759	-0.576230	99
