44
Properties=species:S:1:pos:R:3:Z:I:1 energy=-307.9073629641579 field_type=dipole dipole="0.000000 0.000000 0.000000" charge=0
C	-2.466951	0.544595	0.283994	6
C	-1.593611	0.960485	-0.863546	6
C	-0.978271	0.652245	0.472804	6
O	-0.286911	-0.607465	0.569044	8
C	1.130839	-0.388795	0.683504	6
C	1.987379	-1.533975	0.217004	6
C	1.902129	-0.279325	-0.601366	6
H	-3.090071	1.296865	0.750694	1
H	-2.903311	-0.446755	0.260084	1
H	-1.623961	1.996105	-1.178886	1
H	-1.443011	0.250675	-1.668236	1
H	-0.631701	1.483435	1.079854	1
H	1.491349	0.163455	1.546094	1
H	1.488148	-2.420265	-0.156886	1
H	2.904409	-1.731245	0.757534	1
H	2.763238	0.378175	-0.618406	1
H	1.350308	-0.318205	-1.533286	1
Es	1.515145	-1.064977	0.605050	99
Es	-1.109958	0.861496	-0.277182	99
Es	-0.328257	-0.743582	0.298744	99
Es	-1.490039	0.479254	-1.401876	99
Es	-2.756115	-0.122645	0.265097	99
Es	-0.522950	-0.109087	0.534335	99
Es	-1.593647	0.960448	-0.863374	99
Es	2.065302	-0.979894	-0.316210	99
Es	-1.617453	1.666437	-1.073855	99
Es	-0.286750	-0.607139	0.568942	99
Es	-1.750400	0.548243	0.560349	99
Es	1.987330	-1.533804	0.216979	99
Es	2.611004	-1.661121	0.584775	99
Es	1.456790	-0.143958	0.008411	99
Es	1.902096	-0.279422	-0.601215	99
Es	1.130698	-0.388910	0.683353	99
Es	-0.978300	0.652033	0.472712	99
Es	1.526590	-0.307485	-1.225560	99
Es	-2.183209	0.770374	-0.398540	99
Es	-0.729546	1.213220	0.885686	99
Es	1.648926	-2.126066	-0.036073	99
Es	1.367920	-0.003237	1.269849	99
Es	-2.885197	1.060187	0.599579	99
Es	2.489557	0.165440	-0.608538	99
Es	0.249931	-0.491495	0.609624	99
Es	-2.466788	0.544649	0.283918	99
Es	-0.373674	-0.732631	0.835297	99
44
Properties=species:S:1:pos:R:3:Z:I:1 energy=-307.9073629641579 field_type=dipole dipole="0.000000 0.000000 0.000000" charge=0
C	-2.466951	0.544595	0.283994	6
C	-1.593611	0.960485	-0.863546	6
C	-0.978271	0.652245	0.472804	6
O	-0.286911	-0.607465	0.569044	8
C	1.130839	-0.388795	0.683504	6
C	1.987379	-1.533975	0.217004	6
C	1.902129	-0.279325	-0.601366	6
H	-3.090071	1.296865	0.750694	1
H	-2.903311	-0.446755	0.260084	1
H	-1.623961	1.996105	-1.178886	1
H	-1.443011	0.250675	-1.668236	1
H	-0.631701	1.483435	1.079854	1
H	1.491349	0.163455	1.546094	1
H	1.488148	-2.420265	-0.156886	1
H	2.904409	-1.731245	0.757534	1
H	2.763238	0.378175	-0.618406	1
H	1.350308	-0.318205	-1.533286	1
Es	-0.729562	1.213247	0.885632	99
Es	-0.373462	-0.732685	0.836083	99
Es	-2.466795	0.544648	0.283919	99
Es	-2.756118	-0.122505	0.265034	99
Es	-1.593646	0.960448	-0.863376	99
Es	1.987330	-1.533798	0.216976	99
Es	-0.327736	-0.743942	0.298777	99
Es	1.456647	-0.143715	0.008666	99
Es	0.249438	-0.490867	0.609360	99
Es	-1.109909	0.861519	-0.277201	99
Es	2.489465	0.165416	-0.608561	99
Es	2.065437	-0.980031	-0.316582	99
Es	-1.617468	1.666233	-1.073785	99
Es	-2.885203	1.060053	0.599564	99
Es	-1.490048	0.479419	-1.401928	99
Es	2.610979	-1.661141	0.584733	99
Es	1.515314	-1.065048	0.604927	99
Es	-0.523143	-0.109285	0.533671	99
Es	-1.750278	0.548205	0.560628	99
Es	-0.978294	0.652031	0.472711	99
Es	-0.286767	-0.607138	0.569050	99
Es	-2.183373	0.770455	-0.398695	99
Es	1.367909	-0.003411	1.269861	99
Es	1.902097	-0.279424	-0.601215	99
Es	1.130702	-0.388916	0.683353	99
Es	1.526653	-0.307383	-1.225467	99
Es	1.648839	-2.126056	-0.035859	99
44
Properties=species:S:1:pos:R:3:Z:I:1 energy=-307.9073629641579 field_type=dipole dipole="0.000000 0.000000 0.000000" charge=0
C	-2.466951	0.544595	0.283994	6
C	-1.593611	0.960485	-0.863546	6
C	-0.978271	0.652245	0.472804	6
O	-0.286911	-0.607465	0.569044	8
C	1.130839	-0.388795	0.683504	6
C	1.987379	-1.533975	0.217004	6
C	1.902129	-0.279325	-0.601366	6
H	-3.090071	1.296865	0.750694	1
H	-2.903311	-0.446755	0.260084	1
H	-1.623961	1.996105	-1.178886	1
H	-1.443011	0.250675	-1.668236	1
H	-0.631701	1.483435	1.079854	1
H	1.491349	0.163455	1.546094	1
H	1.488148	-2.420265	-0.156886	1
H	2.904409	-1.731245	0.757534	1
H	2.763238	0.378175	-0.618406	1
H	1.350308	-0.318205	-1.533286	1
Es	-0.326902	-0.741073	0.298281	99
Es	2.489506	0.165262	-0.608623	99
Es	-2.466789	0.544648	0.283921	99
Es	1.649013	-2.125964	-0.036039	99
Es	-2.756091	-0.122395	0.265182	99
Es	-0.729622	1.213138	0.885597	99
Es	-2.183694	0.770514	-0.398981	99
Es	-1.617324	1.666229	-1.073895	99
Es	-2.885150	1.059945	0.599543	99
Es	1.987327	-1.533794	0.216979	99
Es	1.902102	-0.279422	-0.601223	99
Es	-1.750169	0.548265	0.560754	99
Es	1.130701	-0.388908	0.683348	99
Es	-0.523447	-0.109060	0.535386	99
Es	0.250050	-0.491399	0.610431	99
Es	-1.593646	0.960448	-0.863375	99
Es	1.515321	-1.065434	0.605040	99
Es	-0.286768	-0.607165	0.569074	99
Es	-0.374553	-0.735206	0.833836	99
Es	-1.109910	0.861548	-0.277154	99
Es	2.610764	-1.661255	0.584733	99
Es	1.526737	-0.307468	-1.225506	99
Es	1.367840	-0.003653	1.269763	99
Es	2.065437	-0.980003	-0.316134	99
Es	1.456616	-0.142905	0.008439	99
Es	-1.490033	0.479402	-1.401805	99
Es	-0.978309	0.652036	0.472706	99
44
Properties=species:S:1:pos:R:3:Z:I:1 energy=-307.9073629641579 field_type=dipole dipole="0.000000 0.000000 0.000000" charge=0
C	-2.466951	0.544595	0.283994	6
C	-1.593611	0.960485	-0.863546	6
C	-0.978271	0.652245	0.472804	6
O	-0.286911	-0.607465	0.569044	8
C	1.130839	-0.388795	0.683504	6
C	1.987379	-1.533975	0.217004	6
C	1.902129	-0.279325	-0.601366	6
H	-3.090071	1.296865	0.750694	1
H	-2.903311	-0.446755	0.260084	1
H	-1.623961	1.996105	-1.178886	1
H	-1.443011	0.250675	-1.668236	1
H	-0.631701	1.483435	1.079854	1
H	1.491349	0.163455	1.546094	1
H	1.488148	-2.420265	-0.156886	1
H	2.904409	-1.731245	0.757534	1
H	2.763238	0.378175	-0.618406	1
H	1.350308	-0.318205	-1.533286	1
Es	-0.328332	-0.744021	0.298835	99
Es	-1.490090	0.479507	-1.401830	99
Es	0.249970	-0.491355	0.609883	99
Es	-2.756142	-0.122311	0.265107	99
Es	2.489324	0.165302	-0.608663	99
Es	-2.183900	0.770625	-0.398913	99
Es	-2.885101	1.059821	0.599553	99
Es	1.367837	-0.003402	1.269691	99
Es	-0.978303	0.652031	0.472714	99
Es	-0.523436	-0.109058	0.534797	99
Es	1.649137	-2.125942	-0.035949	99
Es	1.526861	-0.307424	-1.225399	99
Es	-1.617278	1.666088	-1.073852	99
Es	-2.466786	0.544646	0.283918	99
Es	-0.729588	1.213088	0.885490	99
Es	2.610701	-1.661218	0.584675	99
Es	1.515085	-1.065197	0.605367	99
Es	1.902099	-0.279416	-0.601222	99
Es	-1.593648	0.960449	-0.863379	99
Es	-0.373097	-0.732290	0.834527	99
Es	-0.286751	-0.607169	0.568950	99
Es	2.065768	-0.980241	-0.316515	99
Es	-1.109538	0.861606	-0.277193	99
Es	-1.750362	0.548192	0.560859	99
Es	1.130699	-0.388912	0.683354	99
Es	1.987329	-1.533798	0.216977	99
Es	1.456547	-0.143272	0.008495	99
44
Properties=species:S:1:pos:R:3:Z:I:1 energy=-307.9073629641579 field_type=dipole dipole="0.000000 0.000000 0.000000" charge=0
C	-2.466951	0.544595	0.283994	6
C	-1.593611	0.960485	-0.863546	6
C	-0.978271	0.652245	0.472804	6
O	-0.286911	-0.607465	0.569044	8
C	1.130839	-0.388795	0.683504	6
C	1.987379	-1.533975	0.217004	6
C	1.902129	-0.279325	-0.601366	6
H	-3.090071	1.296865	0.750694	1
H	-2.903311	-0.446755	0.260084	1
H	-1.623961	1.996105	-1.178886	1
H	-1.443011	0.250675	-1.668236	1
H	-0.631701	1.483435	1.079854	1
H	1.491349	0.163455	1.546094	1
H	1.488148	-2.420265	-0.156886	1
H	2.904409	-1.731245	0.757534	1
H	2.763238	0.378175	-0.618406	1
H	1.350308	-0.318205	-1.533286	1
Es	1.130704	-0.388911	0.683349	99
Es	-1.109380	0.861654	-0.277148	99
Es	1.902101	-0.279425	-0.601221	99
Es	1.367787	-0.003493	1.269597	99
Es	-1.750366	0.548189	0.561098	99
Es	1.526894	-0.307318	-1.225319	99
Es	-0.327260	-0.740910	0.298654	99
Es	-2.756115	-0.122180	0.265165	99
Es	2.065890	-0.980326	-0.316761	99
Es	-2.184111	0.770523	-0.399157	99
Es	-0.729597	1.212999	0.885425	99
Es	1.456532	-0.143028	0.008601	99
Es	1.515085	-1.065355	0.605537	99
Es	-1.593646	0.960447	-0.863372	99
Es	0.250254	-0.491478	0.609835	99
Es	-0.286760	-0.607172	0.569022	99
Es	-1.617290	1.666008	-1.073889	99
Es	-0.978308	0.652041	0.472712	99
Es	-2.466786	0.544649	0.283919	99
Es	-0.374009	-0.735368	0.833479	99
Es	2.489220	0.165224	-0.608715	99
Es	1.649208	-2.125860	-0.035870	99
Es	-0.523863	-0.108938	0.535995	99
Es	1.987327	-1.533795	0.216978	99
Es	2.610663	-1.661260	0.584634	99
Es	-2.885122	1.059757	0.599478	99
Es	-1.490043	0.479654	-1.401745	99
44
Properties=species:S:1:pos:R:3:Z:I:1 energy=-307.9073629641579 field_type=dipole dipole="0.000000 0.000000 0.000000" charge=0
C	-2.466951	0.544595	0.283994	6
C	-1.593611	0.960485	-0.863546	6
C	-0.978271	0.652245	0.472804	6
O	-0.286911	-0.607465	0.569044	8
C	1.130839	-0.388795	0.683504	6
C	1.987379	-1.533975	0.217004	6
C	1.902129	-0.279325	-0.601366	6
H	-3.090071	1.296865	0.750694	1
H	-2.903311	-0.446755	0.260084	1
H	-1.623961	1.996105	-1.178886	1
H	-1.443011	0.250675	-1.668236	1
H	-0.631701	1.483435	1.079854	1
H	1.491349	0.163455	1.546094	1
H	1.488148	-2.420265	-0.156886	1
H	2.904409	-1.731245	0.757534	1
H	2.763238	0.378175	-0.618406	1
H	1.350308	-0.318205	-1.533286	1
Es	-2.756077	-0.122100	0.265250	99
Es	-1.490062	0.479691	-1.401719	99
Es	1.367776	-0.003522	1.269500	99
Es	-0.286730	-0.607107	0.569026	99
Es	1.987327	-1.533794	0.216978	99
Es	2.610590	-1.661279	0.584533	99
Es	1.515132	-1.065473	0.605718	99
Es	-0.729635	1.212970	0.885373	99
Es	1.130704	-0.388912	0.683349	99
Es	2.489120	0.165205	-0.608745	99
Es	-0.325560	-0.738597	0.297963	99
Es	0.250002	-0.491644	0.611395	99
Es	-2.184341	0.770589	-0.399290	99
Es	1.649253	-2.125835	-0.035805	99
Es	-1.109269	0.861728	-0.277248	99
Es	1.526945	-0.307275	-1.225266	99
Es	-0.375458	-0.737855	0.832085	99
Es	-0.523890	-0.108615	0.536604	99
Es	-1.617285	1.665890	-1.073921	99
Es	-2.466786	0.544649	0.283919	99
Es	-0.978305	0.652036	0.472706	99
Es	2.066021	-0.980372	-0.316928	99
Es	-2.885084	1.059609	0.599474	99
Es	1.902100	-0.279425	-0.601217	99
Es	-1.750291	0.548212	0.561276	99
Es	-1.593647	0.960448	-0.863375	99
Es	1.456459	-0.142893	0.008642	99
44
Properties=species:S:1:pos:R:3:Z:I:1 energy=-307.9073629641579 field_type=dipole dipole="0.000000 0.000000 0.000000" charge=0
C	-2.466951	0.544595	0.283994	6
C	-1.593611	0.960485	-0.863546	6
C	-0.978271	0.652245	0.472804	6
O	-0.286911	-0.607465	0.569044	8
C	1.130839	-0.388795	0.683504	6
C	1.987379	-1.533975	0.217004	6
C	1.902129	-0.279325	-0.601366	6
H	-3.090071	1.296865	0.750694	1
H	-2.903311	-0.446755	0.260084	1
H	-1.623961	1.996105	-1.178886	1
H	-1.443011	0.250675	-1.668236	1
H	-0.631701	1.483435	1.079854	1
H	1.491349	0.163455	1.546094	1
H	1.488148	-2.420265	-0.156886	1
H	2.904409	-1.731245	0.757534	1
H	2.763238	0.378175	-0.618406	1
H	1.350308	-0.318205	-1.533286	1
Es	-2.756033	-0.121991	0.265248	99
Es	-0.729603	1.212897	0.885261	99
Es	2.066208	-0.980464	-0.317085	99
Es	-2.466788	0.544649	0.283920	99
Es	-0.329073	-0.744198	0.300197	99
Es	1.902099	-0.279427	-0.601215	99
Es	-0.286765	-0.607176	0.569092	99
Es	1.987327	-1.533795	0.216978	99
Es	-0.372513	-0.731823	0.834094	99
Es	-1.109073	0.861787	-0.277204	99
Es	1.456424	-0.142756	0.008637	99
Es	-2.885118	1.059516	0.599447	99
Es	2.610487	-1.661322	0.584500	99
Es	0.250648	-0.491812	0.608954	99
Es	-1.490051	0.479788	-1.401672	99
Es	-2.184489	0.770602	-0.399424	99
Es	-0.978312	0.652040	0.472703	99
Es	1.526992	-0.307239	-1.225183	99
Es	2.489014	0.165190	-0.608806	99
Es	-1.617270	1.665791	-1.073940	99
Es	1.649360	-2.125758	-0.035765	99
Es	1.515076	-1.065584	0.605939	99
Es	-1.750415	0.548212	0.561481	99
Es	1.367731	-0.003517	1.269404	99
Es	-0.523921	-0.108810	0.534739	99
Es	1.130712	-0.388920	0.683350	99
Es	-1.593647	0.960448	-0.863373	99
44
Properties=species:S:1:pos:R:3:Z:I:1 energy=-307.9073629641579 field_type=dipole dipole="0.000000 0.000000 0.000000" charge=0
C	-2.466951	0.544595	0.283994	6
C	-1.593611	0.960485	-0.863546	6
C	-0.978271	0.652245	0.472804	6
O	-0.286911	-0.607465	0.569044	8
C	1.130839	-0.388795	0.683504	6
C	1.987379	-1.533975	0.217004	6
C	1.902129	-0.279325	-0.601366	6
H	-3.090071	1.296865	0.750694	1
H	-2.903311	-0.446755	0.260084	1
H	-1.623961	1.996105	-1.178886	1
H	-1.443011	0.250675	-1.668236	1
H	-0.631701	1.483435	1.079854	1
H	1.491349	0.163455	1.546094	1
H	1.488148	-2.420265	-0.156886	1
H	2.904409	-1.731245	0.757534	1
H	2.763238	0.378175	-0.618406	1
H	1.350308	-0.318205	-1.533286	1
Es	-2.466784	0.544650	0.283918	99
Es	-0.329475	-0.746868	0.301642	99
Es	1.515075	-1.065621	0.606071	99
Es	1.902099	-0.279425	-0.601217	99
Es	1.649412	-2.125738	-0.035711	99
Es	1.456367	-0.142571	0.008690	99
Es	-1.108963	0.861876	-0.277222	99
Es	0.250713	-0.491815	0.609109	99
Es	1.367703	-0.003592	1.269342	99
Es	-2.885045	1.059430	0.599410	99
Es	2.610391	-1.661338	0.584431	99
Es	-1.617243	1.665703	-1.073957	99
Es	-0.524134	-0.108797	0.532500	99
Es	2.066355	-0.980589	-0.317230	99
Es	2.488944	0.165152	-0.608826	99
Es	-1.593647	0.960448	-0.863372	99
Es	-2.184707	0.770633	-0.399548	99
Es	-0.729665	1.212813	0.885231	99
Es	-0.978308	0.652037	0.472705	99
Es	1.527069	-0.307192	-1.225124	99
Es	-1.750382	0.548188	0.561641	99
Es	-0.286747	-0.607194	0.569052	99
Es	-1.490039	0.479861	-1.401633	99
Es	1.130708	-0.388912	0.683346	99
Es	1.987326	-1.533792	0.216978	99
Es	-0.371943	-0.729093	0.834760	99
Es	-2.756076	-0.121924	0.265292	99
44
Properties=species:S:1:pos:R:3:Z:I:1 energy=-307.9073629641579 field_type=dipole dipole="0.000000 0.000000 0.000000" charge=0
C	-2.466951	0.544595	0.283994	6
C	-1.593611	0.960485	-0.863546	6
C	-0.978271	0.652245	0.472804	6
O	-0.286911	-0.607465	0.569044	8
C	1.130839	-0.388795	0.683504	6
C	1.987379	-1.533975	0.217004	6
C	1.902129	-0.279325	-0.601366	6
H	-3.090071	1.296865	0.750694	1
H	-2.903311	-0.446755	0.260084	1
H	-1.623961	1.996105	-1.178886	1
H	-1.443011	0.250675	-1.668236	1
H	-0.631701	1.483435	1.079854	1
H	1.491349	0.163455	1.546094	1
H	1.488148	-2.420265	-0.156886	1
H	2.904409	-1.731245	0.757534	1
H	2.763238	0.378175	-0.618406	1
H	1.350308	-0.318205	-1.533286	1
Es	2.488916	0.165120	-0.608930	99
Es	-1.593646	0.960444	-0.863363	99
Es	-1.108760	0.861897	-0.277241	99
Es	-2.184898	0.770590	-0.399681	99
Es	-1.617254	1.665616	-1.073928	99
Es	1.456309	-0.142403	0.008740	99
Es	1.527129	-0.307199	-1.225003	99
Es	-0.329632	-0.744899	0.301515	99
Es	2.610336	-1.661391	0.584375	99
Es	2.066442	-0.980611	-0.317375	99
Es	1.130723	-0.388917	0.683338	99
Es	-2.756040	-0.121795	0.265293	99
Es	1.649486	-2.125659	-0.035690	99
Es	-0.729670	1.212759	0.885144	99
Es	-1.490056	0.480016	-1.401616	99
Es	-2.885073	1.059330	0.599373	99
Es	-2.466783	0.544650	0.283918	99
Es	1.367675	-0.003630	1.269283	99
Es	1.902095	-0.279433	-0.601203	99
Es	1.987327	-1.533794	0.216977	99
Es	-0.978305	0.652036	0.472705	99
Es	1.515033	-1.065735	0.606243	99
Es	-0.371493	-0.731241	0.834339	99
Es	-1.750394	0.548177	0.561844	99
Es	-0.524570	-0.108722	0.534468	99
Es	0.250862	-0.491744	0.607705	99
Es	-0.286751	-0.607136	0.569049	99
