44
Properties=species:S:1:pos:R:3:Z:I:1 energy=-307.9237742527038 field_type=dipole dipole="0.000000 0.000000 0.000000" charge=0
C	-0.289418	1.366991	-1.566717	6
C	-1.460208	0.523051	-1.143777	6
C	-0.083618	-0.081029	-1.211407	6
C	0.714852	-0.553749	-0.022147	6
C	0.632042	0.150491	1.340003	6
C	0.434602	-1.252169	1.900613	6
O	0.256062	-1.800449	0.573974	8
H	-0.216418	1.647321	-2.611887	1
H	0.060582	2.128001	-0.878907	1
H	-2.177258	0.227191	-1.902007	1
H	-1.903138	0.706101	-0.172397	1
H	0.097122	-0.773929	-2.028417	1
H	1.759412	-0.679499	-0.343077	1
H	-0.223038	0.813681	1.490334	1
H	1.547552	0.654991	1.658664	1
H	1.306632	-1.689279	2.396243	1
H	-0.455758	-1.387719	2.520903	1
Es	0.289622	-0.291918	-0.601577	99
Es	-0.174835	-1.345649	2.331975	99
Es	1.256925	0.498943	1.557273	99
Es	0.034832	-0.542957	-1.772666	99
Es	0.045869	0.599621	1.435713	99
Es	0.681275	-0.109448	0.627713	99
Es	0.632041	0.150460	1.339991	99
Es	0.014075	0.661349	-1.415445	99
Es	0.322928	-1.620151	1.090245	99
Es	0.256165	-1.800153	0.574085	99
Es	0.541146	-0.508716	1.703783	99
Es	0.459117	-2.030363	0.519096	99
Es	-0.289478	1.366829	-1.566656	99
Es	-0.050357	1.877307	-1.094901	99
Es	-0.046759	-1.812809	0.526135	99
Es	0.428906	-1.342834	0.320823	99
Es	-1.752851	0.650431	-0.481887	99
Es	1.037756	-1.546211	2.244074	99
Es	0.714743	-0.553903	-0.022052	99
Es	-0.988065	1.094802	-1.377462	99
Es	-0.844357	0.057685	-1.107826	99
Es	0.434580	-1.252222	1.900397	99
Es	-0.083715	-0.080875	-1.211389	99
Es	1.435296	-0.634087	-0.244572	99
Es	-1.941485	0.323052	-1.660570	99
Es	-1.460023	0.523078	-1.143808	99
Es	-0.239527	1.553527	-2.275118	99
44
Properties=species:S:1:pos:R:3:Z:I:1 energy=-307.9237742527038 field_type=dipole dipole="0.000000 0.000000 0.000000" charge=0
C	-0.289418	1.366991	-1.566717	6
C	-1.460208	0.523051	-1.143777	6
C	-0.083618	-0.081029	-1.211407	6
C	0.714852	-0.553749	-0.022147	6
C	0.632042	0.150491	1.340003	6
C	0.434602	-1.252169	1.900613	6
O	0.256062	-1.800449	0.573974	8
H	-0.216418	1.647321	-2.611887	1
H	0.060582	2.128001	-0.878907	1
H	-2.177258	0.227191	-1.902007	1
H	-1.903138	0.706101	-0.172397	1
H	0.097122	-0.773929	-2.028417	1
H	1.759412	-0.679499	-0.343077	1
H	-0.223038	0.813681	1.490334	1
H	1.547552	0.654991	1.658664	1
H	1.306632	-1.689279	2.396243	1
H	-0.455758	-1.387719	2.520903	1
Es	0.632040	0.150457	1.339990	99
Es	0.714742	-0.553904	-0.022051	99
Es	1.435236	-0.634090	-0.244560	99
Es	-0.844416	0.057721	-1.107907	99
Es	0.045950	0.599603	1.435635	99
Es	-0.050509	1.877354	-1.094976	99
Es	0.034874	-0.542952	-1.772616	99
Es	-0.083706	-0.080878	-1.211393	99
Es	-0.239580	1.553557	-2.275002	99
Es	-0.044635	-1.811528	0.528385	99
Es	-1.752827	0.650299	-0.481941	99
Es	-0.988360	1.094831	-1.377401	99
Es	0.541130	-0.508552	1.704006	99
Es	0.457174	-2.031728	0.517234	99
Es	0.289687	-0.291883	-0.601684	99
Es	-0.174795	-1.345639	2.331835	99
Es	1.256889	0.499010	1.557218	99
Es	-0.289475	1.366823	-1.566657	99
Es	0.324301	-1.620995	1.090891	99
Es	0.434581	-1.252222	1.900395	99
Es	1.037636	-1.546272	2.244202	99
Es	0.256214	-1.800109	0.574106	99
Es	0.427329	-1.342024	0.319746	99
Es	-1.460023	0.523079	-1.143809	99
Es	0.014546	0.661151	-1.415461	99
Es	0.681306	-0.109518	0.627668	99
Es	-1.941486	0.323199	-1.660481	99
44
Properties=species:S:1:pos:R:3:Z:I:1 energy=-307.9237742527038 field_type=dipole dipole="0.000000 0.000000 0.000000" charge=0
C	-0.289418	1.366991	-1.566717	6
C	-1.460208	0.523051	-1.143777	6
C	-0.083618	-0.081029	-1.211407	6
C	0.714852	-0.553749	-0.022147	6
C	0.632042	0.150491	1.340003	6
C	0.434602	-1.252169	1.900613	6
O	0.256062	-1.800449	0.573974	8
H	-0.216418	1.647321	-2.611887	1
H	0.060582	2.128001	-0.878907	1
H	-2.177258	0.227191	-1.902007	1
H	-1.903138	0.706101	-0.172397	1
H	0.097122	-0.773929	-2.028417	1
H	1.759412	-0.679499	-0.343077	1
H	-0.223038	0.813681	1.490334	1
H	1.547552	0.654991	1.658664	1
H	1.306632	-1.689279	2.396243	1
H	-0.455758	-1.387719	2.520903	1
Es	-0.844541	0.057356	-1.107808	99
Es	1.256787	0.499066	1.557258	99
Es	0.434581	-1.252220	1.900400	99
Es	1.435190	-0.634073	-0.244505	99
Es	0.714745	-0.553904	-0.022050	99
Es	-0.050618	1.877298	-1.095037	99
Es	0.014737	0.661241	-1.415432	99
Es	-1.752903	0.650220	-0.482132	99
Es	-0.988266	1.095097	-1.377419	99
Es	-0.239624	1.553657	-2.274920	99
Es	0.034944	-0.542863	-1.772581	99
Es	0.681273	-0.109360	0.627544	99
Es	-0.289471	1.366828	-1.566658	99
Es	0.632040	0.150459	1.339993	99
Es	1.037640	-1.546231	2.244108	99
Es	-0.174751	-1.345644	2.331935	99
Es	0.541181	-0.508606	1.704025	99
Es	0.256174	-1.800170	0.574088	99
Es	0.429027	-1.342330	0.320588	99
Es	0.046013	0.599507	1.435702	99
Es	-1.460020	0.523078	-1.143809	99
Es	0.321782	-1.620692	1.090815	99
Es	0.458869	-2.029856	0.519317	99
Es	0.289672	-0.292041	-0.601791	99
Es	-0.083708	-0.080881	-1.211393	99
Es	-0.045530	-1.813389	0.525550	99
Es	-1.941398	0.323240	-1.660415	99
44
Properties=species:S:1:pos:R:3:Z:I:1 energy=-307.9237742527038 field_type=dipole dipole="0.000000 0.000000 0.000000" charge=0
C	-0.289418	1.366991	-1.566717	6
C	-1.460208	0.523051	-1.143777	6
C	-0.083618	-0.081029	-1.211407	6
C	0.714852	-0.553749	-0.022147	6
C	0.632042	0.150491	1.340003	6
C	0.434602	-1.252169	1.900613	6
O	0.256062	-1.800449	0.573974	8
H	-0.216418	1.647321	-2.611887	1
H	0.060582	2.128001	-0.878907	1
H	-2.177258	0.227191	-1.902007	1
H	-1.903138	0.706101	-0.172397	1
H	0.097122	-0.773929	-2.028417	1
H	1.759412	-0.679499	-0.343077	1
H	-0.223038	0.813681	1.490334	1
H	1.547552	0.654991	1.658664	1
H	1.306632	-1.689279	2.396243	1
H	-0.455758	-1.387719	2.520903	1
Es	-0.289477	1.366823	-1.566654	99
Es	-1.460026	0.523079	-1.143809	99
Es	-0.174692	-1.345671	2.331944	99
Es	0.034946	-0.542777	-1.772489	99
Es	-0.844591	0.057238	-1.107953	99
Es	1.037587	-1.546206	2.244100	99
Es	-0.045737	-1.812311	0.526188	99
Es	0.014920	0.661279	-1.415555	99
Es	0.434581	-1.252219	1.900401	99
Es	-1.752859	0.650144	-0.482163	99
Es	0.323205	-1.621220	1.091131	99
Es	0.429948	-1.342781	0.320062	99
Es	1.256679	0.499014	1.557214	99
Es	-0.083701	-0.080880	-1.211393	99
Es	1.435189	-0.634076	-0.244601	99
Es	0.046015	0.599593	1.435674	99
Es	0.256075	-1.800086	0.574111	99
Es	-0.050519	1.877292	-1.095161	99
Es	-1.941383	0.323270	-1.660211	99
Es	-0.239562	1.553586	-2.274755	99
Es	0.289606	-0.292017	-0.601658	99
Es	0.456815	-2.030103	0.518840	99
Es	0.714743	-0.553904	-0.022052	99
Es	0.541216	-0.508615	1.704119	99
Es	-0.988625	1.095275	-1.377493	99
Es	0.632041	0.150458	1.339991	99
Es	0.681431	-0.109398	0.627546	99
44
Properties=species:S:1:pos:R:3:Z:I:1 energy=-307.9237742527038 field_type=dipole dipole="0.000000 0.000000 0.000000" charge=0
C	-0.289418	1.366991	-1.566717	6
C	-1.460208	0.523051	-1.143777	6
C	-0.083618	-0.081029	-1.211407	6
C	0.714852	-0.553749	-0.022147	6
C	0.632042	0.150491	1.340003	6
C	0.434602	-1.252169	1.900613	6
O	0.256062	-1.800449	0.573974	8
H	-0.216418	1.647321	-2.611887	1
H	0.060582	2.128001	-0.878907	1
H	-2.177258	0.227191	-1.902007	1
H	-1.903138	0.706101	-0.172397	1
H	0.097122	-0.773929	-2.028417	1
H	1.759412	-0.679499	-0.343077	1
H	-0.223038	0.813681	1.490334	1
H	1.547552	0.654991	1.658664	1
H	1.306632	-1.689279	2.396243	1
H	-0.455758	-1.387719	2.520903	1
Es	1.256670	0.499072	1.557234	99
Es	0.015000	0.661126	-1.415418	99
Es	0.541326	-0.508480	1.704121	99
Es	1.434972	-0.634016	-0.244460	99
Es	-1.460022	0.523078	-1.143810	99
Es	-0.083711	-0.080877	-1.211393	99
Es	-0.289483	1.366826	-1.566655	99
Es	0.035009	-0.542774	-1.772434	99
Es	0.429600	-1.342786	0.319482	99
Es	-0.844645	0.056929	-1.107792	99
Es	0.714746	-0.553907	-0.022050	99
Es	-0.988758	1.095746	-1.377605	99
Es	0.455671	-2.031428	0.518058	99
Es	0.632041	0.150456	1.339991	99
Es	0.289745	-0.292083	-0.602006	99
Es	-0.050520	1.877202	-1.095361	99
Es	-1.941332	0.323261	-1.660102	99
Es	0.046091	0.599450	1.435862	99
Es	-0.239502	1.553581	-2.274654	99
Es	0.434581	-1.252219	1.900400	99
Es	-1.752888	0.650195	-0.482244	99
Es	0.256217	-1.800170	0.574094	99
Es	1.037454	-1.546279	2.244145	99
Es	0.323668	-1.621334	1.091311	99
Es	-0.044804	-1.810932	0.527362	99
Es	0.681304	-0.109152	0.627433	99
Es	-0.174606	-1.345696	2.331867	99
44
Properties=species:S:1:pos:R:3:Z:I:1 energy=-307.9237742527038 field_type=dipole dipole="0.000000 0.000000 0.000000" charge=0
C	-0.289418	1.366991	-1.566717	6
C	-1.460208	0.523051	-1.143777	6
C	-0.083618	-0.081029	-1.211407	6
C	0.714852	-0.553749	-0.022147	6
C	0.632042	0.150491	1.340003	6
C	0.434602	-1.252169	1.900613	6
O	0.256062	-1.800449	0.573974	8
H	-0.216418	1.647321	-2.611887	1
H	0.060582	2.128001	-0.878907	1
H	-2.177258	0.227191	-1.902007	1
H	-1.903138	0.706101	-0.172397	1
H	0.097122	-0.773929	-2.028417	1
H	1.759412	-0.679499	-0.343077	1
H	-0.223038	0.813681	1.490334	1
H	1.547552	0.654991	1.658664	1
H	1.306632	-1.689279	2.396243	1
H	-0.455758	-1.387719	2.520903	1
Es	-0.083714	-0.080874	-1.211395	99
Es	0.034908	-0.542807	-1.772319	99
Es	-0.044714	-1.814093	0.525842	99
Es	-0.174546	-1.345744	2.331883	99
Es	-0.988778	1.095703	-1.377594	99
Es	0.289746	-0.292085	-0.601918	99
Es	1.037443	-1.546246	2.244118	99
Es	-0.844782	0.056705	-1.107619	99
Es	-0.239504	1.553651	-2.274529	99
Es	-1.460019	0.523079	-1.143810	99
Es	0.541172	-0.508500	1.704302	99
Es	1.435066	-0.634020	-0.244566	99
Es	0.434581	-1.252219	1.900402	99
Es	0.714744	-0.553904	-0.022051	99
Es	0.457332	-2.028833	0.519480	99
Es	0.256210	-1.800164	0.574118	99
Es	-1.941375	0.323368	-1.660051	99
Es	-0.050575	1.877155	-1.095411	99
Es	1.256582	0.499024	1.557227	99
Es	-0.289478	1.366823	-1.566654	99
Es	0.681356	-0.109174	0.627425	99
Es	0.322369	-1.621073	1.091604	99
Es	-1.752858	0.650255	-0.482414	99
Es	0.429102	-1.342499	0.319202	99
Es	0.015312	0.661254	-1.415617	99
Es	0.632041	0.150458	1.339992	99
Es	0.046202	0.599549	1.435725	99
44
Properties=species:S:1:pos:R:3:Z:I:1 energy=-307.9237742527038 field_type=dipole dipole="0.000000 0.000000 0.000000" charge=0
C	-0.289418	1.366991	-1.566717	6
C	-1.460208	0.523051	-1.143777	6
C	-0.083618	-0.081029	-1.211407	6
C	0.714852	-0.553749	-0.022147	6
C	0.632042	0.150491	1.340003	6
C	0.434602	-1.252169	1.900613	6
O	0.256062	-1.800449	0.573974	8
H	-0.216418	1.647321	-2.611887	1
H	0.060582	2.128001	-0.878907	1
H	-2.177258	0.227191	-1.902007	1
H	-1.903138	0.706101	-0.172397	1
H	0.097122	-0.773929	-2.028417	1
H	1.759412	-0.679499	-0.343077	1
H	-0.223038	0.813681	1.490334	1
H	1.547552	0.654991	1.658664	1
H	1.306632	-1.689279	2.396243	1
H	-0.455758	-1.387719	2.520903	1
Es	0.429410	-1.342603	0.318987	99
Es	0.015635	0.661193	-1.415660	99
Es	1.037366	-1.546230	2.244104	99
Es	-0.239494	1.553686	-2.274446	99
Es	-0.044193	-1.813448	0.525967	99
Es	-0.289477	1.366821	-1.566654	99
Es	-0.844778	0.056725	-1.107664	99
Es	0.541146	-0.508495	1.704402	99
Es	0.256179	-1.800176	0.574114	99
Es	0.034904	-0.542812	-1.772233	99
Es	-0.083712	-0.080876	-1.211394	99
Es	0.456682	-2.029319	0.519400	99
Es	0.289721	-0.292153	-0.601964	99
Es	0.632041	0.150457	1.339991	99
Es	0.046275	0.599579	1.435707	99
Es	1.435031	-0.634034	-0.244576	99
Es	-1.460022	0.523083	-1.143811	99
Es	-0.050599	1.877100	-1.095489	99
Es	0.322192	-1.621165	1.091774	99
Es	0.681378	-0.109058	0.627401	99
Es	0.714745	-0.553902	-0.022051	99
Es	-0.174479	-1.345797	2.331885	99
Es	1.256543	0.499007	1.557205	99
Es	-0.989068	1.095908	-1.377615	99
Es	-1.941335	0.323351	-1.659912	99
Es	0.434580	-1.252218	1.900400	99
Es	-1.752846	0.650165	-0.482494	99
44
Properties=species:S:1:pos:R:3:Z:I:1 energy=-307.9237742527038 field_type=dipole dipole="0.000000 0.000000 0.000000" charge=0
C	-0.289418	1.366991	-1.566717	6
C	-1.460208	0.523051	-1.143777	6
C	-0.083618	-0.081029	-1.211407	6
C	0.714852	-0.553749	-0.022147	6
C	0.632042	0.150491	1.340003	6
C	0.434602	-1.252169	1.900613	6
O	0.256062	-1.800449	0.573974	8
H	-0.216418	1.647321	-2.611887	1
H	0.060582	2.128001	-0.878907	1
H	-2.177258	0.227191	-1.902007	1
H	-1.903138	0.706101	-0.172397	1
H	0.097122	-0.773929	-2.028417	1
H	1.759412	-0.679499	-0.343077	1
H	-0.223038	0.813681	1.490334	1
H	1.547552	0.654991	1.658664	1
H	1.306632	-1.689279	2.396243	1
H	-0.455758	-1.387719	2.520903	1
Es	-0.043949	-1.812282	0.526858	99
Es	0.541247	-0.508456	1.704483	99
Es	0.434581	-1.252219	1.900401	99
Es	-0.289476	1.366819	-1.566654	99
Es	0.046322	0.599538	1.435744	99
Es	-0.083714	-0.080874	-1.211394	99
Es	0.034890	-0.542783	-1.772109	99
Es	-1.460019	0.523078	-1.143810	99
Es	-0.174472	-1.345763	2.331850	99
Es	-1.752782	0.650081	-0.482551	99
Es	0.323334	-1.622053	1.092070	99
Es	0.015767	0.661174	-1.415762	99
Es	1.434965	-0.634025	-0.244582	99
Es	-0.989216	1.096140	-1.377555	99
Es	-0.844790	0.056484	-1.107685	99
Es	-0.050547	1.877121	-1.095617	99
Es	0.714745	-0.553901	-0.022052	99
Es	-1.941369	0.323454	-1.659807	99
Es	0.632041	0.150457	1.339991	99
Es	0.455143	-2.029849	0.518345	99
Es	0.256199	-1.800174	0.574098	99
Es	-0.239567	1.553636	-2.274357	99
Es	0.289786	-0.292155	-0.602041	99
Es	1.256454	0.499037	1.557199	99
Es	0.681404	-0.109021	0.627318	99
Es	1.037302	-1.546285	2.244131	99
Es	0.429543	-1.342388	0.318861	99
44
Properties=species:S:1:pos:R:3:Z:I:1 energy=-307.9237742527038 field_type=dipole dipole="0.000000 0.000000 0.000000" charge=0
C	-0.289418	1.366991	-1.566717	6
C	-1.460208	0.523051	-1.143777	6
C	-0.083618	-0.081029	-1.211407	6
C	0.714852	-0.553749	-0.022147	6
C	0.632042	0.150491	1.340003	6
C	0.434602	-1.252169	1.900613	6
O	0.256062	-1.800449	0.573974	8
H	-0.216418	1.647321	-2.611887	1
H	0.060582	2.128001	-0.878907	1
H	-2.177258	0.227191	-1.902007	1
H	-1.903138	0.706101	-0.172397	1
H	0.097122	-0.773929	-2.028417	1
H	1.759412	-0.679499	-0.343077	1
H	-0.223038	0.813681	1.490334	1
H	1.547552	0.654991	1.658664	1
H	1.306632	-1.689279	2.396243	1
H	-0.455758	-1.387719	2.520903	1
Es	-1.460024	0.523079	-1.143808	99
Es	-0.043486	-1.813266	0.526748	99
Es	0.455211	-2.029094	0.518872	99
Es	-0.050580	1.877020	-1.095697	99
Es	0.256175	-1.800168	0.574103	99
Es	-0.989246	1.096380	-1.377632	99
Es	0.632041	0.150452	1.339992	99
Es	0.714749	-0.553898	-0.022053	99
Es	0.541191	-0.508433	1.704636	99
Es	0.015846	0.661220	-1.415757	99
Es	-1.752845	0.650103	-0.482706	99
Es	-0.844903	0.056143	-1.107494	99
Es	0.289735	-0.292111	-0.602090	99
Es	-0.289477	1.366820	-1.566654	99
Es	-0.174389	-1.345819	2.331860	99
Es	1.434827	-0.634056	-0.244684	99
Es	-1.941298	0.323486	-1.659751	99
Es	1.256419	0.498976	1.557090	99
Es	-0.239503	1.553707	-2.274219	99
Es	0.046443	0.599611	1.435799	99
Es	0.323112	-1.621819	1.092305	99
Es	1.037275	-1.546245	2.244110	99
Es	0.434581	-1.252218	1.900402	99
Es	0.429254	-1.342470	0.318163	99
Es	0.681513	-0.109016	0.627324	99
Es	0.034908	-0.542721	-1.772092	99
Es	-0.083706	-0.080875	-1.211395	99
