42
Properties=species:S:1:pos:R:3:Z:I:1 energy=-343.78143576207907 field_type=dipole dipole="0.000000 0.000000 0.000000" charge=0
C	1.773577	0.141927	-0.741818	6
C	1.766617	-0.114523	0.743362	6
C	0.488407	0.005077	-0.006968	6
O	-0.316283	1.169917	0.195432	8
C	-1.644953	0.737217	-0.127018	6
C	-1.630483	-0.764233	0.126602	6
O	-0.299263	-1.171333	-0.209398	8
H	2.056277	1.128807	-1.085648	1
H	2.069817	-0.668013	-1.395978	1
H	2.057477	-1.097453	1.091152	1
H	2.042977	0.699377	1.401592	1
H	-2.381823	1.262007	0.486732	1
H	-1.824023	0.960517	-1.184568	1
H	-2.364483	-1.300533	-0.478728	1
H	-1.793833	-0.988753	1.185252	1
Es	-1.750781	-0.910825	0.855241	99
Es	1.766564	-0.114493	0.743191	99
Es	1.045405	-0.083486	0.550505	99
Es	-0.811695	0.990205	0.069469	99
Es	-1.630272	-0.764266	0.126531	99
Es	-0.014102	-0.709605	-0.123305	99
Es	-2.131623	-1.126606	-0.286696	99
Es	-1.644737	0.737256	-0.126949	99
Es	1.973153	-0.407440	-1.177502	99
Es	0.488276	0.005075	-0.006963	99
Es	1.960628	-0.778549	0.971755	99
Es	1.048681	0.101073	-0.558759	99
Es	-0.024347	0.712726	0.108504	99
Es	-0.795855	-1.001942	-0.076294	99
Es	-0.298268	-1.216527	-0.510872	99
Es	-1.662526	-0.013540	-0.000093	99
Es	1.947867	0.014842	0.002180	99
Es	-0.229473	1.372932	-0.011066	99
Es	-0.299366	-1.171035	-0.209312	99
Es	-1.775773	0.882537	-0.854605	99
Es	1.961911	0.808416	-0.967594	99
Es	-0.311714	1.217921	0.496573	99
Es	-0.316382	1.169608	0.195322	99
Es	1.952927	0.437586	1.181903	99
Es	-2.148092	1.091535	0.292017	99
Es	-0.205745	-1.374657	-0.006411	99
Es	1.773523	0.141896	-0.741650	99
42
Properties=species:S:1:pos:R:3:Z:I:1 energy=-343.78143576207907 field_type=dipole dipole="0.000000 0.000000 0.000000" charge=0
C	1.773577	0.141927	-0.741818	6
C	1.766617	-0.114523	0.743362	6
C	0.488407	0.005077	-0.006968	6
O	-0.316283	1.169917	0.195432	8
C	-1.644953	0.737217	-0.127018	6
C	-1.630483	-0.764233	0.126602	6
O	-0.299263	-1.171333	-0.209398	8
H	2.056277	1.128807	-1.085648	1
H	2.069817	-0.668013	-1.395978	1
H	2.057477	-1.097453	1.091152	1
H	2.042977	0.699377	1.401592	1
H	-2.381823	1.262007	0.486732	1
H	-1.824023	0.960517	-1.184568	1
H	-2.364483	-1.300533	-0.478728	1
H	-1.793833	-0.988753	1.185252	1
Es	-0.811730	0.991284	0.067348	99
Es	-0.299361	-1.170997	-0.209305	99
Es	1.766562	-0.114494	0.743191	99
Es	-1.750792	-0.910821	0.855152	99
Es	-0.796490	-1.002141	-0.076387	99
Es	1.973034	-0.407323	-1.177587	99
Es	-2.147999	1.091467	0.291980	99
Es	-1.775867	0.882640	-0.854535	99
Es	-0.013643	-0.709500	-0.123697	99
Es	-1.644736	0.737256	-0.126949	99
Es	0.488275	0.005077	-0.006970	99
Es	1.048715	0.101099	-0.558536	99
Es	-0.316412	1.169528	0.195311	99
Es	1.961843	0.808267	-0.967604	99
Es	1.953008	0.437505	1.181771	99
Es	1.045023	-0.083548	0.550834	99
Es	-0.312354	1.217394	0.497386	99
Es	1.773519	0.141897	-0.741650	99
Es	-0.024069	0.712799	0.107597	99
Es	-0.298350	-1.216017	-0.509584	99
Es	-0.205481	-1.375160	-0.007237	99
Es	-1.630264	-0.764268	0.126529	99
Es	-1.662601	-0.013568	-0.000129	99
Es	-0.228997	1.372471	-0.008920	99
Es	1.960784	-0.778422	0.971740	99
Es	1.948165	0.014862	0.001970	99
Es	-2.131594	-1.126653	-0.286599	99
42
Properties=species:S:1:pos:R:3:Z:I:1 energy=-343.78143576207907 field_type=dipole dipole="0.000000 0.000000 0.000000" charge=0
C	1.773577	0.141927	-0.741818	6
C	1.766617	-0.114523	0.743362	6
C	0.488407	0.005077	-0.006968	6
O	-0.316283	1.169917	0.195432	8
C	-1.644953	0.737217	-0.127018	6
C	-1.630483	-0.764233	0.126602	6
O	-0.299263	-1.171333	-0.209398	8
H	2.056277	1.128807	-1.085648	1
H	2.069817	-0.668013	-1.395978	1
H	2.057477	-1.097453	1.091152	1
H	2.042977	0.699377	1.401592	1
H	-2.381823	1.262007	0.486732	1
H	-1.824023	0.960517	-1.184568	1
H	-2.364483	-1.300533	-0.478728	1
H	-1.793833	-0.988753	1.185252	1
Es	-0.228335	1.373018	-0.009274	99
Es	-0.812132	0.991351	0.067813	99
Es	-0.013232	-0.709439	-0.123458	99
Es	1.773519	0.141897	-0.741649	99
Es	-0.316374	1.169609	0.195380	99
Es	-1.644736	0.737256	-0.126949	99
Es	0.488274	0.005076	-0.006970	99
Es	-2.148029	1.091488	0.291916	99
Es	1.961721	0.808275	-0.967654	99
Es	-0.023985	0.712301	0.109096	99
Es	1.972922	-0.407165	-1.177633	99
Es	-1.775840	0.882616	-0.854474	99
Es	1.948575	0.014774	0.001756	99
Es	-1.630267	-0.764266	0.126530	99
Es	-1.662643	-0.013580	-0.000100	99
Es	1.953032	0.437386	1.181724	99
Es	-0.298548	-1.216916	-0.510238	99
Es	-2.131625	-1.126610	-0.286552	99
Es	1.766562	-0.114494	0.743193	99
Es	-1.750757	-0.910847	0.855134	99
Es	1.960718	-0.778277	0.971783	99
Es	-0.312700	1.217213	0.495777	99
Es	-0.796194	-1.002432	-0.075603	99
Es	-0.299439	-1.170989	-0.209307	99
Es	1.048594	0.101028	-0.558417	99
Es	-0.205898	-1.374068	-0.007691	99
Es	1.045004	-0.083571	0.550986	99
42
Properties=species:S:1:pos:R:3:Z:I:1 energy=-343.78143576207907 field_type=dipole dipole="0.000000 0.000000 0.000000" charge=0
C	1.773577	0.141927	-0.741818	6
C	1.766617	-0.114523	0.743362	6
C	0.488407	0.005077	-0.006968	6
O	-0.316283	1.169917	0.195432	8
C	-1.644953	0.737217	-0.127018	6
C	-1.630483	-0.764233	0.126602	6
O	-0.299263	-1.171333	-0.209398	8
H	2.056277	1.128807	-1.085648	1
H	2.069817	-0.668013	-1.395978	1
H	2.057477	-1.097453	1.091152	1
H	2.042977	0.699377	1.401592	1
H	-2.381823	1.262007	0.486732	1
H	-1.824023	0.960517	-1.184568	1
H	-2.364483	-1.300533	-0.478728	1
H	-1.793833	-0.988753	1.185252	1
Es	-1.630273	-0.764265	0.126531	99
Es	1.952949	0.437230	1.181806	99
Es	1.961858	0.808104	-0.967680	99
Es	1.773518	0.141897	-0.741648	99
Es	-0.023588	0.712464	0.108967	99
Es	-0.228935	1.372786	-0.009416	99
Es	1.044976	-0.083519	0.550893	99
Es	-1.775874	0.882657	-0.854450	99
Es	-1.644730	0.737260	-0.126946	99
Es	-0.812597	0.991031	0.068793	99
Es	0.488275	0.005074	-0.006957	99
Es	-0.013959	-0.709361	-0.123740	99
Es	-0.205804	-1.373872	-0.006448	99
Es	-0.316375	1.169621	0.195295	99
Es	-0.796926	-1.002368	-0.077222	99
Es	1.766554	-0.114493	0.743187	99
Es	-0.299373	-1.171007	-0.209235	99
Es	-0.312003	1.217619	0.495169	99
Es	-2.148016	1.091427	0.291903	99
Es	-1.662682	-0.013558	-0.000138	99
Es	1.948817	0.014849	0.001909	99
Es	1.972921	-0.407116	-1.177521	99
Es	1.048431	0.101140	-0.558651	99
Es	1.960623	-0.778233	0.971769	99
Es	-0.297204	-1.217271	-0.509574	99
Es	-1.750833	-0.910858	0.855073	99
Es	-2.131563	-1.126605	-0.286550	99
42
Properties=species:S:1:pos:R:3:Z:I:1 energy=-343.78143576207907 field_type=dipole dipole="0.000000 0.000000 0.000000" charge=0
C	1.773577	0.141927	-0.741818	6
C	1.766617	-0.114523	0.743362	6
C	0.488407	0.005077	-0.006968	6
O	-0.316283	1.169917	0.195432	8
C	-1.644953	0.737217	-0.127018	6
C	-1.630483	-0.764233	0.126602	6
O	-0.299263	-1.171333	-0.209398	8
H	2.056277	1.128807	-1.085648	1
H	2.069817	-0.668013	-1.395978	1
H	2.057477	-1.097453	1.091152	1
H	2.042977	0.699377	1.401592	1
H	-2.381823	1.262007	0.486732	1
H	-1.824023	0.960517	-1.184568	1
H	-2.364483	-1.300533	-0.478728	1
H	-1.793833	-0.988753	1.185252	1
Es	-1.644739	0.737256	-0.126949	99
Es	-0.312518	1.217131	0.493802	99
Es	-2.148016	1.091479	0.291799	99
Es	1.960696	-0.778163	0.971808	99
Es	-0.207630	-1.371338	-0.004461	99
Es	1.972848	-0.406920	-1.177639	99
Es	1.949246	0.014795	0.001972	99
Es	-0.023156	0.712225	0.109830	99
Es	1.766568	-0.114492	0.743186	99
Es	-0.316394	1.169566	0.195284	99
Es	1.044694	-0.083541	0.550860	99
Es	-1.750860	-0.910931	0.855034	99
Es	1.048398	0.101132	-0.558600	99
Es	0.488283	0.005074	-0.006958	99
Es	1.773514	0.141898	-0.741651	99
Es	-0.013481	-0.709169	-0.124193	99
Es	-0.299338	-1.171021	-0.209330	99
Es	-1.775827	0.882608	-0.854440	99
Es	-0.812814	0.990948	0.069043	99
Es	1.952880	0.437148	1.181747	99
Es	-0.295434	-1.220584	-0.509003	99
Es	1.961794	0.807985	-0.967598	99
Es	-0.797347	-1.001768	-0.079263	99
Es	-1.630268	-0.764266	0.126531	99
Es	-0.228591	1.373671	-0.009138	99
Es	-1.662793	-0.013532	-0.000050	99
Es	-2.131528	-1.126558	-0.286503	99
42
Properties=species:S:1:pos:R:3:Z:I:1 energy=-343.78143576207907 field_type=dipole dipole="0.000000 0.000000 0.000000" charge=0
C	1.773577	0.141927	-0.741818	6
C	1.766617	-0.114523	0.743362	6
C	0.488407	0.005077	-0.006968	6
O	-0.316283	1.169917	0.195432	8
C	-1.644953	0.737217	-0.127018	6
C	-1.630483	-0.764233	0.126602	6
O	-0.299263	-1.171333	-0.209398	8
H	2.056277	1.128807	-1.085648	1
H	2.069817	-0.668013	-1.395978	1
H	2.057477	-1.097453	1.091152	1
H	2.042977	0.699377	1.401592	1
H	-2.381823	1.262007	0.486732	1
H	-1.824023	0.960517	-1.184568	1
H	-2.364483	-1.300533	-0.478728	1
H	-1.793833	-0.988753	1.185252	1
Es	-0.228630	1.371469	-0.009909	99
Es	-1.644737	0.737256	-0.126949	99
Es	0.488272	0.005076	-0.006968	99
Es	-1.630265	-0.764267	0.126528	99
Es	-1.662820	-0.013552	-0.000040	99
Es	-0.299370	-1.171078	-0.209250	99
Es	-2.147958	1.091438	0.291801	99
Es	1.949288	0.014899	0.001969	99
Es	-0.206014	-1.374459	-0.008262	99
Es	-0.012730	-0.709681	-0.123438	99
Es	-2.131556	-1.126571	-0.286480	99
Es	1.972933	-0.406933	-1.177523	99
Es	-0.316410	1.169562	0.195259	99
Es	-0.311887	1.219347	0.493912	99
Es	1.773516	0.141896	-0.741647	99
Es	1.961727	0.807894	-0.967710	99
Es	1.952899	0.437113	1.181749	99
Es	-1.750846	-0.910889	0.855027	99
Es	1.960690	-0.778032	0.971793	99
Es	1.048266	0.101109	-0.558724	99
Es	-1.775902	0.882624	-0.854437	99
Es	-0.813032	0.991430	0.068912	99
Es	1.766561	-0.114493	0.743189	99
Es	-0.023479	0.711759	0.110631	99
Es	-0.297925	-1.216325	-0.508831	99
Es	-0.797169	-1.002359	-0.076456	99
Es	1.044762	-0.083601	0.550975	99
42
Properties=species:S:1:pos:R:3:Z:I:1 energy=-343.78143576207907 field_type=dipole dipole="0.000000 0.000000 0.000000" charge=0
C	1.773577	0.141927	-0.741818	6
C	1.766617	-0.114523	0.743362	6
C	0.488407	0.005077	-0.006968	6
O	-0.316283	1.169917	0.195432	8
C	-1.644953	0.737217	-0.127018	6
C	-1.630483	-0.764233	0.126602	6
O	-0.299263	-1.171333	-0.209398	8
H	2.056277	1.128807	-1.085648	1
H	2.069817	-0.668013	-1.395978	1
H	2.057477	-1.097453	1.091152	1
H	2.042977	0.699377	1.401592	1
H	-2.381823	1.262007	0.486732	1
H	-1.824023	0.960517	-1.184568	1
H	-2.364483	-1.300533	-0.478728	1
H	-1.793833	-0.988753	1.185252	1
Es	1.952852	0.437034	1.181717	99
Es	-0.012743	-0.709373	-0.123917	99
Es	-0.299399	-1.170962	-0.209364	99
Es	-0.298407	-1.215702	-0.508124	99
Es	-0.023209	0.712218	0.109130	99
Es	-2.147942	1.091365	0.291831	99
Es	-0.813193	0.991660	0.068607	99
Es	-2.131518	-1.126541	-0.286487	99
Es	0.488284	0.005076	-0.006964	99
Es	-0.797344	-1.002870	-0.075985	99
Es	-1.630269	-0.764266	0.126531	99
Es	1.773520	0.141895	-0.741640	99
Es	-0.312123	1.217092	0.494132	99
Es	1.048101	0.101232	-0.558908	99
Es	-1.775935	0.882724	-0.854385	99
Es	1.949464	0.014793	0.002112	99
Es	1.766566	-0.114494	0.743194	99
Es	-1.644746	0.737255	-0.126950	99
Es	1.972876	-0.406823	-1.177549	99
Es	-0.205287	-1.375005	-0.008860	99
Es	-0.228565	1.372996	-0.008324	99
Es	-1.750902	-0.910930	0.854980	99
Es	1.960696	-0.777941	0.971834	99
Es	-1.662808	-0.013556	-0.000115	99
Es	-0.316332	1.169610	0.195315	99
Es	1.044733	-0.083648	0.550951	99
Es	1.961816	0.807795	-0.967639	99
42
Properties=species:S:1:pos:R:3:Z:I:1 energy=-343.78143576207907 field_type=dipole dipole="0.000000 0.000000 0.000000" charge=0
C	1.773577	0.141927	-0.741818	6
C	1.766617	-0.114523	0.743362	6
C	0.488407	0.005077	-0.006968	6
O	-0.316283	1.169917	0.195432	8
C	-1.644953	0.737217	-0.127018	6
C	-1.630483	-0.764233	0.126602	6
O	-0.299263	-1.171333	-0.209398	8
H	2.056277	1.128807	-1.085648	1
H	2.069817	-0.668013	-1.395978	1
H	2.057477	-1.097453	1.091152	1
H	2.042977	0.699377	1.401592	1
H	-2.381823	1.262007	0.486732	1
H	-1.824023	0.960517	-1.184568	1
H	-2.364483	-1.300533	-0.478728	1
H	-1.793833	-0.988753	1.185252	1
Es	-0.229155	1.372208	-0.007583	99
Es	-0.022345	0.712579	0.108860	99
Es	-0.316389	1.169590	0.195268	99
Es	1.960645	-0.777825	0.971845	99
Es	-0.296183	-1.219206	-0.508523	99
Es	-2.131562	-1.126540	-0.286462	99
Es	-1.750891	-0.910892	0.854943	99
Es	-1.775924	0.882647	-0.854333	99
Es	-0.299363	-1.171024	-0.209191	99
Es	-1.662865	-0.013574	-0.000047	99
Es	-1.644740	0.737255	-0.126950	99
Es	1.949811	0.014855	0.002063	99
Es	1.952852	0.436915	1.181699	99
Es	1.972895	-0.406671	-1.177513	99
Es	-0.797739	-1.002370	-0.077951	99
Es	1.044469	-0.083610	0.551117	99
Es	0.488275	0.005078	-0.006967	99
Es	1.766562	-0.114494	0.743192	99
Es	-0.207013	-1.372028	-0.006664	99
Es	1.961645	0.807679	-0.967722	99
Es	-0.012847	-0.709329	-0.123875	99
Es	1.773516	0.141897	-0.741649	99
Es	-1.630262	-0.764267	0.126529	99
Es	1.048233	0.101115	-0.558960	99
Es	-2.147960	1.091429	0.291763	99
Es	-0.312394	1.217705	0.494464	99
Es	-0.813085	0.991513	0.067769	99
42
Properties=species:S:1:pos:R:3:Z:I:1 energy=-343.78143576207907 field_type=dipole dipole="0.000000 0.000000 0.000000" charge=0
C	1.773577	0.141927	-0.741818	6
C	1.766617	-0.114523	0.743362	6
C	0.488407	0.005077	-0.006968	6
O	-0.316283	1.169917	0.195432	8
C	-1.644953	0.737217	-0.127018	6
C	-1.630483	-0.764233	0.126602	6
O	-0.299263	-1.171333	-0.209398	8
H	2.056277	1.128807	-1.085648	1
H	2.069817	-0.668013	-1.395978	1
H	2.057477	-1.097453	1.091152	1
H	2.042977	0.699377	1.401592	1
H	-2.381823	1.262007	0.486732	1
H	-1.824023	0.960517	-1.184568	1
H	-2.364483	-1.300533	-0.478728	1
H	-1.793833	-0.988753	1.185252	1
Es	1.961575	0.807623	-0.967782	99
Es	-0.022836	0.712031	0.109917	99
Es	1.048082	0.101101	-0.558726	99
Es	0.488280	0.005076	-0.006967	99
Es	1.766550	-0.114493	0.743191	99
Es	-2.148003	1.091447	0.291736	99
Es	-0.813398	0.991824	0.068247	99
Es	-1.644742	0.737254	-0.126950	99
Es	1.044412	-0.083567	0.550922	99
Es	1.773517	0.141897	-0.741647	99
Es	-0.312181	1.218190	0.493663	99
Es	-0.228583	1.371942	-0.008352	99
Es	-1.775887	0.882637	-0.854282	99
Es	-0.012486	-0.709680	-0.123216	99
Es	-0.206731	-1.374438	-0.007642	99
Es	1.972825	-0.406653	-1.177532	99
Es	-0.797479	-1.002054	-0.077908	99
Es	1.960516	-0.777781	0.971885	99
Es	1.950356	0.014893	0.002016	99
Es	-2.131534	-1.126521	-0.286422	99
Es	-0.316374	1.169610	0.195338	99
Es	-0.299372	-1.171035	-0.209288	99
Es	-0.297040	-1.216761	-0.508176	99
Es	1.952788	0.436838	1.181744	99
Es	-1.662886	-0.013575	-0.000100	99
Es	-1.750912	-0.910905	0.854921	99
Es	-1.630270	-0.764265	0.126531	99
42
Properties=species:S:1:pos:R:3:Z:I:1 energy=-343.78143576207907 field_type=dipole dipole="0.000000 0.000000 0.000000" charge=0
C	1.773577	0.141927	-0.741818	6
C	1.766617	-0.114523	0.743362	6
C	0.488407	0.005077	-0.006968	6
O	-0.316283	1.169917	0.195432	8
C	-1.644953	0.737217	-0.127018	6
C	-1.630483	-0.764233	0.126602	6
O	-0.299263	-1.171333	-0.209398	8
H	2.056277	1.128807	-1.085648	1
H	2.069817	-0.668013	-1.395978	1
H	2.057477	-1.097453	1.091152	1
H	2.042977	0.699377	1.401592	1
H	-2.381823	1.262007	0.486732	1
H	-1.824023	0.960517	-1.184568	1
H	-2.364483	-1.300533	-0.478728	1
H	-1.793833	-0.988753	1.185252	1
Es	-0.022692	0.712112	0.109546	99
Es	-0.206964	-1.370539	-0.006492	99
Es	1.952906	0.436772	1.181603	99
Es	-0.012590	-0.708978	-0.124933	99
Es	-0.813751	0.991672	0.069338	99
Es	-1.750940	-0.910912	0.854893	99
Es	0.488290	0.005076	-0.006954	99
Es	1.773521	0.141897	-0.741649	99
Es	-0.311166	1.219139	0.493474	99
Es	1.044362	-0.083643	0.551456	99
Es	-0.299367	-1.171038	-0.209304	99
Es	1.972686	-0.406597	-1.177442	99
Es	-1.662872	-0.013581	-0.000144	99
Es	1.961766	0.807480	-0.967823	99
Es	-0.296100	-1.220670	-0.508021	99
Es	-2.131534	-1.126490	-0.286420	99
Es	-0.316390	1.169587	0.195353	99
Es	-0.798086	-1.002799	-0.077511	99
Es	1.766559	-0.114492	0.743176	99
Es	1.960610	-0.777668	0.971892	99
Es	-1.644741	0.737255	-0.126950	99
Es	1.048052	0.101281	-0.558870	99
Es	-1.630270	-0.764265	0.126531	99
Es	-1.775869	0.882661	-0.854233	99
Es	-0.229342	1.371131	-0.008870	99
Es	-2.148030	1.091406	0.291684	99
Es	1.950139	0.014837	0.001791	99
42
Properties=species:S:1:pos:R:3:Z:I:1 energy=-343.78143576207907 field_type=dipole dipole="0.000000 0.000000 0.000000" charge=0
C	1.773577	0.141927	-0.741818	6
C	1.766617	-0.114523	0.743362	6
C	0.488407	0.005077	-0.006968	6
O	-0.316283	1.169917	0.195432	8
C	-1.644953	0.737217	-0.127018	6
C	-1.630483	-0.764233	0.126602	6
O	-0.299263	-1.171333	-0.209398	8
H	2.056277	1.128807	-1.085648	1
H	2.069817	-0.668013	-1.395978	1
H	2.057477	-1.097453	1.091152	1
H	2.042977	0.699377	1.401592	1
H	-2.381823	1.262007	0.486732	1
H	-1.824023	0.960517	-1.184568	1
H	-2.364483	-1.300533	-0.478728	1
H	-1.793833	-0.988753	1.185252	1
Es	1.972880	-0.406534	-1.177378	99
Es	-2.131505	-1.126492	-0.286371	99
Es	1.960617	-0.777605	0.971745	99
Es	-0.022293	0.712192	0.109120	99
Es	1.773515	0.141896	-0.741645	99
Es	-1.775930	0.882666	-0.854212	99
Es	1.044252	-0.083662	0.551369	99
Es	-0.012328	-0.709175	-0.124286	99
Es	-0.798286	-1.002776	-0.077880	99
Es	1.950317	0.015053	0.002023	99
Es	-0.311718	1.217415	0.492795	99
Es	1.952864	0.436613	1.181728	99
Es	-2.147962	1.091407	0.291662	99
Es	1.766558	-0.114492	0.743186	99
Es	-0.299336	-1.171013	-0.209258	99
Es	-0.813992	0.992019	0.068875	99
Es	-1.750948	-0.910960	0.854826	99
Es	-0.206843	-1.372031	-0.007409	99
Es	-0.296270	-1.219019	-0.507430	99
Es	-1.662971	-0.013561	-0.000067	99
Es	0.488285	0.005076	-0.006967	99
Es	-0.228946	1.372393	-0.007260	99
Es	1.048027	0.101127	-0.559042	99
Es	1.961569	0.807466	-0.967869	99
Es	-1.644742	0.737254	-0.126950	99
Es	-1.630272	-0.764265	0.126532	99
Es	-0.316359	1.169644	0.195282	99
42
Properties=species:S:1:pos:R:3:Z:I:1 energy=-343.78143576207907 field_type=dipole dipole="0.000000 0.000000 0.000000" charge=0
C	1.773577	0.141927	-0.741818	6
C	1.766617	-0.114523	0.743362	6
C	0.488407	0.005077	-0.006968	6
O	-0.316283	1.169917	0.195432	8
C	-1.644953	0.737217	-0.127018	6
C	-1.630483	-0.764233	0.126602	6
O	-0.299263	-1.171333	-0.209398	8
H	2.056277	1.128807	-1.085648	1
H	2.069817	-0.668013	-1.395978	1
H	2.057477	-1.097453	1.091152	1
H	2.042977	0.699377	1.401592	1
H	-2.381823	1.262007	0.486732	1
H	-1.824023	0.960517	-1.184568	1
H	-2.364483	-1.300533	-0.478728	1
H	-1.793833	-0.988753	1.185252	1
Es	1.950597	0.014931	0.001829	99
Es	-0.312638	1.216791	0.492333	99
Es	1.766563	-0.114492	0.743187	99
Es	-0.022372	0.711994	0.110183	99
Es	-0.011970	-0.709228	-0.124376	99
Es	-0.316369	1.169621	0.195293	99
Es	-2.147905	1.091383	0.291624	99
Es	1.972905	-0.406387	-1.177592	99
Es	-1.750967	-0.911005	0.854828	99
Es	1.044211	-0.083674	0.551414	99
Es	-2.131464	-1.126451	-0.286347	99
Es	-0.207710	-1.371529	-0.006565	99
Es	1.960597	-0.777523	0.971864	99
Es	1.773508	0.141898	-0.741657	99
Es	-0.798700	-1.002263	-0.079416	99
Es	1.952793	0.436575	1.181643	99
Es	1.961556	0.807360	-0.967620	99
Es	-0.813896	0.992158	0.068120	99
Es	-1.663026	-0.013551	-0.000013	99
Es	-0.299372	-1.171019	-0.209280	99
Es	-1.775981	0.882671	-0.854210	99
Es	-0.228007	1.373125	-0.007125	99
Es	1.047870	0.101175	-0.558965	99
Es	-1.644742	0.737252	-0.126951	99
Es	-0.295302	-1.219988	-0.506644	99
Es	-1.630272	-0.764264	0.126532	99
Es	0.488279	0.005076	-0.006970	99
42
Properties=species:S:1:pos:R:3:Z:I:1 energy=-343.78143576207907 field_type=dipole dipole="0.000000 0.000000 0.000000" charge=0
C	1.773577	0.141927	-0.741818	6
C	1.766617	-0.114523	0.743362	6
C	0.488407	0.005077	-0.006968	6
O	-0.316283	1.169917	0.195432	8
C	-1.644953	0.737217	-0.127018	6
C	-1.630483	-0.764233	0.126602	6
O	-0.299263	-1.171333	-0.209398	8
H	2.056277	1.128807	-1.085648	1
H	2.069817	-0.668013	-1.395978	1
H	2.057477	-1.097453	1.091152	1
H	2.042977	0.699377	1.401592	1
H	-2.381823	1.262007	0.486732	1
H	-1.824023	0.960517	-1.184568	1
H	-2.364483	-1.300533	-0.478728	1
H	-1.793833	-0.988753	1.185252	1
Es	-0.312149	1.216727	0.492893	99
Es	-2.147893	1.091383	0.291622	99
Es	-1.750994	-0.910972	0.854790	99
Es	1.972829	-0.406292	-1.177423	99
Es	-0.012739	-0.709091	-0.124345	99
Es	-1.630268	-0.764265	0.126531	99
Es	1.044160	-0.083669	0.551432	99
Es	-1.644735	0.737256	-0.126949	99
Es	-0.798966	-1.003444	-0.077654	99
Es	-0.022012	0.712316	0.108844	99
Es	1.960554	-0.777462	0.971866	99
Es	-0.814048	0.992364	0.067977	99
Es	1.766556	-0.114491	0.743183	99
Es	-2.131445	-1.126491	-0.286325	99
Es	-0.295686	-1.219114	-0.507163	99
Es	1.047801	0.101160	-0.559137	99
Es	-0.206258	-1.371360	-0.007762	99
Es	-0.228640	1.372695	-0.006219	99
Es	1.773515	0.141896	-0.741643	99
Es	1.952780	0.436493	1.181651	99
Es	-1.776005	0.882689	-0.854170	99
Es	1.961586	0.807296	-0.967778	99
Es	0.488301	0.005075	-0.006963	99
Es	-0.316384	1.169586	0.195288	99
Es	-1.663097	-0.013558	-0.000068	99
Es	-0.299367	-1.171018	-0.209311	99
Es	1.950789	0.014925	0.001954	99
42
Properties=species:S:1:pos:R:3:Z:I:1 energy=-343.78143576207907 field_type=dipole dipole="0.000000 0.000000 0.000000" charge=0
C	1.773577	0.141927	-0.741818	6
C	1.766617	-0.114523	0.743362	6
C	0.488407	0.005077	-0.006968	6
O	-0.316283	1.169917	0.195432	8
C	-1.644953	0.737217	-0.127018	6
C	-1.630483	-0.764233	0.126602	6
O	-0.299263	-1.171333	-0.209398	8
H	2.056277	1.128807	-1.085648	1
H	2.069817	-0.668013	-1.395978	1
H	2.057477	-1.097453	1.091152	1
H	2.042977	0.699377	1.401592	1
H	-2.381823	1.262007	0.486732	1
H	-1.824023	0.960517	-1.184568	1
H	-2.364483	-1.300533	-0.478728	1
H	-1.793833	-0.988753	1.185252	1
Es	-1.663096	-0.013581	-0.000116	99
Es	-2.131488	-1.126463	-0.286270	99
Es	-0.310456	1.219977	0.491815	99
Es	1.950938	0.014939	0.001946	99
Es	-0.012295	-0.708661	-0.126288	99
Es	-0.316363	1.169637	0.195289	99
Es	1.047805	0.101217	-0.559137	99
Es	1.960524	-0.777398	0.971887	99
Es	-0.295021	-1.221700	-0.505626	99
Es	-1.750954	-0.910970	0.854754	99
Es	-0.799181	-1.002603	-0.079473	99
Es	0.488292	0.005077	-0.006968	99
Es	1.972788	-0.406283	-1.177479	99
Es	-1.630273	-0.764264	0.126532	99
Es	-0.207118	-1.370100	-0.005717	99
Es	1.044110	-0.083651	0.551515	99
Es	-1.775951	0.882719	-0.854100	99
Es	1.961556	0.807221	-0.967762	99
Es	-0.299383	-1.170996	-0.209199	99
Es	-0.229474	1.370309	-0.008880	99
Es	-1.644744	0.737254	-0.126951	99
Es	1.766557	-0.114492	0.743185	99
Es	-0.814695	0.991901	0.070238	99
Es	1.952779	0.436405	1.181617	99
Es	1.773515	0.141896	-0.741646	99
Es	-2.147950	1.091364	0.291584	99
Es	-0.022237	0.711882	0.110367	99
42
Properties=species:S:1:pos:R:3:Z:I:1 energy=-343.78143576207907 field_type=dipole dipole="0.000000 0.000000 0.000000" charge=0
C	1.773577	0.141927	-0.741818	6
C	1.766617	-0.114523	0.743362	6
C	0.488407	0.005077	-0.006968	6
O	-0.316283	1.169917	0.195432	8
C	-1.644953	0.737217	-0.127018	6
C	-1.630483	-0.764233	0.126602	6
O	-0.299263	-1.171333	-0.209398	8
H	2.056277	1.128807	-1.085648	1
H	2.069817	-0.668013	-1.395978	1
H	2.057477	-1.097453	1.091152	1
H	2.042977	0.699377	1.401592	1
H	-2.381823	1.262007	0.486732	1
H	-1.824023	0.960517	-1.184568	1
H	-2.364483	-1.300533	-0.478728	1
H	-1.793833	-0.988753	1.185252	1
Es	-1.663132	-0.013533	-0.000170	99
Es	1.972764	-0.406141	-1.177436	99
Es	1.044060	-0.083738	0.551593	99
Es	-0.309350	1.222455	0.492555	99
Es	1.952750	0.436393	1.181598	99
Es	-0.011638	-0.708880	-0.125094	99
Es	-0.230579	1.367641	-0.009235	99
Es	-0.299365	-1.171027	-0.209287	99
Es	-2.147952	1.091274	0.291601	99
Es	1.766555	-0.114491	0.743184	99
Es	1.961661	0.807139	-0.967714	99
Es	1.047681	0.101260	-0.559368	99
Es	-1.775983	0.882731	-0.854146	99
Es	-0.814861	0.992306	0.070369	99
Es	-0.295752	-1.220195	-0.505932	99
Es	-1.751017	-0.910948	0.854722	99
Es	1.773514	0.141895	-0.741640	99
Es	0.488305	0.005075	-0.006963	99
Es	1.951014	0.014802	0.001978	99
Es	-2.131430	-1.126484	-0.286245	99
Es	-0.022020	0.711740	0.109857	99
Es	1.960552	-0.777263	0.971910	99
Es	-1.630273	-0.764263	0.126532	99
Es	-0.798995	-1.002973	-0.078435	99
Es	-0.207183	-1.370975	-0.007464	99
Es	-1.644739	0.737255	-0.126950	99
Es	-0.316404	1.169579	0.195301	99
42
Properties=species:S:1:pos:R:3:Z:I:1 energy=-343.78143576207907 field_type=dipole dipole="0.000000 0.000000 0.000000" charge=0
C	1.773577	0.141927	-0.741818	6
C	1.766617	-0.114523	0.743362	6
C	0.488407	0.005077	-0.006968	6
O	-0.316283	1.169917	0.195432	8
C	-1.644953	0.737217	-0.127018	6
C	-1.630483	-0.764233	0.126602	6
O	-0.299263	-1.171333	-0.209398	8
H	2.056277	1.128807	-1.085648	1
H	2.069817	-0.668013	-1.395978	1
H	2.057477	-1.097453	1.091152	1
H	2.042977	0.699377	1.401592	1
H	-2.381823	1.262007	0.486732	1
H	-1.824023	0.960517	-1.184568	1
H	-2.364483	-1.300533	-0.478728	1
H	-1.793833	-0.988753	1.185252	1
Es	-0.296179	-1.218747	-0.506168	99
Es	1.961515	0.807085	-0.967788	99
Es	-1.750999	-0.910966	0.854682	99
Es	1.044012	-0.083718	0.551506	99
Es	1.952728	0.436270	1.181652	99
Es	-0.230684	1.366797	-0.010897	99
Es	-1.644752	0.737253	-0.126951	99
Es	-1.663180	-0.013542	-0.000075	99
Es	-1.775993	0.882698	-0.854080	99
Es	-0.022154	0.711483	0.111527	99
Es	1.773508	0.141894	-0.741636	99
Es	-0.309174	1.224167	0.491839	99
Es	1.960462	-0.777154	0.971877	99
Es	-0.316387	1.169582	0.195292	99
Es	-2.131458	-1.126469	-0.286231	99
Es	1.766559	-0.114491	0.743199	99
Es	-0.011644	-0.709049	-0.124387	99
Es	-1.630271	-0.764264	0.126531	99
Es	-2.147900	1.091347	0.291526	99
Es	-0.814780	0.991706	0.071066	99
Es	-0.299364	-1.171046	-0.209253	99
Es	1.047516	0.101191	-0.559167	99
Es	1.972726	-0.406087	-1.177447	99
Es	1.951523	0.014881	0.001888	99
Es	-0.206721	-1.371850	-0.008673	99
Es	0.488300	0.005075	-0.006969	99
Es	-0.799025	-1.003411	-0.077744	99
42
Properties=species:S:1:pos:R:3:Z:I:1 energy=-343.78143576207907 field_type=dipole dipole="0.000000 0.000000 0.000000" charge=0
C	1.773577	0.141927	-0.741818	6
C	1.766617	-0.114523	0.743362	6
C	0.488407	0.005077	-0.006968	6
O	-0.316283	1.169917	0.195432	8
C	-1.644953	0.737217	-0.127018	6
C	-1.630483	-0.764233	0.126602	6
O	-0.299263	-1.171333	-0.209398	8
H	2.056277	1.128807	-1.085648	1
H	2.069817	-0.668013	-1.395978	1
H	2.057477	-1.097453	1.091152	1
H	2.042977	0.699377	1.401592	1
H	-2.381823	1.262007	0.486732	1
H	-1.824023	0.960517	-1.184568	1
H	-2.364483	-1.300533	-0.478728	1
H	-1.793833	-0.988753	1.185252	1
Es	-2.147877	1.091320	0.291570	99
Es	-0.299382	-1.170978	-0.209234	99
Es	1.773506	0.141894	-0.741633	99
Es	-0.228677	1.371131	-0.007260	99
Es	-1.644747	0.737250	-0.126952	99
Es	-0.011494	-0.708912	-0.125014	99
Es	1.766550	-0.114492	0.743181	99
Es	1.952703	0.436182	1.181635	99
Es	-2.131501	-1.126445	-0.286228	99
Es	1.951532	0.014955	0.001943	99
Es	-0.311235	1.218575	0.491370	99
Es	-0.206686	-1.372068	-0.008453	99
Es	-1.630275	-0.764263	0.126533	99
Es	1.043881	-0.083756	0.551641	99
Es	-1.776060	0.882720	-0.854042	99
Es	0.488299	0.005076	-0.006968	99
Es	-0.814825	0.992705	0.069096	99
Es	1.972730	-0.406008	-1.177393	99
Es	-1.663143	-0.013558	-0.000079	99
Es	1.047553	0.101196	-0.559301	99
Es	1.961537	0.807022	-0.967804	99
Es	-1.750989	-0.910940	0.854667	99
Es	-0.316363	1.169645	0.195291	99
Es	-0.022044	0.711688	0.110271	99
Es	-0.296241	-1.218942	-0.505411	99
Es	1.960555	-0.777134	0.971830	99
Es	-0.799121	-1.003229	-0.078135	99
42
Properties=species:S:1:pos:R:3:Z:I:1 energy=-343.78143576207907 field_type=dipole dipole="0.000000 0.000000 0.000000" charge=0
C	1.773577	0.141927	-0.741818	6
C	1.766617	-0.114523	0.743362	6
C	0.488407	0.005077	-0.006968	6
O	-0.316283	1.169917	0.195432	8
C	-1.644953	0.737217	-0.127018	6
C	-1.630483	-0.764233	0.126602	6
O	-0.299263	-1.171333	-0.209398	8
H	2.056277	1.128807	-1.085648	1
H	2.069817	-0.668013	-1.395978	1
H	2.057477	-1.097453	1.091152	1
H	2.042977	0.699377	1.401592	1
H	-2.381823	1.262007	0.486732	1
H	-1.824023	0.960517	-1.184568	1
H	-2.364483	-1.300533	-0.478728	1
H	-1.793833	-0.988753	1.185252	1
Es	-0.310140	1.220118	0.491670	99
Es	-0.295289	-1.220972	-0.505813	99
Es	1.952677	0.436178	1.181644	99
Es	-0.011352	-0.708981	-0.125041	99
Es	-1.630274	-0.764260	0.126533	99
Es	-1.644747	0.737252	-0.126952	99
Es	1.766556	-0.114489	0.743169	99
Es	-1.663239	-0.013553	-0.000193	99
Es	1.961447	0.806962	-0.967754	99
Es	-1.776021	0.882751	-0.853989	99
Es	1.773511	0.141895	-0.741640	99
Es	-0.229699	1.369534	-0.007821	99
Es	1.972738	-0.405917	-1.177460	99
Es	1.043848	-0.083769	0.551582	99
Es	-0.207545	-1.369930	-0.007635	99
Es	1.960459	-0.777020	0.971888	99
Es	0.488297	0.005075	-0.006968	99
Es	1.047489	0.101171	-0.559300	99
Es	-1.751057	-0.911009	0.854664	99
Es	-0.021809	0.711892	0.109753	99
Es	-0.316357	1.169659	0.195343	99
Es	1.951814	0.014850	0.001976	99
Es	-2.147905	1.091304	0.291515	99
Es	-0.299352	-1.171074	-0.209308	99
Es	-0.799369	-1.003163	-0.078406	99
Es	-2.131370	-1.126449	-0.286195	99
Es	-0.815127	0.992579	0.069855	99
42
Properties=species:S:1:pos:R:3:Z:I:1 energy=-343.78143576207907 field_type=dipole dipole="0.000000 0.000000 0.000000" charge=0
C	1.773577	0.141927	-0.741818	6
C	1.766617	-0.114523	0.743362	6
C	0.488407	0.005077	-0.006968	6
O	-0.316283	1.169917	0.195432	8
C	-1.644953	0.737217	-0.127018	6
C	-1.630483	-0.764233	0.126602	6
O	-0.299263	-1.171333	-0.209398	8
H	2.056277	1.128807	-1.085648	1
H	2.069817	-0.668013	-1.395978	1
H	2.057477	-1.097453	1.091152	1
H	2.042977	0.699377	1.401592	1
H	-2.381823	1.262007	0.486732	1
H	-1.824023	0.960517	-1.184568	1
H	-2.364483	-1.300533	-0.478728	1
H	-1.793833	-0.988753	1.185252	1
Es	-0.011729	-0.708514	-0.126010	99
Es	-2.147912	1.091385	0.291419	99
Es	-0.207192	-1.368750	-0.007053	99
Es	1.773510	0.141895	-0.741636	99
Es	1.960420	-0.777002	0.972022	99
Es	-1.663296	-0.013564	-0.000088	99
Es	-1.775968	0.882661	-0.854001	99
Es	-0.308872	1.225544	0.490941	99
Es	-0.295096	-1.222300	-0.505628	99
Es	1.766555	-0.114493	0.743182	99
Es	-0.799454	-1.003619	-0.078181	99
Es	1.972786	-0.405965	-1.177241	99
Es	-0.316387	1.169585	0.195017	99
Es	-1.750998	-0.910920	0.854623	99
Es	-0.299404	-1.170957	-0.209377	99
Es	0.488298	0.005076	-0.006968	99
Es	-1.644745	0.737252	-0.126951	99
Es	1.952702	0.436117	1.181485	99
Es	-0.815271	0.991692	0.071182	99
Es	1.951870	0.014959	0.002008	99
Es	-0.231360	1.365416	-0.010365	99
Es	1.047446	0.101171	-0.559429	99
Es	1.961462	0.806861	-0.967946	99
Es	1.043773	-0.083682	0.551657	99
Es	-0.021220	0.711529	0.112065	99
Es	-2.131458	-1.126477	-0.286139	99
Es	-1.630274	-0.764264	0.126533	99
42
Properties=species:S:1:pos:R:3:Z:I:1 energy=-343.78143576207907 field_type=dipole dipole="0.000000 0.000000 0.000000" charge=0
C	1.773577	0.141927	-0.741818	6
C	1.766617	-0.114523	0.743362	6
C	0.488407	0.005077	-0.006968	6
O	-0.316283	1.169917	0.195432	8
C	-1.644953	0.737217	-0.127018	6
C	-1.630483	-0.764233	0.126602	6
O	-0.299263	-1.171333	-0.209398	8
H	2.056277	1.128807	-1.085648	1
H	2.069817	-0.668013	-1.395978	1
H	2.057477	-1.097453	1.091152	1
H	2.042977	0.699377	1.401592	1
H	-2.381823	1.262007	0.486732	1
H	-1.824023	0.960517	-1.184568	1
H	-2.364483	-1.300533	-0.478728	1
H	-1.793833	-0.988753	1.185252	1
Es	-1.644747	0.737252	-0.126952	99
Es	1.773508	0.141894	-0.741635	99
Es	1.952084	0.014913	0.001986	99
Es	-0.011043	-0.709161	-0.123781	99
Es	-1.630274	-0.764261	0.126532	99
Es	-1.776055	0.882727	-0.853956	99
Es	-0.799432	-1.004179	-0.076887	99
Es	-0.316363	1.169648	0.195374	99
Es	1.952684	0.436042	1.181553	99
Es	-1.663298	-0.013575	-0.000178	99
Es	1.047297	0.101224	-0.559406	99
Es	-0.230435	1.369232	-0.006491	99
Es	-2.147870	1.091307	0.291466	99
Es	-0.206175	-1.373001	-0.010870	99
Es	-0.814791	0.992243	0.068502	99
Es	-0.299349	-1.171089	-0.209312	99
Es	-0.310898	1.220122	0.492243	99
Es	1.972681	-0.405858	-1.177343	99
Es	-0.020591	0.712562	0.109149	99
Es	1.766551	-0.114491	0.743176	99
Es	0.488298	0.005076	-0.006966	99
Es	-2.131425	-1.126462	-0.286090	99
Es	1.043793	-0.083728	0.551684	99
Es	-1.751020	-0.910913	0.854625	99
Es	1.960447	-0.776929	0.971930	99
Es	1.961479	0.806791	-0.967861	99
Es	-0.296871	-1.216749	-0.505372	99
42
Properties=species:S:1:pos:R:3:Z:I:1 energy=-343.78143576207907 field_type=dipole dipole="0.000000 0.000000 0.000000" charge=0
C	1.773577	0.141927	-0.741818	6
C	1.766617	-0.114523	0.743362	6
C	0.488407	0.005077	-0.006968	6
O	-0.316283	1.169917	0.195432	8
C	-1.644953	0.737217	-0.127018	6
C	-1.630483	-0.764233	0.126602	6
O	-0.299263	-1.171333	-0.209398	8
H	2.056277	1.128807	-1.085648	1
H	2.069817	-0.668013	-1.395978	1
H	2.057477	-1.097453	1.091152	1
H	2.042977	0.699377	1.401592	1
H	-2.381823	1.262007	0.486732	1
H	-1.824023	0.960517	-1.184568	1
H	-2.364483	-1.300533	-0.478728	1
H	-1.793833	-0.988753	1.185252	1
Es	-0.299394	-1.170957	-0.209316	99
Es	1.961469	0.806740	-0.967843	99
Es	-1.630275	-0.764263	0.126533	99
Es	-0.799600	-1.003730	-0.077915	99
Es	1.952128	0.014940	0.001898	99
Es	-2.131428	-1.126416	-0.286124	99
Es	-0.230702	1.365474	-0.009568	99
Es	-2.147841	1.091269	0.291464	99
Es	-1.751033	-0.910992	0.854572	99
Es	1.972687	-0.405764	-1.177333	99
Es	1.773509	0.141893	-0.741634	99
Es	-0.011173	-0.708831	-0.125094	99
Es	1.952677	0.435960	1.181562	99
Es	1.047333	0.101221	-0.559492	99
Es	-1.644746	0.737252	-0.126952	99
Es	-1.776084	0.882770	-0.853948	99
Es	1.960470	-0.776854	0.971886	99
Es	1.766557	-0.114492	0.743183	99
Es	-0.021335	0.711376	0.111912	99
Es	-0.206513	-1.371791	-0.009218	99
Es	-0.815574	0.992506	0.070348	99
Es	-0.316379	1.169610	0.195253	99
Es	-0.309085	1.224859	0.490861	99
Es	-1.663298	-0.013570	-0.000093	99
Es	1.043667	-0.083789	0.551840	99
Es	0.488309	0.005072	-0.006961	99
Es	-0.296160	-1.218856	-0.504706	99
42
Properties=species:S:1:pos:R:3:Z:I:1 energy=-343.78143576207907 field_type=dipole dipole="0.000000 0.000000 0.000000" charge=0
C	1.773577	0.141927	-0.741818	6
C	1.766617	-0.114523	0.743362	6
C	0.488407	0.005077	-0.006968	6
O	-0.316283	1.169917	0.195432	8
C	-1.644953	0.737217	-0.127018	6
C	-1.630483	-0.764233	0.126602	6
O	-0.299263	-1.171333	-0.209398	8
H	2.056277	1.128807	-1.085648	1
H	2.069817	-0.668013	-1.395978	1
H	2.057477	-1.097453	1.091152	1
H	2.042977	0.699377	1.401592	1
H	-2.381823	1.262007	0.486732	1
H	-1.824023	0.960517	-1.184568	1
H	-2.364483	-1.300533	-0.478728	1
H	-1.793833	-0.988753	1.185252	1
Es	1.773511	0.141896	-0.741641	99
Es	-0.011170	-0.708422	-0.126416	99
Es	-0.800055	-1.003444	-0.079383	99
Es	-1.751024	-0.911008	0.854552	99
Es	-1.644748	0.737250	-0.126953	99
Es	-2.147856	1.091342	0.291370	99
Es	1.960343	-0.776848	0.971894	99
Es	-1.663333	-0.013583	-0.000005	99
Es	-0.815519	0.992943	0.069080	99
Es	-0.207644	-1.368720	-0.007065	99
Es	1.972718	-0.405727	-1.177203	99
Es	-0.294601	-1.222579	-0.504239	99
Es	1.952646	0.435873	1.181613	99
Es	-2.131426	-1.126418	-0.286119	99
Es	1.961506	0.806739	-0.967908	99
Es	-0.020762	0.711897	0.110367	99
Es	-1.630281	-0.764262	0.126535	99
Es	-0.229443	1.369921	-0.006330	99
Es	1.952293	0.014952	0.001995	99
Es	-0.299374	-1.170990	-0.209184	99
Es	0.488304	0.005076	-0.006971	99
Es	-0.310975	1.219422	0.490323	99
Es	-1.776049	0.882679	-0.853908	99
Es	1.766550	-0.114490	0.743173	99
Es	1.043677	-0.083725	0.551766	99
Es	1.047255	0.101175	-0.559550	99
Es	-0.316358	1.169686	0.195325	99
42
Properties=species:S:1:pos:R:3:Z:I:1 energy=-343.78143576207907 field_type=dipole dipole="0.000000 0.000000 0.000000" charge=0
C	1.773577	0.141927	-0.741818	6
C	1.766617	-0.114523	0.743362	6
C	0.488407	0.005077	-0.006968	6
O	-0.316283	1.169917	0.195432	8
C	-1.644953	0.737217	-0.127018	6
C	-1.630483	-0.764233	0.126602	6
O	-0.299263	-1.171333	-0.209398	8
H	2.056277	1.128807	-1.085648	1
H	2.069817	-0.668013	-1.395978	1
H	2.057477	-1.097453	1.091152	1
H	2.042977	0.699377	1.401592	1
H	-2.381823	1.262007	0.486732	1
H	-1.824023	0.960517	-1.184568	1
H	-2.364483	-1.300533	-0.478728	1
H	-1.793833	-0.988753	1.185252	1
Es	-0.815567	0.992702	0.069901	99
Es	-1.630285	-0.764259	0.126531	99
Es	-0.021138	0.711378	0.111963	99
Es	1.972650	-0.405662	-1.177228	99
Es	-1.644748	0.737250	-0.126952	99
Es	1.961568	0.806604	-0.967869	99
Es	-0.799964	-1.003082	-0.079821	99
Es	-0.209050	-1.366899	-0.006353	99
Es	-0.010774	-0.708780	-0.125696	99
Es	-2.147864	1.091264	0.291412	99
Es	-0.229818	1.367656	-0.008393	99
Es	1.952325	0.014860	0.002014	99
Es	1.952694	0.435822	1.181467	99
Es	1.047188	0.101310	-0.559723	99
Es	0.488308	0.005075	-0.006967	99
Es	1.043617	-0.083717	0.551922	99
Es	-0.299340	-1.171033	-0.209298	99
Es	-2.131399	-1.126362	-0.286122	99
Es	-0.293648	-1.224395	-0.505076	99
Es	-0.316360	1.169625	0.195277	99
Es	1.773512	0.141894	-0.741641	99
Es	-1.776070	0.882746	-0.853899	99
Es	-1.663339	-0.013531	-0.000019	99
Es	-1.751088	-0.911066	0.854470	99
Es	-0.310152	1.222485	0.490080	99
Es	1.960377	-0.776764	0.971965	99
Es	1.766550	-0.114490	0.743178	99
42
Properties=species:S:1:pos:R:3:Z:I:1 energy=-343.78143576207907 field_type=dipole dipole="0.000000 0.000000 0.000000" charge=0
C	1.773577	0.141927	-0.741818	6
C	1.766617	-0.114523	0.743362	6
C	0.488407	0.005077	-0.006968	6
O	-0.316283	1.169917	0.195432	8
C	-1.644953	0.737217	-0.127018	6
C	-1.630483	-0.764233	0.126602	6
O	-0.299263	-1.171333	-0.209398	8
H	2.056277	1.128807	-1.085648	1
H	2.069817	-0.668013	-1.395978	1
H	2.057477	-1.097453	1.091152	1
H	2.042977	0.699377	1.401592	1
H	-2.381823	1.262007	0.486732	1
H	-1.824023	0.960517	-1.184568	1
H	-2.364483	-1.300533	-0.478728	1
H	-1.793833	-0.988753	1.185252	1
Es	1.960422	-0.776711	0.971942	99
Es	-1.776100	0.882760	-0.853864	99
Es	1.773509	0.141893	-0.741634	99
Es	-0.309841	1.221861	0.490285	99
Es	-2.131410	-1.126393	-0.286065	99
Es	1.972739	-0.405512	-1.177181	99
Es	-0.011093	-0.708544	-0.125680	99
Es	-0.316328	1.169608	0.195327	99
Es	-0.229797	1.367971	-0.007951	99
Es	1.952430	0.014933	0.001964	99
Es	1.952672	0.435739	1.181448	99
Es	-1.751041	-0.911018	0.854504	99
Es	1.766550	-0.114490	0.743175	99
Es	1.043545	-0.083753	0.552064	99
Es	0.488310	0.005076	-0.006969	99
Es	1.047169	0.101150	-0.559793	99
Es	-0.800273	-1.003934	-0.079009	99
Es	-0.021404	0.711258	0.111062	99
Es	-1.630276	-0.764266	0.126537	99
Es	-2.147826	1.091248	0.291370	99
Es	-0.299332	-1.171026	-0.209294	99
Es	-1.644748	0.737251	-0.126952	99
Es	1.961434	0.806608	-0.967888	99
Es	-0.207635	-1.368533	-0.007804	99
Es	-1.663396	-0.013565	-0.000070	99
Es	-0.815639	0.993175	0.070079	99
Es	-0.294457	-1.222151	-0.504482	99
