42
Properties=species:S:1:pos:R:3:Z:I:1 energy=-343.79397954799214 field_type=dipole dipole="0.000000 0.000000 0.000000" charge=0
C	1.387186	-0.121086	-0.025347	6
C	0.472406	-1.156266	0.604843	6
O	-0.667044	-1.458186	-0.203967	8
C	-1.669634	-0.526686	-0.121247	6
C	-1.562664	0.781864	0.145183	6
O	-0.418904	1.531664	0.248273	8
C	0.642596	1.074964	-0.594137	6
H	1.970266	-0.577966	-0.833807	1
H	2.105056	0.211614	0.733533	1
H	1.031516	-2.089996	0.735043	1
H	0.157666	-0.853636	1.613153	1
H	-2.627924	-1.004876	-0.289027	1
H	-2.430564	1.413284	0.297733	1
H	1.345816	1.908394	-0.705797	1
H	0.264226	0.866914	-1.604437	1
Es	1.125501	1.642232	-0.665265	99
Es	1.872129	0.103308	0.497005	99
Es	-0.795151	-1.704482	-0.089610	99
Es	-1.669443	-0.526898	-0.121312	99
Es	1.002960	0.465833	-0.300040	99
Es	-0.587264	-1.432176	-0.483695	99
Es	-0.835754	1.207182	0.189389	99
Es	-1.023374	-1.067741	-0.152094	99
Es	1.780743	-0.429644	-0.580110	99
Es	-2.155105	1.199503	0.245646	99
Es	0.252790	-0.938934	1.288474	99
Es	0.920148	-0.625389	0.280691	99
Es	-0.256851	-1.307435	0.103211	99
Es	-2.321226	-0.840111	-0.232345	99
Es	0.642434	1.075008	-0.593962	99
Es	-0.505414	1.797799	0.142414	99
Es	-0.044128	1.326325	-0.072401	99
Es	-1.562436	0.782055	0.145239	99
Es	0.472231	-1.156284	0.604675	99
Es	0.377655	0.922648	-1.279959	99
Es	-0.418951	1.531342	0.248038	99
Es	0.856958	-1.792638	0.688268	99
Es	-1.633951	0.054677	0.348004	99
Es	1.387157	-0.121083	-0.025346	99
Es	-0.667041	-1.457927	-0.203817	99
Es	-1.615308	0.204448	-0.324286	99
Es	-0.339298	1.485614	0.527009	99
42
Properties=species:S:1:pos:R:3:Z:I:1 energy=-343.79397954799214 field_type=dipole dipole="0.000000 0.000000 0.000000" charge=0
C	1.387186	-0.121086	-0.025347	6
C	0.472406	-1.156266	0.604843	6
O	-0.667044	-1.458186	-0.203967	8
C	-1.669634	-0.526686	-0.121247	6
C	-1.562664	0.781864	0.145183	6
O	-0.418904	1.531664	0.248273	8
C	0.642596	1.074964	-0.594137	6
H	1.970266	-0.577966	-0.833807	1
H	2.105056	0.211614	0.733533	1
H	1.031516	-2.089996	0.735043	1
H	0.157666	-0.853636	1.613153	1
H	-2.627924	-1.004876	-0.289027	1
H	-2.430564	1.413284	0.297733	1
H	1.345816	1.908394	-0.705797	1
H	0.264226	0.866914	-1.604437	1
Es	0.252816	-0.939006	1.288469	99
Es	-1.633856	0.054723	0.347861	99
Es	-0.257004	-1.307477	0.103832	99
Es	0.642432	1.075006	-0.593963	99
Es	-1.615336	0.204447	-0.324235	99
Es	1.387160	-0.121081	-0.025349	99
Es	-1.669443	-0.526904	-0.121304	99
Es	-1.023789	-1.068087	-0.152149	99
Es	-0.043918	1.326309	-0.072510	99
Es	0.472231	-1.156285	0.604673	99
Es	1.125585	1.642182	-0.665170	99
Es	1.872064	0.103448	0.497040	99
Es	-0.418927	1.531303	0.248071	99
Es	-0.504045	1.801619	0.146141	99
Es	0.377666	0.922861	-1.279956	99
Es	-2.321275	-0.840082	-0.232320	99
Es	-0.794857	-1.704733	-0.090582	99
Es	-0.340260	1.481180	0.523982	99
Es	1.780827	-0.429628	-0.580038	99
Es	-0.587039	-1.431598	-0.483342	99
Es	-1.562446	0.782042	0.145218	99
Es	-0.667021	-1.457870	-0.203796	99
Es	0.856915	-1.792616	0.688266	99
Es	0.920212	-0.625404	0.280708	99
Es	-2.155142	1.199485	0.245694	99
Es	1.002817	0.465547	-0.300262	99
Es	-0.836356	1.207852	0.188844	99
42
Properties=species:S:1:pos:R:3:Z:I:1 energy=-343.79397954799214 field_type=dipole dipole="0.000000 0.000000 0.000000" charge=0
C	1.387186	-0.121086	-0.025347	6
C	0.472406	-1.156266	0.604843	6
O	-0.667044	-1.458186	-0.203967	8
C	-1.669634	-0.526686	-0.121247	6
C	-1.562664	0.781864	0.145183	6
O	-0.418904	1.531664	0.248273	8
C	0.642596	1.074964	-0.594137	6
H	1.970266	-0.577966	-0.833807	1
H	2.105056	0.211614	0.733533	1
H	1.031516	-2.089996	0.735043	1
H	0.157666	-0.853636	1.613153	1
H	-2.627924	-1.004876	-0.289027	1
H	-2.430564	1.413284	0.297733	1
H	1.345816	1.908394	-0.705797	1
H	0.264226	0.866914	-1.604437	1
Es	1.387159	-0.121083	-0.025346	99
Es	0.377684	0.922650	-1.279845	99
Es	0.472236	-1.156288	0.604675	99
Es	-2.155190	1.199473	0.245652	99
Es	1.780796	-0.429614	-0.580073	99
Es	-0.256890	-1.307747	0.103984	99
Es	-1.562438	0.782050	0.145243	99
Es	-1.023806	-1.067943	-0.152104	99
Es	-1.615285	0.204428	-0.324115	99
Es	-0.794819	-1.704075	-0.090645	99
Es	-0.836587	1.208903	0.187388	99
Es	-0.418939	1.531488	0.248209	99
Es	0.856983	-1.792656	0.688308	99
Es	0.252805	-0.939059	1.288370	99
Es	-1.669449	-0.526877	-0.121313	99
Es	1.872084	0.103332	0.496977	99
Es	-0.043779	1.326808	-0.073024	99
Es	-0.587103	-1.432153	-0.483522	99
Es	1.003037	0.465801	-0.300099	99
Es	-0.340800	1.479122	0.524143	99
Es	-2.321250	-0.840073	-0.232359	99
Es	1.125428	1.642290	-0.665383	99
Es	-0.667057	-1.457869	-0.203718	99
Es	-1.633948	0.054701	0.347800	99
Es	0.642434	1.075006	-0.593965	99
Es	-0.503443	1.801917	0.147797	99
Es	0.920152	-0.625301	0.280784	99
42
Properties=species:S:1:pos:R:3:Z:I:1 energy=-343.79397954799214 field_type=dipole dipole="0.000000 0.000000 0.000000" charge=0
C	1.387186	-0.121086	-0.025347	6
C	0.472406	-1.156266	0.604843	6
O	-0.667044	-1.458186	-0.203967	8
C	-1.669634	-0.526686	-0.121247	6
C	-1.562664	0.781864	0.145183	6
O	-0.418904	1.531664	0.248273	8
C	0.642596	1.074964	-0.594137	6
H	1.970266	-0.577966	-0.833807	1
H	2.105056	0.211614	0.733533	1
H	1.031516	-2.089996	0.735043	1
H	0.157666	-0.853636	1.613153	1
H	-2.627924	-1.004876	-0.289027	1
H	-2.430564	1.413284	0.297733	1
H	1.345816	1.908394	-0.705797	1
H	0.264226	0.866914	-1.604437	1
Es	0.920165	-0.625436	0.280731	99
Es	-0.256101	-1.307434	0.103340	99
Es	-0.341486	1.483459	0.525611	99
Es	-2.321284	-0.840025	-0.232448	99
Es	-0.835587	1.207968	0.188268	99
Es	0.472235	-1.156287	0.604676	99
Es	1.125490	1.642234	-0.665406	99
Es	1.003011	0.465830	-0.300075	99
Es	0.252838	-0.939016	1.288434	99
Es	-1.634074	0.054724	0.347814	99
Es	0.856935	-1.792596	0.688292	99
Es	-1.023596	-1.067577	-0.152992	99
Es	-0.504667	1.799933	0.143686	99
Es	0.642433	1.075006	-0.593964	99
Es	1.872169	0.103208	0.496939	99
Es	-2.155183	1.199484	0.245528	99
Es	-0.795130	-1.701927	-0.088581	99
Es	1.780703	-0.429540	-0.580106	99
Es	-0.587878	-1.435046	-0.484005	99
Es	-0.042756	1.325576	-0.071108	99
Es	-0.419000	1.531378	0.248098	99
Es	0.377676	0.922711	-1.279808	99
Es	-0.666980	-1.457843	-0.203814	99
Es	1.387159	-0.121082	-0.025346	99
Es	-1.615198	0.204377	-0.323872	99
Es	-1.669444	-0.526897	-0.121316	99
Es	-1.562439	0.782049	0.145245	99
42
Properties=species:S:1:pos:R:3:Z:I:1 energy=-343.79397954799214 field_type=dipole dipole="0.000000 0.000000 0.000000" charge=0
C	1.387186	-0.121086	-0.025347	6
C	0.472406	-1.156266	0.604843	6
O	-0.667044	-1.458186	-0.203967	8
C	-1.669634	-0.526686	-0.121247	6
C	-1.562664	0.781864	0.145183	6
O	-0.418904	1.531664	0.248273	8
C	0.642596	1.074964	-0.594137	6
H	1.970266	-0.577966	-0.833807	1
H	2.105056	0.211614	0.733533	1
H	1.031516	-2.089996	0.735043	1
H	0.157666	-0.853636	1.613153	1
H	-2.627924	-1.004876	-0.289027	1
H	-2.430564	1.413284	0.297733	1
H	1.345816	1.908394	-0.705797	1
H	0.264226	0.866914	-1.604437	1
Es	1.003042	0.465748	-0.300099	99
Es	-0.795236	-1.703059	-0.090483	99
Es	1.780672	-0.429615	-0.580119	99
Es	-2.155228	1.199445	0.245692	99
Es	0.856894	-1.792529	0.688303	99
Es	-1.669443	-0.526904	-0.121304	99
Es	1.387160	-0.121082	-0.025346	99
Es	1.125484	1.642209	-0.665378	99
Es	-2.321318	-0.840030	-0.232322	99
Es	-0.418921	1.531385	0.248126	99
Es	0.920174	-0.625279	0.280846	99
Es	0.642441	1.075006	-0.593972	99
Es	-0.340891	1.482157	0.525138	99
Es	0.377675	0.922792	-1.279809	99
Es	-0.504457	1.799916	0.145741	99
Es	-1.562441	0.782044	0.145240	99
Es	-0.667103	-1.457879	-0.203621	99
Es	0.472237	-1.156284	0.604679	99
Es	-0.043141	1.326677	-0.072633	99
Es	-0.586836	-1.433343	-0.483393	99
Es	-0.256951	-1.308014	0.104574	99
Es	-1.023554	-1.067578	-0.153135	99
Es	-0.836055	1.208208	0.188162	99
Es	-1.615364	0.204403	-0.323898	99
Es	0.252871	-0.939141	1.288421	99
Es	1.872191	0.103226	0.496859	99
Es	-1.633888	0.054752	0.347554	99
42
Properties=species:S:1:pos:R:3:Z:I:1 energy=-343.79397954799214 field_type=dipole dipole="0.000000 0.000000 0.000000" charge=0
C	1.387186	-0.121086	-0.025347	6
C	0.472406	-1.156266	0.604843	6
O	-0.667044	-1.458186	-0.203967	8
C	-1.669634	-0.526686	-0.121247	6
C	-1.562664	0.781864	0.145183	6
O	-0.418904	1.531664	0.248273	8
C	0.642596	1.074964	-0.594137	6
H	1.970266	-0.577966	-0.833807	1
H	2.105056	0.211614	0.733533	1
H	1.031516	-2.089996	0.735043	1
H	0.157666	-0.853636	1.613153	1
H	-2.627924	-1.004876	-0.289027	1
H	-2.430564	1.413284	0.297733	1
H	1.345816	1.908394	-0.705797	1
H	0.264226	0.866914	-1.604437	1
Es	-1.633956	0.054799	0.347425	99
Es	-1.669440	-0.526905	-0.121317	99
Es	0.642436	1.075006	-0.593966	99
Es	1.003092	0.465737	-0.300030	99
Es	-2.155291	1.199427	0.245613	99
Es	0.472233	-1.156288	0.604673	99
Es	-0.504445	1.801994	0.147126	99
Es	-2.321341	-0.840013	-0.232265	99
Es	-0.794738	-1.703305	-0.090698	99
Es	-0.256093	-1.307848	0.103877	99
Es	1.125420	1.642216	-0.665486	99
Es	-1.615221	0.204379	-0.323813	99
Es	0.856856	-1.792595	0.688408	99
Es	0.920239	-0.625428	0.280679	99
Es	0.377690	0.922765	-1.279744	99
Es	-0.835843	1.207928	0.188667	99
Es	-0.043065	1.326668	-0.072622	99
Es	1.872030	0.103204	0.496982	99
Es	1.780845	-0.429519	-0.580127	99
Es	-0.587792	-1.432954	-0.482894	99
Es	-0.667045	-1.457870	-0.203751	99
Es	1.387160	-0.121081	-0.025346	99
Es	-0.418925	1.531285	0.248094	99
Es	-0.341209	1.480517	0.523357	99
Es	-1.562442	0.782044	0.145234	99
Es	-1.024008	-1.067893	-0.152595	99
Es	0.252866	-0.939039	1.288341	99
42
Properties=species:S:1:pos:R:3:Z:I:1 energy=-343.79397954799214 field_type=dipole dipole="0.000000 0.000000 0.000000" charge=0
C	1.387186	-0.121086	-0.025347	6
C	0.472406	-1.156266	0.604843	6
O	-0.667044	-1.458186	-0.203967	8
C	-1.669634	-0.526686	-0.121247	6
C	-1.562664	0.781864	0.145183	6
O	-0.418904	1.531664	0.248273	8
C	0.642596	1.074964	-0.594137	6
H	1.970266	-0.577966	-0.833807	1
H	2.105056	0.211614	0.733533	1
H	1.031516	-2.089996	0.735043	1
H	0.157666	-0.853636	1.613153	1
H	-2.627924	-1.004876	-0.289027	1
H	-2.430564	1.413284	0.297733	1
H	1.345816	1.908394	-0.705797	1
H	0.264226	0.866914	-1.604437	1
Es	-2.321387	-0.839981	-0.232341	99
Es	0.377755	0.922909	-1.279781	99
Es	1.780833	-0.429567	-0.580013	99
Es	-0.418987	1.531394	0.248104	99
Es	-0.794243	-1.704234	-0.091913	99
Es	-1.633904	0.054789	0.347361	99
Es	0.252879	-0.939101	1.288330	99
Es	-1.615269	0.204358	-0.323707	99
Es	0.920299	-0.625368	0.280737	99
Es	-0.837168	1.208754	0.188992	99
Es	1.387159	-0.121082	-0.025346	99
Es	-1.024454	-1.068443	-0.152102	99
Es	-0.256381	-1.307820	0.104280	99
Es	-0.043206	1.326698	-0.073621	99
Es	-0.667072	-1.457878	-0.203754	99
Es	1.002930	0.465529	-0.300286	99
Es	0.856855	-1.792577	0.688401	99
Es	1.125478	1.642195	-0.665352	99
Es	1.872061	0.103380	0.497008	99
Es	-1.562442	0.782044	0.145242	99
Es	-0.503634	1.799574	0.147176	99
Es	-0.340506	1.481944	0.523949	99
Es	0.642436	1.075007	-0.593967	99
Es	-1.669443	-0.526903	-0.121301	99
Es	-2.155279	1.199408	0.245647	99
Es	-0.587532	-1.431513	-0.482596	99
Es	0.472235	-1.156286	0.604676	99
42
Properties=species:S:1:pos:R:3:Z:I:1 energy=-343.79397954799214 field_type=dipole dipole="0.000000 0.000000 0.000000" charge=0
C	1.387186	-0.121086	-0.025347	6
C	0.472406	-1.156266	0.604843	6
O	-0.667044	-1.458186	-0.203967	8
C	-1.669634	-0.526686	-0.121247	6
C	-1.562664	0.781864	0.145183	6
O	-0.418904	1.531664	0.248273	8
C	0.642596	1.074964	-0.594137	6
H	1.970266	-0.577966	-0.833807	1
H	2.105056	0.211614	0.733533	1
H	1.031516	-2.089996	0.735043	1
H	0.157666	-0.853636	1.613153	1
H	-2.627924	-1.004876	-0.289027	1
H	-2.430564	1.413284	0.297733	1
H	1.345816	1.908394	-0.705797	1
H	0.264226	0.866914	-1.604437	1
Es	0.856871	-1.792535	0.688334	99
Es	-0.341973	1.476946	0.522539	99
Es	-2.321337	-0.839997	-0.232342	99
Es	-2.155277	1.199370	0.245723	99
Es	-1.633955	0.054800	0.347363	99
Es	-1.023431	-1.067332	-0.153947	99
Es	-0.587303	-1.435716	-0.483801	99
Es	-0.667057	-1.457909	-0.203787	99
Es	-1.562442	0.782040	0.145242	99
Es	-0.795418	-1.701354	-0.088603	99
Es	-0.502188	1.802794	0.151068	99
Es	-0.418941	1.531381	0.248102	99
Es	-1.615322	0.204368	-0.323716	99
Es	0.920204	-0.625356	0.280798	99
Es	0.642438	1.075005	-0.593969	99
Es	1.387161	-0.121082	-0.025346	99
Es	1.125445	1.642189	-0.665456	99
Es	1.780719	-0.429531	-0.580058	99
Es	-0.256489	-1.307551	0.104048	99
Es	1.872148	0.103169	0.496890	99
Es	-0.837467	1.209917	0.186398	99
Es	-0.042897	1.327378	-0.073520	99
Es	0.377729	0.922845	-1.279735	99
Es	-1.669446	-0.526894	-0.121302	99
Es	0.472234	-1.156289	0.604673	99
Es	1.003090	0.465748	-0.300146	99
Es	0.252919	-0.939171	1.288372	99
42
Properties=species:S:1:pos:R:3:Z:I:1 energy=-343.79397954799214 field_type=dipole dipole="0.000000 0.000000 0.000000" charge=0
C	1.387186	-0.121086	-0.025347	6
C	0.472406	-1.156266	0.604843	6
O	-0.667044	-1.458186	-0.203967	8
C	-1.669634	-0.526686	-0.121247	6
C	-1.562664	0.781864	0.145183	6
O	-0.418904	1.531664	0.248273	8
C	0.642596	1.074964	-0.594137	6
H	1.970266	-0.577966	-0.833807	1
H	2.105056	0.211614	0.733533	1
H	1.031516	-2.089996	0.735043	1
H	0.157666	-0.853636	1.613153	1
H	-2.627924	-1.004876	-0.289027	1
H	-2.430564	1.413284	0.297733	1
H	1.345816	1.908394	-0.705797	1
H	0.264226	0.866914	-1.604437	1
Es	-1.615230	0.204310	-0.323414	99
Es	-0.342018	1.478775	0.523226	99
Es	-2.321445	-0.839914	-0.232408	99
Es	-0.588159	-1.430470	-0.481517	99
Es	-1.562445	0.782039	0.145219	99
Es	-2.155357	1.199357	0.245551	99
Es	0.472240	-1.156286	0.604679	99
Es	0.642438	1.075006	-0.593970	99
Es	1.872086	0.103227	0.496958	99
Es	-0.837501	1.209794	0.186774	99
Es	-0.793984	-1.704636	-0.093720	99
Es	0.856855	-1.792578	0.688518	99
Es	-1.669443	-0.526898	-0.121310	99
Es	-0.666945	-1.457752	-0.203851	99
Es	-0.418937	1.531385	0.248131	99
Es	1.003046	0.465655	-0.300177	99
Es	-0.255810	-1.308551	0.104572	99
Es	0.920282	-0.625447	0.280733	99
Es	0.252880	-0.939060	1.288239	99
Es	-1.633859	0.054814	0.347240	99
Es	1.780800	-0.429464	-0.580063	99
Es	0.377753	0.922910	-1.279748	99
Es	-1.024781	-1.068560	-0.151585	99
Es	1.125417	1.642174	-0.665423	99
Es	-0.502381	1.801530	0.149525	99
Es	-0.042649	1.326955	-0.073012	99
Es	1.387160	-0.121082	-0.025346	99
42
Properties=species:S:1:pos:R:3:Z:I:1 energy=-343.79397954799214 field_type=dipole dipole="0.000000 0.000000 0.000000" charge=0
C	1.387186	-0.121086	-0.025347	6
C	0.472406	-1.156266	0.604843	6
O	-0.667044	-1.458186	-0.203967	8
C	-1.669634	-0.526686	-0.121247	6
C	-1.562664	0.781864	0.145183	6
O	-0.418904	1.531664	0.248273	8
C	0.642596	1.074964	-0.594137	6
H	1.970266	-0.577966	-0.833807	1
H	2.105056	0.211614	0.733533	1
H	1.031516	-2.089996	0.735043	1
H	0.157666	-0.853636	1.613153	1
H	-2.627924	-1.004876	-0.289027	1
H	-2.430564	1.413284	0.297733	1
H	1.345816	1.908394	-0.705797	1
H	0.264226	0.866914	-1.604437	1
Es	0.856809	-1.792566	0.688483	99
Es	-0.419052	1.531451	0.247860	99
Es	1.387164	-0.121083	-0.025348	99
Es	1.780833	-0.429422	-0.580046	99
Es	0.377800	0.922972	-1.279732	99
Es	-1.669445	-0.526899	-0.121302	99
Es	-0.042328	1.326837	-0.072792	99
Es	-0.255260	-1.307700	0.103243	99
Es	0.920342	-0.625441	0.280753	99
Es	-0.503800	1.798972	0.146908	99
Es	-1.615265	0.204305	-0.323378	99
Es	-0.588511	-1.435860	-0.482801	99
Es	0.472242	-1.156287	0.604678	99
Es	-0.795054	-1.701314	-0.089019	99
Es	-1.633867	0.054846	0.347078	99
Es	-1.023821	-1.067231	-0.153789	99
Es	-1.562442	0.782041	0.145245	99
Es	-0.341429	1.482821	0.524101	99
Es	0.642434	1.075007	-0.593966	99
Es	-2.321462	-0.839914	-0.232389	99
Es	0.252884	-0.939158	1.288250	99
Es	1.872061	0.103266	0.496973	99
Es	-0.667016	-1.457820	-0.203790	99
Es	-2.155366	1.199368	0.245669	99
Es	1.125457	1.642109	-0.665418	99
Es	1.002970	0.465545	-0.300204	99
Es	-0.836862	1.208388	0.188555	99
42
Properties=species:S:1:pos:R:3:Z:I:1 energy=-343.79397954799214 field_type=dipole dipole="0.000000 0.000000 0.000000" charge=0
C	1.387186	-0.121086	-0.025347	6
C	0.472406	-1.156266	0.604843	6
O	-0.667044	-1.458186	-0.203967	8
C	-1.669634	-0.526686	-0.121247	6
C	-1.562664	0.781864	0.145183	6
O	-0.418904	1.531664	0.248273	8
C	0.642596	1.074964	-0.594137	6
H	1.970266	-0.577966	-0.833807	1
H	2.105056	0.211614	0.733533	1
H	1.031516	-2.089996	0.735043	1
H	0.157666	-0.853636	1.613153	1
H	-2.627924	-1.004876	-0.289027	1
H	-2.430564	1.413284	0.297733	1
H	1.345816	1.908394	-0.705797	1
H	0.264226	0.866914	-1.604437	1
Es	-0.042157	1.328377	-0.074116	99
Es	-0.255169	-1.307937	0.103668	99
Es	-1.633803	0.054866	0.346944	99
Es	-0.342194	1.477639	0.521092	99
Es	-0.418890	1.531215	0.248144	99
Es	-0.837336	1.208953	0.187392	99
Es	1.387161	-0.121082	-0.025346	99
Es	-2.155426	1.199306	0.245700	99
Es	0.856781	-1.792553	0.688504	99
Es	-0.666991	-1.457818	-0.203806	99
Es	-0.794168	-1.701436	-0.090415	99
Es	-0.588776	-1.434580	-0.483111	99
Es	1.872023	0.103197	0.497000	99
Es	0.920367	-0.625483	0.280672	99
Es	0.377827	0.922889	-1.279700	99
Es	0.642437	1.075007	-0.593968	99
Es	1.125409	1.642146	-0.665476	99
Es	0.472240	-1.156286	0.604679	99
Es	1.780867	-0.429422	-0.579976	99
Es	-2.321486	-0.839892	-0.232352	99
Es	-0.502932	1.802328	0.152097	99
Es	0.252921	-0.939140	1.288248	99
Es	-1.669446	-0.526899	-0.121297	99
Es	-1.562443	0.782036	0.145253	99
Es	-1.615231	0.204304	-0.323304	99
Es	-1.024605	-1.068188	-0.152498	99
Es	1.003031	0.465685	-0.300203	99
42
Properties=species:S:1:pos:R:3:Z:I:1 energy=-343.79397954799214 field_type=dipole dipole="0.000000 0.000000 0.000000" charge=0
C	1.387186	-0.121086	-0.025347	6
C	0.472406	-1.156266	0.604843	6
O	-0.667044	-1.458186	-0.203967	8
C	-1.669634	-0.526686	-0.121247	6
C	-1.562664	0.781864	0.145183	6
O	-0.418904	1.531664	0.248273	8
C	0.642596	1.074964	-0.594137	6
H	1.970266	-0.577966	-0.833807	1
H	2.105056	0.211614	0.733533	1
H	1.031516	-2.089996	0.735043	1
H	0.157666	-0.853636	1.613153	1
H	-2.627924	-1.004876	-0.289027	1
H	-2.430564	1.413284	0.297733	1
H	1.345816	1.908394	-0.705797	1
H	0.264226	0.866914	-1.604437	1
Es	0.920498	-0.625443	0.280688	99
Es	0.252920	-0.939157	1.288187	99
Es	-0.794317	-1.703934	-0.093970	99
Es	0.642439	1.075007	-0.593973	99
Es	1.872026	0.103231	0.496974	99
Es	1.387159	-0.121084	-0.025345	99
Es	1.125465	1.642148	-0.665470	99
Es	-1.024632	-1.068436	-0.152132	99
Es	-0.418987	1.531367	0.247992	99
Es	-0.667004	-1.457811	-0.203801	99
Es	-0.341318	1.479674	0.522163	99
Es	1.002879	0.465581	-0.300209	99
Es	-0.588219	-1.430853	-0.481352	99
Es	-0.255508	-1.308965	0.105107	99
Es	1.780870	-0.429404	-0.580058	99
Es	-1.633850	0.054880	0.346860	99
Es	0.377781	0.922960	-1.279668	99
Es	-0.837181	1.208668	0.188480	99
Es	0.856752	-1.792543	0.688568	99
Es	-0.503330	1.801087	0.150010	99
Es	-1.562442	0.782044	0.145244	99
Es	-2.321513	-0.839887	-0.232307	99
Es	-1.615258	0.204276	-0.323219	99
Es	-1.669444	-0.526905	-0.121291	99
Es	-2.155412	1.199356	0.245625	99
Es	-0.042605	1.327659	-0.073963	99
Es	0.472246	-1.156286	0.604683	99
42
Properties=species:S:1:pos:R:3:Z:I:1 energy=-343.79397954799214 field_type=dipole dipole="0.000000 0.000000 0.000000" charge=0
C	1.387186	-0.121086	-0.025347	6
C	0.472406	-1.156266	0.604843	6
O	-0.667044	-1.458186	-0.203967	8
C	-1.669634	-0.526686	-0.121247	6
C	-1.562664	0.781864	0.145183	6
O	-0.418904	1.531664	0.248273	8
C	0.642596	1.074964	-0.594137	6
H	1.970266	-0.577966	-0.833807	1
H	2.105056	0.211614	0.733533	1
H	1.031516	-2.089996	0.735043	1
H	0.157666	-0.853636	1.613153	1
H	-2.627924	-1.004876	-0.289027	1
H	-2.430564	1.413284	0.297733	1
H	1.345816	1.908394	-0.705797	1
H	0.264226	0.866914	-1.604437	1
Es	-0.587249	-1.427549	-0.480540	99
Es	-0.041165	1.327969	-0.073264	99
Es	-1.669444	-0.526900	-0.121302	99
Es	0.472240	-1.156286	0.604679	99
Es	0.252949	-0.939205	1.288205	99
Es	-1.562442	0.782041	0.145241	99
Es	-0.418938	1.531484	0.248182	99
Es	0.856802	-1.792536	0.688510	99
Es	-0.837373	1.208853	0.187609	99
Es	1.003006	0.465652	-0.300268	99
Es	-1.633836	0.054889	0.346745	99
Es	-0.256497	-1.309922	0.106523	99
Es	-0.342706	1.480017	0.522045	99
Es	1.125418	1.642094	-0.665410	99
Es	-2.321533	-0.839873	-0.232336	99
Es	1.872162	0.103122	0.496894	99
Es	-0.793311	-1.705620	-0.097455	99
Es	-0.503246	1.800173	0.150103	99
Es	1.780711	-0.429483	-0.580004	99
Es	0.377830	0.923057	-1.279715	99
Es	1.387162	-0.121082	-0.025347	99
Es	-0.667006	-1.457816	-0.203783	99
Es	-2.155469	1.199317	0.245633	99
Es	-1.025601	-1.069075	-0.150866	99
Es	0.920365	-0.625351	0.280796	99
Es	0.642437	1.075006	-0.593970	99
Es	-1.615252	0.204253	-0.323085	99
42
Properties=species:S:1:pos:R:3:Z:I:1 energy=-343.79397954799214 field_type=dipole dipole="0.000000 0.000000 0.000000" charge=0
C	1.387186	-0.121086	-0.025347	6
C	0.472406	-1.156266	0.604843	6
O	-0.667044	-1.458186	-0.203967	8
C	-1.669634	-0.526686	-0.121247	6
C	-1.562664	0.781864	0.145183	6
O	-0.418904	1.531664	0.248273	8
C	0.642596	1.074964	-0.594137	6
H	1.970266	-0.577966	-0.833807	1
H	2.105056	0.211614	0.733533	1
H	1.031516	-2.089996	0.735043	1
H	0.157666	-0.853636	1.613153	1
H	-2.627924	-1.004876	-0.289027	1
H	-2.430564	1.413284	0.297733	1
H	1.345816	1.908394	-0.705797	1
H	0.264226	0.866914	-1.604437	1
Es	-1.669445	-0.526897	-0.121299	99
Es	-2.155522	1.199287	0.245612	99
Es	-1.025196	-1.069180	-0.151493	99
Es	-0.837778	1.209946	0.186874	99
Es	-1.633759	0.054908	0.346633	99
Es	0.642440	1.075005	-0.593971	99
Es	1.387161	-0.121078	-0.025348	99
Es	-0.502196	1.801844	0.151840	99
Es	-0.418931	1.531386	0.248082	99
Es	-0.793596	-1.703370	-0.094084	99
Es	-0.042386	1.327856	-0.074073	99
Es	-0.667040	-1.457917	-0.203809	99
Es	-1.562453	0.782035	0.145232	99
Es	0.472242	-1.156286	0.604680	99
Es	-0.588257	-1.430783	-0.482023	99
Es	-2.321553	-0.839840	-0.232296	99
Es	1.125390	1.642106	-0.665438	99
Es	-1.615262	0.204234	-0.322967	99
Es	0.252982	-0.939208	1.288214	99
Es	1.780829	-0.429437	-0.580019	99
Es	0.856768	-1.792494	0.688522	99
Es	0.377845	0.923102	-1.279674	99
Es	1.872055	0.103150	0.496977	99
Es	-0.255594	-1.308792	0.105279	99
Es	1.003045	0.465546	-0.300256	99
Es	0.920373	-0.625390	0.280684	99
Es	-0.342148	1.477497	0.521945	99
42
Properties=species:S:1:pos:R:3:Z:I:1 energy=-343.79397954799214 field_type=dipole dipole="0.000000 0.000000 0.000000" charge=0
C	1.387186	-0.121086	-0.025347	6
C	0.472406	-1.156266	0.604843	6
O	-0.667044	-1.458186	-0.203967	8
C	-1.669634	-0.526686	-0.121247	6
C	-1.562664	0.781864	0.145183	6
O	-0.418904	1.531664	0.248273	8
C	0.642596	1.074964	-0.594137	6
H	1.970266	-0.577966	-0.833807	1
H	2.105056	0.211614	0.733533	1
H	1.031516	-2.089996	0.735043	1
H	0.157666	-0.853636	1.613153	1
H	-2.627924	-1.004876	-0.289027	1
H	-2.430564	1.413284	0.297733	1
H	1.345816	1.908394	-0.705797	1
H	0.264226	0.866914	-1.604437	1
Es	1.003091	0.465645	-0.300291	99
Es	0.252960	-0.939265	1.288163	99
Es	0.856718	-1.792519	0.688561	99
Es	-1.615170	0.204220	-0.322923	99
Es	0.472243	-1.156287	0.604682	99
Es	-2.321531	-0.839766	-0.232435	99
Es	0.642440	1.075005	-0.593970	99
Es	-1.669446	-0.526904	-0.121297	99
Es	1.780794	-0.429452	-0.579960	99
Es	-0.042214	1.327562	-0.073817	99
Es	-1.633949	0.054906	0.346770	99
Es	0.377850	0.923033	-1.279596	99
Es	-0.341538	1.481038	0.522509	99
Es	-0.418911	1.531349	0.248110	99
Es	1.872084	0.103091	0.496959	99
Es	-1.025436	-1.069118	-0.150981	99
Es	1.387162	-0.121084	-0.025346	99
Es	-0.588218	-1.429017	-0.480845	99
Es	-0.503547	1.799884	0.149142	99
Es	1.125365	1.642137	-0.665541	99
Es	-0.666958	-1.457741	-0.203865	99
Es	-0.793421	-1.704674	-0.096142	99
Es	-0.837235	1.208676	0.188755	99
Es	-1.562445	0.782037	0.145243	99
Es	-0.255659	-1.309516	0.105687	99
Es	-2.155445	1.199320	0.245533	99
Es	0.920430	-0.625329	0.280716	99
42
Properties=species:S:1:pos:R:3:Z:I:1 energy=-343.79397954799214 field_type=dipole dipole="0.000000 0.000000 0.000000" charge=0
C	1.387186	-0.121086	-0.025347	6
C	0.472406	-1.156266	0.604843	6
O	-0.667044	-1.458186	-0.203967	8
C	-1.669634	-0.526686	-0.121247	6
C	-1.562664	0.781864	0.145183	6
O	-0.418904	1.531664	0.248273	8
C	0.642596	1.074964	-0.594137	6
H	1.970266	-0.577966	-0.833807	1
H	2.105056	0.211614	0.733533	1
H	1.031516	-2.089996	0.735043	1
H	0.157666	-0.853636	1.613153	1
H	-2.627924	-1.004876	-0.289027	1
H	-2.430564	1.413284	0.297733	1
H	1.345816	1.908394	-0.705797	1
H	0.264226	0.866914	-1.604437	1
Es	1.125326	1.642122	-0.665528	99
Es	-1.562444	0.782039	0.145240	99
Es	-2.321610	-0.839787	-0.232380	99
Es	1.387162	-0.121082	-0.025345	99
Es	1.872095	0.103135	0.496926	99
Es	-1.633814	0.054938	0.346488	99
Es	-2.155546	1.199266	0.245634	99
Es	1.003118	0.465618	-0.300258	99
Es	-0.255395	-1.309389	0.105639	99
Es	-0.042661	1.328654	-0.075161	99
Es	0.856744	-1.792497	0.688551	99
Es	0.472243	-1.156288	0.604685	99
Es	0.920413	-0.625361	0.280769	99
Es	-0.342225	1.474494	0.519863	99
Es	-0.588566	-1.426467	-0.479946	99
Es	-1.615193	0.204207	-0.322790	99
Es	-0.667034	-1.457826	-0.203752	99
Es	-0.501599	1.803817	0.155444	99
Es	1.780788	-0.429406	-0.579992	99
Es	-0.837883	1.210092	0.186744	99
Es	-1.669445	-0.526897	-0.121305	99
Es	-1.026247	-1.070019	-0.149957	99
Es	0.642442	1.075005	-0.593970	99
Es	0.377897	0.923047	-1.279611	99
Es	-0.792451	-1.706352	-0.098116	99
Es	0.252979	-0.939287	1.288156	99
Es	-0.419085	1.531454	0.247793	99
42
Properties=species:S:1:pos:R:3:Z:I:1 energy=-343.79397954799214 field_type=dipole dipole="0.000000 0.000000 0.000000" charge=0
C	1.387186	-0.121086	-0.025347	6
C	0.472406	-1.156266	0.604843	6
O	-0.667044	-1.458186	-0.203967	8
C	-1.669634	-0.526686	-0.121247	6
C	-1.562664	0.781864	0.145183	6
O	-0.418904	1.531664	0.248273	8
C	0.642596	1.074964	-0.594137	6
H	1.970266	-0.577966	-0.833807	1
H	2.105056	0.211614	0.733533	1
H	1.031516	-2.089996	0.735043	1
H	0.157666	-0.853636	1.613153	1
H	-2.627924	-1.004876	-0.289027	1
H	-2.430564	1.413284	0.297733	1
H	1.345816	1.908394	-0.705797	1
H	0.264226	0.866914	-1.604437	1
Es	-0.342016	1.479007	0.522053	99
Es	-1.633782	0.054965	0.346400	99
Es	0.252966	-0.939150	1.288076	99
Es	-1.669445	-0.526900	-0.121302	99
Es	1.125349	1.642127	-0.665538	99
Es	-0.792921	-1.705732	-0.097712	99
Es	1.003085	0.465543	-0.300322	99
Es	-2.155566	1.199257	0.245626	99
Es	0.642443	1.075004	-0.593972	99
Es	-0.502596	1.800430	0.151344	99
Es	-0.418917	1.531395	0.248102	99
Es	1.387157	-0.121082	-0.025346	99
Es	-1.025930	-1.069556	-0.150610	99
Es	-1.615180	0.204191	-0.322737	99
Es	-0.667035	-1.457883	-0.203798	99
Es	-0.588449	-1.427256	-0.479871	99
Es	1.780872	-0.429396	-0.579955	99
Es	-0.837842	1.209593	0.187569	99
Es	1.872020	0.103161	0.496937	99
Es	0.472237	-1.156287	0.604678	99
Es	-1.562448	0.782035	0.145218	99
Es	0.920427	-0.625446	0.280711	99
Es	0.377881	0.923092	-1.279579	99
Es	-0.255334	-1.309711	0.105804	99
Es	-2.321649	-0.839775	-0.232310	99
Es	0.856742	-1.792502	0.688706	99
Es	-0.042059	1.328107	-0.074353	99
42
Properties=species:S:1:pos:R:3:Z:I:1 energy=-343.79397954799214 field_type=dipole dipole="0.000000 0.000000 0.000000" charge=0
C	1.387186	-0.121086	-0.025347	6
C	0.472406	-1.156266	0.604843	6
O	-0.667044	-1.458186	-0.203967	8
C	-1.669634	-0.526686	-0.121247	6
C	-1.562664	0.781864	0.145183	6
O	-0.418904	1.531664	0.248273	8
C	0.642596	1.074964	-0.594137	6
H	1.970266	-0.577966	-0.833807	1
H	2.105056	0.211614	0.733533	1
H	1.031516	-2.089996	0.735043	1
H	0.157666	-0.853636	1.613153	1
H	-2.627924	-1.004876	-0.289027	1
H	-2.430564	1.413284	0.297733	1
H	1.345816	1.908394	-0.705797	1
H	0.264226	0.866914	-1.604437	1
Es	0.472241	-1.156286	0.604680	99
Es	-0.041282	1.327186	-0.073254	99
Es	-1.562444	0.782040	0.145238	99
Es	-0.588307	-1.428378	-0.480141	99
Es	-0.793356	-1.704876	-0.097001	99
Es	0.253026	-0.939344	1.288106	99
Es	-0.255419	-1.309737	0.106005	99
Es	-2.321652	-0.839751	-0.232375	99
Es	-1.633786	0.054961	0.346304	99
Es	-0.667040	-1.457913	-0.203800	99
Es	-0.342630	1.481492	0.522819	99
Es	-0.418948	1.531360	0.248067	99
Es	-0.502917	1.799050	0.149182	99
Es	1.125280	1.642165	-0.665637	99
Es	1.003181	0.465603	-0.300253	99
Es	-1.025571	-1.069167	-0.151233	99
Es	1.872107	0.103117	0.496923	99
Es	0.856735	-1.792495	0.688579	99
Es	-1.669445	-0.526899	-0.121302	99
Es	-1.615171	0.204161	-0.322589	99
Es	0.377890	0.923028	-1.279516	99
Es	1.780779	-0.429400	-0.579981	99
Es	0.642438	1.075006	-0.593969	99
Es	-2.155595	1.199244	0.245631	99
Es	0.920416	-0.625313	0.280782	99
Es	1.387161	-0.121083	-0.025345	99
Es	-0.837676	1.209460	0.187901	99
42
Properties=species:S:1:pos:R:3:Z:I:1 energy=-343.79397954799214 field_type=dipole dipole="0.000000 0.000000 0.000000" charge=0
C	1.387186	-0.121086	-0.025347	6
C	0.472406	-1.156266	0.604843	6
O	-0.667044	-1.458186	-0.203967	8
C	-1.669634	-0.526686	-0.121247	6
C	-1.562664	0.781864	0.145183	6
O	-0.418904	1.531664	0.248273	8
C	0.642596	1.074964	-0.594137	6
H	1.970266	-0.577966	-0.833807	1
H	2.105056	0.211614	0.733533	1
H	1.031516	-2.089996	0.735043	1
H	0.157666	-0.853636	1.613153	1
H	-2.627924	-1.004876	-0.289027	1
H	-2.430564	1.413284	0.297733	1
H	1.345816	1.908394	-0.705797	1
H	0.264226	0.866914	-1.604437	1
Es	-0.667024	-1.457845	-0.203763	99
Es	-1.562444	0.782040	0.145241	99
Es	-0.343043	1.479115	0.521469	99
Es	1.003150	0.465642	-0.300163	99
Es	-2.321647	-0.839732	-0.232386	99
Es	-0.501593	1.800664	0.151452	99
Es	1.125332	1.642136	-0.665578	99
Es	-0.838455	1.210248	0.187135	99
Es	0.642441	1.075006	-0.593972	99
Es	-1.633815	0.054967	0.346273	99
Es	-2.155588	1.199230	0.245687	99
Es	-1.669445	-0.526897	-0.121301	99
Es	1.387163	-0.121082	-0.025349	99
Es	1.872108	0.103004	0.496949	99
Es	0.856627	-1.792499	0.688727	99
Es	-0.041380	1.327177	-0.073386	99
Es	0.920510	-0.625414	0.280646	99
Es	-0.587994	-1.427019	-0.479625	99
Es	-0.792831	-1.705748	-0.098481	99
Es	-0.418976	1.531361	0.248003	99
Es	1.780767	-0.429321	-0.580051	99
Es	0.377909	0.923067	-1.279538	99
Es	0.253019	-0.939248	1.288036	99
Es	-1.026089	-1.069670	-0.150900	99
Es	0.472245	-1.156286	0.604683	99
Es	-0.255759	-1.309819	0.106590	99
Es	-1.615176	0.204155	-0.322577	99
42
Properties=species:S:1:pos:R:3:Z:I:1 energy=-343.79397954799214 field_type=dipole dipole="0.000000 0.000000 0.000000" charge=0
C	1.387186	-0.121086	-0.025347	6
C	0.472406	-1.156266	0.604843	6
O	-0.667044	-1.458186	-0.203967	8
C	-1.669634	-0.526686	-0.121247	6
C	-1.562664	0.781864	0.145183	6
O	-0.418904	1.531664	0.248273	8
C	0.642596	1.074964	-0.594137	6
H	1.970266	-0.577966	-0.833807	1
H	2.105056	0.211614	0.733533	1
H	1.031516	-2.089996	0.735043	1
H	0.157666	-0.853636	1.613153	1
H	-2.627924	-1.004876	-0.289027	1
H	-2.430564	1.413284	0.297733	1
H	1.345816	1.908394	-0.705797	1
H	0.264226	0.866914	-1.604437	1
Es	-0.588884	-1.429561	-0.479999	99
Es	-0.499669	1.804269	0.158944	99
Es	0.472243	-1.156287	0.604683	99
Es	0.920458	-0.625374	0.280756	99
Es	-0.793450	-1.703927	-0.096395	99
Es	-0.254770	-1.309869	0.105604	99
Es	1.872038	0.103113	0.496919	99
Es	0.253016	-0.939341	1.288099	99
Es	-2.155658	1.199176	0.245728	99
Es	1.780849	-0.429333	-0.579973	99
Es	-0.418956	1.531323	0.248050	99
Es	-0.343369	1.471292	0.519303	99
Es	-1.615204	0.204170	-0.322510	99
Es	-2.321745	-0.839746	-0.232231	99
Es	-1.633649	0.055018	0.345974	99
Es	0.856718	-1.792463	0.688611	99
Es	0.642444	1.075005	-0.593975	99
Es	-1.562441	0.782036	0.145241	99
Es	-0.042187	1.329518	-0.075912	99
Es	1.387163	-0.121080	-0.025352	99
Es	1.125284	1.642095	-0.665593	99
Es	-1.669447	-0.526900	-0.121292	99
Es	0.377931	0.923158	-1.279519	99
Es	-0.839256	1.212204	0.184313	99
Es	-1.025561	-1.068878	-0.151562	99
Es	1.003122	0.465512	-0.300276	99
Es	-0.667006	-1.457899	-0.203812	99
42
Properties=species:S:1:pos:R:3:Z:I:1 energy=-343.79397954799214 field_type=dipole dipole="0.000000 0.000000 0.000000" charge=0
C	1.387186	-0.121086	-0.025347	6
C	0.472406	-1.156266	0.604843	6
O	-0.667044	-1.458186	-0.203967	8
C	-1.669634	-0.526686	-0.121247	6
C	-1.562664	0.781864	0.145183	6
O	-0.418904	1.531664	0.248273	8
C	0.642596	1.074964	-0.594137	6
H	1.970266	-0.577966	-0.833807	1
H	2.105056	0.211614	0.733533	1
H	1.031516	-2.089996	0.735043	1
H	0.157666	-0.853636	1.613153	1
H	-2.627924	-1.004876	-0.289027	1
H	-2.430564	1.413284	0.297733	1
H	1.345816	1.908394	-0.705797	1
H	0.264226	0.866914	-1.604437	1
Es	1.125255	1.642131	-0.665686	99
Es	1.387159	-0.121087	-0.025341	99
Es	0.856666	-1.792436	0.688642	99
Es	-1.633719	0.054997	0.346088	99
Es	0.642442	1.075006	-0.593972	99
Es	-0.254401	-1.309605	0.105424	99
Es	-1.669446	-0.526898	-0.121298	99
Es	1.003219	0.465584	-0.300247	99
Es	-0.499218	1.804936	0.159325	99
Es	0.253017	-0.939377	1.288084	99
Es	1.872048	0.103065	0.496885	99
Es	-0.667040	-1.457915	-0.203814	99
Es	-1.615229	0.204152	-0.322403	99
Es	0.472241	-1.156287	0.604680	99
Es	-2.321730	-0.839697	-0.232339	99
Es	-0.839330	1.212562	0.184104	99
Es	-0.343736	1.470648	0.518818	99
Es	-0.589234	-1.427013	-0.477871	99
Es	0.377936	0.923094	-1.279447	99
Es	1.780836	-0.429371	-0.579990	99
Es	-2.155606	1.199187	0.245680	99
Es	-1.562443	0.782042	0.145233	99
Es	0.920465	-0.625301	0.280757	99
Es	-0.042103	1.329089	-0.075554	99
Es	-0.792626	-1.706256	-0.098592	99
Es	-0.419037	1.531368	0.247988	99
Es	-1.026370	-1.069388	-0.151332	99
42
Properties=species:S:1:pos:R:3:Z:I:1 energy=-343.79397954799214 field_type=dipole dipole="0.000000 0.000000 0.000000" charge=0
C	1.387186	-0.121086	-0.025347	6
C	0.472406	-1.156266	0.604843	6
O	-0.667044	-1.458186	-0.203967	8
C	-1.669634	-0.526686	-0.121247	6
C	-1.562664	0.781864	0.145183	6
O	-0.418904	1.531664	0.248273	8
C	0.642596	1.074964	-0.594137	6
H	1.970266	-0.577966	-0.833807	1
H	2.105056	0.211614	0.733533	1
H	1.031516	-2.089996	0.735043	1
H	0.157666	-0.853636	1.613153	1
H	-2.627924	-1.004876	-0.289027	1
H	-2.430564	1.413284	0.297733	1
H	1.345816	1.908394	-0.705797	1
H	0.264226	0.866914	-1.604437	1
Es	-0.418961	1.531365	0.248016	99
Es	-0.838980	1.212386	0.183473	99
Es	-0.254793	-1.309911	0.105709	99
Es	0.377946	0.923059	-1.279432	99
Es	0.920478	-0.625409	0.280798	99
Es	-0.793320	-1.703967	-0.096661	99
Es	0.642447	1.075003	-0.593974	99
Es	1.003199	0.465626	-0.300149	99
Es	-1.615200	0.204127	-0.322224	99
Es	-1.025657	-1.069050	-0.151459	99
Es	-0.344027	1.471081	0.519727	99
Es	1.125274	1.642139	-0.665705	99
Es	-2.321767	-0.839691	-0.232314	99
Es	1.872215	0.103009	0.496827	99
Es	-1.633640	0.055010	0.345958	99
Es	0.856661	-1.792491	0.688776	99
Es	-2.155687	1.199156	0.245653	99
Es	1.780664	-0.429320	-0.580046	99
Es	-1.562444	0.782042	0.145229	99
Es	-0.499679	1.804299	0.158835	99
Es	-1.669447	-0.526892	-0.121310	99
Es	0.472245	-1.156283	0.604680	99
Es	1.387161	-0.121083	-0.025345	99
Es	-0.588883	-1.429326	-0.480012	99
Es	-0.667033	-1.457921	-0.203814	99
Es	-0.041780	1.329520	-0.075402	99
Es	0.253022	-0.939245	1.287988	99
