44
Properties=species:S:1:pos:R:3:Z:I:1 energy=-307.9338440250293 field_type=dipole dipole="0.000000 0.000000 0.000000" charge=0
C	-2.073936	0.058444	-0.036534	6
C	-0.577696	0.127484	-0.000274	6
C	0.305164	-0.583626	-1.098343	6
C	1.380574	-0.274526	0.002326	6
C	0.262204	-0.779146	0.981526	6
C	1.350674	1.255424	0.145496	6
O	-0.068046	1.481944	0.138206	8
H	-2.508996	0.486134	0.872546	1
H	-2.421306	-0.976776	-0.117464	1
H	-2.471766	0.611894	-0.893314	1
H	0.418574	-0.048596	-2.045783	1
H	0.094734	-1.639466	-1.301374	1
H	2.333544	-0.799106	-0.027484	1
H	0.047804	-1.853476	0.974946	1
H	0.334824	-0.430846	2.015867	1
H	1.778554	1.597574	1.091916	1
H	1.815104	1.766664	-0.702264	1
Es	-2.338009	0.432239	-0.619385	99
Es	0.159797	-1.303228	-1.217087	99
Es	0.894991	-0.563436	0.564919	99
Es	1.406680	0.484250	0.074124	99
Es	-1.332952	0.101338	-0.017890	99
Es	-0.148517	1.571226	0.419997	99
Es	-0.067839	1.481614	0.138204	99
Es	-0.142737	1.631986	-0.121619	99
Es	0.262230	-0.779109	0.981455	99
Es	2.044175	-0.620694	-0.016611	99
Es	0.382650	-0.214894	-1.752881	99
Es	-0.577544	0.127635	-0.000255	99
Es	0.311608	-0.539382	1.695961	99
Es	1.350451	1.255408	0.145490	99
Es	-2.297393	-0.649347	-0.091849	99
Es	1.675315	1.603531	-0.434662	99
Es	-0.209904	-0.231475	-0.636871	99
Es	0.114848	-1.507729	0.957714	99
Es	-2.073916	0.058434	-0.036535	99
Es	0.919344	-0.451792	-0.623452	99
Es	0.472993	1.392206	0.139587	99
Es	-0.246277	0.962086	0.083851	99
Es	1.650319	1.487945	0.793056	99
Es	1.380469	-0.274531	0.002323	99
Es	0.305187	-0.583601	-1.098265	99
Es	-2.363198	0.346340	0.581631	99
Es	-0.234678	-0.345109	0.573048	99
44
Properties=species:S:1:pos:R:3:Z:I:1 energy=-307.9338440250293 field_type=dipole dipole="0.000000 0.000000 0.000000" charge=0
C	-2.073936	0.058444	-0.036534	6
C	-0.577696	0.127484	-0.000274	6
C	0.305164	-0.583626	-1.098343	6
C	1.380574	-0.274526	0.002326	6
C	0.262204	-0.779146	0.981526	6
C	1.350674	1.255424	0.145496	6
O	-0.068046	1.481944	0.138206	8
H	-2.508996	0.486134	0.872546	1
H	-2.421306	-0.976776	-0.117464	1
H	-2.471766	0.611894	-0.893314	1
H	0.418574	-0.048596	-2.045783	1
H	0.094734	-1.639466	-1.301374	1
H	2.333544	-0.799106	-0.027484	1
H	0.047804	-1.853476	0.974946	1
H	0.334824	-0.430846	2.015867	1
H	1.778554	1.597574	1.091916	1
H	1.815104	1.766664	-0.702264	1
Es	-0.246645	0.962076	0.083953	99
Es	-0.234877	-0.345075	0.573138	99
Es	1.650333	1.487898	0.793057	99
Es	0.311591	-0.539450	1.695853	99
Es	0.305188	-0.583602	-1.098266	99
Es	-0.151036	1.575233	0.419698	99
Es	-2.073916	0.058435	-0.036537	99
Es	-0.139776	1.628193	-0.122501	99
Es	-2.337950	0.432327	-0.619478	99
Es	0.114863	-1.507680	0.957791	99
Es	1.406689	0.484251	0.074067	99
Es	-1.332910	0.101166	-0.017944	99
Es	0.262231	-0.779107	0.981455	99
Es	0.895110	-0.563471	0.565022	99
Es	1.675333	1.603540	-0.434649	99
Es	1.350448	1.255410	0.145490	99
Es	0.919468	-0.451929	-0.623595	99
Es	-0.209914	-0.231411	-0.636856	99
Es	-0.067912	1.481660	0.138207	99
Es	-0.577544	0.127637	-0.000262	99
Es	-2.363169	0.346321	0.581641	99
Es	0.472940	1.391971	0.140660	99
Es	0.159728	-1.303140	-1.217011	99
Es	-2.297481	-0.649234	-0.091837	99
Es	2.044126	-0.620536	-0.016501	99
Es	1.380470	-0.274531	0.002321	99
Es	0.382706	-0.215037	-1.752921	99
44
Properties=species:S:1:pos:R:3:Z:I:1 energy=-307.9338440250293 field_type=dipole dipole="0.000000 0.000000 0.000000" charge=0
C	-2.073936	0.058444	-0.036534	6
C	-0.577696	0.127484	-0.000274	6
C	0.305164	-0.583626	-1.098343	6
C	1.380574	-0.274526	0.002326	6
C	0.262204	-0.779146	0.981526	6
C	1.350674	1.255424	0.145496	6
O	-0.068046	1.481944	0.138206	8
H	-2.508996	0.486134	0.872546	1
H	-2.421306	-0.976776	-0.117464	1
H	-2.471766	0.611894	-0.893314	1
H	0.418574	-0.048596	-2.045783	1
H	0.094734	-1.639466	-1.301374	1
H	2.333544	-0.799106	-0.027484	1
H	0.047804	-1.853476	0.974946	1
H	0.334824	-0.430846	2.015867	1
H	1.778554	1.597574	1.091916	1
H	1.815104	1.766664	-0.702264	1
Es	-0.246987	0.961748	0.086691	99
Es	1.650335	1.487926	0.792984	99
Es	0.114887	-1.507586	0.957805	99
Es	0.262235	-0.779107	0.981453	99
Es	-2.073916	0.058434	-0.036535	99
Es	0.159837	-1.303093	-1.217122	99
Es	2.044024	-0.620474	-0.016646	99
Es	-0.139028	1.625495	-0.123977	99
Es	0.473081	1.392095	0.141190	99
Es	1.406828	0.484187	0.074169	99
Es	-0.067886	1.481642	0.138161	99
Es	-2.363203	0.346331	0.581617	99
Es	0.919636	-0.451809	-0.623765	99
Es	0.305186	-0.583601	-1.098266	99
Es	0.895188	-0.563704	0.565128	99
Es	-0.234955	-0.345094	0.573087	99
Es	-0.210193	-0.231290	-0.636857	99
Es	-2.297503	-0.649270	-0.091882	99
Es	-0.577544	0.127635	-0.000259	99
Es	0.311590	-0.539546	1.695827	99
Es	-0.151663	1.578207	0.418000	99
Es	1.380470	-0.274531	0.002323	99
Es	1.350448	1.255410	0.145490	99
Es	0.382648	-0.215163	-1.752761	99
Es	-2.337941	0.432299	-0.619396	99
Es	-1.332785	0.101220	-0.017889	99
Es	1.675302	1.603550	-0.434574	99
44
Properties=species:S:1:pos:R:3:Z:I:1 energy=-307.9338440250293 field_type=dipole dipole="0.000000 0.000000 0.000000" charge=0
C	-2.073936	0.058444	-0.036534	6
C	-0.577696	0.127484	-0.000274	6
C	0.305164	-0.583626	-1.098343	6
C	1.380574	-0.274526	0.002326	6
C	0.262204	-0.779146	0.981526	6
C	1.350674	1.255424	0.145496	6
O	-0.068046	1.481944	0.138206	8
H	-2.508996	0.486134	0.872546	1
H	-2.421306	-0.976776	-0.117464	1
H	-2.471766	0.611894	-0.893314	1
H	0.418574	-0.048596	-2.045783	1
H	0.094734	-1.639466	-1.301374	1
H	2.333544	-0.799106	-0.027484	1
H	0.047804	-1.853476	0.974946	1
H	0.334824	-0.430846	2.015867	1
H	1.778554	1.597574	1.091916	1
H	1.815104	1.766664	-0.702264	1
Es	0.473217	1.392076	0.140874	99
Es	-2.073916	0.058435	-0.036535	99
Es	0.382639	-0.215234	-1.752842	99
Es	1.406987	0.484166	0.074051	99
Es	1.675295	1.603546	-0.434507	99
Es	-0.247386	0.961818	0.085127	99
Es	2.043901	-0.620457	-0.016614	99
Es	-2.337972	0.432260	-0.619394	99
Es	1.380468	-0.274532	0.002324	99
Es	-0.139991	1.628104	-0.122484	99
Es	0.895317	-0.563711	0.565184	99
Es	-2.363172	0.346370	0.581611	99
Es	-0.150522	1.575550	0.418338	99
Es	-0.235008	-0.345064	0.573137	99
Es	-0.210164	-0.231329	-0.637080	99
Es	0.919729	-0.451867	-0.623674	99
Es	0.159689	-1.303003	-1.217025	99
Es	-2.297500	-0.649289	-0.091832	99
Es	0.311607	-0.539610	1.695812	99
Es	-0.067851	1.481636	0.138188	99
Es	1.650341	1.487921	0.792954	99
Es	0.305188	-0.583598	-1.098266	99
Es	0.262234	-0.779106	0.981453	99
Es	-0.577544	0.127626	-0.000256	99
Es	0.114822	-1.507471	0.957838	99
Es	-1.332770	0.101267	-0.017873	99
Es	1.350453	1.255409	0.145490	99
44
Properties=species:S:1:pos:R:3:Z:I:1 energy=-307.9338440250293 field_type=dipole dipole="0.000000 0.000000 0.000000" charge=0
C	-2.073936	0.058444	-0.036534	6
C	-0.577696	0.127484	-0.000274	6
C	0.305164	-0.583626	-1.098343	6
C	1.380574	-0.274526	0.002326	6
C	0.262204	-0.779146	0.981526	6
C	1.350674	1.255424	0.145496	6
O	-0.068046	1.481944	0.138206	8
H	-2.508996	0.486134	0.872546	1
H	-2.421306	-0.976776	-0.117464	1
H	-2.471766	0.611894	-0.893314	1
H	0.418574	-0.048596	-2.045783	1
H	0.094734	-1.639466	-1.301374	1
H	2.333544	-0.799106	-0.027484	1
H	0.047804	-1.853476	0.974946	1
H	0.334824	-0.430846	2.015867	1
H	1.778554	1.597574	1.091916	1
H	1.815104	1.766664	-0.702264	1
Es	1.407066	0.484051	0.074122	99
Es	2.043834	-0.620341	-0.016617	99
Es	1.380471	-0.274531	0.002325	99
Es	-2.363152	0.346378	0.581617	99
Es	-0.138020	1.624917	-0.123806	99
Es	-1.332709	0.101359	-0.017955	99
Es	0.382657	-0.215221	-1.752780	99
Es	0.114862	-1.507456	0.957860	99
Es	-2.338105	0.432162	-0.619458	99
Es	0.895412	-0.563733	0.565319	99
Es	0.919835	-0.451973	-0.623864	99
Es	0.473452	1.392543	0.143016	99
Es	1.350449	1.255410	0.145491	99
Es	1.675305	1.603560	-0.434486	99
Es	0.159722	-1.302877	-1.217146	99
Es	-0.210268	-0.231374	-0.637002	99
Es	-2.073916	0.058435	-0.036535	99
Es	-0.577544	0.127626	-0.000256	99
Es	-0.235128	-0.345065	0.573167	99
Es	-2.297401	-0.649260	-0.091708	99
Es	1.650329	1.487914	0.792880	99
Es	0.305188	-0.583598	-1.098263	99
Es	-0.247234	0.961476	0.086340	99
Es	-0.152934	1.578665	0.416481	99
Es	-0.067825	1.481610	0.138054	99
Es	0.262231	-0.779106	0.981455	99
Es	0.311514	-0.539658	1.695747	99
44
Properties=species:S:1:pos:R:3:Z:I:1 energy=-307.9338440250293 field_type=dipole dipole="0.000000 0.000000 0.000000" charge=0
C	-2.073936	0.058444	-0.036534	6
C	-0.577696	0.127484	-0.000274	6
C	0.305164	-0.583626	-1.098343	6
C	1.380574	-0.274526	0.002326	6
C	0.262204	-0.779146	0.981526	6
C	1.350674	1.255424	0.145496	6
O	-0.068046	1.481944	0.138206	8
H	-2.508996	0.486134	0.872546	1
H	-2.421306	-0.976776	-0.117464	1
H	-2.471766	0.611894	-0.893314	1
H	0.418574	-0.048596	-2.045783	1
H	0.094734	-1.639466	-1.301374	1
H	2.333544	-0.799106	-0.027484	1
H	0.047804	-1.853476	0.974946	1
H	0.334824	-0.430846	2.015867	1
H	1.778554	1.597574	1.091916	1
H	1.815104	1.766664	-0.702264	1
Es	-0.210380	-0.231376	-0.637004	99
Es	0.262231	-0.779106	0.981454	99
Es	-1.332657	0.101350	-0.018009	99
Es	-2.297444	-0.649276	-0.091802	99
Es	0.473725	1.392653	0.141696	99
Es	1.675353	1.603604	-0.434419	99
Es	1.380469	-0.274532	0.002324	99
Es	-2.073917	0.058434	-0.036535	99
Es	0.305188	-0.583600	-1.098261	99
Es	1.407036	0.484026	0.074124	99
Es	-0.139804	1.627548	-0.122392	99
Es	-0.067966	1.481817	0.138201	99
Es	-0.150590	1.575753	0.416671	99
Es	-0.577544	0.127629	-0.000254	99
Es	-2.363217	0.346396	0.581619	99
Es	1.650309	1.487824	0.792871	99
Es	2.043784	-0.620224	-0.016589	99
Es	-0.235242	-0.345074	0.573185	99
Es	0.895468	-0.563953	0.565356	99
Es	-0.247961	0.961512	0.085967	99
Es	0.311497	-0.539740	1.695717	99
Es	0.382585	-0.215285	-1.752703	99
Es	0.920045	-0.451850	-0.623982	99
Es	-2.338000	0.432173	-0.619407	99
Es	0.159855	-1.302849	-1.217201	99
Es	0.114820	-1.507352	0.957880	99
Es	1.350450	1.255409	0.145491	99
44
Properties=species:S:1:pos:R:3:Z:I:1 energy=-307.9338440250293 field_type=dipole dipole="0.000000 0.000000 0.000000" charge=0
C	-2.073936	0.058444	-0.036534	6
C	-0.577696	0.127484	-0.000274	6
C	0.305164	-0.583626	-1.098343	6
C	1.380574	-0.274526	0.002326	6
C	0.262204	-0.779146	0.981526	6
C	1.350674	1.255424	0.145496	6
O	-0.068046	1.481944	0.138206	8
H	-2.508996	0.486134	0.872546	1
H	-2.421306	-0.976776	-0.117464	1
H	-2.471766	0.611894	-0.893314	1
H	0.418574	-0.048596	-2.045783	1
H	0.094734	-1.639466	-1.301374	1
H	2.333544	-0.799106	-0.027484	1
H	0.047804	-1.853476	0.974946	1
H	0.334824	-0.430846	2.015867	1
H	1.778554	1.597574	1.091916	1
H	1.815104	1.766664	-0.702264	1
Es	0.159790	-1.302768	-1.217178	99
Es	0.114868	-1.507206	0.957909	99
Es	-2.363197	0.346258	0.581678	99
Es	-0.067879	1.481672	0.138106	99
Es	1.675328	1.603589	-0.434379	99
Es	-0.577544	0.127633	-0.000259	99
Es	0.382632	-0.215329	-1.752729	99
Es	0.473880	1.393098	0.140914	99
Es	0.895793	-0.563884	0.565512	99
Es	0.305188	-0.583597	-1.098261	99
Es	0.262231	-0.779107	0.981456	99
Es	1.650285	1.487902	0.792824	99
Es	0.311319	-0.539838	1.695671	99
Es	1.380468	-0.274532	0.002323	99
Es	-0.235264	-0.345152	0.573161	99
Es	-2.073918	0.058435	-0.036535	99
Es	-2.297460	-0.649249	-0.091939	99
Es	-0.247616	0.961456	0.085151	99
Es	1.350452	1.255409	0.145490	99
Es	1.407225	0.484015	0.074112	99
Es	2.043658	-0.620189	-0.016615	99
Es	-0.210529	-0.231389	-0.637141	99
Es	-1.332617	0.101324	-0.017852	99
Es	-2.338002	0.432318	-0.619345	99
Es	0.920021	-0.451981	-0.623945	99
Es	-0.139700	1.626635	-0.121447	99
Es	-0.151322	1.576389	0.417314	99
44
Properties=species:S:1:pos:R:3:Z:I:1 energy=-307.9338440250293 field_type=dipole dipole="0.000000 0.000000 0.000000" charge=0
C	-2.073936	0.058444	-0.036534	6
C	-0.577696	0.127484	-0.000274	6
C	0.305164	-0.583626	-1.098343	6
C	1.380574	-0.274526	0.002326	6
C	0.262204	-0.779146	0.981526	6
C	1.350674	1.255424	0.145496	6
O	-0.068046	1.481944	0.138206	8
H	-2.508996	0.486134	0.872546	1
H	-2.421306	-0.976776	-0.117464	1
H	-2.471766	0.611894	-0.893314	1
H	0.418574	-0.048596	-2.045783	1
H	0.094734	-1.639466	-1.301374	1
H	2.333544	-0.799106	-0.027484	1
H	0.047804	-1.853476	0.974946	1
H	0.334824	-0.430846	2.015867	1
H	1.778554	1.597574	1.091916	1
H	1.815104	1.766664	-0.702264	1
Es	-0.150820	1.576333	0.417063	99
Es	-2.297536	-0.649292	-0.091913	99
Es	0.114845	-1.507199	0.957935	99
Es	-0.139737	1.626966	-0.121179	99
Es	1.380463	-0.274534	0.002323	99
Es	0.920131	-0.452145	-0.624135	99
Es	-0.577544	0.127628	-0.000257	99
Es	-0.235323	-0.345009	0.573144	99
Es	0.262231	-0.779102	0.981450	99
Es	0.159794	-1.302678	-1.217169	99
Es	1.650313	1.487945	0.792751	99
Es	-2.363215	0.346332	0.581592	99
Es	0.311429	-0.539885	1.695627	99
Es	-2.337947	0.432276	-0.619312	99
Es	-0.210595	-0.231332	-0.637097	99
Es	0.895832	-0.563954	0.565666	99
Es	0.382569	-0.215435	-1.752714	99
Es	-2.073918	0.058434	-0.036535	99
Es	-1.332559	0.101338	-0.017788	99
Es	1.675296	1.603542	-0.434334	99
Es	-0.067858	1.481609	0.138256	99
Es	1.350456	1.255410	0.145492	99
Es	-0.248237	0.961560	0.085256	99
Es	2.043610	-0.620051	-0.016582	99
Es	0.305186	-0.583599	-1.098262	99
Es	1.407250	0.483916	0.074054	99
Es	0.473978	1.392841	0.140668	99
44
Properties=species:S:1:pos:R:3:Z:I:1 energy=-307.9338440250293 field_type=dipole dipole="0.000000 0.000000 0.000000" charge=0
C	-2.073936	0.058444	-0.036534	6
C	-0.577696	0.127484	-0.000274	6
C	0.305164	-0.583626	-1.098343	6
C	1.380574	-0.274526	0.002326	6
C	0.262204	-0.779146	0.981526	6
C	1.350674	1.255424	0.145496	6
O	-0.068046	1.481944	0.138206	8
H	-2.508996	0.486134	0.872546	1
H	-2.421306	-0.976776	-0.117464	1
H	-2.471766	0.611894	-0.893314	1
H	0.418574	-0.048596	-2.045783	1
H	0.094734	-1.639466	-1.301374	1
H	2.333544	-0.799106	-0.027484	1
H	0.047804	-1.853476	0.974946	1
H	0.334824	-0.430846	2.015867	1
H	1.778554	1.597574	1.091916	1
H	1.815104	1.766664	-0.702264	1
Es	0.159688	-1.302673	-1.217150	99
Es	0.895838	-0.563867	0.565801	99
Es	1.650289	1.487926	0.792728	99
Es	0.262231	-0.779107	0.981457	99
Es	0.305189	-0.583597	-1.098261	99
Es	1.350451	1.255409	0.145490	99
Es	0.473998	1.392906	0.141738	99
Es	-0.067893	1.481623	0.138239	99
Es	-0.151841	1.577069	0.416590	99
Es	1.380465	-0.274534	0.002324	99
Es	-0.248197	0.961511	0.085009	99
Es	0.114982	-1.507247	0.958060	99
Es	-2.337998	0.432247	-0.619365	99
Es	1.675293	1.603602	-0.434279	99
Es	-2.297445	-0.649234	-0.091906	99
Es	-2.363247	0.346296	0.581654	99
Es	-1.332516	0.101365	-0.017848	99
Es	-2.073917	0.058435	-0.036534	99
Es	-0.138778	1.626182	-0.121509	99
Es	-0.235418	-0.345139	0.573104	99
Es	-0.210547	-0.231215	-0.637059	99
Es	0.382410	-0.215540	-1.752647	99
Es	0.311347	-0.539801	1.695519	99
Es	-0.577544	0.127628	-0.000258	99
Es	2.043492	-0.620025	-0.016519	99
Es	1.407421	0.483846	0.074020	99
Es	0.920340	-0.452151	-0.624400	99
44
Properties=species:S:1:pos:R:3:Z:I:1 energy=-307.9338440250293 field_type=dipole dipole="0.000000 0.000000 0.000000" charge=0
C	-2.073936	0.058444	-0.036534	6
C	-0.577696	0.127484	-0.000274	6
C	0.305164	-0.583626	-1.098343	6
C	1.380574	-0.274526	0.002326	6
C	0.262204	-0.779146	0.981526	6
C	1.350674	1.255424	0.145496	6
O	-0.068046	1.481944	0.138206	8
H	-2.508996	0.486134	0.872546	1
H	-2.421306	-0.976776	-0.117464	1
H	-2.471766	0.611894	-0.893314	1
H	0.418574	-0.048596	-2.045783	1
H	0.094734	-1.639466	-1.301374	1
H	2.333544	-0.799106	-0.027484	1
H	0.047804	-1.853476	0.974946	1
H	0.334824	-0.430846	2.015867	1
H	1.778554	1.597574	1.091916	1
H	1.815104	1.766664	-0.702264	1
Es	2.043492	-0.619833	-0.016661	99
Es	-1.332466	0.101425	-0.017840	99
Es	0.159855	-1.302549	-1.217230	99
Es	-0.210825	-0.231374	-0.637214	99
Es	-0.149847	1.575889	0.416846	99
Es	0.305187	-0.583598	-1.098262	99
Es	0.114889	-1.507113	0.957988	99
Es	0.262231	-0.779103	0.981453	99
Es	-2.297456	-0.649267	-0.091864	99
Es	0.896034	-0.564059	0.565744	99
Es	0.474110	1.393410	0.139600	99
Es	-0.067926	1.481725	0.138193	99
Es	-2.338015	0.432220	-0.619356	99
Es	-0.248427	0.961274	0.085935	99
Es	1.650329	1.487940	0.792671	99
Es	1.380467	-0.274534	0.002323	99
Es	-0.577545	0.127626	-0.000257	99
Es	1.407366	0.483814	0.074155	99
Es	1.350453	1.255408	0.145490	99
Es	0.920325	-0.452042	-0.624243	99
Es	-0.235565	-0.345105	0.573290	99
Es	0.311425	-0.540004	1.695526	99
Es	1.675293	1.603528	-0.434238	99
Es	-2.073916	0.058434	-0.036535	99
Es	-0.140673	1.627059	-0.120494	99
Es	-2.363240	0.346312	0.581595	99
Es	0.382538	-0.215572	-1.752617	99
44
Properties=species:S:1:pos:R:3:Z:I:1 energy=-307.9338440250293 field_type=dipole dipole="0.000000 0.000000 0.000000" charge=0
C	-2.073936	0.058444	-0.036534	6
C	-0.577696	0.127484	-0.000274	6
C	0.305164	-0.583626	-1.098343	6
C	1.380574	-0.274526	0.002326	6
C	0.262204	-0.779146	0.981526	6
C	1.350674	1.255424	0.145496	6
O	-0.068046	1.481944	0.138206	8
H	-2.508996	0.486134	0.872546	1
H	-2.421306	-0.976776	-0.117464	1
H	-2.471766	0.611894	-0.893314	1
H	0.418574	-0.048596	-2.045783	1
H	0.094734	-1.639466	-1.301374	1
H	2.333544	-0.799106	-0.027484	1
H	0.047804	-1.853476	0.974946	1
H	0.334824	-0.430846	2.015867	1
H	1.778554	1.597574	1.091916	1
H	1.815104	1.766664	-0.702264	1
Es	-0.067854	1.481627	0.138168	99
Es	0.114868	-1.506969	0.958047	99
Es	1.675284	1.603552	-0.434194	99
Es	-2.338024	0.432156	-0.619391	99
Es	-2.363220	0.346393	0.581520	99
Es	0.474318	1.393487	0.140695	99
Es	0.920604	-0.452212	-0.624481	99
Es	0.305188	-0.583605	-1.098271	99
Es	0.262229	-0.779111	0.981458	99
Es	0.382469	-0.215669	-1.752602	99
Es	-0.577545	0.127631	-0.000258	99
Es	-1.332377	0.101404	-0.017827	99
Es	-0.235653	-0.345116	0.573293	99
Es	-2.073917	0.058435	-0.036535	99
Es	-0.140422	1.627498	-0.120450	99
Es	0.159726	-1.302436	-1.217210	99
Es	0.311439	-0.540049	1.695504	99
Es	1.380467	-0.274533	0.002323	99
Es	-0.248592	0.961244	0.085593	99
Es	1.407512	0.483781	0.074136	99
Es	-0.210820	-0.231228	-0.637118	99
Es	0.896026	-0.564154	0.565717	99
Es	-0.150242	1.575520	0.416060	99
Es	-2.297497	-0.649272	-0.091753	99
Es	2.043377	-0.619845	-0.016543	99
Es	1.350453	1.255408	0.145490	99
Es	1.650292	1.487976	0.792624	99
44
Properties=species:S:1:pos:R:3:Z:I:1 energy=-307.9338440250293 field_type=dipole dipole="0.000000 0.000000 0.000000" charge=0
C	-2.073936	0.058444	-0.036534	6
C	-0.577696	0.127484	-0.000274	6
C	0.305164	-0.583626	-1.098343	6
C	1.380574	-0.274526	0.002326	6
C	0.262204	-0.779146	0.981526	6
C	1.350674	1.255424	0.145496	6
O	-0.068046	1.481944	0.138206	8
H	-2.508996	0.486134	0.872546	1
H	-2.421306	-0.976776	-0.117464	1
H	-2.471766	0.611894	-0.893314	1
H	0.418574	-0.048596	-2.045783	1
H	0.094734	-1.639466	-1.301374	1
H	2.333544	-0.799106	-0.027484	1
H	0.047804	-1.853476	0.974946	1
H	0.334824	-0.430846	2.015867	1
H	1.778554	1.597574	1.091916	1
H	1.815104	1.766664	-0.702264	1
Es	-0.151173	1.576900	0.415646	99
Es	0.920533	-0.452351	-0.624467	99
Es	1.407538	0.483739	0.074010	99
Es	-2.073917	0.058435	-0.036535	99
Es	-0.235752	-0.345064	0.573314	99
Es	-0.067841	1.481613	0.137984	99
Es	0.305188	-0.583596	-1.098261	99
Es	0.474407	1.393588	0.141116	99
Es	1.380466	-0.274533	0.002323	99
Es	0.262228	-0.779108	0.981454	99
Es	0.114946	-1.506958	0.958095	99
Es	1.675291	1.603555	-0.434160	99
Es	0.311331	-0.540130	1.695388	99
Es	1.350455	1.255409	0.145490	99
Es	-1.332345	0.101467	-0.017753	99
Es	-0.210895	-0.231304	-0.637183	99
Es	0.382447	-0.215690	-1.752574	99
Es	-2.338008	0.432175	-0.619371	99
Es	-0.577546	0.127627	-0.000259	99
Es	1.650279	1.487971	0.792592	99
Es	-0.248836	0.961111	0.085422	99
Es	0.896306	-0.564001	0.565973	99
Es	2.043337	-0.619747	-0.016561	99
Es	-2.297444	-0.649243	-0.091850	99
Es	0.159774	-1.302416	-1.217235	99
Es	-2.363305	0.346315	0.581555	99
Es	-0.139372	1.626153	-0.120156	99
44
Properties=species:S:1:pos:R:3:Z:I:1 energy=-307.9338440250293 field_type=dipole dipole="0.000000 0.000000 0.000000" charge=0
C	-2.073936	0.058444	-0.036534	6
C	-0.577696	0.127484	-0.000274	6
C	0.305164	-0.583626	-1.098343	6
C	1.380574	-0.274526	0.002326	6
C	0.262204	-0.779146	0.981526	6
C	1.350674	1.255424	0.145496	6
O	-0.068046	1.481944	0.138206	8
H	-2.508996	0.486134	0.872546	1
H	-2.421306	-0.976776	-0.117464	1
H	-2.471766	0.611894	-0.893314	1
H	0.418574	-0.048596	-2.045783	1
H	0.094734	-1.639466	-1.301374	1
H	2.333544	-0.799106	-0.027484	1
H	0.047804	-1.853476	0.974946	1
H	0.334824	-0.430846	2.015867	1
H	1.778554	1.597574	1.091916	1
H	1.815104	1.766664	-0.702264	1
Es	1.650236	1.488021	0.792484	99
Es	-2.363255	0.346291	0.581592	99
Es	-1.332287	0.101460	-0.017867	99
Es	1.407692	0.483561	0.074130	99
Es	-0.577542	0.127621	-0.000258	99
Es	1.675249	1.603600	-0.434017	99
Es	-0.235770	-0.345122	0.573380	99
Es	-2.073918	0.058435	-0.036535	99
Es	-2.338116	0.432152	-0.619441	99
Es	0.305187	-0.583597	-1.098263	99
Es	-0.139211	1.625312	-0.119817	99
Es	0.159798	-1.302367	-1.217264	99
Es	0.382474	-0.215755	-1.752526	99
Es	-2.297387	-0.649176	-0.091765	99
Es	2.043276	-0.619685	-0.016652	99
Es	0.920541	-0.452276	-0.624594	99
Es	0.311345	-0.540183	1.695460	99
Es	0.474563	1.393842	0.140543	99
Es	0.262231	-0.779102	0.981453	99
Es	1.380459	-0.274538	0.002321	99
Es	0.114934	-1.506926	0.958008	99
Es	0.896334	-0.564097	0.565986	99
Es	-0.210999	-0.231219	-0.637163	99
Es	-0.067847	1.481608	0.138045	99
Es	-0.151322	1.577600	0.415729	99
Es	1.350456	1.255407	0.145490	99
Es	-0.249030	0.961047	0.085538	99
44
Properties=species:S:1:pos:R:3:Z:I:1 energy=-307.9338440250293 field_type=dipole dipole="0.000000 0.000000 0.000000" charge=0
C	-2.073936	0.058444	-0.036534	6
C	-0.577696	0.127484	-0.000274	6
C	0.305164	-0.583626	-1.098343	6
C	1.380574	-0.274526	0.002326	6
C	0.262204	-0.779146	0.981526	6
C	1.350674	1.255424	0.145496	6
O	-0.068046	1.481944	0.138206	8
H	-2.508996	0.486134	0.872546	1
H	-2.421306	-0.976776	-0.117464	1
H	-2.471766	0.611894	-0.893314	1
H	0.418574	-0.048596	-2.045783	1
H	0.094734	-1.639466	-1.301374	1
H	2.333544	-0.799106	-0.027484	1
H	0.047804	-1.853476	0.974946	1
H	0.334824	-0.430846	2.015867	1
H	1.778554	1.597574	1.091916	1
H	1.815104	1.766664	-0.702264	1
Es	-2.363216	0.346230	0.581648	99
Es	-0.150068	1.574947	0.416469	99
Es	1.350455	1.255408	0.145489	99
Es	-1.332280	0.101528	-0.017973	99
Es	0.311412	-0.540222	1.695357	99
Es	0.920760	-0.452288	-0.624696	99
Es	0.305188	-0.583596	-1.098261	99
Es	-0.248699	0.961074	0.084513	99
Es	-0.140896	1.627473	-0.118620	99
Es	-2.338110	0.432236	-0.619294	99
Es	1.650295	1.487982	0.792534	99
Es	-0.235838	-0.344937	0.573353	99
Es	0.159827	-1.302250	-1.217175	99
Es	1.407704	0.483656	0.074109	99
Es	1.675278	1.603524	-0.434059	99
Es	0.262230	-0.779106	0.981455	99
Es	-0.577544	0.127618	-0.000259	99
Es	-2.297421	-0.649236	-0.091905	99
Es	1.380466	-0.274536	0.002323	99
Es	0.382425	-0.215851	-1.752606	99
Es	0.896320	-0.564359	0.566078	99
Es	-2.073914	0.058436	-0.036533	99
Es	-0.067852	1.481640	0.138259	99
Es	-0.211047	-0.231254	-0.637177	99
Es	0.114811	-1.506870	0.958095	99
Es	0.474656	1.394293	0.139428	99
Es	2.043152	-0.619628	-0.016555	99
44
Properties=species:S:1:pos:R:3:Z:I:1 energy=-307.9338440250293 field_type=dipole dipole="0.000000 0.000000 0.000000" charge=0
C	-2.073936	0.058444	-0.036534	6
C	-0.577696	0.127484	-0.000274	6
C	0.305164	-0.583626	-1.098343	6
C	1.380574	-0.274526	0.002326	6
C	0.262204	-0.779146	0.981526	6
C	1.350674	1.255424	0.145496	6
O	-0.068046	1.481944	0.138206	8
H	-2.508996	0.486134	0.872546	1
H	-2.421306	-0.976776	-0.117464	1
H	-2.471766	0.611894	-0.893314	1
H	0.418574	-0.048596	-2.045783	1
H	0.094734	-1.639466	-1.301374	1
H	2.333544	-0.799106	-0.027484	1
H	0.047804	-1.853476	0.974946	1
H	0.334824	-0.430846	2.015867	1
H	1.778554	1.597574	1.091916	1
H	1.815104	1.766664	-0.702264	1
Es	0.114809	-1.506835	0.958076	99
Es	0.305187	-0.583599	-1.098264	99
Es	0.382406	-0.215890	-1.752523	99
Es	1.650289	1.487991	0.792452	99
Es	1.350455	1.255407	0.145490	99
Es	-0.137583	1.624491	-0.121069	99
Es	-0.152691	1.578467	0.413280	99
Es	0.311341	-0.540318	1.695302	99
Es	0.159846	-1.302228	-1.217229	99
Es	-0.577545	0.127620	-0.000258	99
Es	-2.297408	-0.649197	-0.091877	99
Es	1.407780	0.483568	0.074087	99
Es	-0.067908	1.481682	0.138171	99
Es	-0.235879	-0.344985	0.573418	99
Es	2.043118	-0.619572	-0.016571	99
Es	-2.338067	0.432189	-0.619356	99
Es	0.896486	-0.564221	0.566135	99
Es	-0.249449	0.960784	0.086072	99
Es	-2.073919	0.058437	-0.036537	99
Es	0.262233	-0.779096	0.981447	99
Es	1.675251	1.603560	-0.434041	99
Es	0.920797	-0.452297	-0.624755	99
Es	-0.211102	-0.231253	-0.637228	99
Es	1.380463	-0.274533	0.002322	99
Es	-2.363281	0.346258	0.581627	99
Es	0.474737	1.393988	0.143680	99
Es	-1.332275	0.101497	-0.017853	99
44
Properties=species:S:1:pos:R:3:Z:I:1 energy=-307.9338440250293 field_type=dipole dipole="0.000000 0.000000 0.000000" charge=0
C	-2.073936	0.058444	-0.036534	6
C	-0.577696	0.127484	-0.000274	6
C	0.305164	-0.583626	-1.098343	6
C	1.380574	-0.274526	0.002326	6
C	0.262204	-0.779146	0.981526	6
C	1.350674	1.255424	0.145496	6
O	-0.068046	1.481944	0.138206	8
H	-2.508996	0.486134	0.872546	1
H	-2.421306	-0.976776	-0.117464	1
H	-2.471766	0.611894	-0.893314	1
H	0.418574	-0.048596	-2.045783	1
H	0.094734	-1.639466	-1.301374	1
H	2.333544	-0.799106	-0.027484	1
H	0.047804	-1.853476	0.974946	1
H	0.334824	-0.430846	2.015867	1
H	1.778554	1.597574	1.091916	1
H	1.815104	1.766664	-0.702264	1
Es	0.896470	-0.564035	0.566103	99
Es	0.115079	-1.506800	0.958118	99
Es	-0.067875	1.481643	0.138090	99
Es	0.474880	1.394242	0.140542	99
Es	1.675268	1.603572	-0.433976	99
Es	0.920895	-0.452383	-0.624797	99
Es	1.350457	1.255408	0.145490	99
Es	-2.297389	-0.649237	-0.091930	99
Es	0.305189	-0.583589	-1.098251	99
Es	1.380465	-0.274534	0.002323	99
Es	-0.236149	-0.345193	0.573532	99
Es	0.159837	-1.302174	-1.217284	99
Es	-0.141157	1.628880	-0.118364	99
Es	-0.577544	0.127611	-0.000259	99
Es	-0.149651	1.573523	0.415548	99
Es	-2.073917	0.058440	-0.036536	99
Es	-0.249130	0.961175	0.084236	99
Es	1.650269	1.487969	0.792438	99
Es	0.311384	-0.540351	1.695287	99
Es	-2.363331	0.346212	0.581587	99
Es	2.043038	-0.619518	-0.016541	99
Es	-2.338024	0.432229	-0.619347	99
Es	0.382370	-0.215937	-1.752459	99
Es	1.407857	0.483573	0.074035	99
Es	0.262231	-0.779105	0.981456	99
Es	-1.332199	0.101550	-0.017800	99
Es	-0.211230	-0.231257	-0.637246	99
44
Properties=species:S:1:pos:R:3:Z:I:1 energy=-307.9338440250293 field_type=dipole dipole="0.000000 0.000000 0.000000" charge=0
C	-2.073936	0.058444	-0.036534	6
C	-0.577696	0.127484	-0.000274	6
C	0.305164	-0.583626	-1.098343	6
C	1.380574	-0.274526	0.002326	6
C	0.262204	-0.779146	0.981526	6
C	1.350674	1.255424	0.145496	6
O	-0.068046	1.481944	0.138206	8
H	-2.508996	0.486134	0.872546	1
H	-2.421306	-0.976776	-0.117464	1
H	-2.471766	0.611894	-0.893314	1
H	0.418574	-0.048596	-2.045783	1
H	0.094734	-1.639466	-1.301374	1
H	2.333544	-0.799106	-0.027484	1
H	0.047804	-1.853476	0.974946	1
H	0.334824	-0.430846	2.015867	1
H	1.778554	1.597574	1.091916	1
H	1.815104	1.766664	-0.702264	1
Es	0.262231	-0.779104	0.981454	99
Es	-0.577544	0.127616	-0.000259	99
Es	2.042971	-0.619447	-0.016535	99
Es	0.921065	-0.452442	-0.624881	99
Es	1.675253	1.603505	-0.433996	99
Es	0.896567	-0.564325	0.566368	99
Es	-0.255305	0.960385	0.076936	99
Es	-2.297353	-0.649219	-0.091936	99
Es	-0.167131	1.605067	0.410241	99
Es	1.350456	1.255408	0.145490	99
Es	-2.073917	0.058435	-0.036535	99
Es	-1.332208	0.101628	-0.017942	99
Es	-0.097870	1.542573	0.018984	99
Es	-0.211195	-0.231194	-0.637280	99
Es	1.407839	0.483442	0.074098	99
Es	-0.236108	-0.345007	0.573449	99
Es	-0.091304	1.531565	0.020837	99
Es	0.311239	-0.540400	1.695236	99
Es	0.382407	-0.216011	-1.752517	99
Es	0.305189	-0.583594	-1.098252	99
Es	0.478755	1.399836	0.132985	99
Es	-2.338062	0.432162	-0.619318	99
Es	1.650253	1.488081	0.792455	99
Es	0.114986	-1.506715	0.958136	99
Es	1.380462	-0.274536	0.002323	99
Es	-2.363316	0.346263	0.581685	99
Es	0.159731	-1.302059	-1.217230	99
44
Properties=species:S:1:pos:R:3:Z:I:1 energy=-307.9338440250293 field_type=dipole dipole="0.000000 0.000000 0.000000" charge=0
C	-2.073936	0.058444	-0.036534	6
C	-0.577696	0.127484	-0.000274	6
C	0.305164	-0.583626	-1.098343	6
C	1.380574	-0.274526	0.002326	6
C	0.262204	-0.779146	0.981526	6
C	1.350674	1.255424	0.145496	6
O	-0.068046	1.481944	0.138206	8
H	-2.508996	0.486134	0.872546	1
H	-2.421306	-0.976776	-0.117464	1
H	-2.471766	0.611894	-0.893314	1
H	0.418574	-0.048596	-2.045783	1
H	0.094734	-1.639466	-1.301374	1
H	2.333544	-0.799106	-0.027484	1
H	0.047804	-1.853476	0.974946	1
H	0.334824	-0.430846	2.015867	1
H	1.778554	1.597574	1.091916	1
H	1.815104	1.766664	-0.702264	1
Es	0.262231	-0.779100	0.981450	99
Es	0.115000	-1.506636	0.958166	99
Es	-2.073918	0.058435	-0.036535	99
Es	0.475305	1.394621	0.141986	99
Es	-0.577543	0.127615	-0.000258	99
Es	2.042913	-0.619358	-0.016547	99
Es	1.380463	-0.274534	0.002323	99
Es	-0.249724	0.960928	0.085451	99
Es	0.921094	-0.452521	-0.624949	99
Es	0.311266	-0.540438	1.695224	99
Es	-0.151271	1.576280	0.413565	99
Es	1.650263	1.488033	0.792333	99
Es	-2.338098	0.432185	-0.619322	99
Es	-0.211363	-0.231152	-0.637262	99
Es	0.159806	-1.302049	-1.217285	99
Es	1.675253	1.603529	-0.433930	99
Es	-2.363274	0.346244	0.581583	99
Es	1.407949	0.483477	0.074032	99
Es	0.896656	-0.564344	0.566413	99
Es	-1.332099	0.101568	-0.017837	99
Es	-2.297416	-0.649223	-0.091869	99
Es	-0.067872	1.481735	0.138213	99
Es	-0.139410	1.625944	-0.119143	99
Es	-0.236172	-0.345081	0.573391	99
Es	1.350455	1.255407	0.145490	99
Es	0.305188	-0.583596	-1.098261	99
Es	0.382410	-0.216057	-1.752426	99
44
Properties=species:S:1:pos:R:3:Z:I:1 energy=-307.9338440250293 field_type=dipole dipole="0.000000 0.000000 0.000000" charge=0
C	-2.073936	0.058444	-0.036534	6
C	-0.577696	0.127484	-0.000274	6
C	0.305164	-0.583626	-1.098343	6
C	1.380574	-0.274526	0.002326	6
C	0.262204	-0.779146	0.981526	6
C	1.350674	1.255424	0.145496	6
O	-0.068046	1.481944	0.138206	8
H	-2.508996	0.486134	0.872546	1
H	-2.421306	-0.976776	-0.117464	1
H	-2.471766	0.611894	-0.893314	1
H	0.418574	-0.048596	-2.045783	1
H	0.094734	-1.639466	-1.301374	1
H	2.333544	-0.799106	-0.027484	1
H	0.047804	-1.853476	0.974946	1
H	0.334824	-0.430846	2.015867	1
H	1.778554	1.597574	1.091916	1
H	1.815104	1.766664	-0.702264	1
Es	1.408046	0.483436	0.074029	99
Es	-0.138711	1.625616	-0.119165	99
Es	-2.297393	-0.649225	-0.091870	99
Es	-0.236174	-0.345042	0.573428	99
Es	0.114943	-1.506600	0.958158	99
Es	0.262232	-0.779097	0.981449	99
Es	-2.073918	0.058435	-0.036535	99
Es	0.311283	-0.540496	1.695201	99
Es	-2.338085	0.432183	-0.619345	99
Es	0.896709	-0.564417	0.566417	99
Es	1.380467	-0.274526	0.002324	99
Es	1.650274	1.488004	0.792306	99
Es	-2.363294	0.346239	0.581580	99
Es	-0.151778	1.576853	0.413640	99
Es	0.382371	-0.216088	-1.752369	99
Es	0.159833	-1.302019	-1.217326	99
Es	-1.332071	0.101591	-0.017799	99
Es	2.042859	-0.619337	-0.016521	99
Es	-0.249752	0.960796	0.085042	99
Es	1.675219	1.603572	-0.433859	99
Es	0.921169	-0.452467	-0.625031	99
Es	1.350460	1.255407	0.145491	99
Es	0.305188	-0.583594	-1.098260	99
Es	-0.577545	0.127614	-0.000259	99
Es	-0.067887	1.481684	0.138197	99
Es	-0.211454	-0.231162	-0.637307	99
Es	0.475101	1.394553	0.142381	99
44
Properties=species:S:1:pos:R:3:Z:I:1 energy=-307.9338440250293 field_type=dipole dipole="0.000000 0.000000 0.000000" charge=0
C	-2.073936	0.058444	-0.036534	6
C	-0.577696	0.127484	-0.000274	6
C	0.305164	-0.583626	-1.098343	6
C	1.380574	-0.274526	0.002326	6
C	0.262204	-0.779146	0.981526	6
C	1.350674	1.255424	0.145496	6
O	-0.068046	1.481944	0.138206	8
H	-2.508996	0.486134	0.872546	1
H	-2.421306	-0.976776	-0.117464	1
H	-2.471766	0.611894	-0.893314	1
H	0.418574	-0.048596	-2.045783	1
H	0.094734	-1.639466	-1.301374	1
H	2.333544	-0.799106	-0.027484	1
H	0.047804	-1.853476	0.974946	1
H	0.334824	-0.430846	2.015867	1
H	1.778554	1.597574	1.091916	1
H	1.815104	1.766664	-0.702264	1
Es	-2.073916	0.058435	-0.036533	99
Es	-1.332024	0.101602	-0.017822	99
Es	-2.363329	0.346273	0.581539	99
Es	0.305188	-0.583591	-1.098258	99
Es	0.114894	-1.506490	0.958169	99
Es	2.042818	-0.619303	-0.016451	99
Es	-0.211450	-0.231206	-0.637337	99
Es	1.675226	1.603525	-0.433853	99
Es	0.262231	-0.779099	0.981453	99
Es	0.921234	-0.452572	-0.625081	99
Es	-2.338055	0.432146	-0.619366	99
Es	-0.149820	1.574399	0.414336	99
Es	1.650255	1.488064	0.792274	99
Es	-0.067894	1.481702	0.138219	99
Es	0.382374	-0.216169	-1.752352	99
Es	1.380462	-0.274534	0.002323	99
Es	-0.577542	0.127627	-0.000257	99
Es	0.896807	-0.564304	0.566299	99
Es	0.159799	-1.301942	-1.217317	99
Es	1.408104	0.483402	0.074048	99
Es	-0.236342	-0.345068	0.573634	99
Es	-0.140635	1.627778	-0.117572	99
Es	0.311341	-0.540570	1.695192	99
Es	-2.297402	-0.649225	-0.091843	99
Es	0.475253	1.394812	0.140528	99
Es	1.350458	1.255404	0.145489	99
Es	-0.249941	0.960817	0.084535	99
44
Properties=species:S:1:pos:R:3:Z:I:1 energy=-307.9338440250293 field_type=dipole dipole="0.000000 0.000000 0.000000" charge=0
C	-2.073936	0.058444	-0.036534	6
C	-0.577696	0.127484	-0.000274	6
C	0.305164	-0.583626	-1.098343	6
C	1.380574	-0.274526	0.002326	6
C	0.262204	-0.779146	0.981526	6
C	1.350674	1.255424	0.145496	6
O	-0.068046	1.481944	0.138206	8
H	-2.508996	0.486134	0.872546	1
H	-2.421306	-0.976776	-0.117464	1
H	-2.471766	0.611894	-0.893314	1
H	0.418574	-0.048596	-2.045783	1
H	0.094734	-1.639466	-1.301374	1
H	2.333544	-0.799106	-0.027484	1
H	0.047804	-1.853476	0.974946	1
H	0.334824	-0.430846	2.015867	1
H	1.778554	1.597574	1.091916	1
H	1.815104	1.766664	-0.702264	1
Es	-2.073919	0.058435	-0.036536	99
Es	-0.067861	1.481634	0.138177	99
Es	-0.577545	0.127609	-0.000259	99
Es	-1.331976	0.101618	-0.017811	99
Es	-0.140480	1.626462	-0.118204	99
Es	-0.211508	-0.231212	-0.637341	99
Es	-2.338069	0.432201	-0.619304	99
Es	1.675232	1.603576	-0.433783	99
Es	-0.250021	0.960664	0.085990	99
Es	0.896908	-0.564473	0.566614	99
Es	0.305188	-0.583592	-1.098258	99
Es	1.408166	0.483376	0.073981	99
Es	-0.150014	1.575853	0.413730	99
Es	0.159801	-1.301874	-1.217326	99
Es	1.350457	1.255407	0.145493	99
Es	2.042742	-0.619156	-0.016575	99
Es	1.650216	1.488042	0.792230	99
Es	0.382351	-0.216189	-1.752351	99
Es	-2.363275	0.346246	0.581544	99
Es	0.311284	-0.540564	1.695100	99
Es	0.262231	-0.779099	0.981451	99
Es	-2.297438	-0.649259	-0.091877	99
Es	0.921297	-0.452635	-0.625100	99
Es	0.114966	-1.506521	0.958228	99
Es	0.475287	1.394898	0.140370	99
Es	-0.236387	-0.344997	0.573490	99
Es	1.380459	-0.274536	0.002323	99
44
Properties=species:S:1:pos:R:3:Z:I:1 energy=-307.9338440250293 field_type=dipole dipole="0.000000 0.000000 0.000000" charge=0
C	-2.073936	0.058444	-0.036534	6
C	-0.577696	0.127484	-0.000274	6
C	0.305164	-0.583626	-1.098343	6
C	1.380574	-0.274526	0.002326	6
C	0.262204	-0.779146	0.981526	6
C	1.350674	1.255424	0.145496	6
O	-0.068046	1.481944	0.138206	8
H	-2.508996	0.486134	0.872546	1
H	-2.421306	-0.976776	-0.117464	1
H	-2.471766	0.611894	-0.893314	1
H	0.418574	-0.048596	-2.045783	1
H	0.094734	-1.639466	-1.301374	1
H	2.333544	-0.799106	-0.027484	1
H	0.047804	-1.853476	0.974946	1
H	0.334824	-0.430846	2.015867	1
H	1.778554	1.597574	1.091916	1
H	1.815104	1.766664	-0.702264	1
Es	1.408205	0.483346	0.074035	99
Es	1.380458	-0.274537	0.002322	99
Es	-0.577543	0.127608	-0.000259	99
Es	-0.067850	1.481653	0.138102	99
Es	0.311356	-0.540647	1.695064	99
Es	-0.211538	-0.231092	-0.637355	99
Es	0.896964	-0.564517	0.566553	99
Es	0.114850	-1.506469	0.958222	99
Es	0.262232	-0.779095	0.981449	99
Es	0.305188	-0.583595	-1.098261	99
Es	1.675234	1.603544	-0.433778	99
Es	1.650237	1.488042	0.792207	99
Es	0.382342	-0.216333	-1.752353	99
Es	1.350458	1.255405	0.145489	99
Es	-0.139619	1.625790	-0.118183	99
Es	0.159763	-1.301836	-1.217250	99
Es	-2.363297	0.346152	0.581602	99
Es	-2.338051	0.432282	-0.619231	99
Es	-0.150806	1.576466	0.413455	99
Es	-2.073916	0.058431	-0.036531	99
Es	-2.297450	-0.649227	-0.092014	99
Es	2.042664	-0.619133	-0.016516	99
Es	-0.236395	-0.344917	0.573606	99
Es	0.475373	1.394914	0.141113	99
Es	0.921386	-0.452653	-0.625256	99
Es	-0.250198	0.960720	0.085570	99
Es	-1.331958	0.101609	-0.017808	99
