45
Properties=species:S:1:pos:R:3:Z:I:1 energy=-344.96460965022413 field_type=dipole dipole="0.000000 0.000000 0.000000" charge=0
C	-1.985872	-0.453698	0.698431	6
C	-0.497812	-0.535778	0.726941	6
C	0.252468	-1.233098	-0.380029	6
C	0.359878	0.263562	-0.222959	6
O	-0.319482	1.060672	-1.213449	8
C	1.640368	0.882632	0.265351	6
O	2.420558	1.276552	-0.858739	8
H	-2.321962	0.452822	1.210631	1
H	-2.417002	-1.316108	1.216411	1
H	-2.386472	-0.441178	-0.319789	1
H	-0.134232	-0.668928	1.740661	1
H	-0.305252	-1.632938	-1.218049	1
H	1.110738	-1.838368	-0.108099	1
H	-0.858132	0.515022	-1.812129	1
H	2.231958	0.190432	0.871911	1
H	1.426898	1.773302	0.864531	1
H	1.783348	1.705092	-1.461629	1
Es	-0.510332	1.243640	-1.061871	99
Es	0.834475	-1.639072	-0.193283	99
Es	2.623239	1.487050	-0.759701	99
Es	-0.598315	0.744606	-1.515848	99
Es	-1.235764	-0.490291	0.690063	99
Es	-0.319489	1.060386	-1.213444	99
Es	-0.090618	1.176633	-1.386108	99
Es	-2.212014	0.161120	1.047297	99
Es	2.420184	1.276603	-0.858668	99
Es	-0.083203	0.731559	-0.851925	99
Es	0.985421	0.565553	0.021094	99
Es	-2.273869	-1.042305	1.050231	99
Es	-0.136946	-1.490752	-0.951061	99
Es	0.430051	-0.495123	-0.453951	99
Es	0.359682	0.263547	-0.223111	99
Es	2.074738	1.506916	-1.164799	99
Es	0.252418	-1.232965	-0.379949	99
Es	-0.119237	0.024949	0.356753	99
Es	-0.237922	-0.625511	1.412849	99
Es	1.481778	1.489790	0.682426	99
Es	1.640438	0.882661	0.265156	99
Es	-1.985839	-0.453704	0.698422	99
Es	2.106808	1.132762	-0.435010	99
Es	-0.497732	-0.535791	0.726801	99
Es	2.029465	0.400853	0.679312	99
Es	-2.251751	-0.446529	-0.001918	99
Es	2.503798	1.015664	-0.995925	99
Es	-0.185384	-1.054109	0.222732	99
45
Properties=species:S:1:pos:R:3:Z:I:1 energy=-344.96460965022413 field_type=dipole dipole="0.000000 0.000000 0.000000" charge=0
C	-1.985872	-0.453698	0.698431	6
C	-0.497812	-0.535778	0.726941	6
C	0.252468	-1.233098	-0.380029	6
C	0.359878	0.263562	-0.222959	6
O	-0.319482	1.060672	-1.213449	8
C	1.640368	0.882632	0.265351	6
O	2.420558	1.276552	-0.858739	8
H	-2.321962	0.452822	1.210631	1
H	-2.417002	-1.316108	1.216411	1
H	-2.386472	-0.441178	-0.319789	1
H	-0.134232	-0.668928	1.740661	1
H	-0.305252	-1.632938	-1.218049	1
H	1.110738	-1.838368	-0.108099	1
H	-0.858132	0.515022	-1.812129	1
H	2.231958	0.190432	0.871911	1
H	1.426898	1.773302	0.864531	1
H	1.783348	1.705092	-1.461629	1
Es	-0.319426	1.060277	-1.213470	99
Es	-0.497731	-0.535796	0.726802	99
Es	-1.985840	-0.453703	0.698423	99
Es	0.252419	-1.232970	-0.379953	99
Es	0.430082	-0.494982	-0.453920	99
Es	-0.091915	1.184950	-1.383547	99
Es	-0.237848	-0.625416	1.412851	99
Es	-0.595535	0.744447	-1.518799	99
Es	0.985434	0.565502	0.021049	99
Es	-0.513271	1.235975	-1.060378	99
Es	1.481767	1.489738	0.682448	99
Es	2.074233	1.505880	-1.165121	99
Es	-2.273845	-1.042315	1.050253	99
Es	0.834422	-1.639036	-0.193429	99
Es	2.029472	0.400838	0.679303	99
Es	-0.185405	-1.054288	0.222817	99
Es	-1.235726	-0.490305	0.690088	99
Es	-0.081746	0.731146	-0.853076	99
Es	2.507112	1.016742	-0.996109	99
Es	-0.119421	0.024976	0.356809	99
Es	2.620212	1.488570	-0.759157	99
Es	1.640441	0.882663	0.265150	99
Es	-0.136842	-1.490695	-0.951000	99
Es	2.420269	1.276590	-0.858685	99
Es	-2.212059	0.161071	1.047259	99
Es	-2.251785	-0.446544	-0.001887	99
Es	0.359677	0.263551	-0.223104	99
Es	2.106937	1.131273	-0.435052	99
45
Properties=species:S:1:pos:R:3:Z:I:1 energy=-344.96460965022413 field_type=dipole dipole="0.000000 0.000000 0.000000" charge=0
C	-1.985872	-0.453698	0.698431	6
C	-0.497812	-0.535778	0.726941	6
C	0.252468	-1.233098	-0.380029	6
C	0.359878	0.263562	-0.222959	6
O	-0.319482	1.060672	-1.213449	8
C	1.640368	0.882632	0.265351	6
O	2.420558	1.276552	-0.858739	8
H	-2.321962	0.452822	1.210631	1
H	-2.417002	-1.316108	1.216411	1
H	-2.386472	-0.441178	-0.319789	1
H	-0.134232	-0.668928	1.740661	1
H	-0.305252	-1.632938	-1.218049	1
H	1.110738	-1.838368	-0.108099	1
H	-0.858132	0.515022	-1.812129	1
H	2.231958	0.190432	0.871911	1
H	1.426898	1.773302	0.864531	1
H	1.783348	1.705092	-1.461629	1
Es	-1.235658	-0.490254	0.690173	99
Es	-0.091658	1.177615	-1.384842	99
Es	-0.136704	-1.490716	-0.950972	99
Es	0.834306	-1.638994	-0.193434	99
Es	0.252417	-1.232963	-0.379948	99
Es	-0.497725	-0.535789	0.726795	99
Es	-0.119245	0.025222	0.356881	99
Es	-0.597924	0.745023	-1.517205	99
Es	0.430201	-0.495071	-0.453970	99
Es	2.420204	1.276566	-0.858685	99
Es	1.481735	1.489701	0.682442	99
Es	0.359683	0.263535	-0.223107	99
Es	0.985340	0.565459	0.021012	99
Es	1.640441	0.882662	0.265152	99
Es	2.029441	0.400883	0.679321	99
Es	2.622941	1.487619	-0.760423	99
Es	-0.082591	0.731241	-0.851380	99
Es	-0.237938	-0.625377	1.412770	99
Es	2.504066	1.016102	-0.995681	99
Es	-0.185560	-1.054592	0.222892	99
Es	2.107073	1.132794	-0.434406	99
Es	2.074525	1.506000	-1.164960	99
Es	-2.273858	-1.042246	1.050209	99
Es	-0.319484	1.060354	-1.213423	99
Es	-2.212092	0.161102	1.047263	99
Es	-0.510247	1.242552	-1.062436	99
Es	-2.251768	-0.446589	-0.001895	99
Es	-1.985839	-0.453703	0.698423	99
45
Properties=species:S:1:pos:R:3:Z:I:1 energy=-344.96460965022413 field_type=dipole dipole="0.000000 0.000000 0.000000" charge=0
C	-1.985872	-0.453698	0.698431	6
C	-0.497812	-0.535778	0.726941	6
C	0.252468	-1.233098	-0.380029	6
C	0.359878	0.263562	-0.222959	6
O	-0.319482	1.060672	-1.213449	8
C	1.640368	0.882632	0.265351	6
O	2.420558	1.276552	-0.858739	8
H	-2.321962	0.452822	1.210631	1
H	-2.417002	-1.316108	1.216411	1
H	-2.386472	-0.441178	-0.319789	1
H	-0.134232	-0.668928	1.740661	1
H	-0.305252	-1.632938	-1.218049	1
H	1.110738	-1.838368	-0.108099	1
H	-0.858132	0.515022	-1.812129	1
H	2.231958	0.190432	0.871911	1
H	1.426898	1.773302	0.864531	1
H	1.783348	1.705092	-1.461629	1
Es	-0.319480	1.060500	-1.213453	99
Es	-0.081600	0.731444	-0.851665	99
Es	-2.212129	0.161060	1.047231	99
Es	2.620768	1.487557	-0.759747	99
Es	0.252417	-1.232965	-0.379947	99
Es	0.985339	0.565514	0.021059	99
Es	2.029410	0.400846	0.679382	99
Es	-2.251696	-0.446509	-0.001847	99
Es	0.430389	-0.494970	-0.454208	99
Es	2.506249	1.016432	-0.996117	99
Es	-0.598634	0.744966	-1.516572	99
Es	-0.497725	-0.535791	0.726795	99
Es	-0.510047	1.239938	-1.061997	99
Es	0.359681	0.263543	-0.223106	99
Es	1.640441	0.882662	0.265149	99
Es	2.074663	1.506513	-1.165086	99
Es	-1.235689	-0.490180	0.690178	99
Es	-1.985841	-0.453703	0.698423	99
Es	2.420238	1.276604	-0.858678	99
Es	-0.237987	-0.625337	1.412691	99
Es	0.834272	-1.639095	-0.193564	99
Es	-0.136707	-1.490615	-0.950832	99
Es	-0.185593	-1.054589	0.223109	99
Es	-2.273872	-1.042405	1.050212	99
Es	1.481735	1.489710	0.682390	99
Es	-0.092132	1.179993	-1.385568	99
Es	2.106912	1.131934	-0.434556	99
Es	-0.119303	0.025078	0.356890	99
45
Properties=species:S:1:pos:R:3:Z:I:1 energy=-344.96460965022413 field_type=dipole dipole="0.000000 0.000000 0.000000" charge=0
C	-1.985872	-0.453698	0.698431	6
C	-0.497812	-0.535778	0.726941	6
C	0.252468	-1.233098	-0.380029	6
C	0.359878	0.263562	-0.222959	6
O	-0.319482	1.060672	-1.213449	8
C	1.640368	0.882632	0.265351	6
O	2.420558	1.276552	-0.858739	8
H	-2.321962	0.452822	1.210631	1
H	-2.417002	-1.316108	1.216411	1
H	-2.386472	-0.441178	-0.319789	1
H	-0.134232	-0.668928	1.740661	1
H	-0.305252	-1.632938	-1.218049	1
H	1.110738	-1.838368	-0.108099	1
H	-0.858132	0.515022	-1.812129	1
H	2.231958	0.190432	0.871911	1
H	1.426898	1.773302	0.864531	1
H	1.783348	1.705092	-1.461629	1
Es	-1.985839	-0.453703	0.698422	99
Es	0.834175	-1.638946	-0.193622	99
Es	-0.497727	-0.535795	0.726798	99
Es	0.985282	0.565538	0.021062	99
Es	-0.091491	1.176354	-1.385825	99
Es	0.430551	-0.494920	-0.454395	99
Es	-2.251747	-0.446549	-0.001839	99
Es	-1.235585	-0.490267	0.690260	99
Es	2.506182	1.016719	-0.995757	99
Es	0.252418	-1.232960	-0.379946	99
Es	-0.319469	1.060359	-1.213449	99
Es	2.029367	0.400847	0.679325	99
Es	-0.119239	0.025110	0.356806	99
Es	2.074656	1.506253	-1.165428	99
Es	2.420228	1.276651	-0.858665	99
Es	0.359679	0.263542	-0.223101	99
Es	-2.273899	-1.042285	1.050193	99
Es	-0.136570	-1.490687	-0.950827	99
Es	2.106968	1.132020	-0.434267	99
Es	-0.238046	-0.625249	1.412599	99
Es	-0.185817	-1.054863	0.223418	99
Es	1.640440	0.882662	0.265152	99
Es	2.620820	1.487435	-0.760105	99
Es	-2.212102	0.161085	1.047246	99
Es	-0.509355	1.243624	-1.063220	99
Es	1.481760	1.489666	0.682455	99
Es	-0.598806	0.744805	-1.516061	99
Es	-0.082751	0.731694	-0.850663	99
45
Properties=species:S:1:pos:R:3:Z:I:1 energy=-344.96460965022413 field_type=dipole dipole="0.000000 0.000000 0.000000" charge=0
C	-1.985872	-0.453698	0.698431	6
C	-0.497812	-0.535778	0.726941	6
C	0.252468	-1.233098	-0.380029	6
C	0.359878	0.263562	-0.222959	6
O	-0.319482	1.060672	-1.213449	8
C	1.640368	0.882632	0.265351	6
O	2.420558	1.276552	-0.858739	8
H	-2.321962	0.452822	1.210631	1
H	-2.417002	-1.316108	1.216411	1
H	-2.386472	-0.441178	-0.319789	1
H	-0.134232	-0.668928	1.740661	1
H	-0.305252	-1.632938	-1.218049	1
H	1.110738	-1.838368	-0.108099	1
H	-0.858132	0.515022	-1.812129	1
H	2.231958	0.190432	0.871911	1
H	1.426898	1.773302	0.864531	1
H	1.783348	1.705092	-1.461629	1
Es	2.107047	1.132048	-0.434003	99
Es	1.481769	1.489598	0.682452	99
Es	2.029385	0.400857	0.679336	99
Es	-0.509938	1.242861	-1.063089	99
Es	-2.251744	-0.446538	-0.001874	99
Es	-2.273937	-1.042247	1.050200	99
Es	-0.119329	0.025277	0.357282	99
Es	-1.235595	-0.490275	0.690345	99
Es	-0.598237	0.744605	-1.516368	99
Es	2.420207	1.276539	-0.858716	99
Es	-0.082295	0.731829	-0.850778	99
Es	0.359678	0.263539	-0.223100	99
Es	1.640439	0.882665	0.265153	99
Es	2.505546	1.016945	-0.995888	99
Es	0.252417	-1.232964	-0.379947	99
Es	0.834109	-1.638980	-0.193657	99
Es	-0.091896	1.177279	-1.385586	99
Es	-0.185623	-1.054879	0.223079	99
Es	-0.238106	-0.625419	1.412478	99
Es	-0.136532	-1.490680	-0.950730	99
Es	-2.212073	0.161071	1.047227	99
Es	0.430542	-0.494856	-0.454441	99
Es	-0.319519	1.060313	-1.213409	99
Es	2.074763	1.506713	-1.165284	99
Es	-0.497725	-0.535796	0.726795	99
Es	2.621281	1.486882	-0.760369	99
Es	0.985292	0.565454	0.021035	99
Es	-1.985841	-0.453703	0.698423	99
45
Properties=species:S:1:pos:R:3:Z:I:1 energy=-344.96460965022413 field_type=dipole dipole="0.000000 0.000000 0.000000" charge=0
C	-1.985872	-0.453698	0.698431	6
C	-0.497812	-0.535778	0.726941	6
C	0.252468	-1.233098	-0.380029	6
C	0.359878	0.263562	-0.222959	6
O	-0.319482	1.060672	-1.213449	8
C	1.640368	0.882632	0.265351	6
O	2.420558	1.276552	-0.858739	8
H	-2.321962	0.452822	1.210631	1
H	-2.417002	-1.316108	1.216411	1
H	-2.386472	-0.441178	-0.319789	1
H	-0.134232	-0.668928	1.740661	1
H	-0.305252	-1.632938	-1.218049	1
H	1.110738	-1.838368	-0.108099	1
H	-0.858132	0.515022	-1.812129	1
H	2.231958	0.190432	0.871911	1
H	1.426898	1.773302	0.864531	1
H	1.783348	1.705092	-1.461629	1
Es	-0.238139	-0.625286	1.412439	99
Es	-0.185803	-1.055080	0.223269	99
Es	2.106812	1.130391	-0.434534	99
Es	0.430676	-0.495031	-0.454500	99
Es	-2.212082	0.161028	1.047300	99
Es	-0.119354	0.025491	0.357319	99
Es	0.359683	0.263541	-0.223109	99
Es	1.481729	1.489624	0.682438	99
Es	-0.510603	1.241112	-1.062996	99
Es	0.252411	-1.232959	-0.379938	99
Es	-1.985841	-0.453703	0.698423	99
Es	-0.497721	-0.535792	0.726790	99
Es	2.420236	1.276562	-0.858715	99
Es	2.511732	1.018029	-0.995415	99
Es	0.985216	0.565427	0.020994	99
Es	1.640440	0.882662	0.265153	99
Es	-0.597357	0.744790	-1.517524	99
Es	-2.251776	-0.446460	-0.001833	99
Es	-1.235526	-0.490352	0.690330	99
Es	2.615916	1.490100	-0.759216	99
Es	-0.319564	1.060321	-1.213374	99
Es	2.029338	0.400860	0.679359	99
Es	0.834040	-1.638912	-0.193723	99
Es	-0.082342	0.731566	-0.850814	99
Es	2.074188	1.504018	-1.166396	99
Es	-2.273921	-1.042293	1.050133	99
Es	-0.092016	1.179101	-1.384574	99
Es	-0.136289	-1.490619	-0.950719	99
45
Properties=species:S:1:pos:R:3:Z:I:1 energy=-344.96460965022413 field_type=dipole dipole="0.000000 0.000000 0.000000" charge=0
C	-1.985872	-0.453698	0.698431	6
C	-0.497812	-0.535778	0.726941	6
C	0.252468	-1.233098	-0.380029	6
C	0.359878	0.263562	-0.222959	6
O	-0.319482	1.060672	-1.213449	8
C	1.640368	0.882632	0.265351	6
O	2.420558	1.276552	-0.858739	8
H	-2.321962	0.452822	1.210631	1
H	-2.417002	-1.316108	1.216411	1
H	-2.386472	-0.441178	-0.319789	1
H	-0.134232	-0.668928	1.740661	1
H	-0.305252	-1.632938	-1.218049	1
H	1.110738	-1.838368	-0.108099	1
H	-0.858132	0.515022	-1.812129	1
H	2.231958	0.190432	0.871911	1
H	1.426898	1.773302	0.864531	1
H	1.783348	1.705092	-1.461629	1
Es	2.420251	1.276605	-0.858691	99
Es	2.507249	1.017436	-0.995529	99
Es	2.106927	1.131577	-0.433961	99
Es	-0.185701	-1.055289	0.223381	99
Es	2.074781	1.505994	-1.165928	99
Es	-2.273906	-1.042270	1.050177	99
Es	2.029288	0.400850	0.679331	99
Es	-0.092233	1.178838	-1.385196	99
Es	-0.136357	-1.490738	-0.950590	99
Es	1.640439	0.882662	0.265154	99
Es	1.481772	1.489579	0.682476	99
Es	-0.238194	-0.625266	1.412369	99
Es	0.430730	-0.494834	-0.454631	99
Es	-0.497724	-0.535793	0.726794	99
Es	-0.510077	1.241268	-1.063116	99
Es	2.619711	1.487510	-0.760195	99
Es	0.985167	0.565445	0.020985	99
Es	0.252417	-1.232957	-0.379945	99
Es	-1.985841	-0.453703	0.698423	99
Es	-2.212144	0.161037	1.047219	99
Es	-2.251759	-0.446545	-0.001820	99
Es	0.833989	-1.638821	-0.193829	99
Es	-1.235495	-0.490284	0.690379	99
Es	-0.082029	0.731631	-0.850674	99
Es	-0.598053	0.744854	-1.516856	99
Es	-0.119299	0.025491	0.357357	99
Es	0.359678	0.263537	-0.223099	99
Es	-0.319505	1.060322	-1.213421	99
45
Properties=species:S:1:pos:R:3:Z:I:1 energy=-344.96460965022413 field_type=dipole dipole="0.000000 0.000000 0.000000" charge=0
C	-1.985872	-0.453698	0.698431	6
C	-0.497812	-0.535778	0.726941	6
C	0.252468	-1.233098	-0.380029	6
C	0.359878	0.263562	-0.222959	6
O	-0.319482	1.060672	-1.213449	8
C	1.640368	0.882632	0.265351	6
O	2.420558	1.276552	-0.858739	8
H	-2.321962	0.452822	1.210631	1
H	-2.417002	-1.316108	1.216411	1
H	-2.386472	-0.441178	-0.319789	1
H	-0.134232	-0.668928	1.740661	1
H	-0.305252	-1.632938	-1.218049	1
H	1.110738	-1.838368	-0.108099	1
H	-0.858132	0.515022	-1.812129	1
H	2.231958	0.190432	0.871911	1
H	1.426898	1.773302	0.864531	1
H	1.783348	1.705092	-1.461629	1
Es	-0.136274	-1.490740	-0.950505	99
Es	-2.251763	-0.446536	-0.001802	99
Es	0.359674	0.263521	-0.223091	99
Es	-2.273935	-1.042241	1.050148	99
Es	1.640437	0.882661	0.265157	99
Es	0.833907	-1.638772	-0.193923	99
Es	1.481734	1.489587	0.682461	99
Es	0.985131	0.565361	0.020982	99
Es	-0.119246	0.025584	0.357355	99
Es	2.420273	1.276609	-0.858689	99
Es	2.074590	1.504747	-1.166726	99
Es	2.107001	1.131993	-0.433659	99
Es	-1.985840	-0.453703	0.698423	99
Es	-2.212142	0.161042	1.047228	99
Es	-0.082158	0.731720	-0.850377	99
Es	-0.598152	0.744883	-1.516901	99
Es	0.430854	-0.494852	-0.454737	99
Es	-0.497723	-0.535794	0.726794	99
Es	-0.238233	-0.625180	1.412290	99
Es	2.029272	0.400871	0.679349	99
Es	-0.509786	1.241863	-1.063521	99
Es	2.617485	1.488451	-0.760399	99
Es	-1.235450	-0.490270	0.690439	99
Es	0.252414	-1.232957	-0.379940	99
Es	-0.092241	1.178126	-1.385103	99
Es	2.509586	1.017313	-0.994854	99
Es	-0.319515	1.060346	-1.213429	99
Es	-0.185817	-1.055499	0.223596	99
45
Properties=species:S:1:pos:R:3:Z:I:1 energy=-344.96460965022413 field_type=dipole dipole="0.000000 0.000000 0.000000" charge=0
C	-1.985872	-0.453698	0.698431	6
C	-0.497812	-0.535778	0.726941	6
C	0.252468	-1.233098	-0.380029	6
C	0.359878	0.263562	-0.222959	6
O	-0.319482	1.060672	-1.213449	8
C	1.640368	0.882632	0.265351	6
O	2.420558	1.276552	-0.858739	8
H	-2.321962	0.452822	1.210631	1
H	-2.417002	-1.316108	1.216411	1
H	-2.386472	-0.441178	-0.319789	1
H	-0.134232	-0.668928	1.740661	1
H	-0.305252	-1.632938	-1.218049	1
H	1.110738	-1.838368	-0.108099	1
H	-0.858132	0.515022	-1.812129	1
H	2.231958	0.190432	0.871911	1
H	1.426898	1.773302	0.864531	1
H	1.783348	1.705092	-1.461629	1
Es	2.510581	1.018798	-0.995566	99
Es	-0.238286	-0.625215	1.412240	99
Es	-0.597927	0.745082	-1.517786	99
Es	0.252417	-1.232956	-0.379944	99
Es	-2.251777	-0.446580	-0.001816	99
Es	0.833824	-1.638781	-0.193965	99
Es	-0.509713	1.242280	-1.063441	99
Es	2.074684	1.505376	-1.166391	99
Es	0.430960	-0.494783	-0.454816	99
Es	-0.136228	-1.490716	-0.950472	99
Es	-2.273940	-1.042196	1.050190	99
Es	2.420143	1.276449	-0.858744	99
Es	0.359678	0.263531	-0.223095	99
Es	-0.319503	1.060472	-1.213467	99
Es	-0.081787	0.731574	-0.850394	99
Es	-0.185754	-1.055595	0.223526	99
Es	-1.235407	-0.490316	0.690473	99
Es	-1.985841	-0.453703	0.698423	99
Es	1.640438	0.882662	0.265156	99
Es	-0.497722	-0.535793	0.726793	99
Es	-2.212141	0.161038	1.047177	99
Es	0.985092	0.565433	0.020969	99
Es	-0.092963	1.177536	-1.384176	99
Es	1.481763	1.489540	0.682478	99
Es	2.029243	0.400844	0.679339	99
Es	2.106689	1.129966	-0.434335	99
Es	-0.119295	0.025637	0.357527	99
Es	2.616855	1.488551	-0.759316	99
