47
Properties=species:S:1:pos:R:3:Z:I:1 energy=-309.1370574950566 field_type=dipole dipole="0.000000 0.000000 0.000000" charge=0
C	-1.752576	0.461666	-0.844152	6
C	-0.236806	0.428066	-0.791612	6
C	0.442104	1.457056	0.143788	6
C	1.510784	0.393266	0.456708	6
C	0.488054	-0.700414	0.027738	6
C	-0.267846	-1.319784	1.197578	6
O	1.035454	-1.770064	-0.775532	8
H	-2.135496	-0.399944	-1.398682	1
H	-2.096536	1.367886	-1.351782	1
H	-2.198236	0.450116	0.154438	1
H	0.158574	0.497036	-1.817032	1
H	-0.157556	1.744786	1.015028	1
H	0.810224	2.364676	-0.342052	1
H	2.393894	0.454656	-0.189922	1
H	1.845764	0.365226	1.497468	1
H	-0.690376	-0.560284	1.863578	1
H	0.398254	-1.949904	1.796798	1
H	-1.090036	-1.948574	0.839908	1
H	1.542354	-1.335474	-1.482262	1
Es	-0.551077	-0.793049	1.643088	99
Es	-0.825591	-1.740954	0.951376	99
Es	0.027373	1.641337	0.739432	99
Es	0.049418	0.469165	-1.489857	99
Es	2.104459	0.431543	-0.000333	99
Es	-1.981458	1.081829	-1.190331	99
Es	0.693069	2.082306	-0.189029	99
Es	-2.050054	0.454046	-0.159388	99
Es	-0.267836	-1.319749	1.197555	99
Es	0.059932	-0.192524	-0.418063	99
Es	1.510745	0.393290	0.456689	99
Es	0.840297	-1.357334	-0.489559	99
Es	1.304340	-1.518165	-1.152773	99
Es	1.743426	0.369903	1.171571	99
Es	0.442124	1.457000	0.143777	99
Es	0.795759	-1.911492	-0.909222	99
Es	1.063221	-0.204094	0.279406	99
Es	-2.012467	-0.125967	-1.222119	99
Es	1.025824	0.987508	0.340842	99
Es	0.099134	-1.000724	0.614130	99
Es	1.240102	-1.916537	-0.597469	99
Es	1.035499	-1.769851	-0.775526	99
Es	-0.236810	0.428078	-0.791574	99
Es	0.189009	-1.739448	1.599130	99
Es	0.051669	1.010021	-0.348683	99
Es	0.488138	-0.700558	0.027612	99
Es	-1.752560	0.461667	-0.844155	99
Es	-1.004257	0.438818	-0.814210	99
47
Properties=species:S:1:pos:R:3:Z:I:1 energy=-309.1370574950566 field_type=dipole dipole="0.000000 0.000000 0.000000" charge=0
C	-1.752576	0.461666	-0.844152	6
C	-0.236806	0.428066	-0.791612	6
C	0.442104	1.457056	0.143788	6
C	1.510784	0.393266	0.456708	6
C	0.488054	-0.700414	0.027738	6
C	-0.267846	-1.319784	1.197578	6
O	1.035454	-1.770064	-0.775532	8
H	-2.135496	-0.399944	-1.398682	1
H	-2.096536	1.367886	-1.351782	1
H	-2.198236	0.450116	0.154438	1
H	0.158574	0.497036	-1.817032	1
H	-0.157556	1.744786	1.015028	1
H	0.810224	2.364676	-0.342052	1
H	2.393894	0.454656	-0.189922	1
H	1.845764	0.365226	1.497468	1
H	-0.690376	-0.560284	1.863578	1
H	0.398254	-1.949904	1.796798	1
H	-1.090036	-1.948574	0.839908	1
H	1.542354	-1.335474	-1.482262	1
Es	2.104459	0.431505	-0.000283	99
Es	0.797300	-1.909020	-0.909222	99
Es	0.488142	-0.700553	0.027617	99
Es	1.063196	-0.204150	0.279544	99
Es	-1.981547	1.081885	-1.190299	99
Es	-0.825625	-1.740747	0.951343	99
Es	-2.012496	-0.125954	-1.222072	99
Es	1.510747	0.393292	0.456690	99
Es	0.049404	0.469109	-1.489794	99
Es	1.035418	-1.770058	-0.775653	99
Es	0.099178	-1.000705	0.614008	99
Es	-1.752561	0.461667	-0.844156	99
Es	1.025915	0.987700	0.341001	99
Es	0.839076	-1.357230	-0.489863	99
Es	-2.049986	0.453992	-0.159456	99
Es	-0.267836	-1.319749	1.197556	99
Es	0.051630	1.010038	-0.348743	99
Es	0.188939	-1.739658	1.599073	99
Es	0.692999	2.082269	-0.188956	99
Es	1.304960	-1.518471	-1.153086	99
Es	0.059869	-0.192526	-0.418026	99
Es	0.027423	1.641374	0.739337	99
Es	1.743449	0.369849	1.171453	99
Es	-0.551007	-0.793049	1.643172	99
Es	-0.236810	0.428078	-0.791574	99
Es	0.442125	1.457003	0.143779	99
Es	-1.004184	0.438807	-0.814296	99
Es	1.239246	-1.918631	-0.596780	99
47
Properties=species:S:1:pos:R:3:Z:I:1 energy=-309.1370574950566 field_type=dipole dipole="0.000000 0.000000 0.000000" charge=0
C	-1.752576	0.461666	-0.844152	6
C	-0.236806	0.428066	-0.791612	6
C	0.442104	1.457056	0.143788	6
C	1.510784	0.393266	0.456708	6
C	0.488054	-0.700414	0.027738	6
C	-0.267846	-1.319784	1.197578	6
O	1.035454	-1.770064	-0.775532	8
H	-2.135496	-0.399944	-1.398682	1
H	-2.096536	1.367886	-1.351782	1
H	-2.198236	0.450116	0.154438	1
H	0.158574	0.497036	-1.817032	1
H	-0.157556	1.744786	1.015028	1
H	0.810224	2.364676	-0.342052	1
H	2.393894	0.454656	-0.189922	1
H	1.845764	0.365226	1.497468	1
H	-0.690376	-0.560284	1.863578	1
H	0.398254	-1.949904	1.796798	1
H	-1.090036	-1.948574	0.839908	1
H	1.542354	-1.335474	-1.482262	1
Es	0.099224	-1.000671	0.614018	99
Es	-0.550968	-0.793081	1.643122	99
Es	-0.267835	-1.319750	1.197555	99
Es	1.743408	0.369897	1.171414	99
Es	1.238516	-1.917421	-0.598141	99
Es	1.063182	-0.204221	0.279485	99
Es	-2.050060	0.454067	-0.159316	99
Es	0.051543	1.010148	-0.348763	99
Es	-1.004100	0.438669	-0.814408	99
Es	0.796131	-1.910617	-0.909541	99
Es	1.510743	0.393293	0.456690	99
Es	2.104467	0.431467	-0.000157	99
Es	0.027443	1.641374	0.739284	99
Es	0.488142	-0.700555	0.027622	99
Es	-1.981481	1.081764	-1.190368	99
Es	0.442125	1.457000	0.143777	99
Es	0.840221	-1.357150	-0.488750	99
Es	0.049372	0.469124	-1.489812	99
Es	1.305564	-1.518539	-1.152619	99
Es	1.026053	0.987730	0.340944	99
Es	0.188942	-1.739599	1.599109	99
Es	-1.752560	0.461667	-0.844155	99
Es	-2.012532	-0.125829	-1.222021	99
Es	-0.236809	0.428079	-0.791573	99
Es	1.035554	-1.769704	-0.775554	99
Es	0.692942	2.082246	-0.188864	99
Es	-0.825677	-1.740791	0.951372	99
Es	0.059876	-0.192533	-0.418036	99
47
Properties=species:S:1:pos:R:3:Z:I:1 energy=-309.1370574950566 field_type=dipole dipole="0.000000 0.000000 0.000000" charge=0
C	-1.752576	0.461666	-0.844152	6
C	-0.236806	0.428066	-0.791612	6
C	0.442104	1.457056	0.143788	6
C	1.510784	0.393266	0.456708	6
C	0.488054	-0.700414	0.027738	6
C	-0.267846	-1.319784	1.197578	6
O	1.035454	-1.770064	-0.775532	8
H	-2.135496	-0.399944	-1.398682	1
H	-2.096536	1.367886	-1.351782	1
H	-2.198236	0.450116	0.154438	1
H	0.158574	0.497036	-1.817032	1
H	-0.157556	1.744786	1.015028	1
H	0.810224	2.364676	-0.342052	1
H	2.393894	0.454656	-0.189922	1
H	1.845764	0.365226	1.497468	1
H	-0.690376	-0.560284	1.863578	1
H	0.398254	-1.949904	1.796798	1
H	-1.090036	-1.948574	0.839908	1
H	1.542354	-1.335474	-1.482262	1
Es	0.692914	2.082152	-0.188725	99
Es	0.189112	-1.739642	1.599102	99
Es	0.049498	0.469255	-1.489648	99
Es	1.510745	0.393293	0.456689	99
Es	0.051302	1.010091	-0.348943	99
Es	1.743499	0.369860	1.171346	99
Es	1.063325	-0.204301	0.279495	99
Es	1.026000	0.987845	0.341012	99
Es	-2.050029	0.454001	-0.159435	99
Es	1.305596	-1.518616	-1.152660	99
Es	-0.267833	-1.319750	1.197556	99
Es	-1.004110	0.438765	-0.814546	99
Es	-2.012532	-0.125879	-1.222076	99
Es	-0.825676	-1.740774	0.951345	99
Es	0.099011	-1.000691	0.614057	99
Es	-1.752560	0.461667	-0.844156	99
Es	1.035470	-1.769710	-0.775609	99
Es	0.796275	-1.909731	-0.909612	99
Es	0.442126	1.456998	0.143776	99
Es	0.027504	1.641443	0.739243	99
Es	1.238476	-1.918248	-0.597824	99
Es	-0.550972	-0.793025	1.643089	99
Es	0.488142	-0.700549	0.027619	99
Es	0.059965	-0.192636	-0.417952	99
Es	-0.236811	0.428080	-0.791576	99
Es	0.840164	-1.357139	-0.488902	99
Es	2.104379	0.431504	-0.000084	99
Es	-1.981554	1.081803	-1.190264	99
47
Properties=species:S:1:pos:R:3:Z:I:1 energy=-309.1370574950566 field_type=dipole dipole="0.000000 0.000000 0.000000" charge=0
C	-1.752576	0.461666	-0.844152	6
C	-0.236806	0.428066	-0.791612	6
C	0.442104	1.457056	0.143788	6
C	1.510784	0.393266	0.456708	6
C	0.488054	-0.700414	0.027738	6
C	-0.267846	-1.319784	1.197578	6
O	1.035454	-1.770064	-0.775532	8
H	-2.135496	-0.399944	-1.398682	1
H	-2.096536	1.367886	-1.351782	1
H	-2.198236	0.450116	0.154438	1
H	0.158574	0.497036	-1.817032	1
H	-0.157556	1.744786	1.015028	1
H	0.810224	2.364676	-0.342052	1
H	2.393894	0.454656	-0.189922	1
H	1.845764	0.365226	1.497468	1
H	-0.690376	-0.560284	1.863578	1
H	0.398254	-1.949904	1.796798	1
H	-1.090036	-1.948574	0.839908	1
H	1.542354	-1.335474	-1.482262	1
Es	0.840143	-1.356892	-0.488629	99
Es	-1.981525	1.081778	-1.190297	99
Es	0.796463	-1.911180	-0.908777	99
Es	-0.267836	-1.319749	1.197556	99
Es	0.027612	1.641440	0.739210	99
Es	-1.752562	0.461667	-0.844155	99
Es	1.743495	0.369784	1.171214	99
Es	-0.825637	-1.740776	0.951414	99
Es	1.063287	-0.204289	0.279472	99
Es	1.238857	-1.916746	-0.598381	99
Es	0.442126	1.456999	0.143777	99
Es	1.510745	0.393291	0.456689	99
Es	2.104404	0.431446	-0.000020	99
Es	-1.004081	0.438686	-0.814418	99
Es	0.488142	-0.700549	0.027618	99
Es	-2.050056	0.454066	-0.159482	99
Es	0.051383	1.010389	-0.348844	99
Es	-2.012556	-0.125908	-1.222049	99
Es	-0.236809	0.428079	-0.791573	99
Es	0.188886	-1.739605	1.599094	99
Es	1.035509	-1.769735	-0.775551	99
Es	0.692836	2.082163	-0.188708	99
Es	1.305022	-1.518869	-1.153259	99
Es	0.049303	0.469073	-1.489604	99
Es	-0.550981	-0.793027	1.643151	99
Es	1.026113	0.987902	0.341029	99
Es	0.099197	-1.000744	0.613952	99
Es	0.059947	-0.192626	-0.418111	99
47
Properties=species:S:1:pos:R:3:Z:I:1 energy=-309.1370574950566 field_type=dipole dipole="0.000000 0.000000 0.000000" charge=0
C	-1.752576	0.461666	-0.844152	6
C	-0.236806	0.428066	-0.791612	6
C	0.442104	1.457056	0.143788	6
C	1.510784	0.393266	0.456708	6
C	0.488054	-0.700414	0.027738	6
C	-0.267846	-1.319784	1.197578	6
O	1.035454	-1.770064	-0.775532	8
H	-2.135496	-0.399944	-1.398682	1
H	-2.096536	1.367886	-1.351782	1
H	-2.198236	0.450116	0.154438	1
H	0.158574	0.497036	-1.817032	1
H	-0.157556	1.744786	1.015028	1
H	0.810224	2.364676	-0.342052	1
H	2.393894	0.454656	-0.189922	1
H	1.845764	0.365226	1.497468	1
H	-0.690376	-0.560284	1.863578	1
H	0.398254	-1.949904	1.796798	1
H	-1.090036	-1.948574	0.839908	1
H	1.542354	-1.335474	-1.482262	1
Es	0.692788	2.082102	-0.188632	99
Es	0.442126	1.457000	0.143778	99
Es	0.059881	-0.192657	-0.418211	99
Es	0.488143	-0.700551	0.027618	99
Es	0.840186	-1.356873	-0.488734	99
Es	1.026128	0.988024	0.341109	99
Es	2.104343	0.431481	0.000060	99
Es	-1.981536	1.081746	-1.190245	99
Es	1.035436	-1.769746	-0.775552	99
Es	-0.267836	-1.319750	1.197557	99
Es	-0.550947	-0.793168	1.643026	99
Es	1.238510	-1.916263	-0.598399	99
Es	0.188940	-1.739614	1.599218	99
Es	0.027631	1.641494	0.739126	99
Es	1.305613	-1.518901	-1.152694	99
Es	1.510745	0.393291	0.456690	99
Es	-1.752560	0.461667	-0.844156	99
Es	-2.050076	0.454082	-0.159541	99
Es	1.063336	-0.204423	0.279462	99
Es	-0.825700	-1.740743	0.951446	99
Es	0.796245	-1.911692	-0.909217	99
Es	-1.004001	0.438739	-0.814401	99
Es	0.051390	1.010258	-0.348877	99
Es	1.743533	0.369830	1.171178	99
Es	0.099239	-1.000580	0.613923	99
Es	-0.236806	0.428079	-0.791569	99
Es	0.049280	0.469133	-1.489583	99
Es	-2.012601	-0.125901	-1.222065	99
47
Properties=species:S:1:pos:R:3:Z:I:1 energy=-309.1370574950566 field_type=dipole dipole="0.000000 0.000000 0.000000" charge=0
C	-1.752576	0.461666	-0.844152	6
C	-0.236806	0.428066	-0.791612	6
C	0.442104	1.457056	0.143788	6
C	1.510784	0.393266	0.456708	6
C	0.488054	-0.700414	0.027738	6
C	-0.267846	-1.319784	1.197578	6
O	1.035454	-1.770064	-0.775532	8
H	-2.135496	-0.399944	-1.398682	1
H	-2.096536	1.367886	-1.351782	1
H	-2.198236	0.450116	0.154438	1
H	0.158574	0.497036	-1.817032	1
H	-0.157556	1.744786	1.015028	1
H	0.810224	2.364676	-0.342052	1
H	2.393894	0.454656	-0.189922	1
H	1.845764	0.365226	1.497468	1
H	-0.690376	-0.560284	1.863578	1
H	0.398254	-1.949904	1.796798	1
H	-1.090036	-1.948574	0.839908	1
H	1.542354	-1.335474	-1.482262	1
Es	0.840265	-1.356914	-0.488153	99
Es	0.051354	1.010352	-0.348887	99
Es	0.442126	1.457006	0.143777	99
Es	0.488142	-0.700551	0.027619	99
Es	-0.550976	-0.793133	1.643105	99
Es	-1.752560	0.461667	-0.844154	99
Es	1.510743	0.393295	0.456688	99
Es	-1.003942	0.438676	-0.814521	99
Es	-0.267837	-1.319751	1.197558	99
Es	2.104344	0.431473	0.000162	99
Es	1.063382	-0.204436	0.279440	99
Es	1.035521	-1.769716	-0.775576	99
Es	-2.050122	0.454128	-0.159556	99
Es	-0.236806	0.428079	-0.791568	99
Es	-1.981568	1.081711	-1.190367	99
Es	0.796535	-1.908742	-0.909908	99
Es	-0.825653	-1.740763	0.951447	99
Es	1.237332	-1.919174	-0.598482	99
Es	0.692669	2.082101	-0.188594	99
Es	-2.012566	-0.125877	-1.221942	99
Es	1.026236	0.988135	0.341177	99
Es	0.027654	1.641486	0.739018	99
Es	1.306346	-1.518914	-1.152482	99
Es	1.743523	0.369823	1.171113	99
Es	0.099294	-1.000627	0.613883	99
Es	0.059815	-0.192712	-0.418153	99
Es	0.188875	-1.739600	1.599152	99
Es	0.049303	0.469044	-1.489480	99
47
Properties=species:S:1:pos:R:3:Z:I:1 energy=-309.1370574950566 field_type=dipole dipole="0.000000 0.000000 0.000000" charge=0
C	-1.752576	0.461666	-0.844152	6
C	-0.236806	0.428066	-0.791612	6
C	0.442104	1.457056	0.143788	6
C	1.510784	0.393266	0.456708	6
C	0.488054	-0.700414	0.027738	6
C	-0.267846	-1.319784	1.197578	6
O	1.035454	-1.770064	-0.775532	8
H	-2.135496	-0.399944	-1.398682	1
H	-2.096536	1.367886	-1.351782	1
H	-2.198236	0.450116	0.154438	1
H	0.158574	0.497036	-1.817032	1
H	-0.157556	1.744786	1.015028	1
H	0.810224	2.364676	-0.342052	1
H	2.393894	0.454656	-0.189922	1
H	1.845764	0.365226	1.497468	1
H	-0.690376	-0.560284	1.863578	1
H	0.398254	-1.949904	1.796798	1
H	-1.090036	-1.948574	0.839908	1
H	1.542354	-1.335474	-1.482262	1
Es	0.059875	-0.192670	-0.418222	99
Es	-1.752561	0.461666	-0.844156	99
Es	0.099306	-1.000612	0.613849	99
Es	-1.003952	0.438681	-0.814584	99
Es	0.188871	-1.739622	1.599202	99
Es	1.743589	0.369754	1.171058	99
Es	-0.267837	-1.319749	1.197557	99
Es	-0.825663	-1.740733	0.951443	99
Es	2.104288	0.431408	0.000173	99
Es	1.035522	-1.769773	-0.775570	99
Es	0.442126	1.457004	0.143778	99
Es	0.488140	-0.700541	0.027622	99
Es	-1.981552	1.081751	-1.190166	99
Es	1.063423	-0.204506	0.279509	99
Es	1.304901	-1.519130	-1.153949	99
Es	0.692664	2.082022	-0.188501	99
Es	-2.050044	0.454060	-0.159568	99
Es	1.510748	0.393292	0.456690	99
Es	0.049247	0.469038	-1.489410	99
Es	-0.550967	-0.793107	1.643054	99
Es	0.027668	1.641535	0.739015	99
Es	0.797928	-1.913925	-0.907663	99
Es	0.838474	-1.356860	-0.488968	99
Es	1.026237	0.988232	0.341198	99
Es	-2.012668	-0.125869	-1.222087	99
Es	0.051343	1.010459	-0.348983	99
Es	1.239133	-1.913819	-0.598432	99
Es	-0.236812	0.428080	-0.791575	99
47
Properties=species:S:1:pos:R:3:Z:I:1 energy=-309.1370574950566 field_type=dipole dipole="0.000000 0.000000 0.000000" charge=0
C	-1.752576	0.461666	-0.844152	6
C	-0.236806	0.428066	-0.791612	6
C	0.442104	1.457056	0.143788	6
C	1.510784	0.393266	0.456708	6
C	0.488054	-0.700414	0.027738	6
C	-0.267846	-1.319784	1.197578	6
O	1.035454	-1.770064	-0.775532	8
H	-2.135496	-0.399944	-1.398682	1
H	-2.096536	1.367886	-1.351782	1
H	-2.198236	0.450116	0.154438	1
H	0.158574	0.497036	-1.817032	1
H	-0.157556	1.744786	1.015028	1
H	0.810224	2.364676	-0.342052	1
H	2.393894	0.454656	-0.189922	1
H	1.845764	0.365226	1.497468	1
H	-0.690376	-0.560284	1.863578	1
H	0.398254	-1.949904	1.796798	1
H	-1.090036	-1.948574	0.839908	1
H	1.542354	-1.335474	-1.482262	1
Es	1.035448	-1.769750	-0.775603	99
Es	0.059838	-0.192712	-0.418170	99
Es	1.743673	0.369756	1.170892	99
Es	1.063421	-0.204565	0.279545	99
Es	-0.236809	0.428079	-0.791572	99
Es	1.510745	0.393292	0.456690	99
Es	-2.012634	-0.125816	-1.222014	99
Es	1.237947	-1.918228	-0.598326	99
Es	0.188859	-1.739588	1.599167	99
Es	-0.267836	-1.319749	1.197557	99
Es	-1.981578	1.081765	-1.190241	99
Es	1.026226	0.988290	0.341315	99
Es	-1.752562	0.461667	-0.844153	99
Es	1.305619	-1.519037	-1.153295	99
Es	0.488141	-0.700549	0.027618	99
Es	0.051248	1.010510	-0.348989	99
Es	-1.003889	0.438608	-0.814543	99
Es	-2.050091	0.454043	-0.159599	99
Es	0.027759	1.641543	0.738961	99
Es	0.099327	-1.000576	0.613788	99
Es	0.839461	-1.356879	-0.488507	99
Es	0.797535	-1.909605	-0.908888	99
Es	-0.550963	-0.793159	1.643094	99
Es	2.104241	0.431457	0.000201	99
Es	0.442127	1.456998	0.143776	99
Es	0.692614	2.082033	-0.188474	99
Es	-0.825653	-1.740763	0.951501	99
Es	0.049215	0.469001	-1.489414	99
47
Properties=species:S:1:pos:R:3:Z:I:1 energy=-309.1370574950566 field_type=dipole dipole="0.000000 0.000000 0.000000" charge=0
C	-1.752576	0.461666	-0.844152	6
C	-0.236806	0.428066	-0.791612	6
C	0.442104	1.457056	0.143788	6
C	1.510784	0.393266	0.456708	6
C	0.488054	-0.700414	0.027738	6
C	-0.267846	-1.319784	1.197578	6
O	1.035454	-1.770064	-0.775532	8
H	-2.135496	-0.399944	-1.398682	1
H	-2.096536	1.367886	-1.351782	1
H	-2.198236	0.450116	0.154438	1
H	0.158574	0.497036	-1.817032	1
H	-0.157556	1.744786	1.015028	1
H	0.810224	2.364676	-0.342052	1
H	2.393894	0.454656	-0.189922	1
H	1.845764	0.365226	1.497468	1
H	-0.690376	-0.560284	1.863578	1
H	0.398254	-1.949904	1.796798	1
H	-1.090036	-1.948574	0.839908	1
H	1.542354	-1.335474	-1.482262	1
Es	1.026345	0.988364	0.341283	99
Es	0.049134	0.469016	-1.489343	99
Es	0.188857	-1.739530	1.599186	99
Es	0.059911	-0.192716	-0.418319	99
Es	1.035467	-1.769769	-0.775607	99
Es	0.027788	1.641564	0.738901	99
Es	0.442127	1.456998	0.143777	99
Es	-0.267838	-1.319751	1.197555	99
Es	-0.825613	-1.740824	0.951480	99
Es	0.797469	-1.910638	-0.908761	99
Es	0.839490	-1.356814	-0.487961	99
Es	1.063416	-0.204692	0.279557	99
Es	0.692564	2.081991	-0.188410	99
Es	1.306099	-1.519199	-1.153326	99
Es	0.488143	-0.700546	0.027619	99
Es	1.237453	-1.917060	-0.598956	99
Es	1.510743	0.393291	0.456689	99
Es	2.104269	0.431413	0.000319	99
Es	-1.752561	0.461667	-0.844156	99
Es	1.743612	0.369781	1.170875	99
Es	0.051269	1.010570	-0.348982	99
Es	-1.003843	0.438637	-0.814584	99
Es	0.099291	-1.000638	0.613806	99
Es	-0.551017	-0.793111	1.643076	99
Es	-0.236810	0.428079	-0.791572	99
Es	-2.050075	0.454051	-0.159610	99
Es	-1.981610	1.081745	-1.190226	99
Es	-2.012653	-0.125816	-1.221995	99
47
Properties=species:S:1:pos:R:3:Z:I:1 energy=-309.1370574950566 field_type=dipole dipole="0.000000 0.000000 0.000000" charge=0
C	-1.752576	0.461666	-0.844152	6
C	-0.236806	0.428066	-0.791612	6
C	0.442104	1.457056	0.143788	6
C	1.510784	0.393266	0.456708	6
C	0.488054	-0.700414	0.027738	6
C	-0.267846	-1.319784	1.197578	6
O	1.035454	-1.770064	-0.775532	8
H	-2.135496	-0.399944	-1.398682	1
H	-2.096536	1.367886	-1.351782	1
H	-2.198236	0.450116	0.154438	1
H	0.158574	0.497036	-1.817032	1
H	-0.157556	1.744786	1.015028	1
H	0.810224	2.364676	-0.342052	1
H	2.393894	0.454656	-0.189922	1
H	1.845764	0.365226	1.497468	1
H	-0.690376	-0.560284	1.863578	1
H	0.398254	-1.949904	1.796798	1
H	-1.090036	-1.948574	0.839908	1
H	1.542354	-1.335474	-1.482262	1
Es	0.059866	-0.192790	-0.418315	99
Es	0.051202	1.010677	-0.349060	99
Es	1.743626	0.369765	1.170801	99
Es	0.049121	0.468995	-1.489260	99
Es	0.840940	-1.356715	-0.487012	99
Es	-1.752562	0.461667	-0.844156	99
Es	0.442127	1.456995	0.143775	99
Es	0.692559	2.081969	-0.188302	99
Es	1.234485	-1.922136	-0.599244	99
Es	-0.825646	-1.740770	0.951553	99
Es	0.796422	-1.905540	-0.911500	99
Es	1.035491	-1.769767	-0.775626	99
Es	-1.003784	0.438597	-0.814610	99
Es	1.510746	0.393291	0.456690	99
Es	1.308665	-1.519347	-1.151224	99
Es	0.188832	-1.739562	1.599172	99
Es	1.063468	-0.204675	0.279556	99
Es	-0.267838	-1.319752	1.197559	99
Es	0.099327	-1.000583	0.613698	99
Es	2.104251	0.431417	0.000374	99
Es	-2.050130	0.454034	-0.159663	99
Es	-1.981626	1.081725	-1.190219	99
Es	-0.550959	-0.793168	1.643091	99
Es	0.027822	1.641591	0.738786	99
Es	0.488141	-0.700544	0.027621	99
Es	1.026345	0.988379	0.341392	99
Es	-2.012657	-0.125766	-1.221987	99
Es	-0.236809	0.428079	-0.791574	99
47
Properties=species:S:1:pos:R:3:Z:I:1 energy=-309.1370574950566 field_type=dipole dipole="0.000000 0.000000 0.000000" charge=0
C	-1.752576	0.461666	-0.844152	6
C	-0.236806	0.428066	-0.791612	6
C	0.442104	1.457056	0.143788	6
C	1.510784	0.393266	0.456708	6
C	0.488054	-0.700414	0.027738	6
C	-0.267846	-1.319784	1.197578	6
O	1.035454	-1.770064	-0.775532	8
H	-2.135496	-0.399944	-1.398682	1
H	-2.096536	1.367886	-1.351782	1
H	-2.198236	0.450116	0.154438	1
H	0.158574	0.497036	-1.817032	1
H	-0.157556	1.744786	1.015028	1
H	0.810224	2.364676	-0.342052	1
H	2.393894	0.454656	-0.189922	1
H	1.845764	0.365226	1.497468	1
H	-0.690376	-0.560284	1.863578	1
H	0.398254	-1.949904	1.796798	1
H	-1.090036	-1.948574	0.839908	1
H	1.542354	-1.335474	-1.482262	1
Es	0.051171	1.010654	-0.349074	99
Es	-2.012699	-0.125845	-1.221989	99
Es	0.099207	-1.000559	0.613550	99
Es	2.104241	0.431356	0.000399	99
Es	1.035520	-1.769773	-0.775581	99
Es	0.049088	0.469037	-1.489266	99
Es	-2.050113	0.454093	-0.159769	99
Es	-0.267837	-1.319751	1.197557	99
Es	0.797197	-1.905901	-0.910946	99
Es	1.234709	-1.921635	-0.599400	99
Es	0.188851	-1.739597	1.599189	99
Es	0.692484	2.081896	-0.188244	99
Es	0.840207	-1.356831	-0.486842	99
Es	0.442126	1.457000	0.143777	99
Es	1.510743	0.393292	0.456690	99
Es	1.026410	0.988505	0.341425	99
Es	-1.752567	0.461658	-0.844162	99
Es	1.308382	-1.519365	-1.151823	99
Es	-1.981594	1.081757	-1.190200	99
Es	1.063497	-0.204686	0.279672	99
Es	0.059937	-0.192815	-0.418397	99
Es	0.488141	-0.700540	0.027622	99
Es	-0.551003	-0.793199	1.643089	99
Es	0.027849	1.641634	0.738757	99
Es	1.743655	0.369749	1.170718	99
Es	-1.003781	0.438585	-0.814488	99
Es	-0.825587	-1.740731	0.951621	99
Es	-0.236809	0.428079	-0.791571	99
47
Properties=species:S:1:pos:R:3:Z:I:1 energy=-309.1370574950566 field_type=dipole dipole="0.000000 0.000000 0.000000" charge=0
C	-1.752576	0.461666	-0.844152	6
C	-0.236806	0.428066	-0.791612	6
C	0.442104	1.457056	0.143788	6
C	1.510784	0.393266	0.456708	6
C	0.488054	-0.700414	0.027738	6
C	-0.267846	-1.319784	1.197578	6
O	1.035454	-1.770064	-0.775532	8
H	-2.135496	-0.399944	-1.398682	1
H	-2.096536	1.367886	-1.351782	1
H	-2.198236	0.450116	0.154438	1
H	0.158574	0.497036	-1.817032	1
H	-0.157556	1.744786	1.015028	1
H	0.810224	2.364676	-0.342052	1
H	2.393894	0.454656	-0.189922	1
H	1.845764	0.365226	1.497468	1
H	-0.690376	-0.560284	1.863578	1
H	0.398254	-1.949904	1.796798	1
H	-1.090036	-1.948574	0.839908	1
H	1.542354	-1.335474	-1.482262	1
Es	-0.550933	-0.793200	1.643110	99
Es	0.442127	1.456996	0.143775	99
Es	-0.236809	0.428080	-0.791573	99
Es	1.026483	0.988627	0.341505	99
Es	0.059812	-0.192874	-0.418340	99
Es	-1.752561	0.461666	-0.844156	99
Es	0.027895	1.641611	0.738687	99
Es	2.104170	0.431371	0.000498	99
Es	0.692466	2.081923	-0.188180	99
Es	-0.825673	-1.740765	0.951544	99
Es	0.488141	-0.700543	0.027621	99
Es	1.235026	-1.921650	-0.600133	99
Es	0.840804	-1.356834	-0.486171	99
Es	0.051138	1.010658	-0.349150	99
Es	-1.981672	1.081673	-1.190199	99
Es	0.188774	-1.739562	1.599164	99
Es	1.510742	0.393292	0.456689	99
Es	-2.012681	-0.125786	-1.221962	99
Es	-1.003713	0.438669	-0.814674	99
Es	1.307472	-1.519401	-1.152723	99
Es	1.743696	0.369701	1.170689	99
Es	0.797143	-1.905934	-0.909994	99
Es	-2.050122	0.454063	-0.159701	99
Es	1.035551	-1.769720	-0.775564	99
Es	-0.267837	-1.319750	1.197557	99
Es	0.099414	-1.000523	0.613717	99
Es	1.063467	-0.204716	0.279473	99
Es	0.049109	0.468993	-1.489193	99
47
Properties=species:S:1:pos:R:3:Z:I:1 energy=-309.1370574950566 field_type=dipole dipole="0.000000 0.000000 0.000000" charge=0
C	-1.752576	0.461666	-0.844152	6
C	-0.236806	0.428066	-0.791612	6
C	0.442104	1.457056	0.143788	6
C	1.510784	0.393266	0.456708	6
C	0.488054	-0.700414	0.027738	6
C	-0.267846	-1.319784	1.197578	6
O	1.035454	-1.770064	-0.775532	8
H	-2.135496	-0.399944	-1.398682	1
H	-2.096536	1.367886	-1.351782	1
H	-2.198236	0.450116	0.154438	1
H	0.158574	0.497036	-1.817032	1
H	-0.157556	1.744786	1.015028	1
H	0.810224	2.364676	-0.342052	1
H	2.393894	0.454656	-0.189922	1
H	1.845764	0.365226	1.497468	1
H	-0.690376	-0.560284	1.863578	1
H	0.398254	-1.949904	1.796798	1
H	-1.090036	-1.948574	0.839908	1
H	1.542354	-1.335474	-1.482262	1
Es	-0.236808	0.428080	-0.791572	99
Es	0.442128	1.456997	0.143775	99
Es	-2.050115	0.454124	-0.159637	99
Es	0.027896	1.641622	0.738623	99
Es	-0.267838	-1.319751	1.197557	99
Es	1.510740	0.393292	0.456691	99
Es	-1.752563	0.461669	-0.844156	99
Es	0.188805	-1.739592	1.599215	99
Es	1.035526	-1.769688	-0.775571	99
Es	1.063448	-0.204801	0.279692	99
Es	0.051068	1.010817	-0.349197	99
Es	1.743776	0.369703	1.170466	99
Es	-1.981647	1.081650	-1.190284	99
Es	-1.003718	0.438544	-0.814809	99
Es	-2.012706	-0.125743	-1.221871	99
Es	-0.550943	-0.793227	1.643063	99
Es	0.839418	-1.356579	-0.487465	99
Es	1.236975	-1.916415	-0.599619	99
Es	0.692366	2.081862	-0.188074	99
Es	0.488140	-0.700538	0.027623	99
Es	2.104174	0.431364	0.000436	99
Es	1.306282	-1.519569	-1.153449	99
Es	0.049117	0.468983	-1.489138	99
Es	0.059910	-0.192865	-0.418358	99
Es	0.099290	-1.000497	0.613626	99
Es	1.026585	0.988649	0.341667	99
Es	-0.825668	-1.740730	0.951551	99
Es	0.797789	-1.911295	-0.908468	99
47
Properties=species:S:1:pos:R:3:Z:I:1 energy=-309.1370574950566 field_type=dipole dipole="0.000000 0.000000 0.000000" charge=0
C	-1.752576	0.461666	-0.844152	6
C	-0.236806	0.428066	-0.791612	6
C	0.442104	1.457056	0.143788	6
C	1.510784	0.393266	0.456708	6
C	0.488054	-0.700414	0.027738	6
C	-0.267846	-1.319784	1.197578	6
O	1.035454	-1.770064	-0.775532	8
H	-2.135496	-0.399944	-1.398682	1
H	-2.096536	1.367886	-1.351782	1
H	-2.198236	0.450116	0.154438	1
H	0.158574	0.497036	-1.817032	1
H	-0.157556	1.744786	1.015028	1
H	0.810224	2.364676	-0.342052	1
H	2.393894	0.454656	-0.189922	1
H	1.845764	0.365226	1.497468	1
H	-0.690376	-0.560284	1.863578	1
H	0.398254	-1.949904	1.796798	1
H	-1.090036	-1.948574	0.839908	1
H	1.542354	-1.335474	-1.482262	1
Es	1.035520	-1.769745	-0.775532	99
Es	0.442128	1.456994	0.143775	99
Es	-1.752553	0.461666	-0.844156	99
Es	0.027913	1.641660	0.738509	99
Es	-2.012800	-0.125691	-1.221943	99
Es	-2.050057	0.454011	-0.159744	99
Es	0.051100	1.010778	-0.349203	99
Es	-0.825704	-1.740621	0.951607	99
Es	0.188819	-1.739689	1.599164	99
Es	-0.550867	-0.793240	1.643104	99
Es	1.026562	0.988708	0.341623	99
Es	0.797870	-1.906826	-0.910029	99
Es	0.488141	-0.700539	0.027623	99
Es	-0.236808	0.428080	-0.791571	99
Es	0.692353	2.081844	-0.188049	99
Es	1.307866	-1.519696	-1.152571	99
Es	0.839749	-1.356602	-0.486772	99
Es	0.099330	-1.000481	0.613626	99
Es	2.104146	0.431348	0.000573	99
Es	-1.003640	0.438483	-0.814780	99
Es	1.234959	-1.920683	-0.599676	99
Es	1.510746	0.393293	0.456686	99
Es	1.743715	0.369762	1.170581	99
Es	-0.267843	-1.319757	1.197557	99
Es	0.049071	0.468948	-1.489125	99
Es	-1.981698	1.081743	-1.190114	99
Es	1.063571	-0.204864	0.279579	99
Es	0.059842	-0.192817	-0.418425	99
47
Properties=species:S:1:pos:R:3:Z:I:1 energy=-309.1370574950566 field_type=dipole dipole="0.000000 0.000000 0.000000" charge=0
C	-1.752576	0.461666	-0.844152	6
C	-0.236806	0.428066	-0.791612	6
C	0.442104	1.457056	0.143788	6
C	1.510784	0.393266	0.456708	6
C	0.488054	-0.700414	0.027738	6
C	-0.267846	-1.319784	1.197578	6
O	1.035454	-1.770064	-0.775532	8
H	-2.135496	-0.399944	-1.398682	1
H	-2.096536	1.367886	-1.351782	1
H	-2.198236	0.450116	0.154438	1
H	0.158574	0.497036	-1.817032	1
H	-0.157556	1.744786	1.015028	1
H	0.810224	2.364676	-0.342052	1
H	2.393894	0.454656	-0.189922	1
H	1.845764	0.365226	1.497468	1
H	-0.690376	-0.560284	1.863578	1
H	0.398254	-1.949904	1.796798	1
H	-1.090036	-1.948574	0.839908	1
H	1.542354	-1.335474	-1.482262	1
Es	1.026589	0.988813	0.341684	99
Es	1.035315	-1.769642	-0.775732	99
Es	1.306156	-1.519667	-1.153969	99
Es	0.692318	2.081822	-0.188013	99
Es	1.743742	0.369712	1.170471	99
Es	0.188738	-1.739548	1.599219	99
Es	-0.267837	-1.319751	1.197558	99
Es	-2.050148	0.454064	-0.159726	99
Es	0.442127	1.456995	0.143775	99
Es	-0.550925	-0.793267	1.643067	99
Es	-2.012755	-0.125703	-1.221964	99
Es	0.027974	1.641674	0.738497	99
Es	0.798990	-1.911296	-0.907743	99
Es	-1.003601	0.438535	-0.814782	99
Es	0.838775	-1.356611	-0.487243	99
Es	1.236750	-1.916330	-0.599907	99
Es	-0.825665	-1.740746	0.951649	99
Es	1.063563	-0.204891	0.279621	99
Es	1.510742	0.393292	0.456690	99
Es	0.049040	0.468941	-1.489080	99
Es	-1.981671	1.081636	-1.190141	99
Es	0.099408	-1.000486	0.613512	99
Es	-1.752562	0.461666	-0.844156	99
Es	0.059858	-0.192864	-0.418422	99
Es	0.488140	-0.700538	0.027623	99
Es	0.051037	1.010825	-0.349225	99
Es	-0.236808	0.428080	-0.791570	99
Es	2.104136	0.431348	0.000620	99
47
Properties=species:S:1:pos:R:3:Z:I:1 energy=-309.1370574950566 field_type=dipole dipole="0.000000 0.000000 0.000000" charge=0
C	-1.752576	0.461666	-0.844152	6
C	-0.236806	0.428066	-0.791612	6
C	0.442104	1.457056	0.143788	6
C	1.510784	0.393266	0.456708	6
C	0.488054	-0.700414	0.027738	6
C	-0.267846	-1.319784	1.197578	6
O	1.035454	-1.770064	-0.775532	8
H	-2.135496	-0.399944	-1.398682	1
H	-2.096536	1.367886	-1.351782	1
H	-2.198236	0.450116	0.154438	1
H	0.158574	0.497036	-1.817032	1
H	-0.157556	1.744786	1.015028	1
H	0.810224	2.364676	-0.342052	1
H	2.393894	0.454656	-0.189922	1
H	1.845764	0.365226	1.497468	1
H	-0.690376	-0.560284	1.863578	1
H	0.398254	-1.949904	1.796798	1
H	-1.090036	-1.948574	0.839908	1
H	1.542354	-1.335474	-1.482262	1
Es	0.028016	1.641814	0.738431	99
Es	0.839833	-1.356384	-0.487005	99
Es	-2.050167	0.453994	-0.159778	99
Es	0.692293	2.081717	-0.188070	99
Es	1.510739	0.393292	0.456688	99
Es	-0.550952	-0.793260	1.643090	99
Es	-2.012705	-0.125659	-1.221922	99
Es	-0.825635	-1.740753	0.951628	99
Es	1.035451	-1.769677	-0.775602	99
Es	2.104097	0.431363	0.000649	99
Es	0.049032	0.468950	-1.489008	99
Es	1.305237	-1.519911	-1.154572	99
Es	-1.752559	0.461667	-0.844156	99
Es	1.743791	0.369673	1.170389	99
Es	0.797954	-1.911595	-0.907234	99
Es	-1.981759	1.081653	-1.190160	99
Es	1.237522	-1.915976	-0.600183	99
Es	-0.236804	0.428081	-0.791571	99
Es	0.099380	-1.000482	0.613532	99
Es	1.026630	0.988910	0.341840	99
Es	0.059874	-0.192893	-0.418430	99
Es	0.442127	1.456996	0.143777	99
Es	0.050985	1.010773	-0.349213	99
Es	0.188763	-1.739557	1.599194	99
Es	0.488141	-0.700537	0.027624	99
Es	-0.267839	-1.319752	1.197560	99
Es	-1.003564	0.438565	-0.814808	99
Es	1.063547	-0.204947	0.279623	99
47
Properties=species:S:1:pos:R:3:Z:I:1 energy=-309.1370574950566 field_type=dipole dipole="0.000000 0.000000 0.000000" charge=0
C	-1.752576	0.461666	-0.844152	6
C	-0.236806	0.428066	-0.791612	6
C	0.442104	1.457056	0.143788	6
C	1.510784	0.393266	0.456708	6
C	0.488054	-0.700414	0.027738	6
C	-0.267846	-1.319784	1.197578	6
O	1.035454	-1.770064	-0.775532	8
H	-2.135496	-0.399944	-1.398682	1
H	-2.096536	1.367886	-1.351782	1
H	-2.198236	0.450116	0.154438	1
H	0.158574	0.497036	-1.817032	1
H	-0.157556	1.744786	1.015028	1
H	0.810224	2.364676	-0.342052	1
H	2.393894	0.454656	-0.189922	1
H	1.845764	0.365226	1.497468	1
H	-0.690376	-0.560284	1.863578	1
H	0.398254	-1.949904	1.796798	1
H	-1.090036	-1.948574	0.839908	1
H	1.542354	-1.335474	-1.482262	1
Es	0.059902	-0.192922	-0.418529	99
Es	1.236158	-1.919026	-0.600084	99
Es	0.839444	-1.356581	-0.486614	99
Es	0.692234	2.081774	-0.187910	99
Es	0.488140	-0.700536	0.027625	99
Es	1.306369	-1.519747	-1.153829	99
Es	1.035563	-1.769691	-0.775579	99
Es	1.063581	-0.205000	0.279573	99
Es	0.028036	1.641702	0.738371	99
Es	-1.752564	0.461666	-0.844154	99
Es	2.104084	0.431306	0.000721	99
Es	-0.825698	-1.740679	0.951656	99
Es	-1.981733	1.081612	-1.190139	99
Es	0.099414	-1.000455	0.613568	99
Es	-0.267836	-1.319752	1.197560	99
Es	-0.550875	-0.793270	1.643092	99
Es	1.743785	0.369708	1.170357	99
Es	-2.050117	0.454118	-0.159842	99
Es	0.798422	-1.908520	-0.908477	99
Es	-2.012814	-0.125740	-1.221890	99
Es	0.188736	-1.739615	1.599192	99
Es	0.048949	0.468943	-1.488953	99
Es	0.442128	1.456993	0.143773	99
Es	-0.236812	0.428080	-0.791569	99
Es	1.026685	0.988973	0.341784	99
Es	0.051026	1.010893	-0.349283	99
Es	-1.003519	0.438538	-0.814794	99
Es	1.510741	0.393291	0.456689	99
47
Properties=species:S:1:pos:R:3:Z:I:1 energy=-309.1370574950566 field_type=dipole dipole="0.000000 0.000000 0.000000" charge=0
C	-1.752576	0.461666	-0.844152	6
C	-0.236806	0.428066	-0.791612	6
C	0.442104	1.457056	0.143788	6
C	1.510784	0.393266	0.456708	6
C	0.488054	-0.700414	0.027738	6
C	-0.267846	-1.319784	1.197578	6
O	1.035454	-1.770064	-0.775532	8
H	-2.135496	-0.399944	-1.398682	1
H	-2.096536	1.367886	-1.351782	1
H	-2.198236	0.450116	0.154438	1
H	0.158574	0.497036	-1.817032	1
H	-0.157556	1.744786	1.015028	1
H	0.810224	2.364676	-0.342052	1
H	2.393894	0.454656	-0.189922	1
H	1.845764	0.365226	1.497468	1
H	-0.690376	-0.560284	1.863578	1
H	0.398254	-1.949904	1.796798	1
H	-1.090036	-1.948574	0.839908	1
H	1.542354	-1.335474	-1.482262	1
Es	0.799658	-1.911397	-0.906401	99
Es	-1.003489	0.438506	-0.814849	99
Es	-2.050108	0.454066	-0.159844	99
Es	1.063642	-0.205032	0.279753	99
Es	-1.981757	1.081659	-1.190144	99
Es	1.026739	0.989048	0.341825	99
Es	1.303908	-1.519630	-1.155475	99
Es	0.048967	0.468930	-1.488939	99
Es	0.488142	-0.700531	0.027629	99
Es	0.059853	-0.192905	-0.418527	99
Es	2.104079	0.431301	0.000775	99
Es	-0.825627	-1.740701	0.951684	99
Es	0.692195	2.081725	-0.187846	99
Es	1.743784	0.369649	1.170302	99
Es	-2.012791	-0.125708	-1.221876	99
Es	0.028070	1.641729	0.738349	99
Es	0.838485	-1.356633	-0.486556	99
Es	0.442128	1.456994	0.143774	99
Es	-0.550952	-0.793304	1.643050	99
Es	0.050944	1.010949	-0.349306	99
Es	1.510741	0.393292	0.456690	99
Es	1.035538	-1.769709	-0.775554	99
Es	-0.267837	-1.319746	1.197562	99
Es	-1.752561	0.461666	-0.844157	99
Es	1.238373	-1.916187	-0.600592	99
Es	0.188721	-1.739586	1.599249	99
Es	-0.236808	0.428080	-0.791569	99
Es	0.099393	-1.000458	0.613309	99
47
Properties=species:S:1:pos:R:3:Z:I:1 energy=-309.1370574950566 field_type=dipole dipole="0.000000 0.000000 0.000000" charge=0
C	-1.752576	0.461666	-0.844152	6
C	-0.236806	0.428066	-0.791612	6
C	0.442104	1.457056	0.143788	6
C	1.510784	0.393266	0.456708	6
C	0.488054	-0.700414	0.027738	6
C	-0.267846	-1.319784	1.197578	6
O	1.035454	-1.770064	-0.775532	8
H	-2.135496	-0.399944	-1.398682	1
H	-2.096536	1.367886	-1.351782	1
H	-2.198236	0.450116	0.154438	1
H	0.158574	0.497036	-1.817032	1
H	-0.157556	1.744786	1.015028	1
H	0.810224	2.364676	-0.342052	1
H	2.393894	0.454656	-0.189922	1
H	1.845764	0.365226	1.497468	1
H	-0.690376	-0.560284	1.863578	1
H	0.398254	-1.949904	1.796798	1
H	-1.090036	-1.948574	0.839908	1
H	1.542354	-1.335474	-1.482262	1
Es	2.104039	0.431302	0.000818	99
Es	1.234297	-1.920833	-0.600416	99
Es	0.692156	2.081715	-0.187808	99
Es	0.099414	-1.000465	0.613474	99
Es	-0.550928	-0.793289	1.643034	99
Es	0.442126	1.456992	0.143771	99
Es	0.050944	1.011014	-0.349323	99
Es	1.026752	0.989075	0.341853	99
Es	0.059836	-0.192940	-0.418521	99
Es	1.743819	0.369681	1.170241	99
Es	1.510740	0.393292	0.456690	99
Es	-1.752562	0.461666	-0.844156	99
Es	-0.236808	0.428080	-0.791569	99
Es	1.063630	-0.205069	0.279648	99
Es	0.839685	-1.356514	-0.486066	99
Es	-2.012792	-0.125654	-1.221881	99
Es	0.048949	0.468903	-1.488896	99
Es	1.035528	-1.769780	-0.775561	99
Es	0.188766	-1.739568	1.599251	99
Es	-1.981751	1.081652	-1.190140	99
Es	-0.267838	-1.319751	1.197558	99
Es	-0.825660	-1.740719	0.951666	99
Es	1.307976	-1.520045	-1.153092	99
Es	0.028078	1.641730	0.738296	99
Es	-2.050144	0.454046	-0.159838	99
Es	-1.003468	0.438463	-0.814879	99
Es	0.798504	-1.906382	-0.909461	99
Es	0.488140	-0.700535	0.027625	99
47
Properties=species:S:1:pos:R:3:Z:I:1 energy=-309.1370574950566 field_type=dipole dipole="0.000000 0.000000 0.000000" charge=0
C	-1.752576	0.461666	-0.844152	6
C	-0.236806	0.428066	-0.791612	6
C	0.442104	1.457056	0.143788	6
C	1.510784	0.393266	0.456708	6
C	0.488054	-0.700414	0.027738	6
C	-0.267846	-1.319784	1.197578	6
O	1.035454	-1.770064	-0.775532	8
H	-2.135496	-0.399944	-1.398682	1
H	-2.096536	1.367886	-1.351782	1
H	-2.198236	0.450116	0.154438	1
H	0.158574	0.497036	-1.817032	1
H	-0.157556	1.744786	1.015028	1
H	0.810224	2.364676	-0.342052	1
H	2.393894	0.454656	-0.189922	1
H	1.845764	0.365226	1.497468	1
H	-0.690376	-0.560284	1.863578	1
H	0.398254	-1.949904	1.796798	1
H	-1.090036	-1.948574	0.839908	1
H	1.542354	-1.335474	-1.482262	1
Es	0.488139	-0.700532	0.027628	99
Es	-1.981765	1.081664	-1.190142	99
Es	0.799060	-1.911564	-0.907153	99
Es	0.188712	-1.739567	1.599238	99
Es	1.026806	0.989148	0.341847	99
Es	0.838728	-1.356405	-0.486801	99
Es	1.510743	0.393292	0.456692	99
Es	-1.752561	0.461666	-0.844156	99
Es	1.305509	-1.520042	-1.154696	99
Es	-1.003418	0.438464	-0.814894	99
Es	0.050926	1.011089	-0.349452	99
Es	0.028127	1.641764	0.738276	99
Es	0.099449	-1.000417	0.613495	99
Es	0.692141	2.081663	-0.187750	99
Es	-2.050142	0.454051	-0.159881	99
Es	1.743826	0.369727	1.170148	99
Es	0.048935	0.468788	-1.488868	99
Es	1.035510	-1.769769	-0.775572	99
Es	-0.236808	0.428080	-0.791569	99
Es	-0.550975	-0.793308	1.643070	99
Es	-0.267839	-1.319751	1.197562	99
Es	-0.825612	-1.740729	0.951639	99
Es	0.059828	-0.192937	-0.418447	99
Es	1.237146	-1.915791	-0.600366	99
Es	-2.012825	-0.125629	-1.221847	99
Es	1.063621	-0.205141	0.279670	99
Es	0.442128	1.456993	0.143775	99
Es	2.104038	0.431260	0.000869	99
