41
Properties=species:S:1:pos:R:3:Z:I:1 energy=-306.82127625049895 field_type=dipole dipole="0.000000 0.000000 0.000000" charge=0
C	-2.092426	-0.045789	0.112666	6
C	-0.606256	-0.071019	0.033176	6
C	0.171484	-1.159679	-0.024314	6
C	1.629823	-0.847289	-0.099094	6
C	1.575214	0.662971	-0.080894	6
O	2.574904	1.374731	-0.133044	8
C	0.169194	1.210371	0.009366	6
H	-2.513786	-1.056309	0.108406	1
H	-2.510276	0.496731	-0.741144	1
H	-2.416246	0.450851	1.032636	1
H	-0.199576	-2.177009	-0.018744	1
H	2.165814	-1.221289	0.775486	1
H	2.069224	-1.203119	-1.033064	1
H	-0.060836	1.807891	-0.875544	1
H	0.043744	1.777961	0.934106	1
Es	-0.606339	-0.070887	0.033183	99
Es	0.865777	0.948385	-0.035221	99
Es	0.910436	-1.044609	-0.062627	99
Es	-2.374050	-0.732417	0.109692	99
Es	0.169216	1.210314	0.009364	99
Es	2.842409	1.208414	-0.150160	99
Es	-0.249969	0.592236	0.023538	99
Es	1.987043	-1.088049	0.483994	99
Es	2.230865	1.117425	0.137201	99
Es	-2.092386	-0.045783	0.112664	99
Es	0.171579	-1.159763	-0.024322	99
Es	1.629768	-0.847249	-0.099090	99
Es	-2.362812	0.324624	-0.464719	99
Es	-0.198098	-0.634795	0.333366	99
Es	1.608813	-0.100964	-0.090412	99
Es	-1.351101	-0.061359	0.073055	99
Es	2.574662	1.374560	-0.133027	99
Es	1.922731	-1.076199	-0.721551	99
Es	1.575199	0.662964	-0.080894	99
Es	2.506731	1.682978	-0.126317	99
Es	-2.299194	0.293610	0.733563	99
Es	0.089477	1.583779	0.625312	99
Es	-0.233454	-0.625431	-0.325297	99
Es	-0.076831	-1.854550	-0.020784	99
Es	2.201944	1.122186	-0.366117	99
Es	0.019556	1.603880	-0.580598	99
41
Properties=species:S:1:pos:R:3:Z:I:1 energy=-306.82127625049895 field_type=dipole dipole="0.000000 0.000000 0.000000" charge=0
C	-2.092426	-0.045789	0.112666	6
C	-0.606256	-0.071019	0.033176	6
C	0.171484	-1.159679	-0.024314	6
C	1.629823	-0.847289	-0.099094	6
C	1.575214	0.662971	-0.080894	6
O	2.574904	1.374731	-0.133044	8
C	0.169194	1.210371	0.009366	6
H	-2.513786	-1.056309	0.108406	1
H	-2.510276	0.496731	-0.741144	1
H	-2.416246	0.450851	1.032636	1
H	-0.199576	-2.177009	-0.018744	1
H	2.165814	-1.221289	0.775486	1
H	2.069224	-1.203119	-1.033064	1
H	-0.060836	1.807891	-0.875544	1
H	0.043744	1.777961	0.934106	1
Es	2.231691	1.117195	0.137454	99
Es	-0.606332	-0.070894	0.033185	99
Es	2.842340	1.208445	-0.151198	99
Es	-1.351094	-0.061323	0.072982	99
Es	2.574657	1.374564	-0.133035	99
Es	-0.076790	-1.854535	-0.020750	99
Es	-0.249856	0.592131	0.023346	99
Es	0.865741	0.948527	-0.034977	99
Es	0.171579	-1.159763	-0.024332	99
Es	-0.233670	-0.625506	-0.325016	99
Es	1.575199	0.662964	-0.080896	99
Es	0.019777	1.603883	-0.580624	99
Es	-2.362851	0.324617	-0.464683	99
Es	1.922736	-1.076168	-0.721532	99
Es	-2.374085	-0.732426	0.109732	99
Es	1.987096	-1.088020	0.483980	99
Es	1.629769	-0.847250	-0.099090	99
Es	-2.299176	0.293607	0.733509	99
Es	-2.092386	-0.045783	0.112664	99
Es	2.200933	1.122662	-0.366028	99
Es	-0.198102	-0.634841	0.333271	99
Es	0.089343	1.583811	0.625221	99
Es	0.910470	-1.044603	-0.062687	99
Es	0.169217	1.210315	0.009366	99
Es	2.506976	1.682690	-0.125597	99
Es	1.608788	-0.101000	-0.090471	99
41
Properties=species:S:1:pos:R:3:Z:I:1 energy=-306.82127625049895 field_type=dipole dipole="0.000000 0.000000 0.000000" charge=0
C	-2.092426	-0.045789	0.112666	6
C	-0.606256	-0.071019	0.033176	6
C	0.171484	-1.159679	-0.024314	6
C	1.629823	-0.847289	-0.099094	6
C	1.575214	0.662971	-0.080894	6
O	2.574904	1.374731	-0.133044	8
C	0.169194	1.210371	0.009366	6
H	-2.513786	-1.056309	0.108406	1
H	-2.510276	0.496731	-0.741144	1
H	-2.416246	0.450851	1.032636	1
H	-0.199576	-2.177009	-0.018744	1
H	2.165814	-1.221289	0.775486	1
H	2.069224	-1.203119	-1.033064	1
H	-0.060836	1.807891	-0.875544	1
H	0.043744	1.777961	0.934106	1
Es	-0.249853	0.592246	0.023454	99
Es	2.201424	1.122003	-0.367894	99
Es	0.169216	1.210313	0.009364	99
Es	1.575199	0.662964	-0.080895	99
Es	-0.606339	-0.070887	0.033193	99
Es	0.089513	1.583784	0.625249	99
Es	0.910443	-1.044645	-0.062583	99
Es	1.608820	-0.101046	-0.090424	99
Es	-0.076860	-1.854521	-0.020796	99
Es	0.019626	1.603922	-0.580565	99
Es	0.171579	-1.159762	-0.024321	99
Es	-2.374086	-0.732404	0.109719	99
Es	-2.092386	-0.045783	0.112664	99
Es	2.844709	1.212274	-0.150364	99
Es	-0.233558	-0.625450	-0.324843	99
Es	0.865756	0.948475	-0.035137	99
Es	2.503589	1.680434	-0.124323	99
Es	-2.299157	0.293580	0.733530	99
Es	2.232212	1.116265	0.137167	99
Es	1.922776	-1.076147	-0.721536	99
Es	-0.198119	-0.634836	0.333047	99
Es	-2.362834	0.324665	-0.464730	99
Es	1.987096	-1.087980	0.483934	99
Es	-1.351232	-0.061462	0.073004	99
Es	2.574665	1.374551	-0.133033	99
Es	1.629771	-0.847252	-0.099087	99
41
Properties=species:S:1:pos:R:3:Z:I:1 energy=-306.82127625049895 field_type=dipole dipole="0.000000 0.000000 0.000000" charge=0
C	-2.092426	-0.045789	0.112666	6
C	-0.606256	-0.071019	0.033176	6
C	0.171484	-1.159679	-0.024314	6
C	1.629823	-0.847289	-0.099094	6
C	1.575214	0.662971	-0.080894	6
O	2.574904	1.374731	-0.133044	8
C	0.169194	1.210371	0.009366	6
H	-2.513786	-1.056309	0.108406	1
H	-2.510276	0.496731	-0.741144	1
H	-2.416246	0.450851	1.032636	1
H	-0.199576	-2.177009	-0.018744	1
H	2.165814	-1.221289	0.775486	1
H	2.069224	-1.203119	-1.033064	1
H	-0.060836	1.807891	-0.875544	1
H	0.043744	1.777961	0.934106	1
Es	0.171580	-1.159763	-0.024323	99
Es	0.865665	0.948488	-0.035063	99
Es	-0.076982	-1.854499	-0.020758	99
Es	0.910526	-1.044659	-0.062580	99
Es	1.922869	-1.076173	-0.721512	99
Es	-1.351252	-0.061583	0.073058	99
Es	-0.606338	-0.070889	0.033183	99
Es	0.019743	1.603885	-0.580620	99
Es	1.575201	0.662965	-0.080888	99
Es	-0.249923	0.592279	0.023508	99
Es	2.842202	1.208540	-0.150831	99
Es	2.201560	1.122895	-0.366276	99
Es	2.230985	1.116984	0.137369	99
Es	1.629769	-0.847250	-0.099090	99
Es	-2.299126	0.293662	0.733473	99
Es	-0.233415	-0.625424	-0.324783	99
Es	-2.374124	-0.732421	0.109815	99
Es	2.574610	1.374548	-0.133029	99
Es	0.169216	1.210313	0.009365	99
Es	0.089509	1.583861	0.625217	99
Es	-2.362823	0.324611	-0.464760	99
Es	-2.092387	-0.045783	0.112664	99
Es	1.608903	-0.101085	-0.090378	99
Es	-0.198201	-0.634798	0.332770	99
Es	2.507212	1.682570	-0.125702	99
Es	1.986997	-1.087976	0.483962	99
41
Properties=species:S:1:pos:R:3:Z:I:1 energy=-306.82127625049895 field_type=dipole dipole="0.000000 0.000000 0.000000" charge=0
C	-2.092426	-0.045789	0.112666	6
C	-0.606256	-0.071019	0.033176	6
C	0.171484	-1.159679	-0.024314	6
C	1.629823	-0.847289	-0.099094	6
C	1.575214	0.662971	-0.080894	6
O	2.574904	1.374731	-0.133044	8
C	0.169194	1.210371	0.009366	6
H	-2.513786	-1.056309	0.108406	1
H	-2.510276	0.496731	-0.741144	1
H	-2.416246	0.450851	1.032636	1
H	-0.199576	-2.177009	-0.018744	1
H	2.165814	-1.221289	0.775486	1
H	2.069224	-1.203119	-1.033064	1
H	-0.060836	1.807891	-0.875544	1
H	0.043744	1.777961	0.934106	1
Es	0.171577	-1.159758	-0.024321	99
Es	2.200960	1.121606	-0.366120	99
Es	0.019706	1.603920	-0.580578	99
Es	1.629769	-0.847251	-0.099090	99
Es	-0.606343	-0.070885	0.033180	99
Es	0.865651	0.948531	-0.035145	99
Es	2.507356	1.682545	-0.126661	99
Es	-0.233468	-0.625448	-0.324606	99
Es	-2.374075	-0.732394	0.109689	99
Es	-0.198180	-0.634792	0.332596	99
Es	-0.249848	0.592363	0.023526	99
Es	-2.362781	0.324631	-0.464752	99
Es	-2.092387	-0.045783	0.112664	99
Es	-2.299194	0.293615	0.733571	99
Es	-0.077056	-1.854482	-0.020804	99
Es	0.169215	1.210313	0.009364	99
Es	2.841850	1.208751	-0.150453	99
Es	2.574648	1.374547	-0.133050	99
Es	0.089541	1.583829	0.625258	99
Es	0.910481	-1.044695	-0.062576	99
Es	1.608998	-0.101112	-0.090498	99
Es	-1.351277	-0.061646	0.073149	99
Es	1.987184	-1.088039	0.483891	99
Es	2.231745	1.118070	0.137903	99
Es	1.575200	0.662966	-0.080900	99
Es	1.922699	-1.076100	-0.721447	99
41
Properties=species:S:1:pos:R:3:Z:I:1 energy=-306.82127625049895 field_type=dipole dipole="0.000000 0.000000 0.000000" charge=0
C	-2.092426	-0.045789	0.112666	6
C	-0.606256	-0.071019	0.033176	6
C	0.171484	-1.159679	-0.024314	6
C	1.629823	-0.847289	-0.099094	6
C	1.575214	0.662971	-0.080894	6
O	2.574904	1.374731	-0.133044	8
C	0.169194	1.210371	0.009366	6
H	-2.513786	-1.056309	0.108406	1
H	-2.510276	0.496731	-0.741144	1
H	-2.416246	0.450851	1.032636	1
H	-0.199576	-2.177009	-0.018744	1
H	2.165814	-1.221289	0.775486	1
H	2.069224	-1.203119	-1.033064	1
H	-0.060836	1.807891	-0.875544	1
H	0.043744	1.777961	0.934106	1
Es	1.608926	-0.101162	-0.090433	99
Es	-2.374110	-0.732389	0.109713	99
Es	1.922824	-1.076101	-0.721486	99
Es	2.508449	1.682856	-0.126034	99
Es	-2.299145	0.293614	0.733563	99
Es	-0.198201	-0.634797	0.332464	99
Es	0.089567	1.583817	0.625219	99
Es	-0.606338	-0.070889	0.033183	99
Es	2.201422	1.122284	-0.366925	99
Es	0.910594	-1.044730	-0.062581	99
Es	2.841049	1.208209	-0.149877	99
Es	0.171579	-1.159761	-0.024320	99
Es	1.987124	-1.087956	0.483929	99
Es	-2.092387	-0.045783	0.112664	99
Es	0.019670	1.603931	-0.580534	99
Es	-2.362798	0.324653	-0.464742	99
Es	2.230968	1.117702	0.137436	99
Es	-0.233455	-0.625430	-0.324363	99
Es	-0.249808	0.592309	0.023483	99
Es	-1.351363	-0.061720	0.073036	99
Es	1.629769	-0.847251	-0.099090	99
Es	2.574650	1.374473	-0.133032	99
Es	0.169216	1.210313	0.009364	99
Es	-0.077102	-1.854461	-0.020783	99
Es	1.575200	0.662964	-0.080893	99
Es	0.865674	0.948605	-0.035167	99
41
Properties=species:S:1:pos:R:3:Z:I:1 energy=-306.82127625049895 field_type=dipole dipole="0.000000 0.000000 0.000000" charge=0
C	-2.092426	-0.045789	0.112666	6
C	-0.606256	-0.071019	0.033176	6
C	0.171484	-1.159679	-0.024314	6
C	1.629823	-0.847289	-0.099094	6
C	1.575214	0.662971	-0.080894	6
O	2.574904	1.374731	-0.133044	8
C	0.169194	1.210371	0.009366	6
H	-2.513786	-1.056309	0.108406	1
H	-2.510276	0.496731	-0.741144	1
H	-2.416246	0.450851	1.032636	1
H	-0.199576	-2.177009	-0.018744	1
H	2.165814	-1.221289	0.775486	1
H	2.069224	-1.203119	-1.033064	1
H	-0.060836	1.807891	-0.875544	1
H	0.043744	1.777961	0.934106	1
Es	-1.351453	-0.061796	0.072825	99
Es	-0.233469	-0.625364	-0.323874	99
Es	-2.362766	0.324595	-0.464730	99
Es	0.019645	1.603979	-0.580508	99
Es	-2.299156	0.293680	0.733590	99
Es	2.201143	1.121955	-0.366125	99
Es	0.089543	1.583761	0.625208	99
Es	2.231812	1.117273	0.137751	99
Es	2.842339	1.209502	-0.150880	99
Es	-0.606332	-0.070889	0.033185	99
Es	1.629769	-0.847251	-0.099091	99
Es	0.910664	-1.044730	-0.062694	99
Es	2.574565	1.374587	-0.133026	99
Es	2.506676	1.682175	-0.126074	99
Es	1.987080	-1.087998	0.483902	99
Es	1.575202	0.662966	-0.080886	99
Es	0.171579	-1.159763	-0.024320	99
Es	0.865667	0.948694	-0.035187	99
Es	1.922865	-1.076077	-0.721467	99
Es	-0.198105	-0.634838	0.332436	99
Es	-0.077260	-1.854421	-0.020961	99
Es	-0.249765	0.592301	0.023418	99
Es	1.609018	-0.101179	-0.090439	99
Es	-2.092387	-0.045783	0.112664	99
Es	0.169216	1.210311	0.009365	99
Es	-2.374118	-0.732392	0.109713	99
41
Properties=species:S:1:pos:R:3:Z:I:1 energy=-306.82127625049895 field_type=dipole dipole="0.000000 0.000000 0.000000" charge=0
C	-2.092426	-0.045789	0.112666	6
C	-0.606256	-0.071019	0.033176	6
C	0.171484	-1.159679	-0.024314	6
C	1.629823	-0.847289	-0.099094	6
C	1.575214	0.662971	-0.080894	6
O	2.574904	1.374731	-0.133044	8
C	0.169194	1.210371	0.009366	6
H	-2.513786	-1.056309	0.108406	1
H	-2.510276	0.496731	-0.741144	1
H	-2.416246	0.450851	1.032636	1
H	-0.199576	-2.177009	-0.018744	1
H	2.165814	-1.221289	0.775486	1
H	2.069224	-1.203119	-1.033064	1
H	-0.060836	1.807891	-0.875544	1
H	0.043744	1.777961	0.934106	1
Es	0.171578	-1.159761	-0.024322	99
Es	2.201533	1.121994	-0.366289	99
Es	1.629770	-0.847251	-0.099087	99
Es	0.910624	-1.044725	-0.062670	99
Es	0.019703	1.604013	-0.580564	99
Es	1.987086	-1.087942	0.483945	99
Es	2.505713	1.681892	-0.125771	99
Es	0.089641	1.583780	0.625179	99
Es	1.922896	-1.076101	-0.721434	99
Es	1.609026	-0.101225	-0.090470	99
Es	-0.233492	-0.625457	-0.324008	99
Es	0.169216	1.210312	0.009364	99
Es	2.231805	1.116651	0.137674	99
Es	-1.351447	-0.061857	0.073032	99
Es	0.865563	0.948704	-0.035123	99
Es	1.575200	0.662965	-0.080896	99
Es	-2.362728	0.324705	-0.464693	99
Es	2.842772	1.210377	-0.150989	99
Es	-0.606335	-0.070890	0.033185	99
Es	-2.092388	-0.045782	0.112666	99
Es	-2.374137	-0.732342	0.109566	99
Es	-0.198311	-0.634826	0.332182	99
Es	2.574693	1.374567	-0.133032	99
Es	-0.077149	-1.854398	-0.020814	99
Es	-2.299193	0.293561	0.733647	99
Es	-0.249667	0.592337	0.023516	99
41
Properties=species:S:1:pos:R:3:Z:I:1 energy=-306.82127625049895 field_type=dipole dipole="0.000000 0.000000 0.000000" charge=0
C	-2.092426	-0.045789	0.112666	6
C	-0.606256	-0.071019	0.033176	6
C	0.171484	-1.159679	-0.024314	6
C	1.629823	-0.847289	-0.099094	6
C	1.575214	0.662971	-0.080894	6
O	2.574904	1.374731	-0.133044	8
C	0.169194	1.210371	0.009366	6
H	-2.513786	-1.056309	0.108406	1
H	-2.510276	0.496731	-0.741144	1
H	-2.416246	0.450851	1.032636	1
H	-0.199576	-2.177009	-0.018744	1
H	2.165814	-1.221289	0.775486	1
H	2.069224	-1.203119	-1.033064	1
H	-0.060836	1.807891	-0.875544	1
H	0.043744	1.777961	0.934106	1
Es	0.169216	1.210315	0.009366	99
Es	-2.362808	0.324635	-0.464788	99
Es	1.609008	-0.101241	-0.090461	99
Es	2.506480	1.682062	-0.127780	99
Es	0.910696	-1.044794	-0.062573	99
Es	-2.374087	-0.732323	0.109716	99
Es	-0.249710	0.592358	0.023468	99
Es	0.089611	1.583771	0.625195	99
Es	0.171579	-1.159760	-0.024319	99
Es	1.922907	-1.076076	-0.721460	99
Es	2.231853	1.118058	0.138789	99
Es	-1.351490	-0.061952	0.073047	99
Es	1.987116	-1.087901	0.483870	99
Es	2.574670	1.374564	-0.133035	99
Es	-0.198261	-0.634786	0.331950	99
Es	0.019693	1.604009	-0.580491	99
Es	1.629768	-0.847250	-0.099090	99
Es	-0.077253	-1.854412	-0.020780	99
Es	0.865594	0.948758	-0.035232	99
Es	2.201338	1.120946	-0.365385	99
Es	-2.092387	-0.045783	0.112664	99
Es	2.842168	1.209845	-0.150896	99
Es	1.575200	0.662965	-0.080893	99
Es	-0.606337	-0.070889	0.033181	99
Es	-2.299157	0.293610	0.733608	99
Es	-0.233435	-0.625429	-0.323878	99
41
Properties=species:S:1:pos:R:3:Z:I:1 energy=-306.82127625049895 field_type=dipole dipole="0.000000 0.000000 0.000000" charge=0
C	-2.092426	-0.045789	0.112666	6
C	-0.606256	-0.071019	0.033176	6
C	0.171484	-1.159679	-0.024314	6
C	1.629823	-0.847289	-0.099094	6
C	1.575214	0.662971	-0.080894	6
O	2.574904	1.374731	-0.133044	8
C	0.169194	1.210371	0.009366	6
H	-2.513786	-1.056309	0.108406	1
H	-2.510276	0.496731	-0.741144	1
H	-2.416246	0.450851	1.032636	1
H	-0.199576	-2.177009	-0.018744	1
H	2.165814	-1.221289	0.775486	1
H	2.069224	-1.203119	-1.033064	1
H	-0.060836	1.807891	-0.875544	1
H	0.043744	1.777961	0.934106	1
Es	0.171578	-1.159760	-0.024319	99
Es	2.574693	1.374595	-0.133028	99
Es	-0.233429	-0.625449	-0.323619	99
Es	2.506395	1.681685	-0.125498	99
Es	1.575201	0.662965	-0.080896	99
Es	-2.092387	-0.045783	0.112664	99
Es	-2.299163	0.293644	0.733590	99
Es	-0.198290	-0.634758	0.331656	99
Es	1.629767	-0.847250	-0.099090	99
Es	1.922838	-1.076058	-0.721494	99
Es	2.201507	1.122005	-0.367027	99
Es	-0.606336	-0.070893	0.033180	99
Es	0.169216	1.210312	0.009364	99
Es	2.842317	1.210306	-0.150336	99
Es	-0.077305	-1.854411	-0.020750	99
Es	0.019832	1.603920	-0.580574	99
Es	0.910792	-1.044758	-0.062546	99
Es	2.231585	1.116856	0.137505	99
Es	0.865482	0.948755	-0.035101	99
Es	0.089650	1.583918	0.625137	99
Es	-1.351593	-0.062039	0.073103	99
Es	-2.362759	0.324630	-0.464782	99
Es	-0.249712	0.592368	0.023533	99
Es	-2.374116	-0.732352	0.109712	99
Es	1.608986	-0.101269	-0.090471	99
Es	1.987221	-1.087881	0.483879	99
41
Properties=species:S:1:pos:R:3:Z:I:1 energy=-306.82127625049895 field_type=dipole dipole="0.000000 0.000000 0.000000" charge=0
C	-2.092426	-0.045789	0.112666	6
C	-0.606256	-0.071019	0.033176	6
C	0.171484	-1.159679	-0.024314	6
C	1.629823	-0.847289	-0.099094	6
C	1.575214	0.662971	-0.080894	6
O	2.574904	1.374731	-0.133044	8
C	0.169194	1.210371	0.009366	6
H	-2.513786	-1.056309	0.108406	1
H	-2.510276	0.496731	-0.741144	1
H	-2.416246	0.450851	1.032636	1
H	-0.199576	-2.177009	-0.018744	1
H	2.165814	-1.221289	0.775486	1
H	2.069224	-1.203119	-1.033064	1
H	-0.060836	1.807891	-0.875544	1
H	0.043744	1.777961	0.934106	1
Es	2.201395	1.121779	-0.366431	99
Es	-2.299066	0.293665	0.733497	99
Es	-0.077372	-1.854386	-0.020794	99
Es	-0.606336	-0.070892	0.033184	99
Es	1.575200	0.662965	-0.080895	99
Es	-2.374188	-0.732387	0.109821	99
Es	-0.198289	-0.634776	0.331601	99
Es	1.629769	-0.847251	-0.099094	99
Es	2.574662	1.374484	-0.133033	99
Es	2.506102	1.681615	-0.126050	99
Es	-0.249708	0.592340	0.023480	99
Es	2.231727	1.117068	0.137820	99
Es	0.089626	1.583883	0.625113	99
Es	0.171578	-1.159759	-0.024315	99
Es	-1.351608	-0.062076	0.073073	99
Es	1.922881	-1.076037	-0.721411	99
Es	-2.362780	0.324662	-0.464807	99
Es	-2.092388	-0.045783	0.112664	99
Es	0.019793	1.603945	-0.580440	99
Es	2.842583	1.210507	-0.150701	99
Es	1.987185	-1.087903	0.483936	99
Es	0.865595	0.948857	-0.035149	99
Es	-0.233427	-0.625419	-0.323501	99
Es	0.910805	-1.044788	-0.062632	99
Es	1.609015	-0.101321	-0.090510	99
Es	0.169218	1.210306	0.009368	99
41
Properties=species:S:1:pos:R:3:Z:I:1 energy=-306.82127625049895 field_type=dipole dipole="0.000000 0.000000 0.000000" charge=0
C	-2.092426	-0.045789	0.112666	6
C	-0.606256	-0.071019	0.033176	6
C	0.171484	-1.159679	-0.024314	6
C	1.629823	-0.847289	-0.099094	6
C	1.575214	0.662971	-0.080894	6
O	2.574904	1.374731	-0.133044	8
C	0.169194	1.210371	0.009366	6
H	-2.513786	-1.056309	0.108406	1
H	-2.510276	0.496731	-0.741144	1
H	-2.416246	0.450851	1.032636	1
H	-0.199576	-2.177009	-0.018744	1
H	2.165814	-1.221289	0.775486	1
H	2.069224	-1.203119	-1.033064	1
H	-0.060836	1.807891	-0.875544	1
H	0.043744	1.777961	0.934106	1
Es	-2.362761	0.324673	-0.464754	99
Es	2.574694	1.374576	-0.133024	99
Es	-0.198288	-0.634756	0.331433	99
Es	2.841057	1.208855	-0.151215	99
Es	-2.299115	0.293626	0.733596	99
Es	1.609041	-0.101311	-0.090406	99
Es	0.169217	1.210311	0.009365	99
Es	-1.351656	-0.062114	0.073033	99
Es	2.200793	1.122896	-0.366661	99
Es	-0.606336	-0.070892	0.033183	99
Es	0.171583	-1.159763	-0.024326	99
Es	-2.092387	-0.045783	0.112664	99
Es	1.922874	-1.076037	-0.721487	99
Es	0.910822	-1.044853	-0.062489	99
Es	1.987208	-1.087874	0.483811	99
Es	2.508285	1.682216	-0.125279	99
Es	0.089611	1.583865	0.625126	99
Es	2.231638	1.116870	0.137733	99
Es	1.629771	-0.847251	-0.099091	99
Es	-0.077429	-1.854374	-0.020754	99
Es	0.865580	0.948903	-0.035133	99
Es	0.019745	1.603949	-0.580451	99
Es	-0.233410	-0.625408	-0.323364	99
Es	-2.374143	-0.732386	0.109698	99
Es	-0.249623	0.592401	0.023479	99
Es	1.575201	0.662962	-0.080894	99
41
Properties=species:S:1:pos:R:3:Z:I:1 energy=-306.82127625049895 field_type=dipole dipole="0.000000 0.000000 0.000000" charge=0
C	-2.092426	-0.045789	0.112666	6
C	-0.606256	-0.071019	0.033176	6
C	0.171484	-1.159679	-0.024314	6
C	1.629823	-0.847289	-0.099094	6
C	1.575214	0.662971	-0.080894	6
O	2.574904	1.374731	-0.133044	8
C	0.169194	1.210371	0.009366	6
H	-2.513786	-1.056309	0.108406	1
H	-2.510276	0.496731	-0.741144	1
H	-2.416246	0.450851	1.032636	1
H	-0.199576	-2.177009	-0.018744	1
H	2.165814	-1.221289	0.775486	1
H	2.069224	-1.203119	-1.033064	1
H	-0.060836	1.807891	-0.875544	1
H	0.043744	1.777961	0.934106	1
Es	2.574621	1.374546	-0.133042	99
Es	0.171578	-1.159758	-0.024320	99
Es	-0.077435	-1.854350	-0.020734	99
Es	1.922894	-1.076076	-0.721414	99
Es	-0.249616	0.592414	0.023609	99
Es	-2.374168	-0.732374	0.109795	99
Es	1.987182	-1.087857	0.483868	99
Es	1.609152	-0.101370	-0.090571	99
Es	2.232175	1.118163	0.138135	99
Es	2.842520	1.209230	-0.151536	99
Es	0.910835	-1.044788	-0.062579	99
Es	1.575197	0.662962	-0.080893	99
Es	2.199648	1.122542	-0.365947	99
Es	0.019811	1.603924	-0.580495	99
Es	-0.606335	-0.070892	0.033193	99
Es	0.865537	0.948904	-0.035129	99
Es	0.169216	1.210311	0.009363	99
Es	-0.198347	-0.634790	0.331277	99
Es	1.629766	-0.847251	-0.099090	99
Es	2.507475	1.680958	-0.125899	99
Es	0.089628	1.583922	0.625049	99
Es	-1.351680	-0.062182	0.072971	99
Es	-2.092387	-0.045782	0.112666	99
Es	-2.299099	0.293724	0.733556	99
Es	-2.362757	0.324588	-0.464791	99
Es	-0.233440	-0.625421	-0.323248	99
41
Properties=species:S:1:pos:R:3:Z:I:1 energy=-306.82127625049895 field_type=dipole dipole="0.000000 0.000000 0.000000" charge=0
C	-2.092426	-0.045789	0.112666	6
C	-0.606256	-0.071019	0.033176	6
C	0.171484	-1.159679	-0.024314	6
C	1.629823	-0.847289	-0.099094	6
C	1.575214	0.662971	-0.080894	6
O	2.574904	1.374731	-0.133044	8
C	0.169194	1.210371	0.009366	6
H	-2.513786	-1.056309	0.108406	1
H	-2.510276	0.496731	-0.741144	1
H	-2.416246	0.450851	1.032636	1
H	-0.199576	-2.177009	-0.018744	1
H	2.165814	-1.221289	0.775486	1
H	2.069224	-1.203119	-1.033064	1
H	-0.060836	1.807891	-0.875544	1
H	0.043744	1.777961	0.934106	1
Es	2.842753	1.211336	-0.150709	99
Es	0.171579	-1.159761	-0.024320	99
Es	0.019799	1.603899	-0.580483	99
Es	0.910825	-1.044722	-0.062630	99
Es	-2.362840	0.324683	-0.464786	99
Es	2.201776	1.121680	-0.366557	99
Es	-2.374118	-0.732350	0.109749	99
Es	-0.249554	0.592398	0.023434	99
Es	-2.092387	-0.045783	0.112664	99
Es	-0.077442	-1.854346	-0.020774	99
Es	0.865539	0.948999	-0.035100	99
Es	1.629769	-0.847252	-0.099089	99
Es	0.169216	1.210310	0.009365	99
Es	1.575200	0.662968	-0.080893	99
Es	1.609166	-0.101494	-0.090424	99
Es	1.922908	-1.075929	-0.721440	99
Es	2.231730	1.116522	0.137752	99
Es	-1.351696	-0.062239	0.073066	99
Es	2.574648	1.374507	-0.133033	99
Es	-0.198325	-0.634771	0.331171	99
Es	0.089587	1.583933	0.625099	99
Es	-2.299082	0.293583	0.733584	99
Es	2.505504	1.681383	-0.125865	99
Es	1.987240	-1.087906	0.483868	99
Es	-0.233490	-0.625460	-0.323040	99
Es	-0.606334	-0.070892	0.033182	99
