39
Properties=species:S:1:pos:R:3:Z:I:1 energy=-342.6481753591959 field_type=dipole dipole="0.000000 0.000000 0.000000" charge=0
C	-1.848308	-0.202315	-0.002891	6
C	-0.368908	-0.157005	-0.000081	6
C	0.437162	0.957945	-0.001041	6
O	0.215542	2.255685	-0.004311	8
O	1.748432	0.628425	0.001939	8
C	1.802252	-0.729605	0.004799	6
C	0.532092	-1.259575	0.003749	6
H	-2.281188	0.803425	0.006969	1
H	-2.215618	-0.737045	0.878379	1
H	-2.212388	-0.718535	-0.896491	1
H	1.113692	2.630075	-0.003641	1
H	2.794342	-1.159455	0.007299	1
H	0.282892	-2.312024	0.005319	1
Es	0.085480	2.299734	0.248838	99
Es	0.690169	2.440789	-0.001344	99
Es	-0.368914	-0.156979	-0.000086	99
Es	0.094417	2.293730	-0.262659	99
Es	0.038957	-0.745776	0.000938	99
Es	0.437473	0.958234	-0.001052	99
Es	0.356107	-1.966030	0.004622	99
Es	1.762921	0.125621	-0.031031	99
Es	-2.090383	-0.566797	0.593327	99
Es	1.924240	0.788397	-0.178122	99
Es	1.178632	-1.011036	-0.320812	99
Es	-1.101524	-0.178249	-0.001690	99
Es	0.314686	1.749366	-0.001057	99
Es	1.253527	0.742333	-0.038614	99
Es	0.215865	2.255464	-0.004341	99
Es	-1.848243	-0.202315	-0.002891	99
Es	-2.088242	-0.554071	-0.607474	99
Es	0.011689	0.327749	-0.326193	99
Es	1.176354	-1.009099	0.330637	99
Es	0.011150	0.324556	0.327063	99
Es	1.725104	0.627732	0.254454	99
Es	0.532072	-1.259602	0.003749	99
Es	2.470197	-1.017086	0.006152	99
Es	-2.134564	0.478149	0.003789	99
Es	1.802321	-0.729296	0.004800	99
Es	1.748122	0.628202	0.001954	99
39
Properties=species:S:1:pos:R:3:Z:I:1 energy=-342.6481753591959 field_type=dipole dipole="0.000000 0.000000 0.000000" charge=0
C	-1.848308	-0.202315	-0.002891	6
C	-0.368908	-0.157005	-0.000081	6
C	0.437162	0.957945	-0.001041	6
O	0.215542	2.255685	-0.004311	8
O	1.748432	0.628425	0.001939	8
C	1.802252	-0.729605	0.004799	6
C	0.532092	-1.259575	0.003749	6
H	-2.281188	0.803425	0.006969	1
H	-2.215618	-0.737045	0.878379	1
H	-2.212388	-0.718535	-0.896491	1
H	1.113692	2.630075	-0.003641	1
H	2.794342	-1.159455	0.007299	1
H	0.282892	-2.312024	0.005319	1
Es	2.470217	-1.017157	0.006760	99
Es	-2.134545	0.478001	0.003711	99
Es	1.724728	0.623522	-0.249010	99
Es	0.092338	2.295115	-0.261583	99
Es	1.177443	-1.009723	0.329263	99
Es	-0.368914	-0.156978	-0.000069	99
Es	0.690281	2.440396	-0.002893	99
Es	1.748060	0.628138	0.002141	99
Es	0.215870	2.255452	-0.004252	99
Es	-2.090403	-0.566727	0.593446	99
Es	1.252873	0.742878	0.039133	99
Es	-2.088262	-0.554117	-0.607506	99
Es	1.925070	0.791605	0.178917	99
Es	1.802325	-0.729292	0.004795	99
Es	0.087543	2.298589	0.250447	99
Es	0.314493	1.749575	-0.002073	99
Es	-1.101496	-0.178238	-0.001255	99
Es	0.532073	-1.259602	0.003748	99
Es	-1.848246	-0.202314	-0.002891	99
Es	1.177454	-1.010296	-0.321823	99
Es	0.356133	-1.966066	0.004946	99
Es	0.012159	0.324575	-0.327613	99
Es	0.010648	0.327700	0.325621	99
Es	0.437472	0.958230	-0.001052	99
Es	0.038916	-0.745591	0.002724	99
Es	1.763383	0.126047	0.039330	99
39
Properties=species:S:1:pos:R:3:Z:I:1 energy=-342.6481753591959 field_type=dipole dipole="0.000000 0.000000 0.000000" charge=0
C	-1.848308	-0.202315	-0.002891	6
C	-0.368908	-0.157005	-0.000081	6
C	0.437162	0.957945	-0.001041	6
O	0.215542	2.255685	-0.004311	8
O	1.748432	0.628425	0.001939	8
C	1.802252	-0.729605	0.004799	6
C	0.532092	-1.259575	0.003749	6
H	-2.281188	0.803425	0.006969	1
H	-2.215618	-0.737045	0.878379	1
H	-2.212388	-0.718535	-0.896491	1
H	1.113692	2.630075	-0.003641	1
H	2.794342	-1.159455	0.007299	1
H	0.282892	-2.312024	0.005319	1
Es	0.215894	2.255446	-0.004289	99
Es	1.177423	-1.010275	-0.321418	99
Es	0.012146	0.324977	-0.327081	99
Es	0.038822	-0.745743	0.002278	99
Es	1.249642	0.741029	0.006815	99
Es	-1.848246	-0.202314	-0.002891	99
Es	-2.088238	-0.554122	-0.607520	99
Es	1.847210	0.727715	0.241200	99
Es	0.314543	1.749857	-0.000015	99
Es	-1.101527	-0.178128	-0.001457	99
Es	-0.368907	-0.156969	-0.000077	99
Es	1.748187	0.628269	0.001940	99
Es	0.085961	2.301412	0.250456	99
Es	0.532073	-1.259602	0.003755	99
Es	1.809348	0.692462	-0.251054	99
Es	2.470243	-1.017167	0.006726	99
Es	0.690163	2.439743	-0.004040	99
Es	1.176699	-1.009340	0.329543	99
Es	0.437470	0.958229	-0.001035	99
Es	0.010818	0.326548	0.325976	99
Es	-2.090377	-0.566752	0.593414	99
Es	1.802321	-0.729296	0.004799	99
Es	1.760287	0.123171	0.010827	99
Es	-2.134591	0.478001	0.003740	99
Es	0.093963	2.292715	-0.262543	99
Es	0.356287	-1.966143	0.004912	99
39
Properties=species:S:1:pos:R:3:Z:I:1 energy=-342.6481753591959 field_type=dipole dipole="0.000000 0.000000 0.000000" charge=0
C	-1.848308	-0.202315	-0.002891	6
C	-0.368908	-0.157005	-0.000081	6
C	0.437162	0.957945	-0.001041	6
O	0.215542	2.255685	-0.004311	8
O	1.748432	0.628425	0.001939	8
C	1.802252	-0.729605	0.004799	6
C	0.532092	-1.259575	0.003749	6
H	-2.281188	0.803425	0.006969	1
H	-2.215618	-0.737045	0.878379	1
H	-2.212388	-0.718535	-0.896491	1
H	1.113692	2.630075	-0.003641	1
H	2.794342	-1.159455	0.007299	1
H	0.282892	-2.312024	0.005319	1
Es	-1.848247	-0.202316	-0.002889	99
Es	1.176309	-1.008910	0.330414	99
Es	0.215853	2.255507	-0.004317	99
Es	0.314837	1.749567	-0.001287	99
Es	1.178731	-1.010873	-0.320410	99
Es	1.939528	0.801231	-0.158108	99
Es	-2.088154	-0.554213	-0.607494	99
Es	0.087710	2.298734	0.249969	99
Es	-0.368911	-0.156973	-0.000063	99
Es	0.356176	-1.966057	0.004579	99
Es	1.254049	0.744135	-0.043215	99
Es	-2.090553	-0.566601	0.593357	99
Es	0.437470	0.958228	-0.001042	99
Es	0.011657	0.326878	-0.326133	99
Es	1.748090	0.628170	0.001876	99
Es	2.470225	-1.017304	0.006173	99
Es	0.091794	2.293865	-0.261109	99
Es	1.708025	0.612832	0.244161	99
Es	1.764420	0.125862	-0.036174	99
Es	0.038889	-0.745695	0.000954	99
Es	-2.134594	0.477969	0.003576	99
Es	0.532074	-1.259600	0.003749	99
Es	0.011113	0.325255	0.326769	99
Es	1.802322	-0.729294	0.004797	99
Es	0.690248	2.441475	-0.003830	99
Es	-1.101447	-0.178150	-0.001342	99
39
Properties=species:S:1:pos:R:3:Z:I:1 energy=-342.6481753591959 field_type=dipole dipole="0.000000 0.000000 0.000000" charge=0
C	-1.848308	-0.202315	-0.002891	6
C	-0.368908	-0.157005	-0.000081	6
C	0.437162	0.957945	-0.001041	6
O	0.215542	2.255685	-0.004311	8
O	1.748432	0.628425	0.001939	8
C	1.802252	-0.729605	0.004799	6
C	0.532092	-1.259575	0.003749	6
H	-2.281188	0.803425	0.006969	1
H	-2.215618	-0.737045	0.878379	1
H	-2.212388	-0.718535	-0.896491	1
H	1.113692	2.630075	-0.003641	1
H	2.794342	-1.159455	0.007299	1
H	0.282892	-2.312024	0.005319	1
Es	-0.368901	-0.156971	-0.000071	99
Es	0.038762	-0.745569	0.002857	99
Es	1.177602	-1.009621	0.328877	99
Es	-1.101542	-0.178089	-0.001139	99
Es	2.470232	-1.017353	0.006932	99
Es	-2.134598	0.477940	0.003769	99
Es	1.764546	0.126305	0.043368	99
Es	0.012234	0.323088	-0.327713	99
Es	1.939888	0.802637	0.159789	99
Es	1.706875	0.611248	-0.242001	99
Es	1.748072	0.628156	0.002033	99
Es	1.177441	-1.010101	-0.321792	99
Es	1.802320	-0.729297	0.004802	99
Es	-2.088354	-0.554146	-0.607494	99
Es	0.215892	2.255437	-0.004295	99
Es	0.690422	2.441026	-0.003329	99
Es	0.087088	2.298875	0.250130	99
Es	0.437469	0.958224	-0.001047	99
Es	0.314405	1.749554	-0.001767	99
Es	0.532076	-1.259600	0.003738	99
Es	0.010632	0.328871	0.325218	99
Es	1.254816	0.743907	0.047525	99
Es	-2.090278	-0.566719	0.593475	99
Es	0.356179	-1.966037	0.005053	99
Es	0.092578	2.294271	-0.261068	99
Es	-1.848245	-0.202315	-0.002890	99
39
Properties=species:S:1:pos:R:3:Z:I:1 energy=-342.6481753591959 field_type=dipole dipole="0.000000 0.000000 0.000000" charge=0
C	-1.848308	-0.202315	-0.002891	6
C	-0.368908	-0.157005	-0.000081	6
C	0.437162	0.957945	-0.001041	6
O	0.215542	2.255685	-0.004311	8
O	1.748432	0.628425	0.001939	8
C	1.802252	-0.729605	0.004799	6
C	0.532092	-1.259575	0.003749	6
H	-2.281188	0.803425	0.006969	1
H	-2.215618	-0.737045	0.878379	1
H	-2.212388	-0.718535	-0.896491	1
H	1.113692	2.630075	-0.003641	1
H	2.794342	-1.159455	0.007299	1
H	0.282892	-2.312024	0.005319	1
Es	2.470233	-1.017404	0.006160	99
Es	1.178839	-1.010821	-0.320178	99
Es	1.176334	-1.008712	0.330164	99
Es	-0.368912	-0.156976	-0.000091	99
Es	0.314533	1.749624	-0.001768	99
Es	1.765403	0.126094	-0.036284	99
Es	1.802321	-0.729295	0.004803	99
Es	0.038683	-0.745535	0.000895	99
Es	0.088069	2.298481	0.250256	99
Es	-2.090314	-0.566775	0.593449	99
Es	0.011710	0.326585	-0.326062	99
Es	1.701422	0.612929	0.247190	99
Es	1.748097	0.628184	0.001904	99
Es	0.356324	-1.966126	0.004745	99
Es	0.215843	2.255476	-0.004276	99
Es	0.690369	2.441195	-0.003909	99
Es	-1.848246	-0.202314	-0.002891	99
Es	0.532072	-1.259602	0.003751	99
Es	0.011156	0.325120	0.326683	99
Es	-2.134587	0.478004	0.003779	99
Es	0.091523	2.294385	-0.260874	99
Es	-1.101670	-0.178130	-0.001492	99
Es	1.256614	0.742812	-0.051600	99
Es	1.942593	0.802412	-0.152805	99
Es	-2.088265	-0.554123	-0.607541	99
Es	0.437472	0.958232	-0.001046	99
39
Properties=species:S:1:pos:R:3:Z:I:1 energy=-342.6481753591959 field_type=dipole dipole="0.000000 0.000000 0.000000" charge=0
C	-1.848308	-0.202315	-0.002891	6
C	-0.368908	-0.157005	-0.000081	6
C	0.437162	0.957945	-0.001041	6
O	0.215542	2.255685	-0.004311	8
O	1.748432	0.628425	0.001939	8
C	1.802252	-0.729605	0.004799	6
C	0.532092	-1.259575	0.003749	6
H	-2.281188	0.803425	0.006969	1
H	-2.215618	-0.737045	0.878379	1
H	-2.212388	-0.718535	-0.896491	1
H	1.113692	2.630075	-0.003641	1
H	2.794342	-1.159455	0.007299	1
H	0.282892	-2.312024	0.005319	1
Es	1.178759	-1.010756	-0.320067	99
Es	-1.848246	-0.202316	-0.002888	99
Es	-0.368911	-0.156974	-0.000080	99
Es	0.011796	0.326873	-0.325914	99
Es	0.215785	2.255534	-0.004310	99
Es	2.470245	-1.017471	0.006178	99
Es	1.765361	0.126287	-0.037662	99
Es	1.802319	-0.729298	0.004795	99
Es	0.437469	0.958227	-0.001044	99
Es	-2.134569	0.477982	0.003737	99
Es	1.701516	0.611711	0.246995	99
Es	1.176203	-1.008551	0.330152	99
Es	0.356378	-1.966164	0.004704	99
Es	0.011220	0.324718	0.326814	99
Es	1.748035	0.628139	0.001757	99
Es	0.314543	1.749427	-0.005292	99
Es	0.086355	2.298032	-0.257452	99
Es	-1.101683	-0.178082	-0.001666	99
Es	-2.090366	-0.566748	0.593458	99
Es	-2.088251	-0.554124	-0.607542	99
Es	1.942963	0.802765	-0.151329	99
Es	0.532080	-1.259598	0.003734	99
Es	0.093259	2.294435	0.252979	99
Es	1.256441	0.743485	-0.051385	99
Es	0.690328	2.441750	-0.006506	99
Es	0.038586	-0.745562	0.000795	99
39
Properties=species:S:1:pos:R:3:Z:I:1 energy=-342.6481753591959 field_type=dipole dipole="0.000000 0.000000 0.000000" charge=0
C	-1.848308	-0.202315	-0.002891	6
C	-0.368908	-0.157005	-0.000081	6
C	0.437162	0.957945	-0.001041	6
O	0.215542	2.255685	-0.004311	8
O	1.748432	0.628425	0.001939	8
C	1.802252	-0.729605	0.004799	6
C	0.532092	-1.259575	0.003749	6
H	-2.281188	0.803425	0.006969	1
H	-2.215618	-0.737045	0.878379	1
H	-2.212388	-0.718535	-0.896491	1
H	1.113692	2.630075	-0.003641	1
H	2.794342	-1.159455	0.007299	1
H	0.282892	-2.312024	0.005319	1
Es	1.178722	-1.010835	-0.319914	99
Es	0.091318	2.294532	-0.260164	99
Es	-0.368909	-0.156970	-0.000081	99
Es	0.215895	2.255462	-0.004375	99
Es	-2.134548	0.478009	0.003696	99
Es	1.942003	0.803518	-0.152511	99
Es	0.314593	1.750028	-0.003042	99
Es	0.011689	0.326931	-0.325775	99
Es	1.765639	0.126355	-0.038248	99
Es	2.470266	-1.017547	0.006212	99
Es	0.532073	-1.259602	0.003754	99
Es	0.087855	2.297626	0.251095	99
Es	-2.090334	-0.566715	0.593515	99
Es	-1.101732	-0.178117	-0.001519	99
Es	0.690556	2.441540	-0.004098	99
Es	1.748095	0.628122	0.001850	99
Es	0.038685	-0.745481	0.000553	99
Es	1.802319	-0.729297	0.004800	99
Es	-2.088273	-0.554163	-0.607510	99
Es	0.356317	-1.966125	0.004701	99
Es	0.011298	0.324667	0.326661	99
Es	0.437471	0.958228	-0.001035	99
Es	1.255720	0.743184	-0.048705	99
Es	-1.848246	-0.202314	-0.002890	99
Es	1.176133	-1.008522	0.329999	99
Es	1.703010	0.611207	0.245994	99
39
Properties=species:S:1:pos:R:3:Z:I:1 energy=-342.6481753591959 field_type=dipole dipole="0.000000 0.000000 0.000000" charge=0
C	-1.848308	-0.202315	-0.002891	6
C	-0.368908	-0.157005	-0.000081	6
C	0.437162	0.957945	-0.001041	6
O	0.215542	2.255685	-0.004311	8
O	1.748432	0.628425	0.001939	8
C	1.802252	-0.729605	0.004799	6
C	0.532092	-1.259575	0.003749	6
H	-2.281188	0.803425	0.006969	1
H	-2.215618	-0.737045	0.878379	1
H	-2.212388	-0.718535	-0.896491	1
H	1.113692	2.630075	-0.003641	1
H	2.794342	-1.159455	0.007299	1
H	0.282892	-2.312024	0.005319	1
Es	0.690493	2.442006	-0.004127	99
Es	0.089029	2.296511	-0.259219	99
Es	0.314308	1.749322	-0.003291	99
Es	-2.134534	0.477998	0.003776	99
Es	0.437470	0.958228	-0.001039	99
Es	0.356359	-1.966168	0.004961	99
Es	1.764719	0.126278	0.043540	99
Es	-1.848245	-0.202314	-0.002891	99
Es	-0.368908	-0.156971	-0.000078	99
Es	0.090459	2.295888	0.250613	99
Es	0.532076	-1.259600	0.003751	99
Es	1.177151	-1.009902	-0.321182	99
Es	-2.090393	-0.566775	0.593430	99
Es	2.470278	-1.017611	0.006842	99
Es	0.215886	2.255477	-0.004332	99
Es	-1.101771	-0.178116	-0.001177	99
Es	0.038648	-0.745453	0.002588	99
Es	1.940287	0.802860	0.158729	99
Es	-2.088246	-0.554083	-0.607590	99
Es	0.012316	0.323811	-0.327159	99
Es	0.010776	0.327732	0.325174	99
Es	1.707236	0.610662	-0.240678	99
Es	1.747961	0.628065	0.002146	99
Es	1.802319	-0.729297	0.004800	99
Es	1.254487	0.744469	0.046870	99
Es	1.177457	-1.009293	0.328505	99
39
Properties=species:S:1:pos:R:3:Z:I:1 energy=-342.6481753591959 field_type=dipole dipole="0.000000 0.000000 0.000000" charge=0
C	-1.848308	-0.202315	-0.002891	6
C	-0.368908	-0.157005	-0.000081	6
C	0.437162	0.957945	-0.001041	6
O	0.215542	2.255685	-0.004311	8
O	1.748432	0.628425	0.001939	8
C	1.802252	-0.729605	0.004799	6
C	0.532092	-1.259575	0.003749	6
H	-2.281188	0.803425	0.006969	1
H	-2.215618	-0.737045	0.878379	1
H	-2.212388	-0.718535	-0.896491	1
H	1.113692	2.630075	-0.003641	1
H	2.794342	-1.159455	0.007299	1
H	0.282892	-2.312024	0.005319	1
Es	-1.848246	-0.202314	-0.002890	99
Es	1.177795	-1.009463	0.328407	99
Es	0.690487	2.442100	-0.004198	99
Es	1.766366	0.127217	0.047371	99
Es	2.470253	-1.017640	0.006685	99
Es	-1.101847	-0.178090	-0.001212	99
Es	-2.134553	0.478001	0.003653	99
Es	0.437471	0.958228	-0.001040	99
Es	-2.090344	-0.566670	0.593525	99
Es	1.748060	0.628157	0.002041	99
Es	0.356363	-1.966131	0.004935	99
Es	0.012297	0.323609	-0.327185	99
Es	0.314517	1.749653	0.000432	99
Es	0.532073	-1.259606	0.003768	99
Es	0.038577	-0.745364	0.002780	99
Es	-2.088250	-0.554219	-0.607520	99
Es	-0.368913	-0.156976	-0.000066	99
Es	1.947905	0.809157	0.145474	99
Es	0.085049	2.300895	0.248878	99
Es	1.802319	-0.729297	0.004798	99
Es	0.094244	2.291082	-0.261108	99
Es	1.695639	0.603856	-0.238726	99
Es	1.256551	0.743950	0.054745	99
Es	0.010773	0.327824	0.324997	99
Es	1.177199	-1.009719	-0.321255	99
Es	0.215830	2.255481	-0.004325	99
39
Properties=species:S:1:pos:R:3:Z:I:1 energy=-342.6481753591959 field_type=dipole dipole="0.000000 0.000000 0.000000" charge=0
C	-1.848308	-0.202315	-0.002891	6
C	-0.368908	-0.157005	-0.000081	6
C	0.437162	0.957945	-0.001041	6
O	0.215542	2.255685	-0.004311	8
O	1.748432	0.628425	0.001939	8
C	1.802252	-0.729605	0.004799	6
C	0.532092	-1.259575	0.003749	6
H	-2.281188	0.803425	0.006969	1
H	-2.215618	-0.737045	0.878379	1
H	-2.212388	-0.718535	-0.896491	1
H	1.113692	2.630075	-0.003641	1
H	2.794342	-1.159455	0.007299	1
H	0.282892	-2.312024	0.005319	1
Es	0.437471	0.958231	-0.001048	99
Es	0.088338	2.296784	-0.258131	99
Es	0.532075	-1.259600	0.003748	99
Es	1.695549	0.604000	0.243632	99
Es	1.766047	0.127495	-0.043038	99
Es	1.948151	0.808436	-0.141609	99
Es	2.470297	-1.017759	0.006201	99
Es	1.256873	0.744141	-0.052640	99
Es	0.090843	2.295080	0.252044	99
Es	-2.090193	-0.566703	0.593588	99
Es	0.215845	2.255421	-0.004308	99
Es	-0.368906	-0.156966	-0.000072	99
Es	0.356417	-1.966204	0.004760	99
Es	-2.134524	0.477992	0.003767	99
Es	1.178679	-1.010542	-0.319586	99
Es	-2.088425	-0.554168	-0.607483	99
Es	-1.848247	-0.202314	-0.002890	99
Es	0.038563	-0.745401	0.000917	99
Es	0.314632	1.749673	-0.005034	99
Es	-1.101900	-0.178044	-0.001810	99
Es	0.690434	2.442257	-0.005151	99
Es	1.802321	-0.729295	0.004798	99
Es	0.011897	0.325990	-0.325637	99
Es	1.176035	-1.008403	0.329656	99
Es	0.011254	0.325430	0.326397	99
Es	1.748089	0.628190	0.001890	99
39
Properties=species:S:1:pos:R:3:Z:I:1 energy=-342.6481753591959 field_type=dipole dipole="0.000000 0.000000 0.000000" charge=0
C	-1.848308	-0.202315	-0.002891	6
C	-0.368908	-0.157005	-0.000081	6
C	0.437162	0.957945	-0.001041	6
O	0.215542	2.255685	-0.004311	8
O	1.748432	0.628425	0.001939	8
C	1.802252	-0.729605	0.004799	6
C	0.532092	-1.259575	0.003749	6
H	-2.281188	0.803425	0.006969	1
H	-2.215618	-0.737045	0.878379	1
H	-2.212388	-0.718535	-0.896491	1
H	1.113692	2.630075	-0.003641	1
H	2.794342	-1.159455	0.007299	1
H	0.282892	-2.312024	0.005319	1
Es	1.177701	-1.009242	0.328192	99
Es	-2.090382	-0.566763	0.593475	99
Es	0.215870	2.255437	-0.004375	99
Es	1.257993	0.743480	0.060029	99
Es	1.688175	0.601447	-0.235365	99
Es	1.767757	0.126869	0.046852	99
Es	1.748108	0.628169	0.001984	99
Es	0.085123	2.300096	0.248170	99
Es	2.470290	-1.017784	0.006767	99
Es	-1.101857	-0.178019	-0.001309	99
Es	0.094230	2.292192	-0.262110	99
Es	0.038451	-0.745312	0.002891	99
Es	0.356432	-1.966193	0.004897	99
Es	-0.368914	-0.156980	-0.000066	99
Es	-2.088211	-0.554123	-0.607567	99
Es	1.952487	0.812423	0.137427	99
Es	-2.134567	0.477986	0.003721	99
Es	1.802319	-0.729296	0.004782	99
Es	0.532077	-1.259597	0.003753	99
Es	0.010756	0.327443	0.324846	99
Es	-1.848246	-0.202314	-0.002891	99
Es	0.437471	0.958226	-0.001035	99
Es	0.690413	2.441853	-0.002284	99
Es	1.177347	-1.009746	-0.320940	99
Es	0.012412	0.323815	-0.327138	99
Es	0.314379	1.749655	0.000255	99
39
Properties=species:S:1:pos:R:3:Z:I:1 energy=-342.6481753591959 field_type=dipole dipole="0.000000 0.000000 0.000000" charge=0
C	-1.848308	-0.202315	-0.002891	6
C	-0.368908	-0.157005	-0.000081	6
C	0.437162	0.957945	-0.001041	6
O	0.215542	2.255685	-0.004311	8
O	1.748432	0.628425	0.001939	8
C	1.802252	-0.729605	0.004799	6
C	0.532092	-1.259575	0.003749	6
H	-2.281188	0.803425	0.006969	1
H	-2.215618	-0.737045	0.878379	1
H	-2.212388	-0.718535	-0.896491	1
H	1.113692	2.630075	-0.003641	1
H	2.794342	-1.159455	0.007299	1
H	0.282892	-2.312024	0.005319	1
Es	0.690495	2.442495	-0.003514	99
Es	0.532076	-1.259599	0.003750	99
Es	-2.088197	-0.554123	-0.607590	99
Es	0.215886	2.255470	-0.004300	99
Es	0.038386	-0.745301	0.002916	99
Es	1.766571	0.128292	0.051833	99
Es	1.177657	-1.009280	0.327899	99
Es	1.802318	-0.729298	0.004801	99
Es	1.689098	0.597388	-0.236087	99
Es	1.953356	0.813321	0.134961	99
Es	1.257796	0.745107	0.058257	99
Es	0.356522	-1.966217	0.004980	99
Es	-1.101927	-0.178032	-0.001211	99
Es	-1.848247	-0.202314	-0.002891	99
Es	2.470300	-1.017847	0.006823	99
Es	0.437470	0.958228	-0.001040	99
Es	1.747943	0.628088	0.002097	99
Es	-2.090380	-0.566772	0.593470	99
Es	0.314324	1.749393	-0.004422	99
Es	0.089640	2.295302	0.250640	99
Es	0.089620	2.296562	-0.258784	99
Es	-2.134557	0.478002	0.003730	99
Es	-0.368909	-0.156972	-0.000078	99
Es	1.177175	-1.009532	-0.320951	99
Es	0.012427	0.323558	-0.327126	99
Es	0.010772	0.327802	0.324798	99
39
Properties=species:S:1:pos:R:3:Z:I:1 energy=-342.6481753591959 field_type=dipole dipole="0.000000 0.000000 0.000000" charge=0
C	-1.848308	-0.202315	-0.002891	6
C	-0.368908	-0.157005	-0.000081	6
C	0.437162	0.957945	-0.001041	6
O	0.215542	2.255685	-0.004311	8
O	1.748432	0.628425	0.001939	8
C	1.802252	-0.729605	0.004799	6
C	0.532092	-1.259575	0.003749	6
H	-2.281188	0.803425	0.006969	1
H	-2.215618	-0.737045	0.878379	1
H	-2.212388	-0.718535	-0.896491	1
H	1.113692	2.630075	-0.003641	1
H	2.794342	-1.159455	0.007299	1
H	0.282892	-2.312024	0.005319	1
Es	-2.090282	-0.566845	0.593468	99
Es	0.437470	0.958228	-0.001042	99
Es	1.802318	-0.729298	0.004797	99
Es	1.767775	0.128129	-0.046104	99
Es	0.011897	0.325702	-0.325506	99
Es	0.356559	-1.966220	0.004622	99
Es	-0.368912	-0.156964	-0.000095	99
Es	1.957017	0.814900	-0.124640	99
Es	0.532076	-1.259599	0.003748	99
Es	2.470307	-1.017914	0.006141	99
Es	0.690624	2.442310	-0.003009	99
Es	1.178908	-1.010511	-0.319149	99
Es	1.748064	0.628172	0.001845	99
Es	1.682042	0.596679	0.238820	99
Es	1.259747	0.744387	-0.061912	99
Es	0.092048	2.294386	-0.259922	99
Es	0.087330	2.297610	0.249440	99
Es	1.176128	-1.008227	0.329536	99
Es	0.314077	1.749436	-0.002712	99
Es	-1.848247	-0.202316	-0.002892	99
Es	0.215827	2.255495	-0.004336	99
Es	0.011273	0.325532	0.326260	99
Es	-1.101984	-0.177945	-0.001518	99
Es	-2.134608	0.477981	0.003827	99
Es	0.038358	-0.745277	0.000936	99
Es	-2.088198	-0.554110	-0.607641	99
39
Properties=species:S:1:pos:R:3:Z:I:1 energy=-342.6481753591959 field_type=dipole dipole="0.000000 0.000000 0.000000" charge=0
C	-1.848308	-0.202315	-0.002891	6
C	-0.368908	-0.157005	-0.000081	6
C	0.437162	0.957945	-0.001041	6
O	0.215542	2.255685	-0.004311	8
O	1.748432	0.628425	0.001939	8
C	1.802252	-0.729605	0.004799	6
C	0.532092	-1.259575	0.003749	6
H	-2.281188	0.803425	0.006969	1
H	-2.215618	-0.737045	0.878379	1
H	-2.212388	-0.718535	-0.896491	1
H	1.113692	2.630075	-0.003641	1
H	2.794342	-1.159455	0.007299	1
H	0.282892	-2.312024	0.005319	1
Es	0.437470	0.958230	-0.001039	99
Es	0.010692	0.329137	0.324301	99
Es	1.766809	0.128188	0.051662	99
Es	1.177198	-1.009517	-0.320774	99
Es	-1.102007	-0.177990	-0.000952	99
Es	0.215901	2.255484	-0.004282	99
Es	2.470310	-1.017921	0.006816	99
Es	0.012505	0.322040	-0.327316	99
Es	1.952874	0.813141	0.135303	99
Es	1.748007	0.628109	0.002101	99
Es	-1.848248	-0.202315	-0.002891	99
Es	1.689800	0.597574	-0.235756	99
Es	0.314037	1.749475	-0.001872	99
Es	1.802317	-0.729299	0.004800	99
Es	0.690668	2.442420	-0.001800	99
Es	-2.090333	-0.566889	0.593381	99
Es	0.085288	2.298560	0.248391	99
Es	0.038364	-0.745209	0.003373	99
Es	-0.368908	-0.156970	-0.000079	99
Es	0.356522	-1.966231	0.004983	99
Es	-2.134560	0.478005	0.003921	99
Es	-2.088200	-0.554028	-0.607724	99
Es	1.257453	0.745148	0.057706	99
Es	1.177585	-1.009132	0.327749	99
Es	0.093994	2.293310	-0.260792	99
Es	0.532075	-1.259599	0.003750	99
39
Properties=species:S:1:pos:R:3:Z:I:1 energy=-342.6481753591959 field_type=dipole dipole="0.000000 0.000000 0.000000" charge=0
C	-1.848308	-0.202315	-0.002891	6
C	-0.368908	-0.157005	-0.000081	6
C	0.437162	0.957945	-0.001041	6
O	0.215542	2.255685	-0.004311	8
O	1.748432	0.628425	0.001939	8
C	1.802252	-0.729605	0.004799	6
C	0.532092	-1.259575	0.003749	6
H	-2.281188	0.803425	0.006969	1
H	-2.215618	-0.737045	0.878379	1
H	-2.212388	-0.718535	-0.896491	1
H	1.113692	2.630075	-0.003641	1
H	2.794342	-1.159455	0.007299	1
H	0.282892	-2.312024	0.005319	1
Es	0.690667	2.442692	-0.004222	99
Es	1.954570	0.813498	-0.128701	99
Es	-2.134542	0.478019	0.003704	99
Es	0.314110	1.749423	-0.002660	99
Es	1.748068	0.628163	0.001868	99
Es	0.532078	-1.259599	0.003749	99
Es	-1.848246	-0.202316	-0.002893	99
Es	1.767356	0.128149	-0.046491	99
Es	1.178792	-1.010467	-0.318902	99
Es	0.088982	2.296868	0.249806	99
Es	0.011462	0.324473	0.326392	99
Es	0.356566	-1.966260	0.004640	99
Es	0.011881	0.326575	-0.325213	99
Es	1.802324	-0.729292	0.004799	99
Es	0.038265	-0.745211	0.000410	99
Es	-2.090322	-0.566702	0.593516	99
Es	1.175924	-1.008006	0.329346	99
Es	0.090173	2.294825	-0.259148	99
Es	0.437471	0.958232	-0.001042	99
Es	-1.102022	-0.177966	-0.001580	99
Es	2.470322	-1.018034	0.006131	99
Es	1.258550	0.744784	-0.058308	99
Es	1.686459	0.597586	0.239720	99
Es	0.215894	2.255446	-0.004326	99
Es	-2.088257	-0.554189	-0.607551	99
Es	-0.368909	-0.156971	-0.000083	99
39
Properties=species:S:1:pos:R:3:Z:I:1 energy=-342.6481753591959 field_type=dipole dipole="0.000000 0.000000 0.000000" charge=0
C	-1.848308	-0.202315	-0.002891	6
C	-0.368908	-0.157005	-0.000081	6
C	0.437162	0.957945	-0.001041	6
O	0.215542	2.255685	-0.004311	8
O	1.748432	0.628425	0.001939	8
C	1.802252	-0.729605	0.004799	6
C	0.532092	-1.259575	0.003749	6
H	-2.281188	0.803425	0.006969	1
H	-2.215618	-0.737045	0.878379	1
H	-2.212388	-0.718535	-0.896491	1
H	1.113692	2.630075	-0.003641	1
H	2.794342	-1.159455	0.007299	1
H	0.282892	-2.312024	0.005319	1
Es	0.690630	2.443127	-0.004848	99
Es	1.177569	-1.009034	0.327478	99
Es	1.687055	0.595408	-0.232387	99
Es	1.802317	-0.729298	0.004798	99
Es	0.532078	-1.259598	0.003750	99
Es	0.010881	0.327592	0.324629	99
Es	1.747785	0.627965	0.002183	99
Es	0.215886	2.255439	-0.004226	99
Es	1.767667	0.128130	0.052208	99
Es	0.084773	2.300003	-0.256230	99
Es	-2.090344	-0.566772	0.593506	99
Es	0.094330	2.291339	0.251925	99
Es	-2.134544	0.478012	0.003736	99
Es	0.314148	1.749352	-0.007028	99
Es	-0.368907	-0.156972	-0.000087	99
Es	0.038128	-0.745154	0.002738	99
Es	2.470332	-1.018067	0.006825	99
Es	0.356699	-1.966268	0.005036	99
Es	0.437471	0.958230	-0.001039	99
Es	1.177111	-1.009411	-0.320485	99
Es	-1.848246	-0.202315	-0.002890	99
Es	0.012509	0.323444	-0.326815	99
Es	-1.102088	-0.177926	-0.001233	99
Es	-2.088206	-0.554139	-0.607605	99
Es	1.955042	0.815450	0.130696	99
Es	1.257539	0.745185	0.058327	99
39
Properties=species:S:1:pos:R:3:Z:I:1 energy=-342.6481753591959 field_type=dipole dipole="0.000000 0.000000 0.000000" charge=0
C	-1.848308	-0.202315	-0.002891	6
C	-0.368908	-0.157005	-0.000081	6
C	0.437162	0.957945	-0.001041	6
O	0.215542	2.255685	-0.004311	8
O	1.748432	0.628425	0.001939	8
C	1.802252	-0.729605	0.004799	6
C	0.532092	-1.259575	0.003749	6
H	-2.281188	0.803425	0.006969	1
H	-2.215618	-0.737045	0.878379	1
H	-2.212388	-0.718535	-0.896491	1
H	1.113692	2.630075	-0.003641	1
H	2.794342	-1.159455	0.007299	1
H	0.282892	-2.312024	0.005319	1
Es	0.690594	2.443302	-0.002320	99
Es	0.096464	2.289968	-0.261062	99
Es	-2.134537	0.477979	0.003739	99
Es	1.175898	-1.007813	0.329280	99
Es	0.038151	-0.745124	0.000275	99
Es	-2.088228	-0.554073	-0.607576	99
Es	1.178886	-1.010493	-0.318592	99
Es	1.260034	0.744768	-0.062981	99
Es	0.314206	1.749381	0.000211	99
Es	0.215799	2.255457	-0.004295	99
Es	-1.848246	-0.202315	-0.002891	99
Es	2.470329	-1.018118	0.006135	99
Es	0.532077	-1.259599	0.003748	99
Es	0.082664	2.301145	0.246921	99
Es	-2.090352	-0.566818	0.593545	99
Es	1.958471	0.816955	-0.119127	99
Es	0.011856	0.326911	-0.325110	99
Es	0.437470	0.958230	-0.001043	99
Es	-0.368908	-0.156970	-0.000078	99
Es	1.748086	0.628240	0.001962	99
Es	1.679912	0.592871	0.238011	99
Es	0.011493	0.324128	0.326406	99
Es	1.802318	-0.729299	0.004797	99
Es	0.356664	-1.966294	0.004653	99
Es	1.768548	0.129261	-0.049998	99
Es	-1.102038	-0.177960	-0.001649	99
39
Properties=species:S:1:pos:R:3:Z:I:1 energy=-342.6481753591959 field_type=dipole dipole="0.000000 0.000000 0.000000" charge=0
C	-1.848308	-0.202315	-0.002891	6
C	-0.368908	-0.157005	-0.000081	6
C	0.437162	0.957945	-0.001041	6
O	0.215542	2.255685	-0.004311	8
O	1.748432	0.628425	0.001939	8
C	1.802252	-0.729605	0.004799	6
C	0.532092	-1.259575	0.003749	6
H	-2.281188	0.803425	0.006969	1
H	-2.215618	-0.737045	0.878379	1
H	-2.212388	-0.718535	-0.896491	1
H	1.113692	2.630075	-0.003641	1
H	2.794342	-1.159455	0.007299	1
H	0.282892	-2.312024	0.005319	1
Es	0.086422	2.298123	-0.257039	99
Es	1.175837	-1.007775	0.329121	99
Es	0.532077	-1.259597	0.003747	99
Es	1.259221	0.745105	-0.060568	99
Es	1.802316	-0.729300	0.004793	99
Es	0.356747	-1.966338	0.004633	99
Es	0.011639	0.323407	0.326541	99
Es	1.768064	0.128940	-0.049380	99
Es	1.748094	0.628154	0.001863	99
Es	1.682535	0.593744	0.237999	99
Es	-0.368899	-0.156967	-0.000083	99
Es	0.092702	2.293389	0.251236	99
Es	-1.848248	-0.202314	-0.002892	99
Es	0.690642	2.443013	-0.004985	99
Es	-1.102024	-0.177857	-0.001567	99
Es	0.038018	-0.745143	-0.000112	99
Es	0.437471	0.958231	-0.001042	99
Es	0.314013	1.749281	-0.005508	99
Es	2.470337	-1.018190	0.006199	99
Es	0.011888	0.327489	-0.324841	99
Es	-2.134584	0.477960	0.003671	99
Es	1.957283	0.816127	-0.121977	99
Es	1.178776	-1.010344	-0.318473	99
Es	-2.090407	-0.566702	0.593470	99
Es	0.215893	2.255461	-0.004289	99
Es	-2.088200	-0.554174	-0.607556	99
39
Properties=species:S:1:pos:R:3:Z:I:1 energy=-342.6481753591959 field_type=dipole dipole="0.000000 0.000000 0.000000" charge=0
C	-1.848308	-0.202315	-0.002891	6
C	-0.368908	-0.157005	-0.000081	6
C	0.437162	0.957945	-0.001041	6
O	0.215542	2.255685	-0.004311	8
O	1.748432	0.628425	0.001939	8
C	1.802252	-0.729605	0.004799	6
C	0.532092	-1.259575	0.003749	6
H	-2.281188	0.803425	0.006969	1
H	-2.215618	-0.737045	0.878379	1
H	-2.212388	-0.718535	-0.896491	1
H	1.113692	2.630075	-0.003641	1
H	2.794342	-1.159455	0.007299	1
H	0.282892	-2.312024	0.005319	1
Es	2.470354	-1.018238	0.006774	99
Es	-2.134566	0.477996	0.003550	99
Es	-1.102167	-0.177896	-0.001146	99
Es	-2.088157	-0.554346	-0.607564	99
Es	1.259161	0.744937	0.062745	99
Es	0.690605	2.443634	-0.001149	99
Es	1.748033	0.628139	0.002127	99
Es	0.012537	0.323371	-0.326819	99
Es	-2.090350	-0.566589	0.593582	99
Es	-1.848248	-0.202315	-0.002894	99
Es	0.532077	-1.259598	0.003750	99
Es	1.802316	-0.729299	0.004799	99
Es	1.956848	0.817320	0.124659	99
Es	0.010935	0.327530	0.324328	99
Es	0.038090	-0.745064	0.002938	99
Es	1.768460	0.129449	0.056168	99
Es	-0.368908	-0.156973	-0.000066	99
Es	0.356727	-1.966318	0.004990	99
Es	1.177045	-1.009248	-0.320261	99
Es	1.682773	0.592214	-0.234475	99
Es	1.177548	-1.008851	0.327180	99
Es	0.084214	2.298454	0.247258	99
Es	0.094729	2.292309	-0.260564	99
Es	0.314226	1.749382	-0.001571	99
Es	0.437469	0.958229	-0.001040	99
Es	0.215861	2.255489	-0.004339	99
39
Properties=species:S:1:pos:R:3:Z:I:1 energy=-342.6481753591959 field_type=dipole dipole="0.000000 0.000000 0.000000" charge=0
C	-1.848308	-0.202315	-0.002891	6
C	-0.368908	-0.157005	-0.000081	6
C	0.437162	0.957945	-0.001041	6
O	0.215542	2.255685	-0.004311	8
O	1.748432	0.628425	0.001939	8
C	1.802252	-0.729605	0.004799	6
C	0.532092	-1.259575	0.003749	6
H	-2.281188	0.803425	0.006969	1
H	-2.215618	-0.737045	0.878379	1
H	-2.212388	-0.718535	-0.896491	1
H	1.113692	2.630075	-0.003641	1
H	2.794342	-1.159455	0.007299	1
H	0.282892	-2.312024	0.005319	1
Es	0.690729	2.443748	-0.003791	99
Es	1.748088	0.628171	0.002005	99
Es	0.088851	2.296009	-0.258066	99
Es	0.010890	0.328408	0.324113	99
Es	-2.088223	-0.554172	-0.607626	99
Es	0.437470	0.958231	-0.001039	99
Es	1.802316	-0.729296	0.004799	99
Es	0.090180	2.294619	0.249705	99
Es	-0.368917	-0.156978	-0.000084	99
Es	-2.090303	-0.566746	0.593492	99
Es	0.215754	2.255520	-0.004308	99
Es	2.470342	-1.018282	0.006798	99
Es	1.259425	0.745953	0.063216	99
Es	1.768029	0.129895	0.057911	99
Es	0.314064	1.749360	-0.003911	99
Es	-2.134560	0.478004	0.003764	99
Es	0.012690	0.322454	-0.326978	99
Es	-1.848251	-0.202317	-0.002895	99
Es	0.356770	-1.966312	0.004999	99
Es	1.177024	-1.009095	-0.320322	99
Es	1.958412	0.817993	0.121677	99
Es	1.681370	0.590018	-0.233465	99
Es	0.532072	-1.259601	0.003750	99
Es	1.177574	-1.008957	0.326977	99
Es	-1.102182	-0.177872	-0.001132	99
Es	0.038000	-0.745038	0.003373	99
39
Properties=species:S:1:pos:R:3:Z:I:1 energy=-342.6481753591959 field_type=dipole dipole="0.000000 0.000000 0.000000" charge=0
C	-1.848308	-0.202315	-0.002891	6
C	-0.368908	-0.157005	-0.000081	6
C	0.437162	0.957945	-0.001041	6
O	0.215542	2.255685	-0.004311	8
O	1.748432	0.628425	0.001939	8
C	1.802252	-0.729605	0.004799	6
C	0.532092	-1.259575	0.003749	6
H	-2.281188	0.803425	0.006969	1
H	-2.215618	-0.737045	0.878379	1
H	-2.212388	-0.718535	-0.896491	1
H	1.113692	2.630075	-0.003641	1
H	2.794342	-1.159455	0.007299	1
H	0.282892	-2.312024	0.005319	1
Es	1.802315	-0.729301	0.004798	99
Es	1.960085	0.818660	0.119196	99
Es	0.532082	-1.259594	0.003749	99
Es	1.177126	-1.009131	-0.320160	99
Es	-1.848248	-0.202315	-0.002890	99
Es	0.356802	-1.966336	0.004998	99
Es	0.437470	0.958230	-0.001036	99
Es	0.084605	2.298718	-0.256347	99
Es	-2.134569	0.478014	0.003673	99
Es	1.260093	0.745434	0.065960	99
Es	-2.090309	-0.566739	0.593559	99
Es	-1.102188	-0.177939	-0.001254	99
Es	2.470362	-1.018332	0.006817	99
Es	0.012596	0.323125	-0.326814	99
Es	1.769046	0.128449	0.054146	99
Es	1.177652	-1.008830	0.327020	99
Es	0.094432	2.292465	0.251721	99
Es	0.215871	2.255426	-0.004222	99
Es	-0.368908	-0.156971	-0.000082	99
Es	0.037994	-0.744993	0.003123	99
Es	0.010926	0.327604	0.324211	99
Es	1.677882	0.591443	-0.230134	99
Es	1.748074	0.628160	0.002022	99
Es	0.690715	2.443222	-0.006151	99
Es	0.313908	1.749448	-0.005382	99
Es	-2.088202	-0.554194	-0.607556	99
