39
Properties=species:S:1:pos:R:3:Z:I:1 energy=-342.6855894516418 field_type=dipole dipole="0.000000 0.000000 0.000000" charge=0
C	-1.773780	0.004752	0.015042	6
C	-0.291230	-0.056548	-0.002208	6
C	0.475610	-1.140418	-0.097048	6
C	1.862420	-0.678278	-0.070748	6
O	2.837460	-1.402988	-0.137928	8
O	1.880420	0.677992	0.039812	8
C	0.538760	1.162832	0.090482	6
H	-2.218320	-0.992758	-0.063498	1
H	-2.140970	0.604222	-0.823808	1
H	-2.126400	0.458362	0.946582	1
H	0.196510	-2.175198	-0.179208	1
H	0.372390	1.841842	-0.751048	1
H	0.387130	1.696182	1.033572	1
Es	0.426956	1.512009	0.725032	99
Es	0.135934	-0.662881	0.262588	99
Es	1.880094	0.677749	0.039827	99
Es	1.998207	0.742981	-0.210573	99
Es	3.108944	-1.256270	-0.128567	99
Es	1.843608	0.167596	-0.000209	99
Es	0.416972	1.610398	-0.477072	99
Es	2.506275	-1.167934	0.136557	99
Es	0.538974	1.162717	0.090473	99
Es	2.735482	-1.690076	-0.160680	99
Es	-1.773710	0.004763	0.015041	99
Es	2.502185	-1.127282	-0.364724	99
Es	1.366603	0.840607	0.056548	99
Es	0.130050	-0.611193	-0.368632	99
Es	-2.003134	0.411061	-0.547733	99
Es	-2.065432	-0.668152	-0.037956	99
Es	0.094877	0.567060	0.045483	99
Es	0.475696	-1.140446	-0.097061	99
Es	0.288827	-1.830917	-0.151907	99
Es	-0.291319	-0.056412	-0.002197	99
Es	1.862410	-0.678003	-0.070727	99
Es	2.005000	0.705969	0.295190	99
Es	2.837196	-1.402798	-0.137907	99
Es	-1.993355	0.313179	0.640287	99
Es	-1.026930	-0.020557	0.006834	99
Es	1.165798	-0.933848	-0.085969	99
39
Properties=species:S:1:pos:R:3:Z:I:1 energy=-342.6855894516418 field_type=dipole dipole="0.000000 0.000000 0.000000" charge=0
C	-1.773780	0.004752	0.015042	6
C	-0.291230	-0.056548	-0.002208	6
C	0.475610	-1.140418	-0.097048	6
C	1.862420	-0.678278	-0.070748	6
O	2.837460	-1.402988	-0.137928	8
O	1.880420	0.677992	0.039812	8
C	0.538760	1.162832	0.090482	6
H	-2.218320	-0.992758	-0.063498	1
H	-2.140970	0.604222	-0.823808	1
H	-2.126400	0.458362	0.946582	1
H	0.196510	-2.175198	-0.179208	1
H	0.372390	1.841842	-0.751048	1
H	0.387130	1.696182	1.033572	1
Es	3.109725	-1.257974	-0.128226	99
Es	2.005813	0.752043	-0.206266	99
Es	0.426813	1.512158	0.725135	99
Es	-1.993385	0.313119	0.640385	99
Es	-0.291319	-0.056412	-0.002195	99
Es	1.843578	0.168269	-0.006604	99
Es	2.506561	-1.167674	0.136571	99
Es	1.880135	0.677778	0.039782	99
Es	1.862410	-0.678005	-0.070724	99
Es	2.837222	-1.402805	-0.137910	99
Es	1.997469	0.696055	0.297689	99
Es	1.165741	-0.933978	-0.085899	99
Es	0.475699	-1.140431	-0.097051	99
Es	0.095067	0.567177	0.045408	99
Es	2.734103	-1.689135	-0.160420	99
Es	0.135617	-0.662771	0.262520	99
Es	-2.003178	0.411056	-0.547659	99
Es	-1.773712	0.004763	0.015042	99
Es	-1.027077	-0.020467	0.006776	99
Es	-2.065297	-0.668252	-0.038062	99
Es	0.130405	-0.611199	-0.368655	99
Es	0.288838	-1.830886	-0.151926	99
Es	0.538968	1.162718	0.090471	99
Es	1.366582	0.840747	0.056141	99
Es	0.416936	1.610160	-0.477090	99
Es	2.502495	-1.126732	-0.365285	99
39
Properties=species:S:1:pos:R:3:Z:I:1 energy=-342.6855894516418 field_type=dipole dipole="0.000000 0.000000 0.000000" charge=0
C	-1.773780	0.004752	0.015042	6
C	-0.291230	-0.056548	-0.002208	6
C	0.475610	-1.140418	-0.097048	6
C	1.862420	-0.678278	-0.070748	6
O	2.837460	-1.402988	-0.137928	8
O	1.880420	0.677992	0.039812	8
C	0.538760	1.162832	0.090482	6
H	-2.218320	-0.992758	-0.063498	1
H	-2.140970	0.604222	-0.823808	1
H	-2.126400	0.458362	0.946582	1
H	0.196510	-2.175198	-0.179208	1
H	0.372390	1.841842	-0.751048	1
H	0.387130	1.696182	1.033572	1
Es	0.095014	0.567201	0.045413	99
Es	-1.027131	-0.020617	0.006781	99
Es	-2.003141	0.411080	-0.547730	99
Es	3.109025	-1.257941	-0.128134	99
Es	2.502814	-1.127349	-0.366187	99
Es	0.426821	1.512137	0.725031	99
Es	1.995381	0.739604	-0.212300	99
Es	2.837145	-1.402793	-0.137910	99
Es	0.475696	-1.140438	-0.097049	99
Es	1.880086	0.677743	0.039785	99
Es	1.366458	0.840838	0.057778	99
Es	2.506251	-1.166976	0.136611	99
Es	1.843822	0.167320	0.002581	99
Es	-0.291318	-0.056415	-0.002198	99
Es	-2.065376	-0.668212	-0.037994	99
Es	-1.993322	0.313160	0.640365	99
Es	0.288881	-1.830924	-0.151963	99
Es	2.734858	-1.689269	-0.159743	99
Es	2.007873	0.709321	0.292967	99
Es	0.538962	1.162721	0.090471	99
Es	0.416971	1.610230	-0.477097	99
Es	0.136225	-0.662858	0.262565	99
Es	1.862407	-0.677996	-0.070722	99
Es	-1.773714	0.004763	0.015042	99
Es	1.165679	-0.933941	-0.085911	99
Es	0.129841	-0.611069	-0.368508	99
39
Properties=species:S:1:pos:R:3:Z:I:1 energy=-342.6855894516418 field_type=dipole dipole="0.000000 0.000000 0.000000" charge=0
C	-1.773780	0.004752	0.015042	6
C	-0.291230	-0.056548	-0.002208	6
C	0.475610	-1.140418	-0.097048	6
C	1.862420	-0.678278	-0.070748	6
O	2.837460	-1.402988	-0.137928	8
O	1.880420	0.677992	0.039812	8
C	0.538760	1.162832	0.090482	6
H	-2.218320	-0.992758	-0.063498	1
H	-2.140970	0.604222	-0.823808	1
H	-2.126400	0.458362	0.946582	1
H	0.196510	-2.175198	-0.179208	1
H	0.372390	1.841842	-0.751048	1
H	0.387130	1.696182	1.033572	1
Es	3.108165	-1.256271	-0.128447	99
Es	-0.291319	-0.056412	-0.002193	99
Es	0.288896	-1.830905	-0.151816	99
Es	1.366425	0.841381	0.057377	99
Es	1.880061	0.677706	0.039840	99
Es	0.426833	1.512095	0.724983	99
Es	2.506519	-1.168504	0.137098	99
Es	1.997470	0.741616	-0.210864	99
Es	2.837205	-1.402773	-0.137911	99
Es	2.501889	-1.126744	-0.365065	99
Es	-2.065335	-0.668255	-0.038057	99
Es	0.135579	-0.662628	0.262377	99
Es	0.130449	-0.611194	-0.368727	99
Es	0.416893	1.610269	-0.477087	99
Es	0.538970	1.162717	0.090471	99
Es	0.095167	0.567276	0.045506	99
Es	-1.773714	0.004763	0.015043	99
Es	-1.027192	-0.020589	0.006843	99
Es	2.006136	0.706551	0.293750	99
Es	0.475700	-1.140450	-0.097051	99
Es	-2.003249	0.411211	-0.547657	99
Es	2.736317	-1.690014	-0.160992	99
Es	-1.993237	0.313004	0.640402	99
Es	1.165600	-0.934081	-0.085826	99
Es	1.843571	0.167563	0.000670	99
Es	1.862409	-0.678012	-0.070721	99
39
Properties=species:S:1:pos:R:3:Z:I:1 energy=-342.6855894516418 field_type=dipole dipole="0.000000 0.000000 0.000000" charge=0
C	-1.773780	0.004752	0.015042	6
C	-0.291230	-0.056548	-0.002208	6
C	0.475610	-1.140418	-0.097048	6
C	1.862420	-0.678278	-0.070748	6
O	2.837460	-1.402988	-0.137928	8
O	1.880420	0.677992	0.039812	8
C	0.538760	1.162832	0.090482	6
H	-2.218320	-0.992758	-0.063498	1
H	-2.140970	0.604222	-0.823808	1
H	-2.126400	0.458362	0.946582	1
H	0.196510	-2.175198	-0.179208	1
H	0.372390	1.841842	-0.751048	1
H	0.387130	1.696182	1.033572	1
Es	0.416882	1.610182	-0.477139	99
Es	1.165645	-0.934025	-0.085728	99
Es	-1.993372	0.313212	0.640369	99
Es	1.880114	0.677758	0.039786	99
Es	0.135620	-0.662578	0.262200	99
Es	-2.002979	0.411095	-0.547782	99
Es	1.366266	0.841410	0.059006	99
Es	0.426804	1.512177	0.724992	99
Es	-1.773715	0.004763	0.015042	99
Es	1.843906	0.167244	0.003132	99
Es	0.130502	-0.611161	-0.368469	99
Es	-0.291318	-0.056412	-0.002202	99
Es	2.505652	-1.168643	0.136689	99
Es	1.862409	-0.678004	-0.070730	99
Es	2.738272	-1.690424	-0.160437	99
Es	3.107021	-1.254880	-0.127574	99
Es	2.501909	-1.127533	-0.366097	99
Es	1.992527	0.736974	-0.212698	99
Es	0.538969	1.162717	0.090470	99
Es	2.010879	0.711399	0.291569	99
Es	0.095176	0.567295	0.045460	99
Es	-2.065454	-0.668165	-0.038043	99
Es	0.288877	-1.830943	-0.151871	99
Es	0.475697	-1.140441	-0.097047	99
Es	-1.027322	-0.020886	0.006970	99
Es	2.837240	-1.402810	-0.137922	99
39
Properties=species:S:1:pos:R:3:Z:I:1 energy=-342.6855894516418 field_type=dipole dipole="0.000000 0.000000 0.000000" charge=0
C	-1.773780	0.004752	0.015042	6
C	-0.291230	-0.056548	-0.002208	6
C	0.475610	-1.140418	-0.097048	6
C	1.862420	-0.678278	-0.070748	6
O	2.837460	-1.402988	-0.137928	8
O	1.880420	0.677992	0.039812	8
C	0.538760	1.162832	0.090482	6
H	-2.218320	-0.992758	-0.063498	1
H	-2.140970	0.604222	-0.823808	1
H	-2.126400	0.458362	0.946582	1
H	0.196510	-2.175198	-0.179208	1
H	0.372390	1.841842	-0.751048	1
H	0.387130	1.696182	1.033572	1
Es	2.736322	-1.689593	-0.158990	99
Es	1.165564	-0.934108	-0.085986	99
Es	-1.773711	0.004763	0.015042	99
Es	0.095247	0.567242	0.045482	99
Es	2.502903	-1.128344	-0.367012	99
Es	-0.291319	-0.056416	-0.002189	99
Es	0.130364	-0.611093	-0.368381	99
Es	-1.027397	-0.020835	0.006788	99
Es	2.505071	-1.167121	0.135368	99
Es	1.366160	0.841250	0.057392	99
Es	2.837175	-1.402757	-0.137909	99
Es	1.880075	0.677729	0.039848	99
Es	0.475697	-1.140442	-0.097053	99
Es	0.135800	-0.662572	0.262323	99
Es	-1.993318	0.313225	0.640387	99
Es	-2.003080	0.411045	-0.547722	99
Es	0.288922	-1.830899	-0.151878	99
Es	0.426784	1.512100	0.724965	99
Es	1.862408	-0.678002	-0.070719	99
Es	-2.065427	-0.668206	-0.038002	99
Es	3.108609	-1.256476	-0.126804	99
Es	2.000924	0.745665	-0.209360	99
Es	2.002306	0.702844	0.293732	99
Es	0.538969	1.162718	0.090471	99
Es	1.844298	0.167343	-0.000805	99
Es	0.416862	1.610261	-0.477044	99
39
Properties=species:S:1:pos:R:3:Z:I:1 energy=-342.6855894516418 field_type=dipole dipole="0.000000 0.000000 0.000000" charge=0
C	-1.773780	0.004752	0.015042	6
C	-0.291230	-0.056548	-0.002208	6
C	0.475610	-1.140418	-0.097048	6
C	1.862420	-0.678278	-0.070748	6
O	2.837460	-1.402988	-0.137928	8
O	1.880420	0.677992	0.039812	8
C	0.538760	1.162832	0.090482	6
H	-2.218320	-0.992758	-0.063498	1
H	-2.140970	0.604222	-0.823808	1
H	-2.126400	0.458362	0.946582	1
H	0.196510	-2.175198	-0.179208	1
H	0.372390	1.841842	-0.751048	1
H	0.387130	1.696182	1.033572	1
Es	0.475696	-1.140438	-0.097048	99
Es	0.130428	-0.611054	-0.368244	99
Es	1.844014	0.167780	-0.005360	99
Es	-0.291319	-0.056412	-0.002201	99
Es	0.416841	1.610241	-0.477046	99
Es	-2.003101	0.411086	-0.547803	99
Es	-1.993185	0.313267	0.640274	99
Es	0.288871	-1.830923	-0.151896	99
Es	1.862410	-0.678005	-0.070725	99
Es	3.106979	-1.256155	-0.127772	99
Es	-1.773714	0.004762	0.015042	99
Es	1.880092	0.677756	0.039809	99
Es	-1.027466	-0.020932	0.006788	99
Es	2.000058	0.698213	0.295570	99
Es	2.837205	-1.402787	-0.137908	99
Es	2.502005	-1.126850	-0.366357	99
Es	2.003496	0.749152	-0.206259	99
Es	2.506156	-1.168571	0.137389	99
Es	-2.065511	-0.668247	-0.037841	99
Es	1.366150	0.841916	0.057059	99
Es	2.737723	-1.689925	-0.160633	99
Es	1.165576	-0.934131	-0.085940	99
Es	0.135733	-0.662553	0.262123	99
Es	0.426754	1.512108	0.724951	99
Es	0.538966	1.162719	0.090472	99
Es	0.095352	0.567303	0.045501	99
39
Properties=species:S:1:pos:R:3:Z:I:1 energy=-342.6855894516418 field_type=dipole dipole="0.000000 0.000000 0.000000" charge=0
C	-1.773780	0.004752	0.015042	6
C	-0.291230	-0.056548	-0.002208	6
C	0.475610	-1.140418	-0.097048	6
C	1.862420	-0.678278	-0.070748	6
O	2.837460	-1.402988	-0.137928	8
O	1.880420	0.677992	0.039812	8
C	0.538760	1.162832	0.090482	6
H	-2.218320	-0.992758	-0.063498	1
H	-2.140970	0.604222	-0.823808	1
H	-2.126400	0.458362	0.946582	1
H	0.196510	-2.175198	-0.179208	1
H	0.372390	1.841842	-0.751048	1
H	0.387130	1.696182	1.033572	1
Es	1.366090	0.842158	0.057055	99
Es	-1.027517	-0.020905	0.006760	99
Es	2.506836	-1.167183	0.137318	99
Es	0.538968	1.162718	0.090471	99
Es	2.002520	0.747390	-0.207048	99
Es	1.862407	-0.677997	-0.070732	99
Es	0.135336	-0.662454	0.261895	99
Es	1.880058	0.677751	0.039734	99
Es	0.416795	1.610284	-0.477010	99
Es	-2.065411	-0.668163	-0.037969	99
Es	2.502862	-1.126362	-0.365840	99
Es	-1.993253	0.313176	0.640435	99
Es	1.844001	0.167642	-0.003745	99
Es	0.130770	-0.611103	-0.368314	99
Es	3.108983	-1.259098	-0.128427	99
Es	2.001160	0.699812	0.294735	99
Es	2.837206	-1.402759	-0.137907	99
Es	2.734180	-1.688881	-0.160365	99
Es	-0.291317	-0.056411	-0.002192	99
Es	0.475696	-1.140441	-0.097050	99
Es	-1.773715	0.004763	0.015042	99
Es	1.165566	-0.934177	-0.085879	99
Es	-2.003134	0.411090	-0.547776	99
Es	0.095467	0.567327	0.045613	99
Es	0.426783	1.512075	0.724968	99
Es	0.288869	-1.830931	-0.151826	99
39
Properties=species:S:1:pos:R:3:Z:I:1 energy=-342.6855894516418 field_type=dipole dipole="0.000000 0.000000 0.000000" charge=0
C	-1.773780	0.004752	0.015042	6
C	-0.291230	-0.056548	-0.002208	6
C	0.475610	-1.140418	-0.097048	6
C	1.862420	-0.678278	-0.070748	6
O	2.837460	-1.402988	-0.137928	8
O	1.880420	0.677992	0.039812	8
C	0.538760	1.162832	0.090482	6
H	-2.218320	-0.992758	-0.063498	1
H	-2.140970	0.604222	-0.823808	1
H	-2.126400	0.458362	0.946582	1
H	0.196510	-2.175198	-0.179208	1
H	0.372390	1.841842	-0.751048	1
H	0.387130	1.696182	1.033572	1
Es	-1.027611	-0.020976	0.006759	99
Es	1.989352	0.685017	0.298615	99
Es	1.880020	0.677699	0.039646	99
Es	1.843646	0.168864	-0.013227	99
Es	3.106650	-1.254988	-0.127268	99
Es	0.475695	-1.140439	-0.097056	99
Es	2.505678	-1.170088	0.137547	99
Es	2.014699	0.759795	-0.198602	99
Es	0.426743	1.512109	0.724929	99
Es	0.130434	-0.611067	-0.368099	99
Es	0.288850	-1.830928	-0.151799	99
Es	2.738643	-1.690298	-0.162377	99
Es	-2.003067	0.411085	-0.547762	99
Es	-0.291319	-0.056414	-0.002197	99
Es	0.135781	-0.662394	0.262091	99
Es	-1.993257	0.313213	0.640455	99
Es	0.416788	1.610245	-0.476983	99
Es	1.862409	-0.678005	-0.070726	99
Es	2.837184	-1.402741	-0.137904	99
Es	-2.065429	-0.668197	-0.038008	99
Es	2.501905	-1.126156	-0.365205	99
Es	1.366161	0.843418	0.054356	99
Es	-1.773716	0.004764	0.015046	99
Es	0.095487	0.567329	0.045481	99
Es	1.165512	-0.934245	-0.086240	99
Es	0.538969	1.162717	0.090471	99
39
Properties=species:S:1:pos:R:3:Z:I:1 energy=-342.6855894516418 field_type=dipole dipole="0.000000 0.000000 0.000000" charge=0
C	-1.773780	0.004752	0.015042	6
C	-0.291230	-0.056548	-0.002208	6
C	0.475610	-1.140418	-0.097048	6
C	1.862420	-0.678278	-0.070748	6
O	2.837460	-1.402988	-0.137928	8
O	1.880420	0.677992	0.039812	8
C	0.538760	1.162832	0.090482	6
H	-2.218320	-0.992758	-0.063498	1
H	-2.140970	0.604222	-0.823808	1
H	-2.126400	0.458362	0.946582	1
H	0.196510	-2.175198	-0.179208	1
H	0.372390	1.841842	-0.751048	1
H	0.387130	1.696182	1.033572	1
Es	0.426746	1.512161	0.724888	99
Es	1.165489	-0.934195	-0.086025	99
Es	0.538968	1.162717	0.090472	99
Es	0.416760	1.610209	-0.477039	99
Es	3.106405	-1.255729	-0.129118	99
Es	0.288906	-1.830953	-0.151936	99
Es	-1.027702	-0.021029	0.006775	99
Es	0.095618	0.567367	0.045644	99
Es	-1.773715	0.004763	0.015042	99
Es	-1.993244	0.313253	0.640430	99
Es	-0.291320	-0.056413	-0.002193	99
Es	0.135642	-0.662421	0.261850	99
Es	1.365830	0.842722	0.056469	99
Es	0.130500	-0.611031	-0.367957	99
Es	-2.065434	-0.668208	-0.037948	99
Es	1.844226	0.167728	-0.005018	99
Es	1.880101	0.677756	0.039786	99
Es	-2.003069	0.411054	-0.547801	99
Es	2.004121	0.748672	-0.205433	99
Es	2.506737	-1.167931	0.137835	99
Es	2.501456	-1.127502	-0.365961	99
Es	1.999639	0.697865	0.294990	99
Es	2.837217	-1.402808	-0.137906	99
Es	0.475691	-1.140435	-0.097048	99
Es	1.862407	-0.677998	-0.070722	99
Es	2.738232	-1.690293	-0.160130	99
39
Properties=species:S:1:pos:R:3:Z:I:1 energy=-342.6855894516418 field_type=dipole dipole="0.000000 0.000000 0.000000" charge=0
C	-1.773780	0.004752	0.015042	6
C	-0.291230	-0.056548	-0.002208	6
C	0.475610	-1.140418	-0.097048	6
C	1.862420	-0.678278	-0.070748	6
O	2.837460	-1.402988	-0.137928	8
O	1.880420	0.677992	0.039812	8
C	0.538760	1.162832	0.090482	6
H	-2.218320	-0.992758	-0.063498	1
H	-2.140970	0.604222	-0.823808	1
H	-2.126400	0.458362	0.946582	1
H	0.196510	-2.175198	-0.179208	1
H	0.372390	1.841842	-0.751048	1
H	0.387130	1.696182	1.033572	1
Es	2.736175	-1.689246	-0.160661	99
Es	1.844022	0.167722	-0.004748	99
Es	1.880123	0.677769	0.039806	99
Es	2.003838	0.748402	-0.205899	99
Es	0.538966	1.162718	0.090471	99
Es	1.165522	-0.934305	-0.086066	99
Es	2.000090	0.697790	0.294285	99
Es	0.095629	0.567437	0.045428	99
Es	0.426684	1.512153	0.724892	99
Es	-1.993227	0.313133	0.640528	99
Es	-0.291318	-0.056414	-0.002195	99
Es	-1.773715	0.004764	0.015045	99
Es	-1.027725	-0.021142	0.006726	99
Es	-2.065432	-0.668143	-0.038071	99
Es	2.506790	-1.168279	0.137592	99
Es	0.130074	-0.610946	-0.367884	99
Es	0.475695	-1.140434	-0.097054	99
Es	2.837188	-1.402776	-0.137909	99
Es	1.862411	-0.678009	-0.070726	99
Es	1.365899	0.843064	0.057336	99
Es	3.107688	-1.257859	-0.128031	99
Es	0.288843	-1.830904	-0.151829	99
Es	0.416787	1.610207	-0.476970	99
Es	2.502185	-1.126094	-0.366233	99
Es	-2.003070	0.411166	-0.547764	99
Es	0.136083	-0.662451	0.261875	99
39
Properties=species:S:1:pos:R:3:Z:I:1 energy=-342.6855894516418 field_type=dipole dipole="0.000000 0.000000 0.000000" charge=0
C	-1.773780	0.004752	0.015042	6
C	-0.291230	-0.056548	-0.002208	6
C	0.475610	-1.140418	-0.097048	6
C	1.862420	-0.678278	-0.070748	6
O	2.837460	-1.402988	-0.137928	8
O	1.880420	0.677992	0.039812	8
C	0.538760	1.162832	0.090482	6
H	-2.218320	-0.992758	-0.063498	1
H	-2.140970	0.604222	-0.823808	1
H	-2.126400	0.458362	0.946582	1
H	0.196510	-2.175198	-0.179208	1
H	0.372390	1.841842	-0.751048	1
H	0.387130	1.696182	1.033572	1
Es	0.538961	1.162721	0.090472	99
Es	2.505818	-1.168751	0.136462	99
Es	2.837185	-1.402760	-0.137907	99
Es	1.997017	0.740603	-0.209561	99
Es	-2.003064	0.411105	-0.547818	99
Es	-0.291317	-0.056416	-0.002195	99
Es	-1.993290	0.313167	0.640471	99
Es	-2.065373	-0.668196	-0.038022	99
Es	-1.773715	0.004763	0.015043	99
Es	0.416711	1.610117	-0.477007	99
Es	0.130602	-0.610880	-0.367891	99
Es	0.095650	0.567458	0.045576	99
Es	1.165429	-0.934412	-0.085919	99
Es	1.880099	0.677744	0.039800	99
Es	0.135793	-0.662265	0.261767	99
Es	3.107540	-1.257283	-0.126246	99
Es	0.475695	-1.140437	-0.097044	99
Es	0.288802	-1.830919	-0.151864	99
Es	2.006833	0.706225	0.291676	99
Es	1.365857	0.842930	0.058192	99
Es	2.736033	-1.690245	-0.161937	99
Es	0.426672	1.512224	0.724835	99
Es	1.844236	0.167203	0.000669	99
Es	2.503463	-1.125195	-0.365652	99
Es	-1.027839	-0.021180	0.006776	99
Es	1.862408	-0.678004	-0.070729	99
39
Properties=species:S:1:pos:R:3:Z:I:1 energy=-342.6855894516418 field_type=dipole dipole="0.000000 0.000000 0.000000" charge=0
C	-1.773780	0.004752	0.015042	6
C	-0.291230	-0.056548	-0.002208	6
C	0.475610	-1.140418	-0.097048	6
C	1.862420	-0.678278	-0.070748	6
O	2.837460	-1.402988	-0.137928	8
O	1.880420	0.677992	0.039812	8
C	0.538760	1.162832	0.090482	6
H	-2.218320	-0.992758	-0.063498	1
H	-2.140970	0.604222	-0.823808	1
H	-2.126400	0.458362	0.946582	1
H	0.196510	-2.175198	-0.179208	1
H	0.372390	1.841842	-0.751048	1
H	0.387130	1.696182	1.033572	1
Es	2.837168	-1.402749	-0.137905	99
Es	1.365822	0.843526	0.057430	99
Es	1.995443	0.737965	-0.209682	99
Es	-1.993331	0.313235	0.640424	99
Es	-1.773714	0.004763	0.015042	99
Es	-0.291316	-0.056415	-0.002196	99
Es	0.416749	1.610225	-0.476888	99
Es	0.426672	1.512134	0.724867	99
Es	2.504486	-1.169663	0.137240	99
Es	-1.027796	-0.021180	0.006821	99
Es	0.130518	-0.610858	-0.367796	99
Es	1.862409	-0.678004	-0.070722	99
Es	1.165412	-0.934446	-0.085890	99
Es	0.538964	1.162719	0.090471	99
Es	2.502923	-1.126614	-0.366341	99
Es	0.095708	0.567463	0.045496	99
Es	1.880059	0.677670	0.039942	99
Es	3.105785	-1.254810	-0.126119	99
Es	2.739656	-1.690398	-0.162197	99
Es	0.475696	-1.140435	-0.097054	99
Es	-2.065419	-0.668181	-0.037996	99
Es	0.288796	-1.830941	-0.151957	99
Es	1.844088	0.167127	0.001949	99
Es	2.008631	0.708439	0.291079	99
Es	-2.002992	0.411065	-0.547853	99
Es	0.135790	-0.662316	0.261779	99
39
Properties=species:S:1:pos:R:3:Z:I:1 energy=-342.6855894516418 field_type=dipole dipole="0.000000 0.000000 0.000000" charge=0
C	-1.773780	0.004752	0.015042	6
C	-0.291230	-0.056548	-0.002208	6
C	0.475610	-1.140418	-0.097048	6
C	1.862420	-0.678278	-0.070748	6
O	2.837460	-1.402988	-0.137928	8
O	1.880420	0.677992	0.039812	8
C	0.538760	1.162832	0.090482	6
H	-2.218320	-0.992758	-0.063498	1
H	-2.140970	0.604222	-0.823808	1
H	-2.126400	0.458362	0.946582	1
H	0.196510	-2.175198	-0.179208	1
H	0.372390	1.841842	-0.751048	1
H	0.387130	1.696182	1.033572	1
Es	-2.003072	0.411052	-0.547778	99
Es	0.136115	-0.662263	0.261804	99
Es	2.501065	-1.126980	-0.366477	99
Es	2.738297	-1.690128	-0.159696	99
Es	1.862408	-0.678003	-0.070725	99
Es	-1.773717	0.004763	0.015040	99
Es	-0.291317	-0.056414	-0.002191	99
Es	2.007892	0.706837	0.290598	99
Es	0.538963	1.162718	0.090471	99
Es	1.165459	-0.934375	-0.086337	99
Es	1.880132	0.677780	0.039793	99
Es	0.095802	0.567486	0.045581	99
Es	0.288807	-1.830921	-0.151885	99
Es	1.365692	0.843133	0.059283	99
Es	-1.993237	0.313226	0.640571	99
Es	-2.065388	-0.668178	-0.038025	99
Es	1.995962	0.739728	-0.210078	99
Es	0.475693	-1.140435	-0.097057	99
Es	2.507263	-1.168194	0.137724	99
Es	0.416706	1.610142	-0.476990	99
Es	-1.027953	-0.021246	0.006599	99
Es	2.837239	-1.402818	-0.137951	99
Es	3.106148	-1.256111	-0.128884	99
Es	1.844410	0.167195	0.001184	99
Es	0.130193	-0.610887	-0.367433	99
Es	0.426645	1.512213	0.724805	99
39
Properties=species:S:1:pos:R:3:Z:I:1 energy=-342.6855894516418 field_type=dipole dipole="0.000000 0.000000 0.000000" charge=0
C	-1.773780	0.004752	0.015042	6
C	-0.291230	-0.056548	-0.002208	6
C	0.475610	-1.140418	-0.097048	6
C	1.862420	-0.678278	-0.070748	6
O	2.837460	-1.402988	-0.137928	8
O	1.880420	0.677992	0.039812	8
C	0.538760	1.162832	0.090482	6
H	-2.218320	-0.992758	-0.063498	1
H	-2.140970	0.604222	-0.823808	1
H	-2.126400	0.458362	0.946582	1
H	0.196510	-2.175198	-0.179208	1
H	0.372390	1.841842	-0.751048	1
H	0.387130	1.696182	1.033572	1
Es	2.732387	-1.688221	-0.160124	99
Es	-1.773717	0.004763	0.015041	99
Es	0.475692	-1.140435	-0.097037	99
Es	0.130709	-0.610915	-0.367623	99
Es	-1.993196	0.313183	0.640552	99
Es	2.001361	0.699001	0.293183	99
Es	-2.065449	-0.668169	-0.038049	99
Es	0.426623	1.512191	0.724843	99
Es	1.880079	0.677770	0.039794	99
Es	-2.003011	0.411159	-0.547815	99
Es	1.165432	-0.934485	-0.085986	99
Es	2.504097	-1.125113	-0.366719	99
Es	0.538961	1.162720	0.090471	99
Es	3.108959	-1.262085	-0.128078	99
Es	1.365643	0.843558	0.057594	99
Es	-0.291316	-0.056415	-0.002195	99
Es	0.416713	1.610163	-0.476920	99
Es	0.135544	-0.662132	0.261402	99
Es	0.095929	0.567556	0.045581	99
Es	1.862409	-0.678004	-0.070720	99
Es	2.002642	0.746838	-0.205751	99
Es	0.288768	-1.830932	-0.151809	99
Es	2.837029	-1.402841	-0.137912	99
Es	2.507540	-1.165941	0.137548	99
Es	-1.028016	-0.021350	0.006728	99
Es	1.844396	0.167456	-0.004052	99
39
Properties=species:S:1:pos:R:3:Z:I:1 energy=-342.6855894516418 field_type=dipole dipole="0.000000 0.000000 0.000000" charge=0
C	-1.773780	0.004752	0.015042	6
C	-0.291230	-0.056548	-0.002208	6
C	0.475610	-1.140418	-0.097048	6
C	1.862420	-0.678278	-0.070748	6
O	2.837460	-1.402988	-0.137928	8
O	1.880420	0.677992	0.039812	8
C	0.538760	1.162832	0.090482	6
H	-2.218320	-0.992758	-0.063498	1
H	-2.140970	0.604222	-0.823808	1
H	-2.126400	0.458362	0.946582	1
H	0.196510	-2.175198	-0.179208	1
H	0.372390	1.841842	-0.751048	1
H	0.387130	1.696182	1.033572	1
Es	2.502503	-1.127123	-0.366772	99
Es	1.844309	0.167537	-0.004228	99
Es	2.837134	-1.402815	-0.137912	99
Es	0.135700	-0.662184	0.261257	99
Es	-0.291317	-0.056414	-0.002195	99
Es	0.416665	1.610144	-0.476948	99
Es	2.737606	-1.689447	-0.160341	99
Es	2.000958	0.698678	0.293520	99
Es	-1.993268	0.313196	0.640458	99
Es	0.288811	-1.830968	-0.151779	99
Es	0.095993	0.567553	0.045619	99
Es	0.538964	1.162720	0.090470	99
Es	-2.065457	-0.668181	-0.038025	99
Es	1.880103	0.677727	0.039827	99
Es	2.505935	-1.167805	0.137589	99
Es	1.165424	-0.934433	-0.085867	99
Es	1.365688	0.843568	0.057197	99
Es	2.003085	0.747139	-0.205546	99
Es	0.475690	-1.140429	-0.097062	99
Es	1.862408	-0.678005	-0.070726	99
Es	0.426639	1.512210	0.724798	99
Es	-2.002999	0.411123	-0.547823	99
Es	0.130508	-0.610856	-0.367560	99
Es	3.106821	-1.257019	-0.127858	99
Es	-1.027984	-0.021357	0.006809	99
Es	-1.773712	0.004762	0.015043	99
39
Properties=species:S:1:pos:R:3:Z:I:1 energy=-342.6855894516418 field_type=dipole dipole="0.000000 0.000000 0.000000" charge=0
C	-1.773780	0.004752	0.015042	6
C	-0.291230	-0.056548	-0.002208	6
C	0.475610	-1.140418	-0.097048	6
C	1.862420	-0.678278	-0.070748	6
O	2.837460	-1.402988	-0.137928	8
O	1.880420	0.677992	0.039812	8
C	0.538760	1.162832	0.090482	6
H	-2.218320	-0.992758	-0.063498	1
H	-2.140970	0.604222	-0.823808	1
H	-2.126400	0.458362	0.946582	1
H	0.196510	-2.175198	-0.179208	1
H	0.372390	1.841842	-0.751048	1
H	0.387130	1.696182	1.033572	1
Es	2.504708	-1.166923	0.136704	99
Es	0.538961	1.162720	0.090473	99
Es	2.837216	-1.402768	-0.137909	99
Es	2.737281	-1.689444	-0.159951	99
Es	-1.028156	-0.021464	0.006799	99
Es	1.844631	0.167531	-0.005045	99
Es	-2.002927	0.411116	-0.547897	99
Es	1.862409	-0.678003	-0.070716	99
Es	-1.773716	0.004764	0.015042	99
Es	0.416630	1.610285	-0.476883	99
Es	1.165379	-0.934517	-0.085868	99
Es	0.135673	-0.662119	0.261262	99
Es	2.004740	0.748025	-0.203832	99
Es	0.130634	-0.610780	-0.367449	99
Es	1.999167	0.697257	0.294226	99
Es	-0.291315	-0.056416	-0.002195	99
Es	0.426592	1.512033	0.724851	99
Es	-2.065457	-0.668213	-0.038004	99
Es	0.475693	-1.140433	-0.097055	99
Es	3.107136	-1.257106	-0.126873	99
Es	0.096051	0.567617	0.045564	99
Es	0.288770	-1.830947	-0.151899	99
Es	2.503656	-1.127939	-0.367319	99
Es	1.365509	0.843975	0.055615	99
Es	1.880167	0.677812	0.039799	99
Es	-1.993225	0.313258	0.640508	99
