44
Properties=species:S:1:pos:R:3:Z:I:1 energy=-307.96725108159114 field_type=dipole dipole="0.000000 0.000000 0.000000" charge=0
C	-1.718583	0.504604	-0.633061	6
C	-0.200053	0.427964	-0.596781	6
C	0.412757	1.516764	0.272069	6
O	1.736067	1.056244	0.576629	8
C	1.637287	-0.364136	0.772969	6
C	0.407187	-0.791886	0.032059	6
C	-0.064273	-2.046066	-0.007721	6
H	-2.136323	-0.262646	-1.293071	1
H	-2.045433	1.480184	-1.008051	1
H	-2.152563	0.364134	0.363129	1
H	0.200457	0.518304	-1.614881	1
H	-0.130283	1.665154	1.213269	1
H	0.476197	2.477194	-0.248981	1
H	2.544657	-0.830936	0.380549	1
H	1.548067	-0.558456	1.846529	1
H	-0.966613	-2.300346	-0.554171	1
H	0.451447	-2.856076	0.499519	1
Es	-2.007065	0.410819	0.046726	99
Es	-0.675937	-2.221916	-0.376598	99
Es	0.074401	0.483182	-1.281589	99
Es	0.284362	-2.597978	0.336140	99
Es	1.637262	-0.363928	0.772916	99
Es	1.735919	1.056145	0.576619	99
Es	-1.999240	-0.018255	-1.083118	99
Es	-0.020146	-1.384751	0.283614	99
Es	0.338245	-1.498728	-0.260134	99
Es	2.247048	-0.689210	0.506728	99
Es	1.674326	0.517149	0.652477	99
Es	0.407243	-0.791762	0.032065	99
Es	0.083166	0.982023	-0.167781	99
Es	0.080285	-0.203833	-0.287606	99
Es	1.566871	-0.509632	1.502789	99
Es	1.225098	1.212027	0.471204	99
Es	0.412959	1.516678	0.272106	99
Es	0.453281	2.174505	-0.083909	99
Es	1.829473	1.185663	0.842211	99
Es	-0.064297	-2.046151	-0.007729	99
Es	1.023166	-0.598174	0.402379	99
Es	-1.718545	0.504606	-0.633069	99
Es	-0.958694	0.454057	-0.609380	99
Es	0.025122	1.609575	0.918544	99
Es	1.888325	1.087173	0.313215	99
Es	-1.933089	1.171955	-0.889127	99
Es	-0.200066	0.427941	-0.596741	99
44
Properties=species:S:1:pos:R:3:Z:I:1 energy=-307.96725108159114 field_type=dipole dipole="0.000000 0.000000 0.000000" charge=0
C	-1.718583	0.504604	-0.633061	6
C	-0.200053	0.427964	-0.596781	6
C	0.412757	1.516764	0.272069	6
O	1.736067	1.056244	0.576629	8
C	1.637287	-0.364136	0.772969	6
C	0.407187	-0.791886	0.032059	6
C	-0.064273	-2.046066	-0.007721	6
H	-2.136323	-0.262646	-1.293071	1
H	-2.045433	1.480184	-1.008051	1
H	-2.152563	0.364134	0.363129	1
H	0.200457	0.518304	-1.614881	1
H	-0.130283	1.665154	1.213269	1
H	0.476197	2.477194	-0.248981	1
H	2.544657	-0.830936	0.380549	1
H	1.548067	-0.558456	1.846529	1
H	-0.966613	-2.300346	-0.554171	1
H	0.451447	-2.856076	0.499519	1
Es	-1.718544	0.504606	-0.633069	99
Es	1.023265	-0.598306	0.402387	99
Es	0.284342	-2.598015	0.336139	99
Es	1.829328	1.186148	0.840220	99
Es	0.453271	2.174496	-0.083856	99
Es	-0.064298	-2.046144	-0.007724	99
Es	-0.200066	0.427942	-0.596741	99
Es	-1.999274	-0.018213	-1.082936	99
Es	1.674476	0.517003	0.654584	99
Es	1.888539	1.086994	0.312304	99
Es	0.407243	-0.791762	0.032064	99
Es	-2.007145	0.410966	0.046769	99
Es	2.247074	-0.689185	0.506856	99
Es	-0.958607	0.453998	-0.609443	99
Es	-1.933117	1.171808	-0.889288	99
Es	1.637262	-0.363923	0.772915	99
Es	1.566789	-0.509634	1.502759	99
Es	0.338208	-1.498756	-0.260113	99
Es	0.074382	0.483179	-1.281539	99
Es	-0.020020	-1.384737	0.283478	99
Es	0.025165	1.609604	0.918514	99
Es	1.224999	1.212067	0.471982	99
Es	0.080275	-0.203778	-0.287650	99
Es	1.735785	1.056020	0.576619	99
Es	0.083147	0.981983	-0.167827	99
Es	-0.675968	-2.221860	-0.376554	99
Es	0.412961	1.516681	0.272105	99
44
Properties=species:S:1:pos:R:3:Z:I:1 energy=-307.96725108159114 field_type=dipole dipole="0.000000 0.000000 0.000000" charge=0
C	-1.718583	0.504604	-0.633061	6
C	-0.200053	0.427964	-0.596781	6
C	0.412757	1.516764	0.272069	6
O	1.736067	1.056244	0.576629	8
C	1.637287	-0.364136	0.772969	6
C	0.407187	-0.791886	0.032059	6
C	-0.064273	-2.046066	-0.007721	6
H	-2.136323	-0.262646	-1.293071	1
H	-2.045433	1.480184	-1.008051	1
H	-2.152563	0.364134	0.363129	1
H	0.200457	0.518304	-1.614881	1
H	-0.130283	1.665154	1.213269	1
H	0.476197	2.477194	-0.248981	1
H	2.544657	-0.830936	0.380549	1
H	1.548067	-0.558456	1.846529	1
H	-0.966613	-2.300346	-0.554171	1
H	0.451447	-2.856076	0.499519	1
Es	0.083212	0.981961	-0.167761	99
Es	0.080142	-0.203719	-0.287799	99
Es	-2.007102	0.411012	0.046686	99
Es	0.284265	-2.597898	0.336247	99
Es	1.829941	1.185852	0.839646	99
Es	0.025160	1.609613	0.918470	99
Es	-1.999283	-0.018324	-1.082944	99
Es	0.407243	-0.791773	0.032060	99
Es	-0.958637	0.454078	-0.609361	99
Es	1.674221	0.516921	0.654722	99
Es	1.735812	1.056062	0.576617	99
Es	1.566795	-0.509652	1.502729	99
Es	0.412960	1.516678	0.272108	99
Es	-0.675927	-2.221965	-0.376620	99
Es	-0.064301	-2.046156	-0.007724	99
Es	-0.200067	0.427940	-0.596741	99
Es	1.023318	-0.598373	0.402442	99
Es	0.453260	2.174480	-0.083814	99
Es	-1.933158	1.171810	-0.889267	99
Es	2.247048	-0.689182	0.506892	99
Es	1.224908	1.213004	0.471935	99
Es	0.338285	-1.498705	-0.260017	99
Es	-0.020048	-1.384758	0.283335	99
Es	-1.718542	0.504606	-0.633068	99
Es	1.637265	-0.363924	0.772913	99
Es	0.074417	0.483155	-1.281555	99
Es	1.888287	1.086437	0.312823	99
44
Properties=species:S:1:pos:R:3:Z:I:1 energy=-307.96725108159114 field_type=dipole dipole="0.000000 0.000000 0.000000" charge=0
C	-1.718583	0.504604	-0.633061	6
C	-0.200053	0.427964	-0.596781	6
C	0.412757	1.516764	0.272069	6
O	1.736067	1.056244	0.576629	8
C	1.637287	-0.364136	0.772969	6
C	0.407187	-0.791886	0.032059	6
C	-0.064273	-2.046066	-0.007721	6
H	-2.136323	-0.262646	-1.293071	1
H	-2.045433	1.480184	-1.008051	1
H	-2.152563	0.364134	0.363129	1
H	0.200457	0.518304	-1.614881	1
H	-0.130283	1.665154	1.213269	1
H	0.476197	2.477194	-0.248981	1
H	2.544657	-0.830936	0.380549	1
H	1.548067	-0.558456	1.846529	1
H	-0.966613	-2.300346	-0.554171	1
H	0.451447	-2.856076	0.499519	1
Es	0.074390	0.483049	-1.281499	99
Es	-1.718546	0.504609	-0.633069	99
Es	-1.933189	1.171734	-0.889295	99
Es	1.890844	1.088326	0.313663	99
Es	0.025184	1.609606	0.918450	99
Es	1.566821	-0.509639	1.502700	99
Es	0.284365	-2.598000	0.336098	99
Es	-0.064298	-2.046142	-0.007725	99
Es	0.412956	1.516681	0.272106	99
Es	0.338140	-1.498588	-0.259879	99
Es	0.083159	0.982086	-0.167920	99
Es	0.453250	2.174480	-0.083742	99
Es	1.637262	-0.363921	0.772917	99
Es	0.080129	-0.203677	-0.287777	99
Es	-1.999378	-0.018382	-1.082854	99
Es	-2.007072	0.411142	0.046628	99
Es	1.225037	1.212710	0.471020	99
Es	2.247023	-0.689210	0.506897	99
Es	-0.675935	-2.221897	-0.376571	99
Es	-0.200066	0.427942	-0.596742	99
Es	-0.019986	-1.384846	0.283385	99
Es	1.827194	1.184306	0.840739	99
Es	1.735797	1.056026	0.576653	99
Es	1.674331	0.516933	0.653621	99
Es	-0.958556	0.454057	-0.609398	99
Es	1.023377	-0.598439	0.402482	99
Es	0.407241	-0.791764	0.032067	99
44
Properties=species:S:1:pos:R:3:Z:I:1 energy=-307.96725108159114 field_type=dipole dipole="0.000000 0.000000 0.000000" charge=0
C	-1.718583	0.504604	-0.633061	6
C	-0.200053	0.427964	-0.596781	6
C	0.412757	1.516764	0.272069	6
O	1.736067	1.056244	0.576629	8
C	1.637287	-0.364136	0.772969	6
C	0.407187	-0.791886	0.032059	6
C	-0.064273	-2.046066	-0.007721	6
H	-2.136323	-0.262646	-1.293071	1
H	-2.045433	1.480184	-1.008051	1
H	-2.152563	0.364134	0.363129	1
H	0.200457	0.518304	-1.614881	1
H	-0.130283	1.665154	1.213269	1
H	0.476197	2.477194	-0.248981	1
H	2.544657	-0.830936	0.380549	1
H	1.548067	-0.558456	1.846529	1
H	-0.966613	-2.300346	-0.554171	1
H	0.451447	-2.856076	0.499519	1
Es	-0.675967	-2.221866	-0.376527	99
Es	-0.064295	-2.046139	-0.007727	99
Es	1.735767	1.056056	0.576630	99
Es	0.025232	1.609712	0.918408	99
Es	0.412955	1.516680	0.272106	99
Es	-0.200065	0.427942	-0.596742	99
Es	0.074314	0.483103	-1.281459	99
Es	-1.718541	0.504605	-0.633068	99
Es	0.407239	-0.791763	0.032071	99
Es	1.888245	1.086055	0.313573	99
Es	1.566774	-0.509638	1.502638	99
Es	1.224889	1.212934	0.470990	99
Es	0.338103	-1.498546	-0.259818	99
Es	-0.019872	-1.384889	0.283280	99
Es	1.637261	-0.363923	0.772917	99
Es	-1.933181	1.171789	-0.889260	99
Es	-2.007146	0.410992	0.046658	99
Es	0.080055	-0.203704	-0.287949	99
Es	2.247071	-0.689197	0.506986	99
Es	1.023432	-0.598515	0.402473	99
Es	-1.999291	-0.018257	-1.082917	99
Es	-0.958614	0.454055	-0.609357	99
Es	0.284354	-2.598017	0.336089	99
Es	1.674562	0.516770	0.655551	99
Es	1.829757	1.186521	0.839000	99
Es	0.453264	2.174427	-0.083729	99
Es	0.083174	0.981992	-0.167861	99
44
Properties=species:S:1:pos:R:3:Z:I:1 energy=-307.96725108159114 field_type=dipole dipole="0.000000 0.000000 0.000000" charge=0
C	-1.718583	0.504604	-0.633061	6
C	-0.200053	0.427964	-0.596781	6
C	0.412757	1.516764	0.272069	6
O	1.736067	1.056244	0.576629	8
C	1.637287	-0.364136	0.772969	6
C	0.407187	-0.791886	0.032059	6
C	-0.064273	-2.046066	-0.007721	6
H	-2.136323	-0.262646	-1.293071	1
H	-2.045433	1.480184	-1.008051	1
H	-2.152563	0.364134	0.363129	1
H	0.200457	0.518304	-1.614881	1
H	-0.130283	1.665154	1.213269	1
H	0.476197	2.477194	-0.248981	1
H	2.544657	-0.830936	0.380549	1
H	1.548067	-0.558456	1.846529	1
H	-0.966613	-2.300346	-0.554171	1
H	0.451447	-2.856076	0.499519	1
Es	0.025273	1.609692	0.918354	99
Es	1.224720	1.212839	0.471858	99
Es	1.888212	1.087599	0.313892	99
Es	-0.958557	0.454075	-0.609384	99
Es	-1.933262	1.171788	-0.889092	99
Es	0.083074	0.981908	-0.167838	99
Es	1.637262	-0.363925	0.772915	99
Es	-1.999338	-0.018218	-1.082988	99
Es	1.023448	-0.598496	0.402534	99
Es	-0.200065	0.427942	-0.596741	99
Es	1.829220	1.185664	0.839168	99
Es	-0.676036	-2.221816	-0.376604	99
Es	-0.064301	-2.046133	-0.007715	99
Es	2.246960	-0.689196	0.506928	99
Es	1.675398	0.516233	0.654282	99
Es	0.453266	2.174461	-0.083645	99
Es	-0.019682	-1.384902	0.283125	99
Es	0.412956	1.516680	0.272107	99
Es	-1.718545	0.504606	-0.633069	99
Es	0.284322	-2.598014	0.336119	99
Es	0.079925	-0.203625	-0.288015	99
Es	0.407240	-0.791764	0.032067	99
Es	0.338086	-1.498591	-0.259627	99
Es	1.735747	1.056056	0.576616	99
Es	1.566830	-0.509714	1.502637	99
Es	0.074418	0.483135	-1.281506	99
Es	-2.007097	0.410893	0.046577	99
44
Properties=species:S:1:pos:R:3:Z:I:1 energy=-307.96725108159114 field_type=dipole dipole="0.000000 0.000000 0.000000" charge=0
C	-1.718583	0.504604	-0.633061	6
C	-0.200053	0.427964	-0.596781	6
C	0.412757	1.516764	0.272069	6
O	1.736067	1.056244	0.576629	8
C	1.637287	-0.364136	0.772969	6
C	0.407187	-0.791886	0.032059	6
C	-0.064273	-2.046066	-0.007721	6
H	-2.136323	-0.262646	-1.293071	1
H	-2.045433	1.480184	-1.008051	1
H	-2.152563	0.364134	0.363129	1
H	0.200457	0.518304	-1.614881	1
H	-0.130283	1.665154	1.213269	1
H	0.476197	2.477194	-0.248981	1
H	2.544657	-0.830936	0.380549	1
H	1.548067	-0.558456	1.846529	1
H	-0.966613	-2.300346	-0.554171	1
H	0.451447	-2.856076	0.499519	1
Es	0.074368	0.483164	-1.281382	99
Es	-0.958584	0.453939	-0.609315	99
Es	1.762117	1.104520	0.696294	99
Es	-1.718545	0.504608	-0.633069	99
Es	0.083144	0.981937	-0.167923	99
Es	-1.933202	1.171783	-0.889246	99
Es	-0.019815	-1.384868	0.283125	99
Es	2.246943	-0.689181	0.506933	99
Es	-2.007142	0.411094	0.046483	99
Es	1.678586	0.513673	0.662123	99
Es	-0.200064	0.427942	-0.596741	99
Es	-0.675905	-2.221862	-0.376578	99
Es	0.453253	2.174442	-0.083601	99
Es	1.771787	1.111340	0.697787	99
Es	0.284327	-2.598030	0.336155	99
Es	1.566815	-0.509758	1.502643	99
Es	0.080007	-0.203657	-0.288144	99
Es	1.637262	-0.363927	0.772916	99
Es	1.023503	-0.598501	0.402498	99
Es	0.338041	-1.498532	-0.259612	99
Es	1.918725	1.108696	0.323213	99
Es	-1.999396	-0.018307	-1.082852	99
Es	0.412955	1.516682	0.272106	99
Es	0.407239	-0.791766	0.032069	99
Es	0.025233	1.609672	0.918351	99
Es	-0.064295	-2.046133	-0.007727	99
Es	1.222120	1.220211	0.476448	99
44
Properties=species:S:1:pos:R:3:Z:I:1 energy=-307.96725108159114 field_type=dipole dipole="0.000000 0.000000 0.000000" charge=0
C	-1.718583	0.504604	-0.633061	6
C	-0.200053	0.427964	-0.596781	6
C	0.412757	1.516764	0.272069	6
O	1.736067	1.056244	0.576629	8
C	1.637287	-0.364136	0.772969	6
C	0.407187	-0.791886	0.032059	6
C	-0.064273	-2.046066	-0.007721	6
H	-2.136323	-0.262646	-1.293071	1
H	-2.045433	1.480184	-1.008051	1
H	-2.152563	0.364134	0.363129	1
H	0.200457	0.518304	-1.614881	1
H	-0.130283	1.665154	1.213269	1
H	0.476197	2.477194	-0.248981	1
H	2.544657	-0.830936	0.380549	1
H	1.548067	-0.558456	1.846529	1
H	-0.966613	-2.300346	-0.554171	1
H	0.451447	-2.856076	0.499519	1
Es	0.453221	2.174399	-0.083641	99
Es	0.079881	-0.203632	-0.288151	99
Es	-0.675925	-2.221881	-0.376580	99
Es	0.412945	1.516689	0.272107	99
Es	0.025247	1.609709	0.918305	99
Es	0.284317	-2.598000	0.336141	99
Es	-0.064297	-2.046141	-0.007725	99
Es	-2.007140	0.411052	0.046573	99
Es	1.637261	-0.363929	0.772916	99
Es	1.831302	1.186563	0.838259	99
Es	-1.933261	1.171703	-0.889231	99
Es	-0.200065	0.427942	-0.596743	99
Es	0.074374	0.483082	-1.281320	99
Es	1.224672	1.213595	0.472028	99
Es	1.886500	1.085664	0.313729	99
Es	0.083180	0.981994	-0.167895	99
Es	-0.958586	0.454042	-0.609468	99
Es	1.735925	1.056146	0.576621	99
Es	0.407238	-0.791766	0.032067	99
Es	-1.718544	0.504606	-0.633068	99
Es	1.566884	-0.509679	1.502550	99
Es	2.246951	-0.689217	0.506990	99
Es	1.674993	0.516480	0.655196	99
Es	-0.019709	-1.384902	0.283064	99
Es	0.338018	-1.498483	-0.259535	99
Es	-1.999389	-0.018233	-1.082834	99
Es	1.023484	-0.598621	0.402601	99
44
Properties=species:S:1:pos:R:3:Z:I:1 energy=-307.96725108159114 field_type=dipole dipole="0.000000 0.000000 0.000000" charge=0
C	-1.718583	0.504604	-0.633061	6
C	-0.200053	0.427964	-0.596781	6
C	0.412757	1.516764	0.272069	6
O	1.736067	1.056244	0.576629	8
C	1.637287	-0.364136	0.772969	6
C	0.407187	-0.791886	0.032059	6
C	-0.064273	-2.046066	-0.007721	6
H	-2.136323	-0.262646	-1.293071	1
H	-2.045433	1.480184	-1.008051	1
H	-2.152563	0.364134	0.363129	1
H	0.200457	0.518304	-1.614881	1
H	-0.130283	1.665154	1.213269	1
H	0.476197	2.477194	-0.248981	1
H	2.544657	-0.830936	0.380549	1
H	1.548067	-0.558456	1.846529	1
H	-0.966613	-2.300346	-0.554171	1
H	0.451447	-2.856076	0.499519	1
Es	1.566859	-0.509740	1.502520	99
Es	-1.933264	1.171720	-0.889154	99
Es	-2.007143	0.411040	0.046481	99
Es	0.338020	-1.498584	-0.259491	99
Es	-1.999430	-0.018234	-1.082875	99
Es	0.083130	0.982021	-0.167941	99
Es	-0.675993	-2.221835	-0.376506	99
Es	0.407242	-0.791761	0.032066	99
Es	1.735708	1.056074	0.576695	99
Es	-0.064291	-2.046137	-0.007726	99
Es	1.674987	0.516497	0.655877	99
Es	0.453200	2.174374	-0.083579	99
Es	1.831834	1.187391	0.837829	99
Es	-0.958550	0.454000	-0.609402	99
Es	-0.200064	0.427942	-0.596742	99
Es	0.025259	1.609726	0.918299	99
Es	0.074366	0.483079	-1.281322	99
Es	0.079859	-0.203588	-0.288229	99
Es	2.246897	-0.689217	0.507016	99
Es	-0.019544	-1.384857	0.282882	99
Es	1.637262	-0.363928	0.772916	99
Es	1.023500	-0.598641	0.402653	99
Es	-1.718545	0.504606	-0.633068	99
Es	0.284299	-2.598015	0.336205	99
Es	1.224607	1.214239	0.469792	99
Es	0.412955	1.516681	0.272106	99
Es	1.886313	1.084329	0.315651	99
44
Properties=species:S:1:pos:R:3:Z:I:1 energy=-307.96725108159114 field_type=dipole dipole="0.000000 0.000000 0.000000" charge=0
C	-1.718583	0.504604	-0.633061	6
C	-0.200053	0.427964	-0.596781	6
C	0.412757	1.516764	0.272069	6
O	1.736067	1.056244	0.576629	8
C	1.637287	-0.364136	0.772969	6
C	0.407187	-0.791886	0.032059	6
C	-0.064273	-2.046066	-0.007721	6
H	-2.136323	-0.262646	-1.293071	1
H	-2.045433	1.480184	-1.008051	1
H	-2.152563	0.364134	0.363129	1
H	0.200457	0.518304	-1.614881	1
H	-0.130283	1.665154	1.213269	1
H	0.476197	2.477194	-0.248981	1
H	2.544657	-0.830936	0.380549	1
H	1.548067	-0.558456	1.846529	1
H	-0.966613	-2.300346	-0.554171	1
H	0.451447	-2.856076	0.499519	1
Es	0.412952	1.516683	0.272105	99
Es	1.675639	0.515651	0.653382	99
Es	-1.933198	1.171676	-0.889246	99
Es	1.735908	1.056136	0.576619	99
Es	-2.007256	0.411100	0.046498	99
Es	-0.019518	-1.384909	0.282783	99
Es	1.224734	1.214164	0.470381	99
Es	-1.999409	-0.018189	-1.082841	99
Es	-0.675988	-2.221827	-0.376506	99
Es	-1.718545	0.504606	-0.633069	99
Es	0.407241	-0.791764	0.032066	99
Es	-0.958567	0.453938	-0.609338	99
Es	0.025283	1.609732	0.918235	99
Es	0.074346	0.483025	-1.281303	99
Es	1.825680	1.182879	0.838972	99
Es	-0.200064	0.427942	-0.596741	99
Es	0.337963	-1.498478	-0.259394	99
Es	2.246900	-0.689245	0.507007	99
Es	1.891512	1.089719	0.316497	99
Es	0.079814	-0.203535	-0.288302	99
Es	0.453178	2.174382	-0.083563	99
Es	1.637262	-0.363927	0.772916	99
Es	0.284293	-2.598022	0.336204	99
Es	0.083165	0.982002	-0.167948	99
Es	-0.064296	-2.046141	-0.007725	99
Es	1.023558	-0.598709	0.402758	99
Es	1.566887	-0.509706	1.502503	99
44
Properties=species:S:1:pos:R:3:Z:I:1 energy=-307.96725108159114 field_type=dipole dipole="0.000000 0.000000 0.000000" charge=0
C	-1.718583	0.504604	-0.633061	6
C	-0.200053	0.427964	-0.596781	6
C	0.412757	1.516764	0.272069	6
O	1.736067	1.056244	0.576629	8
C	1.637287	-0.364136	0.772969	6
C	0.407187	-0.791886	0.032059	6
C	-0.064273	-2.046066	-0.007721	6
H	-2.136323	-0.262646	-1.293071	1
H	-2.045433	1.480184	-1.008051	1
H	-2.152563	0.364134	0.363129	1
H	0.200457	0.518304	-1.614881	1
H	-0.130283	1.665154	1.213269	1
H	0.476197	2.477194	-0.248981	1
H	2.544657	-0.830936	0.380549	1
H	1.548067	-0.558456	1.846529	1
H	-0.966613	-2.300346	-0.554171	1
H	0.451447	-2.856076	0.499519	1
Es	0.337934	-1.498446	-0.259298	99
Es	0.412951	1.516682	0.272104	99
Es	0.074477	0.483089	-1.281290	99
Es	1.566847	-0.509748	1.502472	99
Es	-1.933310	1.171645	-0.889155	99
Es	0.284305	-2.598041	0.336186	99
Es	-0.064297	-2.046146	-0.007726	99
Es	0.079835	-0.203475	-0.288352	99
Es	1.023600	-0.598769	0.402781	99
Es	1.637262	-0.363928	0.772916	99
Es	0.083001	0.981905	-0.167940	99
Es	-0.958524	0.453938	-0.609548	99
Es	-0.200061	0.427946	-0.596735	99
Es	-1.999483	-0.018158	-1.082800	99
Es	1.888473	1.086960	0.315986	99
Es	0.453203	2.174349	-0.083517	99
Es	0.025315	1.609799	0.918200	99
Es	-2.007153	0.411057	0.046494	99
Es	-0.019536	-1.384898	0.282723	99
Es	0.407240	-0.791763	0.032066	99
Es	1.735835	1.056088	0.576624	99
Es	1.829090	1.185106	0.836973	99
Es	2.246875	-0.689237	0.507046	99
Es	1.675821	0.515842	0.655473	99
Es	-1.718545	0.504606	-0.633069	99
Es	-0.675954	-2.221826	-0.376511	99
Es	1.224275	1.214604	0.470850	99
44
Properties=species:S:1:pos:R:3:Z:I:1 energy=-307.96725108159114 field_type=dipole dipole="0.000000 0.000000 0.000000" charge=0
C	-1.718583	0.504604	-0.633061	6
C	-0.200053	0.427964	-0.596781	6
C	0.412757	1.516764	0.272069	6
O	1.736067	1.056244	0.576629	8
C	1.637287	-0.364136	0.772969	6
C	0.407187	-0.791886	0.032059	6
C	-0.064273	-2.046066	-0.007721	6
H	-2.136323	-0.262646	-1.293071	1
H	-2.045433	1.480184	-1.008051	1
H	-2.152563	0.364134	0.363129	1
H	0.200457	0.518304	-1.614881	1
H	-0.130283	1.665154	1.213269	1
H	0.476197	2.477194	-0.248981	1
H	2.544657	-0.830936	0.380549	1
H	1.548067	-0.558456	1.846529	1
H	-0.966613	-2.300346	-0.554171	1
H	0.451447	-2.856076	0.499519	1
Es	-2.007215	0.411054	0.046481	99
Es	0.079689	-0.203467	-0.288347	99
Es	0.284236	-2.598020	0.336288	99
Es	-0.676103	-2.221772	-0.376336	99
Es	0.025316	1.609788	0.918186	99
Es	-1.999469	-0.018122	-1.082809	99
Es	-1.718545	0.504606	-0.633068	99
Es	1.676032	0.515456	0.653493	99
Es	1.826625	1.183693	0.838588	99
Es	1.890490	1.089104	0.317319	99
Es	1.023613	-0.598812	0.402860	99
Es	-0.019139	-1.384743	0.282461	99
Es	-0.064300	-2.046145	-0.007720	99
Es	0.453182	2.174341	-0.083487	99
Es	0.407242	-0.791764	0.032063	99
Es	1.224616	1.214287	0.469791	99
Es	1.735755	1.056056	0.576680	99
Es	0.412953	1.516682	0.272105	99
Es	1.637261	-0.363931	0.772916	99
Es	0.083128	0.981979	-0.167964	99
Es	2.246868	-0.689233	0.507082	99
Es	1.566864	-0.509733	1.502446	99
Es	0.074379	0.483029	-1.281238	99
Es	-0.200064	0.427943	-0.596743	99
Es	-1.933281	1.171636	-0.889170	99
Es	-0.958554	0.453960	-0.609464	99
Es	0.337893	-1.498692	-0.259460	99
44
Properties=species:S:1:pos:R:3:Z:I:1 energy=-307.96725108159114 field_type=dipole dipole="0.000000 0.000000 0.000000" charge=0
C	-1.718583	0.504604	-0.633061	6
C	-0.200053	0.427964	-0.596781	6
C	0.412757	1.516764	0.272069	6
O	1.736067	1.056244	0.576629	8
C	1.637287	-0.364136	0.772969	6
C	0.407187	-0.791886	0.032059	6
C	-0.064273	-2.046066	-0.007721	6
H	-2.136323	-0.262646	-1.293071	1
H	-2.045433	1.480184	-1.008051	1
H	-2.152563	0.364134	0.363129	1
H	0.200457	0.518304	-1.614881	1
H	-0.130283	1.665154	1.213269	1
H	0.476197	2.477194	-0.248981	1
H	2.544657	-0.830936	0.380549	1
H	1.548067	-0.558456	1.846529	1
H	-0.966613	-2.300346	-0.554171	1
H	0.451447	-2.856076	0.499519	1
Es	1.828161	1.184483	0.837564	99
Es	1.889009	1.088051	0.316863	99
Es	-0.675910	-2.221861	-0.376614	99
Es	0.407243	-0.791764	0.032063	99
Es	1.224598	1.214671	0.470511	99
Es	-0.200055	0.427939	-0.596743	99
Es	0.025317	1.609783	0.918124	99
Es	0.074340	0.482932	-1.281133	99
Es	-1.999463	-0.018131	-1.082809	99
Es	-0.958566	0.454037	-0.609518	99
Es	0.412952	1.516682	0.272105	99
Es	-1.933295	1.171663	-0.889158	99
Es	0.337879	-1.498380	-0.259055	99
Es	1.675956	0.515369	0.654364	99
Es	0.284280	-2.598006	0.336181	99
Es	-0.019485	-1.384926	0.282718	99
Es	-1.718545	0.504605	-0.633068	99
Es	1.566876	-0.509759	1.502424	99
Es	2.246847	-0.689219	0.507086	99
Es	-0.064298	-2.046142	-0.007720	99
Es	1.637262	-0.363937	0.772917	99
Es	0.453198	2.174353	-0.083416	99
Es	0.083194	0.982052	-0.168077	99
Es	1.023694	-0.598872	0.402749	99
Es	1.735815	1.056052	0.576651	99
Es	0.079669	-0.203531	-0.288515	99
Es	-2.007199	0.411038	0.046461	99
44
Properties=species:S:1:pos:R:3:Z:I:1 energy=-307.96725108159114 field_type=dipole dipole="0.000000 0.000000 0.000000" charge=0
C	-1.718583	0.504604	-0.633061	6
C	-0.200053	0.427964	-0.596781	6
C	0.412757	1.516764	0.272069	6
O	1.736067	1.056244	0.576629	8
C	1.637287	-0.364136	0.772969	6
C	0.407187	-0.791886	0.032059	6
C	-0.064273	-2.046066	-0.007721	6
H	-2.136323	-0.262646	-1.293071	1
H	-2.045433	1.480184	-1.008051	1
H	-2.152563	0.364134	0.363129	1
H	0.200457	0.518304	-1.614881	1
H	-0.130283	1.665154	1.213269	1
H	0.476197	2.477194	-0.248981	1
H	2.544657	-0.830936	0.380549	1
H	1.548067	-0.558456	1.846529	1
H	-0.966613	-2.300346	-0.554171	1
H	0.451447	-2.856076	0.499519	1
Es	-0.200064	0.427943	-0.596737	99
Es	1.637262	-0.363933	0.772916	99
Es	-0.064289	-2.046126	-0.007728	99
Es	1.893338	1.091369	0.318980	99
Es	-1.718546	0.504606	-0.633069	99
Es	-0.958518	0.453989	-0.609498	99
Es	0.083171	0.982055	-0.167950	99
Es	1.735806	1.056071	0.576588	99
Es	1.023737	-0.598930	0.402843	99
Es	0.284300	-2.598040	0.336165	99
Es	0.412951	1.516683	0.272104	99
Es	0.025380	1.609838	0.918136	99
Es	-1.933336	1.171582	-0.889189	99
Es	1.566888	-0.509746	1.502416	99
Es	-0.675993	-2.221810	-0.376438	99
Es	1.224757	1.214223	0.468476	99
Es	0.407240	-0.791768	0.032068	99
Es	2.246807	-0.689233	0.507120	99
Es	0.074391	0.482854	-1.281122	99
Es	0.079552	-0.203393	-0.288448	99
Es	1.676557	0.515094	0.652617	99
Es	1.823140	1.181898	0.839204	99
Es	-1.999459	-0.018116	-1.082761	99
Es	0.453148	2.174322	-0.083487	99
Es	-2.007265	0.411081	0.046413	99
Es	-0.019288	-1.384959	0.282544	99
Es	0.337808	-1.498373	-0.259209	99
44
Properties=species:S:1:pos:R:3:Z:I:1 energy=-307.96725108159114 field_type=dipole dipole="0.000000 0.000000 0.000000" charge=0
C	-1.718583	0.504604	-0.633061	6
C	-0.200053	0.427964	-0.596781	6
C	0.412757	1.516764	0.272069	6
O	1.736067	1.056244	0.576629	8
C	1.637287	-0.364136	0.772969	6
C	0.407187	-0.791886	0.032059	6
C	-0.064273	-2.046066	-0.007721	6
H	-2.136323	-0.262646	-1.293071	1
H	-2.045433	1.480184	-1.008051	1
H	-2.152563	0.364134	0.363129	1
H	0.200457	0.518304	-1.614881	1
H	-0.130283	1.665154	1.213269	1
H	0.476197	2.477194	-0.248981	1
H	2.544657	-0.830936	0.380549	1
H	1.548067	-0.558456	1.846529	1
H	-0.966613	-2.300346	-0.554171	1
H	0.451447	-2.856076	0.499519	1
Es	1.827530	1.183261	0.838244	99
Es	0.083193	0.982037	-0.168081	99
Es	1.566823	-0.509742	1.502350	99
Es	-2.007201	0.411094	0.046388	99
Es	1.224454	1.214982	0.470680	99
Es	0.079616	-0.203383	-0.288602	99
Es	-0.675985	-2.221817	-0.376479	99
Es	-1.999536	-0.018099	-1.082694	99
Es	1.637262	-0.363934	0.772916	99
Es	2.246847	-0.689256	0.507174	99
Es	0.074318	0.482913	-1.281115	99
Es	1.023840	-0.598986	0.402738	99
Es	0.025333	1.609840	0.918100	99
Es	-1.933307	1.171679	-0.889198	99
Es	0.284267	-2.598022	0.336225	99
Es	1.676349	0.515146	0.652658	99
Es	1.735792	1.056069	0.576606	99
Es	-1.718545	0.504605	-0.633069	99
Es	-0.064293	-2.046138	-0.007727	99
Es	-0.019263	-1.385012	0.282539	99
Es	0.337779	-1.498277	-0.259005	99
Es	-0.200062	0.427942	-0.596748	99
Es	1.889496	1.089258	0.317754	99
Es	-0.958587	0.453818	-0.609453	99
Es	0.453163	2.174289	-0.083421	99
Es	0.412952	1.516683	0.272105	99
Es	0.407239	-0.791770	0.032068	99
44
Properties=species:S:1:pos:R:3:Z:I:1 energy=-307.96725108159114 field_type=dipole dipole="0.000000 0.000000 0.000000" charge=0
C	-1.718583	0.504604	-0.633061	6
C	-0.200053	0.427964	-0.596781	6
C	0.412757	1.516764	0.272069	6
O	1.736067	1.056244	0.576629	8
C	1.637287	-0.364136	0.772969	6
C	0.407187	-0.791886	0.032059	6
C	-0.064273	-2.046066	-0.007721	6
H	-2.136323	-0.262646	-1.293071	1
H	-2.045433	1.480184	-1.008051	1
H	-2.152563	0.364134	0.363129	1
H	0.200457	0.518304	-1.614881	1
H	-0.130283	1.665154	1.213269	1
H	0.476197	2.477194	-0.248981	1
H	2.544657	-0.830936	0.380549	1
H	1.548067	-0.558456	1.846529	1
H	-0.966613	-2.300346	-0.554171	1
H	0.451447	-2.856076	0.499519	1
Es	1.735753	1.056078	0.576608	99
Es	0.083209	0.982148	-0.168216	99
Es	0.284276	-2.598000	0.336238	99
Es	-0.200062	0.427942	-0.596744	99
Es	1.566906	-0.509760	1.502330	99
Es	-2.007239	0.411142	0.046423	99
Es	-1.999533	-0.018129	-1.082763	99
Es	1.889082	1.088891	0.317483	99
Es	-0.064293	-2.046136	-0.007727	99
Es	0.337777	-1.498318	-0.258932	99
Es	0.412949	1.516684	0.272105	99
Es	-1.718546	0.504603	-0.633072	99
Es	1.828085	1.183433	0.837257	99
Es	0.025322	1.609762	0.918046	99
Es	2.246786	-0.689261	0.507138	99
Es	-0.676000	-2.221835	-0.376475	99
Es	1.637262	-0.363930	0.772917	99
Es	1.224222	1.215139	0.471239	99
Es	-1.933281	1.171572	-0.889168	99
Es	0.074347	0.482807	-1.281113	99
Es	0.407243	-0.791767	0.032063	99
Es	1.676504	0.515164	0.653398	99
Es	0.079489	-0.203349	-0.288598	99
Es	-0.019189	-1.384982	0.282370	99
Es	0.453186	2.174345	-0.083291	99
Es	-0.958548	0.453960	-0.609484	99
Es	1.023769	-0.599022	0.402926	99
44
Properties=species:S:1:pos:R:3:Z:I:1 energy=-307.96725108159114 field_type=dipole dipole="0.000000 0.000000 0.000000" charge=0
C	-1.718583	0.504604	-0.633061	6
C	-0.200053	0.427964	-0.596781	6
C	0.412757	1.516764	0.272069	6
O	1.736067	1.056244	0.576629	8
C	1.637287	-0.364136	0.772969	6
C	0.407187	-0.791886	0.032059	6
C	-0.064273	-2.046066	-0.007721	6
H	-2.136323	-0.262646	-1.293071	1
H	-2.045433	1.480184	-1.008051	1
H	-2.152563	0.364134	0.363129	1
H	0.200457	0.518304	-1.614881	1
H	-0.130283	1.665154	1.213269	1
H	0.476197	2.477194	-0.248981	1
H	2.544657	-0.830936	0.380549	1
H	1.548067	-0.558456	1.846529	1
H	-0.966613	-2.300346	-0.554171	1
H	0.451447	-2.856076	0.499519	1
Es	-2.007278	0.411071	0.046365	99
Es	-0.675989	-2.221826	-0.376574	99
Es	-1.718549	0.504605	-0.633065	99
Es	0.079624	-0.203254	-0.288577	99
Es	0.025402	1.609864	0.918007	99
Es	-0.200063	0.427946	-0.596738	99
Es	0.407238	-0.791764	0.032072	99
Es	1.735786	1.056050	0.576656	99
Es	-0.064293	-2.046135	-0.007723	99
Es	0.337679	-1.498311	-0.258855	99
Es	1.637262	-0.363932	0.772917	99
Es	1.224547	1.215017	0.469736	99
Es	1.566973	-0.509855	1.502389	99
Es	-1.999496	-0.018082	-1.082774	99
Es	1.676186	0.515324	0.654023	99
Es	1.825753	1.182880	0.837554	99
Es	0.083109	0.982067	-0.168163	99
Es	0.412948	1.516682	0.272103	99
Es	-0.019175	-1.384961	0.282306	99
Es	0.284353	-2.598025	0.336221	99
Es	0.453147	2.174291	-0.083321	99
Es	-0.958570	0.453850	-0.609398	99
Es	1.023836	-0.599110	0.402942	99
Es	0.074313	0.482842	-1.281108	99
Es	1.891334	1.089513	0.318030	99
Es	2.246712	-0.689167	0.507076	99
Es	-1.933315	1.171602	-0.889149	99
44
Properties=species:S:1:pos:R:3:Z:I:1 energy=-307.96725108159114 field_type=dipole dipole="0.000000 0.000000 0.000000" charge=0
C	-1.718583	0.504604	-0.633061	6
C	-0.200053	0.427964	-0.596781	6
C	0.412757	1.516764	0.272069	6
O	1.736067	1.056244	0.576629	8
C	1.637287	-0.364136	0.772969	6
C	0.407187	-0.791886	0.032059	6
C	-0.064273	-2.046066	-0.007721	6
H	-2.136323	-0.262646	-1.293071	1
H	-2.045433	1.480184	-1.008051	1
H	-2.152563	0.364134	0.363129	1
H	0.200457	0.518304	-1.614881	1
H	-0.130283	1.665154	1.213269	1
H	0.476197	2.477194	-0.248981	1
H	2.544657	-0.830936	0.380549	1
H	1.548067	-0.558456	1.846529	1
H	-0.966613	-2.300346	-0.554171	1
H	0.451447	-2.856076	0.499519	1
Es	0.337682	-1.498205	-0.258748	99
Es	1.566892	-0.509763	1.502283	99
Es	0.025384	1.609940	0.918023	99
Es	-0.064297	-2.046141	-0.007723	99
Es	0.453153	2.174211	-0.083359	99
Es	0.083138	0.982023	-0.168054	99
Es	-0.675976	-2.221826	-0.376527	99
Es	-1.718545	0.504605	-0.633069	99
Es	-1.999540	-0.018062	-1.082747	99
Es	1.023833	-0.599121	0.402922	99
Es	2.246763	-0.689244	0.507222	99
Es	-0.019107	-1.385035	0.282275	99
Es	1.637257	-0.363941	0.772918	99
Es	1.888893	1.089425	0.317151	99
Es	0.407242	-0.791766	0.032063	99
Es	1.676667	0.514852	0.653288	99
Es	0.412949	1.516684	0.272105	99
Es	-0.958504	0.453912	-0.609492	99
Es	0.079441	-0.203329	-0.288748	99
Es	0.074335	0.482883	-1.281072	99
Es	-1.933362	1.171567	-0.889111	99
Es	1.828171	1.182759	0.836439	99
Es	-2.007252	0.411070	0.046357	99
Es	-0.200063	0.427943	-0.596741	99
Es	0.284326	-2.598026	0.336184	99
Es	1.735818	1.056106	0.576617	99
Es	1.224178	1.215659	0.472498	99
44
Properties=species:S:1:pos:R:3:Z:I:1 energy=-307.96725108159114 field_type=dipole dipole="0.000000 0.000000 0.000000" charge=0
C	-1.718583	0.504604	-0.633061	6
C	-0.200053	0.427964	-0.596781	6
C	0.412757	1.516764	0.272069	6
O	1.736067	1.056244	0.576629	8
C	1.637287	-0.364136	0.772969	6
C	0.407187	-0.791886	0.032059	6
C	-0.064273	-2.046066	-0.007721	6
H	-2.136323	-0.262646	-1.293071	1
H	-2.045433	1.480184	-1.008051	1
H	-2.152563	0.364134	0.363129	1
H	0.200457	0.518304	-1.614881	1
H	-0.130283	1.665154	1.213269	1
H	0.476197	2.477194	-0.248981	1
H	2.544657	-0.830936	0.380549	1
H	1.548067	-0.558456	1.846529	1
H	-0.966613	-2.300346	-0.554171	1
H	0.451447	-2.856076	0.499519	1
Es	0.083071	0.981981	-0.168074	99
Es	0.079343	-0.203227	-0.288773	99
Es	0.074449	0.482856	-1.281112	99
Es	-1.718547	0.504606	-0.633069	99
Es	-2.007201	0.411036	0.046388	99
Es	-0.064296	-2.046139	-0.007725	99
Es	1.895070	1.092966	0.320699	99
Es	0.337677	-1.498261	-0.258712	99
Es	0.284290	-2.598026	0.336286	99
Es	0.407240	-0.791765	0.032067	99
Es	0.025429	1.609893	0.917987	99
Es	0.412949	1.516683	0.272103	99
Es	1.224654	1.214983	0.468052	99
Es	1.735804	1.056049	0.576570	99
Es	1.023845	-0.599164	0.403016	99
Es	1.677146	0.514609	0.652205	99
Es	0.453137	2.174259	-0.083272	99
Es	1.566890	-0.509774	1.502262	99
Es	-0.958491	0.453995	-0.609609	99
Es	2.246737	-0.689269	0.507225	99
Es	1.821077	1.180205	0.838454	99
Es	-1.933386	1.171493	-0.888981	99
Es	-0.200063	0.427943	-0.596740	99
Es	1.637261	-0.363933	0.772917	99
Es	-1.999605	-0.018032	-1.082819	99
Es	-0.018994	-1.384989	0.282083	99
Es	-0.676011	-2.221801	-0.376476	99
44
Properties=species:S:1:pos:R:3:Z:I:1 energy=-307.96725108159114 field_type=dipole dipole="0.000000 0.000000 0.000000" charge=0
C	-1.718583	0.504604	-0.633061	6
C	-0.200053	0.427964	-0.596781	6
C	0.412757	1.516764	0.272069	6
O	1.736067	1.056244	0.576629	8
C	1.637287	-0.364136	0.772969	6
C	0.407187	-0.791886	0.032059	6
C	-0.064273	-2.046066	-0.007721	6
H	-2.136323	-0.262646	-1.293071	1
H	-2.045433	1.480184	-1.008051	1
H	-2.152563	0.364134	0.363129	1
H	0.200457	0.518304	-1.614881	1
H	-0.130283	1.665154	1.213269	1
H	0.476197	2.477194	-0.248981	1
H	2.544657	-0.830936	0.380549	1
H	1.548067	-0.558456	1.846529	1
H	-0.966613	-2.300346	-0.554171	1
H	0.451447	-2.856076	0.499519	1
Es	0.083129	0.982094	-0.168121	99
Es	0.284275	-2.598057	0.336253	99
Es	-0.064295	-2.046136	-0.007726	99
Es	1.890349	1.090791	0.319943	99
Es	0.453122	2.174263	-0.083241	99
Es	-1.718546	0.504606	-0.633069	99
Es	-0.200065	0.427945	-0.596743	99
Es	1.566798	-0.509828	1.502291	99
Es	-1.999530	-0.018006	-1.082716	99
Es	1.637261	-0.363934	0.772916	99
Es	0.412947	1.516684	0.272103	99
Es	1.735783	1.056033	0.576542	99
Es	0.025439	1.609875	0.917975	99
Es	-0.018952	-1.385017	0.282097	99
Es	1.024014	-0.599138	0.402983	99
Es	2.246755	-0.689272	0.507181	99
Es	0.079317	-0.203213	-0.288834	99
Es	1.825874	1.182264	0.837575	99
Es	-2.007318	0.411073	0.046347	99
Es	-0.675987	-2.221780	-0.376409	99
Es	-0.958463	0.453874	-0.609495	99
Es	1.677401	0.514334	0.652022	99
Es	1.224331	1.215414	0.469904	99
Es	-1.933386	1.171503	-0.889128	99
Es	0.337629	-1.498208	-0.258691	99
Es	0.074348	0.482780	-1.281065	99
Es	0.407246	-0.791762	0.032061	99
44
Properties=species:S:1:pos:R:3:Z:I:1 energy=-307.96725108159114 field_type=dipole dipole="0.000000 0.000000 0.000000" charge=0
C	-1.718583	0.504604	-0.633061	6
C	-0.200053	0.427964	-0.596781	6
C	0.412757	1.516764	0.272069	6
O	1.736067	1.056244	0.576629	8
C	1.637287	-0.364136	0.772969	6
C	0.407187	-0.791886	0.032059	6
C	-0.064273	-2.046066	-0.007721	6
H	-2.136323	-0.262646	-1.293071	1
H	-2.045433	1.480184	-1.008051	1
H	-2.152563	0.364134	0.363129	1
H	0.200457	0.518304	-1.614881	1
H	-0.130283	1.665154	1.213269	1
H	0.476197	2.477194	-0.248981	1
H	2.544657	-0.830936	0.380549	1
H	1.548067	-0.558456	1.846529	1
H	-0.966613	-2.300346	-0.554171	1
H	0.451447	-2.856076	0.499519	1
Es	-1.933391	1.171486	-0.889163	99
Es	1.023915	-0.599186	0.403058	99
Es	0.407240	-0.791766	0.032066	99
Es	1.825137	1.182356	0.837034	99
Es	-0.958496	0.453892	-0.609476	99
Es	0.074393	0.482830	-1.281035	99
Es	0.412946	1.516684	0.272103	99
Es	-1.999536	-0.018019	-1.082680	99
Es	0.453144	2.174236	-0.083215	99
Es	0.284281	-2.598024	0.336255	99
Es	-2.007335	0.411114	0.046318	99
Es	1.637260	-0.363935	0.772917	99
Es	-0.676040	-2.221786	-0.376480	99
Es	-0.064294	-2.046135	-0.007724	99
Es	0.083115	0.982009	-0.168140	99
Es	-1.718546	0.504606	-0.633067	99
Es	0.337628	-1.498182	-0.258556	99
Es	1.224340	1.215330	0.469473	99
Es	1.566921	-0.509812	1.502223	99
Es	0.079314	-0.203218	-0.288917	99
Es	1.891254	1.090504	0.319610	99
Es	1.677303	0.514623	0.653331	99
Es	-0.200065	0.427944	-0.596740	99
Es	1.735773	1.056042	0.576591	99
Es	2.246686	-0.689272	0.507202	99
Es	0.025432	1.609911	0.917937	99
Es	-0.018906	-1.385050	0.282031	99
44
Properties=species:S:1:pos:R:3:Z:I:1 energy=-307.96725108159114 field_type=dipole dipole="0.000000 0.000000 0.000000" charge=0
C	-1.718583	0.504604	-0.633061	6
C	-0.200053	0.427964	-0.596781	6
C	0.412757	1.516764	0.272069	6
O	1.736067	1.056244	0.576629	8
C	1.637287	-0.364136	0.772969	6
C	0.407187	-0.791886	0.032059	6
C	-0.064273	-2.046066	-0.007721	6
H	-2.136323	-0.262646	-1.293071	1
H	-2.045433	1.480184	-1.008051	1
H	-2.152563	0.364134	0.363129	1
H	0.200457	0.518304	-1.614881	1
H	-0.130283	1.665154	1.213269	1
H	0.476197	2.477194	-0.248981	1
H	2.544657	-0.830936	0.380549	1
H	1.548067	-0.558456	1.846529	1
H	-0.966613	-2.300346	-0.554171	1
H	0.451447	-2.856076	0.499519	1
Es	1.024002	-0.599239	0.403111	99
Es	-1.999608	-0.018027	-1.082693	99
Es	-1.933399	1.171538	-0.889080	99
Es	1.676960	0.515079	0.655473	99
Es	0.083154	0.982078	-0.168185	99
Es	0.284270	-2.598015	0.336323	99
Es	0.074312	0.482787	-1.281010	99
Es	1.888352	1.087485	0.318398	99
Es	0.453122	2.174219	-0.083195	99
Es	2.246740	-0.689290	0.507255	99
Es	1.637260	-0.363935	0.772913	99
Es	1.735955	1.056165	0.576618	99
Es	-1.718545	0.504604	-0.633070	99
Es	-2.007258	0.411094	0.046275	99
Es	1.566852	-0.509801	1.502167	99
Es	1.224188	1.215740	0.470070	99
Es	0.412946	1.516683	0.272101	99
Es	0.337573	-1.498178	-0.258514	99
Es	-0.200062	0.427942	-0.596740	99
Es	-0.958516	0.453819	-0.609462	99
Es	0.079360	-0.203210	-0.288977	99
Es	-0.018891	-1.385007	0.281886	99
Es	1.828353	1.184432	0.835495	99
Es	0.407239	-0.791764	0.032065	99
Es	-0.064297	-2.046135	-0.007722	99
Es	0.025436	1.609915	0.917922	99
Es	-0.676026	-2.221797	-0.376469	99
