45
Properties=species:S:1:pos:R:3:Z:I:1 energy=-344.97081366137644 field_type=dipole dipole="0.000000 0.000000 0.000000" charge=0
C	-1.563013	-0.397175	0.305789	6
C	-0.085503	-0.212195	-0.016721	6
C	0.211487	-0.188595	-1.517981	6
O	-0.372653	0.964045	-2.124120	8
C	0.627157	0.873845	0.810569	6
C	1.452067	-0.277245	1.375229	6
O	0.691407	-1.258055	0.633219	8
H	-1.724373	-0.513115	1.383659	1
H	-1.964263	-1.290645	-0.186241	1
H	-2.150643	0.465695	-0.025311	1
H	-0.173023	-1.083715	-2.019980	1
H	1.290517	-0.144345	-1.702211	1
H	-1.319853	0.778665	-2.245620	1
H	0.008087	1.390015	1.549709	1
H	1.203667	1.609395	0.243279	1
H	2.505997	-0.285735	1.082469	1
H	1.362937	-0.430835	2.454260	1
Es	1.393735	-0.380153	2.118621	99
Es	0.875538	-1.391725	0.421485	99
Es	0.225515	0.403775	0.359492	99
Es	0.505926	-1.408484	0.828364	99
Es	-0.085407	-0.212345	-0.016616	99
Es	0.211361	-0.188394	-1.518062	99
Es	0.949048	-0.154966	-1.633578	99
Es	-0.839179	-0.300213	0.137292	99
Es	-0.881531	0.846074	-2.176821	99
Es	-0.372826	0.963728	-2.124051	99
Es	-1.563014	-0.397161	0.305770	99
Es	1.451932	-0.277372	1.375103	99
Es	0.996430	-0.908814	0.926356	99
Es	1.018984	1.371288	0.423210	99
Es	0.387439	-0.883498	0.372994	99
Es	1.083867	0.361391	1.140547	99
Es	-0.256137	0.979566	-2.403431	99
Es	-0.176680	0.517970	-1.891117	99
Es	-1.830630	-1.003228	-0.036203	99
Es	0.200315	1.220955	1.313822	99
Es	-1.664986	-0.469577	1.035602	99
Es	-0.349554	1.193127	-1.918900	99
Es	0.627163	0.873798	0.810570	99
Es	0.057529	-0.201487	-0.767975	99
Es	-1.956628	0.192822	0.072630	99
Es	2.178123	-0.278167	1.175101	99
Es	0.691421	-1.257774	0.633216	99
Es	-0.060044	-0.808076	-1.852071	99
45
Properties=species:S:1:pos:R:3:Z:I:1 energy=-344.97081366137644 field_type=dipole dipole="0.000000 0.000000 0.000000" charge=0
C	-1.563013	-0.397175	0.305789	6
C	-0.085503	-0.212195	-0.016721	6
C	0.211487	-0.188595	-1.517981	6
O	-0.372653	0.964045	-2.124120	8
C	0.627157	0.873845	0.810569	6
C	1.452067	-0.277245	1.375229	6
O	0.691407	-1.258055	0.633219	8
H	-1.724373	-0.513115	1.383659	1
H	-1.964263	-1.290645	-0.186241	1
H	-2.150643	0.465695	-0.025311	1
H	-0.173023	-1.083715	-2.019980	1
H	1.290517	-0.144345	-1.702211	1
H	-1.319853	0.778665	-2.245620	1
H	0.008087	1.390015	1.549709	1
H	1.203667	1.609395	0.243279	1
H	2.505997	-0.285735	1.082469	1
H	1.362937	-0.430835	2.454260	1
Es	0.997811	-0.908721	0.924695	99
Es	0.057526	-0.201491	-0.767822	99
Es	0.225337	0.403943	0.359519	99
Es	0.874076	-1.394902	0.422481	99
Es	1.018976	1.371188	0.423217	99
Es	-0.060003	-0.808023	-1.852025	99
Es	0.691532	-1.257650	0.633109	99
Es	1.083963	0.361364	1.140694	99
Es	0.949059	-0.154998	-1.633601	99
Es	-0.839139	-0.300202	0.137117	99
Es	1.393745	-0.380149	2.118636	99
Es	-1.830648	-1.003205	-0.036283	99
Es	-0.351195	1.191178	-1.918136	99
Es	-0.881485	0.845750	-2.177668	99
Es	-0.085405	-0.212344	-0.016615	99
Es	-1.665044	-0.469600	1.035628	99
Es	-0.372826	0.963748	-2.124041	99
Es	2.178040	-0.278197	1.175177	99
Es	-0.254969	0.981975	-2.403279	99
Es	0.505449	-1.405529	0.829946	99
Es	1.451932	-0.277374	1.375102	99
Es	-0.176291	0.517823	-1.891239	99
Es	-1.563012	-0.397161	0.305768	99
Es	0.387914	-0.883575	0.372125	99
Es	-1.956601	0.192728	0.072701	99
Es	0.627164	0.873798	0.810572	99
Es	0.200439	1.221087	1.313628	99
Es	0.211368	-0.188397	-1.518060	99
45
Properties=species:S:1:pos:R:3:Z:I:1 energy=-344.97081366137644 field_type=dipole dipole="0.000000 0.000000 0.000000" charge=0
C	-1.563013	-0.397175	0.305789	6
C	-0.085503	-0.212195	-0.016721	6
C	0.211487	-0.188595	-1.517981	6
O	-0.372653	0.964045	-2.124120	8
C	0.627157	0.873845	0.810569	6
C	1.452067	-0.277245	1.375229	6
O	0.691407	-1.258055	0.633219	8
H	-1.724373	-0.513115	1.383659	1
H	-1.964263	-1.290645	-0.186241	1
H	-2.150643	0.465695	-0.025311	1
H	-0.173023	-1.083715	-2.019980	1
H	1.290517	-0.144345	-1.702211	1
H	-1.319853	0.778665	-2.245620	1
H	0.008087	1.390015	1.549709	1
H	1.203667	1.609395	0.243279	1
H	2.505997	-0.285735	1.082469	1
H	1.362937	-0.430835	2.454260	1
Es	0.627163	0.873798	0.810572	99
Es	1.084058	0.361429	1.140683	99
Es	2.177945	-0.278141	1.175159	99
Es	0.997874	-0.908750	0.924996	99
Es	0.057407	-0.201495	-0.767894	99
Es	-0.085406	-0.212344	-0.016615	99
Es	-0.839085	-0.300239	0.137211	99
Es	0.505618	-1.404489	0.829497	99
Es	0.691317	-1.257676	0.633339	99
Es	1.451933	-0.277372	1.375104	99
Es	0.388002	-0.883701	0.371531	99
Es	0.225439	0.404022	0.359321	99
Es	-1.563014	-0.397162	0.305769	99
Es	1.393882	-0.380205	2.118604	99
Es	-0.881267	0.845455	-2.179352	99
Es	-1.665101	-0.469322	1.035672	99
Es	-0.060007	-0.808120	-1.851987	99
Es	-0.353747	1.187518	-1.915475	99
Es	-0.372797	0.963830	-2.124051	99
Es	0.200404	1.220975	1.313695	99
Es	-1.830644	-1.003324	-0.036091	99
Es	-1.956534	0.192666	0.072444	99
Es	-0.175843	0.516851	-1.892912	99
Es	0.949057	-0.154966	-1.633530	99
Es	-0.253128	0.986820	-2.402605	99
Es	0.211363	-0.188393	-1.518061	99
Es	0.873988	-1.395873	0.422969	99
Es	1.018836	1.371267	0.423357	99
45
Properties=species:S:1:pos:R:3:Z:I:1 energy=-344.97081366137644 field_type=dipole dipole="0.000000 0.000000 0.000000" charge=0
C	-1.563013	-0.397175	0.305789	6
C	-0.085503	-0.212195	-0.016721	6
C	0.211487	-0.188595	-1.517981	6
O	-0.372653	0.964045	-2.124120	8
C	0.627157	0.873845	0.810569	6
C	1.452067	-0.277245	1.375229	6
O	0.691407	-1.258055	0.633219	8
H	-1.724373	-0.513115	1.383659	1
H	-1.964263	-1.290645	-0.186241	1
H	-2.150643	0.465695	-0.025311	1
H	-0.173023	-1.083715	-2.019980	1
H	1.290517	-0.144345	-1.702211	1
H	-1.319853	0.778665	-2.245620	1
H	0.008087	1.390015	1.549709	1
H	1.203667	1.609395	0.243279	1
H	2.505997	-0.285735	1.082469	1
H	1.362937	-0.430835	2.454260	1
Es	0.873717	-1.395327	0.423014	99
Es	0.387527	-0.883614	0.371641	99
Es	-0.256231	0.980058	-2.402135	99
Es	-1.956708	0.192728	0.072525	99
Es	-1.563013	-0.397162	0.305769	99
Es	1.018829	1.371245	0.423422	99
Es	1.393851	-0.380205	2.118503	99
Es	-0.839080	-0.300196	0.137146	99
Es	1.084119	0.361436	1.140834	99
Es	0.691408	-1.257743	0.633203	99
Es	-0.059995	-0.808128	-1.852044	99
Es	0.506031	-1.404814	0.828808	99
Es	-1.665046	-0.469498	1.035597	99
Es	-0.176075	0.517498	-1.890830	99
Es	-0.881519	0.846153	-2.177992	99
Es	0.211366	-0.188398	-1.518060	99
Es	-0.372872	0.963763	-2.123929	99
Es	0.948963	-0.154974	-1.633560	99
Es	0.225374	0.404096	0.359266	99
Es	2.177975	-0.278214	1.175260	99
Es	-0.085409	-0.212341	-0.016618	99
Es	0.200442	1.221007	1.313560	99
Es	0.057499	-0.201512	-0.767795	99
Es	0.998078	-0.909009	0.925657	99
Es	-1.830553	-1.003262	-0.036087	99
Es	-0.350066	1.193050	-1.919480	99
Es	0.627164	0.873799	0.810573	99
Es	1.451932	-0.277372	1.375103	99
45
Properties=species:S:1:pos:R:3:Z:I:1 energy=-344.97081366137644 field_type=dipole dipole="0.000000 0.000000 0.000000" charge=0
C	-1.563013	-0.397175	0.305789	6
C	-0.085503	-0.212195	-0.016721	6
C	0.211487	-0.188595	-1.517981	6
O	-0.372653	0.964045	-2.124120	8
C	0.627157	0.873845	0.810569	6
C	1.452067	-0.277245	1.375229	6
O	0.691407	-1.258055	0.633219	8
H	-1.724373	-0.513115	1.383659	1
H	-1.964263	-1.290645	-0.186241	1
H	-2.150643	0.465695	-0.025311	1
H	-0.173023	-1.083715	-2.019980	1
H	1.290517	-0.144345	-1.702211	1
H	-1.319853	0.778665	-2.245620	1
H	0.008087	1.390015	1.549709	1
H	1.203667	1.609395	0.243279	1
H	2.505997	-0.285735	1.082469	1
H	1.362937	-0.430835	2.454260	1
Es	-1.665064	-0.469458	1.035581	99
Es	0.948937	-0.155019	-1.633564	99
Es	0.627164	0.873797	0.810572	99
Es	0.997897	-0.908961	0.926590	99
Es	0.057446	-0.201572	-0.767702	99
Es	-1.830553	-1.003266	-0.036022	99
Es	0.873705	-1.392325	0.423666	99
Es	-0.085406	-0.212343	-0.016616	99
Es	-1.563012	-0.397161	0.305768	99
Es	2.177918	-0.278257	1.175324	99
Es	-0.175591	0.516950	-1.892273	99
Es	0.200490	1.221015	1.313541	99
Es	-0.839026	-0.300216	0.137086	99
Es	1.018787	1.371236	0.423443	99
Es	1.084161	0.361598	1.140834	99
Es	1.451931	-0.277371	1.375102	99
Es	-0.059924	-0.808077	-1.852011	99
Es	0.211366	-0.188399	-1.518061	99
Es	-0.353363	1.187636	-1.916606	99
Es	0.386617	-0.883963	0.371288	99
Es	0.507095	-1.407446	0.827551	99
Es	-0.881546	0.845847	-2.178952	99
Es	0.225327	0.404099	0.359217	99
Es	-1.956735	0.192689	0.072498	99
Es	-0.372798	0.963798	-2.124039	99
Es	1.393911	-0.380191	2.118443	99
Es	-0.253511	0.986336	-2.402544	99
Es	0.691488	-1.257917	0.633233	99
45
Properties=species:S:1:pos:R:3:Z:I:1 energy=-344.97081366137644 field_type=dipole dipole="0.000000 0.000000 0.000000" charge=0
C	-1.563013	-0.397175	0.305789	6
C	-0.085503	-0.212195	-0.016721	6
C	0.211487	-0.188595	-1.517981	6
O	-0.372653	0.964045	-2.124120	8
C	0.627157	0.873845	0.810569	6
C	1.452067	-0.277245	1.375229	6
O	0.691407	-1.258055	0.633219	8
H	-1.724373	-0.513115	1.383659	1
H	-1.964263	-1.290645	-0.186241	1
H	-2.150643	0.465695	-0.025311	1
H	-0.173023	-1.083715	-2.019980	1
H	1.290517	-0.144345	-1.702211	1
H	-1.319853	0.778665	-2.245620	1
H	0.008087	1.390015	1.549709	1
H	1.203667	1.609395	0.243279	1
H	2.505997	-0.285735	1.082469	1
H	1.362937	-0.430835	2.454260	1
Es	-0.059917	-0.808038	-1.851994	99
Es	-0.175744	0.517439	-1.890903	99
Es	-0.372831	0.963745	-2.124055	99
Es	2.177865	-0.278256	1.175359	99
Es	-0.352036	1.190233	-1.918495	99
Es	0.948948	-0.155065	-1.633551	99
Es	0.507033	-1.406961	0.828217	99
Es	-0.839021	-0.300191	0.137069	99
Es	0.627164	0.873798	0.810572	99
Es	0.200516	1.221030	1.313490	99
Es	0.211367	-0.188399	-1.518060	99
Es	0.225297	0.404085	0.359163	99
Es	-1.665075	-0.469457	1.035590	99
Es	1.451931	-0.277373	1.375102	99
Es	-1.563013	-0.397162	0.305769	99
Es	0.057445	-0.201610	-0.767719	99
Es	0.691377	-1.257717	0.633269	99
Es	1.018729	1.371223	0.423481	99
Es	0.386620	-0.883831	0.371453	99
Es	-0.085406	-0.212343	-0.016615	99
Es	-0.254536	0.983193	-2.401955	99
Es	1.393960	-0.380219	2.118417	99
Es	-1.956734	0.192678	0.072488	99
Es	1.084223	0.361654	1.140907	99
Es	0.873073	-1.393052	0.423621	99
Es	0.998691	-0.909092	0.925761	99
Es	-0.881663	0.845999	-2.179017	99
Es	-1.830553	-1.003250	-0.036012	99
45
Properties=species:S:1:pos:R:3:Z:I:1 energy=-344.97081366137644 field_type=dipole dipole="0.000000 0.000000 0.000000" charge=0
C	-1.563013	-0.397175	0.305789	6
C	-0.085503	-0.212195	-0.016721	6
C	0.211487	-0.188595	-1.517981	6
O	-0.372653	0.964045	-2.124120	8
C	0.627157	0.873845	0.810569	6
C	1.452067	-0.277245	1.375229	6
O	0.691407	-1.258055	0.633219	8
H	-1.724373	-0.513115	1.383659	1
H	-1.964263	-1.290645	-0.186241	1
H	-2.150643	0.465695	-0.025311	1
H	-0.173023	-1.083715	-2.019980	1
H	1.290517	-0.144345	-1.702211	1
H	-1.319853	0.778665	-2.245620	1
H	0.008087	1.390015	1.549709	1
H	1.203667	1.609395	0.243279	1
H	2.505997	-0.285735	1.082469	1
H	1.362937	-0.430835	2.454260	1
Es	-0.175349	0.517203	-1.891422	99
Es	0.507723	-1.405413	0.827254	99
Es	-1.830559	-1.003248	-0.035989	99
Es	0.627165	0.873794	0.810571	99
Es	1.393985	-0.380222	2.118385	99
Es	0.386035	-0.883739	0.371898	99
Es	-0.372828	0.963741	-2.124057	99
Es	0.225138	0.404242	0.359081	99
Es	0.057380	-0.201668	-0.767698	99
Es	2.177841	-0.278276	1.175379	99
Es	-1.956733	0.192660	0.072470	99
Es	1.451934	-0.277368	1.375106	99
Es	-0.254398	0.984485	-2.401890	99
Es	-0.839001	-0.300222	0.137005	99
Es	0.873285	-1.394371	0.423237	99
Es	0.691404	-1.257808	0.633209	99
Es	0.948950	-0.155086	-1.633491	99
Es	-0.059874	-0.807995	-1.852037	99
Es	0.998351	-0.909359	0.926736	99
Es	1.084234	0.361565	1.140960	99
Es	-1.563013	-0.397162	0.305768	99
Es	-0.085405	-0.212343	-0.016615	99
Es	0.200630	1.220982	1.313420	99
Es	-1.665086	-0.469435	1.035594	99
Es	-0.881583	0.845876	-2.179114	99
Es	1.018751	1.371269	0.423586	99
Es	-0.352632	1.189362	-1.917939	99
Es	0.211368	-0.188402	-1.518060	99
45
Properties=species:S:1:pos:R:3:Z:I:1 energy=-344.97081366137644 field_type=dipole dipole="0.000000 0.000000 0.000000" charge=0
C	-1.563013	-0.397175	0.305789	6
C	-0.085503	-0.212195	-0.016721	6
C	0.211487	-0.188595	-1.517981	6
O	-0.372653	0.964045	-2.124120	8
C	0.627157	0.873845	0.810569	6
C	1.452067	-0.277245	1.375229	6
O	0.691407	-1.258055	0.633219	8
H	-1.724373	-0.513115	1.383659	1
H	-1.964263	-1.290645	-0.186241	1
H	-2.150643	0.465695	-0.025311	1
H	-0.173023	-1.083715	-2.019980	1
H	1.290517	-0.144345	-1.702211	1
H	-1.319853	0.778665	-2.245620	1
H	0.008087	1.390015	1.549709	1
H	1.203667	1.609395	0.243279	1
H	2.505997	-0.285735	1.082469	1
H	1.362937	-0.430835	2.454260	1
Es	0.385642	-0.883916	0.371868	99
Es	-0.255404	0.983035	-2.401768	99
Es	0.872382	-1.395799	0.423491	99
Es	-0.175279	0.517165	-1.891200	99
Es	-0.838955	-0.300209	0.136999	99
Es	0.948888	-0.155091	-1.633590	99
Es	0.999264	-0.909320	0.926116	99
Es	-0.372842	0.963729	-2.124029	99
Es	1.451932	-0.277372	1.375103	99
Es	-0.059873	-0.808040	-1.851947	99
Es	-1.830519	-1.003203	-0.035973	99
Es	0.211366	-0.188399	-1.518060	99
Es	-0.351523	1.190450	-1.919011	99
Es	2.177801	-0.278329	1.175470	99
Es	1.018617	1.371224	0.423595	99
Es	0.057487	-0.201621	-0.767613	99
Es	0.225201	0.404206	0.359043	99
Es	0.627163	0.873792	0.810570	99
Es	-0.881816	0.846265	-2.178451	99
Es	-0.085408	-0.212340	-0.016616	99
Es	1.084397	0.361728	1.140976	99
Es	-1.563013	-0.397161	0.305769	99
Es	0.691398	-1.257717	0.633234	99
Es	1.393998	-0.380199	2.118329	99
Es	0.508110	-1.404018	0.827630	99
Es	-1.956766	0.192652	0.072449	99
Es	0.200591	1.221026	1.313378	99
Es	-1.665131	-0.469474	1.035587	99
45
Properties=species:S:1:pos:R:3:Z:I:1 energy=-344.97081366137644 field_type=dipole dipole="0.000000 0.000000 0.000000" charge=0
C	-1.563013	-0.397175	0.305789	6
C	-0.085503	-0.212195	-0.016721	6
C	0.211487	-0.188595	-1.517981	6
O	-0.372653	0.964045	-2.124120	8
C	0.627157	0.873845	0.810569	6
C	1.452067	-0.277245	1.375229	6
O	0.691407	-1.258055	0.633219	8
H	-1.724373	-0.513115	1.383659	1
H	-1.964263	-1.290645	-0.186241	1
H	-2.150643	0.465695	-0.025311	1
H	-0.173023	-1.083715	-2.019980	1
H	1.290517	-0.144345	-1.702211	1
H	-1.319853	0.778665	-2.245620	1
H	0.008087	1.390015	1.549709	1
H	1.203667	1.609395	0.243279	1
H	2.505997	-0.285735	1.082469	1
H	1.362937	-0.430835	2.454260	1
Es	0.948888	-0.155118	-1.633557	99
Es	0.200649	1.221090	1.313357	99
Es	1.394082	-0.380235	2.118288	99
Es	0.211367	-0.188400	-1.518060	99
Es	-1.830614	-1.003192	-0.036016	99
Es	-1.956716	0.192683	0.072542	99
Es	0.691397	-1.257830	0.633229	99
Es	-0.348453	1.193549	-1.922764	99
Es	-0.257453	0.977847	-2.402194	99
Es	-0.085405	-0.212343	-0.016615	99
Es	0.627164	0.873796	0.810572	99
Es	2.177757	-0.278291	1.175461	99
Es	-1.563013	-0.397162	0.305769	99
Es	-1.665086	-0.469494	1.035569	99
Es	1.018590	1.371161	0.423596	99
Es	1.451932	-0.277371	1.375104	99
Es	0.873223	-1.392053	0.423704	99
Es	1.084387	0.361783	1.141068	99
Es	-0.882454	0.847524	-2.176467	99
Es	0.998435	-0.909294	0.926747	99
Es	-0.059860	-0.808013	-1.851961	99
Es	0.508337	-1.407499	0.827002	99
Es	-0.372800	0.963761	-2.124035	99
Es	0.385395	-0.884194	0.371642	99
Es	0.225195	0.404206	0.358981	99
Es	-0.838935	-0.300162	0.136986	99
Es	-0.175698	0.518014	-1.888996	99
Es	0.057399	-0.201703	-0.767605	99
45
Properties=species:S:1:pos:R:3:Z:I:1 energy=-344.97081366137644 field_type=dipole dipole="0.000000 0.000000 0.000000" charge=0
C	-1.563013	-0.397175	0.305789	6
C	-0.085503	-0.212195	-0.016721	6
C	0.211487	-0.188595	-1.517981	6
O	-0.372653	0.964045	-2.124120	8
C	0.627157	0.873845	0.810569	6
C	1.452067	-0.277245	1.375229	6
O	0.691407	-1.258055	0.633219	8
H	-1.724373	-0.513115	1.383659	1
H	-1.964263	-1.290645	-0.186241	1
H	-2.150643	0.465695	-0.025311	1
H	-0.173023	-1.083715	-2.019980	1
H	1.290517	-0.144345	-1.702211	1
H	-1.319853	0.778665	-2.245620	1
H	0.008087	1.390015	1.549709	1
H	1.203667	1.609395	0.243279	1
H	2.505997	-0.285735	1.082469	1
H	1.362937	-0.430835	2.454260	1
Es	1.451933	-0.277371	1.375104	99
Es	1.018549	1.371176	0.423664	99
Es	0.225114	0.404207	0.358950	99
Es	1.084459	0.361869	1.141122	99
Es	-0.838924	-0.300198	0.136947	99
Es	0.948871	-0.155134	-1.633554	99
Es	-1.665111	-0.469450	1.035561	99
Es	-0.255544	0.982731	-2.401354	99
Es	0.385207	-0.884067	0.371519	99
Es	0.691467	-1.257678	0.633164	99
Es	0.508694	-1.408848	0.825972	99
Es	0.998228	-0.909498	0.927645	99
Es	-1.956737	0.192641	0.072507	99
Es	-1.830589	-1.003217	-0.035976	99
Es	-0.882055	0.846635	-2.178616	99
Es	-0.351305	1.190435	-1.919708	99
Es	-0.175152	0.517135	-1.890822	99
Es	-1.563013	-0.397162	0.305768	99
Es	0.211367	-0.188401	-1.518060	99
Es	2.177726	-0.278331	1.175528	99
Es	0.873204	-1.390798	0.424004	99
Es	1.394101	-0.380230	2.118232	99
Es	-0.059825	-0.808004	-1.851938	99
Es	-0.085407	-0.212341	-0.016616	99
Es	0.200677	1.221072	1.313296	99
Es	0.057432	-0.201679	-0.767574	99
Es	0.627165	0.873796	0.810572	99
Es	-0.372822	0.963770	-2.123988	99
45
Properties=species:S:1:pos:R:3:Z:I:1 energy=-344.97081366137644 field_type=dipole dipole="0.000000 0.000000 0.000000" charge=0
C	-1.563013	-0.397175	0.305789	6
C	-0.085503	-0.212195	-0.016721	6
C	0.211487	-0.188595	-1.517981	6
O	-0.372653	0.964045	-2.124120	8
C	0.627157	0.873845	0.810569	6
C	1.452067	-0.277245	1.375229	6
O	0.691407	-1.258055	0.633219	8
H	-1.724373	-0.513115	1.383659	1
H	-1.964263	-1.290645	-0.186241	1
H	-2.150643	0.465695	-0.025311	1
H	-0.173023	-1.083715	-2.019980	1
H	1.290517	-0.144345	-1.702211	1
H	-1.319853	0.778665	-2.245620	1
H	0.008087	1.390015	1.549709	1
H	1.203667	1.609395	0.243279	1
H	2.505997	-0.285735	1.082469	1
H	1.362937	-0.430835	2.454260	1
Es	0.386999	-0.884052	0.369399	99
Es	-1.956764	0.192640	0.072504	99
Es	1.394131	-0.380230	2.118204	99
Es	-0.372890	0.963739	-2.124052	99
Es	0.057444	-0.201665	-0.767504	99
Es	0.225101	0.404205	0.358832	99
Es	-1.563013	-0.397162	0.305768	99
Es	-0.059797	-0.808006	-1.851935	99
Es	0.872862	-1.393740	0.425667	99
Es	-0.255439	0.985685	-2.400386	99
Es	2.177686	-0.278336	1.175563	99
Es	0.691356	-1.257728	0.633240	99
Es	0.200675	1.221044	1.313258	99
Es	1.084532	0.361928	1.141164	99
Es	-1.830575	-1.003181	-0.035962	99
Es	-0.352516	1.188946	-1.917822	99
Es	1.018491	1.371193	0.423755	99
Es	0.507228	-1.405902	0.826347	99
Es	0.948842	-0.155144	-1.633539	99
Es	0.998381	-0.909515	0.927655	99
Es	-0.838934	-0.300210	0.136890	99
Es	-0.174235	0.516216	-1.892793	99
Es	1.451932	-0.277371	1.375104	99
Es	0.211366	-0.188399	-1.518061	99
Es	-0.881795	0.846130	-2.179466	99
Es	-1.665117	-0.469482	1.035564	99
Es	-0.085407	-0.212340	-0.016616	99
Es	0.627165	0.873796	0.810571	99
45
Properties=species:S:1:pos:R:3:Z:I:1 energy=-344.97081366137644 field_type=dipole dipole="0.000000 0.000000 0.000000" charge=0
C	-1.563013	-0.397175	0.305789	6
C	-0.085503	-0.212195	-0.016721	6
C	0.211487	-0.188595	-1.517981	6
O	-0.372653	0.964045	-2.124120	8
C	0.627157	0.873845	0.810569	6
C	1.452067	-0.277245	1.375229	6
O	0.691407	-1.258055	0.633219	8
H	-1.724373	-0.513115	1.383659	1
H	-1.964263	-1.290645	-0.186241	1
H	-2.150643	0.465695	-0.025311	1
H	-0.173023	-1.083715	-2.019980	1
H	1.290517	-0.144345	-1.702211	1
H	-1.319853	0.778665	-2.245620	1
H	0.008087	1.390015	1.549709	1
H	1.203667	1.609395	0.243279	1
H	2.505997	-0.285735	1.082469	1
H	1.362937	-0.430835	2.454260	1
Es	0.200754	1.221096	1.313258	99
Es	1.018442	1.371130	0.423806	99
Es	-1.665156	-0.469365	1.035601	99
Es	0.211368	-0.188401	-1.518060	99
Es	0.386212	-0.884108	0.369754	99
Es	1.084594	0.362007	1.141178	99
Es	-0.059772	-0.807959	-1.851920	99
Es	0.871117	-1.396231	0.425765	99
Es	-0.174262	0.516500	-1.892248	99
Es	0.057501	-0.201663	-0.767492	99
Es	1.394174	-0.380286	2.118155	99
Es	0.948857	-0.155172	-1.633546	99
Es	1.451932	-0.277369	1.375104	99
Es	0.627165	0.873800	0.810573	99
Es	-0.254421	0.987031	-2.401116	99
Es	1.000173	-0.909576	0.926311	99
Es	-1.830685	-1.003200	-0.035954	99
Es	2.177633	-0.278367	1.175620	99
Es	-0.353141	1.186868	-1.918082	99
Es	-0.372813	0.963799	-2.124029	99
Es	-1.956637	0.192578	0.072489	99
Es	0.507880	-1.403325	0.827254	99
Es	0.691452	-1.257725	0.633185	99
Es	0.224946	0.404234	0.358856	99
Es	-0.085406	-0.212341	-0.016615	99
Es	-1.563012	-0.397157	0.305764	99
Es	-0.882272	0.846563	-2.179030	99
Es	-0.838913	-0.300302	0.136768	99
45
Properties=species:S:1:pos:R:3:Z:I:1 energy=-344.97081366137644 field_type=dipole dipole="0.000000 0.000000 0.000000" charge=0
C	-1.563013	-0.397175	0.305789	6
C	-0.085503	-0.212195	-0.016721	6
C	0.211487	-0.188595	-1.517981	6
O	-0.372653	0.964045	-2.124120	8
C	0.627157	0.873845	0.810569	6
C	1.452067	-0.277245	1.375229	6
O	0.691407	-1.258055	0.633219	8
H	-1.724373	-0.513115	1.383659	1
H	-1.964263	-1.290645	-0.186241	1
H	-2.150643	0.465695	-0.025311	1
H	-0.173023	-1.083715	-2.019980	1
H	1.290517	-0.144345	-1.702211	1
H	-1.319853	0.778665	-2.245620	1
H	0.008087	1.390015	1.549709	1
H	1.203667	1.609395	0.243279	1
H	2.505997	-0.285735	1.082469	1
H	1.362937	-0.430835	2.454260	1
Es	0.627165	0.873795	0.810572	99
Es	0.871665	-1.393304	0.425504	99
Es	-1.830486	-1.003280	-0.035894	99
Es	-1.665143	-0.469456	1.035428	99
Es	-0.085407	-0.212340	-0.016616	99
Es	2.177624	-0.278375	1.175673	99
Es	0.691408	-1.257856	0.633222	99
Es	-0.254502	0.985720	-2.400368	99
Es	-0.352881	1.188333	-1.918464	99
Es	0.200782	1.221083	1.313191	99
Es	1.451934	-0.277367	1.375105	99
Es	-0.838718	-0.300041	0.136903	99
Es	-0.372844	0.963759	-2.123931	99
Es	-0.882012	0.846416	-2.180032	99
Es	-1.563015	-0.397163	0.305768	99
Es	-0.174628	0.516571	-1.891720	99
Es	0.508779	-1.405947	0.826229	99
Es	0.211369	-0.188404	-1.518056	99
Es	0.385293	-0.884245	0.370186	99
Es	1.394181	-0.380264	2.118096	99
Es	0.999669	-0.909691	0.927152	99
Es	-0.059797	-0.807906	-1.851917	99
Es	-1.956925	0.192546	0.072533	99
Es	1.084611	0.362039	1.141242	99
Es	0.948804	-0.155255	-1.633611	99
Es	1.018420	1.371157	0.423778	99
Es	0.057384	-0.201780	-0.767460	99
Es	0.224982	0.404316	0.358835	99
