44
Properties=species:S:1:pos:R:3:Z:I:1 energy=-307.9350394749015 field_type=dipole dipole="0.000000 0.000000 0.000000" charge=0
C	-2.262699	0.649238	0.041977	6
C	-0.803749	0.807418	-0.334493	6
O	-0.185259	1.886398	0.421727	8
C	0.967710	1.044068	0.683047	6
C	0.188801	-0.213842	0.267037	6
C	0.858860	-1.123512	-0.696583	6
C	1.872241	-1.899432	-0.295543	6
H	-2.688469	-0.239842	-0.434233	1
H	-2.842249	1.517468	-0.288573	1
H	-2.391799	0.549618	1.124967	1
H	-0.683689	0.993128	-1.410053	1
H	1.814570	1.335158	0.051837	1
H	1.264901	1.077968	1.734997	1
H	-0.223479	-0.759852	1.125817	1
H	0.511471	-1.162232	-1.725303	1
H	2.239531	-1.889703	0.726987	1
H	2.363310	-2.572042	-0.993613	1
Es	-0.717514	0.921513	-1.078275	99
Es	1.547856	1.231723	0.244951	99
Es	-0.349030	0.220463	-0.070960	99
Es	-0.435022	1.501751	0.120262	99
Es	1.584586	-1.283074	-0.574479	99
Es	-0.341264	1.894624	0.685723	99
Es	1.872326	-1.899487	-0.295506	99
Es	1.168111	-1.757710	-0.422523	99
Es	-2.651741	1.238010	-0.185969	99
Es	0.654407	0.345937	0.490151	99
Es	0.271330	1.594400	0.528514	99
Es	-0.113851	2.133273	0.241709	99
Es	2.212673	-2.357329	-0.762299	99
Es	0.516594	-0.672543	-0.225159	99
Es	-1.543104	0.723545	-0.147505	99
Es	-2.262689	0.649226	0.041956	99
Es	-2.542746	0.041122	-0.287321	99
Es	-2.341602	0.576927	0.776626	99
Es	1.177292	1.065223	1.405170	99
Es	-0.185227	1.886210	0.421669	99
Es	0.616006	-1.139518	-1.392018	99
Es	-0.087992	-0.583510	0.845841	99
Es	-0.803671	0.807561	-0.334350	99
Es	2.121978	-1.893313	0.399774	99
Es	0.967508	1.044165	0.683005	99
Es	0.858770	-1.123440	-0.696601	99
Es	0.188823	-0.213814	0.266999	99
44
Properties=species:S:1:pos:R:3:Z:I:1 energy=-307.9350394749015 field_type=dipole dipole="0.000000 0.000000 0.000000" charge=0
C	-2.262699	0.649238	0.041977	6
C	-0.803749	0.807418	-0.334493	6
O	-0.185259	1.886398	0.421727	8
C	0.967710	1.044068	0.683047	6
C	0.188801	-0.213842	0.267037	6
C	0.858860	-1.123512	-0.696583	6
C	1.872241	-1.899432	-0.295543	6
H	-2.688469	-0.239842	-0.434233	1
H	-2.842249	1.517468	-0.288573	1
H	-2.391799	0.549618	1.124967	1
H	-0.683689	0.993128	-1.410053	1
H	1.814570	1.335158	0.051837	1
H	1.264901	1.077968	1.734997	1
H	-0.223479	-0.759852	1.125817	1
H	0.511471	-1.162232	-1.725303	1
H	2.239531	-1.889703	0.726987	1
H	2.363310	-2.572042	-0.993613	1
Es	0.654472	0.345925	0.490104	99
Es	1.177312	1.065185	1.405149	99
Es	-0.087966	-0.583439	0.845842	99
Es	2.122084	-1.893185	0.399671	99
Es	-0.185213	1.886145	0.421672	99
Es	0.516539	-0.672645	-0.225013	99
Es	-2.341567	0.576862	0.776527	99
Es	-0.113625	2.133790	0.242101	99
Es	-0.435056	1.501966	0.119934	99
Es	-2.542819	0.041121	-0.287356	99
Es	1.584594	-1.283026	-0.574564	99
Es	0.615972	-1.139469	-1.391952	99
Es	-0.803671	0.807563	-0.334348	99
Es	-1.543064	0.723555	-0.147487	99
Es	-0.349126	0.220513	-0.071021	99
Es	-0.717511	0.921440	-1.078277	99
Es	-0.341381	1.894536	0.683906	99
Es	0.271269	1.593913	0.530271	99
Es	0.858770	-1.123436	-0.696603	99
Es	-2.651744	1.238075	-0.185844	99
Es	1.872328	-1.899489	-0.295506	99
Es	-2.262689	0.649226	0.041956	99
Es	1.168007	-1.757914	-0.422512	99
Es	0.967511	1.044164	0.683005	99
Es	1.547846	1.231689	0.244958	99
Es	2.212710	-2.357311	-0.762228	99
Es	0.188824	-0.213816	0.267000	99
44
Properties=species:S:1:pos:R:3:Z:I:1 energy=-307.9350394749015 field_type=dipole dipole="0.000000 0.000000 0.000000" charge=0
C	-2.262699	0.649238	0.041977	6
C	-0.803749	0.807418	-0.334493	6
O	-0.185259	1.886398	0.421727	8
C	0.967710	1.044068	0.683047	6
C	0.188801	-0.213842	0.267037	6
C	0.858860	-1.123512	-0.696583	6
C	1.872241	-1.899432	-0.295543	6
H	-2.688469	-0.239842	-0.434233	1
H	-2.842249	1.517468	-0.288573	1
H	-2.391799	0.549618	1.124967	1
H	-0.683689	0.993128	-1.410053	1
H	1.814570	1.335158	0.051837	1
H	1.264901	1.077968	1.734997	1
H	-0.223479	-0.759852	1.125817	1
H	0.511471	-1.162232	-1.725303	1
H	2.239531	-1.889703	0.726987	1
H	2.363310	-2.572042	-0.993613	1
Es	-2.651691	1.238061	-0.185851	99
Es	0.188823	-0.213815	0.266999	99
Es	-2.341577	0.576907	0.776540	99
Es	1.547765	1.231631	0.244914	99
Es	0.967509	1.044164	0.683004	99
Es	-2.262689	0.649226	0.041956	99
Es	-0.343133	1.900597	0.685308	99
Es	1.872325	-1.899493	-0.295506	99
Es	0.615986	-1.139577	-1.391975	99
Es	1.584655	-1.283060	-0.574638	99
Es	-0.349220	0.220450	-0.070986	99
Es	0.516467	-0.672577	-0.224994	99
Es	-0.185207	1.886096	0.421659	99
Es	0.858771	-1.123440	-0.696601	99
Es	-0.435332	1.501657	0.120071	99
Es	-0.087890	-0.583487	0.845763	99
Es	0.654459	0.345874	0.490248	99
Es	2.212716	-2.357358	-0.762135	99
Es	-1.543024	0.723484	-0.147636	99
Es	-2.542903	0.041159	-0.287310	99
Es	2.122006	-1.893161	0.399716	99
Es	1.168069	-1.757769	-0.422574	99
Es	-0.717468	0.921446	-1.078222	99
Es	1.177442	1.065262	1.405049	99
Es	0.270740	1.593824	0.531133	99
Es	-0.111121	2.128277	0.239805	99
Es	-0.803673	0.807559	-0.334351	99
44
Properties=species:S:1:pos:R:3:Z:I:1 energy=-307.9350394749015 field_type=dipole dipole="0.000000 0.000000 0.000000" charge=0
C	-2.262699	0.649238	0.041977	6
C	-0.803749	0.807418	-0.334493	6
O	-0.185259	1.886398	0.421727	8
C	0.967710	1.044068	0.683047	6
C	0.188801	-0.213842	0.267037	6
C	0.858860	-1.123512	-0.696583	6
C	1.872241	-1.899432	-0.295543	6
H	-2.688469	-0.239842	-0.434233	1
H	-2.842249	1.517468	-0.288573	1
H	-2.391799	0.549618	1.124967	1
H	-0.683689	0.993128	-1.410053	1
H	1.814570	1.335158	0.051837	1
H	1.264901	1.077968	1.734997	1
H	-0.223479	-0.759852	1.125817	1
H	0.511471	-1.162232	-1.725303	1
H	2.239531	-1.889703	0.726987	1
H	2.363310	-2.572042	-0.993613	1
Es	0.516430	-0.672594	-0.224855	99
Es	-0.111577	2.128330	0.240021	99
Es	-0.185198	1.886118	0.421686	99
Es	-0.087886	-0.583468	0.845667	99
Es	-0.342495	1.900519	0.684934	99
Es	0.858771	-1.123440	-0.696597	99
Es	0.967516	1.044163	0.683007	99
Es	0.615930	-1.139605	-1.391923	99
Es	2.122002	-1.893253	0.399763	99
Es	1.168179	-1.757657	-0.422634	99
Es	1.177265	1.065208	1.405008	99
Es	-2.651649	1.238042	-0.186003	99
Es	-0.349211	0.220450	-0.071084	99
Es	1.547885	1.231694	0.245105	99
Es	-0.803672	0.807560	-0.334349	99
Es	-2.341604	0.577001	0.776627	99
Es	1.584626	-1.283100	-0.574621	99
Es	-2.262689	0.649226	0.041958	99
Es	0.654582	0.345790	0.490241	99
Es	-1.543178	0.723471	-0.147647	99
Es	0.188823	-0.213814	0.266999	99
Es	-0.717479	0.921422	-1.078080	99
Es	-2.542828	0.041109	-0.287296	99
Es	2.212689	-2.357328	-0.762263	99
Es	-0.435918	1.501625	0.120305	99
Es	1.872327	-1.899488	-0.295506	99
Es	0.271163	1.593954	0.530925	99
44
Properties=species:S:1:pos:R:3:Z:I:1 energy=-307.9350394749015 field_type=dipole dipole="0.000000 0.000000 0.000000" charge=0
C	-2.262699	0.649238	0.041977	6
C	-0.803749	0.807418	-0.334493	6
O	-0.185259	1.886398	0.421727	8
C	0.967710	1.044068	0.683047	6
C	0.188801	-0.213842	0.267037	6
C	0.858860	-1.123512	-0.696583	6
C	1.872241	-1.899432	-0.295543	6
H	-2.688469	-0.239842	-0.434233	1
H	-2.842249	1.517468	-0.288573	1
H	-2.391799	0.549618	1.124967	1
H	-0.683689	0.993128	-1.410053	1
H	1.814570	1.335158	0.051837	1
H	1.264901	1.077968	1.734997	1
H	-0.223479	-0.759852	1.125817	1
H	0.511471	-1.162232	-1.725303	1
H	2.239531	-1.889703	0.726987	1
H	2.363310	-2.572042	-0.993613	1
Es	1.177407	1.065298	1.404981	99
Es	-0.436094	1.501665	0.120023	99
Es	-0.342230	1.900136	0.684657	99
Es	-0.185160	1.886118	0.421620	99
Es	-0.349326	0.220395	-0.071090	99
Es	-0.087833	-0.583415	0.845595	99
Es	2.212700	-2.357259	-0.762249	99
Es	-0.803672	0.807559	-0.334350	99
Es	1.584491	-1.283206	-0.574613	99
Es	0.967510	1.044163	0.683005	99
Es	-2.651766	1.238035	-0.185918	99
Es	0.188823	-0.213813	0.266998	99
Es	0.616030	-1.139627	-1.391950	99
Es	0.516443	-0.672537	-0.224816	99
Es	-2.341587	0.576900	0.776571	99
Es	-0.717501	0.921410	-1.078087	99
Es	0.858772	-1.123440	-0.696600	99
Es	-2.262690	0.649226	0.041956	99
Es	-0.112080	2.128468	0.240723	99
Es	0.271475	1.594144	0.530872	99
Es	1.168157	-1.757732	-0.422645	99
Es	-2.542825	0.041193	-0.287246	99
Es	-1.543050	0.723526	-0.147732	99
Es	0.654688	0.345743	0.490302	99
Es	1.547742	1.231704	0.245119	99
Es	2.122053	-1.893234	0.399769	99
Es	1.872330	-1.899484	-0.295510	99
44
Properties=species:S:1:pos:R:3:Z:I:1 energy=-307.9350394749015 field_type=dipole dipole="0.000000 0.000000 0.000000" charge=0
C	-2.262699	0.649238	0.041977	6
C	-0.803749	0.807418	-0.334493	6
O	-0.185259	1.886398	0.421727	8
C	0.967710	1.044068	0.683047	6
C	0.188801	-0.213842	0.267037	6
C	0.858860	-1.123512	-0.696583	6
C	1.872241	-1.899432	-0.295543	6
H	-2.688469	-0.239842	-0.434233	1
H	-2.842249	1.517468	-0.288573	1
H	-2.391799	0.549618	1.124967	1
H	-0.683689	0.993128	-1.410053	1
H	1.814570	1.335158	0.051837	1
H	1.264901	1.077968	1.734997	1
H	-0.223479	-0.759852	1.125817	1
H	0.511471	-1.162232	-1.725303	1
H	2.239531	-1.889703	0.726987	1
H	2.363310	-2.572042	-0.993613	1
Es	0.654728	0.345790	0.490492	99
Es	1.584497	-1.283220	-0.574562	99
Es	0.272511	1.594987	0.529380	99
Es	-0.717572	0.921393	-1.077986	99
Es	1.168271	-1.757501	-0.422590	99
Es	2.121996	-1.893265	0.399742	99
Es	-0.435826	1.502263	0.118715	99
Es	-0.803672	0.807555	-0.334350	99
Es	0.516518	-0.672628	-0.224569	99
Es	-2.341602	0.577041	0.776535	99
Es	0.967510	1.044163	0.683005	99
Es	1.177446	1.065331	1.404897	99
Es	-0.185152	1.886117	0.421597	99
Es	-2.262690	0.649226	0.041956	99
Es	0.858771	-1.123438	-0.696600	99
Es	1.547741	1.231642	0.245096	99
Es	-0.340642	1.894318	0.683927	99
Es	-0.349262	0.220287	-0.071352	99
Es	-1.543037	0.723614	-0.147715	99
Es	-2.542829	0.041073	-0.287195	99
Es	1.872329	-1.899489	-0.295508	99
Es	0.615931	-1.139649	-1.392020	99
Es	-2.651782	1.237928	-0.185944	99
Es	2.212673	-2.357374	-0.762308	99
Es	-0.114928	2.132957	0.244274	99
Es	-0.087940	-0.583366	0.845462	99
Es	0.188820	-0.213818	0.267006	99
44
Properties=species:S:1:pos:R:3:Z:I:1 energy=-307.9350394749015 field_type=dipole dipole="0.000000 0.000000 0.000000" charge=0
C	-2.262699	0.649238	0.041977	6
C	-0.803749	0.807418	-0.334493	6
O	-0.185259	1.886398	0.421727	8
C	0.967710	1.044068	0.683047	6
C	0.188801	-0.213842	0.267037	6
C	0.858860	-1.123512	-0.696583	6
C	1.872241	-1.899432	-0.295543	6
H	-2.688469	-0.239842	-0.434233	1
H	-2.842249	1.517468	-0.288573	1
H	-2.391799	0.549618	1.124967	1
H	-0.683689	0.993128	-1.410053	1
H	1.814570	1.335158	0.051837	1
H	1.264901	1.077968	1.734997	1
H	-0.223479	-0.759852	1.125817	1
H	0.511471	-1.162232	-1.725303	1
H	2.239531	-1.889703	0.726987	1
H	2.363310	-2.572042	-0.993613	1
Es	-0.087848	-0.583492	0.845486	99
Es	-0.185203	1.886203	0.421680	99
Es	-2.341576	0.576945	0.776514	99
Es	2.121927	-1.893294	0.399811	99
Es	0.188823	-0.213812	0.266998	99
Es	-0.803672	0.807558	-0.334350	99
Es	-0.349324	0.220333	-0.071273	99
Es	0.615986	-1.139715	-1.392024	99
Es	-1.543047	0.723560	-0.147768	99
Es	-2.262690	0.649226	0.041956	99
Es	-2.651751	1.238008	-0.185854	99
Es	-0.436411	1.501540	0.119878	99
Es	1.547727	1.231665	0.245205	99
Es	1.872334	-1.899485	-0.295508	99
Es	-2.542879	0.041124	-0.287262	99
Es	-0.717546	0.921391	-1.077956	99
Es	0.858773	-1.123440	-0.696600	99
Es	0.654825	0.345691	0.490365	99
Es	0.516309	-0.672501	-0.224532	99
Es	1.584489	-1.283308	-0.574560	99
Es	-0.112408	2.127374	0.240957	99
Es	2.212667	-2.357395	-0.762319	99
Es	1.168395	-1.757310	-0.422730	99
Es	-0.342171	1.900943	0.684042	99
Es	1.177438	1.065298	1.404868	99
Es	0.967510	1.044163	0.683006	99
Es	0.272129	1.594667	0.531356	99
44
Properties=species:S:1:pos:R:3:Z:I:1 energy=-307.9350394749015 field_type=dipole dipole="0.000000 0.000000 0.000000" charge=0
C	-2.262699	0.649238	0.041977	6
C	-0.803749	0.807418	-0.334493	6
O	-0.185259	1.886398	0.421727	8
C	0.967710	1.044068	0.683047	6
C	0.188801	-0.213842	0.267037	6
C	0.858860	-1.123512	-0.696583	6
C	1.872241	-1.899432	-0.295543	6
H	-2.688469	-0.239842	-0.434233	1
H	-2.842249	1.517468	-0.288573	1
H	-2.391799	0.549618	1.124967	1
H	-0.683689	0.993128	-1.410053	1
H	1.814570	1.335158	0.051837	1
H	1.264901	1.077968	1.734997	1
H	-0.223479	-0.759852	1.125817	1
H	0.511471	-1.162232	-1.725303	1
H	2.239531	-1.889703	0.726987	1
H	2.363310	-2.572042	-0.993613	1
Es	-2.341611	0.576897	0.776485	99
Es	1.168324	-1.757542	-0.422742	99
Es	-0.803673	0.807558	-0.334351	99
Es	-2.542775	0.041095	-0.287301	99
Es	0.272373	1.595020	0.530713	99
Es	1.872327	-1.899490	-0.295508	99
Es	-0.437541	1.501158	0.120286	99
Es	1.547698	1.231617	0.245247	99
Es	1.177476	1.065312	1.404791	99
Es	0.654840	0.345580	0.490431	99
Es	2.212727	-2.357391	-0.762238	99
Es	0.967508	1.044163	0.683005	99
Es	-2.262690	0.649226	0.041956	99
Es	-2.651827	1.237982	-0.185845	99
Es	-1.543045	0.723629	-0.147666	99
Es	0.188823	-0.213809	0.266999	99
Es	-0.717639	0.921426	-1.077883	99
Es	0.858772	-1.123441	-0.696599	99
Es	-0.112921	2.127637	0.241385	99
Es	-0.185206	1.885989	0.421732	99
Es	0.616128	-1.139635	-1.392029	99
Es	-0.349303	0.220382	-0.071376	99
Es	-0.087801	-0.583470	0.845442	99
Es	1.584369	-1.283329	-0.574562	99
Es	0.516312	-0.672449	-0.224525	99
Es	2.121948	-1.893194	0.399761	99
Es	-0.340788	1.901013	0.683780	99
44
Properties=species:S:1:pos:R:3:Z:I:1 energy=-307.9350394749015 field_type=dipole dipole="0.000000 0.000000 0.000000" charge=0
C	-2.262699	0.649238	0.041977	6
C	-0.803749	0.807418	-0.334493	6
O	-0.185259	1.886398	0.421727	8
C	0.967710	1.044068	0.683047	6
C	0.188801	-0.213842	0.267037	6
C	0.858860	-1.123512	-0.696583	6
C	1.872241	-1.899432	-0.295543	6
H	-2.688469	-0.239842	-0.434233	1
H	-2.842249	1.517468	-0.288573	1
H	-2.391799	0.549618	1.124967	1
H	-0.683689	0.993128	-1.410053	1
H	1.814570	1.335158	0.051837	1
H	1.264901	1.077968	1.734997	1
H	-0.223479	-0.759852	1.125817	1
H	0.511471	-1.162232	-1.725303	1
H	2.239531	-1.889703	0.726987	1
H	2.363310	-2.572042	-0.993613	1
Es	1.168383	-1.757486	-0.422718	99
Es	1.872330	-1.899490	-0.295509	99
Es	-0.436561	1.502269	0.118792	99
Es	2.212685	-2.357374	-0.762290	99
Es	1.547693	1.231646	0.245321	99
Es	-2.651768	1.237997	-0.185820	99
Es	-0.803672	0.807557	-0.334350	99
Es	1.584280	-1.283400	-0.574544	99
Es	0.516305	-0.672409	-0.224417	99
Es	-2.341585	0.576941	0.776471	99
Es	-2.542893	0.041118	-0.287254	99
Es	0.188823	-0.213811	0.266998	99
Es	0.654946	0.345582	0.490466	99
Es	1.177456	1.065348	1.404764	99
Es	-1.543036	0.723594	-0.147821	99
Es	0.967511	1.044163	0.683006	99
Es	0.858773	-1.123440	-0.696599	99
Es	-0.185181	1.886120	0.421640	99
Es	0.273245	1.595402	0.529412	99
Es	-0.114560	2.129694	0.243751	99
Es	-0.087783	-0.583478	0.845340	99
Es	-0.341000	1.897378	0.684284	99
Es	-0.717565	0.921364	-1.077840	99
Es	2.121999	-1.893209	0.399776	99
Es	-2.262691	0.649226	0.041956	99
Es	-0.349429	0.220291	-0.071370	99
Es	0.616103	-1.139659	-1.392058	99
