44
Properties=species:S:1:pos:R:3:Z:I:1 energy=-307.9813943288558 field_type=dipole dipole="0.000000 0.000000 0.000000" charge=0
C	-1.704830	0.191489	-0.757399	6
C	-0.182781	0.166839	-0.715359	6
O	0.319319	0.306849	-2.034879	8
C	0.380949	-1.105971	-0.062639	6
C	0.735879	-0.717361	1.373821	6
C	0.885040	0.766389	1.291570	6
C	0.380469	1.249799	0.151351	6
H	-2.145640	0.086639	0.239101	1
H	-2.085371	-0.618061	-1.389859	1
H	-2.068250	1.126999	-1.197749	1
H	1.278880	0.449259	-1.964809	1
H	1.283219	-1.447401	-0.587659	1
H	-0.326280	-1.942521	-0.084359	1
H	1.661759	-1.202411	1.695171	1
H	-0.064941	-0.979831	2.072261	1
H	1.311589	1.370129	2.081410	1
H	0.340989	2.299169	-0.109969	1
Es	0.349275	1.958769	-0.037271	99
Es	0.940142	0.994177	0.567861	99
Es	0.277841	0.035318	-2.174000	99
Es	-0.106344	-1.676383	-0.078308	99
Es	0.319513	0.306889	-2.034576	99
Es	0.832477	0.029626	1.366270	99
Es	0.355772	1.056775	0.855347	99
Es	-0.946207	0.180862	-0.731389	99
Es	1.366570	-1.045915	1.596867	99
Es	0.380955	-1.105960	-0.062593	99
Es	0.735878	-0.717326	1.373800	99
Es	-0.182712	0.166865	-0.715555	99
Es	0.151100	0.256704	-1.529082	99
Es	0.091720	0.742738	-0.291285	99
Es	1.178023	1.168443	1.834989	99
Es	0.201239	0.570633	-2.146845	99
Es	0.380441	1.249840	0.151260	99
Es	0.553931	-0.928455	0.667037	99
Es	1.001624	-1.324553	-0.421656	99
Es	-1.956641	-0.362991	-1.181653	99
Es	0.835995	0.380141	-1.974733	99
Es	0.885079	0.766330	1.291681	99
Es	-1.993085	0.117214	-0.074241	99
Es	0.190009	-0.886328	1.847954	99
Es	-1.704808	0.191489	-0.757385	99
Es	-1.946146	0.831294	-1.049440	99
Es	0.088071	-0.488949	-0.391421	99
44
Properties=species:S:1:pos:R:3:Z:I:1 energy=-307.9813943288558 field_type=dipole dipole="0.000000 0.000000 0.000000" charge=0
C	-1.704830	0.191489	-0.757399	6
C	-0.182781	0.166839	-0.715359	6
O	0.319319	0.306849	-2.034879	8
C	0.380949	-1.105971	-0.062639	6
C	0.735879	-0.717361	1.373821	6
C	0.885040	0.766389	1.291570	6
C	0.380469	1.249799	0.151351	6
H	-2.145640	0.086639	0.239101	1
H	-2.085371	-0.618061	-1.389859	1
H	-2.068250	1.126999	-1.197749	1
H	1.278880	0.449259	-1.964809	1
H	1.283219	-1.447401	-0.587659	1
H	-0.326280	-1.942521	-0.084359	1
H	1.661759	-1.202411	1.695171	1
H	-0.064941	-0.979831	2.072261	1
H	1.311589	1.370129	2.081410	1
H	0.340989	2.299169	-0.109969	1
Es	0.088176	-0.488890	-0.391456	99
Es	0.940008	0.994333	0.568102	99
Es	-1.956626	-0.363174	-1.181375	99
Es	0.380431	1.249837	0.151274	99
Es	0.151248	0.255780	-1.529083	99
Es	1.001535	-1.324630	-0.421664	99
Es	-0.182713	0.166866	-0.715553	99
Es	-1.704809	0.191489	-0.757385	99
Es	-0.106320	-1.676324	-0.078278	99
Es	0.276007	0.036414	-2.176176	99
Es	0.553976	-0.928345	0.666931	99
Es	0.832508	0.029373	1.366453	99
Es	1.366543	-1.045918	1.596836	99
Es	-1.993075	0.117449	-0.074353	99
Es	0.319461	0.306874	-2.034649	99
Es	-1.946124	0.831386	-1.049756	99
Es	-0.946337	0.180718	-0.731210	99
Es	0.885081	0.766331	1.291674	99
Es	0.380954	-1.105961	-0.062593	99
Es	0.202709	0.571757	-2.144345	99
Es	1.177919	1.168578	1.834962	99
Es	0.349371	1.958824	-0.037241	99
Es	0.355924	1.056615	0.855133	99
Es	0.091755	0.742605	-0.291469	99
Es	0.189972	-0.886283	1.848022	99
Es	0.836258	0.378870	-1.974969	99
Es	0.735878	-0.717326	1.373801	99
44
Properties=species:S:1:pos:R:3:Z:I:1 energy=-307.9813943288558 field_type=dipole dipole="0.000000 0.000000 0.000000" charge=0
C	-1.704830	0.191489	-0.757399	6
C	-0.182781	0.166839	-0.715359	6
O	0.319319	0.306849	-2.034879	8
C	0.380949	-1.105971	-0.062639	6
C	0.735879	-0.717361	1.373821	6
C	0.885040	0.766389	1.291570	6
C	0.380469	1.249799	0.151351	6
H	-2.145640	0.086639	0.239101	1
H	-2.085371	-0.618061	-1.389859	1
H	-2.068250	1.126999	-1.197749	1
H	1.278880	0.449259	-1.964809	1
H	1.283219	-1.447401	-0.587659	1
H	-0.326280	-1.942521	-0.084359	1
H	1.661759	-1.202411	1.695171	1
H	-0.064941	-0.979831	2.072261	1
H	1.311589	1.370129	2.081410	1
H	0.340989	2.299169	-0.109969	1
Es	0.939816	0.994387	0.568196	99
Es	0.349424	1.958837	-0.037226	99
Es	0.553897	-0.928544	0.667097	99
Es	1.177942	1.168602	1.834908	99
Es	-1.946209	0.831261	-1.049432	99
Es	0.150945	0.257596	-1.528952	99
Es	0.380955	-1.105961	-0.062593	99
Es	1.366491	-1.045868	1.596918	99
Es	-0.182715	0.166866	-0.715556	99
Es	-1.956659	-0.362988	-1.181614	99
Es	-0.946239	0.181127	-0.731276	99
Es	0.319498	0.306833	-2.034577	99
Es	0.832483	0.029461	1.366358	99
Es	0.088074	-0.489036	-0.391440	99
Es	-1.704807	0.191489	-0.757385	99
Es	-0.106258	-1.676279	-0.078328	99
Es	0.091908	0.742467	-0.291607	99
Es	0.201643	0.570531	-2.147435	99
Es	0.277666	0.035048	-2.173511	99
Es	0.190174	-0.886276	1.847979	99
Es	0.835936	0.379649	-1.974784	99
Es	1.001523	-1.324628	-0.421700	99
Es	0.735878	-0.717326	1.373800	99
Es	0.355914	1.056607	0.855138	99
Es	-1.993084	0.117221	-0.074294	99
Es	0.380433	1.249839	0.151269	99
Es	0.885086	0.766332	1.291680	99
44
Properties=species:S:1:pos:R:3:Z:I:1 energy=-307.9813943288558 field_type=dipole dipole="0.000000 0.000000 0.000000" charge=0
C	-1.704830	0.191489	-0.757399	6
C	-0.182781	0.166839	-0.715359	6
O	0.319319	0.306849	-2.034879	8
C	0.380949	-1.105971	-0.062639	6
C	0.735879	-0.717361	1.373821	6
C	0.885040	0.766389	1.291570	6
C	0.380469	1.249799	0.151351	6
H	-2.145640	0.086639	0.239101	1
H	-2.085371	-0.618061	-1.389859	1
H	-2.068250	1.126999	-1.197749	1
H	1.278880	0.449259	-1.964809	1
H	1.283219	-1.447401	-0.587659	1
H	-0.326280	-1.942521	-0.084359	1
H	1.661759	-1.202411	1.695171	1
H	-0.064941	-0.979831	2.072261	1
H	1.311589	1.370129	2.081410	1
H	0.340989	2.299169	-0.109969	1
Es	1.001433	-1.324606	-0.421688	99
Es	0.091875	0.742486	-0.291670	99
Es	0.319507	0.306864	-2.034577	99
Es	0.356050	1.056647	0.855110	99
Es	-1.704808	0.191488	-0.757384	99
Es	-1.946087	0.831349	-1.049524	99
Es	0.735878	-0.717326	1.373801	99
Es	-0.106262	-1.676336	-0.078287	99
Es	0.088161	-0.488972	-0.391458	99
Es	0.380452	1.249837	0.151259	99
Es	0.277236	0.035791	-2.175274	99
Es	0.836164	0.380276	-1.974811	99
Es	0.885075	0.766329	1.291680	99
Es	0.380956	-1.105964	-0.062594	99
Es	-0.182713	0.166866	-0.715554	99
Es	1.366515	-1.045851	1.596942	99
Es	0.554018	-0.928450	0.666996	99
Es	0.202140	0.570256	-2.145645	99
Es	1.177978	1.168665	1.834856	99
Es	-1.993170	0.117277	-0.074353	99
Es	0.939591	0.994390	0.568308	99
Es	0.349529	1.958873	-0.037228	99
Es	-1.956707	-0.362928	-1.181547	99
Es	0.150670	0.256501	-1.528939	99
Es	0.190139	-0.886269	1.847978	99
Es	-0.946212	0.180761	-0.731249	99
Es	0.832308	0.029292	1.366486	99
44
Properties=species:S:1:pos:R:3:Z:I:1 energy=-307.9813943288558 field_type=dipole dipole="0.000000 0.000000 0.000000" charge=0
C	-1.704830	0.191489	-0.757399	6
C	-0.182781	0.166839	-0.715359	6
O	0.319319	0.306849	-2.034879	8
C	0.380949	-1.105971	-0.062639	6
C	0.735879	-0.717361	1.373821	6
C	0.885040	0.766389	1.291570	6
C	0.380469	1.249799	0.151351	6
H	-2.145640	0.086639	0.239101	1
H	-2.085371	-0.618061	-1.389859	1
H	-2.068250	1.126999	-1.197749	1
H	1.278880	0.449259	-1.964809	1
H	1.283219	-1.447401	-0.587659	1
H	-0.326280	-1.942521	-0.084359	1
H	1.661759	-1.202411	1.695171	1
H	-0.064941	-0.979831	2.072261	1
H	1.311589	1.370129	2.081410	1
H	0.340989	2.299169	-0.109969	1
Es	0.885081	0.766331	1.291670	99
Es	-0.106327	-1.676250	-0.078312	99
Es	0.088387	-0.488869	-0.391465	99
Es	0.735878	-0.717326	1.373801	99
Es	0.150803	0.255982	-1.528747	99
Es	0.832505	0.029292	1.366536	99
Es	0.554068	-0.928455	0.666980	99
Es	0.836437	0.378272	-1.975207	99
Es	1.178014	1.168760	1.834839	99
Es	0.190218	-0.886327	1.848016	99
Es	0.939482	0.994444	0.568427	99
Es	0.355935	1.056495	0.855050	99
Es	-1.704809	0.191489	-0.757385	99
Es	-1.956781	-0.362966	-1.181582	99
Es	-0.946160	0.180746	-0.731318	99
Es	-0.182715	0.166862	-0.715549	99
Es	0.204346	0.571477	-2.142848	99
Es	0.091752	0.742506	-0.291697	99
Es	0.380955	-1.105962	-0.062593	99
Es	-1.993106	0.117305	-0.074354	99
Es	0.274636	0.037105	-2.177883	99
Es	-1.946147	0.831254	-1.049420	99
Es	0.349525	1.958870	-0.037232	99
Es	0.319512	0.306890	-2.034577	99
Es	1.001323	-1.324717	-0.421687	99
Es	0.380435	1.249838	0.151271	99
Es	1.366465	-1.045801	1.596900	99
44
Properties=species:S:1:pos:R:3:Z:I:1 energy=-307.9813943288558 field_type=dipole dipole="0.000000 0.000000 0.000000" charge=0
C	-1.704830	0.191489	-0.757399	6
C	-0.182781	0.166839	-0.715359	6
O	0.319319	0.306849	-2.034879	8
C	0.380949	-1.105971	-0.062639	6
C	0.735879	-0.717361	1.373821	6
C	0.885040	0.766389	1.291570	6
C	0.380469	1.249799	0.151351	6
H	-2.145640	0.086639	0.239101	1
H	-2.085371	-0.618061	-1.389859	1
H	-2.068250	1.126999	-1.197749	1
H	1.278880	0.449259	-1.964809	1
H	1.283219	-1.447401	-0.587659	1
H	-0.326280	-1.942521	-0.084359	1
H	1.661759	-1.202411	1.695171	1
H	-0.064941	-0.979831	2.072261	1
H	1.311589	1.370129	2.081410	1
H	0.340989	2.299169	-0.109969	1
Es	0.735878	-0.717326	1.373801	99
Es	0.319519	0.306781	-2.034596	99
Es	0.885082	0.766330	1.291676	99
Es	-0.182713	0.166866	-0.715553	99
Es	-1.946225	0.831243	-1.049392	99
Es	-1.956725	-0.362978	-1.181598	99
Es	0.087913	-0.488975	-0.391564	99
Es	-0.946157	0.181044	-0.731385	99
Es	0.091918	0.742338	-0.291592	99
Es	0.150303	0.257035	-1.528455	99
Es	0.380435	1.249838	0.151268	99
Es	0.356060	1.056560	0.855009	99
Es	1.178012	1.168754	1.834789	99
Es	0.832539	0.029273	1.366548	99
Es	-0.106072	-1.676294	-0.078362	99
Es	0.939322	0.994512	0.568529	99
Es	1.001303	-1.324586	-0.421741	99
Es	0.190275	-0.886308	1.847985	99
Es	-1.993062	0.117242	-0.074326	99
Es	1.366378	-1.045830	1.596934	99
Es	0.380955	-1.105961	-0.062593	99
Es	0.277996	0.036380	-2.173462	99
Es	-1.704809	0.191489	-0.757385	99
Es	0.554077	-0.928637	0.667046	99
Es	0.349575	1.958908	-0.037231	99
Es	0.836399	0.380180	-1.975343	99
Es	0.201537	0.569368	-2.147375	99
44
Properties=species:S:1:pos:R:3:Z:I:1 energy=-307.9813943288558 field_type=dipole dipole="0.000000 0.000000 0.000000" charge=0
C	-1.704830	0.191489	-0.757399	6
C	-0.182781	0.166839	-0.715359	6
O	0.319319	0.306849	-2.034879	8
C	0.380949	-1.105971	-0.062639	6
C	0.735879	-0.717361	1.373821	6
C	0.885040	0.766389	1.291570	6
C	0.380469	1.249799	0.151351	6
H	-2.145640	0.086639	0.239101	1
H	-2.085371	-0.618061	-1.389859	1
H	-2.068250	1.126999	-1.197749	1
H	1.278880	0.449259	-1.964809	1
H	1.283219	-1.447401	-0.587659	1
H	-0.326280	-1.942521	-0.084359	1
H	1.661759	-1.202411	1.695171	1
H	-0.064941	-0.979831	2.072261	1
H	1.311589	1.370129	2.081410	1
H	0.340989	2.299169	-0.109969	1
Es	-1.946256	0.831207	-1.049431	99
Es	0.088168	-0.488916	-0.391569	99
Es	0.190313	-0.886271	1.847964	99
Es	-0.106133	-1.676252	-0.078376	99
Es	-1.993076	0.117275	-0.074345	99
Es	-1.704811	0.191489	-0.757385	99
Es	0.356036	1.056518	0.854989	99
Es	0.091898	0.742299	-0.291842	99
Es	0.836631	0.379562	-1.975847	99
Es	0.380954	-1.105962	-0.062594	99
Es	0.150515	0.257779	-1.528302	99
Es	-1.956733	-0.362971	-1.181539	99
Es	0.380425	1.249840	0.151276	99
Es	0.735878	-0.717326	1.373801	99
Es	1.001295	-1.324661	-0.421662	99
Es	0.939165	0.994557	0.568630	99
Es	0.554000	-0.928550	0.667017	99
Es	0.319439	0.306852	-2.034640	99
Es	-0.182714	0.166865	-0.715549	99
Es	1.178050	1.168773	1.834797	99
Es	0.349678	1.958901	-0.037172	99
Es	1.366401	-1.045820	1.596985	99
Es	0.885083	0.766331	1.291674	99
Es	0.200242	0.569061	-2.150019	99
Es	0.278930	0.036467	-2.170479	99
Es	0.832509	0.029196	1.366558	99
Es	-0.946175	0.181004	-0.731306	99
44
Properties=species:S:1:pos:R:3:Z:I:1 energy=-307.9813943288558 field_type=dipole dipole="0.000000 0.000000 0.000000" charge=0
C	-1.704830	0.191489	-0.757399	6
C	-0.182781	0.166839	-0.715359	6
O	0.319319	0.306849	-2.034879	8
C	0.380949	-1.105971	-0.062639	6
C	0.735879	-0.717361	1.373821	6
C	0.885040	0.766389	1.291570	6
C	0.380469	1.249799	0.151351	6
H	-2.145640	0.086639	0.239101	1
H	-2.085371	-0.618061	-1.389859	1
H	-2.068250	1.126999	-1.197749	1
H	1.278880	0.449259	-1.964809	1
H	1.283219	-1.447401	-0.587659	1
H	-0.326280	-1.942521	-0.084359	1
H	1.661759	-1.202411	1.695171	1
H	-0.064941	-0.979831	2.072261	1
H	1.311589	1.370129	2.081410	1
H	0.340989	2.299169	-0.109969	1
Es	-1.993045	0.117279	-0.074373	99
Es	-0.106084	-1.676199	-0.078385	99
Es	1.001263	-1.324689	-0.421698	99
Es	0.885083	0.766331	1.291673	99
Es	0.356321	1.056573	0.854932	99
Es	0.735878	-0.717326	1.373800	99
Es	0.380436	1.249840	0.151273	99
Es	0.088172	-0.488933	-0.391575	99
Es	0.349640	1.958928	-0.037131	99
Es	1.366332	-1.045796	1.597058	99
Es	0.832484	0.029091	1.366626	99
Es	0.380957	-1.105964	-0.062592	99
Es	-0.182714	0.166865	-0.715549	99
Es	0.150185	0.256547	-1.528424	99
Es	-1.946265	0.831221	-1.049401	99
Es	-0.946155	0.180983	-0.731302	99
Es	1.177964	1.168855	1.834767	99
Es	0.202318	0.569653	-2.146184	99
Es	0.554027	-0.928612	0.667008	99
Es	-1.704811	0.191488	-0.757386	99
Es	0.091783	0.742251	-0.291833	99
Es	0.319488	0.306858	-2.034579	99
Es	0.939137	0.994516	0.568587	99
Es	0.190322	-0.886208	1.847970	99
Es	-1.956768	-0.362981	-1.181540	99
Es	0.836752	0.379492	-1.975643	99
Es	0.277012	0.037188	-2.174468	99
44
Properties=species:S:1:pos:R:3:Z:I:1 energy=-307.9813943288558 field_type=dipole dipole="0.000000 0.000000 0.000000" charge=0
C	-1.704830	0.191489	-0.757399	6
C	-0.182781	0.166839	-0.715359	6
O	0.319319	0.306849	-2.034879	8
C	0.380949	-1.105971	-0.062639	6
C	0.735879	-0.717361	1.373821	6
C	0.885040	0.766389	1.291570	6
C	0.380469	1.249799	0.151351	6
H	-2.145640	0.086639	0.239101	1
H	-2.085371	-0.618061	-1.389859	1
H	-2.068250	1.126999	-1.197749	1
H	1.278880	0.449259	-1.964809	1
H	1.283219	-1.447401	-0.587659	1
H	-0.326280	-1.942521	-0.084359	1
H	1.661759	-1.202411	1.695171	1
H	-0.064941	-0.979831	2.072261	1
H	1.311589	1.370129	2.081410	1
H	0.340989	2.299169	-0.109969	1
Es	-0.946171	0.180986	-0.731368	99
Es	0.356436	1.056502	0.854837	99
Es	-0.106043	-1.676137	-0.078389	99
Es	1.366271	-1.045833	1.597141	99
Es	0.319516	0.306928	-2.034576	99
Es	-1.704810	0.191489	-0.757385	99
Es	-1.946327	0.831302	-1.049328	99
Es	0.836616	0.379619	-1.975486	99
Es	0.832461	0.029128	1.366676	99
Es	-1.992965	0.117160	-0.074368	99
Es	0.349671	1.959020	-0.037108	99
Es	-1.956750	-0.362954	-1.181569	99
Es	0.277098	0.037125	-2.174666	99
Es	0.885080	0.766331	1.291674	99
Es	0.190383	-0.886153	1.847901	99
Es	0.149658	0.257063	-1.528204	99
Es	0.380419	1.249840	0.151281	99
Es	0.735877	-0.717326	1.373801	99
Es	0.088147	-0.488927	-0.391587	99
Es	1.177888	1.168859	1.834751	99
Es	0.554025	-0.928714	0.667036	99
Es	0.202894	0.569013	-2.146375	99
Es	-0.182716	0.166865	-0.715546	99
Es	0.380955	-1.105962	-0.062593	99
Es	1.001236	-1.324738	-0.421716	99
Es	0.939071	0.994564	0.568647	99
Es	0.091793	0.742197	-0.291848	99
44
Properties=species:S:1:pos:R:3:Z:I:1 energy=-307.9813943288558 field_type=dipole dipole="0.000000 0.000000 0.000000" charge=0
C	-1.704830	0.191489	-0.757399	6
C	-0.182781	0.166839	-0.715359	6
O	0.319319	0.306849	-2.034879	8
C	0.380949	-1.105971	-0.062639	6
C	0.735879	-0.717361	1.373821	6
C	0.885040	0.766389	1.291570	6
C	0.380469	1.249799	0.151351	6
H	-2.145640	0.086639	0.239101	1
H	-2.085371	-0.618061	-1.389859	1
H	-2.068250	1.126999	-1.197749	1
H	1.278880	0.449259	-1.964809	1
H	1.283219	-1.447401	-0.587659	1
H	-0.326280	-1.942521	-0.084359	1
H	1.661759	-1.202411	1.695171	1
H	-0.064941	-0.979831	2.072261	1
H	1.311589	1.370129	2.081410	1
H	0.340989	2.299169	-0.109969	1
Es	-0.106024	-1.676183	-0.078475	99
Es	0.088250	-0.488879	-0.391559	99
Es	0.149733	0.256363	-1.528103	99
Es	-1.956807	-0.362892	-1.181566	99
Es	-1.993034	0.117182	-0.074430	99
Es	0.200605	0.567906	-2.148319	99
Es	-1.946315	0.831251	-1.049298	99
Es	0.319511	0.306961	-2.034550	99
Es	0.380437	1.249838	0.151267	99
Es	0.091617	0.742132	-0.291934	99
Es	1.177880	1.168964	1.834769	99
Es	0.349535	1.959003	-0.036948	99
Es	0.190361	-0.886101	1.847918	99
Es	0.832402	0.028969	1.366718	99
Es	-1.704812	0.191491	-0.757386	99
Es	0.885076	0.766327	1.291675	99
Es	0.554096	-0.928750	0.666993	99
Es	-0.946112	0.180954	-0.731325	99
Es	0.380957	-1.105964	-0.062594	99
Es	0.356825	1.056555	0.854749	99
Es	1.366228	-1.045805	1.597191	99
Es	1.001149	-1.324673	-0.421686	99
Es	0.836665	0.381307	-1.975804	99
Es	-0.182715	0.166866	-0.715547	99
Es	0.735880	-0.717327	1.373801	99
Es	0.939040	0.994513	0.568596	99
Es	0.279285	0.037238	-2.172521	99
44
Properties=species:S:1:pos:R:3:Z:I:1 energy=-307.9813943288558 field_type=dipole dipole="0.000000 0.000000 0.000000" charge=0
C	-1.704830	0.191489	-0.757399	6
C	-0.182781	0.166839	-0.715359	6
O	0.319319	0.306849	-2.034879	8
C	0.380949	-1.105971	-0.062639	6
C	0.735879	-0.717361	1.373821	6
C	0.885040	0.766389	1.291570	6
C	0.380469	1.249799	0.151351	6
H	-2.145640	0.086639	0.239101	1
H	-2.085371	-0.618061	-1.389859	1
H	-2.068250	1.126999	-1.197749	1
H	1.278880	0.449259	-1.964809	1
H	1.283219	-1.447401	-0.587659	1
H	-0.326280	-1.942521	-0.084359	1
H	1.661759	-1.202411	1.695171	1
H	-0.064941	-0.979831	2.072261	1
H	1.311589	1.370129	2.081410	1
H	0.340989	2.299169	-0.109969	1
Es	0.319360	0.306821	-2.034774	99
Es	1.177974	1.168997	1.834670	99
Es	-0.182714	0.166865	-0.715551	99
Es	0.885081	0.766331	1.291673	99
Es	-1.992994	0.117198	-0.074403	99
Es	0.380435	1.249837	0.151274	99
Es	0.149887	0.256711	-1.528203	99
Es	0.202204	0.568977	-2.146579	99
Es	-0.946109	0.181032	-0.731319	99
Es	0.832560	0.028876	1.366710	99
Es	0.091703	0.742094	-0.292017	99
Es	0.735878	-0.717326	1.373799	99
Es	1.001215	-1.324685	-0.421694	99
Es	0.277495	0.037475	-2.173773	99
Es	-0.105917	-1.676119	-0.078506	99
Es	-1.946356	0.831211	-1.049289	99
Es	0.088193	-0.488921	-0.391576	99
Es	0.553945	-0.928741	0.667042	99
Es	0.356532	1.056547	0.854823	99
Es	0.380957	-1.105963	-0.062593	99
Es	0.190423	-0.886130	1.847992	99
Es	-1.704809	0.191489	-0.757385	99
Es	1.366235	-1.045754	1.597130	99
Es	0.938725	0.994592	0.568827	99
Es	0.836839	0.379784	-1.976012	99
Es	0.349777	1.958977	-0.037071	99
Es	-1.956808	-0.362928	-1.181561	99
44
Properties=species:S:1:pos:R:3:Z:I:1 energy=-307.9813943288558 field_type=dipole dipole="0.000000 0.000000 0.000000" charge=0
C	-1.704830	0.191489	-0.757399	6
C	-0.182781	0.166839	-0.715359	6
O	0.319319	0.306849	-2.034879	8
C	0.380949	-1.105971	-0.062639	6
C	0.735879	-0.717361	1.373821	6
C	0.885040	0.766389	1.291570	6
C	0.380469	1.249799	0.151351	6
H	-2.145640	0.086639	0.239101	1
H	-2.085371	-0.618061	-1.389859	1
H	-2.068250	1.126999	-1.197749	1
H	1.278880	0.449259	-1.964809	1
H	1.283219	-1.447401	-0.587659	1
H	-0.326280	-1.942521	-0.084359	1
H	1.661759	-1.202411	1.695171	1
H	-0.064941	-0.979831	2.072261	1
H	1.311589	1.370129	2.081410	1
H	0.340989	2.299169	-0.109969	1
Es	-1.946345	0.831272	-1.049334	99
Es	-1.704810	0.191489	-0.757385	99
Es	1.177974	1.169093	1.834732	99
Es	0.356658	1.056496	0.854771	99
Es	0.836831	0.380406	-1.975911	99
Es	0.554009	-0.928669	0.667011	99
Es	-0.105968	-1.676113	-0.078477	99
Es	-0.946122	0.181028	-0.731236	99
Es	0.938565	0.994581	0.568897	99
Es	0.190452	-0.886087	1.847971	99
Es	-0.182715	0.166865	-0.715544	99
Es	0.885080	0.766331	1.291672	99
Es	0.735878	-0.717326	1.373800	99
Es	0.380955	-1.105962	-0.062592	99
Es	0.149667	0.256955	-1.528086	99
Es	0.832434	0.028771	1.366701	99
Es	0.380436	1.249836	0.151274	99
Es	1.001120	-1.324720	-0.421720	99
Es	0.319515	0.306890	-2.034563	99
Es	0.349828	1.958987	-0.037100	99
Es	-1.992951	0.117294	-0.074519	99
Es	-1.956864	-0.363033	-1.181491	99
Es	0.278184	0.037301	-2.173124	99
Es	0.088222	-0.488952	-0.391602	99
Es	0.201611	0.568215	-2.147645	99
Es	1.366298	-1.045754	1.597177	99
Es	0.091772	0.742050	-0.292042	99
44
Properties=species:S:1:pos:R:3:Z:I:1 energy=-307.9813943288558 field_type=dipole dipole="0.000000 0.000000 0.000000" charge=0
C	-1.704830	0.191489	-0.757399	6
C	-0.182781	0.166839	-0.715359	6
O	0.319319	0.306849	-2.034879	8
C	0.380949	-1.105971	-0.062639	6
C	0.735879	-0.717361	1.373821	6
C	0.885040	0.766389	1.291570	6
C	0.380469	1.249799	0.151351	6
H	-2.145640	0.086639	0.239101	1
H	-2.085371	-0.618061	-1.389859	1
H	-2.068250	1.126999	-1.197749	1
H	1.278880	0.449259	-1.964809	1
H	1.283219	-1.447401	-0.587659	1
H	-0.326280	-1.942521	-0.084359	1
H	1.661759	-1.202411	1.695171	1
H	-0.064941	-0.979831	2.072261	1
H	1.311589	1.370129	2.081410	1
H	0.340989	2.299169	-0.109969	1
Es	-1.946302	0.831205	-1.049338	99
Es	0.938399	0.994509	0.568840	99
Es	0.885084	0.766331	1.291669	99
Es	0.190512	-0.886096	1.848009	99
Es	1.001024	-1.324778	-0.421693	99
Es	0.088297	-0.488891	-0.391653	99
Es	0.091651	0.741961	-0.292089	99
Es	0.380956	-1.105963	-0.062593	99
Es	0.356902	1.056685	0.854807	99
Es	0.149416	0.257125	-1.527959	99
Es	0.349903	1.959038	-0.037030	99
Es	0.735878	-0.717326	1.373800	99
Es	-0.105959	-1.676067	-0.078495	99
Es	-0.946136	0.181010	-0.731255	99
Es	-0.182715	0.166865	-0.715544	99
Es	0.832471	0.028720	1.366783	99
Es	-1.956833	-0.362941	-1.181522	99
Es	0.554064	-0.928777	0.667025	99
Es	-1.993040	0.117275	-0.074450	99
Es	0.319497	0.306885	-2.034623	99
Es	-1.704807	0.191487	-0.757393	99
Es	0.278471	0.037436	-2.172616	99
Es	1.366198	-1.045699	1.597176	99
Es	0.380437	1.249837	0.151271	99
Es	0.201510	0.567808	-2.148058	99
Es	0.836921	0.380519	-1.976074	99
Es	1.177916	1.169087	1.834639	99
44
Properties=species:S:1:pos:R:3:Z:I:1 energy=-307.9813943288558 field_type=dipole dipole="0.000000 0.000000 0.000000" charge=0
C	-1.704830	0.191489	-0.757399	6
C	-0.182781	0.166839	-0.715359	6
O	0.319319	0.306849	-2.034879	8
C	0.380949	-1.105971	-0.062639	6
C	0.735879	-0.717361	1.373821	6
C	0.885040	0.766389	1.291570	6
C	0.380469	1.249799	0.151351	6
H	-2.145640	0.086639	0.239101	1
H	-2.085371	-0.618061	-1.389859	1
H	-2.068250	1.126999	-1.197749	1
H	1.278880	0.449259	-1.964809	1
H	1.283219	-1.447401	-0.587659	1
H	-0.326280	-1.942521	-0.084359	1
H	1.661759	-1.202411	1.695171	1
H	-0.064941	-0.979831	2.072261	1
H	1.311589	1.370129	2.081410	1
H	0.340989	2.299169	-0.109969	1
Es	0.319482	0.306832	-2.034645	99
Es	1.366165	-1.045704	1.597203	99
Es	0.380436	1.249836	0.151274	99
Es	-1.993017	0.117298	-0.074472	99
Es	1.001012	-1.324735	-0.421695	99
Es	0.554053	-0.928783	0.667010	99
Es	-0.105885	-1.676080	-0.078530	99
Es	-1.704811	0.191489	-0.757385	99
Es	0.277142	0.037981	-2.174703	99
Es	0.735878	-0.717326	1.373800	99
Es	0.190537	-0.886086	1.847995	99
Es	0.380955	-1.105962	-0.062592	99
Es	0.091725	0.741910	-0.292180	99
Es	-0.946063	0.181092	-0.731258	99
Es	-1.946362	0.831166	-1.049342	99
Es	0.349881	1.959034	-0.037005	99
Es	0.088240	-0.488914	-0.391644	99
Es	-1.956857	-0.362951	-1.181482	99
Es	0.836933	0.379933	-1.976061	99
Es	0.938371	0.994664	0.569027	99
Es	1.177948	1.169116	1.834595	99
Es	0.885080	0.766331	1.291672	99
Es	0.202811	0.568470	-2.145973	99
Es	-0.182715	0.166865	-0.715544	99
Es	0.356808	1.056542	0.854706	99
Es	0.832514	0.028674	1.366834	99
Es	0.149450	0.256559	-1.527970	99
44
Properties=species:S:1:pos:R:3:Z:I:1 energy=-307.9813943288558 field_type=dipole dipole="0.000000 0.000000 0.000000" charge=0
C	-1.704830	0.191489	-0.757399	6
C	-0.182781	0.166839	-0.715359	6
O	0.319319	0.306849	-2.034879	8
C	0.380949	-1.105971	-0.062639	6
C	0.735879	-0.717361	1.373821	6
C	0.885040	0.766389	1.291570	6
C	0.380469	1.249799	0.151351	6
H	-2.145640	0.086639	0.239101	1
H	-2.085371	-0.618061	-1.389859	1
H	-2.068250	1.126999	-1.197749	1
H	1.278880	0.449259	-1.964809	1
H	1.283219	-1.447401	-0.587659	1
H	-0.326280	-1.942521	-0.084359	1
H	1.661759	-1.202411	1.695171	1
H	-0.064941	-0.979831	2.072261	1
H	1.311589	1.370129	2.081410	1
H	0.340989	2.299169	-0.109969	1
Es	0.088215	-0.488912	-0.391634	99
Es	0.380955	-1.105962	-0.062592	99
Es	0.938218	0.994686	0.569099	99
Es	0.380436	1.249835	0.151275	99
Es	0.277724	0.037879	-2.173738	99
Es	-1.946395	0.831145	-1.049386	99
Es	0.319363	0.306875	-2.034812	99
Es	1.177938	1.169179	1.834560	99
Es	0.554071	-0.928814	0.667012	99
Es	-0.105849	-1.676043	-0.078546	99
Es	0.091697	0.741827	-0.292195	99
Es	0.149228	0.257014	-1.527870	99
Es	-1.992994	0.117323	-0.074457	99
Es	0.885085	0.766328	1.291678	99
Es	-0.182715	0.166865	-0.715543	99
Es	0.735879	-0.717326	1.373800	99
Es	-0.946074	0.181147	-0.731275	99
Es	0.190535	-0.886055	1.847986	99
Es	-1.956838	-0.362998	-1.181442	99
Es	1.366128	-1.045695	1.597242	99
Es	0.202469	0.567619	-2.146678	99
Es	0.837098	0.380425	-1.976274	99
Es	0.356926	1.056517	0.854654	99
Es	0.832532	0.028577	1.366860	99
Es	-1.704811	0.191489	-0.757386	99
Es	0.349906	1.959076	-0.036994	99
Es	1.000985	-1.324753	-0.421711	99
44
Properties=species:S:1:pos:R:3:Z:I:1 energy=-307.9813943288558 field_type=dipole dipole="0.000000 0.000000 0.000000" charge=0
C	-1.704830	0.191489	-0.757399	6
C	-0.182781	0.166839	-0.715359	6
O	0.319319	0.306849	-2.034879	8
C	0.380949	-1.105971	-0.062639	6
C	0.735879	-0.717361	1.373821	6
C	0.885040	0.766389	1.291570	6
C	0.380469	1.249799	0.151351	6
H	-2.145640	0.086639	0.239101	1
H	-2.085371	-0.618061	-1.389859	1
H	-2.068250	1.126999	-1.197749	1
H	1.278880	0.449259	-1.964809	1
H	1.283219	-1.447401	-0.587659	1
H	-0.326280	-1.942521	-0.084359	1
H	1.661759	-1.202411	1.695171	1
H	-0.064941	-0.979831	2.072261	1
H	1.311589	1.370129	2.081410	1
H	0.340989	2.299169	-0.109969	1
Es	-0.105819	-1.676007	-0.078526	99
Es	0.938115	0.994722	0.569172	99
Es	0.832490	0.028546	1.366879	99
Es	-0.946037	0.181096	-0.731273	99
Es	1.000933	-1.324810	-0.421699	99
Es	0.088303	-0.488842	-0.391666	99
Es	0.202803	0.568509	-2.145792	99
Es	0.554120	-0.928890	0.666977	99
Es	1.177958	1.169183	1.834530	99
Es	0.319521	0.306834	-2.034556	99
Es	0.837178	0.379579	-1.976363	99
Es	0.380955	-1.105962	-0.062592	99
Es	0.149413	0.255978	-1.527838	99
Es	-1.956893	-0.362949	-1.181450	99
Es	0.349924	1.959088	-0.036976	99
Es	0.885080	0.766331	1.291671	99
Es	0.356980	1.056540	0.854634	99
Es	-1.704811	0.191489	-0.757385	99
Es	1.366087	-1.045598	1.597248	99
Es	0.380436	1.249835	0.151275	99
Es	-0.182716	0.166865	-0.715542	99
Es	0.276910	0.038879	-2.174819	99
Es	-1.946394	0.831102	-1.049334	99
Es	0.735878	-0.717326	1.373800	99
Es	0.091705	0.741819	-0.292294	99
Es	-1.993009	0.117330	-0.074472	99
Es	0.190603	-0.886094	1.848025	99
44
Properties=species:S:1:pos:R:3:Z:I:1 energy=-307.9813943288558 field_type=dipole dipole="0.000000 0.000000 0.000000" charge=0
C	-1.704830	0.191489	-0.757399	6
C	-0.182781	0.166839	-0.715359	6
O	0.319319	0.306849	-2.034879	8
C	0.380949	-1.105971	-0.062639	6
C	0.735879	-0.717361	1.373821	6
C	0.885040	0.766389	1.291570	6
C	0.380469	1.249799	0.151351	6
H	-2.145640	0.086639	0.239101	1
H	-2.085371	-0.618061	-1.389859	1
H	-2.068250	1.126999	-1.197749	1
H	1.278880	0.449259	-1.964809	1
H	1.283219	-1.447401	-0.587659	1
H	-0.326280	-1.942521	-0.084359	1
H	1.661759	-1.202411	1.695171	1
H	-0.064941	-0.979831	2.072261	1
H	1.311589	1.370129	2.081410	1
H	0.340989	2.299169	-0.109969	1
Es	-0.182718	0.166865	-0.715542	99
Es	0.832598	0.028485	1.366984	99
Es	0.937883	0.994703	0.569274	99
Es	-1.992950	0.117247	-0.074519	99
Es	0.350080	1.959103	-0.036939	99
Es	0.837230	0.381078	-1.976536	99
Es	0.380437	1.249831	0.151275	99
Es	0.190612	-0.886071	1.848003	99
Es	0.201729	0.566896	-2.147366	99
Es	0.735879	-0.717326	1.373801	99
Es	0.554089	-0.928866	0.667019	99
Es	0.319533	0.306920	-2.034505	99
Es	0.149044	0.256830	-1.527790	99
Es	0.088449	-0.488821	-0.391627	99
Es	1.000882	-1.324798	-0.421684	99
Es	-1.946415	0.831178	-1.049232	99
Es	-0.105860	-1.675977	-0.078644	99
Es	-1.704810	0.191489	-0.757385	99
Es	0.380955	-1.105962	-0.062593	99
Es	0.885076	0.766332	1.291669	99
Es	1.177970	1.169256	1.834474	99
Es	1.366084	-1.045658	1.597247	99
Es	-0.946055	0.181072	-0.731272	99
Es	-1.956937	-0.362911	-1.181496	99
Es	0.278292	0.038066	-2.173167	99
Es	0.356975	1.056518	0.854608	99
Es	0.091663	0.741766	-0.292423	99
44
Properties=species:S:1:pos:R:3:Z:I:1 energy=-307.9813943288558 field_type=dipole dipole="0.000000 0.000000 0.000000" charge=0
C	-1.704830	0.191489	-0.757399	6
C	-0.182781	0.166839	-0.715359	6
O	0.319319	0.306849	-2.034879	8
C	0.380949	-1.105971	-0.062639	6
C	0.735879	-0.717361	1.373821	6
C	0.885040	0.766389	1.291570	6
C	0.380469	1.249799	0.151351	6
H	-2.145640	0.086639	0.239101	1
H	-2.085371	-0.618061	-1.389859	1
H	-2.068250	1.126999	-1.197749	1
H	1.278880	0.449259	-1.964809	1
H	1.283219	-1.447401	-0.587659	1
H	-0.326280	-1.942521	-0.084359	1
H	1.661759	-1.202411	1.695171	1
H	-0.064941	-0.979831	2.072261	1
H	1.311589	1.370129	2.081410	1
H	0.340989	2.299169	-0.109969	1
Es	0.277984	0.038252	-2.173510	99
Es	0.937878	0.994703	0.569244	99
Es	-0.105757	-1.676028	-0.078592	99
Es	0.202497	0.567489	-2.147237	99
Es	-1.704812	0.191489	-0.757386	99
Es	-1.993005	0.117359	-0.074508	99
Es	0.148808	0.256991	-1.527776	99
Es	0.885078	0.766333	1.291669	99
Es	0.832468	0.028393	1.366976	99
Es	0.837129	0.380246	-1.976197	99
Es	0.735872	-0.717329	1.373806	99
Es	0.190662	-0.886013	1.848006	99
Es	0.091707	0.741667	-0.292350	99
Es	1.366072	-1.045630	1.597294	99
Es	0.357225	1.056576	0.854591	99
Es	0.380955	-1.105961	-0.062591	99
Es	1.177942	1.169296	1.834457	99
Es	0.554102	-0.928892	0.666998	99
Es	-0.182717	0.166864	-0.715541	99
Es	0.319451	0.306855	-2.034657	99
Es	0.088246	-0.488906	-0.391737	99
Es	-0.946034	0.181138	-0.731238	99
Es	-1.956921	-0.362949	-1.181410	99
Es	0.380434	1.249840	0.151274	99
Es	0.349991	1.959104	-0.036909	99
Es	1.000846	-1.324756	-0.421687	99
Es	-1.946390	0.831117	-1.049357	99
44
Properties=species:S:1:pos:R:3:Z:I:1 energy=-307.9813943288558 field_type=dipole dipole="0.000000 0.000000 0.000000" charge=0
C	-1.704830	0.191489	-0.757399	6
C	-0.182781	0.166839	-0.715359	6
O	0.319319	0.306849	-2.034879	8
C	0.380949	-1.105971	-0.062639	6
C	0.735879	-0.717361	1.373821	6
C	0.885040	0.766389	1.291570	6
C	0.380469	1.249799	0.151351	6
H	-2.145640	0.086639	0.239101	1
H	-2.085371	-0.618061	-1.389859	1
H	-2.068250	1.126999	-1.197749	1
H	1.278880	0.449259	-1.964809	1
H	1.283219	-1.447401	-0.587659	1
H	-0.326280	-1.942521	-0.084359	1
H	1.661759	-1.202411	1.695171	1
H	-0.064941	-0.979831	2.072261	1
H	1.311589	1.370129	2.081410	1
H	0.340989	2.299169	-0.109969	1
Es	-1.946446	0.831139	-1.049271	99
Es	-1.992984	0.117267	-0.074538	99
Es	0.885082	0.766331	1.291667	99
Es	0.380437	1.249834	0.151277	99
Es	0.091553	0.741647	-0.292395	99
Es	0.350007	1.959129	-0.036885	99
Es	-1.704812	0.191489	-0.757385	99
Es	-0.945998	0.181187	-0.731229	99
Es	0.832459	0.028320	1.366958	99
Es	1.177863	1.169357	1.834471	99
Es	-1.956907	-0.362924	-1.181465	99
Es	0.735879	-0.717327	1.373802	99
Es	0.380955	-1.105962	-0.062592	99
Es	0.357418	1.056599	0.854539	99
Es	1.000811	-1.324719	-0.421664	99
Es	0.937818	0.994661	0.569204	99
Es	0.837133	0.381306	-1.976603	99
Es	0.148952	0.257179	-1.527583	99
Es	-0.182716	0.166865	-0.715540	99
Es	0.190685	-0.885942	1.848020	99
Es	0.201215	0.566488	-2.148520	99
Es	-0.105738	-1.676051	-0.078641	99
Es	0.279050	0.038002	-2.172081	99
Es	1.366088	-1.045609	1.597345	99
Es	0.319499	0.306843	-2.034602	99
Es	0.088325	-0.488918	-0.391678	99
Es	0.554085	-0.928941	0.667024	99
