44
Properties=species:S:1:pos:R:3:Z:I:1 energy=-307.96605792222783 field_type=dipole dipole="0.000000 0.000000 0.000000" charge=0
C	-1.905606	-1.851735	-0.207612	6
C	-0.567745	-1.778075	-0.198732	6
C	0.283595	-0.565805	-0.433232	6
C	-0.400925	0.795955	-0.432992	6
C	0.731804	1.704675	-0.025922	6
C	1.441795	0.858575	1.008028	6
O	1.279855	-0.508165	0.605698	8
H	-2.403476	-2.799235	-0.020762	1
H	-2.536825	-0.991355	-0.398552	1
H	-0.007416	-2.692005	-0.006972	1
H	0.827464	-0.703695	-1.376242	1
H	-1.192005	0.851995	0.324948	1
H	-0.835456	1.054105	-1.403092	1
H	1.391404	1.884685	-0.882852	1
H	0.403034	2.670875	0.365118	1
H	2.506274	1.096525	1.086528	1
H	0.984225	0.972675	1.996648	1
Es	0.508141	2.362237	0.244592	99
Es	-1.905699	-1.851739	-0.207628	99
Es	-1.258128	-1.743125	0.115098	99
Es	0.151878	1.271740	-0.242629	99
Es	-2.337467	-1.268933	-0.336670	99
Es	1.095377	1.304945	0.495938	99
Es	-0.400892	0.795944	-0.432988	99
Es	-1.242200	-1.871666	-0.528436	99
Es	-0.937530	0.828309	0.086462	99
Es	-0.695047	0.967375	-1.096182	99
Es	0.731797	1.704649	-0.025915	99
Es	-2.249209	-2.490271	-0.083537	99
Es	-0.567640	-1.778046	-0.198744	99
Es	-0.089843	0.103836	-0.441347	99
Es	2.172099	1.024507	1.061621	99
Es	1.184526	1.823611	-0.613075	99
Es	-0.163770	-1.166427	-0.313844	99
Es	1.441757	0.858379	1.007941	99
Es	1.541048	-0.595898	0.475150	99
Es	1.324937	0.017598	0.736338	99
Es	0.643895	-0.661978	-1.086813	99
Es	1.122785	0.947168	1.689015	99
Es	1.279771	-0.507806	0.605433	99
Es	0.894635	-0.504397	0.216197	99
Es	-0.181562	-2.391679	-0.072597	99
Es	0.283702	-0.565816	-0.433052	99
Es	1.162096	-0.652927	0.845808	99
44
Properties=species:S:1:pos:R:3:Z:I:1 energy=-307.96605792222783 field_type=dipole dipole="0.000000 0.000000 0.000000" charge=0
C	-1.905606	-1.851735	-0.207612	6
C	-0.567745	-1.778075	-0.198732	6
C	0.283595	-0.565805	-0.433232	6
C	-0.400925	0.795955	-0.432992	6
C	0.731804	1.704675	-0.025922	6
C	1.441795	0.858575	1.008028	6
O	1.279855	-0.508165	0.605698	8
H	-2.403476	-2.799235	-0.020762	1
H	-2.536825	-0.991355	-0.398552	1
H	-0.007416	-2.692005	-0.006972	1
H	0.827464	-0.703695	-1.376242	1
H	-1.192005	0.851995	0.324948	1
H	-0.835456	1.054105	-1.403092	1
H	1.391404	1.884685	-0.882852	1
H	0.403034	2.670875	0.365118	1
H	2.506274	1.096525	1.086528	1
H	0.984225	0.972675	1.996648	1
Es	1.540343	-0.596367	0.475653	99
Es	-1.258058	-1.743014	0.114822	99
Es	-0.695101	0.967241	-1.096227	99
Es	-1.905700	-1.851735	-0.207624	99
Es	-1.242256	-1.871607	-0.528488	99
Es	0.151880	1.271794	-0.242844	99
Es	1.122849	0.947187	1.688927	99
Es	0.894576	-0.504470	0.215878	99
Es	1.184572	1.823601	-0.612884	99
Es	-0.567640	-1.778046	-0.198743	99
Es	0.283701	-0.565815	-0.433051	99
Es	-0.163822	-1.166343	-0.313855	99
Es	1.095287	1.304963	0.496023	99
Es	-2.249169	-2.490326	-0.083409	99
Es	1.161976	-0.652524	0.845541	99
Es	1.441755	0.858377	1.007941	99
Es	-0.181580	-2.391771	-0.072529	99
Es	0.643910	-0.662057	-1.086730	99
Es	1.279742	-0.507962	0.605594	99
Es	0.508173	2.362266	0.244502	99
Es	-0.089806	0.103999	-0.441356	99
Es	2.172101	1.024533	1.061647	99
Es	-2.337502	-1.269013	-0.336560	99
Es	0.731796	1.704649	-0.025917	99
Es	-0.400892	0.795941	-0.432989	99
Es	-0.937503	0.828297	0.086449	99
Es	1.325823	0.017790	0.736365	99
44
Properties=species:S:1:pos:R:3:Z:I:1 energy=-307.96605792222783 field_type=dipole dipole="0.000000 0.000000 0.000000" charge=0
C	-1.905606	-1.851735	-0.207612	6
C	-0.567745	-1.778075	-0.198732	6
C	0.283595	-0.565805	-0.433232	6
C	-0.400925	0.795955	-0.432992	6
C	0.731804	1.704675	-0.025922	6
C	1.441795	0.858575	1.008028	6
O	1.279855	-0.508165	0.605698	8
H	-2.403476	-2.799235	-0.020762	1
H	-2.536825	-0.991355	-0.398552	1
H	-0.007416	-2.692005	-0.006972	1
H	0.827464	-0.703695	-1.376242	1
H	-1.192005	0.851995	0.324948	1
H	-0.835456	1.054105	-1.403092	1
H	1.391404	1.884685	-0.882852	1
H	0.403034	2.670875	0.365118	1
H	2.506274	1.096525	1.086528	1
H	0.984225	0.972675	1.996648	1
Es	-1.905701	-1.851735	-0.207624	99
Es	1.165045	-0.656063	0.846043	99
Es	2.172040	1.024486	1.061702	99
Es	-0.181515	-2.391845	-0.072490	99
Es	-0.695154	0.967497	-1.096138	99
Es	1.441756	0.858377	1.007940	99
Es	0.894031	-0.504703	0.216551	99
Es	-0.567643	-1.778044	-0.198731	99
Es	0.151802	1.271762	-0.242611	99
Es	1.122879	0.947185	1.688920	99
Es	1.184578	1.823603	-0.612896	99
Es	-2.249158	-2.490351	-0.083519	99
Es	-1.258126	-1.743103	0.114761	99
Es	0.731796	1.704649	-0.025917	99
Es	-1.242163	-1.871523	-0.528288	99
Es	-0.163851	-1.166240	-0.313915	99
Es	0.508233	2.362209	0.244429	99
Es	0.643861	-0.662087	-1.086735	99
Es	1.539201	-0.592528	0.473306	99
Es	0.283701	-0.565815	-0.433052	99
Es	-2.337509	-1.268980	-0.336589	99
Es	-0.400893	0.795945	-0.432989	99
Es	1.095338	1.305106	0.496050	99
Es	-0.089917	0.103869	-0.441552	99
Es	-0.937414	0.828164	0.086338	99
Es	1.279679	-0.507919	0.605604	99
Es	1.324561	0.017673	0.737539	99
44
Properties=species:S:1:pos:R:3:Z:I:1 energy=-307.96605792222783 field_type=dipole dipole="0.000000 0.000000 0.000000" charge=0
C	-1.905606	-1.851735	-0.207612	6
C	-0.567745	-1.778075	-0.198732	6
C	0.283595	-0.565805	-0.433232	6
C	-0.400925	0.795955	-0.432992	6
C	0.731804	1.704675	-0.025922	6
C	1.441795	0.858575	1.008028	6
O	1.279855	-0.508165	0.605698	8
H	-2.403476	-2.799235	-0.020762	1
H	-2.536825	-0.991355	-0.398552	1
H	-0.007416	-2.692005	-0.006972	1
H	0.827464	-0.703695	-1.376242	1
H	-1.192005	0.851995	0.324948	1
H	-0.835456	1.054105	-1.403092	1
H	1.391404	1.884685	-0.882852	1
H	0.403034	2.670875	0.365118	1
H	2.506274	1.096525	1.086528	1
H	0.984225	0.972675	1.996648	1
Es	-1.905701	-1.851738	-0.207631	99
Es	1.164668	-0.654824	0.845305	99
Es	1.441757	0.858378	1.007940	99
Es	0.151774	1.271851	-0.242758	99
Es	1.279720	-0.507868	0.605506	99
Es	-2.249167	-2.490341	-0.083414	99
Es	0.508296	2.362178	0.244560	99
Es	0.283701	-0.565815	-0.433052	99
Es	-2.337501	-1.269017	-0.336579	99
Es	-1.258130	-1.743006	0.114843	99
Es	2.172022	1.024479	1.061690	99
Es	0.643849	-0.662061	-1.086733	99
Es	-0.695095	0.967296	-1.096087	99
Es	-0.937511	0.828271	0.086369	99
Es	1.324015	0.017524	0.737747	99
Es	1.122902	0.947188	1.688934	99
Es	-1.242175	-1.871567	-0.528330	99
Es	1.095393	1.305074	0.495933	99
Es	0.731795	1.704649	-0.025917	99
Es	-0.089992	0.103862	-0.441448	99
Es	-0.567639	-1.778050	-0.198753	99
Es	0.893864	-0.504962	0.216413	99
Es	-0.181738	-2.391807	-0.072545	99
Es	-0.400893	0.795944	-0.432989	99
Es	-0.163535	-1.166312	-0.314029	99
Es	1.184528	1.823676	-0.612917	99
Es	1.540248	-0.593414	0.474077	99
44
Properties=species:S:1:pos:R:3:Z:I:1 energy=-307.96605792222783 field_type=dipole dipole="0.000000 0.000000 0.000000" charge=0
C	-1.905606	-1.851735	-0.207612	6
C	-0.567745	-1.778075	-0.198732	6
C	0.283595	-0.565805	-0.433232	6
C	-0.400925	0.795955	-0.432992	6
C	0.731804	1.704675	-0.025922	6
C	1.441795	0.858575	1.008028	6
O	1.279855	-0.508165	0.605698	8
H	-2.403476	-2.799235	-0.020762	1
H	-2.536825	-0.991355	-0.398552	1
H	-0.007416	-2.692005	-0.006972	1
H	0.827464	-0.703695	-1.376242	1
H	-1.192005	0.851995	0.324948	1
H	-0.835456	1.054105	-1.403092	1
H	1.391404	1.884685	-0.882852	1
H	0.403034	2.670875	0.365118	1
H	2.506274	1.096525	1.086528	1
H	0.984225	0.972675	1.996648	1
Es	-0.181682	-2.391915	-0.072523	99
Es	0.643752	-0.661994	-1.086751	99
Es	1.184579	1.823741	-0.612825	99
Es	1.122972	0.947215	1.688954	99
Es	-1.258098	-1.743054	0.114755	99
Es	1.441756	0.858379	1.007941	99
Es	1.161727	-0.652198	0.844660	99
Es	1.279688	-0.507893	0.605568	99
Es	-1.242168	-1.871483	-0.528138	99
Es	-1.905703	-1.851738	-0.207626	99
Es	-0.400893	0.795943	-0.432988	99
Es	-0.937496	0.828292	0.086326	99
Es	-0.090061	0.103775	-0.441383	99
Es	0.283701	-0.565817	-0.433055	99
Es	1.325823	0.017951	0.736942	99
Es	0.508295	2.362131	0.244546	99
Es	1.095404	1.305133	0.495935	99
Es	-0.695123	0.967238	-1.096009	99
Es	0.731796	1.704649	-0.025918	99
Es	0.895202	-0.504774	0.214931	99
Es	-2.249178	-2.490373	-0.083533	99
Es	-2.337482	-1.269051	-0.336650	99
Es	0.151799	1.271955	-0.242915	99
Es	-0.567645	-1.778047	-0.198744	99
Es	1.540151	-0.596697	0.476930	99
Es	-0.163580	-1.166196	-0.314003	99
Es	2.171917	1.024415	1.061709	99
44
Properties=species:S:1:pos:R:3:Z:I:1 energy=-307.96605792222783 field_type=dipole dipole="0.000000 0.000000 0.000000" charge=0
C	-1.905606	-1.851735	-0.207612	6
C	-0.567745	-1.778075	-0.198732	6
C	0.283595	-0.565805	-0.433232	6
C	-0.400925	0.795955	-0.432992	6
C	0.731804	1.704675	-0.025922	6
C	1.441795	0.858575	1.008028	6
O	1.279855	-0.508165	0.605698	8
H	-2.403476	-2.799235	-0.020762	1
H	-2.536825	-0.991355	-0.398552	1
H	-0.007416	-2.692005	-0.006972	1
H	0.827464	-0.703695	-1.376242	1
H	-1.192005	0.851995	0.324948	1
H	-0.835456	1.054105	-1.403092	1
H	1.391404	1.884685	-0.882852	1
H	0.403034	2.670875	0.365118	1
H	2.506274	1.096525	1.086528	1
H	0.984225	0.972675	1.996648	1
Es	0.508367	2.362097	0.244544	99
Es	2.171861	1.024466	1.061648	99
Es	1.163510	-0.654814	0.844983	99
Es	0.643740	-0.662227	-1.086658	99
Es	0.283700	-0.565816	-0.433053	99
Es	-0.090057	0.103860	-0.441605	99
Es	-2.249170	-2.490385	-0.083477	99
Es	-1.242167	-1.871480	-0.528073	99
Es	-2.337488	-1.268995	-0.336629	99
Es	-0.400893	0.795944	-0.432988	99
Es	-0.181646	-2.391942	-0.072546	99
Es	1.324788	0.017815	0.737889	99
Es	0.731796	1.704649	-0.025917	99
Es	1.095447	1.305143	0.495947	99
Es	1.279749	-0.507812	0.605464	99
Es	-0.937488	0.828273	0.086263	99
Es	-1.905700	-1.851735	-0.207622	99
Es	0.895063	-0.504726	0.215370	99
Es	1.441756	0.858376	1.007940	99
Es	1.539519	-0.594106	0.475356	99
Es	-0.567642	-1.778046	-0.198743	99
Es	1.184526	1.823764	-0.612828	99
Es	-1.258101	-1.743134	0.114594	99
Es	-0.163695	-1.166025	-0.313915	99
Es	-0.695115	0.967295	-1.095988	99
Es	1.123012	0.947215	1.688997	99
Es	0.151780	1.271932	-0.242815	99
44
Properties=species:S:1:pos:R:3:Z:I:1 energy=-307.96605792222783 field_type=dipole dipole="0.000000 0.000000 0.000000" charge=0
C	-1.905606	-1.851735	-0.207612	6
C	-0.567745	-1.778075	-0.198732	6
C	0.283595	-0.565805	-0.433232	6
C	-0.400925	0.795955	-0.432992	6
C	0.731804	1.704675	-0.025922	6
C	1.441795	0.858575	1.008028	6
O	1.279855	-0.508165	0.605698	8
H	-2.403476	-2.799235	-0.020762	1
H	-2.536825	-0.991355	-0.398552	1
H	-0.007416	-2.692005	-0.006972	1
H	0.827464	-0.703695	-1.376242	1
H	-1.192005	0.851995	0.324948	1
H	-0.835456	1.054105	-1.403092	1
H	1.391404	1.884685	-0.882852	1
H	0.403034	2.670875	0.365118	1
H	2.506274	1.096525	1.086528	1
H	0.984225	0.972675	1.996648	1
Es	1.279743	-0.507824	0.605434	99
Es	0.643721	-0.662174	-1.086666	99
Es	-0.181703	-2.392014	-0.072552	99
Es	1.162189	-0.650550	0.843593	99
Es	0.731796	1.704649	-0.025917	99
Es	0.283700	-0.565815	-0.433055	99
Es	2.171860	1.024432	1.061777	99
Es	-1.258104	-1.743158	0.114543	99
Es	0.508352	2.362085	0.244456	99
Es	1.123000	0.947228	1.688886	99
Es	-2.249176	-2.490386	-0.083509	99
Es	-0.090188	0.103780	-0.441509	99
Es	0.151829	1.271800	-0.242737	99
Es	0.894031	-0.505176	0.215357	99
Es	-0.400892	0.795943	-0.432989	99
Es	-0.937479	0.828369	0.086203	99
Es	1.441757	0.858380	1.007941	99
Es	-0.567641	-1.778047	-0.198744	99
Es	-0.163632	-1.166007	-0.313960	99
Es	-2.337481	-1.268978	-0.336636	99
Es	-1.905700	-1.851736	-0.207623	99
Es	1.095550	1.305349	0.495907	99
Es	1.184484	1.823752	-0.612840	99
Es	-0.695096	0.967262	-1.095988	99
Es	1.539687	-0.598319	0.477629	99
Es	1.327003	0.018169	0.737100	99
Es	-1.242152	-1.871426	-0.527968	99
44
Properties=species:S:1:pos:R:3:Z:I:1 energy=-307.96605792222783 field_type=dipole dipole="0.000000 0.000000 0.000000" charge=0
C	-1.905606	-1.851735	-0.207612	6
C	-0.567745	-1.778075	-0.198732	6
C	0.283595	-0.565805	-0.433232	6
C	-0.400925	0.795955	-0.432992	6
C	0.731804	1.704675	-0.025922	6
C	1.441795	0.858575	1.008028	6
O	1.279855	-0.508165	0.605698	8
H	-2.403476	-2.799235	-0.020762	1
H	-2.536825	-0.991355	-0.398552	1
H	-0.007416	-2.692005	-0.006972	1
H	0.827464	-0.703695	-1.376242	1
H	-1.192005	0.851995	0.324948	1
H	-0.835456	1.054105	-1.403092	1
H	1.391404	1.884685	-0.882852	1
H	0.403034	2.670875	0.365118	1
H	2.506274	1.096525	1.086528	1
H	0.984225	0.972675	1.996648	1
Es	-2.249197	-2.490366	-0.083457	99
Es	-0.090089	0.103796	-0.441521	99
Es	2.171831	1.024427	1.061806	99
Es	0.151644	1.272096	-0.242898	99
Es	0.731796	1.704649	-0.025917	99
Es	0.508480	2.362072	0.244478	99
Es	1.184476	1.823759	-0.612785	99
Es	-0.400893	0.795943	-0.432989	99
Es	-0.181708	-2.392030	-0.072524	99
Es	1.123041	0.947214	1.688863	99
Es	-0.163582	-1.165959	-0.313982	99
Es	1.441757	0.858376	1.007939	99
Es	-2.337461	-1.268959	-0.336650	99
Es	1.279698	-0.507889	0.605533	99
Es	-1.258094	-1.743183	0.114438	99
Es	1.539395	-0.595987	0.476939	99
Es	-0.567642	-1.778047	-0.198744	99
Es	-1.242150	-1.871475	-0.527948	99
Es	-1.905699	-1.851735	-0.207623	99
Es	0.643681	-0.662162	-1.086645	99
Es	0.283699	-0.565815	-0.433056	99
Es	-0.695198	0.967156	-1.095907	99
Es	1.162887	-0.652429	0.844786	99
Es	0.894638	-0.505356	0.214927	99
Es	1.095517	1.305284	0.495930	99
Es	1.326070	0.017930	0.736929	99
Es	-0.937438	0.828280	0.086215	99
