47
Properties=species:S:1:pos:R:3:Z:I:1 energy=-309.1568536395276 field_type=dipole dipole="0.000000 0.000000 0.000000" charge=0
C	-0.676108	-1.871852	-1.360034	6
C	-0.309708	-1.452162	0.055806	6
C	0.415391	-0.109862	0.101806	6
C	-0.400888	1.082658	-0.354584	6
C	0.361072	2.235438	0.265456	6
O	0.940912	1.744128	1.481206	8
C	0.796712	0.316918	1.510656	6
H	-1.144638	-2.860732	-1.349694	1
H	0.212961	-1.924432	-1.995564	1
H	-1.383668	-1.170922	-1.812434	1
H	0.332322	-2.223242	0.498426	1
H	-1.221918	-1.413222	0.663956	1
H	1.327002	-0.163882	-0.508504	1
H	-1.414738	1.038428	0.062766	1
H	-0.482558	1.173458	-1.441624	1
H	1.177962	2.565298	-0.384924	1
H	-0.280689	3.093828	0.482416	1
H	1.734682	-0.136762	1.843926	1
H	0.015902	0.076918	2.240946	1
Es	-0.011394	0.472289	-0.150458	99
Es	-1.093948	1.047655	-0.063744	99
Es	-0.034145	1.669982	-0.062072	99
Es	-0.309697	-1.452147	0.055773	99
Es	-0.081541	2.825303	0.411628	99
Es	0.710109	1.904523	1.014547	99
Es	0.876963	1.203957	1.467364	99
Es	-1.157918	-1.389607	-1.666187	99
Es	-0.935610	-1.417773	0.472996	99
Es	-0.676098	-1.871845	-1.360013	99
Es	-0.491305	-1.656838	-0.658464	99
Es	-0.066091	-1.904569	-1.792216	99
Es	0.134552	-1.979197	0.359477	99
Es	0.415366	-0.109851	0.101822	99
Es	1.040970	-0.146107	-0.317505	99
Es	0.361144	2.235337	0.265633	99
Es	-0.454367	1.147160	-1.096252	99
Es	0.251380	0.140119	2.008251	99
Es	0.796733	0.317138	1.510634	99
Es	0.770754	1.850750	1.709757	99
Es	0.921192	2.461447	-0.192992	99
Es	0.940722	1.743928	1.480951	99
Es	1.238731	1.802406	1.460061	99
Es	-0.995686	-2.546758	-1.351702	99
Es	0.607451	0.080884	0.811882	99
Es	-0.400872	1.082665	-0.354573	99
Es	1.440001	0.001043	1.738406	99
Es	0.049421	-0.776287	0.078250	99
47
Properties=species:S:1:pos:R:3:Z:I:1 energy=-309.1568536395276 field_type=dipole dipole="0.000000 0.000000 0.000000" charge=0
C	-0.676108	-1.871852	-1.360034	6
C	-0.309708	-1.452162	0.055806	6
C	0.415391	-0.109862	0.101806	6
C	-0.400888	1.082658	-0.354584	6
C	0.361072	2.235438	0.265456	6
O	0.940912	1.744128	1.481206	8
C	0.796712	0.316918	1.510656	6
H	-1.144638	-2.860732	-1.349694	1
H	0.212961	-1.924432	-1.995564	1
H	-1.383668	-1.170922	-1.812434	1
H	0.332322	-2.223242	0.498426	1
H	-1.221918	-1.413222	0.663956	1
H	1.327002	-0.163882	-0.508504	1
H	-1.414738	1.038428	0.062766	1
H	-0.482558	1.173458	-1.441624	1
H	1.177962	2.565298	-0.384924	1
H	-0.280689	3.093828	0.482416	1
H	1.734682	-0.136762	1.843926	1
H	0.015902	0.076918	2.240946	1
Es	0.361142	2.235337	0.265632	99
Es	0.921192	2.461608	-0.192943	99
Es	1.440027	0.000991	1.738454	99
Es	-0.676103	-1.871843	-1.360013	99
Es	-0.454368	1.147142	-1.096164	99
Es	-1.093965	1.047700	-0.063799	99
Es	0.877198	1.203808	1.467584	99
Es	-0.309698	-1.452146	0.055770	99
Es	0.796734	0.317137	1.510634	99
Es	0.607455	0.080847	0.811794	99
Es	-0.066011	-1.904459	-1.792094	99
Es	-0.491454	-1.656725	-0.658459	99
Es	-0.034092	1.670013	-0.062211	99
Es	0.049538	-0.776442	0.078374	99
Es	0.251405	0.140190	2.008218	99
Es	1.040912	-0.146052	-0.317475	99
Es	-0.081616	2.825180	0.411652	99
Es	1.238245	1.802518	1.460564	99
Es	-0.935669	-1.417838	0.473118	99
Es	0.710000	1.904885	1.014210	99
Es	0.134387	-1.979066	0.359341	99
Es	0.940815	1.743921	1.480922	99
Es	-0.011330	0.472288	-0.150362	99
Es	0.771037	1.850412	1.709379	99
Es	0.415367	-0.109855	0.101822	99
Es	-0.995725	-2.546846	-1.351836	99
Es	-1.157733	-1.389768	-1.666287	99
Es	-0.400874	1.082666	-0.354572	99
47
Properties=species:S:1:pos:R:3:Z:I:1 energy=-309.1568536395276 field_type=dipole dipole="0.000000 0.000000 0.000000" charge=0
C	-0.676108	-1.871852	-1.360034	6
C	-0.309708	-1.452162	0.055806	6
C	0.415391	-0.109862	0.101806	6
C	-0.400888	1.082658	-0.354584	6
C	0.361072	2.235438	0.265456	6
O	0.940912	1.744128	1.481206	8
C	0.796712	0.316918	1.510656	6
H	-1.144638	-2.860732	-1.349694	1
H	0.212961	-1.924432	-1.995564	1
H	-1.383668	-1.170922	-1.812434	1
H	0.332322	-2.223242	0.498426	1
H	-1.221918	-1.413222	0.663956	1
H	1.327002	-0.163882	-0.508504	1
H	-1.414738	1.038428	0.062766	1
H	-0.482558	1.173458	-1.441624	1
H	1.177962	2.565298	-0.384924	1
H	-0.280689	3.093828	0.482416	1
H	1.734682	-0.136762	1.843926	1
H	0.015902	0.076918	2.240946	1
Es	0.361146	2.235334	0.265635	99
Es	0.134463	-1.979175	0.359465	99
Es	-0.491527	-1.656806	-0.658318	99
Es	-1.157712	-1.389666	-1.666376	99
Es	-0.935506	-1.417794	0.473013	99
Es	-1.093938	1.047665	-0.063853	99
Es	-0.995757	-2.546736	-1.351865	99
Es	0.607447	0.080862	0.811766	99
Es	-0.309697	-1.452146	0.055770	99
Es	1.040909	-0.146077	-0.317475	99
Es	-0.454374	1.147159	-1.096146	99
Es	-0.400873	1.082665	-0.354574	99
Es	0.251416	0.140198	2.008234	99
Es	0.877596	1.203469	1.467492	99
Es	0.709852	1.905070	1.014408	99
Es	-0.081482	2.825259	0.411605	99
Es	0.796736	0.317138	1.510634	99
Es	0.415367	-0.109854	0.101822	99
Es	-0.034215	1.670031	-0.062122	99
Es	0.940931	1.743869	1.480800	99
Es	1.440001	0.000991	1.738444	99
Es	0.921161	2.461501	-0.192954	99
Es	1.236864	1.801758	1.459228	99
Es	-0.066075	-1.904619	-1.792053	99
Es	-0.011350	0.472261	-0.150400	99
Es	-0.676102	-1.871844	-1.360010	99
Es	0.772090	1.851430	1.710775	99
Es	0.049447	-0.776337	0.078308	99
47
Properties=species:S:1:pos:R:3:Z:I:1 energy=-309.1568536395276 field_type=dipole dipole="0.000000 0.000000 0.000000" charge=0
C	-0.676108	-1.871852	-1.360034	6
C	-0.309708	-1.452162	0.055806	6
C	0.415391	-0.109862	0.101806	6
C	-0.400888	1.082658	-0.354584	6
C	0.361072	2.235438	0.265456	6
O	0.940912	1.744128	1.481206	8
C	0.796712	0.316918	1.510656	6
H	-1.144638	-2.860732	-1.349694	1
H	0.212961	-1.924432	-1.995564	1
H	-1.383668	-1.170922	-1.812434	1
H	0.332322	-2.223242	0.498426	1
H	-1.221918	-1.413222	0.663956	1
H	1.327002	-0.163882	-0.508504	1
H	-1.414738	1.038428	0.062766	1
H	-0.482558	1.173458	-1.441624	1
H	1.177962	2.565298	-0.384924	1
H	-0.280689	3.093828	0.482416	1
H	1.734682	-0.136762	1.843926	1
H	0.015902	0.076918	2.240946	1
Es	-0.454360	1.147226	-1.096074	99
Es	-1.093933	1.047660	-0.063947	99
Es	0.710641	1.905280	1.014078	99
Es	0.877248	1.203267	1.467793	99
Es	-0.995705	-2.546786	-1.351806	99
Es	0.361143	2.235339	0.265630	99
Es	0.771010	1.850245	1.708444	99
Es	0.251510	0.140178	2.008216	99
Es	0.134368	-1.979135	0.359524	99
Es	-0.034250	1.670063	-0.062117	99
Es	-0.491319	-1.656798	-0.658396	99
Es	1.237777	1.802938	1.461427	99
Es	-0.935523	-1.417747	0.472982	99
Es	0.796734	0.317135	1.510634	99
Es	-0.309697	-1.452146	0.055771	99
Es	-0.081429	2.825231	0.411602	99
Es	-0.011354	0.472193	-0.150459	99
Es	1.040870	-0.146040	-0.317432	99
Es	0.607479	0.080771	0.811719	99
Es	0.921100	2.461548	-0.192916	99
Es	-0.400871	1.082665	-0.354573	99
Es	0.415367	-0.109855	0.101822	99
Es	0.049508	-0.776441	0.078331	99
Es	-0.676102	-1.871846	-1.360012	99
Es	1.439924	0.001040	1.738492	99
Es	-0.066216	-1.904589	-1.792136	99
Es	0.940679	1.743916	1.480992	99
Es	-1.157781	-1.389707	-1.666336	99
47
Properties=species:S:1:pos:R:3:Z:I:1 energy=-309.1568536395276 field_type=dipole dipole="0.000000 0.000000 0.000000" charge=0
C	-0.676108	-1.871852	-1.360034	6
C	-0.309708	-1.452162	0.055806	6
C	0.415391	-0.109862	0.101806	6
C	-0.400888	1.082658	-0.354584	6
C	0.361072	2.235438	0.265456	6
O	0.940912	1.744128	1.481206	8
C	0.796712	0.316918	1.510656	6
H	-1.144638	-2.860732	-1.349694	1
H	0.212961	-1.924432	-1.995564	1
H	-1.383668	-1.170922	-1.812434	1
H	0.332322	-2.223242	0.498426	1
H	-1.221918	-1.413222	0.663956	1
H	1.327002	-0.163882	-0.508504	1
H	-1.414738	1.038428	0.062766	1
H	-0.482558	1.173458	-1.441624	1
H	1.177962	2.565298	-0.384924	1
H	-0.280689	3.093828	0.482416	1
H	1.734682	-0.136762	1.843926	1
H	0.015902	0.076918	2.240946	1
Es	0.251536	0.140174	2.008217	99
Es	1.237348	1.802947	1.461112	99
Es	-1.157759	-1.389767	-1.666375	99
Es	0.940838	1.743933	1.480928	99
Es	1.040856	-0.146106	-0.317375	99
Es	0.134432	-1.979126	0.359548	99
Es	-0.081366	2.825204	0.411623	99
Es	0.361142	2.235339	0.265629	99
Es	0.607469	0.080756	0.811717	99
Es	-0.011285	0.472262	-0.150480	99
Es	1.439898	0.001028	1.738473	99
Es	-1.093937	1.047678	-0.063933	99
Es	0.049394	-0.776447	0.078310	99
Es	0.796734	0.317131	1.510635	99
Es	-0.995651	-2.546801	-1.351911	99
Es	-0.676100	-1.871846	-1.360012	99
Es	0.415367	-0.109854	0.101822	99
Es	-0.400872	1.082665	-0.354572	99
Es	0.877443	1.203010	1.467720	99
Es	-0.935411	-1.417729	0.473019	99
Es	-0.066181	-1.904511	-1.792072	99
Es	-0.034297	1.670125	-0.062207	99
Es	0.921054	2.461582	-0.192922	99
Es	-0.454383	1.147163	-1.096044	99
Es	0.710278	1.905586	1.014364	99
Es	0.771507	1.850165	1.708635	99
Es	-0.491541	-1.656811	-0.658367	99
Es	-0.309697	-1.452145	0.055771	99
47
Properties=species:S:1:pos:R:3:Z:I:1 energy=-309.1568536395276 field_type=dipole dipole="0.000000 0.000000 0.000000" charge=0
C	-0.676108	-1.871852	-1.360034	6
C	-0.309708	-1.452162	0.055806	6
C	0.415391	-0.109862	0.101806	6
C	-0.400888	1.082658	-0.354584	6
C	0.361072	2.235438	0.265456	6
O	0.940912	1.744128	1.481206	8
C	0.796712	0.316918	1.510656	6
H	-1.144638	-2.860732	-1.349694	1
H	0.212961	-1.924432	-1.995564	1
H	-1.383668	-1.170922	-1.812434	1
H	0.332322	-2.223242	0.498426	1
H	-1.221918	-1.413222	0.663956	1
H	1.327002	-0.163882	-0.508504	1
H	-1.414738	1.038428	0.062766	1
H	-0.482558	1.173458	-1.441624	1
H	1.177962	2.565298	-0.384924	1
H	-0.280689	3.093828	0.482416	1
H	1.734682	-0.136762	1.843926	1
H	0.015902	0.076918	2.240946	1
Es	1.237531	1.801440	1.458407	99
Es	0.134363	-1.979074	0.359500	99
Es	-0.995767	-2.546705	-1.351967	99
Es	-0.935402	-1.417806	0.473032	99
Es	-0.400872	1.082665	-0.354572	99
Es	1.040775	-0.146046	-0.317400	99
Es	0.049509	-0.776446	0.078379	99
Es	-1.093876	1.047707	-0.063965	99
Es	0.251570	0.140135	2.008192	99
Es	-1.157648	-1.389742	-1.666393	99
Es	-0.081326	2.825254	0.411531	99
Es	0.607594	0.080696	0.811660	99
Es	0.921054	2.461503	-0.192883	99
Es	0.708039	1.906126	1.015234	99
Es	-0.066202	-1.904623	-1.792093	99
Es	1.439877	0.001066	1.738499	99
Es	0.361148	2.235335	0.265632	99
Es	0.775001	1.851169	1.709293	99
Es	-0.676103	-1.871846	-1.360012	99
Es	0.940800	1.743936	1.480908	99
Es	-0.034336	1.670119	-0.062205	99
Es	-0.491503	-1.656864	-0.658274	99
Es	0.415367	-0.109855	0.101822	99
Es	-0.309696	-1.452146	0.055771	99
Es	-0.011323	0.472161	-0.150465	99
Es	0.796735	0.317134	1.510634	99
Es	-0.454444	1.147258	-1.095997	99
Es	0.875954	1.203052	1.468986	99
47
Properties=species:S:1:pos:R:3:Z:I:1 energy=-309.1568536395276 field_type=dipole dipole="0.000000 0.000000 0.000000" charge=0
C	-0.676108	-1.871852	-1.360034	6
C	-0.309708	-1.452162	0.055806	6
C	0.415391	-0.109862	0.101806	6
C	-0.400888	1.082658	-0.354584	6
C	0.361072	2.235438	0.265456	6
O	0.940912	1.744128	1.481206	8
C	0.796712	0.316918	1.510656	6
H	-1.144638	-2.860732	-1.349694	1
H	0.212961	-1.924432	-1.995564	1
H	-1.383668	-1.170922	-1.812434	1
H	0.332322	-2.223242	0.498426	1
H	-1.221918	-1.413222	0.663956	1
H	1.327002	-0.163882	-0.508504	1
H	-1.414738	1.038428	0.062766	1
H	-0.482558	1.173458	-1.441624	1
H	1.177962	2.565298	-0.384924	1
H	-0.280689	3.093828	0.482416	1
H	1.734682	-0.136762	1.843926	1
H	0.015902	0.076918	2.240946	1
Es	0.796734	0.317132	1.510635	99
Es	-0.676109	-1.871847	-1.360012	99
Es	-0.309696	-1.452145	0.055771	99
Es	-1.093808	1.047592	-0.064016	99
Es	0.771305	1.849044	1.707447	99
Es	1.040769	-0.146107	-0.317329	99
Es	-0.935345	-1.417826	0.473029	99
Es	-0.011209	0.472211	-0.150540	99
Es	0.049507	-0.776400	0.078397	99
Es	-0.066242	-1.904651	-1.792138	99
Es	-0.491485	-1.656930	-0.658258	99
Es	0.940720	1.743908	1.480965	99
Es	1.439827	0.001059	1.738507	99
Es	0.607551	0.080681	0.811656	99
Es	-0.400875	1.082665	-0.354571	99
Es	-0.081246	2.825232	0.411565	99
Es	0.415367	-0.109853	0.101823	99
Es	0.361144	2.235337	0.265632	99
Es	0.878173	1.202673	1.467808	99
Es	0.710893	1.906549	1.013448	99
Es	-0.995747	-2.546638	-1.351996	99
Es	1.236311	1.803525	1.463182	99
Es	0.921004	2.461557	-0.192855	99
Es	0.251612	0.140150	2.008193	99
Es	-0.034507	1.670243	-0.062245	99
Es	-1.157666	-1.389753	-1.666381	99
Es	-0.454492	1.147236	-1.095978	99
Es	0.134327	-1.979040	0.359514	99
47
Properties=species:S:1:pos:R:3:Z:I:1 energy=-309.1568536395276 field_type=dipole dipole="0.000000 0.000000 0.000000" charge=0
C	-0.676108	-1.871852	-1.360034	6
C	-0.309708	-1.452162	0.055806	6
C	0.415391	-0.109862	0.101806	6
C	-0.400888	1.082658	-0.354584	6
C	0.361072	2.235438	0.265456	6
O	0.940912	1.744128	1.481206	8
C	0.796712	0.316918	1.510656	6
H	-1.144638	-2.860732	-1.349694	1
H	0.212961	-1.924432	-1.995564	1
H	-1.383668	-1.170922	-1.812434	1
H	0.332322	-2.223242	0.498426	1
H	-1.221918	-1.413222	0.663956	1
H	1.327002	-0.163882	-0.508504	1
H	-1.414738	1.038428	0.062766	1
H	-0.482558	1.173458	-1.441624	1
H	1.177962	2.565298	-0.384924	1
H	-0.280689	3.093828	0.482416	1
H	1.734682	-0.136762	1.843926	1
H	0.015902	0.076918	2.240946	1
Es	-0.034458	1.670236	-0.062312	99
Es	-0.676103	-1.871846	-1.360012	99
Es	0.251612	0.140144	2.008155	99
Es	-0.309697	-1.452146	0.055771	99
Es	0.709773	1.906129	1.014123	99
Es	0.607633	0.080603	0.811619	99
Es	0.415367	-0.109854	0.101823	99
Es	0.796734	0.317133	1.510634	99
Es	-0.066322	-1.904824	-1.792125	99
Es	-0.995933	-2.546627	-1.351924	99
Es	1.236476	1.802356	1.460673	99
Es	1.040753	-0.146048	-0.317389	99
Es	0.134270	-1.979048	0.359536	99
Es	-0.081233	2.825219	0.411527	99
Es	0.773158	1.850554	1.708458	99
Es	0.877215	1.202781	1.468694	99
Es	0.049545	-0.776430	0.078412	99
Es	-1.093856	1.047692	-0.064084	99
Es	0.361143	2.235339	0.265630	99
Es	-0.935346	-1.417805	0.473001	99
Es	-0.454432	1.147187	-1.095932	99
Es	-1.157486	-1.389731	-1.666470	99
Es	-0.011292	0.472158	-0.150377	99
Es	1.439782	0.001067	1.738552	99
Es	0.940805	1.743928	1.480940	99
Es	0.920969	2.461570	-0.192822	99
Es	-0.491386	-1.656800	-0.658274	99
Es	-0.400872	1.082665	-0.354573	99
47
Properties=species:S:1:pos:R:3:Z:I:1 energy=-309.1568536395276 field_type=dipole dipole="0.000000 0.000000 0.000000" charge=0
C	-0.676108	-1.871852	-1.360034	6
C	-0.309708	-1.452162	0.055806	6
C	0.415391	-0.109862	0.101806	6
C	-0.400888	1.082658	-0.354584	6
C	0.361072	2.235438	0.265456	6
O	0.940912	1.744128	1.481206	8
C	0.796712	0.316918	1.510656	6
H	-1.144638	-2.860732	-1.349694	1
H	0.212961	-1.924432	-1.995564	1
H	-1.383668	-1.170922	-1.812434	1
H	0.332322	-2.223242	0.498426	1
H	-1.221918	-1.413222	0.663956	1
H	1.327002	-0.163882	-0.508504	1
H	-1.414738	1.038428	0.062766	1
H	-0.482558	1.173458	-1.441624	1
H	1.177962	2.565298	-0.384924	1
H	-0.280689	3.093828	0.482416	1
H	1.734682	-0.136762	1.843926	1
H	0.015902	0.076918	2.240946	1
Es	-0.309697	-1.452146	0.055772	99
Es	-0.454473	1.147240	-1.095897	99
Es	0.772094	1.849161	1.707420	99
Es	-0.935289	-1.417858	0.473029	99
Es	-0.491458	-1.656877	-0.658234	99
Es	-0.011293	0.472067	-0.150526	99
Es	-0.995760	-2.546623	-1.351970	99
Es	0.134295	-1.978989	0.359530	99
Es	0.709920	1.906359	1.013943	99
Es	-0.676103	-1.871845	-1.360012	99
Es	0.415367	-0.109854	0.101823	99
Es	0.361142	2.235339	0.265628	99
Es	-0.081259	2.825111	0.411554	99
Es	-1.093827	1.047734	-0.064086	99
Es	-0.400872	1.082665	-0.354572	99
Es	0.920963	2.461682	-0.192837	99
Es	0.940742	1.743954	1.480972	99
Es	0.049530	-0.776431	0.078439	99
Es	0.607603	0.080648	0.811589	99
Es	0.251689	0.140126	2.008184	99
Es	-0.034425	1.670194	-0.062309	99
Es	1.236634	1.803641	1.462287	99
Es	1.439741	0.001095	1.738529	99
Es	-0.066316	-1.904692	-1.792184	99
Es	1.040715	-0.146072	-0.317313	99
Es	0.878056	1.202682	1.468283	99
Es	-1.157636	-1.389840	-1.666422	99
Es	0.796734	0.317133	1.510635	99
47
Properties=species:S:1:pos:R:3:Z:I:1 energy=-309.1568536395276 field_type=dipole dipole="0.000000 0.000000 0.000000" charge=0
C	-0.676108	-1.871852	-1.360034	6
C	-0.309708	-1.452162	0.055806	6
C	0.415391	-0.109862	0.101806	6
C	-0.400888	1.082658	-0.354584	6
C	0.361072	2.235438	0.265456	6
O	0.940912	1.744128	1.481206	8
C	0.796712	0.316918	1.510656	6
H	-1.144638	-2.860732	-1.349694	1
H	0.212961	-1.924432	-1.995564	1
H	-1.383668	-1.170922	-1.812434	1
H	0.332322	-2.223242	0.498426	1
H	-1.221918	-1.413222	0.663956	1
H	1.327002	-0.163882	-0.508504	1
H	-1.414738	1.038428	0.062766	1
H	-0.482558	1.173458	-1.441624	1
H	1.177962	2.565298	-0.384924	1
H	-0.280689	3.093828	0.482416	1
H	1.734682	-0.136762	1.843926	1
H	0.015902	0.076918	2.240946	1
Es	0.361142	2.235339	0.265625	99
Es	0.134224	-1.978994	0.359511	99
Es	0.920910	2.461617	-0.192747	99
Es	-0.081159	2.825197	0.411508	99
Es	-1.157640	-1.389904	-1.666435	99
Es	0.251711	0.140131	2.008149	99
Es	0.709793	1.906352	1.013849	99
Es	-0.309697	-1.452146	0.055772	99
Es	0.415367	-0.109853	0.101823	99
Es	0.796734	0.317132	1.510634	99
Es	1.439701	0.001106	1.738578	99
Es	1.040681	-0.146074	-0.317309	99
Es	0.877029	1.202434	1.469562	99
Es	-0.400872	1.082665	-0.354572	99
Es	-0.935254	-1.417864	0.473029	99
Es	0.049575	-0.776450	0.078508	99
Es	1.234989	1.801129	1.459356	99
Es	0.774954	1.851991	1.709239	99
Es	-1.093813	1.047721	-0.064118	99
Es	-0.066318	-1.904608	-1.792159	99
Es	0.607665	0.080592	0.811534	99
Es	-0.491533	-1.656870	-0.658193	99
Es	-0.034489	1.670227	-0.062393	99
Es	-0.676102	-1.871846	-1.360012	99
Es	-0.011262	0.472064	-0.150523	99
Es	-0.454491	1.147269	-1.095854	99
Es	0.940670	1.743888	1.480956	99
Es	-0.995698	-2.546641	-1.352063	99
47
Properties=species:S:1:pos:R:3:Z:I:1 energy=-309.1568536395276 field_type=dipole dipole="0.000000 0.000000 0.000000" charge=0
C	-0.676108	-1.871852	-1.360034	6
C	-0.309708	-1.452162	0.055806	6
C	0.415391	-0.109862	0.101806	6
C	-0.400888	1.082658	-0.354584	6
C	0.361072	2.235438	0.265456	6
O	0.940912	1.744128	1.481206	8
C	0.796712	0.316918	1.510656	6
H	-1.144638	-2.860732	-1.349694	1
H	0.212961	-1.924432	-1.995564	1
H	-1.383668	-1.170922	-1.812434	1
H	0.332322	-2.223242	0.498426	1
H	-1.221918	-1.413222	0.663956	1
H	1.327002	-0.163882	-0.508504	1
H	-1.414738	1.038428	0.062766	1
H	-0.482558	1.173458	-1.441624	1
H	1.177962	2.565298	-0.384924	1
H	-0.280689	3.093828	0.482416	1
H	1.734682	-0.136762	1.843926	1
H	0.015902	0.076918	2.240946	1
Es	-0.066356	-1.904651	-1.792158	99
Es	0.415368	-0.109854	0.101823	99
Es	-0.491603	-1.656907	-0.658153	99
Es	-1.093769	1.047746	-0.064194	99
Es	0.361142	2.235340	0.265627	99
Es	-0.309697	-1.452144	0.055771	99
Es	0.920861	2.461647	-0.192712	99
Es	-0.454516	1.147322	-1.095797	99
Es	0.796733	0.317130	1.510630	99
Es	0.940708	1.743932	1.480995	99
Es	0.607638	0.080603	0.811527	99
Es	0.773508	1.850682	1.707958	99
Es	-1.157579	-1.389893	-1.666451	99
Es	-0.011307	0.471945	-0.150579	99
Es	-0.676103	-1.871846	-1.360012	99
Es	1.040661	-0.146029	-0.317269	99
Es	-0.034468	1.670229	-0.062388	99
Es	-0.935209	-1.417808	0.473174	99
Es	0.049698	-0.776575	0.078445	99
Es	0.134195	-1.978948	0.359436	99
Es	-0.400867	1.082664	-0.354570	99
Es	-0.081168	2.825175	0.411486	99
Es	0.251769	0.140119	2.008156	99
Es	0.710584	1.906708	1.013531	99
Es	1.439682	0.001114	1.738569	99
Es	0.877282	1.202409	1.469131	99
Es	1.235379	1.802105	1.461382	99
Es	-0.995748	-2.546611	-1.352104	99
