45
Properties=species:S:1:pos:R:3:Z:I:1 energy=-344.9608968557359 field_type=dipole dipole="0.000000 0.000000 0.000000" charge=0
C	-1.696875	-1.027255	0.160900	6
C	-0.511905	-0.778905	-0.759250	6
C	0.417335	0.293355	-0.252620	6
C	1.291815	-0.027855	0.926300	6
O	0.566045	0.159345	2.134890	8
C	0.818695	1.421035	-1.185240	6
O	-0.183085	1.601885	-0.180010	8
H	-2.355575	-1.788335	-0.268870	1
H	-2.282415	-0.113885	0.306440	1
H	-1.372625	-1.381055	1.143770	1
H	-0.894205	-0.509795	-1.751540	1
H	0.049555	-1.711575	-0.888970	1
H	2.173055	0.620995	0.961630	1
H	1.643855	-1.063225	0.887620	1
H	0.074205	0.994225	2.021120	1
H	0.491625	1.394145	-2.217780	1
H	1.770495	1.916895	-1.038390	1
Es	-0.017984	1.083727	-0.123254	99
Es	0.787896	0.709466	-0.832502	99
Es	-2.142748	-1.547127	-0.139614	99
Es	0.417220	0.293651	-0.252620	99
Es	-0.462346	1.591418	-0.311029	99
Es	-0.060182	1.756623	0.063887	99
Es	0.833858	0.103907	1.661664	99
Es	0.818478	1.421062	-1.185013	99
Es	0.566062	0.159558	2.134566	99
Es	-2.091529	-0.406821	0.255836	99
Es	1.291664	-0.027823	0.926454	99
Es	1.463951	1.765961	-1.081410	99
Es	-0.768364	-0.586060	-1.436261	99
Es	-0.182925	1.601752	-0.180099	99
Es	-0.044416	-0.238069	-0.499440	99
Es	-1.091711	-0.895222	-0.293342	99
Es	-0.118945	-1.410942	-0.842000	99
Es	0.355811	-0.062156	2.141119	99
Es	1.525553	-0.735330	0.890023	99
Es	-1.474141	-1.269936	0.821050	99
Es	-0.511891	-0.778884	-0.759216	99
Es	0.184777	1.638262	-0.590842	99
Es	0.854378	0.132955	0.325902	99
Es	1.897633	0.423281	0.934286	99
Es	0.590364	1.408509	-1.887177	99
Es	-1.696840	-1.027253	0.160858	99
Es	0.774198	0.198344	2.357007	99
Es	0.315594	0.605917	2.059906	99
45
Properties=species:S:1:pos:R:3:Z:I:1 energy=-344.9608968557359 field_type=dipole dipole="0.000000 0.000000 0.000000" charge=0
C	-1.696875	-1.027255	0.160900	6
C	-0.511905	-0.778905	-0.759250	6
C	0.417335	0.293355	-0.252620	6
C	1.291815	-0.027855	0.926300	6
O	0.566045	0.159345	2.134890	8
C	0.818695	1.421035	-1.185240	6
O	-0.183085	1.601885	-0.180010	8
H	-2.355575	-1.788335	-0.268870	1
H	-2.282415	-0.113885	0.306440	1
H	-1.372625	-1.381055	1.143770	1
H	-0.894205	-0.509795	-1.751540	1
H	0.049555	-1.711575	-0.888970	1
H	2.173055	0.620995	0.961630	1
H	1.643855	-1.063225	0.887620	1
H	0.074205	0.994225	2.021120	1
H	0.491625	1.394145	-2.217780	1
H	1.770495	1.916895	-1.038390	1
Es	0.185057	1.639676	-0.591117	99
Es	-0.511890	-0.778886	-0.759218	99
Es	0.833044	0.103041	1.660524	99
Es	-0.462350	1.591958	-0.310124	99
Es	0.774719	0.201319	2.353211	99
Es	0.854312	0.133005	0.325868	99
Es	-1.474322	-1.270006	0.821246	99
Es	1.291664	-0.027823	0.926453	99
Es	0.314908	0.605605	2.060256	99
Es	-2.142712	-1.546916	-0.139609	99
Es	-1.696842	-1.027252	0.160859	99
Es	-0.018063	1.083300	-0.123425	99
Es	1.897692	0.423161	0.934342	99
Es	0.788079	0.709308	-0.832447	99
Es	-0.182833	1.601636	-0.180202	99
Es	0.590368	1.408447	-1.887085	99
Es	-0.118992	-1.411004	-0.842118	99
Es	-0.768339	-0.586013	-1.436130	99
Es	-1.091616	-0.895231	-0.293425	99
Es	0.818479	1.421062	-1.185013	99
Es	0.566058	0.159571	2.134595	99
Es	0.356784	-0.063930	2.145674	99
Es	-0.044294	-0.237990	-0.499434	99
Es	1.463866	1.765998	-1.081537	99
Es	0.417223	0.293650	-0.252622	99
Es	1.525457	-0.735352	0.890002	99
Es	-0.060521	1.755375	0.063517	99
Es	-2.091522	-0.406942	0.255700	99
45
Properties=species:S:1:pos:R:3:Z:I:1 energy=-344.9608968557359 field_type=dipole dipole="0.000000 0.000000 0.000000" charge=0
C	-1.696875	-1.027255	0.160900	6
C	-0.511905	-0.778905	-0.759250	6
C	0.417335	0.293355	-0.252620	6
C	1.291815	-0.027855	0.926300	6
O	0.566045	0.159345	2.134890	8
C	0.818695	1.421035	-1.185240	6
O	-0.183085	1.601885	-0.180010	8
H	-2.355575	-1.788335	-0.268870	1
H	-2.282415	-0.113885	0.306440	1
H	-1.372625	-1.381055	1.143770	1
H	-0.894205	-0.509795	-1.751540	1
H	0.049555	-1.711575	-0.888970	1
H	2.173055	0.620995	0.961630	1
H	1.643855	-1.063225	0.887620	1
H	0.074205	0.994225	2.021120	1
H	0.491625	1.394145	-2.217780	1
H	1.770495	1.916895	-1.038390	1
Es	-0.768196	-0.586096	-1.436242	99
Es	-0.044262	-0.238043	-0.499355	99
Es	0.356600	-0.063913	2.144736	99
Es	0.774681	0.201061	2.354001	99
Es	1.463768	1.766039	-1.081587	99
Es	-2.142701	-1.546951	-0.139587	99
Es	0.854372	0.132990	0.325751	99
Es	-0.018469	1.083049	-0.122889	99
Es	1.897620	0.423131	0.934314	99
Es	-0.119032	-1.410863	-0.842026	99
Es	0.183955	1.639234	-0.592303	99
Es	-0.461574	1.591960	-0.308982	99
Es	0.818471	1.421067	-1.185005	99
Es	0.833285	0.103479	1.660995	99
Es	-1.091695	-0.895221	-0.293408	99
Es	-2.091549	-0.406982	0.255717	99
Es	-1.474358	-1.269972	0.821213	99
Es	0.417222	0.293652	-0.252623	99
Es	-1.696840	-1.027254	0.160856	99
Es	0.590397	1.408505	-1.887009	99
Es	1.291665	-0.027824	0.926452	99
Es	0.788245	0.709131	-0.832595	99
Es	1.525535	-0.735319	0.890047	99
Es	-0.059875	1.756094	0.063069	99
Es	-0.182860	1.601673	-0.180151	99
Es	0.314894	0.605503	2.059990	99
Es	0.566010	0.159526	2.134578	99
Es	-0.511893	-0.778884	-0.759216	99
45
Properties=species:S:1:pos:R:3:Z:I:1 energy=-344.9608968557359 field_type=dipole dipole="0.000000 0.000000 0.000000" charge=0
C	-1.696875	-1.027255	0.160900	6
C	-0.511905	-0.778905	-0.759250	6
C	0.417335	0.293355	-0.252620	6
C	1.291815	-0.027855	0.926300	6
O	0.566045	0.159345	2.134890	8
C	0.818695	1.421035	-1.185240	6
O	-0.183085	1.601885	-0.180010	8
H	-2.355575	-1.788335	-0.268870	1
H	-2.282415	-0.113885	0.306440	1
H	-1.372625	-1.381055	1.143770	1
H	-0.894205	-0.509795	-1.751540	1
H	0.049555	-1.711575	-0.888970	1
H	2.173055	0.620995	0.961630	1
H	1.643855	-1.063225	0.887620	1
H	0.074205	0.994225	2.021120	1
H	0.491625	1.394145	-2.217780	1
H	1.770495	1.916895	-1.038390	1
Es	-2.091593	-0.406992	0.255711	99
Es	-0.768285	-0.586103	-1.436196	99
Es	1.291666	-0.027822	0.926450	99
Es	-0.459700	1.589999	-0.311487	99
Es	0.854377	0.133194	0.325837	99
Es	1.897644	0.423031	0.934369	99
Es	0.566076	0.159529	2.134660	99
Es	-0.063669	1.757159	0.063513	99
Es	-0.018124	1.082935	-0.121931	99
Es	-1.091598	-0.895193	-0.293301	99
Es	-0.511891	-0.778883	-0.759216	99
Es	0.417224	0.293652	-0.252624	99
Es	-0.044190	-0.238002	-0.499455	99
Es	0.185352	1.640341	-0.591184	99
Es	1.525442	-0.735406	0.889872	99
Es	-1.696841	-1.027254	0.160858	99
Es	0.818479	1.421061	-1.185012	99
Es	-0.182867	1.601714	-0.180110	99
Es	0.774418	0.200262	2.354616	99
Es	-0.119008	-1.410877	-0.842069	99
Es	-2.142642	-1.546930	-0.139652	99
Es	0.788356	0.709033	-0.832674	99
Es	1.463735	1.765985	-1.081622	99
Es	0.314842	0.605712	2.060054	99
Es	0.833403	0.103300	1.661065	99
Es	0.356734	-0.063184	2.143938	99
Es	0.590486	1.408524	-1.886903	99
Es	-1.474411	-1.270016	0.821231	99
45
Properties=species:S:1:pos:R:3:Z:I:1 energy=-344.9608968557359 field_type=dipole dipole="0.000000 0.000000 0.000000" charge=0
C	-1.696875	-1.027255	0.160900	6
C	-0.511905	-0.778905	-0.759250	6
C	0.417335	0.293355	-0.252620	6
C	1.291815	-0.027855	0.926300	6
O	0.566045	0.159345	2.134890	8
C	0.818695	1.421035	-1.185240	6
O	-0.183085	1.601885	-0.180010	8
H	-2.355575	-1.788335	-0.268870	1
H	-2.282415	-0.113885	0.306440	1
H	-1.372625	-1.381055	1.143770	1
H	-0.894205	-0.509795	-1.751540	1
H	0.049555	-1.711575	-0.888970	1
H	2.173055	0.620995	0.961630	1
H	1.643855	-1.063225	0.887620	1
H	0.074205	0.994225	2.021120	1
H	0.491625	1.394145	-2.217780	1
H	1.770495	1.916895	-1.038390	1
Es	0.854390	0.132939	0.325732	99
Es	0.788483	0.708811	-0.832567	99
Es	-0.459477	1.591405	-0.309923	99
Es	1.291665	-0.027823	0.926452	99
Es	0.417222	0.293654	-0.252622	99
Es	-0.768235	-0.586078	-1.436156	99
Es	-0.062346	1.756089	0.063689	99
Es	0.315992	0.606182	2.060430	99
Es	-1.091543	-0.895251	-0.293327	99
Es	-2.142871	-1.546832	-0.139597	99
Es	-1.474502	-1.270029	0.821162	99
Es	1.897610	0.423128	0.934234	99
Es	-0.511891	-0.778884	-0.759216	99
Es	0.833696	0.103007	1.660881	99
Es	-0.182839	1.601671	-0.180156	99
Es	-0.118983	-1.410787	-0.842158	99
Es	0.818477	1.421058	-1.185010	99
Es	1.463628	1.766072	-1.081745	99
Es	-2.091409	-0.407087	0.255848	99
Es	1.525514	-0.735351	0.889983	99
Es	0.355818	-0.062661	2.143931	99
Es	0.184990	1.640624	-0.591998	99
Es	-0.044166	-0.238044	-0.499470	99
Es	0.566062	0.159552	2.134604	99
Es	-0.019304	1.082539	-0.122764	99
Es	0.773864	0.199622	2.354510	99
Es	-1.696841	-1.027253	0.160858	99
Es	0.590409	1.408497	-1.886867	99
45
Properties=species:S:1:pos:R:3:Z:I:1 energy=-344.9608968557359 field_type=dipole dipole="0.000000 0.000000 0.000000" charge=0
C	-1.696875	-1.027255	0.160900	6
C	-0.511905	-0.778905	-0.759250	6
C	0.417335	0.293355	-0.252620	6
C	1.291815	-0.027855	0.926300	6
O	0.566045	0.159345	2.134890	8
C	0.818695	1.421035	-1.185240	6
O	-0.183085	1.601885	-0.180010	8
H	-2.355575	-1.788335	-0.268870	1
H	-2.282415	-0.113885	0.306440	1
H	-1.372625	-1.381055	1.143770	1
H	-0.894205	-0.509795	-1.751540	1
H	0.049555	-1.711575	-0.888970	1
H	2.173055	0.620995	0.961630	1
H	1.643855	-1.063225	0.887620	1
H	0.074205	0.994225	2.021120	1
H	0.491625	1.394145	-2.217780	1
H	1.770495	1.916895	-1.038390	1
Es	-1.696840	-1.027253	0.160857	99
Es	0.356883	-0.061764	2.142843	99
Es	1.291667	-0.027823	0.926451	99
Es	0.417222	0.293655	-0.252624	99
Es	-0.768172	-0.586042	-1.436159	99
Es	1.463557	1.766042	-1.081666	99
Es	-0.460084	1.592037	-0.309159	99
Es	-0.182930	1.601699	-0.180143	99
Es	0.854254	0.132955	0.325714	99
Es	-0.019129	1.082386	-0.121407	99
Es	0.184814	1.640253	-0.592253	99
Es	0.834358	0.102924	1.661131	99
Es	-0.044182	-0.238055	-0.499395	99
Es	0.773318	0.199439	2.356167	99
Es	-1.091565	-0.895367	-0.293331	99
Es	1.897610	0.423085	0.934239	99
Es	0.590478	1.408699	-1.886835	99
Es	-0.061737	1.755818	0.061927	99
Es	0.818480	1.421056	-1.185013	99
Es	-0.511891	-0.778885	-0.759217	99
Es	-1.474538	-1.269989	0.821126	99
Es	-2.142736	-1.546876	-0.139509	99
Es	0.314768	0.605511	2.059627	99
Es	0.566121	0.159598	2.134600	99
Es	0.788695	0.708745	-0.832847	99
Es	-0.118976	-1.410764	-0.842174	99
Es	-2.091546	-0.406995	0.255782	99
Es	1.525516	-0.735322	0.890005	99
45
Properties=species:S:1:pos:R:3:Z:I:1 energy=-344.9608968557359 field_type=dipole dipole="0.000000 0.000000 0.000000" charge=0
C	-1.696875	-1.027255	0.160900	6
C	-0.511905	-0.778905	-0.759250	6
C	0.417335	0.293355	-0.252620	6
C	1.291815	-0.027855	0.926300	6
O	0.566045	0.159345	2.134890	8
C	0.818695	1.421035	-1.185240	6
O	-0.183085	1.601885	-0.180010	8
H	-2.355575	-1.788335	-0.268870	1
H	-2.282415	-0.113885	0.306440	1
H	-1.372625	-1.381055	1.143770	1
H	-0.894205	-0.509795	-1.751540	1
H	0.049555	-1.711575	-0.888970	1
H	2.173055	0.620995	0.961630	1
H	1.643855	-1.063225	0.887620	1
H	0.074205	0.994225	2.021120	1
H	0.491625	1.394145	-2.217780	1
H	1.770495	1.916895	-1.038390	1
Es	0.178914	1.643882	-0.601044	99
Es	0.774506	0.200933	2.353266	99
Es	1.897597	0.423054	0.934245	99
Es	-0.314765	1.596568	-0.241635	99
Es	1.525529	-0.735278	0.889975	99
Es	-0.044152	-0.238098	-0.499471	99
Es	-1.696840	-1.027253	0.160858	99
Es	0.590545	1.408719	-1.886781	99
Es	0.818479	1.421059	-1.185011	99
Es	-0.072229	1.764375	0.068244	99
Es	0.788651	0.708634	-0.832871	99
Es	1.463505	1.766020	-1.081679	99
Es	-1.091629	-0.895256	-0.293277	99
Es	0.356965	-0.063139	2.145754	99
Es	0.566015	0.159506	2.134577	99
Es	-0.302017	1.591291	-0.243825	99
Es	0.854260	0.132980	0.325699	99
Es	1.291667	-0.027824	0.926450	99
Es	-1.474543	-1.269963	0.821157	99
Es	0.832923	0.102617	1.660316	99
Es	0.315002	0.605774	2.060504	99
Es	-0.118937	-1.410751	-0.842206	99
Es	0.417223	0.293654	-0.252624	99
Es	-2.091550	-0.407093	0.255784	99
Es	-0.511891	-0.778885	-0.759217	99
Es	-0.768129	-0.586042	-1.436121	99
Es	-0.028942	1.076169	-0.122811	99
Es	-2.142744	-1.546885	-0.139518	99
45
Properties=species:S:1:pos:R:3:Z:I:1 energy=-344.9608968557359 field_type=dipole dipole="0.000000 0.000000 0.000000" charge=0
C	-1.696875	-1.027255	0.160900	6
C	-0.511905	-0.778905	-0.759250	6
C	0.417335	0.293355	-0.252620	6
C	1.291815	-0.027855	0.926300	6
O	0.566045	0.159345	2.134890	8
C	0.818695	1.421035	-1.185240	6
O	-0.183085	1.601885	-0.180010	8
H	-2.355575	-1.788335	-0.268870	1
H	-2.282415	-0.113885	0.306440	1
H	-1.372625	-1.381055	1.143770	1
H	-0.894205	-0.509795	-1.751540	1
H	0.049555	-1.711575	-0.888970	1
H	2.173055	0.620995	0.961630	1
H	1.643855	-1.063225	0.887620	1
H	0.074205	0.994225	2.021120	1
H	0.491625	1.394145	-2.217780	1
H	1.770495	1.916895	-1.038390	1
Es	0.834011	0.103078	1.660592	99
Es	0.184529	1.641128	-0.592929	99
Es	0.566064	0.159546	2.134637	99
Es	0.854205	0.132979	0.325634	99
Es	-0.459488	1.591930	-0.308427	99
Es	-1.696841	-1.027254	0.160859	99
Es	0.590563	1.408716	-1.886733	99
Es	0.417223	0.293654	-0.252624	99
Es	-0.511892	-0.778885	-0.759217	99
Es	-1.474557	-1.269901	0.821223	99
Es	0.315326	0.606411	2.061277	99
Es	-0.768070	-0.586041	-1.436089	99
Es	1.463427	1.766049	-1.081731	99
Es	1.291669	-0.027824	0.926448	99
Es	-1.091673	-0.895248	-0.293296	99
Es	0.818478	1.421058	-1.185010	99
Es	-2.142708	-1.546899	-0.139468	99
Es	0.788885	0.708544	-0.832883	99
Es	-0.062177	1.755648	0.061122	99
Es	-0.044143	-0.238115	-0.499457	99
Es	-0.182927	1.601716	-0.180124	99
Es	0.773308	0.198746	2.354432	99
Es	-2.091587	-0.407169	0.255711	99
Es	-0.118925	-1.410724	-0.842241	99
Es	1.525503	-0.735270	0.889987	99
Es	0.356726	-0.062044	2.143509	99
Es	1.897609	0.423013	0.934205	99
Es	-0.019122	1.081928	-0.120668	99
45
Properties=species:S:1:pos:R:3:Z:I:1 energy=-344.9608968557359 field_type=dipole dipole="0.000000 0.000000 0.000000" charge=0
C	-1.696875	-1.027255	0.160900	6
C	-0.511905	-0.778905	-0.759250	6
C	0.417335	0.293355	-0.252620	6
C	1.291815	-0.027855	0.926300	6
O	0.566045	0.159345	2.134890	8
C	0.818695	1.421035	-1.185240	6
O	-0.183085	1.601885	-0.180010	8
H	-2.355575	-1.788335	-0.268870	1
H	-2.282415	-0.113885	0.306440	1
H	-1.372625	-1.381055	1.143770	1
H	-0.894205	-0.509795	-1.751540	1
H	0.049555	-1.711575	-0.888970	1
H	2.173055	0.620995	0.961630	1
H	1.643855	-1.063225	0.887620	1
H	0.074205	0.994225	2.021120	1
H	0.491625	1.394145	-2.217780	1
H	1.770495	1.916895	-1.038390	1
Es	0.312973	0.604664	2.059514	99
Es	-0.768013	-0.586090	-1.436058	99
Es	0.358665	-0.064432	2.147689	99
Es	-0.511894	-0.778884	-0.759214	99
Es	-0.044147	-0.238104	-0.499525	99
Es	0.184493	1.641222	-0.592900	99
Es	-1.474635	-1.269944	0.821114	99
Es	1.291670	-0.027825	0.926446	99
Es	-0.063817	1.757070	0.061555	99
Es	0.417221	0.293654	-0.252623	99
Es	0.818480	1.421057	-1.185012	99
Es	0.566015	0.159553	2.134592	99
Es	-0.118890	-1.410717	-0.842231	99
Es	1.463358	1.766009	-1.081776	99
Es	1.525581	-0.735269	0.889930	99
Es	1.897527	0.423020	0.934226	99
Es	0.789006	0.708440	-0.832949	99
Es	-2.142721	-1.546881	-0.139469	99
Es	0.590584	1.408771	-1.886672	99
Es	-0.018768	1.082004	-0.120091	99
Es	-2.091592	-0.407136	0.255805	99
Es	-0.458254	1.590426	-0.309388	99
Es	0.773893	0.203461	2.352161	99
Es	0.854232	0.133005	0.325607	99
Es	-1.091649	-0.895225	-0.293251	99
Es	0.833828	0.102456	1.660520	99
Es	-0.182894	1.601717	-0.180119	99
Es	-1.696840	-1.027254	0.160858	99
45
Properties=species:S:1:pos:R:3:Z:I:1 energy=-344.9608968557359 field_type=dipole dipole="0.000000 0.000000 0.000000" charge=0
C	-1.696875	-1.027255	0.160900	6
C	-0.511905	-0.778905	-0.759250	6
C	0.417335	0.293355	-0.252620	6
C	1.291815	-0.027855	0.926300	6
O	0.566045	0.159345	2.134890	8
C	0.818695	1.421035	-1.185240	6
O	-0.183085	1.601885	-0.180010	8
H	-2.355575	-1.788335	-0.268870	1
H	-2.282415	-0.113885	0.306440	1
H	-1.372625	-1.381055	1.143770	1
H	-0.894205	-0.509795	-1.751540	1
H	0.049555	-1.711575	-0.888970	1
H	2.173055	0.620995	0.961630	1
H	1.643855	-1.063225	0.887620	1
H	0.074205	0.994225	2.021120	1
H	0.491625	1.394145	-2.217780	1
H	1.770495	1.916895	-1.038390	1
Es	-0.458179	1.591625	-0.308787	99
Es	0.590625	1.408808	-1.886581	99
Es	0.833883	0.102882	1.660428	99
Es	-0.044165	-0.238220	-0.499458	99
Es	0.854217	0.132990	0.325593	99
Es	0.357494	-0.062860	2.145248	99
Es	-1.474661	-1.269973	0.821111	99
Es	1.525418	-0.735201	0.889906	99
Es	0.417223	0.293656	-0.252625	99
Es	1.463242	1.766047	-1.081839	99
Es	-0.019588	1.081596	-0.120235	99
Es	-0.063769	1.755767	0.061077	99
Es	1.291669	-0.027824	0.926449	99
Es	0.773513	0.200535	2.353536	99
Es	0.184979	1.641947	-0.592840	99
Es	-0.182784	1.601649	-0.180172	99
Es	-2.142775	-1.546817	-0.139443	99
Es	0.314503	0.605662	2.060739	99
Es	-1.091608	-0.895203	-0.293157	99
Es	-0.511891	-0.778885	-0.759217	99
Es	-0.118847	-1.410657	-0.842212	99
Es	0.789186	0.708150	-0.833082	99
Es	-2.091546	-0.407172	0.255841	99
Es	0.565970	0.159510	2.134568	99
Es	-1.696841	-1.027254	0.160859	99
Es	0.818478	1.421057	-1.185010	99
Es	-0.768013	-0.585979	-1.436169	99
Es	1.897681	0.422933	0.934211	99
45
Properties=species:S:1:pos:R:3:Z:I:1 energy=-344.9608968557359 field_type=dipole dipole="0.000000 0.000000 0.000000" charge=0
C	-1.696875	-1.027255	0.160900	6
C	-0.511905	-0.778905	-0.759250	6
C	0.417335	0.293355	-0.252620	6
C	1.291815	-0.027855	0.926300	6
O	0.566045	0.159345	2.134890	8
C	0.818695	1.421035	-1.185240	6
O	-0.183085	1.601885	-0.180010	8
H	-2.355575	-1.788335	-0.268870	1
H	-2.282415	-0.113885	0.306440	1
H	-1.372625	-1.381055	1.143770	1
H	-0.894205	-0.509795	-1.751540	1
H	0.049555	-1.711575	-0.888970	1
H	2.173055	0.620995	0.961630	1
H	1.643855	-1.063225	0.887620	1
H	0.074205	0.994225	2.021120	1
H	0.491625	1.394145	-2.217780	1
H	1.770495	1.916895	-1.038390	1
Es	-0.118873	-1.410637	-0.842279	99
Es	0.590634	1.408907	-1.886553	99
Es	-0.458022	1.591456	-0.309000	99
Es	-0.182901	1.601678	-0.180165	99
Es	-1.696842	-1.027254	0.160859	99
Es	0.566044	0.159546	2.134615	99
Es	0.833887	0.102537	1.660234	99
Es	-0.064077	1.755742	0.060926	99
Es	-1.091592	-0.895246	-0.293209	99
Es	-0.511891	-0.778886	-0.759218	99
Es	0.417224	0.293655	-0.252626	99
Es	-0.019518	1.081519	-0.119959	99
Es	0.314100	0.605757	2.060894	99
Es	1.291669	-0.027824	0.926448	99
Es	1.525623	-0.735199	0.889970	99
Es	0.185099	1.642131	-0.592613	99
Es	0.773336	0.200663	2.353066	99
Es	1.463231	1.766009	-1.081824	99
Es	-0.044086	-0.238135	-0.499529	99
Es	-1.474661	-1.269882	0.821098	99
Es	0.818480	1.421056	-1.185012	99
Es	0.789281	0.708191	-0.833165	99
Es	0.357979	-0.062772	2.145724	99
Es	-2.142791	-1.546887	-0.139399	99
Es	-0.768039	-0.586060	-1.436069	99
Es	1.897504	0.423042	0.934145	99
Es	-2.091552	-0.407218	0.255827	99
Es	0.854168	0.132880	0.325552	99
45
Properties=species:S:1:pos:R:3:Z:I:1 energy=-344.9608968557359 field_type=dipole dipole="0.000000 0.000000 0.000000" charge=0
C	-1.696875	-1.027255	0.160900	6
C	-0.511905	-0.778905	-0.759250	6
C	0.417335	0.293355	-0.252620	6
C	1.291815	-0.027855	0.926300	6
O	0.566045	0.159345	2.134890	8
C	0.818695	1.421035	-1.185240	6
O	-0.183085	1.601885	-0.180010	8
H	-2.355575	-1.788335	-0.268870	1
H	-2.282415	-0.113885	0.306440	1
H	-1.372625	-1.381055	1.143770	1
H	-0.894205	-0.509795	-1.751540	1
H	0.049555	-1.711575	-0.888970	1
H	2.173055	0.620995	0.961630	1
H	1.643855	-1.063225	0.887620	1
H	0.074205	0.994225	2.021120	1
H	0.491625	1.394145	-2.217780	1
H	1.770495	1.916895	-1.038390	1
Es	0.357655	-0.062258	2.145543	99
Es	0.772963	0.200266	2.353356	99
Es	-0.182910	1.601650	-0.180198	99
Es	-0.457759	1.593214	-0.307505	99
Es	-0.118960	-1.410695	-0.842293	99
Es	1.525530	-0.735217	0.889891	99
Es	-1.696841	-1.027253	0.160858	99
Es	-0.020961	1.080813	-0.120369	99
Es	0.789221	0.708050	-0.833182	99
Es	1.897565	0.422965	0.934172	99
Es	0.184885	1.642360	-0.593380	99
Es	-0.511893	-0.778885	-0.759218	99
Es	0.854235	0.132959	0.325513	99
Es	-2.142702	-1.546907	-0.139374	99
Es	-1.091602	-0.895122	-0.293232	99
Es	-0.043976	-0.238171	-0.499440	99
Es	0.818478	1.421057	-1.185011	99
Es	0.590647	1.408919	-1.886490	99
Es	0.417227	0.293655	-0.252630	99
Es	1.463226	1.765984	-1.081868	99
Es	0.566084	0.159593	2.134591	99
Es	-0.062677	1.754609	0.060641	99
Es	0.314548	0.605849	2.060943	99
Es	-2.091641	-0.407284	0.255764	99
Es	1.291669	-0.027824	0.926448	99
Es	-1.474732	-1.269837	0.821136	99
Es	0.834077	0.102287	1.660123	99
Es	-0.767944	-0.586009	-1.436050	99
45
Properties=species:S:1:pos:R:3:Z:I:1 energy=-344.9608968557359 field_type=dipole dipole="0.000000 0.000000 0.000000" charge=0
C	-1.696875	-1.027255	0.160900	6
C	-0.511905	-0.778905	-0.759250	6
C	0.417335	0.293355	-0.252620	6
C	1.291815	-0.027855	0.926300	6
O	0.566045	0.159345	2.134890	8
C	0.818695	1.421035	-1.185240	6
O	-0.183085	1.601885	-0.180010	8
H	-2.355575	-1.788335	-0.268870	1
H	-2.282415	-0.113885	0.306440	1
H	-1.372625	-1.381055	1.143770	1
H	-0.894205	-0.509795	-1.751540	1
H	0.049555	-1.711575	-0.888970	1
H	2.173055	0.620995	0.961630	1
H	1.643855	-1.063225	0.887620	1
H	0.074205	0.994225	2.021120	1
H	0.491625	1.394145	-2.217780	1
H	1.770495	1.916895	-1.038390	1
Es	-1.474752	-1.269929	0.821076	99
Es	-1.091616	-0.895234	-0.293254	99
Es	1.897549	0.422941	0.934148	99
Es	0.417224	0.293656	-0.252626	99
Es	0.314246	0.606149	2.061019	99
Es	-2.091579	-0.407275	0.255872	99
Es	-0.767914	-0.586040	-1.436069	99
Es	-0.020854	1.081401	-0.119121	99
Es	1.525540	-0.735190	0.889885	99
Es	1.291670	-0.027824	0.926448	99
Es	-0.511892	-0.778886	-0.759218	99
Es	-0.457648	1.592608	-0.308491	99
Es	0.357991	-0.062252	2.145213	99
Es	-0.044066	-0.238186	-0.499477	99
Es	0.818477	1.421055	-1.185009	99
Es	0.772834	0.199871	2.353348	99
Es	-1.696842	-1.027254	0.160859	99
Es	-0.182862	1.601693	-0.180140	99
Es	-0.118866	-1.410587	-0.842294	99
Es	0.854145	0.132979	0.325528	99
Es	0.834172	0.102367	1.660403	99
Es	0.185448	1.641601	-0.592980	99
Es	1.463047	1.766012	-1.081896	99
Es	0.789601	0.707890	-0.833308	99
Es	-0.063639	1.755397	0.060020	99
Es	0.590688	1.409003	-1.886451	99
Es	-2.142778	-1.546806	-0.139359	99
Es	0.566088	0.159607	2.134613	99
