39
Properties=species:S:1:pos:R:3:Z:I:1 energy=-342.60290498083003 field_type=dipole dipole="0.000000 0.000000 0.000000" charge=0
C	-1.052770	-1.865404	-0.530911	6
C	-0.573710	-1.218254	0.541919	6
C	0.515220	-0.175204	0.563279	6
O	1.009670	0.116716	-0.767091	8
C	0.830920	1.478805	-0.816141	6
C	0.277900	1.968786	0.273579	6
O	0.001940	1.011896	1.219599	8
H	-1.846130	-2.599204	-0.429811	1
H	-0.670990	-1.674374	-1.529601	1
H	-0.998350	-1.448434	1.516089	1
H	1.357870	-0.548584	1.159149	1
H	1.141570	1.973006	-1.717641	1
H	0.006860	2.980255	0.517579	1
Es	-0.803008	-1.744551	-1.203680	99
Es	-1.588162	-2.362426	-0.465417	99
Es	-0.578911	-1.771285	0.049087	99
Es	0.251442	1.721613	-0.425171	99
Es	1.009595	0.117011	-0.766774	99
Es	1.040259	1.809813	-1.420700	99
Es	-0.035241	-0.699385	0.534540	99
Es	0.831011	1.478523	-0.816233	99
Es	0.196682	0.569741	0.952792	99
Es	-1.029592	-1.301374	-0.035635	99
Es	0.002108	1.011873	1.219253	99
Es	0.515148	-0.174932	0.563119	99
Es	1.301757	0.075565	-0.759246	99
Es	-0.573634	-1.218191	0.541999	99
Es	0.870280	1.815708	-0.153416	99
Es	0.112799	1.373899	0.852235	99
Es	0.277805	1.968667	0.273846	99
Es	0.940138	0.639435	-0.778193	99
Es	-1.052797	-1.865445	-0.530965	99
Es	0.182185	1.069151	1.447110	99
Es	-0.292644	0.991478	1.223062	99
Es	0.096787	2.646576	0.437911	99
Es	0.812081	0.024247	-0.262013	99
Es	0.815532	0.005609	-0.962739	99
Es	1.087614	-0.432828	0.970257	99
Es	-0.848825	-1.365516	1.206779	99
39
Properties=species:S:1:pos:R:3:Z:I:1 energy=-342.60290498083003 field_type=dipole dipole="0.000000 0.000000 0.000000" charge=0
C	-1.052770	-1.865404	-0.530911	6
C	-0.573710	-1.218254	0.541919	6
C	0.515220	-0.175204	0.563279	6
O	1.009670	0.116716	-0.767091	8
C	0.830920	1.478805	-0.816141	6
C	0.277900	1.968786	0.273579	6
O	0.001940	1.011896	1.219599	8
H	-1.846130	-2.599204	-0.429811	1
H	-0.670990	-1.674374	-1.529601	1
H	-0.998350	-1.448434	1.516089	1
H	1.357870	-0.548584	1.159149	1
H	1.141570	1.973006	-1.717641	1
H	0.006860	2.980255	0.517579	1
Es	-0.848870	-1.365443	1.206748	99
Es	-0.803016	-1.744678	-1.203613	99
Es	0.813386	0.023676	-0.261323	99
Es	0.813360	0.008720	-0.960253	99
Es	0.096810	2.646666	0.437876	99
Es	0.251662	1.721563	-0.425026	99
Es	-0.573644	-1.218183	0.541996	99
Es	0.515153	-0.174931	0.563121	99
Es	1.009527	0.116927	-0.766824	99
Es	-0.293333	0.990956	1.223205	99
Es	0.831007	1.478521	-0.816234	99
Es	0.112593	1.373945	0.852722	99
Es	0.182116	1.069234	1.446671	99
Es	-1.588216	-2.362391	-0.465409	99
Es	-0.578956	-1.771343	0.049150	99
Es	1.087564	-0.432738	0.970252	99
Es	0.940956	0.639742	-0.777662	99
Es	0.870162	1.815663	-0.153494	99
Es	1.040175	1.809825	-1.420799	99
Es	1.301937	0.072786	-0.762850	99
Es	0.197595	0.570125	0.952549	99
Es	-1.029525	-1.301330	-0.035684	99
Es	0.277804	1.968666	0.273849	99
Es	0.002126	1.011890	1.219299	99
Es	-0.035165	-0.699446	0.534508	99
Es	-1.052799	-1.865443	-0.530966	99
39
Properties=species:S:1:pos:R:3:Z:I:1 energy=-342.60290498083003 field_type=dipole dipole="0.000000 0.000000 0.000000" charge=0
C	-1.052770	-1.865404	-0.530911	6
C	-0.573710	-1.218254	0.541919	6
C	0.515220	-0.175204	0.563279	6
O	1.009670	0.116716	-0.767091	8
C	0.830920	1.478805	-0.816141	6
C	0.277900	1.968786	0.273579	6
O	0.001940	1.011896	1.219599	8
H	-1.846130	-2.599204	-0.429811	1
H	-0.670990	-1.674374	-1.529601	1
H	-0.998350	-1.448434	1.516089	1
H	1.357870	-0.548584	1.159149	1
H	1.141570	1.973006	-1.717641	1
H	0.006860	2.980255	0.517579	1
Es	1.009611	0.117005	-0.766781	99
Es	0.096831	2.646692	0.437860	99
Es	0.869969	1.815622	-0.153553	99
Es	1.087518	-0.432841	0.970178	99
Es	-1.052800	-1.865443	-0.530968	99
Es	1.040211	1.809867	-1.420756	99
Es	-1.029472	-1.301390	-0.035671	99
Es	0.813136	0.024029	-0.261564	99
Es	0.277807	1.968667	0.273851	99
Es	0.116019	1.374501	0.854231	99
Es	0.251651	1.721542	-0.425058	99
Es	-0.573637	-1.218185	0.542001	99
Es	-0.848870	-1.365490	1.206789	99
Es	0.831004	1.478522	-0.816234	99
Es	-1.588241	-2.362364	-0.465386	99
Es	0.515147	-0.174933	0.563119	99
Es	-0.578996	-1.771270	0.049113	99
Es	0.002085	1.011871	1.219261	99
Es	1.302439	0.072024	-0.763136	99
Es	0.198613	0.569741	0.953448	99
Es	-0.035137	-0.699398	0.534534	99
Es	0.812314	0.009489	-0.960546	99
Es	0.941699	0.639262	-0.776941	99
Es	0.178397	1.068175	1.448074	99
Es	-0.293917	0.991941	1.219602	99
Es	-0.802975	-1.744657	-1.203661	99
39
Properties=species:S:1:pos:R:3:Z:I:1 energy=-342.60290498083003 field_type=dipole dipole="0.000000 0.000000 0.000000" charge=0
C	-1.052770	-1.865404	-0.530911	6
C	-0.573710	-1.218254	0.541919	6
C	0.515220	-0.175204	0.563279	6
O	1.009670	0.116716	-0.767091	8
C	0.830920	1.478805	-0.816141	6
C	0.277900	1.968786	0.273579	6
O	0.001940	1.011896	1.219599	8
H	-1.846130	-2.599204	-0.429811	1
H	-0.670990	-1.674374	-1.529601	1
H	-0.998350	-1.448434	1.516089	1
H	1.357870	-0.548584	1.159149	1
H	1.141570	1.973006	-1.717641	1
H	0.006860	2.980255	0.517579	1
Es	0.096795	2.646738	0.437789	99
Es	0.814992	0.007351	-0.961057	99
Es	-0.573642	-1.218184	0.541998	99
Es	-0.849042	-1.365445	1.206847	99
Es	0.115280	1.375145	0.854092	99
Es	-0.803070	-1.744480	-1.203732	99
Es	0.001970	1.011881	1.219138	99
Es	0.515151	-0.174937	0.563124	99
Es	1.009550	0.116951	-0.766846	99
Es	0.277806	1.968667	0.273849	99
Es	0.251838	1.721511	-0.424959	99
Es	0.812673	0.023593	-0.261443	99
Es	-1.052798	-1.865445	-0.530966	99
Es	0.869871	1.815573	-0.153575	99
Es	-0.578948	-1.771318	0.049176	99
Es	1.040223	1.809935	-1.420734	99
Es	1.087481	-0.432879	0.970176	99
Es	0.177800	1.068102	1.448438	99
Es	-1.029077	-1.301737	-0.035683	99
Es	0.831007	1.478526	-0.816232	99
Es	0.198550	0.569358	0.953435	99
Es	-0.035161	-0.699261	0.534476	99
Es	1.301922	0.074416	-0.761397	99
Es	-0.292467	0.991765	1.219568	99
Es	0.940052	0.639442	-0.778315	99
Es	-1.588348	-2.362288	-0.465359	99
39
Properties=species:S:1:pos:R:3:Z:I:1 energy=-342.60290498083003 field_type=dipole dipole="0.000000 0.000000 0.000000" charge=0
C	-1.052770	-1.865404	-0.530911	6
C	-0.573710	-1.218254	0.541919	6
C	0.515220	-0.175204	0.563279	6
O	1.009670	0.116716	-0.767091	8
C	0.830920	1.478805	-0.816141	6
C	0.277900	1.968786	0.273579	6
O	0.001940	1.011896	1.219599	8
H	-1.846130	-2.599204	-0.429811	1
H	-0.670990	-1.674374	-1.529601	1
H	-0.998350	-1.448434	1.516089	1
H	1.357870	-0.548584	1.159149	1
H	1.141570	1.973006	-1.717641	1
H	0.006860	2.980255	0.517579	1
Es	-0.802979	-1.744596	-1.203690	99
Es	0.813193	0.023447	-0.260989	99
Es	0.515151	-0.174934	0.563121	99
Es	-0.035064	-0.699303	0.534459	99
Es	-0.573640	-1.218181	0.542001	99
Es	0.002061	1.011867	1.219349	99
Es	1.087438	-0.432896	0.970169	99
Es	1.040131	1.809953	-1.420768	99
Es	-1.588218	-2.362391	-0.465381	99
Es	0.096811	2.646733	0.437772	99
Es	-0.293354	0.992041	1.223995	99
Es	-0.579067	-1.771193	0.049113	99
Es	0.181221	1.068590	1.445062	99
Es	0.277804	1.968667	0.273847	99
Es	0.113913	1.374614	0.853426	99
Es	0.813641	0.009354	-0.959574	99
Es	1.009570	0.116944	-0.766844	99
Es	1.301499	0.072192	-0.763451	99
Es	0.869829	1.815602	-0.153624	99
Es	-1.029453	-1.301524	-0.035614	99
Es	0.251936	1.721501	-0.424879	99
Es	0.941361	0.639797	-0.778204	99
Es	0.831006	1.478522	-0.816234	99
Es	0.197263	0.569143	0.952892	99
Es	-1.052797	-1.865445	-0.530965	99
Es	-0.848852	-1.365525	1.206820	99
39
Properties=species:S:1:pos:R:3:Z:I:1 energy=-342.60290498083003 field_type=dipole dipole="0.000000 0.000000 0.000000" charge=0
C	-1.052770	-1.865404	-0.530911	6
C	-0.573710	-1.218254	0.541919	6
C	0.515220	-0.175204	0.563279	6
O	1.009670	0.116716	-0.767091	8
C	0.830920	1.478805	-0.816141	6
C	0.277900	1.968786	0.273579	6
O	0.001940	1.011896	1.219599	8
H	-1.846130	-2.599204	-0.429811	1
H	-0.670990	-1.674374	-1.529601	1
H	-0.998350	-1.448434	1.516089	1
H	1.357870	-0.548584	1.159149	1
H	1.141570	1.973006	-1.717641	1
H	0.006860	2.980255	0.517579	1
Es	-0.573642	-1.218183	0.541998	99
Es	-1.588271	-2.362363	-0.465289	99
Es	-0.034996	-0.699310	0.534426	99
Es	0.940076	0.639665	-0.778721	99
Es	1.040131	1.809995	-1.420747	99
Es	1.087400	-0.432914	0.970156	99
Es	-0.802953	-1.744695	-1.203716	99
Es	0.831009	1.478523	-0.816230	99
Es	0.277804	1.968667	0.273849	99
Es	1.300999	0.075182	-0.761010	99
Es	-0.292299	0.991321	1.224103	99
Es	0.812757	0.023150	-0.261179	99
Es	-1.029317	-1.301526	-0.035667	99
Es	0.112327	1.374730	0.852936	99
Es	0.251979	1.721487	-0.424872	99
Es	-0.579170	-1.771083	0.049099	99
Es	-1.052796	-1.865445	-0.530965	99
Es	0.002141	1.011892	1.219242	99
Es	1.009654	0.116786	-0.767008	99
Es	0.197699	0.569112	0.952938	99
Es	-0.848892	-1.365540	1.206875	99
Es	0.181178	1.069279	1.445591	99
Es	0.869764	1.815505	-0.153606	99
Es	0.515152	-0.174937	0.563123	99
Es	0.815824	0.006937	-0.961212	99
Es	0.096852	2.646743	0.437692	99
39
Properties=species:S:1:pos:R:3:Z:I:1 energy=-342.60290498083003 field_type=dipole dipole="0.000000 0.000000 0.000000" charge=0
C	-1.052770	-1.865404	-0.530911	6
C	-0.573710	-1.218254	0.541919	6
C	0.515220	-0.175204	0.563279	6
O	1.009670	0.116716	-0.767091	8
C	0.830920	1.478805	-0.816141	6
C	0.277900	1.968786	0.273579	6
O	0.001940	1.011896	1.219599	8
H	-1.846130	-2.599204	-0.429811	1
H	-0.670990	-1.674374	-1.529601	1
H	-0.998350	-1.448434	1.516089	1
H	1.357870	-0.548584	1.159149	1
H	1.141570	1.973006	-1.717641	1
H	0.006860	2.980255	0.517579	1
Es	0.002101	1.011883	1.219292	99
Es	1.087346	-0.432882	0.970126	99
Es	-0.291894	0.991663	1.225119	99
Es	-1.052797	-1.865446	-0.530965	99
Es	0.869503	1.815493	-0.153729	99
Es	0.814963	0.007772	-0.960963	99
Es	0.181463	1.069365	1.444654	99
Es	-0.573642	-1.218184	0.541998	99
Es	-1.588268	-2.362392	-0.465308	99
Es	-0.848938	-1.365550	1.206906	99
Es	0.813477	0.022809	-0.260947	99
Es	-0.579200	-1.771031	0.049083	99
Es	0.112209	1.374816	0.852683	99
Es	0.277803	1.968667	0.273848	99
Es	-0.802959	-1.744574	-1.203740	99
Es	0.831006	1.478522	-0.816233	99
Es	1.040178	1.810078	-1.420761	99
Es	-1.029235	-1.301708	-0.035600	99
Es	0.940785	0.639846	-0.778097	99
Es	0.252111	1.721460	-0.424783	99
Es	1.300567	0.074272	-0.762305	99
Es	0.096814	2.646793	0.437743	99
Es	0.197242	0.568568	0.953075	99
Es	1.009590	0.116972	-0.766811	99
Es	0.515151	-0.174936	0.563123	99
Es	-0.034969	-0.699301	0.534400	99
39
Properties=species:S:1:pos:R:3:Z:I:1 energy=-342.60290498083003 field_type=dipole dipole="0.000000 0.000000 0.000000" charge=0
C	-1.052770	-1.865404	-0.530911	6
C	-0.573710	-1.218254	0.541919	6
C	0.515220	-0.175204	0.563279	6
O	1.009670	0.116716	-0.767091	8
C	0.830920	1.478805	-0.816141	6
C	0.277900	1.968786	0.273579	6
O	0.001940	1.011896	1.219599	8
H	-1.846130	-2.599204	-0.429811	1
H	-0.670990	-1.674374	-1.529601	1
H	-0.998350	-1.448434	1.516089	1
H	1.357870	-0.548584	1.159149	1
H	1.141570	1.973006	-1.717641	1
H	0.006860	2.980255	0.517579	1
Es	-1.588231	-2.362468	-0.465360	99
Es	0.277804	1.968667	0.273847	99
Es	0.515152	-0.174937	0.563124	99
Es	-0.573642	-1.218184	0.541997	99
Es	-0.802976	-1.744531	-1.203684	99
Es	1.087333	-0.432943	0.970120	99
Es	0.002041	1.011894	1.219386	99
Es	-1.052796	-1.865445	-0.530965	99
Es	0.252224	1.721481	-0.424742	99
Es	0.198566	0.568788	0.953781	99
Es	-0.848932	-1.365591	1.206851	99
Es	0.813447	0.023656	-0.260339	99
Es	0.939580	0.639380	-0.779780	99
Es	0.115843	1.375385	0.854475	99
Es	-1.029313	-1.301663	-0.035584	99
Es	-0.291747	0.992252	1.218084	99
Es	0.096880	2.646803	0.437684	99
Es	1.009548	0.116945	-0.766866	99
Es	-0.579192	-1.771005	0.049066	99
Es	0.869587	1.815540	-0.153722	99
Es	-0.034937	-0.699259	0.534422	99
Es	0.176345	1.068010	1.449177	99
Es	0.815724	0.006852	-0.959998	99
Es	1.040026	1.810014	-1.420774	99
Es	1.301068	0.074815	-0.762160	99
Es	0.831007	1.478523	-0.816233	99
39
Properties=species:S:1:pos:R:3:Z:I:1 energy=-342.60290498083003 field_type=dipole dipole="0.000000 0.000000 0.000000" charge=0
C	-1.052770	-1.865404	-0.530911	6
C	-0.573710	-1.218254	0.541919	6
C	0.515220	-0.175204	0.563279	6
O	1.009670	0.116716	-0.767091	8
C	0.830920	1.478805	-0.816141	6
C	0.277900	1.968786	0.273579	6
O	0.001940	1.011896	1.219599	8
H	-1.846130	-2.599204	-0.429811	1
H	-0.670990	-1.674374	-1.529601	1
H	-0.998350	-1.448434	1.516089	1
H	1.357870	-0.548584	1.159149	1
H	1.141570	1.973006	-1.717641	1
H	0.006860	2.980255	0.517579	1
Es	-1.052796	-1.865445	-0.530965	99
Es	0.940411	0.639832	-0.778925	99
Es	0.813052	0.022604	-0.260662	99
Es	0.181522	1.069825	1.444373	99
Es	-0.848974	-1.365609	1.206911	99
Es	-0.802915	-1.744550	-1.203716	99
Es	0.002080	1.011884	1.219313	99
Es	-0.291735	0.991458	1.225444	99
Es	-1.588262	-2.362444	-0.465334	99
Es	1.087290	-0.432916	0.970083	99
Es	0.515152	-0.174938	0.563124	99
Es	0.831006	1.478523	-0.816233	99
Es	0.096859	2.646824	0.437652	99
Es	-0.034882	-0.699251	0.534423	99
Es	1.040100	1.810093	-1.420751	99
Es	-0.579287	-1.770924	0.049063	99
Es	-0.573643	-1.218184	0.541997	99
Es	1.009646	0.117019	-0.766773	99
Es	0.816142	0.007417	-0.960791	99
Es	0.869441	1.815455	-0.153756	99
Es	0.111528	1.374658	0.852575	99
Es	-1.029192	-1.301760	-0.035576	99
Es	0.197608	0.568490	0.953233	99
Es	1.300111	0.074731	-0.762066	99
Es	0.277804	1.968666	0.273847	99
Es	0.252342	1.721520	-0.424682	99
39
Properties=species:S:1:pos:R:3:Z:I:1 energy=-342.60290498083003 field_type=dipole dipole="0.000000 0.000000 0.000000" charge=0
C	-1.052770	-1.865404	-0.530911	6
C	-0.573710	-1.218254	0.541919	6
C	0.515220	-0.175204	0.563279	6
O	1.009670	0.116716	-0.767091	8
C	0.830920	1.478805	-0.816141	6
C	0.277900	1.968786	0.273579	6
O	0.001940	1.011896	1.219599	8
H	-1.846130	-2.599204	-0.429811	1
H	-0.670990	-1.674374	-1.529601	1
H	-0.998350	-1.448434	1.516089	1
H	1.357870	-0.548584	1.159149	1
H	1.141570	1.973006	-1.717641	1
H	0.006860	2.980255	0.517579	1
Es	0.813455	0.022454	-0.260410	99
Es	1.300083	0.074585	-0.762593	99
Es	0.198552	0.568517	0.953713	99
Es	-0.802918	-1.744535	-1.203735	99
Es	1.040086	1.810117	-1.420736	99
Es	1.087245	-0.432939	0.970063	99
Es	0.096907	2.646832	0.437632	99
Es	-0.848991	-1.365629	1.206918	99
Es	-1.052797	-1.865445	-0.530965	99
Es	-0.579314	-1.770906	0.049072	99
Es	0.176798	1.068732	1.448712	99
Es	0.869345	1.815451	-0.153798	99
Es	-1.588211	-2.362443	-0.465350	99
Es	0.002230	1.011937	1.219260	99
Es	-0.034850	-0.699225	0.534414	99
Es	0.515152	-0.174939	0.563124	99
Es	-1.029213	-1.301786	-0.035544	99
Es	0.277804	1.968667	0.273846	99
Es	0.940389	0.639857	-0.779028	99
Es	0.831006	1.478523	-0.816232	99
Es	0.114260	1.375212	0.853976	99
Es	0.816006	0.007730	-0.960344	99
Es	0.252391	1.721502	-0.424661	99
Es	-0.573643	-1.218185	0.541997	99
Es	-0.290833	0.991948	1.219356	99
Es	1.009467	0.116948	-0.766878	99
39
Properties=species:S:1:pos:R:3:Z:I:1 energy=-342.60290498083003 field_type=dipole dipole="0.000000 0.000000 0.000000" charge=0
C	-1.052770	-1.865404	-0.530911	6
C	-0.573710	-1.218254	0.541919	6
C	0.515220	-0.175204	0.563279	6
O	1.009670	0.116716	-0.767091	8
C	0.830920	1.478805	-0.816141	6
C	0.277900	1.968786	0.273579	6
O	0.001940	1.011896	1.219599	8
H	-1.846130	-2.599204	-0.429811	1
H	-0.670990	-1.674374	-1.529601	1
H	-0.998350	-1.448434	1.516089	1
H	1.357870	-0.548584	1.159149	1
H	1.141570	1.973006	-1.717641	1
H	0.006860	2.980255	0.517579	1
Es	-1.588268	-2.362440	-0.465318	99
Es	-0.291135	0.991931	1.223247	99
Es	0.869253	1.815401	-0.153824	99
Es	0.940049	0.639842	-0.779285	99
Es	0.816752	0.007294	-0.960598	99
Es	0.197749	0.568177	0.953406	99
Es	0.277805	1.968666	0.273845	99
Es	-0.849016	-1.365646	1.206933	99
Es	0.112694	1.375089	0.853241	99
Es	0.096880	2.646859	0.437600	99
Es	-1.052796	-1.865445	-0.530964	99
Es	0.515152	-0.174940	0.563125	99
Es	-0.034794	-0.699212	0.534406	99
Es	1.299946	0.075209	-0.762048	99
Es	-0.802905	-1.744534	-1.203737	99
Es	0.179541	1.069271	1.445879	99
Es	0.831006	1.478524	-0.816232	99
Es	1.009506	0.116924	-0.766898	99
Es	0.252515	1.721509	-0.424596	99
Es	1.087219	-0.432929	0.970049	99
Es	-1.029110	-1.301858	-0.035549	99
Es	0.813162	0.022273	-0.260466	99
Es	0.002127	1.011884	1.219273	99
Es	1.040087	1.810157	-1.420736	99
Es	-0.573643	-1.218184	0.541997	99
Es	-0.579365	-1.770843	0.049058	99
39
Properties=species:S:1:pos:R:3:Z:I:1 energy=-342.60290498083003 field_type=dipole dipole="0.000000 0.000000 0.000000" charge=0
C	-1.052770	-1.865404	-0.530911	6
C	-0.573710	-1.218254	0.541919	6
C	0.515220	-0.175204	0.563279	6
O	1.009670	0.116716	-0.767091	8
C	0.830920	1.478805	-0.816141	6
C	0.277900	1.968786	0.273579	6
O	0.001940	1.011896	1.219599	8
H	-1.846130	-2.599204	-0.429811	1
H	-0.670990	-1.674374	-1.529601	1
H	-0.998350	-1.448434	1.516089	1
H	1.357870	-0.548584	1.159149	1
H	1.141570	1.973006	-1.717641	1
H	0.006860	2.980255	0.517579	1
Es	0.831005	1.478524	-0.816231	99
Es	0.815880	0.008438	-0.959822	99
Es	0.002115	1.011868	1.219243	99
Es	1.299707	0.073933	-0.763413	99
Es	1.009600	0.117004	-0.766781	99
Es	0.197138	0.567969	0.953086	99
Es	0.252612	1.721498	-0.424539	99
Es	0.113061	1.375307	0.853535	99
Es	1.040084	1.810196	-1.420734	99
Es	-0.291166	0.992417	1.223968	99
Es	1.087187	-0.432936	0.970039	99
Es	-0.849042	-1.365663	1.206947	99
Es	0.096888	2.646884	0.437569	99
Es	-0.579415	-1.770789	0.049050	99
Es	0.277805	1.968666	0.273845	99
Es	0.813537	0.022166	-0.260196	99
Es	0.515152	-0.174940	0.563125	99
Es	-1.052796	-1.865444	-0.530964	99
Es	-0.573643	-1.218185	0.541997	99
Es	-1.029052	-1.301927	-0.035534	99
Es	0.179813	1.068807	1.445258	99
Es	0.869143	1.815362	-0.153863	99
Es	-0.034757	-0.699182	0.534385	99
Es	0.940724	0.639974	-0.779111	99
Es	-0.802888	-1.744518	-1.203739	99
Es	-1.588283	-2.362451	-0.465312	99
