39
Properties=species:S:1:pos:R:3:Z:I:1 energy=-342.5847721200278 field_type=dipole dipole="0.000000 0.000000 0.000000" charge=0
C	-2.968953	0.094558	-0.769478	6
C	-1.778793	0.094558	-0.769478	6
C	-0.334793	0.094558	-0.769478	6
O	0.182877	1.172578	0.021322	8
C	1.394287	0.639418	0.549042	6
C	1.045147	-0.802922	0.797492	6
O	0.190107	-1.152412	-0.290788	8
H	-4.034203	0.094018	-0.764008	1
H	0.036507	0.227368	-1.792598	1
H	2.175817	0.741518	-0.213668	1
H	1.697876	1.176388	1.451162	1
H	1.919647	-1.458502	0.826662	1
H	0.474477	-0.921122	1.723812	1
Es	1.244861	-0.084947	0.689824	99
Es	-0.005057	1.196654	0.260863	99
Es	-1.778527	0.094554	-0.769488	99
Es	1.643002	-1.246001	0.815551	99
Es	-2.378337	-0.018926	-0.431040	99
Es	-0.040698	-1.311640	-0.179951	99
Es	0.642074	0.959253	0.206635	99
Es	-2.364511	0.445932	-0.844674	99
Es	-3.663340	0.094259	-0.767103	99
Es	-0.012211	-0.660119	-0.449411	99
Es	0.370320	-1.247044	-0.516751	99
Es	1.598707	1.000924	1.162214	99
Es	-1.086928	0.096210	-0.760196	99
Es	1.935104	0.699282	0.025453	99
Es	1.394083	0.639492	0.548963	99
Es	-0.007964	0.743783	-0.274804	99
Es	-2.969210	0.094554	-0.769480	99
Es	0.508399	-0.998844	0.115721	99
Es	-0.334758	0.094523	-0.769205	99
Es	-0.095414	0.184152	-1.468895	99
Es	0.245573	1.396031	-0.173958	99
Es	1.045022	-0.802959	0.797298	99
Es	-2.368246	-0.142680	-1.042233	99
Es	0.661144	-0.875816	1.438150	99
Es	0.183004	1.172238	0.021274	99
Es	0.190103	-1.152054	-0.290587	99
39
Properties=species:S:1:pos:R:3:Z:I:1 energy=-342.5847721200278 field_type=dipole dipole="0.000000 0.000000 0.000000" charge=0
C	-2.968953	0.094558	-0.769478	6
C	-1.778793	0.094558	-0.769478	6
C	-0.334793	0.094558	-0.769478	6
O	0.182877	1.172578	0.021322	8
C	1.394287	0.639418	0.549042	6
C	1.045147	-0.802922	0.797492	6
O	0.190107	-1.152412	-0.290788	8
H	-4.034203	0.094018	-0.764008	1
H	0.036507	0.227368	-1.792598	1
H	2.175817	0.741518	-0.213668	1
H	1.697876	1.176388	1.451162	1
H	1.919647	-1.458502	0.826662	1
H	0.474477	-0.921122	1.723812	1
Es	1.045023	-0.802959	0.797298	99
Es	0.641638	0.958685	0.207893	99
Es	-2.378986	0.046378	-0.415806	99
Es	-3.663274	0.094169	-0.767311	99
Es	0.190203	-1.152038	-0.290656	99
Es	0.247133	1.394006	-0.174726	99
Es	1.598628	1.000786	1.162324	99
Es	-0.005308	1.199569	0.259794	99
Es	-0.011839	-0.660091	-0.450397	99
Es	-0.095480	0.184156	-1.468913	99
Es	1.244977	-0.084993	0.689600	99
Es	1.394080	0.639497	0.548966	99
Es	-1.086843	0.096408	-0.760163	99
Es	-0.040490	-1.309234	-0.178751	99
Es	-2.365358	-0.189323	-0.993049	99
Es	0.183090	1.172247	0.021199	99
Es	-0.334756	0.094525	-0.769207	99
Es	-0.008937	0.743520	-0.274159	99
Es	-1.778524	0.094558	-0.769482	99
Es	1.642954	-1.246023	0.815537	99
Es	0.661189	-0.875764	1.438178	99
Es	-2.969210	0.094559	-0.769486	99
Es	0.369040	-1.249645	-0.516776	99
Es	1.935154	0.699425	0.025550	99
Es	0.508900	-0.998767	0.115654	99
Es	-2.366812	0.427163	-0.908941	99
39
Properties=species:S:1:pos:R:3:Z:I:1 energy=-342.5847721200278 field_type=dipole dipole="0.000000 0.000000 0.000000" charge=0
C	-2.968953	0.094558	-0.769478	6
C	-1.778793	0.094558	-0.769478	6
C	-0.334793	0.094558	-0.769478	6
O	0.182877	1.172578	0.021322	8
C	1.394287	0.639418	0.549042	6
C	1.045147	-0.802922	0.797492	6
O	0.190107	-1.152412	-0.290788	8
H	-4.034203	0.094018	-0.764008	1
H	0.036507	0.227368	-1.792598	1
H	2.175817	0.741518	-0.213668	1
H	1.697876	1.176388	1.451162	1
H	1.919647	-1.458502	0.826662	1
H	0.474477	-0.921122	1.723812	1
Es	0.190189	-1.152077	-0.290665	99
Es	0.368555	-1.249444	-0.516633	99
Es	-0.095605	0.184133	-1.468987	99
Es	-1.086728	0.096301	-0.760016	99
Es	0.661246	-0.875800	1.438124	99
Es	-2.378937	0.027188	-0.418692	99
Es	0.183026	1.172258	0.021266	99
Es	-2.366129	-0.176833	-1.007903	99
Es	-0.334755	0.094525	-0.769203	99
Es	-3.663255	0.094226	-0.767226	99
Es	-0.040494	-1.309241	-0.178861	99
Es	-2.969212	0.094557	-0.769487	99
Es	1.935228	0.699396	0.025595	99
Es	1.642972	-1.245977	0.815578	99
Es	1.045022	-0.802960	0.797295	99
Es	-1.778528	0.094549	-0.769477	99
Es	-2.366085	0.433918	-0.891391	99
Es	0.642801	0.959649	0.206389	99
Es	1.244921	-0.084930	0.689690	99
Es	1.598562	1.000758	1.162304	99
Es	-0.011795	-0.659959	-0.450356	99
Es	1.394096	0.639489	0.548970	99
Es	-0.008210	0.744089	-0.275418	99
Es	0.245068	1.395153	-0.173077	99
Es	0.509322	-0.999137	0.115583	99
Es	-0.005079	1.196980	0.260770	99
39
Properties=species:S:1:pos:R:3:Z:I:1 energy=-342.5847721200278 field_type=dipole dipole="0.000000 0.000000 0.000000" charge=0
C	-2.968953	0.094558	-0.769478	6
C	-1.778793	0.094558	-0.769478	6
C	-0.334793	0.094558	-0.769478	6
O	0.182877	1.172578	0.021322	8
C	1.394287	0.639418	0.549042	6
C	1.045147	-0.802922	0.797492	6
O	0.190107	-1.152412	-0.290788	8
H	-4.034203	0.094018	-0.764008	1
H	0.036507	0.227368	-1.792598	1
H	2.175817	0.741518	-0.213668	1
H	1.697876	1.176388	1.451162	1
H	1.919647	-1.458502	0.826662	1
H	0.474477	-0.921122	1.723812	1
Es	-3.663209	0.094169	-0.767294	99
Es	-1.778529	0.094556	-0.769486	99
Es	-0.095582	0.184156	-1.468915	99
Es	1.245107	-0.084982	0.689598	99
Es	0.661287	-0.875787	1.438126	99
Es	0.369391	-1.247735	-0.515712	99
Es	0.190154	-1.152136	-0.290650	99
Es	1.935172	0.699507	0.025658	99
Es	1.045025	-0.802960	0.797297	99
Es	-0.334755	0.094526	-0.769212	99
Es	-2.969201	0.094556	-0.769484	99
Es	-0.006199	1.203230	0.259346	99
Es	-0.012269	-0.660033	-0.450613	99
Es	0.249056	1.391000	-0.176113	99
Es	-1.086744	0.096386	-0.760175	99
Es	-2.366787	0.426764	-0.908592	99
Es	-2.378967	0.045529	-0.414861	99
Es	0.641215	0.958406	0.208700	99
Es	0.183001	1.172255	0.021303	99
Es	0.508633	-0.999240	0.116301	99
Es	1.598603	1.000693	1.162305	99
Es	-2.365427	-0.188048	-0.994391	99
Es	-0.040188	-1.310760	-0.180278	99
Es	-0.009557	0.743274	-0.273237	99
Es	1.642883	-1.246006	0.815585	99
Es	1.394087	0.639490	0.548964	99
39
Properties=species:S:1:pos:R:3:Z:I:1 energy=-342.5847721200278 field_type=dipole dipole="0.000000 0.000000 0.000000" charge=0
C	-2.968953	0.094558	-0.769478	6
C	-1.778793	0.094558	-0.769478	6
C	-0.334793	0.094558	-0.769478	6
O	0.182877	1.172578	0.021322	8
C	1.394287	0.639418	0.549042	6
C	1.045147	-0.802922	0.797492	6
O	0.190107	-1.152412	-0.290788	8
H	-4.034203	0.094018	-0.764008	1
H	0.036507	0.227368	-1.792598	1
H	2.175817	0.741518	-0.213668	1
H	1.697876	1.176388	1.451162	1
H	1.919647	-1.458502	0.826662	1
H	0.474477	-0.921122	1.723812	1
Es	0.509290	-0.999446	0.115992	99
Es	-0.009406	0.743582	-0.274356	99
Es	-2.378975	0.045025	-0.415478	99
Es	0.190242	-1.152071	-0.290666	99
Es	-0.095641	0.184159	-1.468884	99
Es	1.598648	1.000690	1.162289	99
Es	-2.969214	0.094554	-0.769484	99
Es	-0.040344	-1.307704	-0.178810	99
Es	0.641727	0.958852	0.207991	99
Es	0.661281	-0.875768	1.438101	99
Es	-2.365405	-0.188311	-0.994129	99
Es	-0.004794	1.199507	0.259398	99
Es	-3.663203	0.094201	-0.767266	99
Es	1.394086	0.639491	0.548964	99
Es	-0.011243	-0.659765	-0.451317	99
Es	-2.366780	0.427473	-0.908289	99
Es	-1.086712	0.096407	-0.760160	99
Es	1.045024	-0.802960	0.797297	99
Es	0.183052	1.172223	0.021261	99
Es	0.246912	1.394074	-0.174295	99
Es	-0.334766	0.094526	-0.769221	99
Es	1.935139	0.699490	0.025659	99
Es	1.245108	-0.085005	0.689617	99
Es	0.367812	-1.250971	-0.516182	99
Es	1.642888	-1.246001	0.815625	99
Es	-1.778530	0.094559	-0.769486	99
39
Properties=species:S:1:pos:R:3:Z:I:1 energy=-342.5847721200278 field_type=dipole dipole="0.000000 0.000000 0.000000" charge=0
C	-2.968953	0.094558	-0.769478	6
C	-1.778793	0.094558	-0.769478	6
C	-0.334793	0.094558	-0.769478	6
O	0.182877	1.172578	0.021322	8
C	1.394287	0.639418	0.549042	6
C	1.045147	-0.802922	0.797492	6
O	0.190107	-1.152412	-0.290788	8
H	-4.034203	0.094018	-0.764008	1
H	0.036507	0.227368	-1.792598	1
H	2.175817	0.741518	-0.213668	1
H	1.697876	1.176388	1.451162	1
H	1.919647	-1.458502	0.826662	1
H	0.474477	-0.921122	1.723812	1
Es	-0.012018	-0.659904	-0.451105	99
Es	1.394088	0.639489	0.548964	99
Es	-2.365540	-0.186054	-0.996605	99
Es	-2.378969	0.041225	-0.415987	99
Es	-1.086607	0.096431	-0.760190	99
Es	-3.663190	0.094249	-0.767254	99
Es	-0.009510	0.743992	-0.275063	99
Es	-0.095697	0.184160	-1.468933	99
Es	1.935129	0.699467	0.025697	99
Es	-2.969211	0.094560	-0.769485	99
Es	1.598659	1.000721	1.162237	99
Es	-1.778523	0.094563	-0.769497	99
Es	-0.334756	0.094522	-0.769207	99
Es	-2.366665	0.428942	-0.905298	99
Es	0.190162	-1.152096	-0.290661	99
Es	1.045026	-0.802959	0.797300	99
Es	-0.004597	1.198827	0.259694	99
Es	0.509557	-0.999547	0.116102	99
Es	1.642902	-1.245942	0.815572	99
Es	0.661339	-0.875798	1.438142	99
Es	1.245086	-0.085035	0.689670	99
Es	0.246004	1.394038	-0.173205	99
Es	-0.039959	-1.309227	-0.179608	99
Es	0.367923	-1.249256	-0.515690	99
Es	0.642514	0.959206	0.207342	99
Es	0.183050	1.172237	0.021236	99
39
Properties=species:S:1:pos:R:3:Z:I:1 energy=-342.5847721200278 field_type=dipole dipole="0.000000 0.000000 0.000000" charge=0
C	-2.968953	0.094558	-0.769478	6
C	-1.778793	0.094558	-0.769478	6
C	-0.334793	0.094558	-0.769478	6
O	0.182877	1.172578	0.021322	8
C	1.394287	0.639418	0.549042	6
C	1.045147	-0.802922	0.797492	6
O	0.190107	-1.152412	-0.290788	8
H	-4.034203	0.094018	-0.764008	1
H	0.036507	0.227368	-1.792598	1
H	2.175817	0.741518	-0.213668	1
H	1.697876	1.176388	1.451162	1
H	1.919647	-1.458502	0.826662	1
H	0.474477	-0.921122	1.723812	1
Es	1.598645	1.000696	1.162210	99
Es	1.935142	0.699493	0.025715	99
Es	0.247309	1.393001	-0.173608	99
Es	-0.005601	1.200236	0.258417	99
Es	-2.969210	0.094558	-0.769486	99
Es	0.368264	-1.248427	-0.516105	99
Es	-1.778526	0.094558	-0.769486	99
Es	-3.663159	0.094208	-0.767275	99
Es	-1.086580	0.096401	-0.760160	99
Es	-2.366641	0.428844	-0.905067	99
Es	-0.334765	0.094530	-0.769225	99
Es	1.245107	-0.085019	0.689736	99
Es	1.045025	-0.802959	0.797299	99
Es	-0.038932	-1.309913	-0.179955	99
Es	1.642880	-1.245907	0.815605	99
Es	-0.013389	-0.660260	-0.450420	99
Es	0.641830	0.958869	0.209197	99
Es	-2.378985	0.041558	-0.415883	99
Es	-0.095756	0.184158	-1.468924	99
Es	-0.009149	0.743973	-0.275270	99
Es	1.394087	0.639489	0.548963	99
Es	0.183067	1.172250	0.021255	99
Es	0.661368	-0.875844	1.438106	99
Es	0.190161	-1.152138	-0.290666	99
Es	0.509560	-0.999348	0.116140	99
Es	-2.365553	-0.186194	-0.996941	99
39
Properties=species:S:1:pos:R:3:Z:I:1 energy=-342.5847721200278 field_type=dipole dipole="0.000000 0.000000 0.000000" charge=0
C	-2.968953	0.094558	-0.769478	6
C	-1.778793	0.094558	-0.769478	6
C	-0.334793	0.094558	-0.769478	6
O	0.182877	1.172578	0.021322	8
C	1.394287	0.639418	0.549042	6
C	1.045147	-0.802922	0.797492	6
O	0.190107	-1.152412	-0.290788	8
H	-4.034203	0.094018	-0.764008	1
H	0.036507	0.227368	-1.792598	1
H	2.175817	0.741518	-0.213668	1
H	1.697876	1.176388	1.451162	1
H	1.919647	-1.458502	0.826662	1
H	0.474477	-0.921122	1.723812	1
Es	-2.365770	-0.182883	-1.001099	99
Es	1.935140	0.699510	0.025761	99
Es	0.509635	-0.999910	0.116548	99
Es	-0.095827	0.184151	-1.468921	99
Es	-0.004829	1.198143	0.258092	99
Es	1.642871	-1.245894	0.815613	99
Es	-0.039432	-1.308737	-0.180053	99
Es	-2.366437	0.430831	-0.900119	99
Es	-0.012241	-0.659866	-0.451456	99
Es	-3.663135	0.094179	-0.767266	99
Es	1.394087	0.639489	0.548964	99
Es	-2.969210	0.094557	-0.769486	99
Es	1.245117	-0.085027	0.689742	99
Es	0.246021	1.394671	-0.172859	99
Es	0.661403	-0.875860	1.438085	99
Es	0.642174	0.959280	0.209105	99
Es	1.045025	-0.802959	0.797300	99
Es	-1.086533	0.096321	-0.760170	99
Es	0.183013	1.172271	0.021290	99
Es	-2.378982	0.036355	-0.416695	99
Es	-1.778527	0.094558	-0.769486	99
Es	0.190205	-1.152093	-0.290693	99
Es	-0.334758	0.094525	-0.769212	99
Es	0.367473	-1.249531	-0.515365	99
Es	1.598649	1.000672	1.162194	99
Es	-0.008939	0.744057	-0.275639	99
39
Properties=species:S:1:pos:R:3:Z:I:1 energy=-342.5847721200278 field_type=dipole dipole="0.000000 0.000000 0.000000" charge=0
C	-2.968953	0.094558	-0.769478	6
C	-1.778793	0.094558	-0.769478	6
C	-0.334793	0.094558	-0.769478	6
O	0.182877	1.172578	0.021322	8
C	1.394287	0.639418	0.549042	6
C	1.045147	-0.802922	0.797492	6
O	0.190107	-1.152412	-0.290788	8
H	-4.034203	0.094018	-0.764008	1
H	0.036507	0.227368	-1.792598	1
H	2.175817	0.741518	-0.213668	1
H	1.697876	1.176388	1.451162	1
H	1.919647	-1.458502	0.826662	1
H	0.474477	-0.921122	1.723812	1
Es	-0.095878	0.184125	-1.468938	99
Es	1.394088	0.639488	0.548964	99
Es	-0.039217	-1.308446	-0.180104	99
Es	0.661422	-0.875855	1.438053	99
Es	0.183030	1.172263	0.021258	99
Es	0.245560	1.394642	-0.173211	99
Es	0.642550	0.959432	0.208335	99
Es	1.245131	-0.085016	0.689824	99
Es	-3.663118	0.094407	-0.767158	99
Es	-2.969210	0.094558	-0.769485	99
Es	-1.086452	0.096163	-0.760303	99
Es	-1.778527	0.094556	-0.769487	99
Es	1.642864	-1.245894	0.815639	99
Es	1.935160	0.699501	0.025788	99
Es	1.598630	1.000680	1.162140	99
Es	0.509843	-1.000059	0.116605	99
Es	-2.363600	0.451317	-0.805890	99
Es	-2.370080	-0.111838	-1.066435	99
Es	-0.334757	0.094524	-0.769211	99
Es	0.367118	-1.249762	-0.515177	99
Es	-2.377566	-0.055257	-0.445534	99
Es	0.190173	-1.152095	-0.290665	99
Es	-0.012270	-0.659781	-0.451722	99
Es	-0.004049	1.198324	0.258413	99
Es	-0.009675	0.743791	-0.274829	99
Es	1.045026	-0.802958	0.797301	99
39
Properties=species:S:1:pos:R:3:Z:I:1 energy=-342.5847721200278 field_type=dipole dipole="0.000000 0.000000 0.000000" charge=0
C	-2.968953	0.094558	-0.769478	6
C	-1.778793	0.094558	-0.769478	6
C	-0.334793	0.094558	-0.769478	6
O	0.182877	1.172578	0.021322	8
C	1.394287	0.639418	0.549042	6
C	1.045147	-0.802922	0.797492	6
O	0.190107	-1.152412	-0.290788	8
H	-4.034203	0.094018	-0.764008	1
H	0.036507	0.227368	-1.792598	1
H	2.175817	0.741518	-0.213668	1
H	1.697876	1.176388	1.451162	1
H	1.919647	-1.458502	0.826662	1
H	0.474477	-0.921122	1.723812	1
Es	1.394084	0.639491	0.548962	99
Es	-2.378996	0.057875	-0.414021	99
Es	0.366223	-1.249312	-0.514545	99
Es	0.190207	-1.152066	-0.290691	99
Es	-0.011917	-0.659717	-0.452075	99
Es	0.661452	-0.875811	1.438081	99
Es	1.245251	-0.085098	0.689615	99
Es	-2.364913	-0.196489	-0.983783	99
Es	-0.009542	0.743902	-0.275514	99
Es	-1.778526	0.094559	-0.769490	99
Es	0.183049	1.172210	0.021260	99
Es	-0.003386	1.196641	0.258614	99
Es	-3.663094	0.094197	-0.767333	99
Es	0.243539	1.395290	-0.171819	99
Es	1.598644	1.000559	1.162214	99
Es	-0.334755	0.094525	-0.769209	99
Es	-0.095972	0.184183	-1.468875	99
Es	0.510669	-1.000347	0.116303	99
Es	-1.086488	0.096440	-0.760157	99
Es	-2.969208	0.094555	-0.769485	99
Es	1.642785	-1.245887	0.815661	99
Es	-0.039546	-1.308829	-0.180087	99
Es	0.643756	0.960514	0.207457	99
Es	1.935132	0.699611	0.025857	99
Es	1.045024	-0.802959	0.797299	99
Es	-2.367277	0.422774	-0.920068	99
39
Properties=species:S:1:pos:R:3:Z:I:1 energy=-342.5847721200278 field_type=dipole dipole="0.000000 0.000000 0.000000" charge=0
C	-2.968953	0.094558	-0.769478	6
C	-1.778793	0.094558	-0.769478	6
C	-0.334793	0.094558	-0.769478	6
O	0.182877	1.172578	0.021322	8
C	1.394287	0.639418	0.549042	6
C	1.045147	-0.802922	0.797492	6
O	0.190107	-1.152412	-0.290788	8
H	-4.034203	0.094018	-0.764008	1
H	0.036507	0.227368	-1.792598	1
H	2.175817	0.741518	-0.213668	1
H	1.697876	1.176388	1.451162	1
H	1.919647	-1.458502	0.826662	1
H	0.474477	-0.921122	1.723812	1
Es	0.190191	-1.152097	-0.290692	99
Es	0.182940	1.172398	0.021256	99
Es	1.245213	-0.085018	0.689834	99
Es	-0.334757	0.094524	-0.769212	99
Es	-0.095991	0.184171	-1.468954	99
Es	-2.969209	0.094557	-0.769486	99
Es	-3.663067	0.094211	-0.767303	99
Es	1.394089	0.639488	0.548964	99
Es	0.642723	0.959488	0.209228	99
Es	-0.004880	1.201346	0.257719	99
Es	-0.038916	-1.307369	-0.179889	99
Es	1.045027	-0.802958	0.797302	99
Es	1.598711	1.000678	1.162095	99
Es	0.366314	-1.250761	-0.514927	99
Es	0.661453	-0.875868	1.438059	99
Es	0.246831	1.391434	-0.173112	99
Es	-1.778528	0.094558	-0.769486	99
Es	-1.086408	0.096447	-0.760167	99
Es	1.935099	0.699469	0.025823	99
Es	-2.367074	0.424783	-0.915377	99
Es	-2.365118	-0.193055	-0.988255	99
Es	-2.378993	0.052418	-0.414251	99
Es	1.642795	-1.245860	0.815661	99
Es	0.510190	-1.000273	0.116745	99
Es	-0.012175	-0.659795	-0.452296	99
Es	-0.010264	0.743895	-0.275105	99
