44
Properties=species:S:1:pos:R:3:Z:I:1 energy=-307.9346754946985 field_type=dipole dipole="0.000000 0.000000 0.000000" charge=0
C	-2.735362	-0.689490	0.892947	6
C	-1.274683	-0.824330	0.603177	6
C	-0.675422	-0.301610	-0.476713	6
C	0.787158	-0.455340	-0.795973	6
C	1.530888	0.843790	-0.852893	6
C	2.432627	1.287810	0.268697	6
O	2.957447	0.698580	-0.930163	8
H	-3.194502	-1.680590	0.958227	1
H	-3.260072	-0.122050	0.117917	1
H	-2.881212	-0.178250	1.849027	1
H	-0.692632	-1.392820	1.326177	1
H	-1.266103	0.257210	-1.200843	1
H	0.867497	-0.942580	-1.774873	1
H	1.263978	-1.132610	-0.076543	1
H	1.074048	1.585010	-1.495313	1
H	2.475648	0.697520	1.175507	1
H	2.590698	2.349750	0.411637	1
Es	2.550255	2.010175	0.365792	99
Es	-2.825974	-0.345349	1.539738	99
Es	2.957254	0.698637	-0.930030	99
Es	1.785600	1.137402	-0.156812	99
Es	1.147728	0.197728	-0.812397	99
Es	2.469338	0.883240	0.884969	99
Es	3.025188	0.402373	-0.872582	99
Es	-1.072484	0.084250	-0.973959	99
Es	-1.274761	-0.824372	0.603270	99
Es	-3.037972	-1.361360	0.937324	99
Es	2.432731	1.287680	0.268425	99
Es	-0.675336	-0.301566	-0.476813	99
Es	-0.881895	-1.212523	1.099299	99
Es	-1.029069	-0.835393	-0.110253	99
Es	-3.086410	-0.302835	0.363423	99
Es	0.836109	-0.774161	-1.460021	99
Es	2.412475	0.715847	-1.003190	99
Es	-2.005787	-0.754061	0.744640	99
Es	3.077506	0.921524	-1.106965	99
Es	1.222409	1.351414	-1.295393	99
Es	2.859591	0.932710	-0.432326	99
Es	0.787115	-0.455297	-0.795969	99
Es	-0.909693	-0.280427	0.229306	99
Es	1.531195	0.843750	-0.852885	99
Es	-2.735323	-0.689496	0.892945	99
Es	1.109773	-0.907594	-0.300138	99
Es	0.059083	-0.364850	-0.630097	99
44
Properties=species:S:1:pos:R:3:Z:I:1 energy=-307.9346754946985 field_type=dipole dipole="0.000000 0.000000 0.000000" charge=0
C	-2.735362	-0.689490	0.892947	6
C	-1.274683	-0.824330	0.603177	6
C	-0.675422	-0.301610	-0.476713	6
C	0.787158	-0.455340	-0.795973	6
C	1.530888	0.843790	-0.852893	6
C	2.432627	1.287810	0.268697	6
O	2.957447	0.698580	-0.930163	8
H	-3.194502	-1.680590	0.958227	1
H	-3.260072	-0.122050	0.117917	1
H	-2.881212	-0.178250	1.849027	1
H	-0.692632	-1.392820	1.326177	1
H	-1.266103	0.257210	-1.200843	1
H	0.867497	-0.942580	-1.774873	1
H	1.263978	-1.132610	-0.076543	1
H	1.074048	1.585010	-1.495313	1
H	2.475648	0.697520	1.175507	1
H	2.590698	2.349750	0.411637	1
Es	3.022287	0.403009	-0.871268	99
Es	2.957115	0.698696	-0.929951	99
Es	0.836252	-0.774179	-1.460031	99
Es	2.860197	0.932897	-0.432314	99
Es	-0.675334	-0.301559	-0.476811	99
Es	2.432720	1.287680	0.268425	99
Es	-2.005908	-0.753862	0.744580	99
Es	1.109655	-0.907558	-0.300163	99
Es	-2.825913	-0.345372	1.539789	99
Es	-1.072550	0.084370	-0.973890	99
Es	-3.037882	-1.361407	0.937320	99
Es	2.469414	0.883360	0.884886	99
Es	1.785262	1.137464	-0.156617	99
Es	2.550307	2.010060	0.365817	99
Es	1.147721	0.197734	-0.812417	99
Es	0.059110	-0.364814	-0.630119	99
Es	-1.274756	-0.824358	0.603274	99
Es	1.531201	0.843746	-0.852888	99
Es	-3.086492	-0.302830	0.363437	99
Es	-2.735322	-0.689497	0.892945	99
Es	-0.881838	-1.212518	1.099348	99
Es	1.222489	1.351395	-1.295288	99
Es	3.080294	0.919339	-1.107642	99
Es	0.787116	-0.455297	-0.795970	99
Es	2.412308	0.717100	-1.004033	99
Es	-1.029049	-0.835298	-0.110248	99
Es	-0.909756	-0.280853	0.229129	99
44
Properties=species:S:1:pos:R:3:Z:I:1 energy=-307.9346754946985 field_type=dipole dipole="0.000000 0.000000 0.000000" charge=0
C	-2.735362	-0.689490	0.892947	6
C	-1.274683	-0.824330	0.603177	6
C	-0.675422	-0.301610	-0.476713	6
C	0.787158	-0.455340	-0.795973	6
C	1.530888	0.843790	-0.852893	6
C	2.432627	1.287810	0.268697	6
O	2.957447	0.698580	-0.930163	8
H	-3.194502	-1.680590	0.958227	1
H	-3.260072	-0.122050	0.117917	1
H	-2.881212	-0.178250	1.849027	1
H	-0.692632	-1.392820	1.326177	1
H	-1.266103	0.257210	-1.200843	1
H	0.867497	-0.942580	-1.774873	1
H	1.263978	-1.132610	-0.076543	1
H	1.074048	1.585010	-1.495313	1
H	2.475648	0.697520	1.175507	1
H	2.590698	2.349750	0.411637	1
Es	1.222540	1.351259	-1.295315	99
Es	2.412221	0.715496	-1.003686	99
Es	-1.028951	-0.835038	-0.110018	99
Es	2.860840	0.934109	-0.432210	99
Es	-0.675334	-0.301562	-0.476811	99
Es	-2.005917	-0.754049	0.744577	99
Es	1.784969	1.137566	-0.156433	99
Es	1.531180	0.843750	-0.852880	99
Es	0.059131	-0.364865	-0.630100	99
Es	-3.038043	-1.361383	0.937278	99
Es	1.109681	-0.907497	-0.300134	99
Es	-1.274761	-0.824374	0.603270	99
Es	-2.735322	-0.689497	0.892945	99
Es	3.078901	0.918824	-1.108341	99
Es	-0.881787	-1.212539	1.099266	99
Es	2.957262	0.698636	-0.930027	99
Es	3.023108	0.403932	-0.871034	99
Es	0.836232	-0.774262	-1.459942	99
Es	-1.072603	0.084152	-0.974025	99
Es	0.787116	-0.455297	-0.795970	99
Es	-2.825956	-0.345331	1.539750	99
Es	-0.909815	-0.280662	0.229124	99
Es	1.147763	0.197788	-0.812564	99
Es	2.550306	2.009968	0.365824	99
Es	-3.086365	-0.302828	0.363506	99
Es	2.469534	0.883465	0.884818	99
Es	2.432716	1.287684	0.268432	99
44
Properties=species:S:1:pos:R:3:Z:I:1 energy=-307.9346754946985 field_type=dipole dipole="0.000000 0.000000 0.000000" charge=0
C	-2.735362	-0.689490	0.892947	6
C	-1.274683	-0.824330	0.603177	6
C	-0.675422	-0.301610	-0.476713	6
C	0.787158	-0.455340	-0.795973	6
C	1.530888	0.843790	-0.852893	6
C	2.432627	1.287810	0.268697	6
O	2.957447	0.698580	-0.930163	8
H	-3.194502	-1.680590	0.958227	1
H	-3.260072	-0.122050	0.117917	1
H	-2.881212	-0.178250	1.849027	1
H	-0.692632	-1.392820	1.326177	1
H	-1.266103	0.257210	-1.200843	1
H	0.867497	-0.942580	-1.774873	1
H	1.263978	-1.132610	-0.076543	1
H	1.074048	1.585010	-1.495313	1
H	2.475648	0.697520	1.175507	1
H	2.590698	2.349750	0.411637	1
Es	1.147703	0.197682	-0.812304	99
Es	1.531185	0.843747	-0.852890	99
Es	-1.274763	-0.824372	0.603274	99
Es	0.059187	-0.364878	-0.630023	99
Es	0.836201	-0.774145	-1.460110	99
Es	2.550347	2.009893	0.365879	99
Es	1.222545	1.351202	-1.295289	99
Es	1.784959	1.137692	-0.156550	99
Es	-3.086347	-0.302789	0.363450	99
Es	-2.735321	-0.689497	0.892945	99
Es	-1.029025	-0.834942	-0.110010	99
Es	-2.826038	-0.345404	1.539806	99
Es	3.023524	0.404275	-0.872661	99
Es	2.432718	1.287682	0.268426	99
Es	0.787116	-0.455298	-0.795971	99
Es	2.469478	0.883476	0.884779	99
Es	-0.881771	-1.212591	1.099266	99
Es	-1.072587	0.084348	-0.973927	99
Es	-3.037945	-1.361417	0.937179	99
Es	1.109689	-0.907582	-0.300214	99
Es	2.861031	0.932632	-0.431262	99
Es	2.957199	0.698643	-0.930004	99
Es	2.412059	0.715555	-1.003890	99
Es	-2.005998	-0.753923	0.744645	99
Es	-0.909746	-0.280883	0.229053	99
Es	3.078579	0.919909	-1.107487	99
Es	-0.675335	-0.301567	-0.476809	99
44
Properties=species:S:1:pos:R:3:Z:I:1 energy=-307.9346754946985 field_type=dipole dipole="0.000000 0.000000 0.000000" charge=0
C	-2.735362	-0.689490	0.892947	6
C	-1.274683	-0.824330	0.603177	6
C	-0.675422	-0.301610	-0.476713	6
C	0.787158	-0.455340	-0.795973	6
C	1.530888	0.843790	-0.852893	6
C	2.432627	1.287810	0.268697	6
O	2.957447	0.698580	-0.930163	8
H	-3.194502	-1.680590	0.958227	1
H	-3.260072	-0.122050	0.117917	1
H	-2.881212	-0.178250	1.849027	1
H	-0.692632	-1.392820	1.326177	1
H	-1.266103	0.257210	-1.200843	1
H	0.867497	-0.942580	-1.774873	1
H	1.263978	-1.132610	-0.076543	1
H	1.074048	1.585010	-1.495313	1
H	2.475648	0.697520	1.175507	1
H	2.590698	2.349750	0.411637	1
Es	0.787116	-0.455296	-0.795969	99
Es	0.836286	-0.774215	-1.460024	99
Es	1.147620	0.197815	-0.812490	99
Es	2.550401	2.009821	0.365898	99
Es	0.059206	-0.364969	-0.630163	99
Es	-1.028927	-0.834881	-0.109935	99
Es	3.078702	0.918545	-1.105803	99
Es	2.957189	0.698632	-0.930019	99
Es	2.861070	0.933076	-0.430945	99
Es	-3.037953	-1.361365	0.937235	99
Es	-2.735321	-0.689497	0.892943	99
Es	-0.909796	-0.281014	0.228979	99
Es	-2.826002	-0.345343	1.539815	99
Es	1.531206	0.843751	-0.852876	99
Es	1.109724	-0.907490	-0.300156	99
Es	3.023433	0.404089	-0.872918	99
Es	2.411942	0.716555	-1.005893	99
Es	-1.072691	0.084295	-0.973883	99
Es	1.222554	1.351192	-1.295168	99
Es	1.784923	1.137778	-0.156280	99
Es	-1.274759	-0.824370	0.603268	99
Es	-0.675336	-0.301566	-0.476812	99
Es	2.432724	1.287682	0.268429	99
Es	-2.006050	-0.753974	0.744568	99
Es	2.469488	0.883529	0.884735	99
Es	-0.881701	-1.212467	1.099273	99
Es	-3.086401	-0.302867	0.363489	99
44
Properties=species:S:1:pos:R:3:Z:I:1 energy=-307.9346754946985 field_type=dipole dipole="0.000000 0.000000 0.000000" charge=0
C	-2.735362	-0.689490	0.892947	6
C	-1.274683	-0.824330	0.603177	6
C	-0.675422	-0.301610	-0.476713	6
C	0.787158	-0.455340	-0.795973	6
C	1.530888	0.843790	-0.852893	6
C	2.432627	1.287810	0.268697	6
O	2.957447	0.698580	-0.930163	8
H	-3.194502	-1.680590	0.958227	1
H	-3.260072	-0.122050	0.117917	1
H	-2.881212	-0.178250	1.849027	1
H	-0.692632	-1.392820	1.326177	1
H	-1.266103	0.257210	-1.200843	1
H	0.867497	-0.942580	-1.774873	1
H	1.263978	-1.132610	-0.076543	1
H	1.074048	1.585010	-1.495313	1
H	2.475648	0.697520	1.175507	1
H	2.590698	2.349750	0.411637	1
Es	3.020399	0.405284	-0.870319	99
Es	-1.274758	-0.824371	0.603264	99
Es	2.957250	0.698656	-0.930033	99
Es	0.059362	-0.364905	-0.630079	99
Es	2.550474	2.009741	0.365949	99
Es	-1.028912	-0.834744	-0.109852	99
Es	0.787118	-0.455297	-0.795971	99
Es	-2.825919	-0.345435	1.539718	99
Es	-2.735325	-0.689496	0.892944	99
Es	-2.006077	-0.753905	0.744589	99
Es	0.836263	-0.774314	-1.460076	99
Es	1.784526	1.137794	-0.156314	99
Es	2.469584	0.883614	0.884630	99
Es	-0.909798	-0.281210	0.228875	99
Es	-0.881700	-1.212521	1.099227	99
Es	1.147602	0.197799	-0.812437	99
Es	-1.072754	0.084322	-0.973865	99
Es	3.081183	0.916130	-1.108222	99
Es	-3.086501	-0.302771	0.363479	99
Es	1.222517	1.351180	-1.295145	99
Es	2.411658	0.716577	-1.005366	99
Es	-3.037959	-1.361365	0.937332	99
Es	2.432723	1.287678	0.268422	99
Es	2.862128	0.934235	-0.431637	99
Es	1.109702	-0.907408	-0.300111	99
Es	-0.675337	-0.301571	-0.476816	99
Es	1.531197	0.843750	-0.852883	99
44
Properties=species:S:1:pos:R:3:Z:I:1 energy=-307.9346754946985 field_type=dipole dipole="0.000000 0.000000 0.000000" charge=0
C	-2.735362	-0.689490	0.892947	6
C	-1.274683	-0.824330	0.603177	6
C	-0.675422	-0.301610	-0.476713	6
C	0.787158	-0.455340	-0.795973	6
C	1.530888	0.843790	-0.852893	6
C	2.432627	1.287810	0.268697	6
O	2.957447	0.698580	-0.930163	8
H	-3.194502	-1.680590	0.958227	1
H	-3.260072	-0.122050	0.117917	1
H	-2.881212	-0.178250	1.849027	1
H	-0.692632	-1.392820	1.326177	1
H	-1.266103	0.257210	-1.200843	1
H	0.867497	-0.942580	-1.774873	1
H	1.263978	-1.132610	-0.076543	1
H	1.074048	1.585010	-1.495313	1
H	2.475648	0.697520	1.175507	1
H	2.590698	2.349750	0.411637	1
Es	-0.909778	-0.281253	0.228834	99
Es	-1.072793	0.084302	-0.973873	99
Es	-1.274760	-0.824373	0.603272	99
Es	0.787115	-0.455298	-0.795970	99
Es	2.469579	0.883682	0.884644	99
Es	2.411532	0.715173	-1.005694	99
Es	1.531196	0.843749	-0.852882	99
Es	-2.006182	-0.753918	0.744467	99
Es	-0.675336	-0.301566	-0.476812	99
Es	3.025537	0.405024	-0.874285	99
Es	3.076210	0.918716	-1.105107	99
Es	-1.028856	-0.834542	-0.109697	99
Es	2.432723	1.287678	0.268419	99
Es	2.550365	2.009679	0.365923	99
Es	2.862231	0.933354	-0.430485	99
Es	-0.881672	-1.212606	1.099202	99
Es	1.109720	-0.907526	-0.300149	99
Es	-3.038007	-1.361402	0.937247	99
Es	0.059338	-0.364896	-0.630116	99
Es	-2.735322	-0.689497	0.892944	99
Es	-3.086377	-0.302876	0.363540	99
Es	1.222597	1.351062	-1.295136	99
Es	2.957232	0.698656	-0.929998	99
Es	-2.825976	-0.345309	1.539785	99
Es	1.784445	1.137841	-0.156246	99
Es	0.836261	-0.774189	-1.460059	99
Es	1.147623	0.197781	-0.812468	99
44
Properties=species:S:1:pos:R:3:Z:I:1 energy=-307.9346754946985 field_type=dipole dipole="0.000000 0.000000 0.000000" charge=0
C	-2.735362	-0.689490	0.892947	6
C	-1.274683	-0.824330	0.603177	6
C	-0.675422	-0.301610	-0.476713	6
C	0.787158	-0.455340	-0.795973	6
C	1.530888	0.843790	-0.852893	6
C	2.432627	1.287810	0.268697	6
O	2.957447	0.698580	-0.930163	8
H	-3.194502	-1.680590	0.958227	1
H	-3.260072	-0.122050	0.117917	1
H	-2.881212	-0.178250	1.849027	1
H	-0.692632	-1.392820	1.326177	1
H	-1.266103	0.257210	-1.200843	1
H	0.867497	-0.942580	-1.774873	1
H	1.263978	-1.132610	-0.076543	1
H	1.074048	1.585010	-1.495313	1
H	2.475648	0.697520	1.175507	1
H	2.590698	2.349750	0.411637	1
Es	3.022821	0.406162	-0.872806	99
Es	2.957204	0.698672	-0.929999	99
Es	-2.826024	-0.345284	1.539738	99
Es	1.531199	0.843749	-0.852885	99
Es	-2.006231	-0.753920	0.744572	99
Es	-1.028829	-0.834486	-0.109692	99
Es	-1.072818	0.084316	-0.973809	99
Es	-1.274763	-0.824375	0.603271	99
Es	-0.909891	-0.281444	0.228718	99
Es	2.469615	0.883748	0.884589	99
Es	0.787117	-0.455300	-0.795969	99
Es	1.147769	0.197818	-0.812485	99
Es	-0.881559	-1.212518	1.099199	99
Es	2.550462	2.009585	0.365937	99
Es	0.059398	-0.364809	-0.630120	99
Es	1.784212	1.137951	-0.156214	99
Es	-3.086399	-0.302922	0.363460	99
Es	2.432719	1.287681	0.268423	99
Es	-3.037958	-1.361389	0.937313	99
Es	-2.735323	-0.689497	0.892945	99
Es	1.222618	1.350980	-1.295170	99
Es	3.079887	0.917871	-1.105156	99
Es	2.411415	0.715859	-1.007377	99
Es	1.109595	-0.907470	-0.300177	99
Es	0.836280	-0.774290	-1.460035	99
Es	2.861465	0.932326	-0.430161	99
Es	-0.675337	-0.301568	-0.476809	99
44
Properties=species:S:1:pos:R:3:Z:I:1 energy=-307.9346754946985 field_type=dipole dipole="0.000000 0.000000 0.000000" charge=0
C	-2.735362	-0.689490	0.892947	6
C	-1.274683	-0.824330	0.603177	6
C	-0.675422	-0.301610	-0.476713	6
C	0.787158	-0.455340	-0.795973	6
C	1.530888	0.843790	-0.852893	6
C	2.432627	1.287810	0.268697	6
O	2.957447	0.698580	-0.930163	8
H	-3.194502	-1.680590	0.958227	1
H	-3.260072	-0.122050	0.117917	1
H	-2.881212	-0.178250	1.849027	1
H	-0.692632	-1.392820	1.326177	1
H	-1.266103	0.257210	-1.200843	1
H	0.867497	-0.942580	-1.774873	1
H	1.263978	-1.132610	-0.076543	1
H	1.074048	1.585010	-1.495313	1
H	2.475648	0.697520	1.175507	1
H	2.590698	2.349750	0.411637	1
Es	2.957316	0.698625	-0.930078	99
Es	-2.006334	-0.753959	0.744442	99
Es	-2.735322	-0.689497	0.892945	99
Es	2.550482	2.009519	0.365958	99
Es	3.023291	0.405885	-0.873451	99
Es	0.787117	-0.455297	-0.795971	99
Es	-3.037977	-1.361395	0.937382	99
Es	2.411459	0.715868	-1.006612	99
Es	2.469641	0.883777	0.884557	99
Es	-1.274760	-0.824373	0.603270	99
Es	-0.881525	-1.212609	1.099127	99
Es	-1.028799	-0.834205	-0.109498	99
Es	1.109690	-0.907401	-0.300128	99
Es	-0.909847	-0.281411	0.228722	99
Es	1.531195	0.843749	-0.852882	99
Es	1.222687	1.350923	-1.295111	99
Es	2.862558	0.933028	-0.430121	99
Es	-3.086438	-0.302979	0.363496	99
Es	-2.825929	-0.345199	1.539746	99
Es	2.432717	1.287684	0.268434	99
Es	-1.072898	0.084214	-0.973848	99
Es	0.059438	-0.365018	-0.630193	99
Es	1.783997	1.138026	-0.156100	99
Es	3.078310	0.917482	-1.105335	99
Es	-0.675336	-0.301561	-0.476807	99
Es	1.147578	0.197872	-0.812577	99
Es	0.836335	-0.774301	-1.460063	99
44
Properties=species:S:1:pos:R:3:Z:I:1 energy=-307.9346754946985 field_type=dipole dipole="0.000000 0.000000 0.000000" charge=0
C	-2.735362	-0.689490	0.892947	6
C	-1.274683	-0.824330	0.603177	6
C	-0.675422	-0.301610	-0.476713	6
C	0.787158	-0.455340	-0.795973	6
C	1.530888	0.843790	-0.852893	6
C	2.432627	1.287810	0.268697	6
O	2.957447	0.698580	-0.930163	8
H	-3.194502	-1.680590	0.958227	1
H	-3.260072	-0.122050	0.117917	1
H	-2.881212	-0.178250	1.849027	1
H	-0.692632	-1.392820	1.326177	1
H	-1.266103	0.257210	-1.200843	1
H	0.867497	-0.942580	-1.774873	1
H	1.263978	-1.132610	-0.076543	1
H	1.074048	1.585010	-1.495313	1
H	2.475648	0.697520	1.175507	1
H	2.590698	2.349750	0.411637	1
Es	-2.735323	-0.689496	0.892946	99
Es	-1.072919	0.084319	-0.973795	99
Es	-2.825957	-0.345203	1.539697	99
Es	-0.909899	-0.281643	0.228594	99
Es	2.469705	0.883785	0.884450	99
Es	-1.274761	-0.824371	0.603269	99
Es	-3.038050	-1.361389	0.937375	99
Es	2.550517	2.009491	0.366046	99
Es	1.222700	1.350864	-1.295091	99
Es	-0.675338	-0.301571	-0.476813	99
Es	1.147573	0.197896	-0.812591	99
Es	1.531194	0.843749	-0.852883	99
Es	2.862689	0.932675	-0.429748	99
Es	-0.881500	-1.212575	1.099137	99
Es	3.076637	0.918282	-1.104443	99
Es	-2.006297	-0.753927	0.744447	99
Es	-1.028792	-0.834210	-0.109514	99
Es	0.059527	-0.364950	-0.630095	99
Es	1.109714	-0.907411	-0.300136	99
Es	2.411309	0.715163	-1.006670	99
Es	0.787117	-0.455298	-0.795971	99
Es	2.957207	0.698664	-0.930017	99
Es	-3.086407	-0.302977	0.363553	99
Es	2.432720	1.287677	0.268419	99
Es	3.025051	0.406086	-0.874870	99
Es	0.836295	-0.774304	-1.460042	99
Es	1.783933	1.138121	-0.155953	99
44
Properties=species:S:1:pos:R:3:Z:I:1 energy=-307.9346754946985 field_type=dipole dipole="0.000000 0.000000 0.000000" charge=0
C	-2.735362	-0.689490	0.892947	6
C	-1.274683	-0.824330	0.603177	6
C	-0.675422	-0.301610	-0.476713	6
C	0.787158	-0.455340	-0.795973	6
C	1.530888	0.843790	-0.852893	6
C	2.432627	1.287810	0.268697	6
O	2.957447	0.698580	-0.930163	8
H	-3.194502	-1.680590	0.958227	1
H	-3.260072	-0.122050	0.117917	1
H	-2.881212	-0.178250	1.849027	1
H	-0.692632	-1.392820	1.326177	1
H	-1.266103	0.257210	-1.200843	1
H	0.867497	-0.942580	-1.774873	1
H	1.263978	-1.132610	-0.076543	1
H	1.074048	1.585010	-1.495313	1
H	2.475648	0.697520	1.175507	1
H	2.590698	2.349750	0.411637	1
Es	2.432716	1.287682	0.268429	99
Es	1.783652	1.138038	-0.156021	99
Es	-0.909916	-0.281804	0.228507	99
Es	1.531200	0.843750	-0.852882	99
Es	-2.825987	-0.345358	1.539787	99
Es	-3.086454	-0.302872	0.363525	99
Es	1.222702	1.350882	-1.295022	99
Es	1.147596	0.197877	-0.812600	99
Es	2.550490	2.009363	0.365946	99
Es	-1.274761	-0.824374	0.603268	99
Es	-1.028785	-0.834063	-0.109434	99
Es	2.411196	0.714977	-1.006603	99
Es	-0.675339	-0.301569	-0.476809	99
Es	-2.006411	-0.753845	0.744486	99
Es	3.024386	0.406448	-0.873836	99
Es	3.077016	0.917103	-1.105179	99
Es	-2.735322	-0.689498	0.892944	99
Es	0.787114	-0.455301	-0.795972	99
Es	2.469744	0.883953	0.884473	99
Es	-0.881456	-1.212620	1.099110	99
Es	0.836319	-0.774300	-1.460051	99
Es	-3.037931	-1.361396	0.937256	99
Es	-1.072941	0.084356	-0.973754	99
Es	0.059616	-0.364882	-0.630168	99
Es	1.109629	-0.907456	-0.300078	99
Es	2.957228	0.698683	-0.930031	99
Es	2.863345	0.933672	-0.429989	99
