38
Properties=species:S:1:pos:R:3:Z:I:1 energy=-305.5809029651664 field_type=dipole dipole="0.000000 0.000000 0.000000" charge=0
C	-1.334677	0.757719	-0.278326	6
C	-0.032758	0.691949	0.049334	6
C	0.843603	-0.527721	0.168444	6
C	0.147003	-1.794701	-0.113716	6
C	-0.403857	-2.838401	-0.340126	6
C	0.649583	1.983909	0.335594	6
O	1.833742	2.048749	0.642694	8
H	-1.877337	1.696439	-0.336286	1
H	-1.909727	-0.136191	-0.502896	1
H	1.258243	-0.574811	1.182964	1
H	1.689523	-0.431371	-0.523256	1
H	-0.889427	-3.766111	-0.540206	1
H	0.026093	2.890539	0.255784	1
Es	-0.227484	-2.206852	-0.558209	99
Es	0.176665	-2.496727	-0.179234	99
Es	1.933890	2.339972	0.693329	99
Es	-1.334753	0.757736	-0.278344	99
Es	-0.725515	0.726045	0.207472	99
Es	0.210426	2.596505	0.277033	99
Es	1.383883	-0.468685	-0.295469	99
Es	0.306588	1.328695	0.191249	99
Es	0.382592	0.064494	0.101567	99
Es	1.461448	2.043735	0.287713	99
Es	0.843460	-0.527785	0.168403	99
Es	0.649583	1.983881	0.335584	99
Es	1.097858	-0.563679	0.835205	99
Es	1.964911	1.765147	0.651165	99
Es	0.147126	-1.794458	-0.113664	99
Es	-0.721169	-3.442549	-0.470729	99
Es	0.467543	-1.179244	0.018716	99
Es	-0.358649	-2.269824	0.048524	99
Es	-1.723646	0.166627	-0.429088	99
Es	-0.403973	-2.838600	-0.340165	99
Es	-1.693450	1.392626	-0.315326	99
Es	-0.566844	0.779485	-0.412473	99
Es	-0.032639	0.691948	0.049378	99
Es	1.338291	2.001550	0.772709	99
Es	1.833429	2.048763	0.642615	99
38
Properties=species:S:1:pos:R:3:Z:I:1 energy=-305.5809029651664 field_type=dipole dipole="0.000000 0.000000 0.000000" charge=0
C	-1.334677	0.757719	-0.278326	6
C	-0.032758	0.691949	0.049334	6
C	0.843603	-0.527721	0.168444	6
C	0.147003	-1.794701	-0.113716	6
C	-0.403857	-2.838401	-0.340126	6
C	0.649583	1.983909	0.335594	6
O	1.833742	2.048749	0.642694	8
H	-1.877337	1.696439	-0.336286	1
H	-1.909727	-0.136191	-0.502896	1
H	1.258243	-0.574811	1.182964	1
H	1.689523	-0.431371	-0.523256	1
H	-0.889427	-3.766111	-0.540206	1
H	0.026093	2.890539	0.255784	1
Es	-0.237726	-2.202262	-0.553356	99
Es	-0.351028	-2.275576	0.055398	99
Es	1.833403	2.048731	0.642613	99
Es	1.097971	-0.563684	0.835302	99
Es	1.338039	2.002786	0.772550	99
Es	0.467684	-1.179315	0.018667	99
Es	1.383751	-0.468506	-0.295536	99
Es	-0.725719	0.725926	0.207299	99
Es	0.382594	0.064332	0.101637	99
Es	-1.693439	1.392698	-0.315365	99
Es	0.843459	-0.527785	0.168402	99
Es	-1.334752	0.757736	-0.278346	99
Es	0.147124	-1.794452	-0.113652	99
Es	1.936166	2.339322	0.693437	99
Es	-0.032642	0.691950	0.049365	99
Es	1.962657	1.764393	0.651338	99
Es	1.461725	2.043958	0.287552	99
Es	-1.723635	0.166515	-0.429035	99
Es	-0.566668	0.779687	-0.412267	99
Es	-0.403969	-2.838604	-0.340167	99
Es	0.210393	2.596503	0.277126	99
Es	-0.721151	-3.442546	-0.470659	99
Es	0.649575	1.983877	0.335598	99
Es	0.179197	-2.495528	-0.191089	99
Es	0.306562	1.328650	0.191148	99
38
Properties=species:S:1:pos:R:3:Z:I:1 energy=-305.5809029651664 field_type=dipole dipole="0.000000 0.000000 0.000000" charge=0
C	-1.334677	0.757719	-0.278326	6
C	-0.032758	0.691949	0.049334	6
C	0.843603	-0.527721	0.168444	6
C	0.147003	-1.794701	-0.113716	6
C	-0.403857	-2.838401	-0.340126	6
C	0.649583	1.983909	0.335594	6
O	1.833742	2.048749	0.642694	8
H	-1.877337	1.696439	-0.336286	1
H	-1.909727	-0.136191	-0.502896	1
H	1.258243	-0.574811	1.182964	1
H	1.689523	-0.431371	-0.523256	1
H	-0.889427	-3.766111	-0.540206	1
H	0.026093	2.890539	0.255784	1
Es	0.382506	0.064374	0.101540	99
Es	0.210434	2.596530	0.277109	99
Es	-1.693512	1.392617	-0.315402	99
Es	1.461580	2.042855	0.287377	99
Es	-0.725660	0.725922	0.207213	99
Es	-1.334758	0.757736	-0.278333	99
Es	-0.032640	0.691947	0.049354	99
Es	-0.370675	-2.260635	0.037453	99
Es	0.843461	-0.527784	0.168401	99
Es	0.147131	-1.794452	-0.113663	99
Es	-1.723566	0.166530	-0.429037	99
Es	-0.211030	-2.214618	-0.564634	99
Es	1.833547	2.048729	0.642639	99
Es	-0.566662	0.779811	-0.412300	99
Es	1.967204	1.766181	0.652166	99
Es	0.649576	1.983878	0.335593	99
Es	1.338362	2.000910	0.772649	99
Es	0.172212	-2.498176	-0.161842	99
Es	0.306453	1.328669	0.191342	99
Es	1.097952	-0.563764	0.835296	99
Es	1.931295	2.340486	0.692685	99
Es	0.467696	-1.179149	0.018739	99
Es	1.383799	-0.468671	-0.295574	99
Es	-0.403965	-2.838608	-0.340166	99
Es	-0.721169	-3.442512	-0.470643	99
38
Properties=species:S:1:pos:R:3:Z:I:1 energy=-305.5809029651664 field_type=dipole dipole="0.000000 0.000000 0.000000" charge=0
C	-1.334677	0.757719	-0.278326	6
C	-0.032758	0.691949	0.049334	6
C	0.843603	-0.527721	0.168444	6
C	0.147003	-1.794701	-0.113716	6
C	-0.403857	-2.838401	-0.340126	6
C	0.649583	1.983909	0.335594	6
O	1.833742	2.048749	0.642694	8
H	-1.877337	1.696439	-0.336286	1
H	-1.909727	-0.136191	-0.502896	1
H	1.258243	-0.574811	1.182964	1
H	1.689523	-0.431371	-0.523256	1
H	-0.889427	-3.766111	-0.540206	1
H	0.026093	2.890539	0.255784	1
Es	1.098059	-0.563829	0.835362	99
Es	-0.725423	0.726160	0.207330	99
Es	0.467673	-1.179057	0.018653	99
Es	-1.334754	0.757735	-0.278343	99
Es	-0.403977	-2.838595	-0.340175	99
Es	0.306448	1.328700	0.191138	99
Es	-0.192768	-2.223186	-0.571231	99
Es	0.166097	-2.499641	-0.140563	99
Es	-0.566991	0.779449	-0.412087	99
Es	1.931746	2.340643	0.693563	99
Es	1.833381	2.048783	0.642607	99
Es	1.966867	1.767130	0.651314	99
Es	-1.723461	0.166510	-0.429082	99
Es	1.338560	1.999594	0.772936	99
Es	-0.032647	0.691951	0.049363	99
Es	-0.382810	-2.250668	0.022912	99
Es	-1.693561	1.392728	-0.315506	99
Es	0.147141	-1.794466	-0.113653	99
Es	1.383704	-0.468658	-0.295682	99
Es	-0.721185	-3.442449	-0.470720	99
Es	0.382557	0.064315	0.101595	99
Es	0.843462	-0.527784	0.168403	99
Es	0.210455	2.596563	0.277096	99
Es	1.461425	2.043003	0.287135	99
Es	0.649576	1.983877	0.335594	99
38
Properties=species:S:1:pos:R:3:Z:I:1 energy=-305.5809029651664 field_type=dipole dipole="0.000000 0.000000 0.000000" charge=0
C	-1.334677	0.757719	-0.278326	6
C	-0.032758	0.691949	0.049334	6
C	0.843603	-0.527721	0.168444	6
C	0.147003	-1.794701	-0.113716	6
C	-0.403857	-2.838401	-0.340126	6
C	0.649583	1.983909	0.335594	6
O	1.833742	2.048749	0.642694	8
H	-1.877337	1.696439	-0.336286	1
H	-1.909727	-0.136191	-0.502896	1
H	1.258243	-0.574811	1.182964	1
H	1.689523	-0.431371	-0.523256	1
H	-0.889427	-3.766111	-0.540206	1
H	0.026093	2.890539	0.255784	1
Es	0.467742	-1.179011	0.018799	99
Es	-0.725436	0.726168	0.207109	99
Es	-1.693534	1.392745	-0.315409	99
Es	0.843461	-0.527785	0.168402	99
Es	0.169270	-2.499024	-0.150961	99
Es	1.461741	2.043764	0.287173	99
Es	0.382463	0.064199	0.101680	99
Es	-0.721102	-3.442435	-0.470714	99
Es	-0.032637	0.691949	0.049361	99
Es	1.934370	2.339274	0.693315	99
Es	1.097950	-0.563850	0.835327	99
Es	0.649575	1.983878	0.335594	99
Es	1.964443	1.765607	0.651387	99
Es	-0.566960	0.779536	-0.411964	99
Es	-0.403976	-2.838597	-0.340137	99
Es	-0.201002	-2.219445	-0.568070	99
Es	-1.723496	0.166461	-0.429089	99
Es	1.383841	-0.468659	-0.295752	99
Es	0.210431	2.596575	0.277110	99
Es	1.833395	2.048732	0.642606	99
Es	0.306412	1.328709	0.191122	99
Es	1.338041	2.001780	0.773032	99
Es	-1.334752	0.757736	-0.278345	99
Es	0.147128	-1.794454	-0.113661	99
Es	-0.377797	-2.255044	0.030046	99
38
Properties=species:S:1:pos:R:3:Z:I:1 energy=-305.5809029651664 field_type=dipole dipole="0.000000 0.000000 0.000000" charge=0
C	-1.334677	0.757719	-0.278326	6
C	-0.032758	0.691949	0.049334	6
C	0.843603	-0.527721	0.168444	6
C	0.147003	-1.794701	-0.113716	6
C	-0.403857	-2.838401	-0.340126	6
C	0.649583	1.983909	0.335594	6
O	1.833742	2.048749	0.642694	8
H	-1.877337	1.696439	-0.336286	1
H	-1.909727	-0.136191	-0.502896	1
H	1.258243	-0.574811	1.182964	1
H	1.689523	-0.431371	-0.523256	1
H	-0.889427	-3.766111	-0.540206	1
H	0.026093	2.890539	0.255784	1
Es	0.843463	-0.527784	0.168403	99
Es	-0.566838	0.779761	-0.412027	99
Es	0.649577	1.983878	0.335592	99
Es	-1.693495	1.392766	-0.315377	99
Es	-0.725536	0.726204	0.207122	99
Es	1.098030	-0.563848	0.835391	99
Es	1.461790	2.042963	0.287180	99
Es	-0.373661	-2.258266	0.034028	99
Es	-1.334751	0.757737	-0.278351	99
Es	0.170891	-2.498702	-0.156476	99
Es	1.833395	2.048766	0.642606	99
Es	0.147130	-1.794454	-0.113660	99
Es	1.338172	2.001043	0.772632	99
Es	1.932010	2.340070	0.692923	99
Es	0.382395	0.064206	0.101545	99
Es	-0.206718	-2.216588	-0.566507	99
Es	-0.032642	0.691950	0.049364	99
Es	-1.723540	0.166457	-0.429079	99
Es	0.306468	1.328490	0.191154	99
Es	0.210440	2.596589	0.277105	99
Es	-0.721199	-3.442377	-0.470679	99
Es	-0.403952	-2.838609	-0.340172	99
Es	1.383743	-0.468813	-0.295730	99
Es	0.467776	-1.178958	0.018801	99
Es	1.966621	1.766326	0.652175	99
38
Properties=species:S:1:pos:R:3:Z:I:1 energy=-305.5809029651664 field_type=dipole dipole="0.000000 0.000000 0.000000" charge=0
C	-1.334677	0.757719	-0.278326	6
C	-0.032758	0.691949	0.049334	6
C	0.843603	-0.527721	0.168444	6
C	0.147003	-1.794701	-0.113716	6
C	-0.403857	-2.838401	-0.340126	6
C	0.649583	1.983909	0.335594	6
O	1.833742	2.048749	0.642694	8
H	-1.877337	1.696439	-0.336286	1
H	-1.909727	-0.136191	-0.502896	1
H	1.258243	-0.574811	1.182964	1
H	1.689523	-0.431371	-0.523256	1
H	-0.889427	-3.766111	-0.540206	1
H	0.026093	2.890539	0.255784	1
Es	0.843462	-0.527784	0.168403	99
Es	0.649576	1.983878	0.335590	99
Es	-1.334751	0.757735	-0.278344	99
Es	1.833426	2.048670	0.642607	99
Es	0.382382	0.064189	0.101566	99
Es	1.931648	2.339883	0.692979	99
Es	-1.723537	0.166415	-0.429055	99
Es	1.097924	-0.563922	0.835390	99
Es	-1.693483	1.392817	-0.315399	99
Es	1.383859	-0.468764	-0.295760	99
Es	1.338186	2.000900	0.772782	99
Es	-0.403969	-2.838604	-0.340171	99
Es	0.177186	-2.496696	-0.181104	99
Es	0.306377	1.328556	0.191150	99
Es	1.461721	2.043255	0.287178	99
Es	-0.228835	-2.206305	-0.557672	99
Es	-0.357939	-2.270569	0.049795	99
Es	0.467886	-1.178907	0.018836	99
Es	0.147127	-1.794459	-0.113665	99
Es	1.967004	1.766454	0.651976	99
Es	-0.032641	0.691949	0.049364	99
Es	-0.566918	0.779662	-0.411903	99
Es	-0.725476	0.726189	0.207003	99
Es	-0.721096	-3.442350	-0.470700	99
Es	0.210452	2.596615	0.277115	99
38
Properties=species:S:1:pos:R:3:Z:I:1 energy=-305.5809029651664 field_type=dipole dipole="0.000000 0.000000 0.000000" charge=0
C	-1.334677	0.757719	-0.278326	6
C	-0.032758	0.691949	0.049334	6
C	0.843603	-0.527721	0.168444	6
C	0.147003	-1.794701	-0.113716	6
C	-0.403857	-2.838401	-0.340126	6
C	0.649583	1.983909	0.335594	6
O	1.833742	2.048749	0.642694	8
H	-1.877337	1.696439	-0.336286	1
H	-1.909727	-0.136191	-0.502896	1
H	1.258243	-0.574811	1.182964	1
H	1.689523	-0.431371	-0.523256	1
H	-0.889427	-3.766111	-0.540206	1
H	0.026093	2.890539	0.255784	1
Es	1.932809	2.339846	0.693145	99
Es	-0.372173	-2.259531	0.035773	99
Es	0.467864	-1.178835	0.018916	99
Es	1.461480	2.043095	0.287003	99
Es	0.306441	1.328547	0.190983	99
Es	-0.032643	0.691950	0.049363	99
Es	0.147130	-1.794459	-0.113664	99
Es	-0.567251	0.779420	-0.411703	99
Es	-0.403959	-2.838604	-0.340172	99
Es	-0.725247	0.726454	0.207213	99
Es	0.171890	-2.498619	-0.159318	99
Es	1.383834	-0.468864	-0.295806	99
Es	0.649576	1.983877	0.335589	99
Es	1.097959	-0.563906	0.835404	99
Es	0.210408	2.596641	0.277107	99
Es	-1.334749	0.757735	-0.278346	99
Es	1.338476	2.001107	0.772785	99
Es	0.843464	-0.527785	0.168405	99
Es	-1.693445	1.392868	-0.315476	99
Es	-0.209289	-2.215445	-0.565479	99
Es	-0.721105	-3.442343	-0.470654	99
Es	-1.723516	0.166401	-0.429159	99
Es	1.965824	1.766443	0.652021	99
Es	1.833390	2.048643	0.642604	99
Es	0.382405	0.064173	0.101427	99
