41
Properties=species:S:1:pos:R:3:Z:I:1 energy=-306.7882736082675 field_type=dipole dipole="0.000000 0.000000 0.000000" charge=0
C	-2.182737	-0.912702	0.741977	6
C	-1.419717	-0.405272	-0.235203	6
C	-0.484957	0.761268	-0.070353	6
C	0.955103	0.335528	-0.102713	6
C	1.725873	0.204878	0.989397	6
C	1.576733	0.078308	-1.427563	6
O	0.972313	0.219098	-2.484303	8
H	-2.840067	-1.754812	0.548917	1
H	-2.166357	-0.508662	1.748847	1
H	-1.471607	-0.844532	-1.231093	1
H	-0.698577	1.282218	0.872337	1
H	-0.683537	1.496868	-0.859473	1
H	1.319073	0.389548	1.979817	1
H	2.768033	-0.094392	0.939197	1
H	2.630423	-0.247342	-1.409783	1
Es	1.262661	-0.039550	0.425122	99
Es	-2.182794	-0.912737	0.742055	99
Es	-2.630020	-1.483168	0.619336	99
Es	1.117712	-0.072435	-2.084906	99
Es	-0.484906	0.761203	-0.070354	99
Es	-2.047545	-0.454519	0.185400	99
Es	1.576713	0.078313	-1.427541	99
Es	-0.622153	1.103632	0.578648	99
Es	1.259719	0.202771	-0.758794	99
Es	0.676660	0.311903	-2.440261	99
Es	-0.936819	0.175056	-0.148729	99
Es	1.725931	0.204870	0.989476	99
Es	0.955062	0.335524	-0.102817	99
Es	-1.447257	-0.698615	-0.906887	99
Es	1.147607	0.155200	-2.733670	99
Es	2.299934	-0.144078	-1.401041	99
Es	-1.419624	-0.405190	-0.235270	99
Es	-2.174544	-0.639593	1.428837	99
Es	1.265133	0.407989	-2.105191	99
Es	-1.567724	-0.867976	0.347357	99
Es	0.241318	0.536737	-0.090710	99
Es	2.427740	0.002464	0.953793	99
Es	1.458136	0.329950	1.659498	99
Es	1.437575	0.573235	0.373669	99
Es	-0.610383	1.244481	-0.598553	99
Es	0.972353	0.219104	-2.483847	99
41
Properties=species:S:1:pos:R:3:Z:I:1 energy=-306.7882736082675 field_type=dipole dipole="0.000000 0.000000 0.000000" charge=0
C	-2.182737	-0.912702	0.741977	6
C	-1.419717	-0.405272	-0.235203	6
C	-0.484957	0.761268	-0.070353	6
C	0.955103	0.335528	-0.102713	6
C	1.725873	0.204878	0.989397	6
C	1.576733	0.078308	-1.427563	6
O	0.972313	0.219098	-2.484303	8
H	-2.840067	-1.754812	0.548917	1
H	-2.166357	-0.508662	1.748847	1
H	-1.471607	-0.844532	-1.231093	1
H	-0.698577	1.282218	0.872337	1
H	-0.683537	1.496868	-0.859473	1
H	1.319073	0.389548	1.979817	1
H	2.768033	-0.094392	0.939197	1
H	2.630423	-0.247342	-1.409783	1
Es	0.241205	0.536695	-0.090646	99
Es	-2.182791	-0.912742	0.742057	99
Es	-2.630048	-1.483155	0.619346	99
Es	2.299959	-0.144082	-1.401056	99
Es	1.437615	0.573141	0.373601	99
Es	-1.419623	-0.405192	-0.235268	99
Es	1.259688	0.202747	-0.758754	99
Es	1.118817	-0.071717	-2.085413	99
Es	-0.936829	0.175142	-0.148647	99
Es	-0.610349	1.244593	-0.598596	99
Es	1.576715	0.078311	-1.427539	99
Es	1.145832	0.155565	-2.736322	99
Es	1.458066	0.329979	1.659498	99
Es	-0.622089	1.103570	0.578614	99
Es	1.725932	0.204867	0.989478	99
Es	0.972426	0.219047	-2.484144	99
Es	2.427753	0.002447	0.953821	99
Es	1.262728	-0.039430	0.425119	99
Es	-2.174529	-0.639514	1.428855	99
Es	-1.567832	-0.867920	0.347274	99
Es	-1.447294	-0.698653	-0.906894	99
Es	-2.047420	-0.454706	0.185408	99
Es	1.265207	0.408051	-2.105286	99
Es	0.955061	0.335514	-0.102813	99
Es	-0.484906	0.761203	-0.070354	99
Es	0.677194	0.310810	-2.436717	99
41
Properties=species:S:1:pos:R:3:Z:I:1 energy=-306.7882736082675 field_type=dipole dipole="0.000000 0.000000 0.000000" charge=0
C	-2.182737	-0.912702	0.741977	6
C	-1.419717	-0.405272	-0.235203	6
C	-0.484957	0.761268	-0.070353	6
C	0.955103	0.335528	-0.102713	6
C	1.725873	0.204878	0.989397	6
C	1.576733	0.078308	-1.427563	6
O	0.972313	0.219098	-2.484303	8
H	-2.840067	-1.754812	0.548917	1
H	-2.166357	-0.508662	1.748847	1
H	-1.471607	-0.844532	-1.231093	1
H	-0.698577	1.282218	0.872337	1
H	-0.683537	1.496868	-0.859473	1
H	1.319073	0.389548	1.979817	1
H	2.768033	-0.094392	0.939197	1
H	2.630423	-0.247342	-1.409783	1
Es	1.262731	-0.039261	0.425248	99
Es	1.725931	0.204873	0.989475	99
Es	-1.567763	-0.867939	0.347315	99
Es	-0.484911	0.761205	-0.070353	99
Es	-1.419622	-0.405186	-0.235272	99
Es	-0.610364	1.244536	-0.598546	99
Es	-1.447355	-0.698647	-0.906965	99
Es	0.972461	0.219053	-2.484047	99
Es	-2.630107	-1.483114	0.619282	99
Es	1.259660	0.202632	-0.758700	99
Es	2.299954	-0.144108	-1.401050	99
Es	1.118892	-0.072149	-2.085763	99
Es	0.955063	0.335530	-0.102817	99
Es	-0.936938	0.175188	-0.148631	99
Es	-0.622037	1.103623	0.578637	99
Es	-2.182792	-0.912736	0.742054	99
Es	2.427788	0.002442	0.953796	99
Es	-2.047298	-0.454688	0.185504	99
Es	1.576715	0.078314	-1.427540	99
Es	1.264786	0.408212	-2.104752	99
Es	0.677956	0.310219	-2.435867	99
Es	1.145393	0.156424	-2.737462	99
Es	1.458075	0.329997	1.659490	99
Es	0.241123	0.536712	-0.090710	99
Es	-2.174527	-0.639622	1.428844	99
Es	1.437673	0.573062	0.373452	99
41
Properties=species:S:1:pos:R:3:Z:I:1 energy=-306.7882736082675 field_type=dipole dipole="0.000000 0.000000 0.000000" charge=0
C	-2.182737	-0.912702	0.741977	6
C	-1.419717	-0.405272	-0.235203	6
C	-0.484957	0.761268	-0.070353	6
C	0.955103	0.335528	-0.102713	6
C	1.725873	0.204878	0.989397	6
C	1.576733	0.078308	-1.427563	6
O	0.972313	0.219098	-2.484303	8
H	-2.840067	-1.754812	0.548917	1
H	-2.166357	-0.508662	1.748847	1
H	-1.471607	-0.844532	-1.231093	1
H	-0.698577	1.282218	0.872337	1
H	-0.683537	1.496868	-0.859473	1
H	1.319073	0.389548	1.979817	1
H	2.768033	-0.094392	0.939197	1
H	2.630423	-0.247342	-1.409783	1
Es	-1.567830	-0.867698	0.347314	99
Es	-2.047358	-0.454742	0.185497	99
Es	-1.419624	-0.405192	-0.235268	99
Es	-0.610341	1.244521	-0.598532	99
Es	2.299947	-0.144144	-1.401079	99
Es	-0.484907	0.761205	-0.070353	99
Es	1.147235	0.153730	-2.733864	99
Es	1.725933	0.204870	0.989477	99
Es	1.259715	0.202613	-0.758657	99
Es	1.576715	0.078314	-1.427541	99
Es	1.118192	-0.070926	-2.084462	99
Es	-2.174527	-0.639468	1.428773	99
Es	-1.447357	-0.698827	-0.906900	99
Es	1.265464	0.408678	-2.105824	99
Es	-2.630089	-1.483231	0.619377	99
Es	-0.622163	1.103613	0.578562	99
Es	1.458049	0.329983	1.659550	99
Es	0.676174	0.311286	-2.439680	99
Es	-2.182791	-0.912736	0.742054	99
Es	0.972445	0.219079	-2.484061	99
Es	-0.936800	0.175102	-0.148770	99
Es	2.427751	0.002582	0.953791	99
Es	0.955064	0.335531	-0.102816	99
Es	0.241177	0.536881	-0.090632	99
Es	1.262805	-0.039378	0.424996	99
Es	1.437606	0.572924	0.373668	99
41
Properties=species:S:1:pos:R:3:Z:I:1 energy=-306.7882736082675 field_type=dipole dipole="0.000000 0.000000 0.000000" charge=0
C	-2.182737	-0.912702	0.741977	6
C	-1.419717	-0.405272	-0.235203	6
C	-0.484957	0.761268	-0.070353	6
C	0.955103	0.335528	-0.102713	6
C	1.725873	0.204878	0.989397	6
C	1.576733	0.078308	-1.427563	6
O	0.972313	0.219098	-2.484303	8
H	-2.840067	-1.754812	0.548917	1
H	-2.166357	-0.508662	1.748847	1
H	-1.471607	-0.844532	-1.231093	1
H	-0.698577	1.282218	0.872337	1
H	-0.683537	1.496868	-0.859473	1
H	1.319073	0.389548	1.979817	1
H	2.768033	-0.094392	0.939197	1
H	2.630423	-0.247342	-1.409783	1
Es	1.144732	0.155118	-2.736107	99
Es	-0.622118	1.103581	0.578629	99
Es	2.427901	0.002533	0.953662	99
Es	-2.047471	-0.454791	0.185491	99
Es	1.725932	0.204868	0.989477	99
Es	0.677505	0.311276	-2.436614	99
Es	0.955059	0.335520	-0.102819	99
Es	1.259720	0.202859	-0.758665	99
Es	0.241152	0.536900	-0.090682	99
Es	-1.447315	-0.698931	-0.906892	99
Es	2.299982	-0.144099	-1.401095	99
Es	-0.484908	0.761203	-0.070353	99
Es	-0.610447	1.244519	-0.598501	99
Es	1.118653	-0.072009	-2.085237	99
Es	1.458065	0.330056	1.659542	99
Es	1.266150	0.408326	-2.105867	99
Es	1.437421	0.572664	0.373950	99
Es	1.262851	-0.039336	0.424819	99
Es	-1.419626	-0.405193	-0.235269	99
Es	-2.182792	-0.912736	0.742055	99
Es	-2.174395	-0.639639	1.428917	99
Es	0.972450	0.219061	-2.484061	99
Es	1.576713	0.078314	-1.427542	99
Es	-0.936591	0.175164	-0.148589	99
Es	-2.629925	-1.483320	0.619318	99
Es	-1.568209	-0.867338	0.347056	99
41
Properties=species:S:1:pos:R:3:Z:I:1 energy=-306.7882736082675 field_type=dipole dipole="0.000000 0.000000 0.000000" charge=0
C	-2.182737	-0.912702	0.741977	6
C	-1.419717	-0.405272	-0.235203	6
C	-0.484957	0.761268	-0.070353	6
C	0.955103	0.335528	-0.102713	6
C	1.725873	0.204878	0.989397	6
C	1.576733	0.078308	-1.427563	6
O	0.972313	0.219098	-2.484303	8
H	-2.840067	-1.754812	0.548917	1
H	-2.166357	-0.508662	1.748847	1
H	-1.471607	-0.844532	-1.231093	1
H	-0.698577	1.282218	0.872337	1
H	-0.683537	1.496868	-0.859473	1
H	1.319073	0.389548	1.979817	1
H	2.768033	-0.094392	0.939197	1
H	2.630423	-0.247342	-1.409783	1
Es	-0.936636	0.175234	-0.148570	99
Es	1.725933	0.204863	0.989480	99
Es	-1.568070	-0.867598	0.347171	99
Es	1.145729	0.155025	-2.735349	99
Es	1.576712	0.078310	-1.427541	99
Es	2.299972	-0.144158	-1.401109	99
Es	1.457922	0.330004	1.659535	99
Es	-1.419625	-0.405193	-0.235267	99
Es	-2.630081	-1.483206	0.619183	99
Es	1.265114	0.409094	-2.105942	99
Es	0.955066	0.335511	-0.102808	99
Es	0.972445	0.219067	-2.484075	99
Es	2.427911	0.002586	0.953748	99
Es	0.241031	0.536738	-0.090685	99
Es	-0.622096	1.103611	0.578612	99
Es	-0.484910	0.761204	-0.070353	99
Es	-0.610379	1.244532	-0.598551	99
Es	-2.047159	-0.454800	0.185575	99
Es	-1.447428	-0.698830	-0.906902	99
Es	1.437566	0.572799	0.373624	99
Es	-2.174568	-0.639634	1.428862	99
Es	1.118880	-0.071867	-2.084576	99
Es	0.677346	0.310567	-2.437944	99
Es	1.262936	-0.039130	0.425008	99
Es	1.259666	0.202582	-0.758563	99
Es	-2.182790	-0.912741	0.742061	99
41
Properties=species:S:1:pos:R:3:Z:I:1 energy=-306.7882736082675 field_type=dipole dipole="0.000000 0.000000 0.000000" charge=0
C	-2.182737	-0.912702	0.741977	6
C	-1.419717	-0.405272	-0.235203	6
C	-0.484957	0.761268	-0.070353	6
C	0.955103	0.335528	-0.102713	6
C	1.725873	0.204878	0.989397	6
C	1.576733	0.078308	-1.427563	6
O	0.972313	0.219098	-2.484303	8
H	-2.840067	-1.754812	0.548917	1
H	-2.166357	-0.508662	1.748847	1
H	-1.471607	-0.844532	-1.231093	1
H	-0.698577	1.282218	0.872337	1
H	-0.683537	1.496868	-0.859473	1
H	1.319073	0.389548	1.979817	1
H	2.768033	-0.094392	0.939197	1
H	2.630423	-0.247342	-1.409783	1
Es	-0.621994	1.103643	0.578539	99
Es	2.427925	0.002488	0.953674	99
Es	-2.174551	-0.639555	1.428944	99
Es	1.259673	0.202788	-0.758474	99
Es	1.457911	0.330105	1.659583	99
Es	-2.182794	-0.912736	0.742055	99
Es	1.119395	-0.071871	-2.084806	99
Es	-1.447447	-0.698943	-0.906902	99
Es	0.972485	0.219058	-2.483978	99
Es	-2.047020	-0.455006	0.185567	99
Es	2.299967	-0.144201	-1.401111	99
Es	1.576718	0.078314	-1.427537	99
Es	-1.568209	-0.867521	0.347094	99
Es	-2.630087	-1.483151	0.619167	99
Es	0.677896	0.310229	-2.436113	99
Es	-1.419629	-0.405189	-0.235269	99
Es	1.265681	0.409278	-2.106324	99
Es	1.263018	-0.039149	0.424812	99
Es	-0.484908	0.761205	-0.070353	99
Es	1.725930	0.204867	0.989475	99
Es	1.437592	0.572517	0.373744	99
Es	0.240939	0.536848	-0.090695	99
Es	-0.936695	0.175316	-0.148444	99
Es	-0.610423	1.244526	-0.598544	99
Es	0.955064	0.335532	-0.102814	99
Es	1.144050	0.155179	-2.736669	99
41
Properties=species:S:1:pos:R:3:Z:I:1 energy=-306.7882736082675 field_type=dipole dipole="0.000000 0.000000 0.000000" charge=0
C	-2.182737	-0.912702	0.741977	6
C	-1.419717	-0.405272	-0.235203	6
C	-0.484957	0.761268	-0.070353	6
C	0.955103	0.335528	-0.102713	6
C	1.725873	0.204878	0.989397	6
C	1.576733	0.078308	-1.427563	6
O	0.972313	0.219098	-2.484303	8
H	-2.840067	-1.754812	0.548917	1
H	-2.166357	-0.508662	1.748847	1
H	-1.471607	-0.844532	-1.231093	1
H	-0.698577	1.282218	0.872337	1
H	-0.683537	1.496868	-0.859473	1
H	1.319073	0.389548	1.979817	1
H	2.768033	-0.094392	0.939197	1
H	2.630423	-0.247342	-1.409783	1
Es	-0.484908	0.761204	-0.070353	99
Es	-2.174512	-0.639439	1.428842	99
Es	-0.622071	1.103626	0.578553	99
Es	1.725930	0.204871	0.989475	99
Es	1.265363	0.408876	-2.105571	99
Es	0.677169	0.310335	-2.437455	99
Es	0.972461	0.219062	-2.484024	99
Es	-1.447472	-0.699019	-0.906880	99
Es	2.300001	-0.144128	-1.401132	99
Es	-1.568264	-0.867407	0.347106	99
Es	1.259666	0.202630	-0.758443	99
Es	-0.610359	1.244544	-0.598578	99
Es	-2.630108	-1.483254	0.619284	99
Es	1.437556	0.572488	0.373737	99
Es	-2.046988	-0.455064	0.185551	99
Es	-0.936631	0.175371	-0.148536	99
Es	1.576715	0.078313	-1.427539	99
Es	1.119134	-0.071855	-2.085262	99
Es	1.145378	0.155399	-2.735581	99
Es	1.457990	0.330148	1.659522	99
Es	0.955060	0.335526	-0.102818	99
Es	-2.182802	-0.912742	0.742055	99
Es	0.240957	0.536876	-0.090678	99
Es	2.427984	0.002550	0.953664	99
Es	1.262867	-0.039144	0.424949	99
Es	-1.419627	-0.405194	-0.235266	99
41
Properties=species:S:1:pos:R:3:Z:I:1 energy=-306.7882736082675 field_type=dipole dipole="0.000000 0.000000 0.000000" charge=0
C	-2.182737	-0.912702	0.741977	6
C	-1.419717	-0.405272	-0.235203	6
C	-0.484957	0.761268	-0.070353	6
C	0.955103	0.335528	-0.102713	6
C	1.725873	0.204878	0.989397	6
C	1.576733	0.078308	-1.427563	6
O	0.972313	0.219098	-2.484303	8
H	-2.840067	-1.754812	0.548917	1
H	-2.166357	-0.508662	1.748847	1
H	-1.471607	-0.844532	-1.231093	1
H	-0.698577	1.282218	0.872337	1
H	-0.683537	1.496868	-0.859473	1
H	1.319073	0.389548	1.979817	1
H	2.768033	-0.094392	0.939197	1
H	2.630423	-0.247342	-1.409783	1
Es	1.119892	-0.072035	-2.085291	99
Es	1.143135	0.155970	-2.737971	99
Es	-1.447542	-0.698981	-0.906907	99
Es	-1.568307	-0.867442	0.347040	99
Es	2.300022	-0.144154	-1.401165	99
Es	-2.182794	-0.912736	0.742055	99
Es	0.240936	0.536892	-0.090627	99
Es	-2.630081	-1.483189	0.619191	99
Es	0.955063	0.335530	-0.102817	99
Es	-0.622101	1.103667	0.578539	99
Es	1.576714	0.078316	-1.427542	99
Es	-0.484909	0.761204	-0.070353	99
Es	2.428037	0.002537	0.953688	99
Es	-0.610359	1.244486	-0.598526	99
Es	-2.046908	-0.455104	0.185590	99
Es	1.259641	0.202752	-0.758417	99
Es	1.263044	-0.039012	0.424861	99
Es	0.972450	0.219076	-2.484007	99
Es	-0.936596	0.175368	-0.148496	99
Es	1.265878	0.408199	-2.106389	99
Es	0.678159	0.310599	-2.434227	99
Es	-2.174566	-0.639502	1.428917	99
Es	1.457847	0.330075	1.659527	99
Es	-1.419625	-0.405194	-0.235268	99
Es	1.725928	0.204868	0.989475	99
Es	1.437527	0.572380	0.373744	99
41
Properties=species:S:1:pos:R:3:Z:I:1 energy=-306.7882736082675 field_type=dipole dipole="0.000000 0.000000 0.000000" charge=0
C	-2.182737	-0.912702	0.741977	6
C	-1.419717	-0.405272	-0.235203	6
C	-0.484957	0.761268	-0.070353	6
C	0.955103	0.335528	-0.102713	6
C	1.725873	0.204878	0.989397	6
C	1.576733	0.078308	-1.427563	6
O	0.972313	0.219098	-2.484303	8
H	-2.840067	-1.754812	0.548917	1
H	-2.166357	-0.508662	1.748847	1
H	-1.471607	-0.844532	-1.231093	1
H	-0.698577	1.282218	0.872337	1
H	-0.683537	1.496868	-0.859473	1
H	1.319073	0.389548	1.979817	1
H	2.768033	-0.094392	0.939197	1
H	2.630423	-0.247342	-1.409783	1
Es	-0.622091	1.103639	0.578539	99
Es	0.240909	0.536957	-0.090629	99
Es	-0.610355	1.244517	-0.598508	99
Es	1.143031	0.155196	-2.736714	99
Es	1.259628	0.202716	-0.758422	99
Es	-2.182791	-0.912734	0.742050	99
Es	-1.447544	-0.699017	-0.906898	99
Es	0.955062	0.335518	-0.102811	99
Es	1.437503	0.572289	0.373698	99
Es	-2.174509	-0.639507	1.428892	99
Es	-1.419627	-0.405195	-0.235271	99
Es	-0.936564	0.175411	-0.148465	99
Es	1.725930	0.204869	0.989475	99
Es	1.263046	-0.038932	0.424922	99
Es	-2.630088	-1.483239	0.619225	99
Es	-1.568381	-0.867331	0.346968	99
Es	0.677948	0.310758	-2.435305	99
Es	-2.046925	-0.455165	0.185607	99
Es	0.972425	0.219063	-2.484085	99
Es	-0.484909	0.761205	-0.070353	99
Es	2.428026	0.002529	0.953567	99
Es	1.266637	0.408886	-2.106577	99
Es	1.119485	-0.072037	-2.085215	99
Es	1.457896	0.330038	1.659601	99
Es	1.576717	0.078318	-1.427539	99
Es	2.300030	-0.144178	-1.401132	99
41
Properties=species:S:1:pos:R:3:Z:I:1 energy=-306.7882736082675 field_type=dipole dipole="0.000000 0.000000 0.000000" charge=0
C	-2.182737	-0.912702	0.741977	6
C	-1.419717	-0.405272	-0.235203	6
C	-0.484957	0.761268	-0.070353	6
C	0.955103	0.335528	-0.102713	6
C	1.725873	0.204878	0.989397	6
C	1.576733	0.078308	-1.427563	6
O	0.972313	0.219098	-2.484303	8
H	-2.840067	-1.754812	0.548917	1
H	-2.166357	-0.508662	1.748847	1
H	-1.471607	-0.844532	-1.231093	1
H	-0.698577	1.282218	0.872337	1
H	-0.683537	1.496868	-0.859473	1
H	1.319073	0.389548	1.979817	1
H	2.768033	-0.094392	0.939197	1
H	2.630423	-0.247342	-1.409783	1
Es	1.457880	0.330096	1.659599	99
Es	0.972474	0.219043	-2.484003	99
Es	1.259659	0.202675	-0.758370	99
Es	-0.622060	1.103557	0.578515	99
Es	1.145550	0.154687	-2.734936	99
Es	2.428042	0.002496	0.953567	99
Es	0.240861	0.536941	-0.090641	99
Es	-2.630145	-1.483240	0.619182	99
Es	1.263072	-0.038826	0.424875	99
Es	0.955066	0.335530	-0.102813	99
Es	-1.419629	-0.405189	-0.235267	99
Es	2.300051	-0.144182	-1.401179	99
Es	-1.568466	-0.867298	0.346980	99
Es	1.118277	-0.071764	-2.084735	99
Es	1.265678	0.408873	-2.105773	99
Es	-0.936537	0.175436	-0.148440	99
Es	-1.447591	-0.699066	-0.906916	99
Es	-0.610421	1.244586	-0.598501	99
Es	0.677512	0.311036	-2.438416	99
Es	-2.046739	-0.455235	0.185645	99
Es	1.725935	0.204867	0.989476	99
Es	1.437515	0.572233	0.373728	99
Es	-0.484909	0.761205	-0.070353	99
Es	-2.174510	-0.639468	1.428895	99
Es	1.576713	0.078313	-1.427545	99
Es	-2.182792	-0.912736	0.742050	99
41
Properties=species:S:1:pos:R:3:Z:I:1 energy=-306.7882736082675 field_type=dipole dipole="0.000000 0.000000 0.000000" charge=0
C	-2.182737	-0.912702	0.741977	6
C	-1.419717	-0.405272	-0.235203	6
C	-0.484957	0.761268	-0.070353	6
C	0.955103	0.335528	-0.102713	6
C	1.725873	0.204878	0.989397	6
C	1.576733	0.078308	-1.427563	6
O	0.972313	0.219098	-2.484303	8
H	-2.840067	-1.754812	0.548917	1
H	-2.166357	-0.508662	1.748847	1
H	-1.471607	-0.844532	-1.231093	1
H	-0.698577	1.282218	0.872337	1
H	-0.683537	1.496868	-0.859473	1
H	1.319073	0.389548	1.979817	1
H	2.768033	-0.094392	0.939197	1
H	2.630423	-0.247342	-1.409783	1
Es	1.263113	-0.038862	0.424764	99
Es	1.437465	0.572127	0.373828	99
Es	1.142801	0.156824	-2.736918	99
Es	0.955067	0.335531	-0.102812	99
Es	1.725932	0.204868	0.989477	99
Es	-0.622033	1.103659	0.578521	99
Es	-2.046759	-0.455295	0.185604	99
Es	1.259681	0.202832	-0.758309	99
Es	0.972424	0.219078	-2.483964	99
Es	-0.936548	0.175476	-0.148351	99
Es	-0.610324	1.244527	-0.598513	99
Es	0.677861	0.310525	-2.434841	99
Es	1.266450	0.408284	-2.105848	99
Es	2.300060	-0.144109	-1.401175	99
Es	-0.484910	0.761207	-0.070354	99
Es	-1.447630	-0.698962	-0.906908	99
Es	-2.174491	-0.639442	1.428891	99
Es	2.428072	0.002502	0.953548	99
Es	-2.630140	-1.483226	0.619228	99
Es	1.457884	0.330152	1.659598	99
Es	-2.182790	-0.912736	0.742052	99
Es	0.240746	0.536851	-0.090648	99
Es	-1.419624	-0.405197	-0.235258	99
Es	1.119965	-0.072966	-2.086318	99
Es	1.576714	0.078317	-1.427540	99
Es	-1.568498	-0.867394	0.346868	99
41
Properties=species:S:1:pos:R:3:Z:I:1 energy=-306.7882736082675 field_type=dipole dipole="0.000000 0.000000 0.000000" charge=0
C	-2.182737	-0.912702	0.741977	6
C	-1.419717	-0.405272	-0.235203	6
C	-0.484957	0.761268	-0.070353	6
C	0.955103	0.335528	-0.102713	6
C	1.725873	0.204878	0.989397	6
C	1.576733	0.078308	-1.427563	6
O	0.972313	0.219098	-2.484303	8
H	-2.840067	-1.754812	0.548917	1
H	-2.166357	-0.508662	1.748847	1
H	-1.471607	-0.844532	-1.231093	1
H	-0.698577	1.282218	0.872337	1
H	-0.683537	1.496868	-0.859473	1
H	1.319073	0.389548	1.979817	1
H	2.768033	-0.094392	0.939197	1
H	2.630423	-0.247342	-1.409783	1
Es	-0.484910	0.761203	-0.070353	99
Es	-2.182791	-0.912733	0.742052	99
Es	0.240713	0.536984	-0.090637	99
Es	0.677269	0.310441	-2.438558	99
Es	1.263145	-0.038759	0.424819	99
Es	-1.419624	-0.405193	-0.235266	99
Es	1.145392	0.155124	-2.734490	99
Es	1.457817	0.330191	1.659576	99
Es	2.428075	0.002413	0.953596	99
Es	-2.630168	-1.483235	0.619145	99
Es	0.955067	0.335529	-0.102811	99
Es	-0.936451	0.175453	-0.148394	99
Es	1.265638	0.409259	-2.105646	99
Es	-1.568558	-0.867257	0.346923	99
Es	2.300057	-0.144173	-1.401163	99
Es	1.437595	0.572093	0.373676	99
Es	1.118772	-0.072089	-2.085131	99
Es	1.576713	0.078311	-1.427541	99
Es	1.725931	0.204864	0.989474	99
Es	0.972431	0.219084	-2.484058	99
Es	-1.447650	-0.699100	-0.906898	99
Es	1.259630	0.202771	-0.758275	99
Es	-0.610375	1.244488	-0.598522	99
Es	-2.174559	-0.639414	1.428898	99
Es	-2.046601	-0.455362	0.185668	99
Es	-0.622069	1.103677	0.578539	99
41
Properties=species:S:1:pos:R:3:Z:I:1 energy=-306.7882736082675 field_type=dipole dipole="0.000000 0.000000 0.000000" charge=0
C	-2.182737	-0.912702	0.741977	6
C	-1.419717	-0.405272	-0.235203	6
C	-0.484957	0.761268	-0.070353	6
C	0.955103	0.335528	-0.102713	6
C	1.725873	0.204878	0.989397	6
C	1.576733	0.078308	-1.427563	6
O	0.972313	0.219098	-2.484303	8
H	-2.840067	-1.754812	0.548917	1
H	-2.166357	-0.508662	1.748847	1
H	-1.471607	-0.844532	-1.231093	1
H	-0.698577	1.282218	0.872337	1
H	-0.683537	1.496868	-0.859473	1
H	1.319073	0.389548	1.979817	1
H	2.768033	-0.094392	0.939197	1
H	2.630423	-0.247342	-1.409783	1
Es	1.118476	-0.072220	-2.085286	99
Es	-1.568604	-0.867169	0.346907	99
Es	1.457810	0.330041	1.659644	99
Es	0.677633	0.310782	-2.438237	99
Es	-2.046530	-0.455474	0.185662	99
Es	1.725934	0.204872	0.989481	99
Es	0.972426	0.219078	-2.483978	99
Es	-2.630166	-1.483242	0.619132	99
Es	0.955069	0.335532	-0.102814	99
Es	-2.182791	-0.912736	0.742050	99
Es	-1.447668	-0.699175	-0.906867	99
Es	2.300089	-0.144156	-1.401200	99
Es	0.240660	0.536852	-0.090742	99
Es	-2.174569	-0.639411	1.428899	99
Es	1.576715	0.078314	-1.427539	99
Es	-0.610312	1.244494	-0.598382	99
Es	1.145030	0.155252	-2.734871	99
Es	1.259602	0.202716	-0.758186	99
Es	-0.621971	1.103687	0.578539	99
Es	-1.419626	-0.405193	-0.235266	99
Es	2.428116	0.002573	0.953493	99
Es	-0.936630	0.175640	-0.148443	99
Es	1.263258	-0.038653	0.424775	99
Es	-0.484906	0.761205	-0.070355	99
Es	1.265919	0.408878	-2.105503	99
Es	1.437523	0.572084	0.373708	99
41
Properties=species:S:1:pos:R:3:Z:I:1 energy=-306.7882736082675 field_type=dipole dipole="0.000000 0.000000 0.000000" charge=0
C	-2.182737	-0.912702	0.741977	6
C	-1.419717	-0.405272	-0.235203	6
C	-0.484957	0.761268	-0.070353	6
C	0.955103	0.335528	-0.102713	6
C	1.725873	0.204878	0.989397	6
C	1.576733	0.078308	-1.427563	6
O	0.972313	0.219098	-2.484303	8
H	-2.840067	-1.754812	0.548917	1
H	-2.166357	-0.508662	1.748847	1
H	-1.471607	-0.844532	-1.231093	1
H	-0.698577	1.282218	0.872337	1
H	-0.683537	1.496868	-0.859473	1
H	1.319073	0.389548	1.979817	1
H	2.768033	-0.094392	0.939197	1
H	2.630423	-0.247342	-1.409783	1
Es	-0.936255	0.175533	-0.148280	99
Es	-2.182801	-0.912730	0.742053	99
Es	-0.622126	1.103706	0.578502	99
Es	-0.610461	1.244424	-0.598584	99
Es	1.437472	0.571928	0.373810	99
Es	0.955066	0.335534	-0.102814	99
Es	-1.447705	-0.699185	-0.906861	99
Es	-2.174479	-0.639463	1.428905	99
Es	-1.568692	-0.867149	0.346782	99
Es	0.972462	0.219066	-2.484045	99
Es	1.725930	0.204864	0.989478	99
Es	1.265889	0.408824	-2.106762	99
Es	1.119336	-0.071763	-2.084445	99
Es	-2.630156	-1.483223	0.619191	99
Es	1.259634	0.202787	-0.758277	99
Es	2.428141	0.002537	0.953501	99
Es	1.263203	-0.038713	0.424748	99
Es	1.576710	0.078315	-1.427548	99
Es	-0.484911	0.761205	-0.070354	99
Es	2.300086	-0.144231	-1.401244	99
Es	0.240780	0.537028	-0.090571	99
Es	-1.419624	-0.405191	-0.235267	99
Es	1.457797	0.330159	1.659626	99
Es	0.677164	0.310986	-2.437645	99
Es	1.144626	0.154758	-2.734945	99
Es	-2.046597	-0.455436	0.185668	99
41
Properties=species:S:1:pos:R:3:Z:I:1 energy=-306.7882736082675 field_type=dipole dipole="0.000000 0.000000 0.000000" charge=0
C	-2.182737	-0.912702	0.741977	6
C	-1.419717	-0.405272	-0.235203	6
C	-0.484957	0.761268	-0.070353	6
C	0.955103	0.335528	-0.102713	6
C	1.725873	0.204878	0.989397	6
C	1.576733	0.078308	-1.427563	6
O	0.972313	0.219098	-2.484303	8
H	-2.840067	-1.754812	0.548917	1
H	-2.166357	-0.508662	1.748847	1
H	-1.471607	-0.844532	-1.231093	1
H	-0.698577	1.282218	0.872337	1
H	-0.683537	1.496868	-0.859473	1
H	1.319073	0.389548	1.979817	1
H	2.768033	-0.094392	0.939197	1
H	2.630423	-0.247342	-1.409783	1
Es	-0.484912	0.761200	-0.070354	99
Es	1.259536	0.202650	-0.758162	99
Es	-2.174532	-0.639419	1.428897	99
Es	-2.630218	-1.483234	0.619114	99
Es	0.240602	0.537068	-0.090543	99
Es	-1.447747	-0.699232	-0.906889	99
Es	2.428143	0.002454	0.953425	99
Es	-2.046399	-0.455488	0.185736	99
Es	0.972433	0.219071	-2.484006	99
Es	1.145187	0.155152	-2.734530	99
Es	-1.568761	-0.867095	0.346821	99
Es	1.437616	0.571783	0.373533	99
Es	1.265850	0.408982	-2.105568	99
Es	1.457861	0.330233	1.659649	99
Es	-1.419626	-0.405195	-0.235268	99
Es	-0.936318	0.175583	-0.148294	99
Es	0.677637	0.310830	-2.438656	99
Es	-2.182788	-0.912729	0.742046	99
Es	1.576712	0.078314	-1.427543	99
Es	1.725935	0.204865	0.989476	99
Es	-0.610372	1.244480	-0.598576	99
Es	1.118385	-0.072236	-2.085105	99
Es	-0.622064	1.103700	0.578519	99
Es	1.263140	-0.038551	0.424936	99
Es	2.300100	-0.144165	-1.401231	99
Es	0.955091	0.335551	-0.102809	99
41
Properties=species:S:1:pos:R:3:Z:I:1 energy=-306.7882736082675 field_type=dipole dipole="0.000000 0.000000 0.000000" charge=0
C	-2.182737	-0.912702	0.741977	6
C	-1.419717	-0.405272	-0.235203	6
C	-0.484957	0.761268	-0.070353	6
C	0.955103	0.335528	-0.102713	6
C	1.725873	0.204878	0.989397	6
C	1.576733	0.078308	-1.427563	6
O	0.972313	0.219098	-2.484303	8
H	-2.840067	-1.754812	0.548917	1
H	-2.166357	-0.508662	1.748847	1
H	-1.471607	-0.844532	-1.231093	1
H	-0.698577	1.282218	0.872337	1
H	-0.683537	1.496868	-0.859473	1
H	1.319073	0.389548	1.979817	1
H	2.768033	-0.094392	0.939197	1
H	2.630423	-0.247342	-1.409783	1
Es	-0.610442	1.244457	-0.598646	99
Es	-2.630252	-1.483214	0.619130	99
Es	-1.419625	-0.405192	-0.235262	99
Es	-2.182790	-0.912734	0.742050	99
Es	0.955069	0.335531	-0.102812	99
Es	1.263277	-0.038542	0.424763	99
Es	-0.936312	0.175652	-0.148109	99
Es	1.259621	0.202753	-0.758123	99
Es	-1.568774	-0.867108	0.346768	99
Es	2.300113	-0.144171	-1.401258	99
Es	0.240588	0.536992	-0.090534	99
Es	1.457784	0.330188	1.659643	99
Es	0.972429	0.219072	-2.483993	99
Es	1.725930	0.204867	0.989474	99
Es	-1.447655	-0.699222	-0.906880	99
Es	1.117761	-0.072011	-2.084857	99
Es	1.146799	0.154930	-2.733560	99
Es	0.677451	0.310627	-2.440488	99
Es	-0.622078	1.103713	0.578449	99
Es	1.265035	0.409153	-2.104960	99
Es	1.576713	0.078315	-1.427541	99
Es	-2.174537	-0.639377	1.428884	99
Es	-0.484909	0.761207	-0.070353	99
Es	2.428180	0.002541	0.953446	99
Es	1.437513	0.571764	0.373718	99
Es	-2.046400	-0.455619	0.185673	99
41
Properties=species:S:1:pos:R:3:Z:I:1 energy=-306.7882736082675 field_type=dipole dipole="0.000000 0.000000 0.000000" charge=0
C	-2.182737	-0.912702	0.741977	6
C	-1.419717	-0.405272	-0.235203	6
C	-0.484957	0.761268	-0.070353	6
C	0.955103	0.335528	-0.102713	6
C	1.725873	0.204878	0.989397	6
C	1.576733	0.078308	-1.427563	6
O	0.972313	0.219098	-2.484303	8
H	-2.840067	-1.754812	0.548917	1
H	-2.166357	-0.508662	1.748847	1
H	-1.471607	-0.844532	-1.231093	1
H	-0.698577	1.282218	0.872337	1
H	-0.683537	1.496868	-0.859473	1
H	1.319073	0.389548	1.979817	1
H	2.768033	-0.094392	0.939197	1
H	2.630423	-0.247342	-1.409783	1
Es	1.725929	0.204868	0.989474	99
Es	-2.174571	-0.639330	1.428927	99
Es	1.118046	-0.072510	-2.085355	99
Es	1.576712	0.078313	-1.427540	99
Es	1.457788	0.330169	1.659652	99
Es	2.428199	0.002517	0.953413	99
Es	2.300112	-0.144165	-1.401270	99
Es	0.678006	0.311344	-2.438026	99
Es	-2.046183	-0.455689	0.185832	99
Es	0.955072	0.335530	-0.102802	99
Es	1.259660	0.202770	-0.758081	99
Es	0.240482	0.536885	-0.090406	99
Es	-2.630278	-1.483173	0.619075	99
Es	-1.447880	-0.699218	-0.906930	99
Es	-0.936296	0.175650	-0.148253	99
Es	1.263319	-0.038452	0.424723	99
Es	-0.622146	1.103736	0.578424	99
Es	-0.610240	1.244481	-0.598637	99
Es	0.972494	0.219054	-2.484014	99
Es	-0.484906	0.761206	-0.070352	99
Es	1.437486	0.571723	0.373734	99
Es	-1.419624	-0.405190	-0.235268	99
Es	-2.182790	-0.912735	0.742051	99
Es	1.266489	0.408633	-2.105576	99
Es	1.144428	0.155242	-2.734883	99
Es	-1.568819	-0.867086	0.346710	99
41
Properties=species:S:1:pos:R:3:Z:I:1 energy=-306.7882736082675 field_type=dipole dipole="0.000000 0.000000 0.000000" charge=0
C	-2.182737	-0.912702	0.741977	6
C	-1.419717	-0.405272	-0.235203	6
C	-0.484957	0.761268	-0.070353	6
C	0.955103	0.335528	-0.102713	6
C	1.725873	0.204878	0.989397	6
C	1.576733	0.078308	-1.427563	6
O	0.972313	0.219098	-2.484303	8
H	-2.840067	-1.754812	0.548917	1
H	-2.166357	-0.508662	1.748847	1
H	-1.471607	-0.844532	-1.231093	1
H	-0.698577	1.282218	0.872337	1
H	-0.683537	1.496868	-0.859473	1
H	1.319073	0.389548	1.979817	1
H	2.768033	-0.094392	0.939197	1
H	2.630423	-0.247342	-1.409783	1
Es	0.240474	0.536939	-0.090502	99
Es	1.263402	-0.038411	0.424648	99
Es	-2.630270	-1.483231	0.619110	99
Es	-1.419626	-0.405194	-0.235264	99
Es	-2.046143	-0.455741	0.185761	99
Es	1.725926	0.204862	0.989473	99
Es	2.300135	-0.144160	-1.401258	99
Es	-0.936303	0.175727	-0.148247	99
Es	-1.568893	-0.867035	0.346735	99
Es	1.265438	0.409154	-2.105305	99
Es	-0.622104	1.103699	0.578467	99
Es	1.259610	0.202777	-0.758072	99
Es	-2.182794	-0.912729	0.742048	99
Es	1.118466	-0.072330	-2.085178	99
Es	-2.174529	-0.639325	1.428898	99
Es	-1.447846	-0.699278	-0.906902	99
Es	0.972433	0.219065	-2.484063	99
Es	1.145822	0.155361	-2.733732	99
Es	0.677333	0.310533	-2.439589	99
Es	0.955069	0.335529	-0.102808	99
Es	-0.610345	1.244474	-0.598564	99
Es	1.437476	0.571618	0.373779	99
Es	-0.484908	0.761208	-0.070354	99
Es	1.457720	0.330200	1.659655	99
Es	1.576713	0.078311	-1.427540	99
Es	2.428232	0.002550	0.953423	99
