38
Properties=species:S:1:pos:R:3:Z:I:1 energy=-305.57888878214976 field_type=dipole dipole="0.000000 0.000000 0.000000" charge=0
C	-2.649640	-0.636629	0.002980	6
C	-1.156440	-0.608259	0.003580	6
C	-0.450610	0.530931	-0.002710	6
C	0.955390	0.530931	-0.002710	6
C	2.145550	0.530931	-0.002710	6
C	3.585360	0.543861	-0.002710	6
O	4.206160	1.596891	-0.002720	8
H	-3.002630	-1.672619	-0.019980	1
H	-3.050780	-0.127699	-0.878920	1
H	-3.049050	-0.167079	0.907150	1
H	-0.647070	-1.569289	0.009020	1
H	-0.958230	1.491921	-0.007550	1
H	4.071990	-0.443889	-0.002720	1
Es	-2.649578	-0.636631	0.002981	99
Es	-1.898183	-0.621251	0.003031	99
Es	1.547841	0.875327	0.079734	99
Es	-1.156521	-0.608333	0.003582	99
Es	0.275899	0.536549	-0.003154	99
Es	4.514743	1.547916	-0.003092	99
Es	0.955143	0.530923	-0.002713	99
Es	4.022475	1.845979	-0.003302	99
Es	-0.734572	0.005310	0.318333	99
Es	-2.902814	-0.316281	0.608226	99
Es	3.904006	-0.130038	-0.002703	99
Es	-2.885217	-1.338983	-0.012366	99
Es	1.587339	0.267388	0.242293	99
Es	-2.904834	-0.289481	-0.587258	99
Es	3.967259	1.204156	0.248993	99
Es	3.585232	0.543843	-0.002711	99
Es	4.205980	1.596593	-0.002724	99
Es	-0.450458	0.531012	-0.002697	99
Es	-0.779398	1.176514	-0.006110	99
Es	2.145806	0.530924	-0.002707	99
Es	-0.817264	-1.257290	0.007508	99
Es	1.630591	0.424492	-0.332219	99
Es	-0.734421	0.001555	-0.318047	99
Es	3.967050	1.203582	-0.253390	99
Es	2.832544	0.524972	-0.000359	99
38
Properties=species:S:1:pos:R:3:Z:I:1 energy=-305.57888878214976 field_type=dipole dipole="0.000000 0.000000 0.000000" charge=0
C	-2.649640	-0.636629	0.002980	6
C	-1.156440	-0.608259	0.003580	6
C	-0.450610	0.530931	-0.002710	6
C	0.955390	0.530931	-0.002710	6
C	2.145550	0.530931	-0.002710	6
C	3.585360	0.543861	-0.002710	6
O	4.206160	1.596891	-0.002720	8
H	-3.002630	-1.672619	-0.019980	1
H	-3.050780	-0.127699	-0.878920	1
H	-3.049050	-0.167079	0.907150	1
H	-0.647070	-1.569289	0.009020	1
H	-0.958230	1.491921	-0.007550	1
H	4.071990	-0.443889	-0.002720	1
Es	3.967562	1.203544	0.248233	99
Es	-1.898193	-0.621105	0.003069	99
Es	3.967670	1.203452	-0.253912	99
Es	1.637262	0.564941	0.336752	99
Es	4.515332	1.549765	-0.002635	99
Es	-0.734535	0.005178	0.318261	99
Es	0.955144	0.530934	-0.002707	99
Es	4.021010	1.844647	-0.002650	99
Es	-2.904802	-0.289390	-0.587152	99
Es	-0.450455	0.531008	-0.002706	99
Es	3.904030	-0.130025	-0.002769	99
Es	4.206000	1.596617	-0.002720	99
Es	1.553742	0.188751	-0.133726	99
Es	-2.885232	-1.338956	-0.012557	99
Es	-0.734416	0.001280	-0.318267	99
Es	-2.649580	-0.636631	0.002982	99
Es	2.145795	0.530911	-0.002718	99
Es	-2.902936	-0.316410	0.608227	99
Es	-0.817348	-1.257245	0.007359	99
Es	-0.779169	1.176546	-0.006150	99
Es	1.574581	0.814995	-0.208252	99
Es	2.832551	0.523073	-0.005890	99
Es	3.585230	0.543844	-0.002710	99
Es	0.275925	0.537355	-0.001813	99
Es	-1.156521	-0.608333	0.003582	99
38
Properties=species:S:1:pos:R:3:Z:I:1 energy=-305.57888878214976 field_type=dipole dipole="0.000000 0.000000 0.000000" charge=0
C	-2.649640	-0.636629	0.002980	6
C	-1.156440	-0.608259	0.003580	6
C	-0.450610	0.530931	-0.002710	6
C	0.955390	0.530931	-0.002710	6
C	2.145550	0.530931	-0.002710	6
C	3.585360	0.543861	-0.002710	6
O	4.206160	1.596891	-0.002720	8
H	-3.002630	-1.672619	-0.019980	1
H	-3.050780	-0.127699	-0.878920	1
H	-3.049050	-0.167079	0.907150	1
H	-0.647070	-1.569289	0.009020	1
H	-0.958230	1.491921	-0.007550	1
H	4.071990	-0.443889	-0.002720	1
Es	1.638301	0.535659	-0.344939	99
Es	-0.734379	0.005141	0.318246	99
Es	1.567670	0.831468	0.179191	99
Es	-1.156522	-0.608332	0.003581	99
Es	0.955144	0.530930	-0.002717	99
Es	-0.450457	0.531009	-0.002708	99
Es	-2.902995	-0.316191	0.608226	99
Es	0.275756	0.537159	-0.003405	99
Es	-2.885228	-1.339019	-0.012489	99
Es	-0.734463	0.001227	-0.317912	99
Es	4.206009	1.596598	-0.002722	99
Es	4.021905	1.845793	-0.001524	99
Es	3.904043	-0.130015	-0.002550	99
Es	-0.817109	-1.257277	0.007512	99
Es	3.585231	0.543844	-0.002707	99
Es	3.966719	1.204249	-0.254074	99
Es	3.968373	1.202938	0.248369	99
Es	-0.779278	1.176669	-0.006108	99
Es	1.559742	0.201240	0.154856	99
Es	-2.904694	-0.289557	-0.587167	99
Es	2.145804	0.530917	-0.002701	99
Es	4.514512	1.548580	-0.003681	99
Es	2.832457	0.523459	0.000501	99
Es	-1.898315	-0.621110	0.003073	99
Es	-2.649580	-0.636631	0.002980	99
38
Properties=species:S:1:pos:R:3:Z:I:1 energy=-305.57888878214976 field_type=dipole dipole="0.000000 0.000000 0.000000" charge=0
C	-2.649640	-0.636629	0.002980	6
C	-1.156440	-0.608259	0.003580	6
C	-0.450610	0.530931	-0.002710	6
C	0.955390	0.530931	-0.002710	6
C	2.145550	0.530931	-0.002710	6
C	3.585360	0.543861	-0.002710	6
O	4.206160	1.596891	-0.002720	8
H	-3.002630	-1.672619	-0.019980	1
H	-3.050780	-0.127699	-0.878920	1
H	-3.049050	-0.167079	0.907150	1
H	-0.647070	-1.569289	0.009020	1
H	-0.958230	1.491921	-0.007550	1
H	4.071990	-0.443889	-0.002720	1
Es	0.955137	0.530908	-0.002715	99
Es	-2.649580	-0.636631	0.002980	99
Es	2.832495	0.522234	-0.000522	99
Es	4.515020	1.549894	-0.003406	99
Es	-0.734175	0.001256	-0.318095	99
Es	4.206012	1.596630	-0.002725	99
Es	-0.734516	0.004776	0.318150	99
Es	2.145805	0.530918	-0.002704	99
Es	-2.902893	-0.316340	0.608181	99
Es	1.545383	0.171539	0.076295	99
Es	1.590010	0.774300	0.245721	99
Es	-0.450457	0.531010	-0.002708	99
Es	-1.156521	-0.608334	0.003583	99
Es	4.021138	1.844626	-0.002727	99
Es	-1.898333	-0.621133	0.003155	99
Es	-2.904806	-0.289383	-0.587197	99
Es	0.275751	0.537794	-0.003107	99
Es	3.968081	1.203418	0.248927	99
Es	-0.779260	1.176674	-0.005972	99
Es	1.630121	0.623520	-0.332016	99
Es	3.967293	1.203479	-0.253559	99
Es	-2.885270	-1.338971	-0.012472	99
Es	3.585231	0.543846	-0.002712	99
Es	-0.817094	-1.257239	0.007475	99
Es	3.904075	-0.130045	-0.002700	99
38
Properties=species:S:1:pos:R:3:Z:I:1 energy=-305.57888878214976 field_type=dipole dipole="0.000000 0.000000 0.000000" charge=0
C	-2.649640	-0.636629	0.002980	6
C	-1.156440	-0.608259	0.003580	6
C	-0.450610	0.530931	-0.002710	6
C	0.955390	0.530931	-0.002710	6
C	2.145550	0.530931	-0.002710	6
C	3.585360	0.543861	-0.002710	6
O	4.206160	1.596891	-0.002720	8
H	-3.002630	-1.672619	-0.019980	1
H	-3.050780	-0.127699	-0.878920	1
H	-3.049050	-0.167079	0.907150	1
H	-0.647070	-1.569289	0.009020	1
H	-0.958230	1.491921	-0.007550	1
H	4.071990	-0.443889	-0.002720	1
Es	3.585232	0.543848	-0.002710	99
Es	4.514633	1.546933	-0.002556	99
Es	1.556495	0.194617	-0.146472	99
Es	2.145800	0.530917	-0.002720	99
Es	-0.816951	-1.257243	0.007368	99
Es	0.275603	0.537254	-0.001861	99
Es	-2.904705	-0.289296	-0.587051	99
Es	4.206036	1.596610	-0.002721	99
Es	-0.779181	1.176708	-0.006162	99
Es	0.955147	0.530921	-0.002709	99
Es	1.571511	0.822420	-0.197786	99
Es	-2.885463	-1.339017	-0.012567	99
Es	4.023841	1.846169	-0.003157	99
Es	-0.734468	0.004905	0.318140	99
Es	-0.450456	0.531010	-0.002708	99
Es	-1.156520	-0.608333	0.003574	99
Es	-2.649578	-0.636629	0.002980	99
Es	-1.898480	-0.621281	0.002955	99
Es	1.637712	0.551591	0.338970	99
Es	3.904064	-0.130098	-0.002807	99
Es	3.966206	1.204447	0.248767	99
Es	-0.734298	0.001192	-0.317987	99
Es	-2.902736	-0.316226	0.608296	99
Es	2.832445	0.523255	-0.005959	99
Es	3.966758	1.204072	-0.253984	99
38
Properties=species:S:1:pos:R:3:Z:I:1 energy=-305.57888878214976 field_type=dipole dipole="0.000000 0.000000 0.000000" charge=0
C	-2.649640	-0.636629	0.002980	6
C	-1.156440	-0.608259	0.003580	6
C	-0.450610	0.530931	-0.002710	6
C	0.955390	0.530931	-0.002710	6
C	2.145550	0.530931	-0.002710	6
C	3.585360	0.543861	-0.002710	6
O	4.206160	1.596891	-0.002720	8
H	-3.002630	-1.672619	-0.019980	1
H	-3.050780	-0.127699	-0.878920	1
H	-3.049050	-0.167079	0.907150	1
H	-0.647070	-1.569289	0.009020	1
H	-0.958230	1.491921	-0.007550	1
H	4.071990	-0.443889	-0.002720	1
Es	-0.450456	0.531009	-0.002702	99
Es	-1.898461	-0.621088	0.003240	99
Es	1.627727	0.409824	0.324497	99
Es	-2.885302	-1.338993	-0.012300	99
Es	3.904073	-0.130143	-0.002755	99
Es	1.591983	0.279866	-0.258228	99
Es	-0.816928	-1.257245	0.007383	99
Es	-0.734351	0.004957	0.318025	99
Es	0.275449	0.536131	-0.002197	99
Es	4.206011	1.596555	-0.002720	99
Es	3.585231	0.543845	-0.002710	99
Es	-2.649580	-0.636631	0.002980	99
Es	1.546435	0.877535	-0.072605	99
Es	4.515718	1.552157	-0.003235	99
Es	-2.904662	-0.289593	-0.587317	99
Es	-2.903024	-0.316069	0.608044	99
Es	3.968075	1.203150	0.248702	99
Es	2.832286	0.525376	-0.004739	99
Es	0.955149	0.530914	-0.002705	99
Es	3.967608	1.203945	-0.254078	99
Es	-1.156519	-0.608333	0.003575	99
Es	2.145793	0.530924	-0.002719	99
Es	4.019971	1.842709	-0.002322	99
Es	-0.779251	1.176736	-0.006146	99
Es	-0.734328	0.001209	-0.317836	99
38
Properties=species:S:1:pos:R:3:Z:I:1 energy=-305.57888878214976 field_type=dipole dipole="0.000000 0.000000 0.000000" charge=0
C	-2.649640	-0.636629	0.002980	6
C	-1.156440	-0.608259	0.003580	6
C	-0.450610	0.530931	-0.002710	6
C	0.955390	0.530931	-0.002710	6
C	2.145550	0.530931	-0.002710	6
C	3.585360	0.543861	-0.002710	6
O	4.206160	1.596891	-0.002720	8
H	-3.002630	-1.672619	-0.019980	1
H	-3.050780	-0.127699	-0.878920	1
H	-3.049050	-0.167079	0.907150	1
H	-0.647070	-1.569289	0.009020	1
H	-0.958230	1.491921	-0.007550	1
H	4.071990	-0.443889	-0.002720	1
Es	3.904084	-0.130178	-0.002607	99
Es	-2.904703	-0.289350	-0.587187	99
Es	1.542983	0.884159	-0.020269	99
Es	4.205970	1.596618	-0.002720	99
Es	4.022937	1.846264	-0.003016	99
Es	3.966673	1.204002	0.248345	99
Es	-1.156521	-0.608332	0.003580	99
Es	-2.885289	-1.338969	-0.012567	99
Es	3.585231	0.543847	-0.002708	99
Es	-0.816893	-1.257245	0.007412	99
Es	-1.898568	-0.621017	0.003192	99
Es	2.145798	0.530917	-0.002715	99
Es	1.606781	0.324549	-0.291659	99
Es	-0.450459	0.531005	-0.002701	99
Es	-2.649580	-0.636631	0.002979	99
Es	-0.779264	1.176781	-0.006106	99
Es	0.955140	0.530927	-0.002709	99
Es	3.967681	1.203966	-0.254299	99
Es	2.832258	0.525677	-0.003224	99
Es	-2.902992	-0.316305	0.608206	99
Es	4.514067	1.547763	-0.002087	99
Es	0.275350	0.535812	-0.002452	99
Es	1.616502	0.358485	0.304288	99
Es	-0.734353	0.004849	0.317901	99
Es	-0.734186	0.001153	-0.317746	99
38
Properties=species:S:1:pos:R:3:Z:I:1 energy=-305.57888878214976 field_type=dipole dipole="0.000000 0.000000 0.000000" charge=0
C	-2.649640	-0.636629	0.002980	6
C	-1.156440	-0.608259	0.003580	6
C	-0.450610	0.530931	-0.002710	6
C	0.955390	0.530931	-0.002710	6
C	2.145550	0.530931	-0.002710	6
C	3.585360	0.543861	-0.002710	6
O	4.206160	1.596891	-0.002720	8
H	-3.002630	-1.672619	-0.019980	1
H	-3.050780	-0.127699	-0.878920	1
H	-3.049050	-0.167079	0.907150	1
H	-0.647070	-1.569289	0.009020	1
H	-0.958230	1.491921	-0.007550	1
H	4.071990	-0.443889	-0.002720	1
Es	-1.898576	-0.620946	0.003201	99
Es	3.904058	-0.130190	-0.002662	99
Es	0.275300	0.535897	-0.002998	99
Es	-0.734476	0.004691	0.317822	99
Es	-1.156520	-0.608331	0.003582	99
Es	-2.649582	-0.636631	0.002979	99
Es	-2.885351	-1.339070	-0.012477	99
Es	-0.734020	0.001168	-0.317786	99
Es	-0.450455	0.531010	-0.002708	99
Es	2.145792	0.530919	-0.002711	99
Es	1.627174	0.407285	-0.328975	99
Es	0.955145	0.530920	-0.002713	99
Es	4.514462	1.549440	-0.002945	99
Es	1.592936	0.282082	0.254884	99
Es	-0.816833	-1.257238	0.007444	99
Es	-0.779245	1.176817	-0.006062	99
Es	-2.902882	-0.316291	0.608096	99
Es	1.546128	0.878054	0.064418	99
Es	3.585233	0.543847	-0.002715	99
Es	4.206053	1.596484	-0.002720	99
Es	-2.904780	-0.289314	-0.587123	99
Es	3.967445	1.203692	-0.253802	99
Es	3.967709	1.203804	0.248728	99
Es	2.832255	0.525459	-0.000787	99
Es	4.021678	1.845186	-0.002839	99
38
Properties=species:S:1:pos:R:3:Z:I:1 energy=-305.57888878214976 field_type=dipole dipole="0.000000 0.000000 0.000000" charge=0
C	-2.649640	-0.636629	0.002980	6
C	-1.156440	-0.608259	0.003580	6
C	-0.450610	0.530931	-0.002710	6
C	0.955390	0.530931	-0.002710	6
C	2.145550	0.530931	-0.002710	6
C	3.585360	0.543861	-0.002710	6
O	4.206160	1.596891	-0.002720	8
H	-3.002630	-1.672619	-0.019980	1
H	-3.050780	-0.127699	-0.878920	1
H	-3.049050	-0.167079	0.907150	1
H	-0.647070	-1.569289	0.009020	1
H	-0.958230	1.491921	-0.007550	1
H	4.071990	-0.443889	-0.002720	1
Es	1.562655	0.842479	-0.164592	99
Es	3.967593	1.203759	0.248843	99
Es	4.513352	1.546918	-0.003364	99
Es	-0.450462	0.531000	-0.002709	99
Es	3.966374	1.204325	-0.254544	99
Es	-2.904784	-0.289386	-0.587110	99
Es	-1.156521	-0.608332	0.003581	99
Es	-0.779266	1.176835	-0.006138	99
Es	-1.898652	-0.620983	0.003060	99
Es	-0.734044	0.000928	-0.317770	99
Es	0.955147	0.530926	-0.002705	99
Es	-2.902914	-0.316220	0.608163	99
Es	-0.816763	-1.257171	0.007439	99
Es	2.145788	0.530920	-0.002743	99
Es	1.565865	0.215161	-0.182855	99
Es	4.206035	1.596696	-0.002707	99
Es	3.585232	0.543847	-0.002713	99
Es	-0.734295	0.004644	0.317768	99
Es	2.832323	0.524083	-0.005745	99
Es	3.904096	-0.130183	-0.002841	99
Es	-2.649580	-0.636631	0.002981	99
Es	-2.885336	-1.339024	-0.012484	99
Es	4.024007	1.846798	-0.001811	99
Es	0.275385	0.536837	-0.001576	99
Es	1.637411	0.510519	0.341705	99
38
Properties=species:S:1:pos:R:3:Z:I:1 energy=-305.57888878214976 field_type=dipole dipole="0.000000 0.000000 0.000000" charge=0
C	-2.649640	-0.636629	0.002980	6
C	-1.156440	-0.608259	0.003580	6
C	-0.450610	0.530931	-0.002710	6
C	0.955390	0.530931	-0.002710	6
C	2.145550	0.530931	-0.002710	6
C	3.585360	0.543861	-0.002710	6
O	4.206160	1.596891	-0.002720	8
H	-3.002630	-1.672619	-0.019980	1
H	-3.050780	-0.127699	-0.878920	1
H	-3.049050	-0.167079	0.907150	1
H	-0.647070	-1.569289	0.009020	1
H	-0.958230	1.491921	-0.007550	1
H	4.071990	-0.443889	-0.002720	1
Es	-0.734303	0.000629	-0.317495	99
Es	0.955150	0.530934	-0.002709	99
Es	1.598259	0.750661	-0.270364	99
Es	-0.450460	0.531004	-0.002711	99
Es	2.832445	0.522207	-0.004226	99
Es	3.967378	1.204165	0.248767	99
Es	-1.156527	-0.608334	0.003583	99
Es	4.513992	1.547677	-0.002996	99
Es	4.023115	1.846262	-0.002775	99
Es	3.966917	1.203563	-0.253846	99
Es	-1.898743	-0.621022	0.003103	99
Es	-2.885332	-1.339011	-0.012508	99
Es	-0.816635	-1.257153	0.007271	99
Es	-0.733865	0.004609	0.317804	99
Es	-2.904751	-0.289357	-0.587139	99
Es	3.904111	-0.130211	-0.002758	99
Es	-2.902922	-0.316212	0.608193	99
Es	2.145795	0.530915	-0.002715	99
Es	-2.649580	-0.636631	0.002981	99
Es	3.585231	0.543846	-0.002711	99
Es	4.206033	1.596635	-0.002733	99
Es	0.275472	0.538143	-0.002268	99
Es	-0.779356	1.176890	-0.006100	99
Es	1.542671	0.166728	-0.055561	99
Es	1.624554	0.651812	0.319044	99
