38
Properties=species:S:1:pos:R:3:Z:I:1 energy=-305.5928627425606 field_type=dipole dipole="0.000000 0.000000 0.000000" charge=0
C	-3.093369	-0.438038	-0.015772	6
C	-1.649369	-0.438038	-0.015772	6
C	-0.459209	-0.438038	-0.015772	6
C	0.946791	-0.438038	-0.015772	6
C	1.637421	0.706972	0.025788	6
C	3.110771	0.679441	0.024378	6
O	3.767141	1.712302	0.061958	8
H	-3.487369	0.582842	-0.004082	1
H	-3.487439	-0.958568	0.862478	1
H	-3.487439	-0.938318	-0.905712	1
H	1.446861	-1.401409	-0.050952	1
H	1.170361	1.684251	0.061428	1
H	3.584851	-0.315359	-0.012192	1
Es	-0.458945	-0.438039	-0.015774	99
Es	3.766961	1.712033	0.061943	99
Es	0.227324	-0.447203	-0.015896	99
Es	-1.002825	-0.240999	-0.312619	99
Es	3.423125	-0.010115	-0.001017	99
Es	1.319167	0.158653	-0.308954	99
Es	-3.093248	-0.438039	-0.015772	99
Es	1.319270	0.135744	0.319869	99
Es	1.273550	-1.080423	-0.039254	99
Es	3.522723	1.321031	0.298403	99
Es	1.637491	0.706991	0.025789	99
Es	-3.335005	-0.771835	-0.609371	99
Es	-3.338479	0.243672	-0.007973	99
Es	-1.051774	-0.799652	-0.029946	99
Es	1.325807	1.356335	0.049467	99
Es	3.522904	1.339474	-0.202720	99
Es	3.110735	0.679431	0.024370	99
Es	4.077993	1.665546	0.060545	99
Es	0.946644	-0.438137	-0.015762	99
Es	2.363699	0.683077	0.024850	99
Es	-1.002480	-0.265210	0.295396	99
Es	3.582168	1.963057	0.071234	99
Es	-3.334804	-0.785259	0.570010	99
Es	-1.649641	-0.438032	-0.015776	99
Es	-2.346792	-0.436932	-0.015741	99
38
Properties=species:S:1:pos:R:3:Z:I:1 energy=-305.5928627425606 field_type=dipole dipole="0.000000 0.000000 0.000000" charge=0
C	-3.093369	-0.438038	-0.015772	6
C	-1.649369	-0.438038	-0.015772	6
C	-0.459209	-0.438038	-0.015772	6
C	0.946791	-0.438038	-0.015772	6
C	1.637421	0.706972	0.025788	6
C	3.110771	0.679441	0.024378	6
O	3.767141	1.712302	0.061958	8
H	-3.487369	0.582842	-0.004082	1
H	-3.487439	-0.958568	0.862478	1
H	-3.487439	-0.938318	-0.905712	1
H	1.446861	-1.401409	-0.050952	1
H	1.170361	1.684251	0.061428	1
H	3.584851	-0.315359	-0.012192	1
Es	3.110740	0.679435	0.024379	99
Es	-3.334834	-0.785411	0.570038	99
Es	0.946644	-0.438138	-0.015776	99
Es	-1.050596	-0.794375	-0.078272	99
Es	1.325874	1.356369	0.049502	99
Es	1.319234	0.158587	-0.308962	99
Es	0.227313	-0.447045	-0.016785	99
Es	3.423125	-0.010109	-0.001054	99
Es	-0.458945	-0.438045	-0.015780	99
Es	1.319369	0.135748	0.319951	99
Es	-2.346814	-0.436919	-0.015623	99
Es	3.582461	1.963916	0.071612	99
Es	-1.649639	-0.438042	-0.015780	99
Es	-3.338379	0.243588	-0.007803	99
Es	-1.011171	-0.200590	-0.283003	99
Es	3.522213	1.339271	-0.202149	99
Es	3.767013	1.711995	0.061948	99
Es	3.523828	1.320932	0.299026	99
Es	-3.093245	-0.438040	-0.015771	99
Es	2.363621	0.683056	0.024643	99
Es	1.637491	0.706993	0.025794	99
Es	-3.335045	-0.771639	-0.609527	99
Es	4.077243	1.665019	0.059115	99
Es	-0.995341	-0.310921	0.314855	99
Es	1.273408	-1.080465	-0.039280	99
38
Properties=species:S:1:pos:R:3:Z:I:1 energy=-305.5928627425606 field_type=dipole dipole="0.000000 0.000000 0.000000" charge=0
C	-3.093369	-0.438038	-0.015772	6
C	-1.649369	-0.438038	-0.015772	6
C	-0.459209	-0.438038	-0.015772	6
C	0.946791	-0.438038	-0.015772	6
C	1.637421	0.706972	0.025788	6
C	3.110771	0.679441	0.024378	6
O	3.767141	1.712302	0.061958	8
H	-3.487369	0.582842	-0.004082	1
H	-3.487439	-0.958568	0.862478	1
H	-3.487439	-0.938318	-0.905712	1
H	1.446861	-1.401409	-0.050952	1
H	1.170361	1.684251	0.061428	1
H	3.584851	-0.315359	-0.012192	1
Es	3.110741	0.679436	0.024374	99
Es	3.522906	1.339430	-0.202737	99
Es	0.227419	-0.447267	-0.016393	99
Es	-1.006568	-0.222025	-0.299902	99
Es	-0.458942	-0.438051	-0.015758	99
Es	0.946645	-0.438136	-0.015777	99
Es	-0.998940	-0.284961	0.303758	99
Es	3.523897	1.320328	0.298729	99
Es	-3.334805	-0.785126	0.570151	99
Es	3.581188	1.962278	0.071776	99
Es	4.077799	1.667097	0.059652	99
Es	1.637488	0.706990	0.025787	99
Es	-3.335042	-0.771954	-0.609357	99
Es	-3.338342	0.243754	-0.008109	99
Es	-2.346913	-0.437105	-0.015699	99
Es	1.325808	1.356375	0.049453	99
Es	1.319019	0.135709	0.319766	99
Es	1.319455	0.158724	-0.309022	99
Es	-3.093248	-0.438039	-0.015772	99
Es	-1.051596	-0.798708	-0.050590	99
Es	1.273512	-1.080518	-0.039145	99
Es	-1.649635	-0.438038	-0.015770	99
Es	3.423129	-0.010104	-0.000947	99
Es	2.363593	0.683081	0.024882	99
Es	3.767000	1.712001	0.061950	99
38
Properties=species:S:1:pos:R:3:Z:I:1 energy=-305.5928627425606 field_type=dipole dipole="0.000000 0.000000 0.000000" charge=0
C	-3.093369	-0.438038	-0.015772	6
C	-1.649369	-0.438038	-0.015772	6
C	-0.459209	-0.438038	-0.015772	6
C	0.946791	-0.438038	-0.015772	6
C	1.637421	0.706972	0.025788	6
C	3.110771	0.679441	0.024378	6
O	3.767141	1.712302	0.061958	8
H	-3.487369	0.582842	-0.004082	1
H	-3.487439	-0.958568	0.862478	1
H	-3.487439	-0.938318	-0.905712	1
H	1.446861	-1.401409	-0.050952	1
H	1.170361	1.684251	0.061428	1
H	3.584851	-0.315359	-0.012192	1
Es	2.363554	0.683112	0.024699	99
Es	1.319200	0.135656	0.319803	99
Es	0.946644	-0.438132	-0.015771	99
Es	3.766959	1.712025	0.061943	99
Es	1.319364	0.158734	-0.308986	99
Es	1.273502	-1.080518	-0.039245	99
Es	3.110741	0.679437	0.024378	99
Es	-3.335011	-0.771826	-0.609565	99
Es	-3.093246	-0.438038	-0.015772	99
Es	-2.347043	-0.437099	-0.015699	99
Es	1.325789	1.356387	0.049571	99
Es	3.523442	1.321295	0.299279	99
Es	-3.338236	0.243835	-0.007899	99
Es	3.423165	-0.010127	-0.000988	99
Es	-0.999788	-0.280329	0.302117	99
Es	1.637491	0.706990	0.025788	99
Es	-0.458944	-0.438045	-0.015770	99
Es	-3.334772	-0.785302	0.570120	99
Es	0.227380	-0.447220	-0.016254	99
Es	-1.005646	-0.226437	-0.302866	99
Es	3.522523	1.338952	-0.202469	99
Es	-1.649626	-0.438017	-0.015772	99
Es	4.077401	1.665736	0.059649	99
Es	-1.051695	-0.799051	-0.046089	99
Es	3.582418	1.963155	0.071098	99
38
Properties=species:S:1:pos:R:3:Z:I:1 energy=-305.5928627425606 field_type=dipole dipole="0.000000 0.000000 0.000000" charge=0
C	-3.093369	-0.438038	-0.015772	6
C	-1.649369	-0.438038	-0.015772	6
C	-0.459209	-0.438038	-0.015772	6
C	0.946791	-0.438038	-0.015772	6
C	1.637421	0.706972	0.025788	6
C	3.110771	0.679441	0.024378	6
O	3.767141	1.712302	0.061958	8
H	-3.487369	0.582842	-0.004082	1
H	-3.487439	-0.958568	0.862478	1
H	-3.487439	-0.938318	-0.905712	1
H	1.446861	-1.401409	-0.050952	1
H	1.170361	1.684251	0.061428	1
H	3.584851	-0.315359	-0.012192	1
Es	1.325730	1.356342	0.049553	99
Es	1.273671	-1.080589	-0.039242	99
Es	3.110739	0.679435	0.024379	99
Es	1.319288	0.135759	0.319716	99
Es	-3.093246	-0.438040	-0.015771	99
Es	3.523689	1.321109	0.299415	99
Es	-1.001283	-0.249093	-0.316731	99
Es	1.319088	0.158740	-0.308764	99
Es	-3.338323	0.243894	-0.008027	99
Es	-3.334699	-0.785304	0.570213	99
Es	0.946645	-0.438139	-0.015775	99
Es	-1.004029	-0.256324	0.290574	99
Es	-1.051799	-0.800301	-0.020996	99
Es	4.077160	1.665161	0.058994	99
Es	0.227401	-0.447298	-0.015887	99
Es	3.521888	1.339387	-0.202508	99
Es	-0.458949	-0.438054	-0.015769	99
Es	1.637490	0.706991	0.025788	99
Es	-3.334907	-0.771951	-0.609498	99
Es	3.766969	1.712049	0.061952	99
Es	2.363620	0.683147	0.024641	99
Es	-2.347125	-0.437067	-0.015797	99
Es	-1.649640	-0.438038	-0.015771	99
Es	3.583009	1.963489	0.071608	99
Es	3.423181	-0.010134	-0.000998	99
38
Properties=species:S:1:pos:R:3:Z:I:1 energy=-305.5928627425606 field_type=dipole dipole="0.000000 0.000000 0.000000" charge=0
C	-3.093369	-0.438038	-0.015772	6
C	-1.649369	-0.438038	-0.015772	6
C	-0.459209	-0.438038	-0.015772	6
C	0.946791	-0.438038	-0.015772	6
C	1.637421	0.706972	0.025788	6
C	3.110771	0.679441	0.024378	6
O	3.767141	1.712302	0.061958	8
H	-3.487369	0.582842	-0.004082	1
H	-3.487439	-0.958568	0.862478	1
H	-3.487439	-0.938318	-0.905712	1
H	1.446861	-1.401409	-0.050952	1
H	1.170361	1.684251	0.061428	1
H	3.584851	-0.315359	-0.012192	1
Es	-0.458948	-0.438051	-0.015757	99
Es	1.325767	1.356373	0.049443	99
Es	3.110741	0.679438	0.024382	99
Es	0.946647	-0.438136	-0.015774	99
Es	1.319229	0.135822	0.319689	99
Es	-1.649638	-0.438022	-0.015770	99
Es	3.766986	1.712023	0.061948	99
Es	3.582645	1.962957	0.070782	99
Es	-1.051844	-0.800058	-0.027530	99
Es	3.523137	1.339322	-0.202873	99
Es	-3.334852	-0.772092	-0.609607	99
Es	-1.002207	-0.243756	-0.313585	99
Es	2.363544	0.683123	0.024906	99
Es	0.227377	-0.447267	-0.015913	99
Es	3.522435	1.321199	0.298844	99
Es	-2.347331	-0.436893	-0.015744	99
Es	4.077475	1.665709	0.060720	99
Es	-3.338262	0.243941	-0.008080	99
Es	-1.003037	-0.262040	0.293949	99
Es	-3.093249	-0.438039	-0.015772	99
Es	1.273605	-1.080626	-0.039258	99
Es	1.319179	0.158693	-0.308896	99
Es	3.423252	-0.010153	-0.000971	99
Es	1.637490	0.706990	0.025780	99
Es	-3.334575	-0.785286	0.570385	99
38
Properties=species:S:1:pos:R:3:Z:I:1 energy=-305.5928627425606 field_type=dipole dipole="0.000000 0.000000 0.000000" charge=0
C	-3.093369	-0.438038	-0.015772	6
C	-1.649369	-0.438038	-0.015772	6
C	-0.459209	-0.438038	-0.015772	6
C	0.946791	-0.438038	-0.015772	6
C	1.637421	0.706972	0.025788	6
C	3.110771	0.679441	0.024378	6
O	3.767141	1.712302	0.061958	8
H	-3.487369	0.582842	-0.004082	1
H	-3.487439	-0.958568	0.862478	1
H	-3.487439	-0.938318	-0.905712	1
H	1.446861	-1.401409	-0.050952	1
H	1.170361	1.684251	0.061428	1
H	3.584851	-0.315359	-0.012192	1
Es	1.319286	0.135870	0.319585	99
Es	-3.334697	-0.785331	0.570325	99
Es	3.521603	1.340707	-0.203266	99
Es	0.227416	-0.446839	-0.016695	99
Es	-3.334915	-0.771922	-0.609706	99
Es	2.363564	0.683220	0.024807	99
Es	3.766926	1.712034	0.061953	99
Es	3.584362	1.964480	0.072804	99
Es	-1.050370	-0.793561	-0.081999	99
Es	1.319169	0.158652	-0.308652	99
Es	1.273648	-1.080746	-0.039264	99
Es	-0.995189	-0.313591	0.316259	99
Es	3.523146	1.320379	0.298504	99
Es	3.110741	0.679435	0.024377	99
Es	-1.649636	-0.438033	-0.015771	99
Es	3.423238	-0.010190	-0.000922	99
Es	1.325650	1.356368	0.049456	99
Es	-3.093248	-0.438039	-0.015772	99
Es	-1.011515	-0.199001	-0.280875	99
Es	-3.338092	0.243951	-0.007960	99
Es	4.076642	1.663624	0.059308	99
Es	-0.458949	-0.438046	-0.015776	99
Es	-2.347348	-0.437106	-0.015436	99
Es	0.946645	-0.438136	-0.015776	99
Es	1.637490	0.706990	0.025786	99
38
Properties=species:S:1:pos:R:3:Z:I:1 energy=-305.5928627425606 field_type=dipole dipole="0.000000 0.000000 0.000000" charge=0
C	-3.093369	-0.438038	-0.015772	6
C	-1.649369	-0.438038	-0.015772	6
C	-0.459209	-0.438038	-0.015772	6
C	0.946791	-0.438038	-0.015772	6
C	1.637421	0.706972	0.025788	6
C	3.110771	0.679441	0.024378	6
O	3.767141	1.712302	0.061958	8
H	-3.487369	0.582842	-0.004082	1
H	-3.487439	-0.958568	0.862478	1
H	-3.487439	-0.938318	-0.905712	1
H	1.446861	-1.401409	-0.050952	1
H	1.170361	1.684251	0.061428	1
H	3.584851	-0.315359	-0.012192	1
Es	-0.458951	-0.438035	-0.015770	99
Es	-1.649636	-0.438031	-0.015774	99
Es	1.319066	0.158734	-0.308660	99
Es	3.522458	1.339246	-0.202686	99
Es	-3.334768	-0.771912	-0.609722	99
Es	-3.334641	-0.785483	0.570315	99
Es	3.110737	0.679438	0.024396	99
Es	0.946649	-0.438138	-0.015777	99
Es	3.766975	1.712033	0.061948	99
Es	3.522938	1.321365	0.299193	99
Es	-1.050855	-0.798958	0.015097	99
Es	-3.093248	-0.438039	-0.015772	99
Es	-3.338186	0.244041	-0.007935	99
Es	1.273664	-1.080742	-0.039160	99
Es	-0.996243	-0.281306	-0.333695	99
Es	1.325716	1.356393	0.049599	99
Es	3.583577	1.963954	0.071076	99
Es	3.423250	-0.010175	-0.001008	99
Es	1.319315	0.135836	0.319588	99
Es	-2.347434	-0.436970	-0.015944	99
Es	0.227410	-0.446954	-0.015585	99
Es	1.637489	0.706988	0.025786	99
Es	-1.009983	-0.225900	0.271200	99
Es	4.076758	1.664601	0.059914	99
Es	2.363514	0.683184	0.024675	99
38
Properties=species:S:1:pos:R:3:Z:I:1 energy=-305.5928627425606 field_type=dipole dipole="0.000000 0.000000 0.000000" charge=0
C	-3.093369	-0.438038	-0.015772	6
C	-1.649369	-0.438038	-0.015772	6
C	-0.459209	-0.438038	-0.015772	6
C	0.946791	-0.438038	-0.015772	6
C	1.637421	0.706972	0.025788	6
C	3.110771	0.679441	0.024378	6
O	3.767141	1.712302	0.061958	8
H	-3.487369	0.582842	-0.004082	1
H	-3.487439	-0.958568	0.862478	1
H	-3.487439	-0.938318	-0.905712	1
H	1.446861	-1.401409	-0.050952	1
H	1.170361	1.684251	0.061428	1
H	3.584851	-0.315359	-0.012192	1
Es	4.076742	1.665296	0.060047	99
Es	3.522811	1.339300	-0.202871	99
Es	2.363495	0.683092	0.024731	99
Es	-1.048275	-0.078597	-0.034266	99
Es	3.766996	1.712070	0.061948	99
Es	3.583113	1.963508	0.071102	99
Es	0.946646	-0.438137	-0.015787	99
Es	-0.998715	-0.596453	0.297885	99
Es	1.273586	-1.080900	-0.039322	99
Es	3.110740	0.679435	0.024379	99
Es	3.423251	-0.010170	-0.000990	99
Es	-1.649642	-0.438036	-0.015772	99
Es	-3.093250	-0.438039	-0.015772	99
Es	1.319020	0.159076	-0.308503	99
Es	-1.009213	-0.632570	-0.310416	99
Es	1.319199	0.136224	0.319537	99
Es	3.523040	1.321056	0.299201	99
Es	1.325713	1.356455	0.049464	99
Es	-3.338131	0.244052	-0.008004	99
Es	-2.347870	-0.438500	-0.015434	99
Es	1.637491	0.706989	0.025788	99
Es	0.227180	-0.444560	-0.016403	99
Es	-0.458956	-0.438040	-0.015773	99
Es	-3.334683	-0.785366	0.570275	99
Es	-3.334720	-0.772013	-0.609745	99
