44
Properties=species:S:1:pos:R:3:Z:I:1 energy=-307.94862954217547 field_type=dipole dipole="0.000000 0.000000 0.000000" charge=0
C	-3.230485	-0.818485	-0.322484	6
C	-1.786485	-0.818485	-0.322484	6
C	-0.596326	-0.818485	-0.322484	6
C	0.847674	-0.818485	-0.322484	6
C	1.446084	0.595575	-0.346114	6
C	1.187524	1.376805	0.937567	6
O	2.860575	0.506315	-0.542304	8
H	-3.624365	0.202415	-0.308874	1
H	-3.624536	-1.340585	0.554837	1
H	-3.624585	-1.317085	-1.213344	1
H	1.218374	-1.372175	-1.194394	1
H	1.232324	-1.364765	0.547766	1
H	1.042735	1.158065	-1.195884	1
H	1.595535	0.849355	1.807416	1
H	0.119195	1.547505	1.102257	1
H	1.689845	2.349494	0.897466	1
H	3.246915	0.083025	0.243536	1
Es	-1.187869	-0.623213	-0.629907	99
Es	-1.192779	-0.646365	-0.002176	99
Es	-3.478519	-1.168304	0.265612	99
Es	-3.478849	-1.152361	-0.919291	99
Es	1.077413	-1.184690	-0.909074	99
Es	1.116875	-0.127248	-0.325410	99
Es	1.526745	2.035189	0.904604	99
Es	-0.596051	-0.818486	-0.322484	99
Es	2.330523	0.523449	-0.445308	99
Es	0.101311	-0.813385	-0.317114	99
Es	1.446298	0.595506	-0.346090	99
Es	-3.478090	-0.134123	-0.313133	99
Es	1.095682	-1.178641	0.272464	99
Es	1.187526	1.376787	0.937564	99
Es	-3.230377	-0.818484	-0.322483	99
Es	0.847557	-0.818474	-0.322468	99
Es	2.860391	0.506277	-0.541913	99
Es	3.045338	0.275308	-0.106153	99
Es	1.470381	1.004014	1.526468	99
Es	-2.487332	-0.818461	-0.322605	99
Es	1.168961	0.974696	-0.925693	99
Es	-1.185797	-1.179148	-0.336095	99
Es	-1.786752	-0.818482	-0.322484	99
Es	0.464440	1.487772	1.046710	99
Es	2.964120	0.792968	-0.541765	99
Es	2.908654	0.310788	-0.777510	99
Es	1.304347	0.980830	0.309660	99
44
Properties=species:S:1:pos:R:3:Z:I:1 energy=-307.94862954217547 field_type=dipole dipole="0.000000 0.000000 0.000000" charge=0
C	-3.230485	-0.818485	-0.322484	6
C	-1.786485	-0.818485	-0.322484	6
C	-0.596326	-0.818485	-0.322484	6
C	0.847674	-0.818485	-0.322484	6
C	1.446084	0.595575	-0.346114	6
C	1.187524	1.376805	0.937567	6
O	2.860575	0.506315	-0.542304	8
H	-3.624365	0.202415	-0.308874	1
H	-3.624536	-1.340585	0.554837	1
H	-3.624585	-1.317085	-1.213344	1
H	1.218374	-1.372175	-1.194394	1
H	1.232324	-1.364765	0.547766	1
H	1.042735	1.158065	-1.195884	1
H	1.595535	0.849355	1.807416	1
H	0.119195	1.547505	1.102257	1
H	1.689845	2.349494	0.897466	1
H	3.246915	0.083025	0.243536	1
Es	2.330401	0.523949	-0.445636	99
Es	2.860367	0.506142	-0.541987	99
Es	1.168992	0.974694	-0.925633	99
Es	-2.487530	-0.818321	-0.322583	99
Es	2.963967	0.792473	-0.539691	99
Es	1.304314	0.980790	0.309668	99
Es	1.187527	1.376787	0.937563	99
Es	1.095557	-1.178661	0.272563	99
Es	1.526756	2.035174	0.904558	99
Es	-3.478772	-1.152512	-0.919388	99
Es	-1.187330	-0.606692	-0.619142	99
Es	-1.786769	-0.818480	-0.322492	99
Es	1.446297	0.595505	-0.346090	99
Es	0.847559	-0.818475	-0.322468	99
Es	-0.596054	-0.818474	-0.322489	99
Es	0.101381	-0.813436	-0.317254	99
Es	-1.185953	-1.177459	-0.355983	99
Es	1.116810	-0.127165	-0.325456	99
Es	1.470378	1.004049	1.526495	99
Es	-1.193095	-0.664633	0.006982	99
Es	3.045079	0.273787	-0.106606	99
Es	-3.230377	-0.818484	-0.322484	99
Es	0.464446	1.487798	1.046709	99
Es	-3.478042	-0.134106	-0.313223	99
Es	-3.478469	-1.168250	0.265747	99
Es	2.909244	0.312433	-0.778733	99
Es	1.077463	-1.184717	-0.909022	99
44
Properties=species:S:1:pos:R:3:Z:I:1 energy=-307.94862954217547 field_type=dipole dipole="0.000000 0.000000 0.000000" charge=0
C	-3.230485	-0.818485	-0.322484	6
C	-1.786485	-0.818485	-0.322484	6
C	-0.596326	-0.818485	-0.322484	6
C	0.847674	-0.818485	-0.322484	6
C	1.446084	0.595575	-0.346114	6
C	1.187524	1.376805	0.937567	6
O	2.860575	0.506315	-0.542304	8
H	-3.624365	0.202415	-0.308874	1
H	-3.624536	-1.340585	0.554837	1
H	-3.624585	-1.317085	-1.213344	1
H	1.218374	-1.372175	-1.194394	1
H	1.232324	-1.364765	0.547766	1
H	1.042735	1.158065	-1.195884	1
H	1.595535	0.849355	1.807416	1
H	0.119195	1.547505	1.102257	1
H	1.689845	2.349494	0.897466	1
H	3.246915	0.083025	0.243536	1
Es	1.077383	-1.184782	-0.909034	99
Es	2.860444	0.506243	-0.542018	99
Es	1.304298	0.980877	0.309595	99
Es	-1.192771	-0.647302	-0.002081	99
Es	-3.478366	-1.168237	0.265744	99
Es	1.169072	0.974594	-0.925629	99
Es	-2.487541	-0.818383	-0.322693	99
Es	2.963654	0.793488	-0.540466	99
Es	-3.478101	-0.134021	-0.313233	99
Es	1.187526	1.376787	0.937565	99
Es	2.908288	0.312512	-0.778279	99
Es	3.046080	0.273730	-0.107199	99
Es	0.101514	-0.813566	-0.317350	99
Es	2.330618	0.522788	-0.444660	99
Es	-3.478781	-1.152595	-0.919329	99
Es	-0.596059	-0.818460	-0.322495	99
Es	1.446288	0.595511	-0.346087	99
Es	-1.786763	-0.818493	-0.322472	99
Es	-3.230378	-0.818484	-0.322483	99
Es	1.526774	2.035167	0.904621	99
Es	-1.185774	-1.178753	-0.335545	99
Es	1.095516	-1.178678	0.272557	99
Es	1.116773	-0.127033	-0.325481	99
Es	0.464466	1.487821	1.046675	99
Es	-1.187872	-0.622600	-0.630331	99
Es	0.847558	-0.818474	-0.322468	99
Es	1.470301	1.004061	1.526503	99
44
Properties=species:S:1:pos:R:3:Z:I:1 energy=-307.94862954217547 field_type=dipole dipole="0.000000 0.000000 0.000000" charge=0
C	-3.230485	-0.818485	-0.322484	6
C	-1.786485	-0.818485	-0.322484	6
C	-0.596326	-0.818485	-0.322484	6
C	0.847674	-0.818485	-0.322484	6
C	1.446084	0.595575	-0.346114	6
C	1.187524	1.376805	0.937567	6
O	2.860575	0.506315	-0.542304	8
H	-3.624365	0.202415	-0.308874	1
H	-3.624536	-1.340585	0.554837	1
H	-3.624585	-1.317085	-1.213344	1
H	1.218374	-1.372175	-1.194394	1
H	1.232324	-1.364765	0.547766	1
H	1.042735	1.158065	-1.195884	1
H	1.595535	0.849355	1.807416	1
H	0.119195	1.547505	1.102257	1
H	1.689845	2.349494	0.897466	1
H	3.246915	0.083025	0.243536	1
Es	2.330317	0.523186	-0.444900	99
Es	1.304448	0.980843	0.309570	99
Es	1.187527	1.376790	0.937566	99
Es	1.168991	0.974640	-0.925622	99
Es	-1.188424	-0.641038	-0.640926	99
Es	0.464508	1.487751	1.046553	99
Es	-1.192383	-0.629095	-0.012180	99
Es	2.907963	0.311958	-0.777147	99
Es	1.095494	-1.178708	0.272559	99
Es	0.101671	-0.813398	-0.317277	99
Es	-3.477992	-0.133955	-0.313159	99
Es	-3.478733	-1.152553	-0.919472	99
Es	-3.478379	-1.168306	0.265747	99
Es	0.847558	-0.818474	-0.322468	99
Es	-2.487674	-0.818323	-0.322569	99
Es	-1.185629	-1.178802	-0.314902	99
Es	2.860395	0.506218	-0.542013	99
Es	1.446294	0.595506	-0.346089	99
Es	-0.596058	-0.818493	-0.322482	99
Es	1.077330	-1.184810	-0.909172	99
Es	-3.230381	-0.818483	-0.322482	99
Es	2.963766	0.792788	-0.542160	99
Es	1.526638	2.035186	0.904698	99
Es	1.470270	1.004061	1.526604	99
Es	-1.786752	-0.818483	-0.322486	99
Es	3.046652	0.274630	-0.106445	99
Es	1.116732	-0.126918	-0.325421	99
44
Properties=species:S:1:pos:R:3:Z:I:1 energy=-307.94862954217547 field_type=dipole dipole="0.000000 0.000000 0.000000" charge=0
C	-3.230485	-0.818485	-0.322484	6
C	-1.786485	-0.818485	-0.322484	6
C	-0.596326	-0.818485	-0.322484	6
C	0.847674	-0.818485	-0.322484	6
C	1.446084	0.595575	-0.346114	6
C	1.187524	1.376805	0.937567	6
O	2.860575	0.506315	-0.542304	8
H	-3.624365	0.202415	-0.308874	1
H	-3.624536	-1.340585	0.554837	1
H	-3.624585	-1.317085	-1.213344	1
H	1.218374	-1.372175	-1.194394	1
H	1.232324	-1.364765	0.547766	1
H	1.042735	1.158065	-1.195884	1
H	1.595535	0.849355	1.807416	1
H	0.119195	1.547505	1.102257	1
H	1.689845	2.349494	0.897466	1
H	3.246915	0.083025	0.243536	1
Es	1.187527	1.376787	0.937565	99
Es	2.907409	0.312852	-0.776569	99
Es	-1.193448	-0.687328	0.016019	99
Es	1.169043	0.974607	-0.925543	99
Es	-0.596055	-0.818485	-0.322483	99
Es	2.330037	0.523584	-0.445087	99
Es	-1.786768	-0.818478	-0.322485	99
Es	1.470354	1.004087	1.526501	99
Es	-3.477973	-0.133966	-0.313157	99
Es	-3.230377	-0.818484	-0.322483	99
Es	1.526645	2.035202	0.904673	99
Es	-2.487739	-0.818299	-0.322484	99
Es	1.304321	0.980857	0.309552	99
Es	-3.478463	-1.168379	0.265750	99
Es	0.101818	-0.813484	-0.317379	99
Es	1.446295	0.595506	-0.346089	99
Es	-1.186272	-1.174476	-0.379916	99
Es	-3.478604	-1.152515	-0.919581	99
Es	2.964813	0.792983	-0.541890	99
Es	1.095241	-1.178670	0.272705	99
Es	3.046458	0.273130	-0.107164	99
Es	2.860405	0.506239	-0.541969	99
Es	0.464503	1.487731	1.046710	99
Es	1.116687	-0.126856	-0.325487	99
Es	-1.186725	-0.587025	-0.604210	99
Es	0.847558	-0.818474	-0.322468	99
Es	1.077456	-1.184928	-0.909105	99
44
Properties=species:S:1:pos:R:3:Z:I:1 energy=-307.94862954217547 field_type=dipole dipole="0.000000 0.000000 0.000000" charge=0
C	-3.230485	-0.818485	-0.322484	6
C	-1.786485	-0.818485	-0.322484	6
C	-0.596326	-0.818485	-0.322484	6
C	0.847674	-0.818485	-0.322484	6
C	1.446084	0.595575	-0.346114	6
C	1.187524	1.376805	0.937567	6
O	2.860575	0.506315	-0.542304	8
H	-3.624365	0.202415	-0.308874	1
H	-3.624536	-1.340585	0.554837	1
H	-3.624585	-1.317085	-1.213344	1
H	1.218374	-1.372175	-1.194394	1
H	1.232324	-1.364765	0.547766	1
H	1.042735	1.158065	-1.195884	1
H	1.595535	0.849355	1.807416	1
H	0.119195	1.547505	1.102257	1
H	1.689845	2.349494	0.897466	1
H	3.246915	0.083025	0.243536	1
Es	-1.786773	-0.818484	-0.322481	99
Es	2.907171	0.312152	-0.775900	99
Es	-2.487856	-0.818299	-0.322671	99
Es	2.330001	0.523628	-0.444946	99
Es	-1.185771	-1.178390	-0.339121	99
Es	-1.192856	-0.650678	-0.000201	99
Es	-3.230382	-0.818483	-0.322482	99
Es	1.077346	-1.184933	-0.909191	99
Es	1.169085	0.974567	-0.925516	99
Es	1.187525	1.376788	0.937566	99
Es	1.304193	0.980867	0.309608	99
Es	-1.187782	-0.619879	-0.628689	99
Es	-3.478366	-1.168498	0.265855	99
Es	1.526746	2.035217	0.904622	99
Es	1.446297	0.595506	-0.346089	99
Es	3.046801	0.274033	-0.106748	99
Es	0.101858	-0.813420	-0.317285	99
Es	-3.478660	-1.152431	-0.919629	99
Es	0.847555	-0.818477	-0.322469	99
Es	-3.477888	-0.133933	-0.313067	99
Es	1.116613	-0.126822	-0.325554	99
Es	2.860420	0.506184	-0.542059	99
Es	-0.596056	-0.818483	-0.322484	99
Es	0.464522	1.487778	1.046688	99
Es	1.095348	-1.178669	0.272670	99
Es	1.470307	1.004048	1.526503	99
Es	2.964750	0.792827	-0.543004	99
44
Properties=species:S:1:pos:R:3:Z:I:1 energy=-307.94862954217547 field_type=dipole dipole="0.000000 0.000000 0.000000" charge=0
C	-3.230485	-0.818485	-0.322484	6
C	-1.786485	-0.818485	-0.322484	6
C	-0.596326	-0.818485	-0.322484	6
C	0.847674	-0.818485	-0.322484	6
C	1.446084	0.595575	-0.346114	6
C	1.187524	1.376805	0.937567	6
O	2.860575	0.506315	-0.542304	8
H	-3.624365	0.202415	-0.308874	1
H	-3.624536	-1.340585	0.554837	1
H	-3.624585	-1.317085	-1.213344	1
H	1.218374	-1.372175	-1.194394	1
H	1.232324	-1.364765	0.547766	1
H	1.042735	1.158065	-1.195884	1
H	1.595535	0.849355	1.807416	1
H	0.119195	1.547505	1.102257	1
H	1.689845	2.349494	0.897466	1
H	3.246915	0.083025	0.243536	1
Es	0.464581	1.487737	1.046713	99
Es	2.962987	0.792513	-0.540473	99
Es	-1.187450	-0.610264	-0.621784	99
Es	2.329891	0.522602	-0.445317	99
Es	-0.596050	-0.818477	-0.322480	99
Es	-3.478616	-1.152574	-0.919574	99
Es	3.046946	0.273688	-0.106937	99
Es	-3.230378	-0.818484	-0.322483	99
Es	0.101851	-0.813438	-0.317373	99
Es	1.116714	-0.126737	-0.325359	99
Es	-1.786764	-0.818485	-0.322483	99
Es	1.169032	0.974476	-0.925557	99
Es	2.908907	0.313839	-0.777939	99
Es	1.526624	2.035219	0.904697	99
Es	-1.185881	-1.177884	-0.351351	99
Es	1.304273	0.980887	0.309480	99
Es	2.860413	0.506169	-0.542049	99
Es	1.077291	-1.184857	-0.909217	99
Es	1.187526	1.376787	0.937565	99
Es	-1.193002	-0.660745	0.005098	99
Es	-3.477870	-0.133812	-0.313193	99
Es	1.470305	1.004130	1.526535	99
Es	0.847559	-0.818475	-0.322468	99
Es	1.095266	-1.178835	0.272661	99
Es	-2.487972	-0.818353	-0.322612	99
Es	-3.478335	-1.168413	0.265913	99
Es	1.446300	0.595504	-0.346087	99
44
Properties=species:S:1:pos:R:3:Z:I:1 energy=-307.94862954217547 field_type=dipole dipole="0.000000 0.000000 0.000000" charge=0
C	-3.230485	-0.818485	-0.322484	6
C	-1.786485	-0.818485	-0.322484	6
C	-0.596326	-0.818485	-0.322484	6
C	0.847674	-0.818485	-0.322484	6
C	1.446084	0.595575	-0.346114	6
C	1.187524	1.376805	0.937567	6
O	2.860575	0.506315	-0.542304	8
H	-3.624365	0.202415	-0.308874	1
H	-3.624536	-1.340585	0.554837	1
H	-3.624585	-1.317085	-1.213344	1
H	1.218374	-1.372175	-1.194394	1
H	1.232324	-1.364765	0.547766	1
H	1.042735	1.158065	-1.195884	1
H	1.595535	0.849355	1.807416	1
H	0.119195	1.547505	1.102257	1
H	1.689845	2.349494	0.897466	1
H	3.246915	0.083025	0.243536	1
Es	-3.478357	-1.168566	0.265884	99
Es	-3.478469	-1.152505	-0.919568	99
Es	1.095259	-1.178769	0.272630	99
Es	1.526548	2.035148	0.904752	99
Es	3.047213	0.274575	-0.106512	99
Es	2.329785	0.523662	-0.444962	99
Es	1.446297	0.595506	-0.346089	99
Es	0.101999	-0.813515	-0.317163	99
Es	1.116655	-0.126641	-0.325526	99
Es	1.187523	1.376789	0.937566	99
Es	-1.186077	-1.176433	-0.366253	99
Es	2.906588	0.311677	-0.774584	99
Es	-3.477913	-0.133711	-0.313184	99
Es	-1.193266	-0.674587	0.010982	99
Es	2.965214	0.792738	-0.544637	99
Es	2.860385	0.506162	-0.542011	99
Es	-1.187070	-0.597767	-0.612841	99
Es	0.847558	-0.818475	-0.322468	99
Es	1.077209	-1.184988	-0.909252	99
Es	1.470336	1.004183	1.526535	99
Es	-1.786763	-0.818480	-0.322483	99
Es	0.464491	1.487716	1.046683	99
Es	1.304377	0.980890	0.309466	99
Es	1.169083	0.974511	-0.925460	99
Es	-3.230380	-0.818485	-0.322482	99
Es	-2.488019	-0.818431	-0.322614	99
Es	-0.596057	-0.818486	-0.322483	99
44
Properties=species:S:1:pos:R:3:Z:I:1 energy=-307.94862954217547 field_type=dipole dipole="0.000000 0.000000 0.000000" charge=0
C	-3.230485	-0.818485	-0.322484	6
C	-1.786485	-0.818485	-0.322484	6
C	-0.596326	-0.818485	-0.322484	6
C	0.847674	-0.818485	-0.322484	6
C	1.446084	0.595575	-0.346114	6
C	1.187524	1.376805	0.937567	6
O	2.860575	0.506315	-0.542304	8
H	-3.624365	0.202415	-0.308874	1
H	-3.624536	-1.340585	0.554837	1
H	-3.624585	-1.317085	-1.213344	1
H	1.218374	-1.372175	-1.194394	1
H	1.232324	-1.364765	0.547766	1
H	1.042735	1.158065	-1.195884	1
H	1.595535	0.849355	1.807416	1
H	0.119195	1.547505	1.102257	1
H	1.689845	2.349494	0.897466	1
H	3.246915	0.083025	0.243536	1
Es	-0.596056	-0.818486	-0.322483	99
Es	1.077100	-1.184943	-0.909241	99
Es	2.963846	0.792251	-0.541126	99
Es	-3.230380	-0.818483	-0.322484	99
Es	-1.187896	-0.623638	-0.630589	99
Es	1.187518	1.376790	0.937567	99
Es	1.116492	-0.126578	-0.325697	99
Es	-2.488134	-0.818449	-0.322649	99
Es	3.046982	0.273241	-0.107047	99
Es	-1.185755	-1.178833	-0.335048	99
Es	1.169141	0.974545	-0.925399	99
Es	-1.192755	-0.646378	-0.002378	99
Es	0.847563	-0.818475	-0.322467	99
Es	1.095293	-1.178857	0.272795	99
Es	1.446292	0.595509	-0.346091	99
Es	-3.477801	-0.133687	-0.313144	99
Es	2.329586	0.523166	-0.445514	99
Es	0.102154	-0.813477	-0.317346	99
Es	1.304232	0.980869	0.309446	99
Es	-1.786765	-0.818478	-0.322485	99
Es	-3.478608	-1.152617	-0.919641	99
Es	1.526597	2.035161	0.904698	99
Es	2.908362	0.313931	-0.776971	99
Es	1.470354	1.004143	1.526528	99
Es	-3.478219	-1.168461	0.265973	99
Es	2.860424	0.506182	-0.542042	99
Es	0.464582	1.487770	1.046760	99
44
Properties=species:S:1:pos:R:3:Z:I:1 energy=-307.94862954217547 field_type=dipole dipole="0.000000 0.000000 0.000000" charge=0
C	-3.230485	-0.818485	-0.322484	6
C	-1.786485	-0.818485	-0.322484	6
C	-0.596326	-0.818485	-0.322484	6
C	0.847674	-0.818485	-0.322484	6
C	1.446084	0.595575	-0.346114	6
C	1.187524	1.376805	0.937567	6
O	2.860575	0.506315	-0.542304	8
H	-3.624365	0.202415	-0.308874	1
H	-3.624536	-1.340585	0.554837	1
H	-3.624585	-1.317085	-1.213344	1
H	1.218374	-1.372175	-1.194394	1
H	1.232324	-1.364765	0.547766	1
H	1.042735	1.158065	-1.195884	1
H	1.595535	0.849355	1.807416	1
H	0.119195	1.547505	1.102257	1
H	1.689845	2.349494	0.897466	1
H	3.246915	0.083025	0.243536	1
Es	1.169168	0.974462	-0.925390	99
Es	1.446291	0.595507	-0.346090	99
Es	0.847561	-0.818472	-0.322469	99
Es	-0.596057	-0.818482	-0.322484	99
Es	-3.230379	-0.818485	-0.322483	99
Es	-1.188679	-0.649965	-0.645829	99
Es	1.095242	-1.178857	0.272736	99
Es	-2.488230	-0.818402	-0.322598	99
Es	0.102119	-0.813433	-0.317354	99
Es	2.963360	0.792480	-0.543392	99
Es	2.907596	0.312744	-0.775910	99
Es	-3.478188	-1.168532	0.265964	99
Es	1.526664	2.035159	0.904731	99
Es	-1.786761	-0.818482	-0.322486	99
Es	1.470277	1.004139	1.526507	99
Es	1.116563	-0.126538	-0.325675	99
Es	1.077108	-1.184977	-0.909234	99
Es	-1.192177	-0.620933	-0.017212	99
Es	3.048111	0.274882	-0.106548	99
Es	1.304128	0.980877	0.309399	99
Es	2.329767	0.522473	-0.444816	99
Es	-3.478554	-1.152607	-0.919736	99
Es	2.860411	0.506210	-0.542008	99
Es	0.464608	1.487819	1.046775	99
Es	-1.185527	-1.177996	-0.304959	99
Es	1.187526	1.376788	0.937565	99
Es	-3.477800	-0.133662	-0.313079	99
44
Properties=species:S:1:pos:R:3:Z:I:1 energy=-307.94862954217547 field_type=dipole dipole="0.000000 0.000000 0.000000" charge=0
C	-3.230485	-0.818485	-0.322484	6
C	-1.786485	-0.818485	-0.322484	6
C	-0.596326	-0.818485	-0.322484	6
C	0.847674	-0.818485	-0.322484	6
C	1.446084	0.595575	-0.346114	6
C	1.187524	1.376805	0.937567	6
O	2.860575	0.506315	-0.542304	8
H	-3.624365	0.202415	-0.308874	1
H	-3.624536	-1.340585	0.554837	1
H	-3.624585	-1.317085	-1.213344	1
H	1.218374	-1.372175	-1.194394	1
H	1.232324	-1.364765	0.547766	1
H	1.042735	1.158065	-1.195884	1
H	1.595535	0.849355	1.807416	1
H	0.119195	1.547505	1.102257	1
H	1.689845	2.349494	0.897466	1
H	3.246915	0.083025	0.243536	1
Es	2.907393	0.313838	-0.776858	99
Es	-3.478521	-1.152644	-0.919782	99
Es	-3.478148	-1.168544	0.266001	99
Es	2.964232	0.790932	-0.542019	99
Es	-3.230382	-0.818483	-0.322484	99
Es	1.304269	0.980839	0.309421	99
Es	-0.596052	-0.818488	-0.322485	99
Es	1.077120	-1.185094	-0.909238	99
Es	1.116581	-0.126395	-0.325628	99
Es	-1.786765	-0.818476	-0.322484	99
Es	1.095112	-1.178812	0.272759	99
Es	0.464573	1.487784	1.046745	99
Es	-1.186254	-1.174047	-0.380695	99
Es	1.470250	1.004167	1.526494	99
Es	3.047750	0.273201	-0.107056	99
Es	-3.477785	-0.133644	-0.313079	99
Es	1.446290	0.595509	-0.346089	99
Es	2.329442	0.524628	-0.444782	99
Es	1.526638	2.035162	0.904793	99
Es	-1.193445	-0.688352	0.016519	99
Es	1.187526	1.376788	0.937565	99
Es	2.860416	0.506225	-0.542054	99
Es	0.847561	-0.818477	-0.322468	99
Es	-1.186696	-0.586454	-0.603894	99
Es	-2.488307	-0.818328	-0.322644	99
Es	1.169082	0.974464	-0.925376	99
Es	0.102268	-0.813581	-0.317257	99
44
Properties=species:S:1:pos:R:3:Z:I:1 energy=-307.94862954217547 field_type=dipole dipole="0.000000 0.000000 0.000000" charge=0
C	-3.230485	-0.818485	-0.322484	6
C	-1.786485	-0.818485	-0.322484	6
C	-0.596326	-0.818485	-0.322484	6
C	0.847674	-0.818485	-0.322484	6
C	1.446084	0.595575	-0.346114	6
C	1.187524	1.376805	0.937567	6
O	2.860575	0.506315	-0.542304	8
H	-3.624365	0.202415	-0.308874	1
H	-3.624536	-1.340585	0.554837	1
H	-3.624585	-1.317085	-1.213344	1
H	1.218374	-1.372175	-1.194394	1
H	1.232324	-1.364765	0.547766	1
H	1.042735	1.158065	-1.195884	1
H	1.595535	0.849355	1.807416	1
H	0.119195	1.547505	1.102257	1
H	1.689845	2.349494	0.897466	1
H	3.246915	0.083025	0.243536	1
Es	2.329499	0.522935	-0.445649	99
Es	-3.230380	-0.818483	-0.322483	99
Es	-3.478446	-1.152739	-0.919756	99
Es	2.963408	0.791622	-0.542268	99
Es	0.102370	-0.813515	-0.317271	99
Es	-1.187840	-0.622040	-0.629423	99
Es	2.860423	0.506417	-0.541849	99
Es	1.526647	2.035182	0.904689	99
Es	1.304156	0.980791	0.309423	99
Es	0.464627	1.487799	1.046779	99
Es	1.116545	-0.126323	-0.325662	99
Es	1.470278	1.004198	1.526528	99
Es	1.187525	1.376788	0.937566	99
Es	-3.478150	-1.168507	0.266068	99
Es	-1.185760	-1.178723	-0.337223	99
Es	-3.477772	-0.133567	-0.313193	99
Es	1.169120	0.974463	-0.925363	99
Es	1.095134	-1.178893	0.272770	99
Es	-2.488386	-0.818415	-0.322586	99
Es	1.446288	0.595509	-0.346090	99
Es	2.908524	0.313459	-0.776520	99
Es	-1.192798	-0.648085	-0.001395	99
Es	-0.596057	-0.818482	-0.322484	99
Es	1.076996	-1.185082	-0.909275	99
Es	-1.786767	-0.818485	-0.322490	99
Es	3.047404	0.274370	-0.106449	99
Es	0.847560	-0.818475	-0.322469	99
44
Properties=species:S:1:pos:R:3:Z:I:1 energy=-307.94862954217547 field_type=dipole dipole="0.000000 0.000000 0.000000" charge=0
C	-3.230485	-0.818485	-0.322484	6
C	-1.786485	-0.818485	-0.322484	6
C	-0.596326	-0.818485	-0.322484	6
C	0.847674	-0.818485	-0.322484	6
C	1.446084	0.595575	-0.346114	6
C	1.187524	1.376805	0.937567	6
O	2.860575	0.506315	-0.542304	8
H	-3.624365	0.202415	-0.308874	1
H	-3.624536	-1.340585	0.554837	1
H	-3.624585	-1.317085	-1.213344	1
H	1.218374	-1.372175	-1.194394	1
H	1.232324	-1.364765	0.547766	1
H	1.042735	1.158065	-1.195884	1
H	1.595535	0.849355	1.807416	1
H	0.119195	1.547505	1.102257	1
H	1.689845	2.349494	0.897466	1
H	3.246915	0.083025	0.243536	1
Es	-0.596052	-0.818482	-0.322484	99
Es	2.860396	0.506326	-0.541916	99
Es	1.187525	1.376789	0.937566	99
Es	0.847560	-0.818474	-0.322468	99
Es	-1.193536	-0.695285	0.018780	99
Es	0.102454	-0.813553	-0.317235	99
Es	0.464637	1.487842	1.046685	99
Es	1.304177	0.980875	0.309339	99
Es	-3.478520	-1.152750	-0.919816	99
Es	1.076965	-1.185072	-0.909273	99
Es	2.964135	0.791836	-0.542095	99
Es	1.116552	-0.126281	-0.325623	99
Es	-3.477577	-0.133557	-0.313226	99
Es	-1.186359	-1.172910	-0.388108	99
Es	1.169139	0.974431	-0.925346	99
Es	-1.786765	-0.818479	-0.322480	99
Es	1.470191	1.004128	1.526562	99
Es	-1.186509	-0.580684	-0.598767	99
Es	1.526662	2.035149	0.904789	99
Es	1.446292	0.595507	-0.346090	99
Es	1.095073	-1.178960	0.272773	99
Es	-3.478188	-1.168417	0.266166	99
Es	-3.230383	-0.818484	-0.322485	99
Es	3.047539	0.273285	-0.107190	99
Es	2.329127	0.523124	-0.445523	99
Es	2.908091	0.314253	-0.775987	99
Es	-2.488480	-0.818437	-0.322624	99
44
Properties=species:S:1:pos:R:3:Z:I:1 energy=-307.94862954217547 field_type=dipole dipole="0.000000 0.000000 0.000000" charge=0
C	-3.230485	-0.818485	-0.322484	6
C	-1.786485	-0.818485	-0.322484	6
C	-0.596326	-0.818485	-0.322484	6
C	0.847674	-0.818485	-0.322484	6
C	1.446084	0.595575	-0.346114	6
C	1.187524	1.376805	0.937567	6
O	2.860575	0.506315	-0.542304	8
H	-3.624365	0.202415	-0.308874	1
H	-3.624536	-1.340585	0.554837	1
H	-3.624585	-1.317085	-1.213344	1
H	1.218374	-1.372175	-1.194394	1
H	1.232324	-1.364765	0.547766	1
H	1.042735	1.158065	-1.195884	1
H	1.595535	0.849355	1.807416	1
H	0.119195	1.547505	1.102257	1
H	1.689845	2.349494	0.897466	1
H	3.246915	0.083025	0.243536	1
Es	1.116474	-0.126210	-0.325733	99
Es	-1.185557	-1.178473	-0.312163	99
Es	0.847562	-0.818476	-0.322468	99
Es	-3.477692	-0.133510	-0.313150	99
Es	1.169166	0.974391	-0.925316	99
Es	-0.596052	-0.818483	-0.322485	99
Es	-3.230381	-0.818484	-0.322483	99
Es	1.076937	-1.185132	-0.909294	99
Es	2.964690	0.791024	-0.542916	99
Es	-1.192318	-0.626722	-0.013573	99
Es	3.047898	0.273492	-0.107110	99
Es	-3.478441	-1.152749	-0.919843	99
Es	2.328830	0.524235	-0.445252	99
Es	-2.488541	-0.818383	-0.322596	99
Es	2.907447	0.313853	-0.775453	99
Es	-1.188495	-0.643768	-0.642273	99
Es	1.526680	2.035208	0.904675	99
Es	-1.786776	-0.818480	-0.322488	99
Es	1.303990	0.980825	0.309386	99
Es	1.187523	1.376787	0.937565	99
Es	-3.478082	-1.168551	0.266137	99
Es	0.102513	-0.813477	-0.317335	99
Es	1.446291	0.595508	-0.346089	99
Es	2.860410	0.506208	-0.542017	99
Es	0.464610	1.487758	1.047027	99
Es	1.095075	-1.178920	0.272833	99
Es	1.470386	1.004245	1.526339	99
44
Properties=species:S:1:pos:R:3:Z:I:1 energy=-307.94862954217547 field_type=dipole dipole="0.000000 0.000000 0.000000" charge=0
C	-3.230485	-0.818485	-0.322484	6
C	-1.786485	-0.818485	-0.322484	6
C	-0.596326	-0.818485	-0.322484	6
C	0.847674	-0.818485	-0.322484	6
C	1.446084	0.595575	-0.346114	6
C	1.187524	1.376805	0.937567	6
O	2.860575	0.506315	-0.542304	8
H	-3.624365	0.202415	-0.308874	1
H	-3.624536	-1.340585	0.554837	1
H	-3.624585	-1.317085	-1.213344	1
H	1.218374	-1.372175	-1.194394	1
H	1.232324	-1.364765	0.547766	1
H	1.042735	1.158065	-1.195884	1
H	1.595535	0.849355	1.807416	1
H	0.119195	1.547505	1.102257	1
H	1.689845	2.349494	0.897466	1
H	3.246915	0.083025	0.243536	1
Es	-3.478066	-1.168542	0.266145	99
Es	3.047950	0.273311	-0.107142	99
Es	0.464668	1.487836	1.046795	99
Es	0.102626	-0.813497	-0.317322	99
Es	1.446290	0.595509	-0.346090	99
Es	2.860437	0.506243	-0.542076	99
Es	-1.192933	-0.654717	0.001576	99
Es	1.470215	1.004220	1.526517	99
Es	0.847564	-0.818479	-0.322467	99
Es	-1.187636	-0.615639	-0.625523	99
Es	2.963243	0.790927	-0.540977	99
Es	1.076926	-1.185092	-0.909336	99
Es	1.169162	0.974390	-0.925283	99
Es	2.328943	0.523388	-0.445544	99
Es	-3.477608	-0.133411	-0.313140	99
Es	1.187525	1.376789	0.937567	99
Es	1.304131	0.980816	0.309314	99
Es	1.116471	-0.126190	-0.325654	99
Es	-1.786762	-0.818476	-0.322481	99
Es	-1.185821	-1.178475	-0.344142	99
Es	2.908721	0.314955	-0.777020	99
Es	1.526650	2.035155	0.904778	99
Es	-3.230383	-0.818479	-0.322484	99
Es	-2.488630	-0.818534	-0.322621	99
Es	-3.478438	-1.152776	-0.919877	99
Es	1.094961	-1.179033	0.272895	99
Es	-0.596059	-0.818482	-0.322483	99
44
Properties=species:S:1:pos:R:3:Z:I:1 energy=-307.94862954217547 field_type=dipole dipole="0.000000 0.000000 0.000000" charge=0
C	-3.230485	-0.818485	-0.322484	6
C	-1.786485	-0.818485	-0.322484	6
C	-0.596326	-0.818485	-0.322484	6
C	0.847674	-0.818485	-0.322484	6
C	1.446084	0.595575	-0.346114	6
C	1.187524	1.376805	0.937567	6
O	2.860575	0.506315	-0.542304	8
H	-3.624365	0.202415	-0.308874	1
H	-3.624536	-1.340585	0.554837	1
H	-3.624585	-1.317085	-1.213344	1
H	1.218374	-1.372175	-1.194394	1
H	1.232324	-1.364765	0.547766	1
H	1.042735	1.158065	-1.195884	1
H	1.595535	0.849355	1.807416	1
H	0.119195	1.547505	1.102257	1
H	1.689845	2.349494	0.897466	1
H	3.246915	0.083025	0.243536	1
Es	1.187524	1.376786	0.937563	99
Es	-2.488721	-0.818407	-0.322557	99
Es	2.328872	0.524279	-0.445160	99
Es	1.446286	0.595509	-0.346088	99
Es	1.470305	1.004163	1.526469	99
Es	-3.230381	-0.818485	-0.322482	99
Es	-3.478032	-1.168477	0.266274	99
Es	-3.478357	-1.152920	-0.919848	99
Es	-1.786757	-0.818483	-0.322486	99
Es	-1.185868	-1.177985	-0.349309	99
Es	0.102659	-0.813460	-0.317214	99
Es	1.169166	0.974355	-0.925292	99
Es	0.847563	-0.818473	-0.322468	99
Es	1.094922	-1.178994	0.272831	99
Es	0.464671	1.487839	1.046884	99
Es	1.076856	-1.185207	-0.909373	99
Es	2.906494	0.312221	-0.773538	99
Es	1.526648	2.035144	0.904759	99
Es	1.116533	-0.126112	-0.325660	99
Es	2.965084	0.791030	-0.545616	99
Es	-1.193002	-0.659206	0.004004	99
Es	1.304021	0.980907	0.309307	99
Es	-0.596055	-0.818484	-0.322483	99
Es	3.048405	0.275059	-0.106344	99
Es	-3.477624	-0.133388	-0.313300	99
Es	2.860456	0.506218	-0.542101	99
Es	-1.187519	-0.611713	-0.622845	99
