47
Properties=species:S:1:pos:R:3:Z:I:1 energy=-309.14580695257706 field_type=dipole dipole="0.000000 0.000000 0.000000" charge=0
C	-2.853203	-1.027316	0.819484	6
C	-1.341343	-1.007136	0.651944	6
C	-0.816693	0.420274	0.495374	6
C	0.677567	0.439154	0.333334	6
C	1.306747	0.938124	-0.742596	6
C	2.789107	0.978344	-0.911216	6
O	3.126437	0.239624	-2.073606	8
H	-3.207793	-2.055996	0.935854	1
H	-3.349713	-0.593416	-0.053856	1
H	-3.156863	-0.460706	1.705094	1
H	-1.069433	-1.607076	-0.225416	1
H	-0.878463	-1.485206	1.524314	1
H	-1.076323	1.010124	1.381834	1
H	-1.304973	0.900294	-0.361246	1
H	1.259047	0.031024	1.159494	1
H	0.727957	1.357334	-1.562376	1
H	3.322297	0.549284	-0.057076	1
H	3.127227	2.010574	-1.045706	1
H	2.718417	-0.637306	-1.973636	1
Es	-3.188868	-0.728206	0.221413	99
Es	-3.057041	-0.637717	1.425176	99
Es	0.677504	0.439114	0.333424	99
Es	3.126340	0.239452	-2.073251	99
Es	2.789113	0.978221	-0.911410	99
Es	3.013413	1.681108	-1.003218	99
Es	2.902671	-0.228341	-1.998734	99
Es	-2.853181	-1.027316	0.819482	99
Es	2.986977	0.501286	-1.622077	99
Es	-1.154214	-1.414121	0.048479	99
Es	-3.094635	-1.729996	0.898678	99
Es	-0.816644	0.420249	0.495374	99
Es	-1.020775	-1.330548	1.252888	99
Es	0.918149	1.222541	-1.302546	99
Es	1.068787	0.157438	0.899087	99
Es	1.012018	0.982713	-0.069813	99
Es	1.306806	0.938166	-0.742667	99
Es	2.039483	0.959639	-0.812497	99
Es	-1.067949	-0.287654	0.573185	99
Es	-0.062871	0.428832	0.410279	99
Es	0.995575	0.384269	-0.358116	99
Es	3.145293	0.683380	-0.312757	99
Es	-1.146945	0.745452	-0.093746	99
Es	-2.101410	-1.012287	0.736532	99
Es	-1.341367	-1.007099	0.651950	99
Es	3.432094	0.202365	-2.074741	99
Es	-0.987047	0.817936	1.101245	99
Es	2.973857	0.373679	-2.302051	99
47
Properties=species:S:1:pos:R:3:Z:I:1 energy=-309.14580695257706 field_type=dipole dipole="0.000000 0.000000 0.000000" charge=0
C	-2.853203	-1.027316	0.819484	6
C	-1.341343	-1.007136	0.651944	6
C	-0.816693	0.420274	0.495374	6
C	0.677567	0.439154	0.333334	6
C	1.306747	0.938124	-0.742596	6
C	2.789107	0.978344	-0.911216	6
O	3.126437	0.239624	-2.073606	8
H	-3.207793	-2.055996	0.935854	1
H	-3.349713	-0.593416	-0.053856	1
H	-3.156863	-0.460706	1.705094	1
H	-1.069433	-1.607076	-0.225416	1
H	-0.878463	-1.485206	1.524314	1
H	-1.076323	1.010124	1.381834	1
H	-1.304973	0.900294	-0.361246	1
H	1.259047	0.031024	1.159494	1
H	0.727957	1.357334	-1.562376	1
H	3.322297	0.549284	-0.057076	1
H	3.127227	2.010574	-1.045706	1
H	2.718417	-0.637306	-1.973636	1
Es	-1.147047	0.745488	-0.093819	99
Es	-1.020634	-1.330517	1.252782	99
Es	-0.986951	0.817900	1.101232	99
Es	3.145354	0.683392	-0.312753	99
Es	2.900990	-0.227888	-1.999539	99
Es	2.985743	0.502555	-1.622807	99
Es	-3.188854	-0.728549	0.221252	99
Es	-1.154272	-1.414086	0.048521	99
Es	0.995762	0.384352	-0.357938	99
Es	2.789113	0.978223	-0.911404	99
Es	-1.067878	-0.287684	0.573205	99
Es	-2.853183	-1.027316	0.819482	99
Es	-0.816644	0.420249	0.495377	99
Es	2.978799	0.374659	-2.305671	99
Es	-2.101467	-1.012402	0.736668	99
Es	-3.057037	-0.637362	1.424914	99
Es	-3.094661	-1.729973	0.899094	99
Es	1.012202	0.982700	-0.069762	99
Es	3.430160	0.199637	-2.069536	99
Es	3.126260	0.239525	-2.073379	99
Es	1.068637	0.157485	0.899072	99
Es	0.677503	0.439113	0.333424	99
Es	-1.341368	-1.007101	0.651950	99
Es	-0.063041	0.428890	0.410179	99
Es	0.918001	1.222449	-1.302594	99
Es	3.013303	1.681101	-1.003180	99
Es	2.039536	0.959563	-0.812537	99
Es	1.306804	0.938154	-0.742665	99
47
Properties=species:S:1:pos:R:3:Z:I:1 energy=-309.14580695257706 field_type=dipole dipole="0.000000 0.000000 0.000000" charge=0
C	-2.853203	-1.027316	0.819484	6
C	-1.341343	-1.007136	0.651944	6
C	-0.816693	0.420274	0.495374	6
C	0.677567	0.439154	0.333334	6
C	1.306747	0.938124	-0.742596	6
C	2.789107	0.978344	-0.911216	6
O	3.126437	0.239624	-2.073606	8
H	-3.207793	-2.055996	0.935854	1
H	-3.349713	-0.593416	-0.053856	1
H	-3.156863	-0.460706	1.705094	1
H	-1.069433	-1.607076	-0.225416	1
H	-0.878463	-1.485206	1.524314	1
H	-1.076323	1.010124	1.381834	1
H	-1.304973	0.900294	-0.361246	1
H	1.259047	0.031024	1.159494	1
H	0.727957	1.357334	-1.562376	1
H	3.322297	0.549284	-0.057076	1
H	3.127227	2.010574	-1.045706	1
H	2.718417	-0.637306	-1.973636	1
Es	0.677503	0.439109	0.333425	99
Es	-3.094789	-1.729992	0.898738	99
Es	-2.101400	-1.012393	0.736435	99
Es	-0.987022	0.817922	1.101250	99
Es	3.126371	0.239566	-2.073484	99
Es	-3.188873	-0.728213	0.221525	99
Es	-0.063079	0.428959	0.410173	99
Es	-1.020747	-1.330535	1.252849	99
Es	1.306804	0.938160	-0.742667	99
Es	-1.341367	-1.007099	0.651950	99
Es	1.011970	0.982517	-0.069932	99
Es	3.013304	1.681135	-1.003154	99
Es	2.986217	0.502848	-1.622753	99
Es	-2.853182	-1.027317	0.819482	99
Es	2.789112	0.978223	-0.911402	99
Es	3.429221	0.200160	-2.069832	99
Es	3.145316	0.683381	-0.312768	99
Es	-1.154184	-1.414090	0.048662	99
Es	2.902389	-0.228260	-1.998385	99
Es	0.918138	1.222409	-1.302679	99
Es	0.995627	0.384617	-0.357891	99
Es	2.977781	0.374174	-2.306487	99
Es	-1.067886	-0.287734	0.573035	99
Es	-3.057005	-0.637694	1.425051	99
Es	2.039627	0.959496	-0.812370	99
Es	-1.146924	0.745504	-0.093685	99
Es	-0.816644	0.420249	0.495377	99
Es	1.068854	0.157450	0.899102	99
47
Properties=species:S:1:pos:R:3:Z:I:1 energy=-309.14580695257706 field_type=dipole dipole="0.000000 0.000000 0.000000" charge=0
C	-2.853203	-1.027316	0.819484	6
C	-1.341343	-1.007136	0.651944	6
C	-0.816693	0.420274	0.495374	6
C	0.677567	0.439154	0.333334	6
C	1.306747	0.938124	-0.742596	6
C	2.789107	0.978344	-0.911216	6
O	3.126437	0.239624	-2.073606	8
H	-3.207793	-2.055996	0.935854	1
H	-3.349713	-0.593416	-0.053856	1
H	-3.156863	-0.460706	1.705094	1
H	-1.069433	-1.607076	-0.225416	1
H	-0.878463	-1.485206	1.524314	1
H	-1.076323	1.010124	1.381834	1
H	-1.304973	0.900294	-0.361246	1
H	1.259047	0.031024	1.159494	1
H	0.727957	1.357334	-1.562376	1
H	3.322297	0.549284	-0.057076	1
H	3.127227	2.010574	-1.045706	1
H	2.718417	-0.637306	-1.973636	1
Es	1.011904	0.982280	-0.070037	99
Es	-1.341366	-1.007100	0.651950	99
Es	-2.853183	-1.027317	0.819482	99
Es	2.789112	0.978226	-0.911398	99
Es	0.677503	0.439114	0.333424	99
Es	-1.020767	-1.330499	1.252789	99
Es	-3.094752	-1.729930	0.898730	99
Es	-1.067841	-0.287720	0.573134	99
Es	2.986983	0.501952	-1.621585	99
Es	-3.057140	-0.637647	1.425047	99
Es	0.995662	0.384642	-0.357913	99
Es	-1.146942	0.745436	-0.093724	99
Es	3.431468	0.202326	-2.075056	99
Es	2.902571	-0.228601	-1.999524	99
Es	-0.816646	0.420248	0.495377	99
Es	1.068907	0.157526	0.899101	99
Es	0.918130	1.222495	-1.302690	99
Es	3.013377	1.681093	-1.003094	99
Es	1.306803	0.938156	-0.742669	99
Es	-0.063152	0.428969	0.410196	99
Es	-1.154120	-1.414091	0.048734	99
Es	3.126268	0.239511	-2.073356	99
Es	3.145235	0.683332	-0.312759	99
Es	-0.986987	0.818002	1.101207	99
Es	2.974697	0.373295	-2.301454	99
Es	-3.188834	-0.728330	0.221496	99
Es	2.039665	0.959620	-0.812305	99
Es	-2.101425	-1.012433	0.736464	99
47
Properties=species:S:1:pos:R:3:Z:I:1 energy=-309.14580695257706 field_type=dipole dipole="0.000000 0.000000 0.000000" charge=0
C	-2.853203	-1.027316	0.819484	6
C	-1.341343	-1.007136	0.651944	6
C	-0.816693	0.420274	0.495374	6
C	0.677567	0.439154	0.333334	6
C	1.306747	0.938124	-0.742596	6
C	2.789107	0.978344	-0.911216	6
O	3.126437	0.239624	-2.073606	8
H	-3.207793	-2.055996	0.935854	1
H	-3.349713	-0.593416	-0.053856	1
H	-3.156863	-0.460706	1.705094	1
H	-1.069433	-1.607076	-0.225416	1
H	-0.878463	-1.485206	1.524314	1
H	-1.076323	1.010124	1.381834	1
H	-1.304973	0.900294	-0.361246	1
H	1.259047	0.031024	1.159494	1
H	0.727957	1.357334	-1.562376	1
H	3.322297	0.549284	-0.057076	1
H	3.127227	2.010574	-1.045706	1
H	2.718417	-0.637306	-1.973636	1
Es	-3.188911	-0.728255	0.221540	99
Es	2.985715	0.502739	-1.622490	99
Es	3.429711	0.199375	-2.069525	99
Es	0.918052	1.222428	-1.302704	99
Es	3.126206	0.239509	-2.073320	99
Es	1.306805	0.938156	-0.742672	99
Es	2.789113	0.978225	-0.911401	99
Es	3.145256	0.683460	-0.312749	99
Es	-1.341367	-1.007099	0.651950	99
Es	-1.154132	-1.414146	0.048664	99
Es	-1.067778	-0.287812	0.573120	99
Es	2.039730	0.959440	-0.812380	99
Es	1.068953	0.157421	0.898938	99
Es	-1.020823	-1.330486	1.252641	99
Es	-2.101392	-1.012408	0.736558	99
Es	-0.063356	0.428894	0.410185	99
Es	2.979895	0.374693	-2.305314	99
Es	2.900459	-0.227952	-2.000331	99
Es	3.013306	1.681104	-1.003149	99
Es	-3.094804	-1.729930	0.898767	99
Es	0.995595	0.384952	-0.357698	99
Es	0.677503	0.439113	0.333424	99
Es	1.012100	0.982412	-0.069964	99
Es	-3.057057	-0.637718	1.424994	99
Es	-0.816648	0.420252	0.495378	99
Es	-2.853184	-1.027318	0.819482	99
Es	-1.146919	0.745581	-0.093642	99
Es	-0.986898	0.817926	1.101266	99
47
Properties=species:S:1:pos:R:3:Z:I:1 energy=-309.14580695257706 field_type=dipole dipole="0.000000 0.000000 0.000000" charge=0
C	-2.853203	-1.027316	0.819484	6
C	-1.341343	-1.007136	0.651944	6
C	-0.816693	0.420274	0.495374	6
C	0.677567	0.439154	0.333334	6
C	1.306747	0.938124	-0.742596	6
C	2.789107	0.978344	-0.911216	6
O	3.126437	0.239624	-2.073606	8
H	-3.207793	-2.055996	0.935854	1
H	-3.349713	-0.593416	-0.053856	1
H	-3.156863	-0.460706	1.705094	1
H	-1.069433	-1.607076	-0.225416	1
H	-0.878463	-1.485206	1.524314	1
H	-1.076323	1.010124	1.381834	1
H	-1.304973	0.900294	-0.361246	1
H	1.259047	0.031024	1.159494	1
H	0.727957	1.357334	-1.562376	1
H	3.322297	0.549284	-0.057076	1
H	3.127227	2.010574	-1.045706	1
H	2.718417	-0.637306	-1.973636	1
Es	0.677500	0.439109	0.333427	99
Es	3.145311	0.683525	-0.312745	99
Es	-1.146872	0.745521	-0.093697	99
Es	2.900080	-0.228138	-2.000746	99
Es	-0.986914	0.818012	1.101149	99
Es	-0.063409	0.429085	0.410218	99
Es	0.918048	1.222451	-1.302627	99
Es	-1.154202	-1.414105	0.048772	99
Es	0.995656	0.384879	-0.357782	99
Es	2.985398	0.503274	-1.622665	99
Es	3.427943	0.198407	-2.067005	99
Es	1.012050	0.982218	-0.069974	99
Es	1.068967	0.157518	0.899043	99
Es	-3.057204	-0.637668	1.424956	99
Es	-2.101297	-1.012354	0.736512	99
Es	-2.853182	-1.027317	0.819482	99
Es	-1.020758	-1.330529	1.252643	99
Es	-0.816645	0.420250	0.495378	99
Es	-3.094772	-1.729868	0.898785	99
Es	1.306807	0.938156	-0.742672	99
Es	2.789113	0.978224	-0.911402	99
Es	-1.341366	-1.007098	0.651950	99
Es	2.982273	0.375304	-2.307145	99
Es	2.039751	0.959417	-0.812402	99
Es	3.013202	1.681088	-1.003142	99
Es	3.126323	0.239512	-2.073470	99
Es	-1.067741	-0.287886	0.573128	99
Es	-3.188930	-0.728432	0.221598	99
47
Properties=species:S:1:pos:R:3:Z:I:1 energy=-309.14580695257706 field_type=dipole dipole="0.000000 0.000000 0.000000" charge=0
C	-2.853203	-1.027316	0.819484	6
C	-1.341343	-1.007136	0.651944	6
C	-0.816693	0.420274	0.495374	6
C	0.677567	0.439154	0.333334	6
C	1.306747	0.938124	-0.742596	6
C	2.789107	0.978344	-0.911216	6
O	3.126437	0.239624	-2.073606	8
H	-3.207793	-2.055996	0.935854	1
H	-3.349713	-0.593416	-0.053856	1
H	-3.156863	-0.460706	1.705094	1
H	-1.069433	-1.607076	-0.225416	1
H	-0.878463	-1.485206	1.524314	1
H	-1.076323	1.010124	1.381834	1
H	-1.304973	0.900294	-0.361246	1
H	1.259047	0.031024	1.159494	1
H	0.727957	1.357334	-1.562376	1
H	3.322297	0.549284	-0.057076	1
H	3.127227	2.010574	-1.045706	1
H	2.718417	-0.637306	-1.973636	1
Es	3.428771	0.199234	-2.068696	99
Es	3.013271	1.681087	-1.003092	99
Es	-0.986953	0.817973	1.101160	99
Es	-3.057117	-0.637809	1.424931	99
Es	1.012062	0.982154	-0.070050	99
Es	-1.146870	0.745530	-0.093558	99
Es	1.306804	0.938155	-0.742668	99
Es	-3.188964	-0.728256	0.221579	99
Es	1.069026	0.157453	0.899005	99
Es	-1.067687	-0.287847	0.573066	99
Es	-2.101293	-1.012435	0.736594	99
Es	-1.154212	-1.414128	0.048813	99
Es	-0.063388	0.429101	0.410141	99
Es	2.985338	0.503526	-1.622709	99
Es	2.039800	0.959504	-0.812329	99
Es	0.917976	1.222386	-1.302656	99
Es	-3.094845	-1.729838	0.898766	99
Es	0.995659	0.385047	-0.357648	99
Es	3.145267	0.683519	-0.312804	99
Es	-2.853185	-1.027316	0.819480	99
Es	-0.816645	0.420250	0.495378	99
Es	-1.020821	-1.330554	1.252558	99
Es	2.789112	0.978225	-0.911400	99
Es	0.677505	0.439116	0.333420	99
Es	3.126253	0.239506	-2.073338	99
Es	-1.341365	-1.007095	0.651949	99
Es	2.900733	-0.228213	-2.000203	99
Es	2.980901	0.374278	-2.306121	99
47
Properties=species:S:1:pos:R:3:Z:I:1 energy=-309.14580695257706 field_type=dipole dipole="0.000000 0.000000 0.000000" charge=0
C	-2.853203	-1.027316	0.819484	6
C	-1.341343	-1.007136	0.651944	6
C	-0.816693	0.420274	0.495374	6
C	0.677567	0.439154	0.333334	6
C	1.306747	0.938124	-0.742596	6
C	2.789107	0.978344	-0.911216	6
O	3.126437	0.239624	-2.073606	8
H	-3.207793	-2.055996	0.935854	1
H	-3.349713	-0.593416	-0.053856	1
H	-3.156863	-0.460706	1.705094	1
H	-1.069433	-1.607076	-0.225416	1
H	-0.878463	-1.485206	1.524314	1
H	-1.076323	1.010124	1.381834	1
H	-1.304973	0.900294	-0.361246	1
H	1.259047	0.031024	1.159494	1
H	0.727957	1.357334	-1.562376	1
H	3.322297	0.549284	-0.057076	1
H	3.127227	2.010574	-1.045706	1
H	2.718417	-0.637306	-1.973636	1
Es	1.012053	0.982047	-0.070098	99
Es	2.901179	-0.228532	-2.000219	99
Es	1.306803	0.938155	-0.742667	99
Es	3.428992	0.200076	-2.070587	99
Es	1.069034	0.157511	0.899021	99
Es	0.995677	0.385162	-0.357581	99
Es	2.039910	0.959435	-0.812384	99
Es	-2.101296	-1.012496	0.736529	99
Es	2.789112	0.978224	-0.911400	99
Es	-1.146831	0.745539	-0.093571	99
Es	-0.986962	0.817982	1.101097	99
Es	2.979629	0.373843	-2.304704	99
Es	-1.067769	-0.287879	0.573150	99
Es	-3.188930	-0.728395	0.221594	99
Es	-1.020799	-1.330572	1.252538	99
Es	0.917914	1.222362	-1.302648	99
Es	-1.341366	-1.007098	0.651950	99
Es	0.677516	0.439118	0.333417	99
Es	-1.154151	-1.414048	0.048802	99
Es	-0.063419	0.429117	0.410175	99
Es	-2.853181	-1.027317	0.819482	99
Es	2.985967	0.503436	-1.622252	99
Es	-3.057189	-0.637692	1.424918	99
Es	3.013250	1.681130	-1.003054	99
Es	3.145189	0.683516	-0.312800	99
Es	-0.816646	0.420251	0.495378	99
Es	-3.094845	-1.729814	0.898798	99
Es	3.126289	0.239495	-2.073316	99
47
Properties=species:S:1:pos:R:3:Z:I:1 energy=-309.14580695257706 field_type=dipole dipole="0.000000 0.000000 0.000000" charge=0
C	-2.853203	-1.027316	0.819484	6
C	-1.341343	-1.007136	0.651944	6
C	-0.816693	0.420274	0.495374	6
C	0.677567	0.439154	0.333334	6
C	1.306747	0.938124	-0.742596	6
C	2.789107	0.978344	-0.911216	6
O	3.126437	0.239624	-2.073606	8
H	-3.207793	-2.055996	0.935854	1
H	-3.349713	-0.593416	-0.053856	1
H	-3.156863	-0.460706	1.705094	1
H	-1.069433	-1.607076	-0.225416	1
H	-0.878463	-1.485206	1.524314	1
H	-1.076323	1.010124	1.381834	1
H	-1.304973	0.900294	-0.361246	1
H	1.259047	0.031024	1.159494	1
H	0.727957	1.357334	-1.562376	1
H	3.322297	0.549284	-0.057076	1
H	3.127227	2.010574	-1.045706	1
H	2.718417	-0.637306	-1.973636	1
Es	-0.986893	0.818042	1.101065	99
Es	-1.020780	-1.330554	1.252493	99
Es	3.013235	1.681067	-1.003059	99
Es	3.145249	0.683546	-0.312802	99
Es	-0.816646	0.420251	0.495377	99
Es	-1.341367	-1.007099	0.651950	99
Es	-1.067695	-0.287972	0.573168	99
Es	1.306803	0.938154	-0.742667	99
Es	3.126262	0.239586	-2.073365	99
Es	2.789113	0.978227	-0.911397	99
Es	0.995584	0.385293	-0.357514	99
Es	1.012059	0.982100	-0.070132	99
Es	-3.094880	-1.729830	0.898874	99
Es	3.429643	0.201069	-2.071984	99
Es	0.917949	1.222305	-1.302677	99
Es	2.977717	0.372614	-2.304289	99
Es	0.677504	0.439114	0.333421	99
Es	1.069140	0.157431	0.898930	99
Es	-3.057187	-0.637655	1.424832	99
Es	2.985775	0.503611	-1.622405	99
Es	2.902630	-0.228570	-1.999070	99
Es	2.039893	0.959467	-0.812328	99
Es	-1.154142	-1.414044	0.048891	99
Es	-0.063529	0.429156	0.410174	99
Es	-1.146857	0.745503	-0.093539	99
Es	-2.101307	-1.012484	0.736486	99
Es	-3.188959	-0.728456	0.221652	99
Es	-2.853183	-1.027317	0.819481	99
