41
Properties=species:S:1:pos:R:3:Z:I:1 energy=-306.7954063324387 field_type=dipole dipole="0.000000 0.000000 0.000000" charge=0
C	-2.169635	0.072984	-0.517181	6
C	-0.856965	-0.371686	0.063209	6
C	-0.726215	-1.552946	0.690009	6
C	0.256095	0.627244	-0.077841	6
O	0.006065	1.806824	-0.311091	8
C	1.659745	0.137854	0.024789	6
C	2.678965	1.006614	0.043109	6
H	-2.539075	0.963504	0.002119	1
H	-2.938855	-0.702156	-0.432141	1
H	-2.057105	0.308964	-1.580641	1
H	-1.571755	-2.230286	0.777079	1
H	0.191565	-1.882066	1.163139	1
H	1.849456	-0.926036	0.057989	1
H	2.512386	2.079874	-0.005371	1
H	3.705325	0.661314	0.102819	1
Es	0.089092	1.425709	0.019893	99
Es	-1.504346	-0.155487	-0.225256	99
Es	-0.103760	-1.776516	1.005479	99
Es	1.776869	-0.583920	0.050533	99
Es	0.102643	1.334974	-0.472832	99
Es	-2.408403	0.661864	-0.163248	99
Es	-0.726197	-1.553026	0.690051	99
Es	0.006105	1.806507	-0.311027	99
Es	-0.301324	1.862895	-0.328601	99
Es	2.100146	0.562617	0.352376	99
Es	0.266064	1.984736	-0.337113	99
Es	2.136763	0.542321	-0.282081	99
Es	0.958996	0.360615	-0.018121	99
Es	-0.679659	-1.089994	0.091724	99
Es	2.679050	1.006656	0.043115	99
Es	-1.295143	-2.011194	0.751423	99
Es	2.580824	1.719043	0.013535	99
Es	-2.084000	0.226561	-1.230229	99
Es	-2.169579	0.072949	-0.517158	99
Es	-2.685624	-0.463674	-0.453789	99
Es	-0.856951	-0.371577	0.063161	99
Es	0.256099	0.627192	-0.077828	99
Es	3.373319	0.776679	0.083817	99
Es	-0.842246	-0.797560	0.646514	99
Es	-0.295196	0.108720	-0.004906	99
Es	1.659630	0.137808	0.024802	99
41
Properties=species:S:1:pos:R:3:Z:I:1 energy=-306.7954063324387 field_type=dipole dipole="0.000000 0.000000 0.000000" charge=0
C	-2.169635	0.072984	-0.517181	6
C	-0.856965	-0.371686	0.063209	6
C	-0.726215	-1.552946	0.690009	6
C	0.256095	0.627244	-0.077841	6
O	0.006065	1.806824	-0.311091	8
C	1.659745	0.137854	0.024789	6
C	2.678965	1.006614	0.043109	6
H	-2.539075	0.963504	0.002119	1
H	-2.938855	-0.702156	-0.432141	1
H	-2.057105	0.308964	-1.580641	1
H	-1.571755	-2.230286	0.777079	1
H	0.191565	-1.882066	1.163139	1
H	1.849456	-0.926036	0.057989	1
H	2.512386	2.079874	-0.005371	1
H	3.705325	0.661314	0.102819	1
Es	0.267573	1.982367	-0.336560	99
Es	-2.083885	0.226556	-1.230291	99
Es	-1.295143	-2.011181	0.751452	99
Es	2.100248	0.562680	0.352346	99
Es	0.101963	1.335468	-0.472409	99
Es	1.659634	0.137811	0.024784	99
Es	2.580891	1.719130	0.013616	99
Es	2.679047	1.006657	0.043121	99
Es	-0.295182	0.108710	-0.004869	99
Es	-0.842207	-0.797645	0.646303	99
Es	-0.726201	-1.553022	0.690063	99
Es	2.136652	0.542287	-0.281963	99
Es	0.088437	1.424937	0.019524	99
Es	-0.856944	-0.371582	0.063142	99
Es	0.006142	1.806542	-0.311034	99
Es	0.256099	0.627192	-0.077829	99
Es	-0.301614	1.865456	-0.329243	99
Es	1.776936	-0.583933	0.050654	99
Es	-2.408476	0.661843	-0.163243	99
Es	-2.685558	-0.463702	-0.453822	99
Es	-0.103670	-1.776474	1.005519	99
Es	-2.169589	0.072950	-0.517160	99
Es	0.959041	0.360671	-0.018210	99
Es	-1.504522	-0.155457	-0.225160	99
Es	3.373235	0.776611	0.083668	99
Es	-0.679735	-1.089974	0.091835	99
41
Properties=species:S:1:pos:R:3:Z:I:1 energy=-306.7954063324387 field_type=dipole dipole="0.000000 0.000000 0.000000" charge=0
C	-2.169635	0.072984	-0.517181	6
C	-0.856965	-0.371686	0.063209	6
C	-0.726215	-1.552946	0.690009	6
C	0.256095	0.627244	-0.077841	6
O	0.006065	1.806824	-0.311091	8
C	1.659745	0.137854	0.024789	6
C	2.678965	1.006614	0.043109	6
H	-2.539075	0.963504	0.002119	1
H	-2.938855	-0.702156	-0.432141	1
H	-2.057105	0.308964	-1.580641	1
H	-1.571755	-2.230286	0.777079	1
H	0.191565	-1.882066	1.163139	1
H	1.849456	-0.926036	0.057989	1
H	2.512386	2.079874	-0.005371	1
H	3.705325	0.661314	0.102819	1
Es	1.659633	0.137810	0.024803	99
Es	0.100936	1.335402	-0.472757	99
Es	-0.726202	-1.553020	0.690060	99
Es	3.373318	0.776599	0.083905	99
Es	-1.295320	-2.011097	0.751478	99
Es	0.006122	1.806547	-0.311045	99
Es	0.268078	1.981387	-0.336818	99
Es	0.959071	0.360639	-0.018121	99
Es	2.100258	0.562754	0.352198	99
Es	-2.084020	0.226583	-1.230259	99
Es	-0.295287	0.108618	-0.004872	99
Es	2.679048	1.006656	0.043114	99
Es	2.136735	0.542222	-0.282039	99
Es	1.776872	-0.583882	0.050639	99
Es	-2.169579	0.072950	-0.517159	99
Es	-0.301284	1.866683	-0.328545	99
Es	-0.842022	-0.797675	0.646360	99
Es	-2.685609	-0.463698	-0.453753	99
Es	-1.504427	-0.155407	-0.225335	99
Es	2.580766	1.719149	0.013558	99
Es	-0.856950	-0.371576	0.063157	99
Es	0.088690	1.424714	0.019379	99
Es	-0.103639	-1.776586	1.005420	99
Es	0.256099	0.627193	-0.077829	99
Es	-2.408397	0.661824	-0.163242	99
Es	-0.679717	-1.089889	0.091937	99
41
Properties=species:S:1:pos:R:3:Z:I:1 energy=-306.7954063324387 field_type=dipole dipole="0.000000 0.000000 0.000000" charge=0
C	-2.169635	0.072984	-0.517181	6
C	-0.856965	-0.371686	0.063209	6
C	-0.726215	-1.552946	0.690009	6
C	0.256095	0.627244	-0.077841	6
O	0.006065	1.806824	-0.311091	8
C	1.659745	0.137854	0.024789	6
C	2.678965	1.006614	0.043109	6
H	-2.539075	0.963504	0.002119	1
H	-2.938855	-0.702156	-0.432141	1
H	-2.057105	0.308964	-1.580641	1
H	-1.571755	-2.230286	0.777079	1
H	0.191565	-1.882066	1.163139	1
H	1.849456	-0.926036	0.057989	1
H	2.512386	2.079874	-0.005371	1
H	3.705325	0.661314	0.102819	1
Es	0.088483	1.424152	0.019326	99
Es	1.659637	0.137813	0.024790	99
Es	-0.679693	-1.089869	0.092052	99
Es	2.679048	1.006657	0.043118	99
Es	-2.083980	0.226569	-1.230265	99
Es	3.373347	0.776618	0.083842	99
Es	-0.726201	-1.553022	0.690061	99
Es	-0.103689	-1.776461	1.005485	99
Es	0.959082	0.360652	-0.018195	99
Es	0.267379	1.982679	-0.336190	99
Es	-1.504530	-0.155449	-0.225357	99
Es	-0.842091	-0.797678	0.646254	99
Es	2.136834	0.542281	-0.281841	99
Es	1.776900	-0.583892	0.050562	99
Es	-0.856950	-0.371577	0.063159	99
Es	2.100189	0.562718	0.352269	99
Es	0.101733	1.335964	-0.473110	99
Es	2.580696	1.719167	0.013488	99
Es	-1.295206	-2.011210	0.751447	99
Es	-0.301270	1.865382	-0.328813	99
Es	-2.408449	0.661828	-0.163265	99
Es	-2.685580	-0.463697	-0.453787	99
Es	0.256099	0.627191	-0.077834	99
Es	-2.169580	0.072948	-0.517158	99
Es	-0.295207	0.108627	-0.004776	99
Es	0.006172	1.806507	-0.311027	99
41
Properties=species:S:1:pos:R:3:Z:I:1 energy=-306.7954063324387 field_type=dipole dipole="0.000000 0.000000 0.000000" charge=0
C	-2.169635	0.072984	-0.517181	6
C	-0.856965	-0.371686	0.063209	6
C	-0.726215	-1.552946	0.690009	6
C	0.256095	0.627244	-0.077841	6
O	0.006065	1.806824	-0.311091	8
C	1.659745	0.137854	0.024789	6
C	2.678965	1.006614	0.043109	6
H	-2.539075	0.963504	0.002119	1
H	-2.938855	-0.702156	-0.432141	1
H	-2.057105	0.308964	-1.580641	1
H	-1.571755	-2.230286	0.777079	1
H	0.191565	-1.882066	1.163139	1
H	1.849456	-0.926036	0.057989	1
H	2.512386	2.079874	-0.005371	1
H	3.705325	0.661314	0.102819	1
Es	-0.103635	-1.776454	1.005446	99
Es	-0.726200	-1.553022	0.690061	99
Es	2.136791	0.542326	-0.281844	99
Es	-2.083990	0.226559	-1.230268	99
Es	-0.301662	1.865293	-0.328713	99
Es	2.679046	1.006656	0.043117	99
Es	0.088654	1.424782	0.019013	99
Es	0.006081	1.806457	-0.311023	99
Es	-0.295209	0.108580	-0.004833	99
Es	3.373358	0.776536	0.083876	99
Es	-0.856950	-0.371578	0.063160	99
Es	2.580707	1.719200	0.013516	99
Es	-0.842036	-0.797678	0.646210	99
Es	0.267263	1.982711	-0.336132	99
Es	0.102146	1.335418	-0.472830	99
Es	-2.685561	-0.463692	-0.453789	99
Es	2.100219	0.562798	0.352163	99
Es	-1.504569	-0.155447	-0.225400	99
Es	-2.169579	0.072948	-0.517158	99
Es	0.256099	0.627193	-0.077829	99
Es	-1.295224	-2.011244	0.751413	99
Es	0.959086	0.360633	-0.018250	99
Es	-0.679736	-1.089830	0.092202	99
Es	1.659637	0.137813	0.024795	99
Es	-2.408460	0.661838	-0.163251	99
Es	1.776899	-0.583896	0.050582	99
41
Properties=species:S:1:pos:R:3:Z:I:1 energy=-306.7954063324387 field_type=dipole dipole="0.000000 0.000000 0.000000" charge=0
C	-2.169635	0.072984	-0.517181	6
C	-0.856965	-0.371686	0.063209	6
C	-0.726215	-1.552946	0.690009	6
C	0.256095	0.627244	-0.077841	6
O	0.006065	1.806824	-0.311091	8
C	1.659745	0.137854	0.024789	6
C	2.678965	1.006614	0.043109	6
H	-2.539075	0.963504	0.002119	1
H	-2.938855	-0.702156	-0.432141	1
H	-2.057105	0.308964	-1.580641	1
H	-1.571755	-2.230286	0.777079	1
H	0.191565	-1.882066	1.163139	1
H	1.849456	-0.926036	0.057989	1
H	2.512386	2.079874	-0.005371	1
H	3.705325	0.661314	0.102819	1
Es	-0.679737	-1.089766	0.092298	99
Es	0.102212	1.335448	-0.472590	99
Es	0.006081	1.806529	-0.311035	99
Es	3.373378	0.776504	0.083872	99
Es	2.136835	0.542354	-0.281745	99
Es	-0.295235	0.108547	-0.004800	99
Es	-0.856950	-0.371579	0.063160	99
Es	-2.083996	0.226563	-1.230268	99
Es	-0.726201	-1.553021	0.690060	99
Es	-0.300808	1.863837	-0.329068	99
Es	2.679047	1.006656	0.043117	99
Es	0.256099	0.627193	-0.077829	99
Es	2.580678	1.719223	0.013505	99
Es	-1.295245	-2.011251	0.751411	99
Es	-0.103606	-1.776438	1.005447	99
Es	-2.685565	-0.463680	-0.453789	99
Es	-2.408451	0.661835	-0.163250	99
Es	0.266314	1.983859	-0.336963	99
Es	-2.169580	0.072948	-0.517158	99
Es	0.088671	1.424948	0.019919	99
Es	1.776900	-0.583898	0.050564	99
Es	1.659636	0.137812	0.024791	99
Es	-0.841995	-0.797737	0.646141	99
Es	-1.504627	-0.155455	-0.225424	99
Es	0.959138	0.360661	-0.018265	99
Es	2.100181	0.562805	0.352134	99
41
Properties=species:S:1:pos:R:3:Z:I:1 energy=-306.7954063324387 field_type=dipole dipole="0.000000 0.000000 0.000000" charge=0
C	-2.169635	0.072984	-0.517181	6
C	-0.856965	-0.371686	0.063209	6
C	-0.726215	-1.552946	0.690009	6
C	0.256095	0.627244	-0.077841	6
O	0.006065	1.806824	-0.311091	8
C	1.659745	0.137854	0.024789	6
C	2.678965	1.006614	0.043109	6
H	-2.539075	0.963504	0.002119	1
H	-2.938855	-0.702156	-0.432141	1
H	-2.057105	0.308964	-1.580641	1
H	-1.571755	-2.230286	0.777079	1
H	0.191565	-1.882066	1.163139	1
H	1.849456	-0.926036	0.057989	1
H	2.512386	2.079874	-0.005371	1
H	3.705325	0.661314	0.102819	1
Es	3.373395	0.776496	0.083869	99
Es	0.088079	1.424761	0.020148	99
Es	-0.726200	-1.553021	0.690060	99
Es	-0.103590	-1.776466	1.005435	99
Es	-0.856950	-0.371579	0.063160	99
Es	1.776912	-0.583906	0.050549	99
Es	-1.504689	-0.155463	-0.225441	99
Es	2.679047	1.006656	0.043117	99
Es	-2.084006	0.226573	-1.230275	99
Es	1.659637	0.137813	0.024791	99
Es	2.100172	0.562810	0.352098	99
Es	-0.301060	1.864666	-0.330044	99
Es	0.256099	0.627193	-0.077829	99
Es	-0.679749	-1.089716	0.092407	99
Es	2.136865	0.542378	-0.281672	99
Es	-2.685558	-0.463670	-0.453788	99
Es	0.103094	1.335658	-0.472935	99
Es	-0.295239	0.108516	-0.004810	99
Es	0.006104	1.806439	-0.311019	99
Es	-2.169580	0.072948	-0.517158	99
Es	0.266244	1.983064	-0.335897	99
Es	0.959153	0.360670	-0.018274	99
Es	-2.408442	0.661827	-0.163240	99
Es	-1.295286	-2.011237	0.751396	99
Es	2.580635	1.719247	0.013494	99
Es	-0.841911	-0.797759	0.646090	99
41
Properties=species:S:1:pos:R:3:Z:I:1 energy=-306.7954063324387 field_type=dipole dipole="0.000000 0.000000 0.000000" charge=0
C	-2.169635	0.072984	-0.517181	6
C	-0.856965	-0.371686	0.063209	6
C	-0.726215	-1.552946	0.690009	6
C	0.256095	0.627244	-0.077841	6
O	0.006065	1.806824	-0.311091	8
C	1.659745	0.137854	0.024789	6
C	2.678965	1.006614	0.043109	6
H	-2.539075	0.963504	0.002119	1
H	-2.938855	-0.702156	-0.432141	1
H	-2.057105	0.308964	-1.580641	1
H	-1.571755	-2.230286	0.777079	1
H	0.191565	-1.882066	1.163139	1
H	1.849456	-0.926036	0.057989	1
H	2.512386	2.079874	-0.005371	1
H	3.705325	0.661314	0.102819	1
Es	0.101531	1.335366	-0.472447	99
Es	-2.685461	-0.463670	-0.453868	99
Es	3.373411	0.776459	0.083874	99
Es	2.580619	1.719267	0.013490	99
Es	2.679047	1.006656	0.043117	99
Es	1.776904	-0.583905	0.050574	99
Es	0.267207	1.982103	-0.337004	99
Es	-0.295242	0.108481	-0.004773	99
Es	2.100190	0.562858	0.352036	99
Es	-0.726200	-1.553021	0.690060	99
Es	-2.408559	0.661837	-0.163196	99
Es	-0.841930	-0.797802	0.646023	99
Es	-2.084003	0.226567	-1.230260	99
Es	0.256099	0.627193	-0.077829	99
Es	-1.295267	-2.011309	0.751402	99
Es	-2.169582	0.072950	-0.517156	99
Es	-0.103534	-1.776379	1.005418	99
Es	0.006021	1.806433	-0.311014	99
Es	-0.300760	1.865817	-0.329385	99
Es	-0.679777	-1.089662	0.092540	99
Es	2.136860	0.542399	-0.281649	99
Es	1.659637	0.137813	0.024791	99
Es	0.088431	1.424821	0.020117	99
Es	-0.856951	-0.371580	0.063161	99
Es	0.959187	0.360678	-0.018289	99
Es	-1.504703	-0.155472	-0.225500	99
41
Properties=species:S:1:pos:R:3:Z:I:1 energy=-306.7954063324387 field_type=dipole dipole="0.000000 0.000000 0.000000" charge=0
C	-2.169635	0.072984	-0.517181	6
C	-0.856965	-0.371686	0.063209	6
C	-0.726215	-1.552946	0.690009	6
C	0.256095	0.627244	-0.077841	6
O	0.006065	1.806824	-0.311091	8
C	1.659745	0.137854	0.024789	6
C	2.678965	1.006614	0.043109	6
H	-2.539075	0.963504	0.002119	1
H	-2.938855	-0.702156	-0.432141	1
H	-2.057105	0.308964	-1.580641	1
H	-1.571755	-2.230286	0.777079	1
H	0.191565	-1.882066	1.163139	1
H	1.849456	-0.926036	0.057989	1
H	2.512386	2.079874	-0.005371	1
H	3.705325	0.661314	0.102819	1
Es	2.679047	1.006656	0.043117	99
Es	1.659638	0.137813	0.024790	99
Es	-1.504821	-0.155507	-0.225505	99
Es	0.089227	1.424956	0.019939	99
Es	-2.169580	0.072948	-0.517158	99
Es	-0.295284	0.108468	-0.004805	99
Es	2.100233	0.562844	0.352032	99
Es	2.136843	0.542459	-0.281933	99
Es	-0.841815	-0.797811	0.645971	99
Es	-2.408382	0.661909	-0.163313	99
Es	0.959256	0.360689	-0.018016	99
Es	-0.103503	-1.776438	1.005386	99
Es	-0.856951	-0.371580	0.063162	99
Es	2.580655	1.719256	0.013533	99
Es	0.101942	1.335372	-0.472527	99
Es	-2.084005	0.226460	-1.230295	99
Es	-2.685602	-0.463620	-0.453703	99
Es	0.006181	1.806520	-0.311035	99
Es	-1.295302	-2.011264	0.751399	99
Es	0.266352	1.982840	-0.337324	99
Es	3.373394	0.776458	0.083866	99
Es	-0.726200	-1.553020	0.690060	99
Es	-0.679812	-1.089613	0.092654	99
Es	1.776826	-0.583872	0.050619	99
Es	0.256099	0.627193	-0.077832	99
Es	-0.301263	1.864785	-0.328847	99
