44
Properties=species:S:1:pos:R:3:Z:I:1 energy=-307.94980748810605 field_type=dipole dipole="0.000000 0.000000 0.000000" charge=0
C	0.083021	-2.031463	0.978036	6
C	-0.475119	-0.642773	1.089816	6
C	-1.465369	-0.345673	1.949326	6
C	0.148711	0.395477	0.191506	6
O	-0.212129	0.094067	-1.157224	8
C	0.252891	0.924417	-2.136914	6
C	1.057081	1.988637	-2.031364	6
H	-0.017769	-2.409743	-0.044194	1
H	-0.429719	-2.736073	1.643486	1
H	1.145291	-2.035673	1.247506	1
H	-1.906609	-1.101303	2.590186	1
H	-1.871349	0.657637	2.022466	1
H	1.239060	0.366077	0.308866	1
H	-0.208229	1.398757	0.453256	1
H	-0.136479	0.595807	-3.095044	1
H	1.463701	2.335337	-1.088984	1
H	1.333021	2.546487	-2.920724	1
Es	1.241738	2.362810	-2.629476	99
Es	0.252742	0.924181	-2.136730	99
Es	-0.752269	-0.411924	1.761611	99
Es	-0.500321	0.132806	-1.186927	99
Es	0.083014	-2.031420	0.978045	99
Es	0.421006	1.693338	-2.035257	99
Es	0.893723	0.373651	0.271514	99
Es	1.329950	2.220876	-1.392754	99
Es	-1.465431	-0.345645	1.949397	99
Es	-0.211937	0.094348	-1.157171	99
Es	-1.766169	-0.856221	2.387462	99
Es	-0.475017	-0.642795	1.089712	99
Es	0.014602	-2.276505	0.292001	99
Es	-0.010515	0.701710	-2.785308	99
Es	-1.742478	0.336351	2.003192	99
Es	-0.196741	-1.335572	1.032073	99
Es	-0.007671	0.443999	-1.491655	99
Es	-0.054580	0.238105	-0.665204	99
Es	0.801096	-2.021449	1.159398	99
Es	-1.199821	-0.552453	1.300669	99
Es	-0.268427	-2.503926	1.433311	99
Es	1.057100	1.988692	-2.031346	99
Es	-0.076276	-0.150917	-1.236357	99
Es	-0.093931	1.082559	0.369582	99
Es	0.148639	0.395384	0.191288	99
Es	0.950951	1.301837	-2.117293	99
Es	-0.165934	-0.125292	0.636068	99
44
Properties=species:S:1:pos:R:3:Z:I:1 energy=-307.94980748810605 field_type=dipole dipole="0.000000 0.000000 0.000000" charge=0
C	0.083021	-2.031463	0.978036	6
C	-0.475119	-0.642773	1.089816	6
C	-1.465369	-0.345673	1.949326	6
C	0.148711	0.395477	0.191506	6
O	-0.212129	0.094067	-1.157224	8
C	0.252891	0.924417	-2.136914	6
C	1.057081	1.988637	-2.031364	6
H	-0.017769	-2.409743	-0.044194	1
H	-0.429719	-2.736073	1.643486	1
H	1.145291	-2.035673	1.247506	1
H	-1.906609	-1.101303	2.590186	1
H	-1.871349	0.657637	2.022466	1
H	1.239060	0.366077	0.308866	1
H	-0.208229	1.398757	0.453256	1
H	-0.136479	0.595807	-3.095044	1
H	1.463701	2.335337	-1.088984	1
H	1.333021	2.546487	-2.920724	1
Es	-1.199835	-0.552383	1.300612	99
Es	-0.093732	1.082478	0.369464	99
Es	-1.742424	0.336270	2.003309	99
Es	-0.268412	-2.503914	1.433293	99
Es	-0.196860	-1.335631	1.031991	99
Es	0.801028	-2.021403	1.159486	99
Es	-0.010596	0.701807	-2.785385	99
Es	-0.166122	-0.125167	0.636222	99
Es	-0.499563	0.135946	-1.186396	99
Es	-1.766154	-0.856181	2.387459	99
Es	0.420943	1.693046	-2.035113	99
Es	1.329943	2.220894	-1.392780	99
Es	-0.079068	-0.152833	-1.236673	99
Es	0.148637	0.395382	0.191281	99
Es	-0.752301	-0.412006	1.761547	99
Es	-0.211861	0.094392	-1.157146	99
Es	-0.474996	-0.642791	1.089723	99
Es	0.252736	0.924188	-2.136730	99
Es	-1.465429	-0.345646	1.949395	99
Es	0.893692	0.373675	0.271541	99
Es	0.014722	-2.276592	0.291997	99
Es	1.241749	2.362795	-2.629468	99
Es	0.951078	1.302070	-2.117337	99
Es	-0.053529	0.237576	-0.665390	99
Es	0.083015	-2.031422	0.978045	99
Es	-0.006733	0.443301	-1.491755	99
Es	1.057116	1.988678	-2.031349	99
44
Properties=species:S:1:pos:R:3:Z:I:1 energy=-307.94980748810605 field_type=dipole dipole="0.000000 0.000000 0.000000" charge=0
C	0.083021	-2.031463	0.978036	6
C	-0.475119	-0.642773	1.089816	6
C	-1.465369	-0.345673	1.949326	6
C	0.148711	0.395477	0.191506	6
O	-0.212129	0.094067	-1.157224	8
C	0.252891	0.924417	-2.136914	6
C	1.057081	1.988637	-2.031364	6
H	-0.017769	-2.409743	-0.044194	1
H	-0.429719	-2.736073	1.643486	1
H	1.145291	-2.035673	1.247506	1
H	-1.906609	-1.101303	2.590186	1
H	-1.871349	0.657637	2.022466	1
H	1.239060	0.366077	0.308866	1
H	-0.208229	1.398757	0.453256	1
H	-0.136479	0.595807	-3.095044	1
H	1.463701	2.335337	-1.088984	1
H	1.333021	2.546487	-2.920724	1
Es	-0.166040	-0.125134	0.636058	99
Es	1.330013	2.220821	-1.392794	99
Es	-0.010501	0.701759	-2.785447	99
Es	-1.742470	0.336332	2.003246	99
Es	1.241853	2.362738	-2.629475	99
Es	-0.499452	0.134112	-1.186467	99
Es	-0.752320	-0.411980	1.761626	99
Es	0.014701	-2.276452	0.291930	99
Es	1.057109	1.988682	-2.031348	99
Es	0.148639	0.395384	0.191287	99
Es	-0.053703	0.237347	-0.664943	99
Es	-0.078129	-0.151513	-1.236920	99
Es	0.420988	1.693267	-2.035191	99
Es	-0.268490	-2.503961	1.433249	99
Es	0.950758	1.302056	-2.117212	99
Es	-1.465427	-0.345647	1.949392	99
Es	0.083012	-2.031420	0.978047	99
Es	-0.093802	1.082586	0.369519	99
Es	-0.211885	0.094388	-1.157150	99
Es	-1.766252	-0.856225	2.387331	99
Es	-0.196859	-1.335784	1.032097	99
Es	0.252745	0.924182	-2.136733	99
Es	0.893649	0.373601	0.271559	99
Es	-0.007572	0.443936	-1.491851	99
Es	-1.199558	-0.552321	1.300793	99
Es	0.801049	-2.021433	1.159512	99
Es	-0.475011	-0.642792	1.089728	99
44
Properties=species:S:1:pos:R:3:Z:I:1 energy=-307.94980748810605 field_type=dipole dipole="0.000000 0.000000 0.000000" charge=0
C	0.083021	-2.031463	0.978036	6
C	-0.475119	-0.642773	1.089816	6
C	-1.465369	-0.345673	1.949326	6
C	0.148711	0.395477	0.191506	6
O	-0.212129	0.094067	-1.157224	8
C	0.252891	0.924417	-2.136914	6
C	1.057081	1.988637	-2.031364	6
H	-0.017769	-2.409743	-0.044194	1
H	-0.429719	-2.736073	1.643486	1
H	1.145291	-2.035673	1.247506	1
H	-1.906609	-1.101303	2.590186	1
H	-1.871349	0.657637	2.022466	1
H	1.239060	0.366077	0.308866	1
H	-0.208229	1.398757	0.453256	1
H	-0.136479	0.595807	-3.095044	1
H	1.463701	2.335337	-1.088984	1
H	1.333021	2.546487	-2.920724	1
Es	0.421070	1.693105	-2.035121	99
Es	0.083014	-2.031420	0.978044	99
Es	1.241760	2.362826	-2.629445	99
Es	-0.010527	0.701838	-2.785484	99
Es	-0.268318	-2.503954	1.433486	99
Es	0.252745	0.924184	-2.136733	99
Es	-1.199493	-0.552360	1.300943	99
Es	-0.008351	0.444173	-1.490983	99
Es	-0.196790	-1.335751	1.032059	99
Es	-0.052890	0.237102	-0.665405	99
Es	1.057123	1.988669	-2.031349	99
Es	0.801050	-2.021410	1.159203	99
Es	0.950925	1.302019	-2.117226	99
Es	-0.752490	-0.411996	1.761368	99
Es	-0.475005	-0.642792	1.089721	99
Es	-0.166031	-0.125072	0.636082	99
Es	-1.766142	-0.856259	2.387479	99
Es	-0.211882	0.094353	-1.157186	99
Es	-0.093829	1.082551	0.369556	99
Es	0.148638	0.395383	0.191284	99
Es	-1.742488	0.336367	2.003192	99
Es	-1.465434	-0.345647	1.949391	99
Es	-0.500032	0.134701	-1.185956	99
Es	0.014525	-2.276563	0.292050	99
Es	0.893618	0.373674	0.271558	99
Es	1.329908	2.220889	-1.392843	99
Es	-0.077628	-0.152084	-1.237842	99
44
Properties=species:S:1:pos:R:3:Z:I:1 energy=-307.94980748810605 field_type=dipole dipole="0.000000 0.000000 0.000000" charge=0
C	0.083021	-2.031463	0.978036	6
C	-0.475119	-0.642773	1.089816	6
C	-1.465369	-0.345673	1.949326	6
C	0.148711	0.395477	0.191506	6
O	-0.212129	0.094067	-1.157224	8
C	0.252891	0.924417	-2.136914	6
C	1.057081	1.988637	-2.031364	6
H	-0.017769	-2.409743	-0.044194	1
H	-0.429719	-2.736073	1.643486	1
H	1.145291	-2.035673	1.247506	1
H	-1.906609	-1.101303	2.590186	1
H	-1.871349	0.657637	2.022466	1
H	1.239060	0.366077	0.308866	1
H	-0.208229	1.398757	0.453256	1
H	-0.136479	0.595807	-3.095044	1
H	1.463701	2.335337	-1.088984	1
H	1.333021	2.546487	-2.920724	1
Es	-0.079545	-0.151368	-1.236800	99
Es	0.950692	1.301992	-2.117147	99
Es	-0.196862	-1.335841	1.032127	99
Es	-0.268401	-2.503985	1.433262	99
Es	0.148639	0.395383	0.191285	99
Es	0.801045	-2.021422	1.159437	99
Es	1.057134	1.988667	-2.031352	99
Es	-0.010482	0.701832	-2.785551	99
Es	-0.211948	0.094303	-1.157186	99
Es	-1.199416	-0.552356	1.301027	99
Es	-0.752561	-0.412064	1.761293	99
Es	-0.006812	0.443542	-1.492231	99
Es	1.329958	2.220864	-1.392847	99
Es	-0.498606	0.134897	-1.186829	99
Es	-0.475006	-0.642791	1.089721	99
Es	-0.053894	0.236853	-0.664327	99
Es	-1.465433	-0.345647	1.949392	99
Es	-0.166025	-0.125001	0.636105	99
Es	0.014685	-2.276486	0.291980	99
Es	1.241834	2.362761	-2.629435	99
Es	-1.766168	-0.856239	2.387479	99
Es	0.421123	1.693246	-2.035154	99
Es	0.083014	-2.031421	0.978045	99
Es	-1.742453	0.336394	2.003181	99
Es	0.893596	0.373695	0.271541	99
Es	-0.093808	1.082536	0.369560	99
Es	0.252745	0.924186	-2.136733	99
44
Properties=species:S:1:pos:R:3:Z:I:1 energy=-307.94980748810605 field_type=dipole dipole="0.000000 0.000000 0.000000" charge=0
C	0.083021	-2.031463	0.978036	6
C	-0.475119	-0.642773	1.089816	6
C	-1.465369	-0.345673	1.949326	6
C	0.148711	0.395477	0.191506	6
O	-0.212129	0.094067	-1.157224	8
C	0.252891	0.924417	-2.136914	6
C	1.057081	1.988637	-2.031364	6
H	-0.017769	-2.409743	-0.044194	1
H	-0.429719	-2.736073	1.643486	1
H	1.145291	-2.035673	1.247506	1
H	-1.906609	-1.101303	2.590186	1
H	-1.871349	0.657637	2.022466	1
H	1.239060	0.366077	0.308866	1
H	-0.208229	1.398757	0.453256	1
H	-0.136479	0.595807	-3.095044	1
H	1.463701	2.335337	-1.088984	1
H	1.333021	2.546487	-2.920724	1
Es	0.014692	-2.276481	0.291981	99
Es	-0.474997	-0.642789	1.089731	99
Es	0.421143	1.693088	-2.035113	99
Es	-0.010473	0.701855	-2.785601	99
Es	1.329906	2.220897	-1.392856	99
Es	-0.196881	-1.335904	1.032140	99
Es	-0.166029	-0.124908	0.636119	99
Es	-0.093739	1.082567	0.369583	99
Es	-0.051105	0.235198	-0.664793	99
Es	-1.465432	-0.345647	1.949392	99
Es	-0.496668	0.142689	-1.185300	99
Es	0.083014	-2.031421	0.978044	99
Es	0.893558	0.373641	0.271521	99
Es	1.057113	1.988673	-2.031349	99
Es	-0.211777	0.094354	-1.157164	99
Es	-0.268396	-2.503993	1.433254	99
Es	-1.742459	0.336407	2.003172	99
Es	0.148638	0.395385	0.191289	99
Es	-0.752647	-0.412105	1.761205	99
Es	0.801045	-2.021418	1.159444	99
Es	-0.004775	0.441860	-1.492501	99
Es	0.950789	1.302073	-2.117168	99
Es	-0.086532	-0.155883	-1.237623	99
Es	1.241801	2.362792	-2.629411	99
Es	-1.766167	-0.856253	2.387478	99
Es	-1.199323	-0.552329	1.301101	99
Es	0.252746	0.924184	-2.136733	99
44
Properties=species:S:1:pos:R:3:Z:I:1 energy=-307.94980748810605 field_type=dipole dipole="0.000000 0.000000 0.000000" charge=0
C	0.083021	-2.031463	0.978036	6
C	-0.475119	-0.642773	1.089816	6
C	-1.465369	-0.345673	1.949326	6
C	0.148711	0.395477	0.191506	6
O	-0.212129	0.094067	-1.157224	8
C	0.252891	0.924417	-2.136914	6
C	1.057081	1.988637	-2.031364	6
H	-0.017769	-2.409743	-0.044194	1
H	-0.429719	-2.736073	1.643486	1
H	1.145291	-2.035673	1.247506	1
H	-1.906609	-1.101303	2.590186	1
H	-1.871349	0.657637	2.022466	1
H	1.239060	0.366077	0.308866	1
H	-0.208229	1.398757	0.453256	1
H	-0.136479	0.595807	-3.095044	1
H	1.463701	2.335337	-1.088984	1
H	1.333021	2.546487	-2.920724	1
Es	1.329892	2.220897	-1.392886	99
Es	0.252744	0.924182	-2.136732	99
Es	-0.268383	-2.504013	1.433214	99
Es	1.057110	1.988676	-2.031349	99
Es	-1.465429	-0.345647	1.949392	99
Es	0.083014	-2.031420	0.978044	99
Es	-0.165936	-0.124876	0.636180	99
Es	1.241832	2.362785	-2.629376	99
Es	-1.199412	-0.552364	1.301170	99
Es	-0.752856	-0.412294	1.760846	99
Es	-0.008213	0.444337	-1.491623	99
Es	-0.498687	0.133555	-1.186744	99
Es	0.801043	-2.021499	1.159398	99
Es	-1.742412	0.336591	2.003277	99
Es	-0.196727	-1.335950	1.032479	99
Es	0.148639	0.395384	0.191286	99
Es	-0.093771	1.082506	0.369567	99
Es	-0.211907	0.094378	-1.157149	99
Es	0.014616	-2.276385	0.291917	99
Es	-0.010351	0.701785	-2.785683	99
Es	0.421195	1.693228	-2.035220	99
Es	0.950610	1.302005	-2.117022	99
Es	-0.078225	-0.150866	-1.237654	99
Es	-0.053814	0.236802	-0.664215	99
Es	0.893539	0.373742	0.271539	99
Es	-0.475007	-0.642790	1.089724	99
Es	-1.766061	-0.856221	2.387463	99
44
Properties=species:S:1:pos:R:3:Z:I:1 energy=-307.94980748810605 field_type=dipole dipole="0.000000 0.000000 0.000000" charge=0
C	0.083021	-2.031463	0.978036	6
C	-0.475119	-0.642773	1.089816	6
C	-1.465369	-0.345673	1.949326	6
C	0.148711	0.395477	0.191506	6
O	-0.212129	0.094067	-1.157224	8
C	0.252891	0.924417	-2.136914	6
C	1.057081	1.988637	-2.031364	6
H	-0.017769	-2.409743	-0.044194	1
H	-0.429719	-2.736073	1.643486	1
H	1.145291	-2.035673	1.247506	1
H	-1.906609	-1.101303	2.590186	1
H	-1.871349	0.657637	2.022466	1
H	1.239060	0.366077	0.308866	1
H	-0.208229	1.398757	0.453256	1
H	-0.136479	0.595807	-3.095044	1
H	1.463701	2.335337	-1.088984	1
H	1.333021	2.546487	-2.920724	1
Es	0.893502	0.373718	0.271565	99
Es	0.252746	0.924183	-2.136733	99
Es	1.241842	2.362765	-2.629363	99
Es	-0.475006	-0.642791	1.089723	99
Es	-0.211976	0.094490	-1.157160	99
Es	-0.196956	-1.336018	1.032264	99
Es	-0.052083	0.235743	-0.664545	99
Es	-0.496365	0.142928	-1.186313	99
Es	-1.465432	-0.345647	1.949392	99
Es	1.329928	2.220884	-1.392895	99
Es	0.421226	1.693138	-2.035123	99
Es	-1.742453	0.336442	2.003169	99
Es	0.083014	-2.031422	0.978044	99
Es	-0.093682	1.082505	0.369511	99
Es	-0.752769	-0.412131	1.761040	99
Es	-0.268330	-2.504075	1.433211	99
Es	0.801035	-2.021393	1.159413	99
Es	-0.166122	-0.124813	0.636178	99
Es	-1.199165	-0.552301	1.301252	99
Es	-0.004094	0.441310	-1.492085	99
Es	1.057112	1.988678	-2.031348	99
Es	-0.086308	-0.156311	-1.237316	99
Es	0.014713	-2.276440	0.291995	99
Es	-0.010437	0.701889	-2.785704	99
Es	-1.766155	-0.856247	2.387482	99
Es	0.148639	0.395384	0.191287	99
Es	0.950622	1.302060	-2.117097	99
44
Properties=species:S:1:pos:R:3:Z:I:1 energy=-307.94980748810605 field_type=dipole dipole="0.000000 0.000000 0.000000" charge=0
C	0.083021	-2.031463	0.978036	6
C	-0.475119	-0.642773	1.089816	6
C	-1.465369	-0.345673	1.949326	6
C	0.148711	0.395477	0.191506	6
O	-0.212129	0.094067	-1.157224	8
C	0.252891	0.924417	-2.136914	6
C	1.057081	1.988637	-2.031364	6
H	-0.017769	-2.409743	-0.044194	1
H	-0.429719	-2.736073	1.643486	1
H	1.145291	-2.035673	1.247506	1
H	-1.906609	-1.101303	2.590186	1
H	-1.871349	0.657637	2.022466	1
H	1.239060	0.366077	0.308866	1
H	-0.208229	1.398757	0.453256	1
H	-0.136479	0.595807	-3.095044	1
H	1.463701	2.335337	-1.088984	1
H	1.333021	2.546487	-2.920724	1
Es	0.014700	-2.276489	0.291999	99
Es	-1.465430	-0.345646	1.949391	99
Es	1.057108	1.988681	-2.031346	99
Es	0.252746	0.924183	-2.136733	99
Es	0.083014	-2.031422	0.978044	99
Es	1.241846	2.362752	-2.629344	99
Es	-0.475006	-0.642791	1.089724	99
Es	-0.166101	-0.124773	0.636163	99
Es	-0.008245	0.444364	-1.491657	99
Es	1.329938	2.220890	-1.392917	99
Es	-1.766140	-0.856266	2.387469	99
Es	-0.212065	0.094543	-1.157147	99
Es	0.801044	-2.021429	1.159442	99
Es	0.421300	1.693168	-2.035127	99
Es	-0.093719	1.082469	0.369562	99
Es	-0.010427	0.701916	-2.785773	99
Es	0.893519	0.373743	0.271562	99
Es	0.148640	0.395384	0.191288	99
Es	-0.268372	-2.504000	1.433231	99
Es	-0.496389	0.134572	-1.187110	99
Es	-0.196892	-1.336094	1.032236	99
Es	-0.055042	0.237526	-0.663877	99
Es	0.950497	1.302053	-2.117044	99
Es	-0.752852	-0.412147	1.760926	99
Es	-0.079085	-0.152867	-1.237624	99
Es	-1.742463	0.336465	2.003177	99
Es	-1.199080	-0.552256	1.301331	99
