44
Properties=species:S:1:pos:R:3:Z:I:1 energy=-307.9837056524324 field_type=dipole dipole="0.000000 0.000000 0.000000" charge=0
C	-1.441056	-1.397673	0.680628	6
C	-0.095306	-0.770983	0.324048	6
C	0.576624	-1.531143	-0.813772	6
C	-0.270256	0.691387	-0.072512	6
O	-1.288586	1.111467	-0.618092	8
C	0.882934	1.599797	0.206138	6
C	0.828044	2.899097	-0.110652	6
H	-1.934636	-0.830143	1.477238	1
H	-1.309386	-2.427193	1.029628	1
H	-2.117896	-1.416123	-0.180662	1
H	0.539924	-0.814913	1.217068	1
H	-0.021106	-1.483823	-1.730842	1
H	0.716254	-2.584643	-0.550812	1
H	1.560334	-1.107323	-1.041782	1
H	1.761464	1.170277	0.671538	1
H	-0.052036	3.333067	-0.578762	1
H	1.664684	3.558867	0.091598	1
Es	0.720532	2.259634	0.342842	99
Es	0.828061	2.899188	-0.110665	99
Es	-1.441005	-1.397660	0.680631	99
Es	-0.095316	-0.770959	0.324007	99
Es	-1.288318	1.111348	-0.617947	99
Es	1.476454	1.300010	0.522218	99
Es	0.963450	2.133927	-0.232555	99
Es	0.238915	-1.128143	-0.246427	99
Es	-1.339952	-2.101006	0.918771	99
Es	-0.270220	0.691399	-0.072497	99
Es	-1.269841	1.418889	-0.686727	99
Es	-1.023074	1.020019	-0.198789	99
Es	-0.179522	-0.036810	0.133726	99
Es	0.576615	-1.531110	-0.813731	99
Es	0.882913	1.599689	0.206157	99
Es	0.324820	1.140580	0.073658	99
Es	-1.890819	-1.415228	0.096304	99
Es	0.251581	3.196986	-0.419963	99
Es	-1.769609	-1.010885	1.226306	99
Es	-0.828048	0.908693	-0.648093	99
Es	-0.766865	-1.077234	0.494126	99
Es	1.390928	3.347579	0.024803	99
Es	1.247034	-1.237522	-0.963991	99
Es	0.167421	-1.496424	-1.429468	99
Es	-1.507322	0.889083	-0.658069	99
Es	0.344679	-0.790802	0.930685	99
Es	0.668341	-2.242804	-0.626611	99
44
Properties=species:S:1:pos:R:3:Z:I:1 energy=-307.9837056524324 field_type=dipole dipole="0.000000 0.000000 0.000000" charge=0
C	-1.441056	-1.397673	0.680628	6
C	-0.095306	-0.770983	0.324048	6
C	0.576624	-1.531143	-0.813772	6
C	-0.270256	0.691387	-0.072512	6
O	-1.288586	1.111467	-0.618092	8
C	0.882934	1.599797	0.206138	6
C	0.828044	2.899097	-0.110652	6
H	-1.934636	-0.830143	1.477238	1
H	-1.309386	-2.427193	1.029628	1
H	-2.117896	-1.416123	-0.180662	1
H	0.539924	-0.814913	1.217068	1
H	-0.021106	-1.483823	-1.730842	1
H	0.716254	-2.584643	-0.550812	1
H	1.560334	-1.107323	-1.041782	1
H	1.761464	1.170277	0.671538	1
H	-0.052036	3.333067	-0.578762	1
H	1.664684	3.558867	0.091598	1
Es	0.963193	2.134127	-0.232329	99
Es	-0.095316	-0.770959	0.324007	99
Es	0.882915	1.599685	0.206153	99
Es	0.251498	3.196982	-0.419960	99
Es	0.344707	-0.790715	0.930724	99
Es	-1.441005	-1.397663	0.680633	99
Es	0.828060	2.899188	-0.110664	99
Es	-1.890853	-1.415144	0.096267	99
Es	-1.340071	-2.100894	0.918569	99
Es	-1.769617	-1.011042	1.226454	99
Es	0.720621	2.259498	0.342668	99
Es	-0.270217	0.691403	-0.072493	99
Es	-0.827860	0.908728	-0.647472	99
Es	1.391098	3.347527	0.024682	99
Es	0.167506	-1.496442	-1.429382	99
Es	-1.505735	0.888101	-0.657411	99
Es	-1.288334	1.111375	-0.617976	99
Es	-1.023393	1.021477	-0.197958	99
Es	-0.179488	-0.036945	0.133646	99
Es	0.576615	-1.531110	-0.813731	99
Es	0.668309	-2.242830	-0.626667	99
Es	-1.271224	1.418306	-0.688869	99
Es	1.476576	1.300050	0.522239	99
Es	1.247045	-1.237550	-0.964064	99
Es	0.324661	1.140631	0.073781	99
Es	-0.766745	-1.077347	0.494188	99
Es	0.238892	-1.128002	-0.246335	99
44
Properties=species:S:1:pos:R:3:Z:I:1 energy=-307.9837056524324 field_type=dipole dipole="0.000000 0.000000 0.000000" charge=0
C	-1.441056	-1.397673	0.680628	6
C	-0.095306	-0.770983	0.324048	6
C	0.576624	-1.531143	-0.813772	6
C	-0.270256	0.691387	-0.072512	6
O	-1.288586	1.111467	-0.618092	8
C	0.882934	1.599797	0.206138	6
C	0.828044	2.899097	-0.110652	6
H	-1.934636	-0.830143	1.477238	1
H	-1.309386	-2.427193	1.029628	1
H	-2.117896	-1.416123	-0.180662	1
H	0.539924	-0.814913	1.217068	1
H	-0.021106	-1.483823	-1.730842	1
H	0.716254	-2.584643	-0.550812	1
H	1.560334	-1.107323	-1.041782	1
H	1.761464	1.170277	0.671538	1
H	-0.052036	3.333067	-0.578762	1
H	1.664684	3.558867	0.091598	1
Es	0.963291	2.134184	-0.232193	99
Es	1.476555	1.300010	0.522294	99
Es	-0.827750	0.909297	-0.647906	99
Es	-0.179586	-0.037036	0.133710	99
Es	0.720668	2.259505	0.342542	99
Es	0.167491	-1.496543	-1.429358	99
Es	0.238905	-1.127962	-0.246381	99
Es	-1.890764	-1.415196	0.096361	99
Es	0.668381	-2.242787	-0.626634	99
Es	0.344710	-0.790667	0.930662	99
Es	-1.271248	1.418753	-0.687319	99
Es	-0.095315	-0.770959	0.324008	99
Es	-0.766777	-1.077376	0.494157	99
Es	-1.506036	0.888307	-0.657961	99
Es	1.247009	-1.237535	-0.964136	99
Es	-1.769652	-1.010887	1.226339	99
Es	0.576616	-1.531110	-0.813729	99
Es	-1.441007	-1.397664	0.680633	99
Es	-1.340112	-2.100972	0.918693	99
Es	-1.023189	1.020261	-0.198442	99
Es	0.324692	1.140650	0.073633	99
Es	1.391065	3.347487	0.024761	99
Es	0.828061	2.899190	-0.110663	99
Es	-0.270218	0.691404	-0.072499	99
Es	0.882916	1.599687	0.206153	99
Es	-1.288298	1.111399	-0.617952	99
Es	0.251429	3.196997	-0.420072	99
44
Properties=species:S:1:pos:R:3:Z:I:1 energy=-307.9837056524324 field_type=dipole dipole="0.000000 0.000000 0.000000" charge=0
C	-1.441056	-1.397673	0.680628	6
C	-0.095306	-0.770983	0.324048	6
C	0.576624	-1.531143	-0.813772	6
C	-0.270256	0.691387	-0.072512	6
O	-1.288586	1.111467	-0.618092	8
C	0.882934	1.599797	0.206138	6
C	0.828044	2.899097	-0.110652	6
H	-1.934636	-0.830143	1.477238	1
H	-1.309386	-2.427193	1.029628	1
H	-2.117896	-1.416123	-0.180662	1
H	0.539924	-0.814913	1.217068	1
H	-0.021106	-1.483823	-1.730842	1
H	0.716254	-2.584643	-0.550812	1
H	1.560334	-1.107323	-1.041782	1
H	1.761464	1.170277	0.671538	1
H	-0.052036	3.333067	-0.578762	1
H	1.664684	3.558867	0.091598	1
Es	-1.505915	0.889011	-0.658507	99
Es	0.882915	1.599688	0.206154	99
Es	-0.766776	-1.077299	0.494200	99
Es	0.668373	-2.242811	-0.626686	99
Es	-1.271302	1.418624	-0.686461	99
Es	0.576616	-1.531110	-0.813732	99
Es	-1.023469	1.019532	-0.198163	99
Es	0.251507	3.196955	-0.420091	99
Es	-1.769653	-1.011010	1.226387	99
Es	0.324671	1.140772	0.073653	99
Es	0.828059	2.899192	-0.110662	99
Es	-1.288318	1.111345	-0.617954	99
Es	1.391191	3.347544	0.024922	99
Es	-0.095313	-0.770960	0.324008	99
Es	-1.890812	-1.415172	0.096394	99
Es	-0.270216	0.691403	-0.072499	99
Es	-0.179540	-0.037150	0.133822	99
Es	-0.827486	0.909434	-0.648495	99
Es	0.167544	-1.496491	-1.429383	99
Es	0.720561	2.259541	0.342388	99
Es	0.344711	-0.790661	0.930624	99
Es	-1.340140	-2.100931	0.918604	99
Es	0.963226	2.134167	-0.232209	99
Es	-1.441006	-1.397663	0.680632	99
Es	0.238928	-1.127886	-0.246435	99
Es	1.246971	-1.237597	-0.964108	99
Es	1.476509	1.299969	0.522296	99
44
Properties=species:S:1:pos:R:3:Z:I:1 energy=-307.9837056524324 field_type=dipole dipole="0.000000 0.000000 0.000000" charge=0
C	-1.441056	-1.397673	0.680628	6
C	-0.095306	-0.770983	0.324048	6
C	0.576624	-1.531143	-0.813772	6
C	-0.270256	0.691387	-0.072512	6
O	-1.288586	1.111467	-0.618092	8
C	0.882934	1.599797	0.206138	6
C	0.828044	2.899097	-0.110652	6
H	-1.934636	-0.830143	1.477238	1
H	-1.309386	-2.427193	1.029628	1
H	-2.117896	-1.416123	-0.180662	1
H	0.539924	-0.814913	1.217068	1
H	-0.021106	-1.483823	-1.730842	1
H	0.716254	-2.584643	-0.550812	1
H	1.560334	-1.107323	-1.041782	1
H	1.761464	1.170277	0.671538	1
H	-0.052036	3.333067	-0.578762	1
H	1.664684	3.558867	0.091598	1
Es	0.882916	1.599695	0.206154	99
Es	0.167573	-1.496512	-1.429367	99
Es	0.344651	-0.790578	0.930592	99
Es	-1.271310	1.418406	-0.687030	99
Es	0.668366	-2.242767	-0.626757	99
Es	-1.505558	0.888376	-0.659220	99
Es	-1.769649	-1.010983	1.226236	99
Es	0.828059	2.899189	-0.110659	99
Es	-1.023798	1.019804	-0.197696	99
Es	-0.095316	-0.770961	0.324008	99
Es	0.576616	-1.531111	-0.813732	99
Es	0.963194	2.133815	-0.232200	99
Es	-0.270214	0.691401	-0.072498	99
Es	-0.766861	-1.077225	0.494247	99
Es	-0.179498	-0.037227	0.133774	99
Es	1.476500	1.300033	0.522330	99
Es	-1.340104	-2.101006	0.918746	99
Es	-1.288295	1.111360	-0.617960	99
Es	0.720817	2.259898	0.342270	99
Es	0.324618	1.140755	0.073720	99
Es	0.251371	3.196964	-0.420033	99
Es	1.246981	-1.237641	-0.964141	99
Es	-1.890799	-1.415192	0.096391	99
Es	-1.441006	-1.397663	0.680633	99
Es	0.238977	-1.127914	-0.246359	99
Es	1.391130	3.347528	0.024855	99
Es	-0.827527	0.909992	-0.647603	99
44
Properties=species:S:1:pos:R:3:Z:I:1 energy=-307.9837056524324 field_type=dipole dipole="0.000000 0.000000 0.000000" charge=0
C	-1.441056	-1.397673	0.680628	6
C	-0.095306	-0.770983	0.324048	6
C	0.576624	-1.531143	-0.813772	6
C	-0.270256	0.691387	-0.072512	6
O	-1.288586	1.111467	-0.618092	8
C	0.882934	1.599797	0.206138	6
C	0.828044	2.899097	-0.110652	6
H	-1.934636	-0.830143	1.477238	1
H	-1.309386	-2.427193	1.029628	1
H	-2.117896	-1.416123	-0.180662	1
H	0.539924	-0.814913	1.217068	1
H	-0.021106	-1.483823	-1.730842	1
H	0.716254	-2.584643	-0.550812	1
H	1.560334	-1.107323	-1.041782	1
H	1.761464	1.170277	0.671538	1
H	-0.052036	3.333067	-0.578762	1
H	1.664684	3.558867	0.091598	1
Es	1.476653	1.300000	0.522258	99
Es	0.344661	-0.790525	0.930564	99
Es	-1.340187	-2.100941	0.918698	99
Es	0.963154	2.134270	-0.232114	99
Es	0.576616	-1.531110	-0.813732	99
Es	-0.095315	-0.770960	0.324007	99
Es	-1.022735	1.021020	-0.198264	99
Es	-1.288354	1.111355	-0.617971	99
Es	-1.890800	-1.415212	0.096436	99
Es	-1.507834	0.890366	-0.657265	99
Es	-0.766775	-1.077187	0.494298	99
Es	0.882915	1.599687	0.206154	99
Es	-1.268669	1.418121	-0.688248	99
Es	-0.270217	0.691403	-0.072499	99
Es	0.324766	1.140819	0.073692	99
Es	0.167609	-1.496555	-1.429361	99
Es	0.238938	-1.127923	-0.246478	99
Es	-1.769667	-1.010989	1.226278	99
Es	0.668368	-2.242758	-0.626729	99
Es	-1.441006	-1.397663	0.680633	99
Es	1.391132	3.347584	0.024926	99
Es	1.246979	-1.237653	-0.964152	99
Es	-0.179573	-0.037321	0.133881	99
Es	0.828063	2.899184	-0.110660	99
Es	0.720567	2.259513	0.342316	99
Es	-0.828815	0.907020	-0.647838	99
Es	0.251362	3.196891	-0.420130	99
44
Properties=species:S:1:pos:R:3:Z:I:1 energy=-307.9837056524324 field_type=dipole dipole="0.000000 0.000000 0.000000" charge=0
C	-1.441056	-1.397673	0.680628	6
C	-0.095306	-0.770983	0.324048	6
C	0.576624	-1.531143	-0.813772	6
C	-0.270256	0.691387	-0.072512	6
O	-1.288586	1.111467	-0.618092	8
C	0.882934	1.599797	0.206138	6
C	0.828044	2.899097	-0.110652	6
H	-1.934636	-0.830143	1.477238	1
H	-1.309386	-2.427193	1.029628	1
H	-2.117896	-1.416123	-0.180662	1
H	0.539924	-0.814913	1.217068	1
H	-0.021106	-1.483823	-1.730842	1
H	0.716254	-2.584643	-0.550812	1
H	1.560334	-1.107323	-1.041782	1
H	1.761464	1.170277	0.671538	1
H	-0.052036	3.333067	-0.578762	1
H	1.664684	3.558867	0.091598	1
Es	0.324622	1.140852	0.073771	99
Es	0.963146	2.134091	-0.232142	99
Es	1.476508	1.300017	0.522344	99
Es	0.239009	-1.127702	-0.246401	99
Es	0.251318	3.196945	-0.420080	99
Es	1.391219	3.347512	0.024837	99
Es	-0.095315	-0.770956	0.324008	99
Es	0.882913	1.599689	0.206155	99
Es	0.344677	-0.790574	0.930577	99
Es	-1.890748	-1.415278	0.096466	99
Es	0.167522	-1.496708	-1.429306	99
Es	0.668555	-2.242706	-0.626702	99
Es	-1.506301	0.887693	-0.657706	99
Es	-0.179530	-0.037376	0.133991	99
Es	-0.827745	0.910999	-0.649429	99
Es	-1.441006	-1.397663	0.680633	99
Es	-1.769722	-1.010938	1.226188	99
Es	0.576616	-1.531110	-0.813732	99
Es	-0.766791	-1.077265	0.494194	99
Es	-1.288277	1.111395	-0.617941	99
Es	0.828061	2.899188	-0.110663	99
Es	0.720757	2.259721	0.342237	99
Es	-1.272474	1.417953	-0.685895	99
Es	-0.270218	0.691402	-0.072497	99
Es	1.246848	-1.237615	-0.964324	99
Es	-1.021558	1.019793	-0.198662	99
Es	-1.340249	-2.100925	0.918781	99
44
Properties=species:S:1:pos:R:3:Z:I:1 energy=-307.9837056524324 field_type=dipole dipole="0.000000 0.000000 0.000000" charge=0
C	-1.441056	-1.397673	0.680628	6
C	-0.095306	-0.770983	0.324048	6
C	0.576624	-1.531143	-0.813772	6
C	-0.270256	0.691387	-0.072512	6
O	-1.288586	1.111467	-0.618092	8
C	0.882934	1.599797	0.206138	6
C	0.828044	2.899097	-0.110652	6
H	-1.934636	-0.830143	1.477238	1
H	-1.309386	-2.427193	1.029628	1
H	-2.117896	-1.416123	-0.180662	1
H	0.539924	-0.814913	1.217068	1
H	-0.021106	-1.483823	-1.730842	1
H	0.716254	-2.584643	-0.550812	1
H	1.560334	-1.107323	-1.041782	1
H	1.761464	1.170277	0.671538	1
H	-0.052036	3.333067	-0.578762	1
H	1.664684	3.558867	0.091598	1
Es	1.246844	-1.237623	-0.964307	99
Es	-0.095316	-0.770960	0.324008	99
Es	0.828060	2.899188	-0.110661	99
Es	-0.827164	0.908518	-0.647766	99
Es	0.344613	-0.790454	0.930541	99
Es	-1.769753	-1.011072	1.226276	99
Es	-1.288319	1.111361	-0.617971	99
Es	-0.766835	-1.077165	0.494302	99
Es	0.576615	-1.531109	-0.813730	99
Es	0.167523	-1.496669	-1.429312	99
Es	-1.270691	1.418652	-0.686802	99
Es	-1.023978	1.019890	-0.198601	99
Es	-1.890771	-1.415256	0.096456	99
Es	0.963105	2.134293	-0.231977	99
Es	0.251272	3.196900	-0.420123	99
Es	-0.179521	-0.037500	0.133927	99
Es	-1.441006	-1.397663	0.680633	99
Es	0.668552	-2.242713	-0.626748	99
Es	1.391254	3.347535	0.024880	99
Es	0.720675	2.259598	0.342221	99
Es	0.324711	1.140820	0.073599	99
Es	0.882915	1.599691	0.206154	99
Es	-1.506240	0.889448	-0.658307	99
Es	-0.270215	0.691401	-0.072509	99
Es	0.239118	-1.127779	-0.246429	99
Es	-1.340184	-2.100901	0.918658	99
Es	1.476571	1.300005	0.522290	99
