44
Properties=species:S:1:pos:R:3:Z:I:1 energy=-307.93316327615685 field_type=dipole dipole="0.000000 0.000000 0.000000" charge=0
C	-0.955992	-0.308386	1.583064	6
C	0.413018	-0.216956	0.907034	6
C	0.409487	-0.812476	-0.509886	6
C	-0.554782	-0.147506	-1.489096	6
O	-0.445933	-0.777056	-2.761496	8
C	0.895037	1.144214	0.907034	6
C	1.292318	2.266114	0.907034	6
H	-0.888442	-0.001586	2.632704	1
H	-1.334422	-1.335066	1.558994	1
H	-1.695132	0.342464	1.104694	1
H	1.106807	-0.824686	1.503244	1
H	0.166588	-1.882306	-0.454006	1
H	1.424048	-0.771636	-0.930426	1
H	-0.341712	0.917814	-1.616786	1
H	-1.591812	-0.255346	-1.160256	1
H	0.453038	-0.608596	-3.092536	1
H	1.647887	3.270994	0.910684	1
Es	-1.261473	-0.223947	-1.258642	99
Es	0.802936	1.822351	0.725581	99
Es	0.405192	-0.483389	0.202042	99
Es	0.236449	-1.537701	-0.461837	99
Es	-0.634512	-0.628000	-2.951340	99
Es	-0.445693	-0.776906	-2.761360	99
Es	0.894955	1.143976	0.907026	99
Es	0.409483	-0.812434	-0.509840	99
Es	-0.464709	-1.080220	-2.711792	99
Es	1.098551	1.717204	1.265399	99
Es	-1.206194	-1.010185	1.560198	99
Es	-0.904040	-0.101087	2.294240	99
Es	1.103407	-0.774691	-0.799843	99
Es	-1.453394	0.132283	1.250200	99
Es	0.413017	-0.216853	0.907010	99
Es	-0.402091	0.584695	-1.565852	99
Es	0.660146	0.493913	0.902915	99
Es	0.886433	-0.611171	1.308181	99
Es	-0.265987	-0.244114	1.232339	99
Es	0.045995	-0.675180	-2.919403	99
Es	-0.069842	-0.470362	-0.979523	99
Es	1.292397	2.266362	0.907032	99
Es	1.391876	1.614555	0.725844	99
Es	-0.463464	-0.532363	-2.280591	99
Es	-0.955945	-0.308388	1.583039	99
Es	-0.554725	-0.147642	-1.489277	99
Es	1.524545	2.923125	0.908587	99
44
Properties=species:S:1:pos:R:3:Z:I:1 energy=-307.93316327615685 field_type=dipole dipole="0.000000 0.000000 0.000000" charge=0
C	-0.955992	-0.308386	1.583064	6
C	0.413018	-0.216956	0.907034	6
C	0.409487	-0.812476	-0.509886	6
C	-0.554782	-0.147506	-1.489096	6
O	-0.445933	-0.777056	-2.761496	8
C	0.895037	1.144214	0.907034	6
C	1.292318	2.266114	0.907034	6
H	-0.888442	-0.001586	2.632704	1
H	-1.334422	-1.335066	1.558994	1
H	-1.695132	0.342464	1.104694	1
H	1.106807	-0.824686	1.503244	1
H	0.166588	-1.882306	-0.454006	1
H	1.424048	-0.771636	-0.930426	1
H	-0.341712	0.917814	-1.616786	1
H	-1.591812	-0.255346	-1.160256	1
H	0.453038	-0.608596	-3.092536	1
H	1.647887	3.270994	0.910684	1
Es	-0.554725	-0.147642	-1.489276	99
Es	-0.402229	0.584707	-1.565810	99
Es	0.798425	1.824070	1.067887	99
Es	0.660089	0.493591	0.903028	99
Es	-0.069836	-0.470348	-0.979526	99
Es	0.236441	-1.537664	-0.461734	99
Es	-0.265920	-0.244035	1.232261	99
Es	1.524713	2.923066	0.908568	99
Es	-0.903973	-0.101270	2.294251	99
Es	0.886443	-0.611070	1.308166	99
Es	-1.261402	-0.224016	-1.258659	99
Es	1.380041	1.618599	1.100649	99
Es	1.292405	2.266365	0.907031	99
Es	-0.462082	-0.531623	-2.281127	99
Es	-1.206339	-1.010148	1.560058	99
Es	-0.638567	-0.631227	-2.951605	99
Es	-0.460897	-1.079169	-2.708791	99
Es	0.405267	-0.483355	0.201958	99
Es	0.894952	1.143970	0.907032	99
Es	1.103398	-0.774770	-0.799866	99
Es	-0.955945	-0.308386	1.583040	99
Es	0.413017	-0.216853	0.907011	99
Es	-1.453354	0.132388	1.250457	99
Es	0.409482	-0.812433	-0.509839	99
Es	1.114731	1.711695	0.548191	99
Es	0.044870	-0.673697	-2.921610	99
Es	-0.445688	-0.776914	-2.761410	99
44
Properties=species:S:1:pos:R:3:Z:I:1 energy=-307.93316327615685 field_type=dipole dipole="0.000000 0.000000 0.000000" charge=0
C	-0.955992	-0.308386	1.583064	6
C	0.413018	-0.216956	0.907034	6
C	0.409487	-0.812476	-0.509886	6
C	-0.554782	-0.147506	-1.489096	6
O	-0.445933	-0.777056	-2.761496	8
C	0.895037	1.144214	0.907034	6
C	1.292318	2.266114	0.907034	6
H	-0.888442	-0.001586	2.632704	1
H	-1.334422	-1.335066	1.558994	1
H	-1.695132	0.342464	1.104694	1
H	1.106807	-0.824686	1.503244	1
H	0.166588	-1.882306	-0.454006	1
H	1.424048	-0.771636	-0.930426	1
H	-0.341712	0.917814	-1.616786	1
H	-1.591812	-0.255346	-1.160256	1
H	0.453038	-0.608596	-3.092536	1
H	1.647887	3.270994	0.910684	1
Es	0.886512	-0.610938	1.308245	99
Es	-1.206279	-1.010101	1.560112	99
Es	-0.445913	-0.776982	-2.761496	99
Es	-1.453381	0.132240	1.250418	99
Es	1.524632	2.923016	0.908649	99
Es	1.385707	1.616691	0.714534	99
Es	0.409483	-0.812435	-0.509840	99
Es	-0.069835	-0.470323	-0.979498	99
Es	-0.462916	-0.531056	-2.281335	99
Es	0.046016	-0.675659	-2.920686	99
Es	0.236524	-1.537656	-0.461878	99
Es	-0.554727	-0.147640	-1.489274	99
Es	0.894954	1.143971	0.907030	99
Es	0.797492	1.824394	0.736773	99
Es	-1.261395	-0.223945	-1.258675	99
Es	-0.955948	-0.308386	1.583041	99
Es	0.660056	0.493690	0.902897	99
Es	-0.636138	-0.629977	-2.951643	99
Es	0.413017	-0.216853	0.907010	99
Es	0.405353	-0.483484	0.201978	99
Es	-0.904059	-0.101198	2.294275	99
Es	-0.463414	-1.078978	-2.709416	99
Es	1.292414	2.266361	0.907023	99
Es	-0.402239	0.584648	-1.565811	99
Es	1.103334	-0.774721	-0.799827	99
Es	1.110057	1.713145	1.265454	99
Es	-0.265996	-0.243994	1.232275	99
44
Properties=species:S:1:pos:R:3:Z:I:1 energy=-307.93316327615685 field_type=dipole dipole="0.000000 0.000000 0.000000" charge=0
C	-0.955992	-0.308386	1.583064	6
C	0.413018	-0.216956	0.907034	6
C	0.409487	-0.812476	-0.509886	6
C	-0.554782	-0.147506	-1.489096	6
O	-0.445933	-0.777056	-2.761496	8
C	0.895037	1.144214	0.907034	6
C	1.292318	2.266114	0.907034	6
H	-0.888442	-0.001586	2.632704	1
H	-1.334422	-1.335066	1.558994	1
H	-1.695132	0.342464	1.104694	1
H	1.106807	-0.824686	1.503244	1
H	0.166588	-1.882306	-0.454006	1
H	1.424048	-0.771636	-0.930426	1
H	-0.341712	0.917814	-1.616786	1
H	-1.591812	-0.255346	-1.160256	1
H	0.453038	-0.608596	-3.092536	1
H	1.647887	3.270994	0.910684	1
Es	0.236525	-1.537663	-0.461921	99
Es	-0.069795	-0.470282	-0.979497	99
Es	-0.636513	-0.630164	-2.950757	99
Es	-0.266081	-0.244001	1.232412	99
Es	1.524495	2.923006	0.908575	99
Es	-0.903996	-0.101222	2.294240	99
Es	-0.462558	-0.531946	-2.280423	99
Es	-0.402322	0.584660	-1.565773	99
Es	0.405357	-0.483477	0.201871	99
Es	1.103323	-0.774721	-0.799780	99
Es	-0.445675	-0.776820	-2.761328	99
Es	0.796048	1.824924	0.740290	99
Es	-1.206286	-1.010083	1.560159	99
Es	-1.261328	-0.223974	-1.258686	99
Es	0.894953	1.143970	0.907031	99
Es	-0.462941	-1.079241	-2.710607	99
Es	0.660010	0.493513	0.902926	99
Es	-0.955946	-0.308385	1.583039	99
Es	0.886551	-0.610806	1.308183	99
Es	1.292404	2.266365	0.907028	99
Es	1.113725	1.711872	1.265600	99
Es	1.383674	1.617438	0.710949	99
Es	0.045340	-0.674487	-2.921517	99
Es	-1.453426	0.132289	1.250423	99
Es	-0.554726	-0.147642	-1.489276	99
Es	0.413020	-0.216856	0.907012	99
Es	0.409483	-0.812435	-0.509840	99
44
Properties=species:S:1:pos:R:3:Z:I:1 energy=-307.93316327615685 field_type=dipole dipole="0.000000 0.000000 0.000000" charge=0
C	-0.955992	-0.308386	1.583064	6
C	0.413018	-0.216956	0.907034	6
C	0.409487	-0.812476	-0.509886	6
C	-0.554782	-0.147506	-1.489096	6
O	-0.445933	-0.777056	-2.761496	8
C	0.895037	1.144214	0.907034	6
C	1.292318	2.266114	0.907034	6
H	-0.888442	-0.001586	2.632704	1
H	-1.334422	-1.335066	1.558994	1
H	-1.695132	0.342464	1.104694	1
H	1.106807	-0.824686	1.503244	1
H	0.166588	-1.882306	-0.454006	1
H	1.424048	-0.771636	-0.930426	1
H	-0.341712	0.917814	-1.616786	1
H	-1.591812	-0.255346	-1.160256	1
H	0.453038	-0.608596	-3.092536	1
H	1.647887	3.270994	0.910684	1
Es	1.524631	2.922951	0.908588	99
Es	-0.069777	-0.470322	-0.979473	99
Es	0.791806	1.826460	1.054439	99
Es	0.659986	0.493255	0.903100	99
Es	-1.453441	0.132210	1.250422	99
Es	-0.265883	-0.243912	1.232392	99
Es	0.894950	1.143967	0.907032	99
Es	0.413017	-0.216853	0.907010	99
Es	0.409484	-0.812436	-0.509842	99
Es	-0.554725	-0.147635	-1.489272	99
Es	-1.206278	-1.010050	1.560219	99
Es	-0.636088	-0.631283	-2.951402	99
Es	1.372843	1.621129	1.112648	99
Es	1.292403	2.266357	0.907038	99
Es	0.405322	-0.483295	0.201905	99
Es	-0.904125	-0.101203	2.294180	99
Es	-0.402337	0.584589	-1.565801	99
Es	-0.445651	-0.776900	-2.761268	99
Es	-0.955947	-0.308386	1.583039	99
Es	1.128663	1.706878	0.549603	99
Es	-1.261338	-0.223915	-1.258691	99
Es	-0.462839	-1.078986	-2.709657	99
Es	0.236543	-1.537611	-0.461890	99
Es	0.886586	-0.610903	1.308161	99
Es	0.045607	-0.674928	-2.921321	99
Es	1.103297	-0.774771	-0.799835	99
Es	-0.463394	-0.530575	-2.280990	99
44
Properties=species:S:1:pos:R:3:Z:I:1 energy=-307.93316327615685 field_type=dipole dipole="0.000000 0.000000 0.000000" charge=0
C	-0.955992	-0.308386	1.583064	6
C	0.413018	-0.216956	0.907034	6
C	0.409487	-0.812476	-0.509886	6
C	-0.554782	-0.147506	-1.489096	6
O	-0.445933	-0.777056	-2.761496	8
C	0.895037	1.144214	0.907034	6
C	1.292318	2.266114	0.907034	6
H	-0.888442	-0.001586	2.632704	1
H	-1.334422	-1.335066	1.558994	1
H	-1.695132	0.342464	1.104694	1
H	1.106807	-0.824686	1.503244	1
H	0.166588	-1.882306	-0.454006	1
H	1.424048	-0.771636	-0.930426	1
H	-0.341712	0.917814	-1.616786	1
H	-1.591812	-0.255346	-1.160256	1
H	0.453038	-0.608596	-3.092536	1
H	1.647887	3.270994	0.910684	1
Es	-0.069718	-0.470291	-0.979476	99
Es	1.127956	1.706875	1.264178	99
Es	0.886539	-0.610940	1.308213	99
Es	-1.453460	0.132234	1.250564	99
Es	-0.955947	-0.308385	1.583040	99
Es	1.292403	2.266363	0.907034	99
Es	0.409483	-0.812434	-0.509840	99
Es	0.894952	1.143973	0.907031	99
Es	-1.206333	-1.010013	1.560197	99
Es	1.375735	1.620116	0.697161	99
Es	-0.634522	-0.630662	-2.951081	99
Es	0.789427	1.827367	0.755420	99
Es	-0.445716	-0.776914	-2.761366	99
Es	0.236487	-1.537584	-0.461900	99
Es	1.103248	-0.774874	-0.799819	99
Es	-0.904084	-0.101291	2.294162	99
Es	1.524709	2.922895	0.908623	99
Es	0.413018	-0.216855	0.907010	99
Es	-0.463847	-0.530131	-2.280974	99
Es	0.660221	0.493194	0.903103	99
Es	-0.266039	-0.243726	1.232297	99
Es	-0.402361	0.584554	-1.565777	99
Es	-1.261321	-0.223878	-1.258713	99
Es	0.405492	-0.483181	0.201774	99
Es	-0.464029	-1.079553	-2.710301	99
Es	-0.554727	-0.147638	-1.489272	99
Es	0.045748	-0.675391	-2.920957	99
44
Properties=species:S:1:pos:R:3:Z:I:1 energy=-307.93316327615685 field_type=dipole dipole="0.000000 0.000000 0.000000" charge=0
C	-0.955992	-0.308386	1.583064	6
C	0.413018	-0.216956	0.907034	6
C	0.409487	-0.812476	-0.509886	6
C	-0.554782	-0.147506	-1.489096	6
O	-0.445933	-0.777056	-2.761496	8
C	0.895037	1.144214	0.907034	6
C	1.292318	2.266114	0.907034	6
H	-0.888442	-0.001586	2.632704	1
H	-1.334422	-1.335066	1.558994	1
H	-1.695132	0.342464	1.104694	1
H	1.106807	-0.824686	1.503244	1
H	0.166588	-1.882306	-0.454006	1
H	1.424048	-0.771636	-0.930426	1
H	-0.341712	0.917814	-1.616786	1
H	-1.591812	-0.255346	-1.160256	1
H	0.453038	-0.608596	-3.092536	1
H	1.647887	3.270994	0.910684	1
Es	1.524650	2.922895	0.908605	99
Es	0.886627	-0.610792	1.308205	99
Es	1.292396	2.266365	0.907034	99
Es	-0.955947	-0.308386	1.583040	99
Es	-0.554728	-0.147638	-1.489271	99
Es	-0.463397	-0.531263	-2.280254	99
Es	0.413018	-0.216855	0.907010	99
Es	0.236570	-1.537574	-0.461920	99
Es	1.342065	1.631913	0.654902	99
Es	-0.463419	-1.078922	-2.710906	99
Es	-1.261300	-0.223861	-1.258717	99
Es	1.179437	1.688770	1.254812	99
Es	-1.206333	-1.009996	1.560219	99
Es	0.409483	-0.812435	-0.509840	99
Es	-0.904227	-0.101198	2.294177	99
Es	0.894952	1.143972	0.907033	99
Es	-1.453388	0.132166	1.250425	99
Es	-0.265990	-0.243756	1.232517	99
Es	-0.402377	0.584542	-1.565775	99
Es	0.660109	0.493049	0.903053	99
Es	0.771717	1.833694	0.807074	99
Es	-0.445647	-0.776838	-2.761324	99
Es	-0.635489	-0.630983	-2.950416	99
Es	-0.069768	-0.470341	-0.979457	99
Es	1.103215	-0.774829	-0.799846	99
Es	0.045589	-0.674664	-2.921800	99
Es	0.405495	-0.483206	0.201753	99
44
Properties=species:S:1:pos:R:3:Z:I:1 energy=-307.93316327615685 field_type=dipole dipole="0.000000 0.000000 0.000000" charge=0
C	-0.955992	-0.308386	1.583064	6
C	0.413018	-0.216956	0.907034	6
C	0.409487	-0.812476	-0.509886	6
C	-0.554782	-0.147506	-1.489096	6
O	-0.445933	-0.777056	-2.761496	8
C	0.895037	1.144214	0.907034	6
C	1.292318	2.266114	0.907034	6
H	-0.888442	-0.001586	2.632704	1
H	-1.334422	-1.335066	1.558994	1
H	-1.695132	0.342464	1.104694	1
H	1.106807	-0.824686	1.503244	1
H	0.166588	-1.882306	-0.454006	1
H	1.424048	-0.771636	-0.930426	1
H	-0.341712	0.917814	-1.616786	1
H	-1.591812	-0.255346	-1.160256	1
H	0.453038	-0.608596	-3.092536	1
H	1.647887	3.270994	0.910684	1
Es	-1.206448	-1.010010	1.560247	99
Es	0.659930	0.492971	0.903198	99
Es	-1.261260	-0.223831	-1.258692	99
Es	-1.453393	0.132302	1.250560	99
Es	0.405545	-0.483139	0.201678	99
Es	0.236632	-1.537576	-0.461949	99
Es	-0.069737	-0.470368	-0.979489	99
Es	1.524628	2.922847	0.908685	99
Es	0.413017	-0.216856	0.907011	99
Es	-0.462310	-1.078719	-2.709623	99
Es	1.103181	-0.774802	-0.799822	99
Es	-0.402400	0.584517	-1.565774	99
Es	1.292408	2.266364	0.907030	99
Es	0.810833	1.819737	0.713457	99
Es	-0.635906	-0.632474	-2.950903	99
Es	0.045390	-0.674473	-2.922092	99
Es	-0.463871	-0.530081	-2.280746	99
Es	-0.266050	-0.243890	1.232502	99
Es	0.409483	-0.812435	-0.509841	99
Es	-0.904092	-0.101272	2.294089	99
Es	0.894958	1.143980	0.907018	99
Es	1.083320	1.722616	1.265629	99
Es	-0.554728	-0.147636	-1.489269	99
Es	0.886796	-0.610653	1.308223	99
Es	-0.955947	-0.308385	1.583040	99
Es	1.399051	1.612029	0.737532	99
Es	-0.445718	-0.776932	-2.761366	99
44
Properties=species:S:1:pos:R:3:Z:I:1 energy=-307.93316327615685 field_type=dipole dipole="0.000000 0.000000 0.000000" charge=0
C	-0.955992	-0.308386	1.583064	6
C	0.413018	-0.216956	0.907034	6
C	0.409487	-0.812476	-0.509886	6
C	-0.554782	-0.147506	-1.489096	6
O	-0.445933	-0.777056	-2.761496	8
C	0.895037	1.144214	0.907034	6
C	1.292318	2.266114	0.907034	6
H	-0.888442	-0.001586	2.632704	1
H	-1.334422	-1.335066	1.558994	1
H	-1.695132	0.342464	1.104694	1
H	1.106807	-0.824686	1.503244	1
H	0.166588	-1.882306	-0.454006	1
H	1.424048	-0.771636	-0.930426	1
H	-0.341712	0.917814	-1.616786	1
H	-1.591812	-0.255346	-1.160256	1
H	0.453038	-0.608596	-3.092536	1
H	1.647887	3.270994	0.910684	1
Es	0.886780	-0.610593	1.308241	99
Es	-1.206374	-1.009930	1.560049	99
Es	1.403238	1.610566	0.746248	99
Es	0.236733	-1.537584	-0.461932	99
Es	-0.069846	-0.470431	-0.979447	99
Es	0.894957	1.143975	0.907017	99
Es	-1.261265	-0.223768	-1.258719	99
Es	0.405528	-0.483200	0.201633	99
Es	-0.402384	0.584467	-1.565755	99
Es	1.074236	1.725814	1.265052	99
Es	-1.453420	0.132267	1.250638	99
Es	0.409481	-0.812434	-0.509840	99
Es	1.524645	2.922832	0.908672	99
Es	-0.904160	-0.101433	2.294229	99
Es	-0.955948	-0.308386	1.583041	99
Es	-0.461599	-1.077671	-2.709768	99
Es	-0.554728	-0.147637	-1.489269	99
Es	0.815720	1.818019	0.705420	99
Es	1.292414	2.266349	0.907046	99
Es	-0.266093	-0.243574	1.232583	99
Es	0.045498	-0.674563	-2.921987	99
Es	-0.636974	-0.632604	-2.951422	99
Es	0.413021	-0.216857	0.907016	99
Es	-0.445659	-0.776881	-2.761340	99
Es	0.660013	0.492803	0.903017	99
Es	-0.463654	-0.530973	-2.280250	99
Es	1.103152	-0.774742	-0.799841	99
44
Properties=species:S:1:pos:R:3:Z:I:1 energy=-307.93316327615685 field_type=dipole dipole="0.000000 0.000000 0.000000" charge=0
C	-0.955992	-0.308386	1.583064	6
C	0.413018	-0.216956	0.907034	6
C	0.409487	-0.812476	-0.509886	6
C	-0.554782	-0.147506	-1.489096	6
O	-0.445933	-0.777056	-2.761496	8
C	0.895037	1.144214	0.907034	6
C	1.292318	2.266114	0.907034	6
H	-0.888442	-0.001586	2.632704	1
H	-1.334422	-1.335066	1.558994	1
H	-1.695132	0.342464	1.104694	1
H	1.106807	-0.824686	1.503244	1
H	0.166588	-1.882306	-0.454006	1
H	1.424048	-0.771636	-0.930426	1
H	-0.341712	0.917814	-1.616786	1
H	-1.591812	-0.255346	-1.160256	1
H	0.453038	-0.608596	-3.092536	1
H	1.647887	3.270994	0.910684	1
Es	0.409483	-0.812435	-0.509841	99
Es	0.236633	-1.537532	-0.461974	99
Es	0.413017	-0.216855	0.907011	99
Es	-0.069716	-0.470362	-0.979472	99
Es	-0.904148	-0.101349	2.294157	99
Es	-1.261243	-0.223773	-1.258764	99
Es	-0.445621	-0.776896	-2.761290	99
Es	-1.453452	0.132210	1.250632	99
Es	0.886795	-0.610562	1.308164	99
Es	-0.266094	-0.243661	1.232590	99
Es	1.292405	2.266358	0.907028	99
Es	0.660066	0.492724	0.903149	99
Es	-0.464057	-1.078477	-2.711314	99
Es	-1.206395	-1.009914	1.560189	99
Es	1.524596	2.922800	0.908612	99
Es	0.405511	-0.483103	0.201586	99
Es	0.894953	1.143975	0.907032	99
Es	-0.463454	-0.531249	-2.279996	99
Es	1.103174	-0.774862	-0.799759	99
Es	0.801432	1.823080	0.729787	99
Es	-0.634998	-0.630752	-2.950293	99
Es	0.045782	-0.675313	-2.921890	99
Es	1.390262	1.615116	0.720949	99
Es	-0.955948	-0.308386	1.583040	99
Es	-0.402450	0.584453	-1.565747	99
Es	-0.554728	-0.147636	-1.489270	99
Es	1.101509	1.716232	1.266017	99
44
Properties=species:S:1:pos:R:3:Z:I:1 energy=-307.93316327615685 field_type=dipole dipole="0.000000 0.000000 0.000000" charge=0
C	-0.955992	-0.308386	1.583064	6
C	0.413018	-0.216956	0.907034	6
C	0.409487	-0.812476	-0.509886	6
C	-0.554782	-0.147506	-1.489096	6
O	-0.445933	-0.777056	-2.761496	8
C	0.895037	1.144214	0.907034	6
C	1.292318	2.266114	0.907034	6
H	-0.888442	-0.001586	2.632704	1
H	-1.334422	-1.335066	1.558994	1
H	-1.695132	0.342464	1.104694	1
H	1.106807	-0.824686	1.503244	1
H	0.166588	-1.882306	-0.454006	1
H	1.424048	-0.771636	-0.930426	1
H	-0.341712	0.917814	-1.616786	1
H	-1.591812	-0.255346	-1.160256	1
H	0.453038	-0.608596	-3.092536	1
H	1.647887	3.270994	0.910684	1
Es	-0.069731	-0.470361	-0.979405	99
Es	0.886807	-0.610478	1.308151	99
Es	-0.463125	-1.077818	-2.710941	99
Es	-1.206303	-1.009963	1.560379	99
Es	-1.453496	0.132017	1.250529	99
Es	1.292401	2.266359	0.907031	99
Es	1.103180	-0.774868	-0.799811	99
Es	-0.265978	-0.243609	1.232625	99
Es	1.065790	1.729146	0.549375	99
Es	0.413017	-0.216855	0.907011	99
Es	0.045690	-0.675086	-2.922235	99
Es	0.894951	1.143974	0.907032	99
Es	-0.402486	0.584387	-1.565754	99
Es	-0.955949	-0.308385	1.583040	99
Es	1.524556	2.922746	0.908616	99
Es	-0.463510	-0.531301	-2.279803	99
Es	-0.445672	-0.776855	-2.761349	99
Es	-0.635742	-0.631645	-2.950495	99
Es	0.659940	0.492476	0.903183	99
Es	-0.554730	-0.147634	-1.489270	99
Es	1.404344	1.610294	1.054207	99
Es	-1.261226	-0.223726	-1.258757	99
Es	0.405533	-0.483141	0.201593	99
Es	0.409484	-0.812436	-0.509840	99
Es	0.823185	1.815241	1.113097	99
Es	-0.904264	-0.101150	2.294071	99
Es	0.236646	-1.537500	-0.461949	99
44
Properties=species:S:1:pos:R:3:Z:I:1 energy=-307.93316327615685 field_type=dipole dipole="0.000000 0.000000 0.000000" charge=0
C	-0.955992	-0.308386	1.583064	6
C	0.413018	-0.216956	0.907034	6
C	0.409487	-0.812476	-0.509886	6
C	-0.554782	-0.147506	-1.489096	6
O	-0.445933	-0.777056	-2.761496	8
C	0.895037	1.144214	0.907034	6
C	1.292318	2.266114	0.907034	6
H	-0.888442	-0.001586	2.632704	1
H	-1.334422	-1.335066	1.558994	1
H	-1.695132	0.342464	1.104694	1
H	1.106807	-0.824686	1.503244	1
H	0.166588	-1.882306	-0.454006	1
H	1.424048	-0.771636	-0.930426	1
H	-0.341712	0.917814	-1.616786	1
H	-1.591812	-0.255346	-1.160256	1
H	0.453038	-0.608596	-3.092536	1
H	1.647887	3.270994	0.910684	1
Es	-0.461927	-1.077349	-2.709733	99
Es	-0.266126	-0.243541	1.232616	99
Es	0.659976	0.492488	0.903114	99
Es	-1.206361	-1.009876	1.560303	99
Es	-0.554728	-0.147636	-1.489267	99
Es	-0.955948	-0.308384	1.583040	99
Es	0.413017	-0.216855	0.907009	99
Es	-0.069746	-0.470412	-0.979416	99
Es	-0.636163	-0.633021	-2.951097	99
Es	0.045693	-0.674928	-2.922253	99
Es	0.409482	-0.812434	-0.509840	99
Es	-0.402506	0.584405	-1.565708	99
Es	1.292411	2.266356	0.907029	99
Es	1.082220	1.723079	1.265444	99
Es	-0.464076	-0.530389	-2.280268	99
Es	1.524573	2.922771	0.908535	99
Es	1.103043	-0.774850	-0.799841	99
Es	0.236703	-1.537551	-0.461972	99
Es	1.399952	1.611728	0.739279	99
Es	0.811084	1.819620	0.712146	99
Es	-0.904270	-0.101205	2.294151	99
Es	-1.261193	-0.223738	-1.258769	99
Es	0.894953	1.143976	0.907035	99
Es	0.886862	-0.610422	1.308207	99
Es	0.405717	-0.483008	0.201517	99
Es	-1.453452	0.132012	1.250582	99
Es	-0.445879	-0.777002	-2.761507	99
44
Properties=species:S:1:pos:R:3:Z:I:1 energy=-307.93316327615685 field_type=dipole dipole="0.000000 0.000000 0.000000" charge=0
C	-0.955992	-0.308386	1.583064	6
C	0.413018	-0.216956	0.907034	6
C	0.409487	-0.812476	-0.509886	6
C	-0.554782	-0.147506	-1.489096	6
O	-0.445933	-0.777056	-2.761496	8
C	0.895037	1.144214	0.907034	6
C	1.292318	2.266114	0.907034	6
H	-0.888442	-0.001586	2.632704	1
H	-1.334422	-1.335066	1.558994	1
H	-1.695132	0.342464	1.104694	1
H	1.106807	-0.824686	1.503244	1
H	0.166588	-1.882306	-0.454006	1
H	1.424048	-0.771636	-0.930426	1
H	-0.341712	0.917814	-1.616786	1
H	-1.591812	-0.255346	-1.160256	1
H	0.453038	-0.608596	-3.092536	1
H	1.647887	3.270994	0.910684	1
Es	-1.206380	-1.009877	1.560364	99
Es	-0.554728	-0.147634	-1.489263	99
Es	-0.955950	-0.308383	1.583038	99
Es	-0.463175	-1.077699	-2.711305	99
Es	-0.402452	0.584308	-1.565723	99
Es	0.413018	-0.216862	0.907002	99
Es	0.236608	-1.537457	-0.461942	99
Es	1.095535	1.718337	1.266141	99
Es	-1.261231	-0.223582	-1.258887	99
Es	0.886858	-0.610392	1.308196	99
Es	-0.445726	-0.776935	-2.761356	99
Es	1.393323	1.614080	0.726465	99
Es	-0.463934	-0.531168	-2.279593	99
Es	-0.069802	-0.470449	-0.979259	99
Es	0.660081	0.492332	0.903112	99
Es	-0.635186	-0.631952	-2.950232	99
Es	0.409484	-0.812435	-0.509841	99
Es	-1.453441	0.131970	1.250582	99
Es	0.894952	1.143976	0.907032	99
Es	0.045706	-0.674946	-2.922373	99
Es	-0.266089	-0.243417	1.232698	99
Es	1.524584	2.922722	0.908650	99
Es	0.405684	-0.483030	0.201437	99
Es	1.292407	2.266360	0.907035	99
Es	0.804343	1.822070	0.724137	99
Es	-0.904291	-0.101151	2.294115	99
Es	1.103114	-0.774955	-0.799897	99
44
Properties=species:S:1:pos:R:3:Z:I:1 energy=-307.93316327615685 field_type=dipole dipole="0.000000 0.000000 0.000000" charge=0
C	-0.955992	-0.308386	1.583064	6
C	0.413018	-0.216956	0.907034	6
C	0.409487	-0.812476	-0.509886	6
C	-0.554782	-0.147506	-1.489096	6
O	-0.445933	-0.777056	-2.761496	8
C	0.895037	1.144214	0.907034	6
C	1.292318	2.266114	0.907034	6
H	-0.888442	-0.001586	2.632704	1
H	-1.334422	-1.335066	1.558994	1
H	-1.695132	0.342464	1.104694	1
H	1.106807	-0.824686	1.503244	1
H	0.166588	-1.882306	-0.454006	1
H	1.424048	-0.771636	-0.930426	1
H	-0.341712	0.917814	-1.616786	1
H	-1.591812	-0.255346	-1.160256	1
H	0.453038	-0.608596	-3.092536	1
H	1.647887	3.270994	0.910684	1
Es	1.524606	2.922672	0.908605	99
Es	-0.465658	-1.077847	-2.712722	99
Es	0.894949	1.143967	0.907033	99
Es	-1.261157	-0.223690	-1.258788	99
Es	0.659915	0.492269	0.903186	99
Es	0.771234	1.833954	0.808485	99
Es	0.046228	-0.676358	-2.921982	99
Es	-0.554729	-0.147634	-1.489266	99
Es	-0.266079	-0.243452	1.232654	99
Es	0.405779	-0.483029	0.201467	99
Es	-0.069716	-0.470467	-0.979396	99
Es	-0.445688	-0.776860	-2.761344	99
Es	1.341216	1.632266	0.653570	99
Es	1.180800	1.688361	1.254709	99
Es	-1.206345	-1.009830	1.560285	99
Es	0.409484	-0.812436	-0.509842	99
Es	-0.402574	0.584336	-1.565704	99
Es	-0.955946	-0.308386	1.583041	99
Es	1.103082	-0.774868	-0.799832	99
Es	-0.633607	-0.629941	-2.949616	99
Es	-1.453474	0.131994	1.250591	99
Es	-0.463640	-0.531682	-2.279242	99
Es	0.413017	-0.216856	0.907007	99
Es	0.886844	-0.610285	1.308284	99
Es	0.236755	-1.537455	-0.462002	99
Es	1.292402	2.266359	0.907035	99
Es	-0.904385	-0.101269	2.294118	99
44
Properties=species:S:1:pos:R:3:Z:I:1 energy=-307.93316327615685 field_type=dipole dipole="0.000000 0.000000 0.000000" charge=0
C	-0.955992	-0.308386	1.583064	6
C	0.413018	-0.216956	0.907034	6
C	0.409487	-0.812476	-0.509886	6
C	-0.554782	-0.147506	-1.489096	6
O	-0.445933	-0.777056	-2.761496	8
C	0.895037	1.144214	0.907034	6
C	1.292318	2.266114	0.907034	6
H	-0.888442	-0.001586	2.632704	1
H	-1.334422	-1.335066	1.558994	1
H	-1.695132	0.342464	1.104694	1
H	1.106807	-0.824686	1.503244	1
H	0.166588	-1.882306	-0.454006	1
H	1.424048	-0.771636	-0.930426	1
H	-0.341712	0.917814	-1.616786	1
H	-1.591812	-0.255346	-1.160256	1
H	0.453038	-0.608596	-3.092536	1
H	1.647887	3.270994	0.910684	1
Es	1.386935	1.616311	0.715042	99
Es	0.413017	-0.216858	0.907012	99
Es	0.886976	-0.610270	1.308242	99
Es	-1.261155	-0.223627	-1.258832	99
Es	-0.266181	-0.243339	1.232707	99
Es	-0.904316	-0.101288	2.294100	99
Es	0.405806	-0.482898	0.201418	99
Es	-0.445715	-0.776789	-2.761347	99
Es	0.798304	1.824247	0.735629	99
Es	0.659896	0.492136	0.903181	99
Es	1.108023	1.713951	1.266051	99
Es	0.045629	-0.674830	-2.922909	99
Es	-0.069698	-0.470444	-0.979351	99
Es	0.236689	-1.537452	-0.461989	99
Es	-0.402558	0.584302	-1.565703	99
Es	0.409479	-0.812433	-0.509847	99
Es	1.103040	-0.774955	-0.799844	99
Es	0.894958	1.143977	0.907030	99
Es	-0.636226	-0.633573	-2.950620	99
Es	-0.554729	-0.147635	-1.489267	99
Es	-0.461991	-1.076836	-2.710348	99
Es	-1.206366	-1.009858	1.560287	99
Es	1.524576	2.922677	0.908638	99
Es	-0.464049	-0.530670	-2.279694	99
Es	-0.955948	-0.308386	1.583040	99
Es	-1.453487	0.132012	1.250675	99
Es	1.292403	2.266359	0.907032	99
