44
Properties=species:S:1:pos:R:3:Z:I:1 energy=-307.9511251085039 field_type=dipole dipole="0.000000 0.000000 0.000000" charge=0
C	-0.566492	-2.207533	-0.335186	6
C	-0.758972	-1.292673	0.865454	6
C	-0.519712	0.154417	0.520834	6
C	-1.508652	1.063727	0.518664	6
O	0.817008	0.474457	0.331234	8
C	1.177378	1.392527	-0.622906	6
C	2.396168	1.936267	-0.657076	6
H	-0.776092	-3.244873	-0.054796	1
H	0.461018	-2.161863	-0.710346	1
H	-1.242072	-1.935433	-1.152926	1
H	-0.072892	-1.591093	1.667224	1
H	-1.773562	-1.433333	1.257994	1
H	-2.535982	0.779547	0.719004	1
H	-1.314782	2.115667	0.340874	1
H	0.411398	1.621307	-1.350476	1
H	3.141868	1.674277	0.085524	1
H	2.664368	2.654607	-1.423096	1
Es	1.708067	1.935469	-0.459246	99
Es	0.956765	0.239860	0.230912	99
Es	0.653633	1.543217	-1.110502	99
Es	2.576538	2.416513	-1.174839	99
Es	2.900577	1.763980	-0.159599	99
Es	-0.658879	-1.733165	0.262493	99
Es	0.301168	0.378737	0.350122	99
Es	-0.758956	-1.292628	0.865405	99
Es	-1.452197	-1.377019	1.126440	99
Es	-0.566501	-2.207508	-0.335148	99
Es	-1.029010	-2.017991	-0.888992	99
Es	0.816760	0.474601	0.331062	99
Es	1.177190	1.392294	-0.622709	99
Es	0.872419	0.590437	0.578839	99
Es	-0.291244	-1.484488	1.403962	99
Es	2.396229	1.936273	-0.657098	99
Es	-2.200864	0.869566	0.650684	99
Es	1.915823	1.434410	-0.837826	99
Es	0.901519	0.837586	-0.029968	99
Es	-1.378138	1.774416	0.391970	99
Es	-0.628653	-0.561449	0.684909	99
Es	-1.508704	1.063770	0.518620	99
Es	-1.007737	0.693971	0.832120	99
Es	-0.710875	-2.912144	-0.138953	99
Es	-1.089125	0.576598	0.178975	99
Es	0.130446	-2.173502	-0.588029	99
Es	-0.519357	0.154385	0.520810	99
44
Properties=species:S:1:pos:R:3:Z:I:1 energy=-307.9511251085039 field_type=dipole dipole="0.000000 0.000000 0.000000" charge=0
C	-0.566492	-2.207533	-0.335186	6
C	-0.758972	-1.292673	0.865454	6
C	-0.519712	0.154417	0.520834	6
C	-1.508652	1.063727	0.518664	6
O	0.817008	0.474457	0.331234	8
C	1.177378	1.392527	-0.622906	6
C	2.396168	1.936267	-0.657076	6
H	-0.776092	-3.244873	-0.054796	1
H	0.461018	-2.161863	-0.710346	1
H	-1.242072	-1.935433	-1.152926	1
H	-0.072892	-1.591093	1.667224	1
H	-1.773562	-1.433333	1.257994	1
H	-2.535982	0.779547	0.719004	1
H	-1.314782	2.115667	0.340874	1
H	0.411398	1.621307	-1.350476	1
H	3.141868	1.674277	0.085524	1
H	2.664368	2.654607	-1.423096	1
Es	-0.566501	-2.207509	-0.335149	99
Es	2.396226	1.936287	-0.657088	99
Es	-1.452203	-1.376973	1.126494	99
Es	2.576453	2.416747	-1.174717	99
Es	-1.029013	-2.018013	-0.888919	99
Es	1.177194	1.392299	-0.622712	99
Es	-1.378163	1.774384	0.391990	99
Es	2.900542	1.764035	-0.159650	99
Es	0.863902	0.597917	0.574623	99
Es	0.964707	0.237669	0.240253	99
Es	-1.007679	0.694021	0.832017	99
Es	0.130423	-2.173529	-0.588123	99
Es	-0.519357	0.154381	0.520797	99
Es	-0.628744	-0.561588	0.685045	99
Es	-0.291238	-1.484419	1.403945	99
Es	-2.200865	0.869572	0.650733	99
Es	-1.508701	1.063768	0.518624	99
Es	-0.710875	-2.912127	-0.139007	99
Es	0.901686	0.835290	-0.031525	99
Es	-1.089123	0.576620	0.179038	99
Es	-0.658824	-1.733151	0.262439	99
Es	0.816749	0.474587	0.331021	99
Es	0.653575	1.543371	-1.110428	99
Es	1.915967	1.434378	-0.838080	99
Es	1.708084	1.935059	-0.459160	99
Es	0.301630	0.375741	0.346547	99
Es	-0.758956	-1.292628	0.865405	99
44
Properties=species:S:1:pos:R:3:Z:I:1 energy=-307.9511251085039 field_type=dipole dipole="0.000000 0.000000 0.000000" charge=0
C	-0.566492	-2.207533	-0.335186	6
C	-0.758972	-1.292673	0.865454	6
C	-0.519712	0.154417	0.520834	6
C	-1.508652	1.063727	0.518664	6
O	0.817008	0.474457	0.331234	8
C	1.177378	1.392527	-0.622906	6
C	2.396168	1.936267	-0.657076	6
H	-0.776092	-3.244873	-0.054796	1
H	0.461018	-2.161863	-0.710346	1
H	-1.242072	-1.935433	-1.152926	1
H	-0.072892	-1.591093	1.667224	1
H	-1.773562	-1.433333	1.257994	1
H	-2.535982	0.779547	0.719004	1
H	-1.314782	2.115667	0.340874	1
H	0.411398	1.621307	-1.350476	1
H	3.141868	1.674277	0.085524	1
H	2.664368	2.654607	-1.423096	1
Es	2.900530	1.764107	-0.159710	99
Es	0.960420	0.239195	0.234646	99
Es	0.816694	0.474690	0.331036	99
Es	-1.378127	1.774359	0.392036	99
Es	-0.710862	-2.912116	-0.138970	99
Es	-0.519346	0.154384	0.520814	99
Es	0.300962	0.377298	0.348538	99
Es	-0.566501	-2.207509	-0.335150	99
Es	-1.028997	-2.018066	-0.888949	99
Es	-1.089098	0.576661	0.179062	99
Es	0.868841	0.593106	0.576795	99
Es	-1.508703	1.063771	0.518628	99
Es	-0.628715	-0.561624	0.685117	99
Es	-0.291322	-1.484423	1.403913	99
Es	1.708162	1.935222	-0.459189	99
Es	-1.452195	-1.376892	1.126530	99
Es	2.396227	1.936286	-0.657089	99
Es	0.901779	0.836969	-0.030018	99
Es	-0.658821	-1.733146	0.262373	99
Es	1.915887	1.434205	-0.837915	99
Es	2.576461	2.416685	-1.174790	99
Es	0.130380	-2.173565	-0.588121	99
Es	-0.758955	-1.292628	0.865405	99
Es	-1.007711	0.693962	0.831882	99
Es	0.653608	1.543355	-1.110461	99
Es	-2.200891	0.869608	0.650714	99
Es	1.177189	1.392295	-0.622710	99
44
Properties=species:S:1:pos:R:3:Z:I:1 energy=-307.9511251085039 field_type=dipole dipole="0.000000 0.000000 0.000000" charge=0
C	-0.566492	-2.207533	-0.335186	6
C	-0.758972	-1.292673	0.865454	6
C	-0.519712	0.154417	0.520834	6
C	-1.508652	1.063727	0.518664	6
O	0.817008	0.474457	0.331234	8
C	1.177378	1.392527	-0.622906	6
C	2.396168	1.936267	-0.657076	6
H	-0.776092	-3.244873	-0.054796	1
H	0.461018	-2.161863	-0.710346	1
H	-1.242072	-1.935433	-1.152926	1
H	-0.072892	-1.591093	1.667224	1
H	-1.773562	-1.433333	1.257994	1
H	-2.535982	0.779547	0.719004	1
H	-1.314782	2.115667	0.340874	1
H	0.411398	1.621307	-1.350476	1
H	3.141868	1.674277	0.085524	1
H	2.664368	2.654607	-1.423096	1
Es	-1.452091	-1.376856	1.126429	99
Es	-2.200852	0.869529	0.650813	99
Es	0.653599	1.543379	-1.110542	99
Es	-0.758956	-1.292628	0.865407	99
Es	1.177192	1.392295	-0.622711	99
Es	1.708167	1.935213	-0.459320	99
Es	-0.628870	-0.561738	0.685244	99
Es	0.300849	0.378645	0.349275	99
Es	-1.508705	1.063770	0.518627	99
Es	-0.519360	0.154383	0.520795	99
Es	-0.566500	-2.207509	-0.335150	99
Es	-0.658783	-1.733256	0.262344	99
Es	0.130373	-2.173538	-0.588158	99
Es	0.901634	0.838639	-0.028209	99
Es	1.915828	1.434329	-0.837875	99
Es	-0.710847	-2.912123	-0.139053	99
Es	2.900519	1.764031	-0.159648	99
Es	-1.029002	-2.018044	-0.888904	99
Es	0.955736	0.241238	0.228557	99
Es	-1.378244	1.774347	0.391914	99
Es	-0.291381	-1.484370	1.404056	99
Es	0.873775	0.588181	0.580502	99
Es	2.396226	1.936291	-0.657084	99
Es	-1.007605	0.694135	0.831768	99
Es	0.816682	0.474526	0.330873	99
Es	-1.089022	0.576690	0.179187	99
Es	2.576535	2.416630	-1.174723	99
44
Properties=species:S:1:pos:R:3:Z:I:1 energy=-307.9511251085039 field_type=dipole dipole="0.000000 0.000000 0.000000" charge=0
C	-0.566492	-2.207533	-0.335186	6
C	-0.758972	-1.292673	0.865454	6
C	-0.519712	0.154417	0.520834	6
C	-1.508652	1.063727	0.518664	6
O	0.817008	0.474457	0.331234	8
C	1.177378	1.392527	-0.622906	6
C	2.396168	1.936267	-0.657076	6
H	-0.776092	-3.244873	-0.054796	1
H	0.461018	-2.161863	-0.710346	1
H	-1.242072	-1.935433	-1.152926	1
H	-0.072892	-1.591093	1.667224	1
H	-1.773562	-1.433333	1.257994	1
H	-2.535982	0.779547	0.719004	1
H	-1.314782	2.115667	0.340874	1
H	0.411398	1.621307	-1.350476	1
H	3.141868	1.674277	0.085524	1
H	2.664368	2.654607	-1.423096	1
Es	-1.007718	0.693977	0.831966	99
Es	0.816714	0.474625	0.330967	99
Es	-1.028924	-2.018049	-0.888925	99
Es	0.130334	-2.173633	-0.588147	99
Es	1.708216	1.935210	-0.459313	99
Es	-0.628929	-0.561791	0.685141	99
Es	-0.291315	-1.484369	1.403985	99
Es	-1.378130	1.774361	0.391887	99
Es	-2.200853	0.869653	0.650555	99
Es	2.900549	1.764053	-0.159670	99
Es	0.867446	0.594160	0.575414	99
Es	-0.519370	0.154386	0.520800	99
Es	-0.710901	-2.912106	-0.139077	99
Es	-0.658827	-1.733161	0.262359	99
Es	-1.089001	0.576702	0.179388	99
Es	1.177189	1.392294	-0.622709	99
Es	-1.508700	1.063767	0.518622	99
Es	2.396223	1.936288	-0.657086	99
Es	-0.758956	-1.292628	0.865406	99
Es	0.901815	0.836777	-0.030380	99
Es	0.961851	0.238978	0.236566	99
Es	0.300887	0.376717	0.348439	99
Es	1.915784	1.434314	-0.837862	99
Es	-0.566500	-2.207510	-0.335152	99
Es	0.653625	1.543371	-1.110527	99
Es	2.576484	2.416647	-1.174756	99
Es	-1.452099	-1.376844	1.126523	99
44
Properties=species:S:1:pos:R:3:Z:I:1 energy=-307.9511251085039 field_type=dipole dipole="0.000000 0.000000 0.000000" charge=0
C	-0.566492	-2.207533	-0.335186	6
C	-0.758972	-1.292673	0.865454	6
C	-0.519712	0.154417	0.520834	6
C	-1.508652	1.063727	0.518664	6
O	0.817008	0.474457	0.331234	8
C	1.177378	1.392527	-0.622906	6
C	2.396168	1.936267	-0.657076	6
H	-0.776092	-3.244873	-0.054796	1
H	0.461018	-2.161863	-0.710346	1
H	-1.242072	-1.935433	-1.152926	1
H	-0.072892	-1.591093	1.667224	1
H	-1.773562	-1.433333	1.257994	1
H	-2.535982	0.779547	0.719004	1
H	-1.314782	2.115667	0.340874	1
H	0.411398	1.621307	-1.350476	1
H	3.141868	1.674277	0.085524	1
H	2.664368	2.654607	-1.423096	1
Es	-0.710876	-2.912069	-0.139119	99
Es	-0.519354	0.154384	0.520807	99
Es	2.576480	2.416719	-1.174697	99
Es	-1.508701	1.063770	0.518626	99
Es	-1.452026	-1.376784	1.126589	99
Es	0.816696	0.474590	0.330942	99
Es	2.396222	1.936289	-0.657084	99
Es	0.902197	0.836135	-0.031025	99
Es	2.900480	1.764163	-0.159625	99
Es	-1.378122	1.774316	0.392036	99
Es	0.653587	1.543501	-1.110548	99
Es	-1.088882	0.576711	0.179368	99
Es	-0.291270	-1.484336	1.403987	99
Es	-0.629050	-0.561950	0.685254	99
Es	-2.200884	0.869665	0.650723	99
Es	1.177193	1.392298	-0.622711	99
Es	0.865969	0.595530	0.574718	99
Es	1.708073	1.934806	-0.459275	99
Es	0.300882	0.376073	0.347644	99
Es	-0.758957	-1.292630	0.865406	99
Es	-0.566500	-2.207509	-0.335150	99
Es	0.962961	0.238978	0.238722	99
Es	-1.028882	-2.018121	-0.888952	99
Es	0.130314	-2.173661	-0.588147	99
Es	-1.007769	0.694053	0.831668	99
Es	1.916051	1.434382	-0.838015	99
Es	-0.658935	-1.733112	0.262275	99
44
Properties=species:S:1:pos:R:3:Z:I:1 energy=-307.9511251085039 field_type=dipole dipole="0.000000 0.000000 0.000000" charge=0
C	-0.566492	-2.207533	-0.335186	6
C	-0.758972	-1.292673	0.865454	6
C	-0.519712	0.154417	0.520834	6
C	-1.508652	1.063727	0.518664	6
O	0.817008	0.474457	0.331234	8
C	1.177378	1.392527	-0.622906	6
C	2.396168	1.936267	-0.657076	6
H	-0.776092	-3.244873	-0.054796	1
H	0.461018	-2.161863	-0.710346	1
H	-1.242072	-1.935433	-1.152926	1
H	-0.072892	-1.591093	1.667224	1
H	-1.773562	-1.433333	1.257994	1
H	-2.535982	0.779547	0.719004	1
H	-1.314782	2.115667	0.340874	1
H	0.411398	1.621307	-1.350476	1
H	3.141868	1.674277	0.085524	1
H	2.664368	2.654607	-1.423096	1
Es	-0.566500	-2.207510	-0.335150	99
Es	-1.088675	0.576680	0.179584	99
Es	2.396222	1.936286	-0.657085	99
Es	-1.378139	1.774367	0.391976	99
Es	0.902282	0.835392	-0.031955	99
Es	-1.452047	-1.376769	1.126528	99
Es	0.965597	0.239514	0.242330	99
Es	1.177193	1.392292	-0.622713	99
Es	0.300994	0.373813	0.346434	99
Es	-0.629117	-0.562004	0.685205	99
Es	-1.508700	1.063767	0.518623	99
Es	-2.200873	0.869602	0.650635	99
Es	0.816706	0.474576	0.331026	99
Es	-1.007915	0.694123	0.831658	99
Es	2.576518	2.416572	-1.174754	99
Es	0.653613	1.543459	-1.110627	99
Es	1.708195	1.935138	-0.459293	99
Es	-0.291325	-1.484266	1.404054	99
Es	0.130254	-2.173625	-0.588153	99
Es	2.900554	1.764051	-0.159708	99
Es	-0.710811	-2.912098	-0.139166	99
Es	0.863160	0.598001	0.573142	99
Es	1.915774	1.434380	-0.837780	99
Es	-1.028862	-2.018152	-0.888957	99
Es	-0.519362	0.154383	0.520797	99
Es	-0.758957	-1.292630	0.865406	99
Es	-0.658883	-1.733152	0.262359	99
44
Properties=species:S:1:pos:R:3:Z:I:1 energy=-307.9511251085039 field_type=dipole dipole="0.000000 0.000000 0.000000" charge=0
C	-0.566492	-2.207533	-0.335186	6
C	-0.758972	-1.292673	0.865454	6
C	-0.519712	0.154417	0.520834	6
C	-1.508652	1.063727	0.518664	6
O	0.817008	0.474457	0.331234	8
C	1.177378	1.392527	-0.622906	6
C	2.396168	1.936267	-0.657076	6
H	-0.776092	-3.244873	-0.054796	1
H	0.461018	-2.161863	-0.710346	1
H	-1.242072	-1.935433	-1.152926	1
H	-0.072892	-1.591093	1.667224	1
H	-1.773562	-1.433333	1.257994	1
H	-2.535982	0.779547	0.719004	1
H	-1.314782	2.115667	0.340874	1
H	0.411398	1.621307	-1.350476	1
H	3.141868	1.674277	0.085524	1
H	2.664368	2.654607	-1.423096	1
Es	-2.200877	0.869648	0.650804	99
Es	0.959369	0.239866	0.233985	99
Es	0.870077	0.591388	0.576002	99
Es	-0.291371	-1.484214	1.404061	99
Es	0.653621	1.543506	-1.110608	99
Es	-1.028905	-2.018161	-0.888914	99
Es	-1.088870	0.576723	0.179389	99
Es	-0.758956	-1.292630	0.865406	99
Es	2.576522	2.416590	-1.174744	99
Es	-0.566500	-2.207510	-0.335150	99
Es	-0.710802	-2.912130	-0.139097	99
Es	1.708197	1.935077	-0.459339	99
Es	0.130222	-2.173614	-0.588214	99
Es	2.396222	1.936288	-0.657085	99
Es	0.300305	0.377840	0.349703	99
Es	0.816705	0.474625	0.330978	99
Es	-1.007794	0.694008	0.831409	99
Es	-0.629115	-0.562024	0.685322	99
Es	-0.658752	-1.733149	0.262260	99
Es	-1.378104	1.774347	0.392164	99
Es	1.915807	1.434355	-0.837792	99
Es	2.900526	1.764094	-0.159695	99
Es	1.177192	1.392296	-0.622711	99
Es	-1.452052	-1.376772	1.126521	99
Es	-1.508699	1.063767	0.518625	99
Es	-0.519362	0.154383	0.520799	99
Es	0.902288	0.837593	-0.029664	99
44
Properties=species:S:1:pos:R:3:Z:I:1 energy=-307.9511251085039 field_type=dipole dipole="0.000000 0.000000 0.000000" charge=0
C	-0.566492	-2.207533	-0.335186	6
C	-0.758972	-1.292673	0.865454	6
C	-0.519712	0.154417	0.520834	6
C	-1.508652	1.063727	0.518664	6
O	0.817008	0.474457	0.331234	8
C	1.177378	1.392527	-0.622906	6
C	2.396168	1.936267	-0.657076	6
H	-0.776092	-3.244873	-0.054796	1
H	0.461018	-2.161863	-0.710346	1
H	-1.242072	-1.935433	-1.152926	1
H	-0.072892	-1.591093	1.667224	1
H	-1.773562	-1.433333	1.257994	1
H	-2.535982	0.779547	0.719004	1
H	-1.314782	2.115667	0.340874	1
H	0.411398	1.621307	-1.350476	1
H	3.141868	1.674277	0.085524	1
H	2.664368	2.654607	-1.423096	1
Es	-0.566500	-2.207510	-0.335150	99
Es	-1.028827	-2.018189	-0.888939	99
Es	-1.452006	-1.376724	1.126629	99
Es	2.900536	1.764100	-0.159717	99
Es	1.708198	1.935041	-0.459379	99
Es	1.177192	1.392296	-0.622711	99
Es	2.576540	2.416532	-1.174741	99
Es	-1.007668	0.694026	0.831441	99
Es	-0.291310	-1.484163	1.404020	99
Es	-1.378169	1.774334	0.391989	99
Es	0.961743	0.240344	0.236293	99
Es	-0.629280	-0.562164	0.685335	99
Es	-0.758957	-1.292631	0.865406	99
Es	-0.519363	0.154383	0.520800	99
Es	0.867226	0.592793	0.575709	99
Es	0.130191	-2.173696	-0.588206	99
Es	-0.658854	-1.733130	0.262302	99
Es	-2.200812	0.869673	0.650772	99
Es	0.902357	0.837814	-0.029562	99
Es	2.396221	1.936288	-0.657085	99
Es	0.653629	1.543537	-1.110680	99
Es	0.300747	0.375649	0.347643	99
Es	-0.710812	-2.912070	-0.139227	99
Es	-1.088898	0.576799	0.179575	99
Es	-1.508704	1.063768	0.518623	99
Es	0.816693	0.474695	0.331006	99
Es	1.915782	1.434394	-0.837729	99
44
Properties=species:S:1:pos:R:3:Z:I:1 energy=-307.9511251085039 field_type=dipole dipole="0.000000 0.000000 0.000000" charge=0
C	-0.566492	-2.207533	-0.335186	6
C	-0.758972	-1.292673	0.865454	6
C	-0.519712	0.154417	0.520834	6
C	-1.508652	1.063727	0.518664	6
O	0.817008	0.474457	0.331234	8
C	1.177378	1.392527	-0.622906	6
C	2.396168	1.936267	-0.657076	6
H	-0.776092	-3.244873	-0.054796	1
H	0.461018	-2.161863	-0.710346	1
H	-1.242072	-1.935433	-1.152926	1
H	-0.072892	-1.591093	1.667224	1
H	-1.773562	-1.433333	1.257994	1
H	-2.535982	0.779547	0.719004	1
H	-1.314782	2.115667	0.340874	1
H	0.411398	1.621307	-1.350476	1
H	3.141868	1.674277	0.085524	1
H	2.664368	2.654607	-1.423096	1
Es	2.396212	1.936301	-0.657074	99
Es	1.177191	1.392297	-0.622710	99
Es	-0.710776	-2.912092	-0.139187	99
Es	-2.200883	0.869645	0.650662	99
Es	1.708183	1.934991	-0.459347	99
Es	-1.508705	1.063768	0.518615	99
Es	-0.519364	0.154384	0.520801	99
Es	-0.629394	-0.562176	0.685327	99
Es	2.576577	2.416532	-1.174723	99
Es	2.900525	1.764041	-0.159759	99
Es	-0.566504	-2.207508	-0.335155	99
Es	-1.007914	0.694144	0.831411	99
Es	0.816734	0.474681	0.331040	99
Es	1.915780	1.434456	-0.837747	99
Es	-1.028834	-2.018210	-0.888955	99
Es	0.300989	0.374597	0.346450	99
Es	-0.291294	-1.484123	1.404089	99
Es	0.965448	0.238867	0.242508	99
Es	-0.658830	-1.733123	0.262270	99
Es	0.902693	0.835458	-0.031772	99
Es	-1.088571	0.576750	0.179656	99
Es	-1.451935	-1.376737	1.126594	99
Es	-1.378164	1.774288	0.392094	99
Es	0.653632	1.543570	-1.110707	99
Es	0.130138	-2.173694	-0.588207	99
Es	0.862918	0.597713	0.572834	99
Es	-0.758958	-1.292631	0.865407	99
