44
Properties=species:S:1:pos:R:3:Z:I:1 energy=-307.9360050871883 field_type=dipole dipole="0.000000 0.000000 0.000000" charge=0
C	-0.359054	-1.833551	-1.229914	6
C	-0.711604	-0.992391	-0.009214	6
C	-0.156183	0.443409	-0.076354	6
C	-0.693014	1.262039	1.111766	6
O	-0.416553	2.653979	0.953916	8
C	1.287816	0.443409	-0.076354	6
C	2.477977	0.443409	-0.076354	6
H	-0.844404	-2.812931	-1.162964	1
H	0.719887	-2.004271	-1.304484	1
H	-0.697074	-1.350651	-2.152034	1
H	-0.346744	-1.501201	0.891796	1
H	-1.804614	-0.952481	0.069556	1
H	-0.506984	0.918149	-1.001994	1
H	-0.263274	0.932559	2.064796	1
H	-1.781673	1.164359	1.183626	1
H	0.551436	2.747829	0.895696	1
H	3.544056	0.438339	-0.081484	1
Es	-1.459147	-0.953816	0.044138	99
Es	-0.416292	2.653728	0.953907	99
Es	1.895769	0.147842	0.128633	99
Es	1.891812	0.773439	0.085642	99
Es	-0.378536	0.759479	-0.696722	99
Es	-0.404941	-0.263464	-0.042666	99
Es	1.897072	0.421120	-0.429123	99
Es	0.598060	0.443610	-0.074571	99
Es	-1.436107	1.187513	1.151700	99
Es	-0.692902	-2.499287	-1.180684	99
Es	-0.527533	-1.404352	-0.621489	99
Es	-0.503683	2.787187	1.213797	99
Es	1.287565	0.443413	-0.076350	99
Es	-0.359072	-1.833531	-1.229884	99
Es	3.173947	0.440633	-0.078878	99
Es	2.478245	0.443400	-0.076345	99
Es	-0.711570	-0.992347	-0.009247	99
Es	-0.692930	1.262242	1.111683	99
Es	-0.529187	2.733017	0.678097	99
Es	0.104538	2.683708	0.926794	99
Es	-0.396830	0.840542	0.509316	99
Es	0.372220	-1.945750	-1.278312	99
Es	-0.592079	-1.498139	-1.856561	99
Es	-0.156070	0.443382	-0.076317	99
Es	-0.392128	1.020592	1.760321	99
Es	-0.459154	-1.332658	0.608121	99
Es	-0.494798	2.119168	1.010544	99
44
Properties=species:S:1:pos:R:3:Z:I:1 energy=-307.9360050871883 field_type=dipole dipole="0.000000 0.000000 0.000000" charge=0
C	-0.359054	-1.833551	-1.229914	6
C	-0.711604	-0.992391	-0.009214	6
C	-0.156183	0.443409	-0.076354	6
C	-0.693014	1.262039	1.111766	6
O	-0.416553	2.653979	0.953916	8
C	1.287816	0.443409	-0.076354	6
C	2.477977	0.443409	-0.076354	6
H	-0.844404	-2.812931	-1.162964	1
H	0.719887	-2.004271	-1.304484	1
H	-0.697074	-1.350651	-2.152034	1
H	-0.346744	-1.501201	0.891796	1
H	-1.804614	-0.952481	0.069556	1
H	-0.506984	0.918149	-1.001994	1
H	-0.263274	0.932559	2.064796	1
H	-1.781673	1.164359	1.183626	1
H	0.551436	2.747829	0.895696	1
H	3.544056	0.438339	-0.081484	1
Es	-0.459141	-1.332597	0.608066	99
Es	0.597857	0.443622	-0.074399	99
Es	-0.711572	-0.992347	-0.009247	99
Es	1.896014	0.159591	0.145566	99
Es	-0.527660	-1.404482	-0.621452	99
Es	-0.692932	1.262240	1.111683	99
Es	3.173892	0.440712	-0.078847	99
Es	-1.459067	-0.953876	0.044264	99
Es	-1.436111	1.187468	1.151704	99
Es	1.896745	0.400920	-0.427392	99
Es	-0.359071	-1.833532	-1.229886	99
Es	-0.494975	2.119482	1.013323	99
Es	-0.156071	0.443382	-0.076318	99
Es	-0.526452	2.728279	0.677474	99
Es	-0.505987	2.792149	1.212495	99
Es	0.372174	-1.945706	-1.278283	99
Es	-0.692777	-2.499289	-1.180741	99
Es	2.478239	0.443423	-0.076348	99
Es	-0.392220	1.020654	1.760280	99
Es	1.287562	0.443415	-0.076353	99
Es	-0.378360	0.759500	-0.696837	99
Es	-0.396770	0.840558	0.509370	99
Es	1.891972	0.781810	0.066896	99
Es	-0.592091	-1.498135	-1.856613	99
Es	-0.416320	2.653782	0.953960	99
Es	-0.404928	-0.263518	-0.042695	99
Es	0.104323	2.683164	0.925874	99
44
Properties=species:S:1:pos:R:3:Z:I:1 energy=-307.9360050871883 field_type=dipole dipole="0.000000 0.000000 0.000000" charge=0
C	-0.359054	-1.833551	-1.229914	6
C	-0.711604	-0.992391	-0.009214	6
C	-0.156183	0.443409	-0.076354	6
C	-0.693014	1.262039	1.111766	6
O	-0.416553	2.653979	0.953916	8
C	1.287816	0.443409	-0.076354	6
C	2.477977	0.443409	-0.076354	6
H	-0.844404	-2.812931	-1.162964	1
H	0.719887	-2.004271	-1.304484	1
H	-0.697074	-1.350651	-2.152034	1
H	-0.346744	-1.501201	0.891796	1
H	-1.804614	-0.952481	0.069556	1
H	-0.506984	0.918149	-1.001994	1
H	-0.263274	0.932559	2.064796	1
H	-1.781673	1.164359	1.183626	1
H	0.551436	2.747829	0.895696	1
H	3.544056	0.438339	-0.081484	1
Es	-0.494701	2.119175	1.011668	99
Es	-0.528775	2.731113	0.678660	99
Es	0.597752	0.443587	-0.074614	99
Es	0.372214	-1.945970	-1.278316	99
Es	3.173868	0.440732	-0.078944	99
Es	-0.359072	-1.833531	-1.229885	99
Es	-0.396639	0.840756	0.509426	99
Es	-0.378344	0.759432	-0.696801	99
Es	-0.392250	1.020626	1.760286	99
Es	-0.692931	1.262241	1.111682	99
Es	-0.503751	2.789486	1.214213	99
Es	1.896462	0.195736	0.186038	99
Es	1.895716	0.347581	-0.416891	99
Es	1.892526	0.798990	0.016020	99
Es	-0.459216	-1.332597	0.608043	99
Es	-0.693066	-2.499157	-1.180845	99
Es	-0.527550	-1.404344	-0.621474	99
Es	0.104154	2.683353	0.924679	99
Es	-0.416323	2.653745	0.953931	99
Es	-0.156071	0.443382	-0.076316	99
Es	-0.711575	-0.992343	-0.009248	99
Es	-1.459062	-0.953864	0.044232	99
Es	-0.591887	-1.498147	-1.856492	99
Es	2.478245	0.443413	-0.076345	99
Es	-1.436062	1.187508	1.151711	99
Es	1.287561	0.443420	-0.076357	99
Es	-0.404955	-0.263652	-0.042518	99
44
Properties=species:S:1:pos:R:3:Z:I:1 energy=-307.9360050871883 field_type=dipole dipole="0.000000 0.000000 0.000000" charge=0
C	-0.359054	-1.833551	-1.229914	6
C	-0.711604	-0.992391	-0.009214	6
C	-0.156183	0.443409	-0.076354	6
C	-0.693014	1.262039	1.111766	6
O	-0.416553	2.653979	0.953916	8
C	1.287816	0.443409	-0.076354	6
C	2.477977	0.443409	-0.076354	6
H	-0.844404	-2.812931	-1.162964	1
H	0.719887	-2.004271	-1.304484	1
H	-0.697074	-1.350651	-2.152034	1
H	-0.346744	-1.501201	0.891796	1
H	-1.804614	-0.952481	0.069556	1
H	-0.506984	0.918149	-1.001994	1
H	-0.263274	0.932559	2.064796	1
H	-1.781673	1.164359	1.183626	1
H	0.551436	2.747829	0.895696	1
H	3.544056	0.438339	-0.081484	1
Es	-0.392374	1.020613	1.760340	99
Es	0.104346	2.683368	0.925328	99
Es	-1.435964	1.187516	1.151653	99
Es	0.597535	0.443977	-0.074520	99
Es	-0.692927	1.262241	1.111686	99
Es	-0.156069	0.443382	-0.076316	99
Es	-0.459296	-1.332521	0.608075	99
Es	-0.528508	2.731562	0.678678	99
Es	-0.527507	-1.404459	-0.621344	99
Es	-0.359072	-1.833531	-1.229884	99
Es	-0.378385	0.759628	-0.696803	99
Es	1.893093	0.582663	0.260375	99
Es	-0.416329	2.653741	0.953931	99
Es	1.892688	0.093985	-0.122688	99
Es	-1.459042	-0.953838	0.044210	99
Es	2.478239	0.443412	-0.076330	99
Es	-0.711570	-0.992347	-0.009247	99
Es	-0.404898	-0.263643	-0.042602	99
Es	-0.396537	0.840528	0.509353	99
Es	1.287567	0.443422	-0.076357	99
Es	-0.503540	2.789271	1.213345	99
Es	1.899064	0.665458	-0.352659	99
Es	-0.692897	-2.499353	-1.180852	99
Es	0.372038	-1.945773	-1.278362	99
Es	-0.591906	-1.498149	-1.856526	99
Es	-0.495371	2.118975	1.011875	99
Es	3.173891	0.440541	-0.078815	99
44
Properties=species:S:1:pos:R:3:Z:I:1 energy=-307.9360050871883 field_type=dipole dipole="0.000000 0.000000 0.000000" charge=0
C	-0.359054	-1.833551	-1.229914	6
C	-0.711604	-0.992391	-0.009214	6
C	-0.156183	0.443409	-0.076354	6
C	-0.693014	1.262039	1.111766	6
O	-0.416553	2.653979	0.953916	8
C	1.287816	0.443409	-0.076354	6
C	2.477977	0.443409	-0.076354	6
H	-0.844404	-2.812931	-1.162964	1
H	0.719887	-2.004271	-1.304484	1
H	-0.697074	-1.350651	-2.152034	1
H	-0.346744	-1.501201	0.891796	1
H	-1.804614	-0.952481	0.069556	1
H	-0.506984	0.918149	-1.001994	1
H	-0.263274	0.932559	2.064796	1
H	-1.781673	1.164359	1.183626	1
H	0.551436	2.747829	0.895696	1
H	3.544056	0.438339	-0.081484	1
Es	-1.435983	1.187487	1.151763	99
Es	-0.392311	1.020630	1.760243	99
Es	-0.416434	2.653829	0.953923	99
Es	1.895982	0.360082	-0.419939	99
Es	-0.396632	0.840684	0.509437	99
Es	2.478241	0.443409	-0.076343	99
Es	-0.404897	-0.263785	-0.042596	99
Es	1.896371	0.186391	0.177250	99
Es	0.597505	0.443680	-0.074377	99
Es	-0.503134	2.788531	1.212722	99
Es	-0.527502	-1.404398	-0.621350	99
Es	1.892421	0.795864	0.027694	99
Es	-0.459288	-1.332517	0.608000	99
Es	-0.495549	2.119147	1.012291	99
Es	-0.591979	-1.498241	-1.856529	99
Es	0.372060	-1.945854	-1.278451	99
Es	-0.692935	1.262235	1.111686	99
Es	1.287564	0.443415	-0.076352	99
Es	-0.359072	-1.833532	-1.229885	99
Es	-0.711571	-0.992348	-0.009246	99
Es	-0.156071	0.443382	-0.076317	99
Es	-0.528661	2.732123	0.677843	99
Es	-1.459010	-0.953888	0.044284	99
Es	-0.378173	0.759576	-0.696860	99
Es	3.173811	0.440694	-0.078913	99
Es	-0.692862	-2.499244	-1.180815	99
Es	0.104380	2.683318	0.926381	99
44
Properties=species:S:1:pos:R:3:Z:I:1 energy=-307.9360050871883 field_type=dipole dipole="0.000000 0.000000 0.000000" charge=0
C	-0.359054	-1.833551	-1.229914	6
C	-0.711604	-0.992391	-0.009214	6
C	-0.156183	0.443409	-0.076354	6
C	-0.693014	1.262039	1.111766	6
O	-0.416553	2.653979	0.953916	8
C	1.287816	0.443409	-0.076354	6
C	2.477977	0.443409	-0.076354	6
H	-0.844404	-2.812931	-1.162964	1
H	0.719887	-2.004271	-1.304484	1
H	-0.697074	-1.350651	-2.152034	1
H	-0.346744	-1.501201	0.891796	1
H	-1.804614	-0.952481	0.069556	1
H	-0.506984	0.918149	-1.001994	1
H	-0.263274	0.932559	2.064796	1
H	-1.781673	1.164359	1.183626	1
H	0.551436	2.747829	0.895696	1
H	3.544056	0.438339	-0.081484	1
Es	-0.459314	-1.332493	0.607972	99
Es	-0.156070	0.443383	-0.076317	99
Es	0.104572	2.683680	0.924727	99
Es	3.173763	0.440760	-0.078928	99
Es	1.287565	0.443416	-0.076353	99
Es	-0.359072	-1.833530	-1.229885	99
Es	-0.404944	-0.263918	-0.042521	99
Es	-0.692931	1.262234	1.111686	99
Es	0.372023	-1.945844	-1.278414	99
Es	-1.435971	1.187492	1.151780	99
Es	1.895372	0.328103	-0.410562	99
Es	-0.527503	-1.404362	-0.621361	99
Es	-0.392353	1.020641	1.760222	99
Es	0.597460	0.443789	-0.074442	99
Es	-0.528738	2.731213	0.679335	99
Es	-0.711570	-0.992348	-0.009247	99
Es	-0.591923	-1.498283	-1.856561	99
Es	1.896564	0.210737	0.200617	99
Es	-0.378133	0.759567	-0.696801	99
Es	2.478234	0.443412	-0.076348	99
Es	-1.458999	-0.953933	0.044288	99
Es	-0.396571	0.840729	0.509418	99
Es	-0.495392	2.118967	1.012151	99
Es	-0.503498	2.789394	1.213079	99
Es	-0.692843	-2.499261	-1.180826	99
Es	1.892858	0.803407	-0.005022	99
Es	-0.416318	2.653718	0.953856	99
44
Properties=species:S:1:pos:R:3:Z:I:1 energy=-307.9360050871883 field_type=dipole dipole="0.000000 0.000000 0.000000" charge=0
C	-0.359054	-1.833551	-1.229914	6
C	-0.711604	-0.992391	-0.009214	6
C	-0.156183	0.443409	-0.076354	6
C	-0.693014	1.262039	1.111766	6
O	-0.416553	2.653979	0.953916	8
C	1.287816	0.443409	-0.076354	6
C	2.477977	0.443409	-0.076354	6
H	-0.844404	-2.812931	-1.162964	1
H	0.719887	-2.004271	-1.304484	1
H	-0.697074	-1.350651	-2.152034	1
H	-0.346744	-1.501201	0.891796	1
H	-1.804614	-0.952481	0.069556	1
H	-0.506984	0.918149	-1.001994	1
H	-0.263274	0.932559	2.064796	1
H	-1.781673	1.164359	1.183626	1
H	0.551436	2.747829	0.895696	1
H	3.544056	0.438339	-0.081484	1
Es	-0.528098	2.731609	0.679421	99
Es	2.478244	0.443409	-0.076344	99
Es	-0.396561	0.840803	0.509417	99
Es	0.104379	2.683697	0.925242	99
Es	1.287565	0.443413	-0.076353	99
Es	1.892592	0.095164	-0.133614	99
Es	-0.378043	0.759524	-0.696804	99
Es	-1.458917	-0.953892	0.044328	99
Es	3.173768	0.440461	-0.078842	99
Es	-0.527520	-1.404396	-0.621346	99
Es	-0.711571	-0.992348	-0.009247	99
Es	-0.156073	0.443381	-0.076317	99
Es	-0.416318	2.653729	0.953935	99
Es	1.893296	0.572873	0.264063	99
Es	-0.495733	2.118561	1.011717	99
Es	-0.692934	1.262238	1.111684	99
Es	1.899065	0.674161	-0.345388	99
Es	-0.591919	-1.498286	-1.856521	99
Es	-0.503589	2.789418	1.212865	99
Es	-0.359073	-1.833528	-1.229880	99
Es	-1.435913	1.187502	1.151775	99
Es	-0.392426	1.020619	1.760218	99
Es	-0.459373	-1.332508	0.607962	99
Es	-0.404909	-0.263827	-0.042496	99
Es	0.597186	0.444017	-0.074578	99
Es	-0.692856	-2.499243	-1.180868	99
Es	0.371998	-1.945882	-1.278487	99
44
Properties=species:S:1:pos:R:3:Z:I:1 energy=-307.9360050871883 field_type=dipole dipole="0.000000 0.000000 0.000000" charge=0
C	-0.359054	-1.833551	-1.229914	6
C	-0.711604	-0.992391	-0.009214	6
C	-0.156183	0.443409	-0.076354	6
C	-0.693014	1.262039	1.111766	6
O	-0.416553	2.653979	0.953916	8
C	1.287816	0.443409	-0.076354	6
C	2.477977	0.443409	-0.076354	6
H	-0.844404	-2.812931	-1.162964	1
H	0.719887	-2.004271	-1.304484	1
H	-0.697074	-1.350651	-2.152034	1
H	-0.346744	-1.501201	0.891796	1
H	-1.804614	-0.952481	0.069556	1
H	-0.506984	0.918149	-1.001994	1
H	-0.263274	0.932559	2.064796	1
H	-1.781673	1.164359	1.183626	1
H	0.551436	2.747829	0.895696	1
H	3.544056	0.438339	-0.081484	1
Es	1.287565	0.443414	-0.076351	99
Es	-1.458883	-0.953893	0.044321	99
Es	3.173719	0.440717	-0.078900	99
Es	-0.377986	0.759579	-0.696846	99
Es	-0.459450	-1.332456	0.607953	99
Es	-0.392468	1.020645	1.760199	99
Es	-0.692802	-2.499186	-1.180830	99
Es	-0.416265	2.653732	0.953977	99
Es	-0.711571	-0.992348	-0.009246	99
Es	-0.692936	1.262238	1.111686	99
Es	0.597144	0.443745	-0.074525	99
Es	-0.396455	0.840810	0.509552	99
Es	0.104528	2.684166	0.927639	99
Es	0.371966	-1.945929	-1.278461	99
Es	-0.156066	0.443383	-0.076319	99
Es	-0.591907	-1.498375	-1.856604	99
Es	-0.527531	-1.404389	-0.621328	99
Es	1.896139	0.366232	-0.421405	99
Es	1.896355	0.181861	0.172562	99
Es	-0.526088	2.729430	0.677666	99
Es	-1.435901	1.187489	1.151784	99
Es	-0.505955	2.790973	1.210596	99
Es	-0.495583	2.118723	1.013311	99
Es	-0.359073	-1.833532	-1.229883	99
Es	1.892364	0.794223	0.033864	99
Es	2.478239	0.443413	-0.076343	99
Es	-0.404830	-0.263994	-0.042527	99
44
Properties=species:S:1:pos:R:3:Z:I:1 energy=-307.9360050871883 field_type=dipole dipole="0.000000 0.000000 0.000000" charge=0
C	-0.359054	-1.833551	-1.229914	6
C	-0.711604	-0.992391	-0.009214	6
C	-0.156183	0.443409	-0.076354	6
C	-0.693014	1.262039	1.111766	6
O	-0.416553	2.653979	0.953916	8
C	1.287816	0.443409	-0.076354	6
C	2.477977	0.443409	-0.076354	6
H	-0.844404	-2.812931	-1.162964	1
H	0.719887	-2.004271	-1.304484	1
H	-0.697074	-1.350651	-2.152034	1
H	-0.346744	-1.501201	0.891796	1
H	-1.804614	-0.952481	0.069556	1
H	-0.506984	0.918149	-1.001994	1
H	-0.263274	0.932559	2.064796	1
H	-1.781673	1.164359	1.183626	1
H	0.551436	2.747829	0.895696	1
H	3.544056	0.438339	-0.081484	1
Es	1.287569	0.443419	-0.076344	99
Es	3.173681	0.440756	-0.078937	99
Es	-0.377937	0.759610	-0.696912	99
Es	-0.459441	-1.332374	0.607908	99
Es	-0.392444	1.020657	1.760150	99
Es	-0.692824	-2.499256	-1.180913	99
Es	-0.529014	2.733757	0.680378	99
Es	-0.502839	2.787066	1.213261	99
Es	-0.416337	2.653694	0.953915	99
Es	2.478239	0.443412	-0.076345	99
Es	-0.692935	1.262236	1.111685	99
Es	0.596938	0.443858	-0.074486	99
Es	1.892296	0.792078	0.041127	99
Es	0.104546	2.684358	0.925693	99
Es	-0.527476	-1.404495	-0.621331	99
Es	-0.591888	-1.498303	-1.856520	99
Es	-0.495724	2.118168	1.009934	99
Es	-0.396432	0.840821	0.509539	99
Es	0.371955	-1.945874	-1.278493	99
Es	1.896262	0.373059	-0.423023	99
Es	-0.156072	0.443382	-0.076317	99
Es	1.896353	0.177108	0.166925	99
Es	-1.435887	1.187484	1.151866	99
Es	-0.404793	-0.264131	-0.042468	99
Es	-1.458885	-0.953943	0.044382	99
Es	-0.359072	-1.833531	-1.229883	99
Es	-0.711570	-0.992348	-0.009246	99
44
Properties=species:S:1:pos:R:3:Z:I:1 energy=-307.9360050871883 field_type=dipole dipole="0.000000 0.000000 0.000000" charge=0
C	-0.359054	-1.833551	-1.229914	6
C	-0.711604	-0.992391	-0.009214	6
C	-0.156183	0.443409	-0.076354	6
C	-0.693014	1.262039	1.111766	6
O	-0.416553	2.653979	0.953916	8
C	1.287816	0.443409	-0.076354	6
C	2.477977	0.443409	-0.076354	6
H	-0.844404	-2.812931	-1.162964	1
H	0.719887	-2.004271	-1.304484	1
H	-0.697074	-1.350651	-2.152034	1
H	-0.346744	-1.501201	0.891796	1
H	-1.804614	-0.952481	0.069556	1
H	-0.506984	0.918149	-1.001994	1
H	-0.263274	0.932559	2.064796	1
H	-1.781673	1.164359	1.183626	1
H	0.551436	2.747829	0.895696	1
H	3.544056	0.438339	-0.081484	1
Es	0.371924	-1.945751	-1.278583	99
Es	1.892388	0.104801	-0.172713	99
Es	-0.711571	-0.992348	-0.009247	99
Es	-0.692936	1.262235	1.111687	99
Es	-0.496036	2.118155	1.011437	99
Es	-0.527556	-1.404435	-0.621311	99
Es	0.104625	2.684363	0.925511	99
Es	-0.396405	0.840802	0.509431	99
Es	1.287564	0.443427	-0.076341	99
Es	-0.377967	0.759609	-0.696858	99
Es	-0.156074	0.443383	-0.076314	99
Es	-0.459573	-1.332434	0.607931	99
Es	-0.591991	-1.498487	-1.856547	99
Es	-0.359072	-1.833532	-1.229886	99
Es	-0.502735	2.787910	1.212166	99
Es	2.478240	0.443411	-0.076344	99
Es	-0.404714	-0.264094	-0.042396	99
Es	-0.528929	2.732952	0.680128	99
Es	-0.692659	-2.499302	-1.180812	99
Es	1.898749	0.703559	-0.318666	99
Es	0.596875	0.444262	-0.074513	99
Es	-1.458804	-0.953853	0.044331	99
Es	3.173688	0.440519	-0.078878	99
Es	-1.435855	1.187462	1.151884	99
Es	1.893879	0.533689	0.276361	99
Es	-0.416305	2.653712	0.953971	99
Es	-0.392480	1.020655	1.760116	99
44
Properties=species:S:1:pos:R:3:Z:I:1 energy=-307.9360050871883 field_type=dipole dipole="0.000000 0.000000 0.000000" charge=0
C	-0.359054	-1.833551	-1.229914	6
C	-0.711604	-0.992391	-0.009214	6
C	-0.156183	0.443409	-0.076354	6
C	-0.693014	1.262039	1.111766	6
O	-0.416553	2.653979	0.953916	8
C	1.287816	0.443409	-0.076354	6
C	2.477977	0.443409	-0.076354	6
H	-0.844404	-2.812931	-1.162964	1
H	0.719887	-2.004271	-1.304484	1
H	-0.697074	-1.350651	-2.152034	1
H	-0.346744	-1.501201	0.891796	1
H	-1.804614	-0.952481	0.069556	1
H	-0.506984	0.918149	-1.001994	1
H	-0.263274	0.932559	2.064796	1
H	-1.781673	1.164359	1.183626	1
H	0.551436	2.747829	0.895696	1
H	3.544056	0.438339	-0.081484	1
Es	-0.377800	0.759633	-0.696838	99
Es	-0.396206	0.840937	0.509603	99
Es	1.287565	0.443415	-0.076351	99
Es	1.896611	0.213220	0.203047	99
Es	1.895337	0.324778	-0.409251	99
Es	-0.591815	-1.498396	-1.856538	99
Es	-0.504019	2.789455	1.211537	99
Es	3.173627	0.440701	-0.078948	99
Es	-0.495882	2.118264	1.012317	99
Es	-1.458811	-0.953909	0.044402	99
Es	-0.392570	1.020682	1.760106	99
Es	-0.459489	-1.332386	0.607908	99
Es	-0.416306	2.653735	0.953948	99
Es	-0.156072	0.443385	-0.076321	99
Es	-0.692802	-2.499223	-1.180949	99
Es	-0.692935	1.262233	1.111686	99
Es	1.892954	0.804351	-0.008900	99
Es	-1.435818	1.187450	1.151868	99
Es	2.478248	0.443419	-0.076330	99
Es	-0.527544	-1.404412	-0.621340	99
Es	0.371903	-1.945919	-1.278504	99
Es	0.104724	2.684625	0.925444	99
Es	-0.359072	-1.833531	-1.229884	99
Es	-0.711571	-0.992348	-0.009246	99
Es	-0.527894	2.731047	0.679974	99
Es	-0.404922	-0.264275	-0.042424	99
Es	0.596830	0.443741	-0.074472	99
44
Properties=species:S:1:pos:R:3:Z:I:1 energy=-307.9360050871883 field_type=dipole dipole="0.000000 0.000000 0.000000" charge=0
C	-0.359054	-1.833551	-1.229914	6
C	-0.711604	-0.992391	-0.009214	6
C	-0.156183	0.443409	-0.076354	6
C	-0.693014	1.262039	1.111766	6
O	-0.416553	2.653979	0.953916	8
C	1.287816	0.443409	-0.076354	6
C	2.477977	0.443409	-0.076354	6
H	-0.844404	-2.812931	-1.162964	1
H	0.719887	-2.004271	-1.304484	1
H	-0.697074	-1.350651	-2.152034	1
H	-0.346744	-1.501201	0.891796	1
H	-1.804614	-0.952481	0.069556	1
H	-0.506984	0.918149	-1.001994	1
H	-0.263274	0.932559	2.064796	1
H	-1.781673	1.164359	1.183626	1
H	0.551436	2.747829	0.895696	1
H	3.544056	0.438339	-0.081484	1
Es	-0.392552	1.020739	1.760056	99
Es	-0.377749	0.759705	-0.696831	99
Es	2.478239	0.443403	-0.076344	99
Es	-0.459537	-1.332462	0.607919	99
Es	-1.458760	-0.953851	0.044388	99
Es	-0.692935	1.262237	1.111686	99
Es	3.173594	0.440678	-0.078900	99
Es	-0.404726	-0.264369	-0.042529	99
Es	-0.416295	2.653761	0.953988	99
Es	-0.692769	-2.499262	-1.180967	99
Es	0.371864	-1.945884	-1.278534	99
Es	-0.396312	0.840778	0.509616	99
Es	-0.526702	2.730701	0.680134	99
Es	1.896403	0.378386	-0.424014	99
Es	1.896295	0.173404	0.163089	99
Es	0.596708	0.443958	-0.074539	99
Es	-0.359072	-1.833531	-1.229884	99
Es	-0.591804	-1.498426	-1.856524	99
Es	1.892289	0.790522	0.045940	99
Es	-0.527628	-1.404372	-0.621312	99
Es	-1.435826	1.187449	1.151966	99
Es	1.287567	0.443415	-0.076352	99
Es	-0.711571	-0.992348	-0.009245	99
Es	-0.496266	2.118092	1.011745	99
Es	-0.156073	0.443382	-0.076317	99
Es	-0.504885	2.789989	1.211198	99
Es	0.104776	2.684578	0.926114	99
44
Properties=species:S:1:pos:R:3:Z:I:1 energy=-307.9360050871883 field_type=dipole dipole="0.000000 0.000000 0.000000" charge=0
C	-0.359054	-1.833551	-1.229914	6
C	-0.711604	-0.992391	-0.009214	6
C	-0.156183	0.443409	-0.076354	6
C	-0.693014	1.262039	1.111766	6
O	-0.416553	2.653979	0.953916	8
C	1.287816	0.443409	-0.076354	6
C	2.477977	0.443409	-0.076354	6
H	-0.844404	-2.812931	-1.162964	1
H	0.719887	-2.004271	-1.304484	1
H	-0.697074	-1.350651	-2.152034	1
H	-0.346744	-1.501201	0.891796	1
H	-1.804614	-0.952481	0.069556	1
H	-0.506984	0.918149	-1.001994	1
H	-0.263274	0.932559	2.064796	1
H	-1.781673	1.164359	1.183626	1
H	0.551436	2.747829	0.895696	1
H	3.544056	0.438339	-0.081484	1
Es	-0.359071	-1.833531	-1.229885	99
Es	-0.527927	2.731335	0.680325	99
Es	-0.496057	2.118058	1.012182	99
Es	0.104712	2.684779	0.925370	99
Es	-0.392576	1.020663	1.760098	99
Es	2.478236	0.443413	-0.076344	99
Es	1.895822	0.140892	0.117759	99
Es	-0.692763	-2.499226	-1.180978	99
Es	1.891858	0.768271	0.097213	99
Es	1.897412	0.433131	-0.429887	99
Es	3.173548	0.440723	-0.078901	99
Es	-1.458736	-0.953906	0.044407	99
Es	-0.692935	1.262235	1.111686	99
Es	-0.459637	-1.332333	0.607869	99
Es	0.371831	-1.945929	-1.278594	99
Es	-0.156075	0.443380	-0.076317	99
Es	-1.435765	1.187446	1.151903	99
Es	-0.377723	0.759684	-0.696839	99
Es	-0.404734	-0.264358	-0.042461	99
Es	-0.503787	2.789245	1.211382	99
Es	-0.527514	-1.404478	-0.621233	99
Es	-0.396249	0.840905	0.509622	99
Es	1.287559	0.443417	-0.076350	99
Es	-0.591815	-1.498447	-1.856517	99
Es	0.596553	0.443913	-0.074672	99
Es	-0.711572	-0.992349	-0.009246	99
Es	-0.416324	2.653739	0.953952	99
44
Properties=species:S:1:pos:R:3:Z:I:1 energy=-307.9360050871883 field_type=dipole dipole="0.000000 0.000000 0.000000" charge=0
C	-0.359054	-1.833551	-1.229914	6
C	-0.711604	-0.992391	-0.009214	6
C	-0.156183	0.443409	-0.076354	6
C	-0.693014	1.262039	1.111766	6
O	-0.416553	2.653979	0.953916	8
C	1.287816	0.443409	-0.076354	6
C	2.477977	0.443409	-0.076354	6
H	-0.844404	-2.812931	-1.162964	1
H	0.719887	-2.004271	-1.304484	1
H	-0.697074	-1.350651	-2.152034	1
H	-0.346744	-1.501201	0.891796	1
H	-1.804614	-0.952481	0.069556	1
H	-0.506984	0.918149	-1.001994	1
H	-0.263274	0.932559	2.064796	1
H	-1.781673	1.164359	1.183626	1
H	0.551436	2.747829	0.895696	1
H	3.544056	0.438339	-0.081484	1
Es	-0.692935	1.262234	1.111686	99
Es	-1.458668	-0.953953	0.044517	99
Es	-0.156073	0.443383	-0.076319	99
Es	3.173560	0.440691	-0.078923	99
Es	-0.404699	-0.264378	-0.042395	99
Es	-0.527579	-1.404425	-0.621225	99
Es	-0.528666	2.731306	0.680513	99
Es	1.895525	0.333716	-0.412356	99
Es	-1.435771	1.187432	1.151903	99
Es	-0.591778	-1.498450	-1.856493	99
Es	-0.392594	1.020630	1.760053	99
Es	1.892839	0.802744	0.000470	99
Es	-0.496311	2.118095	1.013344	99
Es	-0.711573	-0.992351	-0.009247	99
Es	-0.377734	0.759655	-0.696890	99
Es	-0.692810	-2.499190	-1.181004	99
Es	1.896588	0.205898	0.196772	99
Es	-0.396172	0.841022	0.509668	99
Es	-0.459571	-1.332366	0.607813	99
Es	-0.416343	2.653783	0.953915	99
Es	0.104375	2.684163	0.923863	99
Es	0.371798	-1.946007	-1.278635	99
Es	0.596519	0.443914	-0.074543	99
Es	-0.359070	-1.833533	-1.229888	99
Es	-0.502411	2.789841	1.211620	99
Es	2.478250	0.443413	-0.076343	99
Es	1.287574	0.443405	-0.076330	99
