49
Properties=species:S:1:pos:R:3:Z:I:1 energy=-273.30492491242967 field_type=dipole dipole="0.000000 0.000000 0.000000" charge=0
C	-2.274348	-0.950476	-0.362985	6
C	-0.819548	-0.591466	-0.047715	6
C	0.096062	-1.744206	-0.461475	6
C	-0.449368	0.733874	-0.743635	6
C	0.968042	1.251604	-0.467315	6
C	1.217472	1.543454	0.984485	6
C	2.163432	0.943924	1.718325	6
H	-2.951717	-0.155516	-0.033075	1
H	-2.568258	-1.872136	0.150715	1
H	-2.423687	-1.099506	-1.437975	1
H	-0.740968	-0.463216	1.038425	1
H	0.093202	-1.883546	-1.547915	1
H	-0.229858	-2.682956	-0.000015	1
H	1.128032	-1.570066	-0.142785	1
H	-1.169808	1.506464	-0.442895	1
H	-0.563838	0.616284	-1.829255	1
H	1.110343	2.184734	-1.026185	1
H	1.709953	0.548164	-0.861765	1
H	0.587382	2.298534	1.450255	1
H	2.818053	0.187004	1.297715	1
H	2.299423	1.199044	2.765065	1
Es	2.610779	0.428145	1.435889	99
Es	2.262429	1.111752	2.430493	99
Es	1.090057	1.391759	0.267546	99
Es	-0.449328	0.733876	-0.743615	99
Es	2.163511	0.943875	1.718387	99
Es	-2.736295	-0.403726	-0.137709	99
Es	0.801046	-1.621847	-0.246210	99
Es	0.096059	-1.744200	-0.461475	99
Es	-0.765218	-0.501473	0.694614	99
Es	-0.819554	-0.591475	-0.047771	99
Es	-0.525196	0.648148	-1.489118	99
Es	1.489986	1.004079	1.446826	99
Es	-1.554776	-0.771607	-0.213871	99
Es	-2.472325	-1.581947	-0.011377	99
Es	1.217386	1.543503	0.984406	99
Es	1.062293	1.889315	-0.839448	99
Es	1.474435	0.766670	-0.728173	99
Es	-2.371853	-1.051619	-1.100376	99
Es	0.090726	-1.834835	-1.206669	99
Es	-0.352521	-1.170352	-0.263451	99
Es	1.915912	1.469071	1.276675	99
Es	-0.942928	1.265326	-0.530954	99
Es	-0.130952	-2.383683	-0.145667	99
Es	0.269113	0.987249	-0.584640	99
Es	-0.619661	0.072893	-0.396976	99
Es	0.780986	2.057551	1.292854	99
Es	-2.274342	-0.950473	-0.362983	99
Es	0.968017	1.251610	-0.467272	99
49
Properties=species:S:1:pos:R:3:Z:I:1 energy=-273.30492491242967 field_type=dipole dipole="0.000000 0.000000 0.000000" charge=0
C	-2.274348	-0.950476	-0.362985	6
C	-0.819548	-0.591466	-0.047715	6
C	0.096062	-1.744206	-0.461475	6
C	-0.449368	0.733874	-0.743635	6
C	0.968042	1.251604	-0.467315	6
C	1.217472	1.543454	0.984485	6
C	2.163432	0.943924	1.718325	6
H	-2.951717	-0.155516	-0.033075	1
H	-2.568258	-1.872136	0.150715	1
H	-2.423687	-1.099506	-1.437975	1
H	-0.740968	-0.463216	1.038425	1
H	0.093202	-1.883546	-1.547915	1
H	-0.229858	-2.682956	-0.000015	1
H	1.128032	-1.570066	-0.142785	1
H	-1.169808	1.506464	-0.442895	1
H	-0.563838	0.616284	-1.829255	1
H	1.110343	2.184734	-1.026185	1
H	1.709953	0.548164	-0.861765	1
H	0.587382	2.298534	1.450255	1
H	2.818053	0.187004	1.297715	1
H	2.299423	1.199044	2.765065	1
Es	0.780989	2.057563	1.292943	99
Es	-2.736286	-0.403817	-0.137805	99
Es	1.474520	0.766667	-0.728363	99
Es	1.062233	1.889466	-0.839220	99
Es	2.610848	0.428117	1.435924	99
Es	-0.449326	0.733875	-0.743613	99
Es	-2.472404	-1.581983	-0.011373	99
Es	1.217388	1.543500	0.984407	99
Es	-0.764995	-0.501454	0.694658	99
Es	-0.130876	-2.383612	-0.145701	99
Es	0.096057	-1.744197	-0.461474	99
Es	-0.619787	0.072814	-0.397100	99
Es	-2.371844	-1.051576	-1.100348	99
Es	2.163509	0.943877	1.718384	99
Es	-2.274342	-0.950473	-0.362983	99
Es	1.915808	1.468954	1.276707	99
Es	1.490116	1.004207	1.446754	99
Es	1.090109	1.391522	0.267316	99
Es	-0.819554	-0.591473	-0.047771	99
Es	-0.942905	1.265427	-0.531017	99
Es	0.090803	-1.834924	-1.206698	99
Es	2.262339	1.111808	2.430494	99
Es	0.269015	0.987169	-0.584445	99
Es	0.800989	-1.621897	-0.246168	99
Es	-0.352762	-1.170262	-0.263514	99
Es	0.968016	1.251610	-0.467271	99
Es	-1.554799	-0.771490	-0.213679	99
Es	-0.525072	0.648167	-1.489110	99
49
Properties=species:S:1:pos:R:3:Z:I:1 energy=-273.30492491242967 field_type=dipole dipole="0.000000 0.000000 0.000000" charge=0
C	-2.274348	-0.950476	-0.362985	6
C	-0.819548	-0.591466	-0.047715	6
C	0.096062	-1.744206	-0.461475	6
C	-0.449368	0.733874	-0.743635	6
C	0.968042	1.251604	-0.467315	6
C	1.217472	1.543454	0.984485	6
C	2.163432	0.943924	1.718325	6
H	-2.951717	-0.155516	-0.033075	1
H	-2.568258	-1.872136	0.150715	1
H	-2.423687	-1.099506	-1.437975	1
H	-0.740968	-0.463216	1.038425	1
H	0.093202	-1.883546	-1.547915	1
H	-0.229858	-2.682956	-0.000015	1
H	1.128032	-1.570066	-0.142785	1
H	-1.169808	1.506464	-0.442895	1
H	-0.563838	0.616284	-1.829255	1
H	1.110343	2.184734	-1.026185	1
H	1.709953	0.548164	-0.861765	1
H	0.587382	2.298534	1.450255	1
H	2.818053	0.187004	1.297715	1
H	2.299423	1.199044	2.765065	1
Es	2.262265	1.111661	2.430514	99
Es	0.090758	-1.834873	-1.206638	99
Es	1.490228	1.004416	1.446638	99
Es	1.916033	1.469172	1.276722	99
Es	1.474515	0.766684	-0.728319	99
Es	1.217385	1.543495	0.984409	99
Es	-0.942910	1.265349	-0.531102	99
Es	-0.130868	-2.383670	-0.145733	99
Es	-2.736268	-0.403735	-0.137862	99
Es	-1.554726	-0.771525	-0.213919	99
Es	0.268986	0.987309	-0.584536	99
Es	-0.525144	0.648176	-1.489003	99
Es	1.090118	1.391471	0.267261	99
Es	1.062297	1.889426	-0.839196	99
Es	-0.765193	-0.501612	0.694607	99
Es	0.801015	-1.621930	-0.246252	99
Es	-2.371873	-1.051668	-1.100282	99
Es	-0.352616	-1.170193	-0.263473	99
Es	0.968019	1.251610	-0.467274	99
Es	-0.619710	0.072832	-0.396784	99
Es	2.610707	0.428008	1.435984	99
Es	-0.819554	-0.591475	-0.047768	99
Es	-0.449327	0.733876	-0.743614	99
Es	-2.472465	-1.581904	-0.011342	99
Es	-2.274341	-0.950473	-0.362983	99
Es	2.163510	0.943881	1.718383	99
Es	0.096056	-1.744197	-0.461473	99
Es	0.780890	2.057473	1.292971	99
49
Properties=species:S:1:pos:R:3:Z:I:1 energy=-273.30492491242967 field_type=dipole dipole="0.000000 0.000000 0.000000" charge=0
C	-2.274348	-0.950476	-0.362985	6
C	-0.819548	-0.591466	-0.047715	6
C	0.096062	-1.744206	-0.461475	6
C	-0.449368	0.733874	-0.743635	6
C	0.968042	1.251604	-0.467315	6
C	1.217472	1.543454	0.984485	6
C	2.163432	0.943924	1.718325	6
H	-2.951717	-0.155516	-0.033075	1
H	-2.568258	-1.872136	0.150715	1
H	-2.423687	-1.099506	-1.437975	1
H	-0.740968	-0.463216	1.038425	1
H	0.093202	-1.883546	-1.547915	1
H	-0.229858	-2.682956	-0.000015	1
H	1.128032	-1.570066	-0.142785	1
H	-1.169808	1.506464	-0.442895	1
H	-0.563838	0.616284	-1.829255	1
H	1.110343	2.184734	-1.026185	1
H	1.709953	0.548164	-0.861765	1
H	0.587382	2.298534	1.450255	1
H	2.818053	0.187004	1.297715	1
H	2.299423	1.199044	2.765065	1
Es	0.968018	1.251611	-0.467272	99
Es	2.610832	0.428142	1.435899	99
Es	1.474535	0.766672	-0.728306	99
Es	1.217387	1.543499	0.984409	99
Es	-0.619772	0.072822	-0.396873	99
Es	0.780992	2.057556	1.293013	99
Es	1.915744	1.468888	1.276777	99
Es	2.163512	0.943887	1.718378	99
Es	-0.130802	-2.383675	-0.145789	99
Es	-0.765164	-0.501497	0.694467	99
Es	1.490151	1.004321	1.446734	99
Es	-0.525173	0.648193	-1.488968	99
Es	0.090787	-1.834873	-1.206616	99
Es	-2.274343	-0.950473	-0.362984	99
Es	-0.819554	-0.591474	-0.047770	99
Es	1.090147	1.391483	0.267105	99
Es	-1.554715	-0.771484	-0.213794	99
Es	1.062333	1.889426	-0.839160	99
Es	-2.371942	-1.051584	-1.100265	99
Es	0.096059	-1.744197	-0.461475	99
Es	0.800983	-1.621972	-0.246271	99
Es	-2.472426	-1.581963	-0.011388	99
Es	-0.942869	1.265329	-0.531153	99
Es	-0.449327	0.733877	-0.743614	99
Es	2.262389	1.111805	2.430495	99
Es	-0.352653	-1.170225	-0.263291	99
Es	-2.736285	-0.403854	-0.137819	99
Es	0.268947	0.987346	-0.584533	99
49
Properties=species:S:1:pos:R:3:Z:I:1 energy=-273.30492491242967 field_type=dipole dipole="0.000000 0.000000 0.000000" charge=0
C	-2.274348	-0.950476	-0.362985	6
C	-0.819548	-0.591466	-0.047715	6
C	0.096062	-1.744206	-0.461475	6
C	-0.449368	0.733874	-0.743635	6
C	0.968042	1.251604	-0.467315	6
C	1.217472	1.543454	0.984485	6
C	2.163432	0.943924	1.718325	6
H	-2.951717	-0.155516	-0.033075	1
H	-2.568258	-1.872136	0.150715	1
H	-2.423687	-1.099506	-1.437975	1
H	-0.740968	-0.463216	1.038425	1
H	0.093202	-1.883546	-1.547915	1
H	-0.229858	-2.682956	-0.000015	1
H	1.128032	-1.570066	-0.142785	1
H	-1.169808	1.506464	-0.442895	1
H	-0.563838	0.616284	-1.829255	1
H	1.110343	2.184734	-1.026185	1
H	1.709953	0.548164	-0.861765	1
H	0.587382	2.298534	1.450255	1
H	2.818053	0.187004	1.297715	1
H	2.299423	1.199044	2.765065	1
Es	0.781007	2.057578	1.293066	99
Es	1.217389	1.543501	0.984408	99
Es	0.968016	1.251610	-0.467271	99
Es	0.268948	0.987296	-0.584591	99
Es	0.096057	-1.744199	-0.461475	99
Es	1.490253	1.004455	1.446704	99
Es	2.610837	0.428098	1.435887	99
Es	2.262352	1.111813	2.430509	99
Es	1.090197	1.391445	0.267070	99
Es	-2.472457	-1.581939	-0.011419	99
Es	-0.352653	-1.170171	-0.263280	99
Es	-0.619773	0.072814	-0.396837	99
Es	1.915658	1.468810	1.276810	99
Es	-1.554685	-0.771467	-0.213756	99
Es	-0.130783	-2.383642	-0.145783	99
Es	0.090807	-1.834931	-1.206604	99
Es	-2.736302	-0.403887	-0.137844	99
Es	-0.819554	-0.591474	-0.047770	99
Es	-2.274343	-0.950473	-0.362984	99
Es	2.163505	0.943875	1.718384	99
Es	1.062349	1.889411	-0.839162	99
Es	-0.942858	1.265316	-0.531177	99
Es	1.474511	0.766767	-0.728297	99
Es	-0.765160	-0.501504	0.694394	99
Es	-0.525200	0.648210	-1.488920	99
Es	0.800972	-1.622014	-0.246288	99
Es	-2.371971	-1.051589	-1.100225	99
Es	-0.449329	0.733876	-0.743614	99
49
Properties=species:S:1:pos:R:3:Z:I:1 energy=-273.30492491242967 field_type=dipole dipole="0.000000 0.000000 0.000000" charge=0
C	-2.274348	-0.950476	-0.362985	6
C	-0.819548	-0.591466	-0.047715	6
C	0.096062	-1.744206	-0.461475	6
C	-0.449368	0.733874	-0.743635	6
C	0.968042	1.251604	-0.467315	6
C	1.217472	1.543454	0.984485	6
C	2.163432	0.943924	1.718325	6
H	-2.951717	-0.155516	-0.033075	1
H	-2.568258	-1.872136	0.150715	1
H	-2.423687	-1.099506	-1.437975	1
H	-0.740968	-0.463216	1.038425	1
H	0.093202	-1.883546	-1.547915	1
H	-0.229858	-2.682956	-0.000015	1
H	1.128032	-1.570066	-0.142785	1
H	-1.169808	1.506464	-0.442895	1
H	-0.563838	0.616284	-1.829255	1
H	1.110343	2.184734	-1.026185	1
H	1.709953	0.548164	-0.861765	1
H	0.587382	2.298534	1.450255	1
H	2.818053	0.187004	1.297715	1
H	2.299423	1.199044	2.765065	1
Es	0.090831	-1.834934	-1.206569	99
Es	1.090227	1.391409	0.266976	99
Es	0.096057	-1.744198	-0.461474	99
Es	2.163506	0.943878	1.718383	99
Es	-0.765164	-0.501503	0.694346	99
Es	-0.352649	-1.170139	-0.263259	99
Es	-2.371987	-1.051594	-1.100216	99
Es	0.800952	-1.622039	-0.246320	99
Es	1.490303	1.004513	1.446709	99
Es	1.915554	1.468730	1.276827	99
Es	-0.449327	0.733877	-0.743614	99
Es	-2.274343	-0.950473	-0.362984	99
Es	-0.619808	0.072800	-0.396807	99
Es	1.062378	1.889403	-0.839139	99
Es	-0.819554	-0.591474	-0.047770	99
Es	-2.472469	-1.581920	-0.011433	99
Es	-0.525230	0.648236	-1.488885	99
Es	2.262371	1.111839	2.430515	99
Es	-2.736309	-0.403906	-0.137850	99
Es	1.474514	0.766815	-0.728278	99
Es	0.268924	0.987304	-0.584603	99
Es	1.217394	1.543502	0.984409	99
Es	-1.554671	-0.771458	-0.213722	99
Es	-0.942828	1.265276	-0.531224	99
Es	-0.130772	-2.383669	-0.145792	99
Es	0.968017	1.251609	-0.467272	99
Es	0.781020	2.057587	1.293114	99
Es	2.610852	0.428116	1.435870	99
49
Properties=species:S:1:pos:R:3:Z:I:1 energy=-273.30492491242967 field_type=dipole dipole="0.000000 0.000000 0.000000" charge=0
C	-2.274348	-0.950476	-0.362985	6
C	-0.819548	-0.591466	-0.047715	6
C	0.096062	-1.744206	-0.461475	6
C	-0.449368	0.733874	-0.743635	6
C	0.968042	1.251604	-0.467315	6
C	1.217472	1.543454	0.984485	6
C	2.163432	0.943924	1.718325	6
H	-2.951717	-0.155516	-0.033075	1
H	-2.568258	-1.872136	0.150715	1
H	-2.423687	-1.099506	-1.437975	1
H	-0.740968	-0.463216	1.038425	1
H	0.093202	-1.883546	-1.547915	1
H	-0.229858	-2.682956	-0.000015	1
H	1.128032	-1.570066	-0.142785	1
H	-1.169808	1.506464	-0.442895	1
H	-0.563838	0.616284	-1.829255	1
H	1.110343	2.184734	-1.026185	1
H	1.709953	0.548164	-0.861765	1
H	0.587382	2.298534	1.450255	1
H	2.818053	0.187004	1.297715	1
H	2.299423	1.199044	2.765065	1
Es	-2.736276	-0.403957	-0.137852	99
Es	0.268895	0.987305	-0.584606	99
Es	1.490386	1.004627	1.446687	99
Es	1.915493	1.468655	1.276830	99
Es	1.474517	0.766824	-0.728273	99
Es	-0.449329	0.733876	-0.743615	99
Es	0.800964	-1.622066	-0.246363	99
Es	-2.372012	-1.051544	-1.100221	99
Es	0.090820	-1.834977	-1.206528	99
Es	-0.619776	0.072784	-0.396800	99
Es	-1.554673	-0.771452	-0.213659	99
Es	-0.525240	0.648272	-1.488848	99
Es	2.610830	0.428102	1.435855	99
Es	0.968018	1.251610	-0.467274	99
Es	1.062411	1.889405	-0.839108	99
Es	-0.819554	-0.591475	-0.047770	99
Es	1.217392	1.543500	0.984409	99
Es	1.090227	1.391354	0.266883	99
Es	0.781031	2.057598	1.293187	99
Es	2.163506	0.943877	1.718384	99
Es	-2.472537	-1.581905	-0.011478	99
Es	2.262384	1.111844	2.430530	99
Es	-0.942823	1.265271	-0.531227	99
Es	-0.352656	-1.170102	-0.263238	99
Es	0.096058	-1.744202	-0.461472	99
Es	-2.274343	-0.950473	-0.362984	99
Es	-0.130768	-2.383651	-0.145781	99
Es	-0.765155	-0.501516	0.694268	99
49
Properties=species:S:1:pos:R:3:Z:I:1 energy=-273.30492491242967 field_type=dipole dipole="0.000000 0.000000 0.000000" charge=0
C	-2.274348	-0.950476	-0.362985	6
C	-0.819548	-0.591466	-0.047715	6
C	0.096062	-1.744206	-0.461475	6
C	-0.449368	0.733874	-0.743635	6
C	0.968042	1.251604	-0.467315	6
C	1.217472	1.543454	0.984485	6
C	2.163432	0.943924	1.718325	6
H	-2.951717	-0.155516	-0.033075	1
H	-2.568258	-1.872136	0.150715	1
H	-2.423687	-1.099506	-1.437975	1
H	-0.740968	-0.463216	1.038425	1
H	0.093202	-1.883546	-1.547915	1
H	-0.229858	-2.682956	-0.000015	1
H	1.128032	-1.570066	-0.142785	1
H	-1.169808	1.506464	-0.442895	1
H	-0.563838	0.616284	-1.829255	1
H	1.110343	2.184734	-1.026185	1
H	1.709953	0.548164	-0.861765	1
H	0.587382	2.298534	1.450255	1
H	2.818053	0.187004	1.297715	1
H	2.299423	1.199044	2.765065	1
Es	2.262176	1.111644	2.430604	99
Es	-0.765120	-0.501558	0.694227	99
Es	-0.525248	0.648303	-1.488828	99
Es	-2.736337	-0.403965	-0.137888	99
Es	-1.554625	-0.771399	-0.213671	99
Es	0.968017	1.251611	-0.467272	99
Es	-2.372060	-1.051612	-1.100135	99
Es	0.800928	-1.622099	-0.246375	99
Es	-2.274343	-0.950473	-0.362984	99
Es	-0.619838	0.072800	-0.396770	99
Es	1.090150	1.391291	0.266865	99
Es	-0.352724	-1.170055	-0.263223	99
Es	2.610676	0.427918	1.435919	99
Es	-0.449329	0.733877	-0.743615	99
Es	-0.819554	-0.591475	-0.047768	99
Es	1.490618	1.005014	1.446370	99
Es	1.217388	1.543501	0.984406	99
Es	-0.942801	1.265228	-0.531267	99
Es	1.474505	0.766868	-0.728214	99
Es	-0.130699	-2.383680	-0.145850	99
Es	1.915831	1.468907	1.276937	99
Es	0.090864	-1.834960	-1.206500	99
Es	0.268891	0.987295	-0.584622	99
Es	1.062446	1.889393	-0.839134	99
Es	0.096059	-1.744199	-0.461474	99
Es	2.163516	0.943888	1.718379	99
Es	-2.472493	-1.581894	-0.011459	99
Es	0.780894	2.057419	1.293278	99
