42
Properties=species:S:1:pos:R:3:Z:I:1 energy=-343.8415323270618 field_type=dipole dipole="0.000000 0.000000 0.000000" charge=0
C	-1.813004	-0.675696	0.176943	6
C	-0.359124	-0.954546	0.416823	6
C	0.124886	-2.172856	0.686823	6
O	0.508826	0.156724	0.483723	8
C	0.598966	0.931244	-0.645167	6
C	1.535576	2.072764	-0.380187	6
O	0.029106	0.752584	-1.712837	8
H	-2.131384	0.201974	0.748783	1
H	-2.439484	-1.517136	0.492153	1
H	-2.011884	-0.494106	-0.882767	1
H	-0.515314	-3.048726	0.692103	1
H	1.178036	-2.319966	0.902383	1
H	2.516586	1.688464	-0.089307	1
H	1.125076	2.714594	0.403203	1
H	1.653136	2.664684	-1.292667	1
Es	0.598939	0.931076	-0.644936	99
Es	-1.073731	-0.803043	0.289661	99
Es	0.508636	0.156622	0.483402	99
Es	2.179672	1.805043	-0.182926	99
Es	0.178625	-0.250371	0.416595	99
Es	0.789233	0.077545	0.502329	99
Es	0.834121	-2.276506	0.830545	99
Es	0.415599	0.667929	-1.424093	99
Es	-2.014348	-0.083000	0.565978	99
Es	1.253179	2.486019	0.143665	99
Es	0.027295	0.949911	-1.261618	99
Es	0.107746	0.972754	-1.907401	99
Es	-0.308355	-2.760881	0.693049	99
Es	-0.152884	0.502003	-1.711950	99
Es	-0.359018	-0.954175	0.416795	99
Es	0.502796	0.413383	0.038012	99
Es	-2.222566	-1.250772	0.394340	99
Es	-0.054822	-1.634312	0.228285	99
Es	0.124910	-2.172931	0.686834	99
Es	1.535531	2.072704	-0.380182	99
Es	0.389954	0.345600	0.652533	99
Es	-1.812933	-0.675712	0.176979	99
Es	-0.167444	-1.537106	0.877950	99
Es	1.067807	1.497566	-0.505540	99
Es	1.612273	2.467481	-0.990775	99
Es	-1.937506	-0.558552	-0.521340	99
Es	0.029246	0.752617	-1.712559	99
42
Properties=species:S:1:pos:R:3:Z:I:1 energy=-343.8415323270618 field_type=dipole dipole="0.000000 0.000000 0.000000" charge=0
C	-1.813004	-0.675696	0.176943	6
C	-0.359124	-0.954546	0.416823	6
C	0.124886	-2.172856	0.686823	6
O	0.508826	0.156724	0.483723	8
C	0.598966	0.931244	-0.645167	6
C	1.535576	2.072764	-0.380187	6
O	0.029106	0.752584	-1.712837	8
H	-2.131384	0.201974	0.748783	1
H	-2.439484	-1.517136	0.492153	1
H	-2.011884	-0.494106	-0.882767	1
H	-0.515314	-3.048726	0.692103	1
H	1.178036	-2.319966	0.902383	1
H	2.516586	1.688464	-0.089307	1
H	1.125076	2.714594	0.403203	1
H	1.653136	2.664684	-1.292667	1
Es	1.612322	2.467494	-0.990717	99
Es	0.109067	0.972032	-1.906892	99
Es	1.535536	2.072706	-0.380184	99
Es	-2.222547	-1.250873	0.394388	99
Es	0.598942	0.931074	-0.644937	99
Es	-0.054736	-1.634052	0.228433	99
Es	0.834100	-2.276502	0.830633	99
Es	-1.937565	-0.558479	-0.521321	99
Es	-0.153176	0.501627	-1.712883	99
Es	0.124910	-2.172925	0.686833	99
Es	-1.073830	-0.802995	0.289480	99
Es	2.179699	1.805055	-0.182839	99
Es	0.502082	0.413639	0.038094	99
Es	0.508673	0.156591	0.483315	99
Es	-0.308390	-2.760912	0.692915	99
Es	0.415652	0.668275	-1.421798	99
Es	-2.014275	-0.083032	0.566033	99
Es	0.026117	0.950668	-1.263500	99
Es	1.253149	2.486006	0.143582	99
Es	-0.167450	-1.537306	0.877920	99
Es	0.029274	0.752635	-1.712513	99
Es	0.388317	0.344756	0.650070	99
Es	-0.359018	-0.954187	0.416788	99
Es	0.179590	-0.250973	0.416543	99
Es	1.067815	1.497546	-0.505636	99
Es	-1.812934	-0.675712	0.176978	99
Es	0.790631	0.078738	0.504849	99
42
Properties=species:S:1:pos:R:3:Z:I:1 energy=-343.8415323270618 field_type=dipole dipole="0.000000 0.000000 0.000000" charge=0
C	-1.813004	-0.675696	0.176943	6
C	-0.359124	-0.954546	0.416823	6
C	0.124886	-2.172856	0.686823	6
O	0.508826	0.156724	0.483723	8
C	0.598966	0.931244	-0.645167	6
C	1.535576	2.072764	-0.380187	6
O	0.029106	0.752584	-1.712837	8
H	-2.131384	0.201974	0.748783	1
H	-2.439484	-1.517136	0.492153	1
H	-2.011884	-0.494106	-0.882767	1
H	-0.515314	-3.048726	0.692103	1
H	1.178036	-2.319966	0.902383	1
H	2.516586	1.688464	-0.089307	1
H	1.125076	2.714594	0.403203	1
H	1.653136	2.664684	-1.292667	1
Es	0.499494	0.416251	0.039182	99
Es	0.107786	0.972655	-1.906897	99
Es	-2.222489	-1.250890	0.394362	99
Es	1.535531	2.072704	-0.380185	99
Es	-0.359019	-0.954181	0.416796	99
Es	0.834130	-2.276402	0.830660	99
Es	1.067756	1.497737	-0.505564	99
Es	-0.054785	-1.634014	0.228538	99
Es	1.612214	2.467491	-0.990721	99
Es	-1.073871	-0.803018	0.289376	99
Es	0.029158	0.950194	-1.261295	99
Es	0.178990	-0.251218	0.417156	99
Es	-2.014302	-0.083075	0.566090	99
Es	-0.154691	0.502837	-1.711639	99
Es	1.253275	2.486050	0.143825	99
Es	0.394536	0.343533	0.658353	99
Es	-1.812934	-0.675712	0.176979	99
Es	0.598937	0.931078	-0.644935	99
Es	0.508619	0.156631	0.483386	99
Es	0.787672	0.077611	0.494825	99
Es	0.415513	0.666826	-1.425248	99
Es	-0.167541	-1.537388	0.877851	99
Es	2.179680	1.804900	-0.183117	99
Es	-0.308288	-2.760949	0.692932	99
Es	0.124912	-2.172929	0.686827	99
Es	0.029255	0.752615	-1.712552	99
Es	-1.937582	-0.558443	-0.521354	99
42
Properties=species:S:1:pos:R:3:Z:I:1 energy=-343.8415323270618 field_type=dipole dipole="0.000000 0.000000 0.000000" charge=0
C	-1.813004	-0.675696	0.176943	6
C	-0.359124	-0.954546	0.416823	6
C	0.124886	-2.172856	0.686823	6
O	0.508826	0.156724	0.483723	8
C	0.598966	0.931244	-0.645167	6
C	1.535576	2.072764	-0.380187	6
O	0.029106	0.752584	-1.712837	8
H	-2.131384	0.201974	0.748783	1
H	-2.439484	-1.517136	0.492153	1
H	-2.011884	-0.494106	-0.882767	1
H	-0.515314	-3.048726	0.692103	1
H	1.178036	-2.319966	0.902383	1
H	2.516586	1.688464	-0.089307	1
H	1.125076	2.714594	0.403203	1
H	1.653136	2.664684	-1.292667	1
Es	-0.167486	-1.537322	0.877800	99
Es	-1.937548	-0.558473	-0.521271	99
Es	-0.308322	-2.760882	0.692975	99
Es	1.612168	2.467560	-0.990807	99
Es	0.598939	0.931076	-0.644934	99
Es	0.124910	-2.172923	0.686833	99
Es	0.508615	0.156645	0.483385	99
Es	1.535532	2.072706	-0.380183	99
Es	0.786738	0.075224	0.489181	99
Es	0.026688	0.948960	-1.261742	99
Es	0.029143	0.752563	-1.712674	99
Es	1.067739	1.497705	-0.505479	99
Es	-0.054705	-1.634035	0.228489	99
Es	0.416014	0.668259	-1.423800	99
Es	-0.152358	0.501874	-1.712870	99
Es	-1.073835	-0.803100	0.289381	99
Es	0.498364	0.417219	0.040071	99
Es	-1.812935	-0.675711	0.176978	99
Es	0.398513	0.343298	0.662754	99
Es	0.107498	0.973473	-1.906519	99
Es	-2.014324	-0.083036	0.566017	99
Es	0.177138	-0.249565	0.417490	99
Es	2.179570	1.804930	-0.183255	99
Es	1.253450	2.486013	0.143938	99
Es	-0.359019	-0.954182	0.416794	99
Es	0.834034	-2.276508	0.830746	99
Es	-2.222564	-1.250874	0.394333	99
42
Properties=species:S:1:pos:R:3:Z:I:1 energy=-343.8415323270618 field_type=dipole dipole="0.000000 0.000000 0.000000" charge=0
C	-1.813004	-0.675696	0.176943	6
C	-0.359124	-0.954546	0.416823	6
C	0.124886	-2.172856	0.686823	6
O	0.508826	0.156724	0.483723	8
C	0.598966	0.931244	-0.645167	6
C	1.535576	2.072764	-0.380187	6
O	0.029106	0.752584	-1.712837	8
H	-2.131384	0.201974	0.748783	1
H	-2.439484	-1.517136	0.492153	1
H	-2.011884	-0.494106	-0.882767	1
H	-0.515314	-3.048726	0.692103	1
H	1.178036	-2.319966	0.902383	1
H	2.516586	1.688464	-0.089307	1
H	1.125076	2.714594	0.403203	1
H	1.653136	2.664684	-1.292667	1
Es	-0.308381	-2.760843	0.693061	99
Es	0.106291	0.972600	-1.907008	99
Es	-0.167391	-1.537334	0.877621	99
Es	2.179748	1.804848	-0.183154	99
Es	0.789430	0.079626	0.507010	99
Es	-2.222436	-1.250871	0.394520	99
Es	1.253465	2.486189	0.143716	99
Es	-1.073992	-0.803002	0.289481	99
Es	-0.153186	0.502274	-1.711488	99
Es	0.028151	0.949773	-1.261181	99
Es	0.416555	0.667868	-1.425441	99
Es	0.598938	0.931077	-0.644941	99
Es	0.179524	-0.251644	0.417061	99
Es	0.029257	0.752618	-1.712523	99
Es	0.124909	-2.172920	0.686833	99
Es	0.834121	-2.276511	0.830718	99
Es	0.504216	0.412020	0.037183	99
Es	0.508651	0.156621	0.483399	99
Es	-1.812936	-0.675711	0.176978	99
Es	-0.054785	-1.634042	0.228587	99
Es	1.535530	2.072704	-0.380184	99
Es	-1.937514	-0.558732	-0.521382	99
Es	-2.014391	-0.082897	0.565895	99
Es	-0.359020	-0.954181	0.416806	99
Es	0.387506	0.346208	0.648210	99
Es	1.612161	2.467361	-0.990728	99
Es	1.067535	1.497795	-0.505416	99
42
Properties=species:S:1:pos:R:3:Z:I:1 energy=-343.8415323270618 field_type=dipole dipole="0.000000 0.000000 0.000000" charge=0
C	-1.813004	-0.675696	0.176943	6
C	-0.359124	-0.954546	0.416823	6
C	0.124886	-2.172856	0.686823	6
O	0.508826	0.156724	0.483723	8
C	0.598966	0.931244	-0.645167	6
C	1.535576	2.072764	-0.380187	6
O	0.029106	0.752584	-1.712837	8
H	-2.131384	0.201974	0.748783	1
H	-2.439484	-1.517136	0.492153	1
H	-2.011884	-0.494106	-0.882767	1
H	-0.515314	-3.048726	0.692103	1
H	1.178036	-2.319966	0.902383	1
H	2.516586	1.688464	-0.089307	1
H	1.125076	2.714594	0.403203	1
H	1.653136	2.664684	-1.292667	1
Es	1.535532	2.072706	-0.380183	99
Es	-0.359020	-0.954207	0.416827	99
Es	-0.153738	0.502710	-1.714897	99
Es	1.253201	2.485996	0.143811	99
Es	0.108916	0.973971	-1.904866	99
Es	2.179743	1.804863	-0.183068	99
Es	0.124910	-2.172923	0.686835	99
Es	0.415486	0.667045	-1.424085	99
Es	-0.167354	-1.537271	0.877445	99
Es	0.679056	0.219407	0.743805	99
Es	0.495229	0.177687	0.447606	99
Es	0.513536	0.164542	0.436444	99
Es	0.508172	0.436906	0.038861	99
Es	0.029241	0.752618	-1.712577	99
Es	1.612185	2.467522	-0.990734	99
Es	-2.222493	-1.250955	0.394326	99
Es	-1.937507	-0.558423	-0.521359	99
Es	0.834049	-2.276580	0.830729	99
Es	1.067876	1.497910	-0.505618	99
Es	-0.054667	-1.633885	0.228646	99
Es	-0.308431	-2.760831	0.693044	99
Es	-2.014311	-0.083052	0.566123	99
Es	0.027080	0.948717	-1.261160	99
Es	-1.812937	-0.675712	0.176978	99
Es	0.598939	0.931076	-0.644936	99
Es	0.173460	-0.255812	0.426218	99
Es	-1.074197	-0.803132	0.289417	99
42
Properties=species:S:1:pos:R:3:Z:I:1 energy=-343.8415323270618 field_type=dipole dipole="0.000000 0.000000 0.000000" charge=0
C	-1.813004	-0.675696	0.176943	6
C	-0.359124	-0.954546	0.416823	6
C	0.124886	-2.172856	0.686823	6
O	0.508826	0.156724	0.483723	8
C	0.598966	0.931244	-0.645167	6
C	1.535576	2.072764	-0.380187	6
O	0.029106	0.752584	-1.712837	8
H	-2.131384	0.201974	0.748783	1
H	-2.439484	-1.517136	0.492153	1
H	-2.011884	-0.494106	-0.882767	1
H	-0.515314	-3.048726	0.692103	1
H	1.178036	-2.319966	0.902383	1
H	2.516586	1.688464	-0.089307	1
H	1.125076	2.714594	0.403203	1
H	1.653136	2.664684	-1.292667	1
Es	0.124912	-2.172924	0.686821	99
Es	0.598945	0.931069	-0.644931	99
Es	-0.152498	0.501912	-1.712966	99
Es	-1.074229	-0.803167	0.289402	99
Es	-1.937441	-0.558421	-0.521369	99
Es	0.834098	-2.276552	0.830824	99
Es	1.535532	2.072706	-0.380183	99
Es	1.253226	2.485980	0.143776	99
Es	0.788031	0.077208	0.492762	99
Es	-2.014286	-0.083013	0.566150	99
Es	-0.167315	-1.537303	0.877318	99
Es	0.498489	0.415929	0.039688	99
Es	-0.359024	-0.954192	0.416830	99
Es	0.508636	0.156595	0.483350	99
Es	2.179736	1.804857	-0.183054	99
Es	0.029250	0.752624	-1.712549	99
Es	0.415581	0.668222	-1.422832	99
Es	-2.222512	-1.250971	0.394298	99
Es	0.396158	0.343958	0.659004	99
Es	1.067867	1.497881	-0.505665	99
Es	1.612189	2.467538	-0.990748	99
Es	0.026074	0.950537	-1.262392	99
Es	-1.812939	-0.675711	0.176977	99
Es	-0.308406	-2.760780	0.693143	99
Es	0.108484	0.971805	-1.906815	99
Es	0.178142	-0.250858	0.418108	99
Es	-0.054744	-1.634035	0.228688	99
42
Properties=species:S:1:pos:R:3:Z:I:1 energy=-343.8415323270618 field_type=dipole dipole="0.000000 0.000000 0.000000" charge=0
C	-1.813004	-0.675696	0.176943	6
C	-0.359124	-0.954546	0.416823	6
C	0.124886	-2.172856	0.686823	6
O	0.508826	0.156724	0.483723	8
C	0.598966	0.931244	-0.645167	6
C	1.535576	2.072764	-0.380187	6
O	0.029106	0.752584	-1.712837	8
H	-2.131384	0.201974	0.748783	1
H	-2.439484	-1.517136	0.492153	1
H	-2.011884	-0.494106	-0.882767	1
H	-0.515314	-3.048726	0.692103	1
H	1.178036	-2.319966	0.902383	1
H	2.516586	1.688464	-0.089307	1
H	1.125076	2.714594	0.403203	1
H	1.653136	2.664684	-1.292667	1
Es	1.612255	2.467450	-0.990839	99
Es	2.179696	1.804825	-0.182968	99
Es	0.598940	0.931076	-0.644936	99
Es	0.393985	0.344598	0.656322	99
Es	0.500698	0.414926	0.038703	99
Es	-0.308395	-2.760870	0.693080	99
Es	-1.074244	-0.803185	0.289242	99
Es	-0.151700	0.500914	-1.713288	99
Es	-2.014271	-0.082964	0.566090	99
Es	1.253125	2.486045	0.143749	99
Es	0.124908	-2.172924	0.686835	99
Es	-1.812937	-0.675711	0.176978	99
Es	0.029215	0.752605	-1.712604	99
Es	-0.359021	-0.954189	0.416800	99
Es	0.107377	0.971912	-1.906096	99
Es	0.025415	0.950127	-1.262637	99
Es	-0.054763	-1.633820	0.228947	99
Es	0.834102	-2.276488	0.830724	99
Es	1.535531	2.072708	-0.380183	99
Es	-1.937460	-0.558512	-0.521400	99
Es	0.416574	0.669555	-1.422905	99
Es	-0.167337	-1.537461	0.877434	99
Es	1.067984	1.497936	-0.505642	99
Es	0.508594	0.156652	0.483396	99
Es	-2.222495	-1.250948	0.394388	99
Es	0.787692	0.077813	0.496696	99
Es	0.178490	-0.251176	0.417744	99
42
Properties=species:S:1:pos:R:3:Z:I:1 energy=-343.8415323270618 field_type=dipole dipole="0.000000 0.000000 0.000000" charge=0
C	-1.813004	-0.675696	0.176943	6
C	-0.359124	-0.954546	0.416823	6
C	0.124886	-2.172856	0.686823	6
O	0.508826	0.156724	0.483723	8
C	0.598966	0.931244	-0.645167	6
C	1.535576	2.072764	-0.380187	6
O	0.029106	0.752584	-1.712837	8
H	-2.131384	0.201974	0.748783	1
H	-2.439484	-1.517136	0.492153	1
H	-2.011884	-0.494106	-0.882767	1
H	-0.515314	-3.048726	0.692103	1
H	1.178036	-2.319966	0.902383	1
H	2.516586	1.688464	-0.089307	1
H	1.125076	2.714594	0.403203	1
H	1.653136	2.664684	-1.292667	1
Es	0.508626	0.156671	0.483405	99
Es	-1.074358	-0.803186	0.289511	99
Es	-2.014335	-0.083003	0.566077	99
Es	0.497371	0.417600	0.040249	99
Es	0.399733	0.342862	0.663099	99
Es	-2.222454	-1.250923	0.394374	99
Es	0.786241	0.076276	0.487829	99
Es	-0.152829	0.502691	-1.711813	99
Es	1.535533	2.072705	-0.380184	99
Es	-0.167127	-1.537376	0.877413	99
Es	0.027580	0.949979	-1.261261	99
Es	0.029224	0.752610	-1.712598	99
Es	0.177505	-0.250585	0.418274	99
Es	1.253068	2.485928	0.143916	99
Es	-1.937424	-0.558526	-0.521481	99
Es	-1.812939	-0.675711	0.176978	99
Es	0.124910	-2.172920	0.686825	99
Es	-0.054693	-1.633811	0.228828	99
Es	0.598938	0.931077	-0.644937	99
Es	-0.359018	-0.954185	0.416783	99
Es	0.106723	0.972164	-1.906993	99
Es	0.833959	-2.276618	0.830710	99
Es	1.067960	1.498060	-0.505832	99
Es	0.416255	0.667578	-1.424892	99
Es	2.179704	1.804760	-0.183083	99
Es	1.612240	2.467598	-0.990696	99
Es	-0.308437	-2.760819	0.693132	99
42
Properties=species:S:1:pos:R:3:Z:I:1 energy=-343.8415323270618 field_type=dipole dipole="0.000000 0.000000 0.000000" charge=0
C	-1.813004	-0.675696	0.176943	6
C	-0.359124	-0.954546	0.416823	6
C	0.124886	-2.172856	0.686823	6
O	0.508826	0.156724	0.483723	8
C	0.598966	0.931244	-0.645167	6
C	1.535576	2.072764	-0.380187	6
O	0.029106	0.752584	-1.712837	8
H	-2.131384	0.201974	0.748783	1
H	-2.439484	-1.517136	0.492153	1
H	-2.011884	-0.494106	-0.882767	1
H	-0.515314	-3.048726	0.692103	1
H	1.178036	-2.319966	0.902383	1
H	2.516586	1.688464	-0.089307	1
H	1.125076	2.714594	0.403203	1
H	1.653136	2.664684	-1.292667	1
Es	1.253249	2.485942	0.143855	99
Es	0.028184	0.950730	-1.261327	99
Es	-2.222548	-1.251013	0.394330	99
Es	0.834026	-2.276559	0.830846	99
Es	0.029282	0.752647	-1.712523	99
Es	-0.167257	-1.537342	0.877208	99
Es	0.499949	0.415444	0.038930	99
Es	1.612124	2.467578	-0.990790	99
Es	-2.014316	-0.082924	0.566051	99
Es	0.508628	0.156636	0.483415	99
Es	-0.308384	-2.760793	0.693142	99
Es	0.107489	0.971591	-1.905708	99
Es	-1.074472	-0.803181	0.289489	99
Es	-0.154168	0.502698	-1.712803	99
Es	2.179759	1.804717	-0.183129	99
Es	-0.054735	-1.633925	0.228889	99
Es	1.535532	2.072706	-0.380184	99
Es	1.067816	1.498145	-0.505615	99
Es	-1.937258	-0.558516	-0.521444	99
Es	0.787016	0.077323	0.494075	99
Es	-1.812934	-0.675711	0.176978	99
Es	0.598937	0.931077	-0.644931	99
Es	0.124909	-2.172922	0.686835	99
Es	0.177745	-0.250955	0.418547	99
Es	0.396189	0.344365	0.657918	99
Es	-0.359019	-0.954187	0.416795	99
Es	0.416213	0.667321	-1.425218	99
42
Properties=species:S:1:pos:R:3:Z:I:1 energy=-343.8415323270618 field_type=dipole dipole="0.000000 0.000000 0.000000" charge=0
C	-1.813004	-0.675696	0.176943	6
C	-0.359124	-0.954546	0.416823	6
C	0.124886	-2.172856	0.686823	6
O	0.508826	0.156724	0.483723	8
C	0.598966	0.931244	-0.645167	6
C	1.535576	2.072764	-0.380187	6
O	0.029106	0.752584	-1.712837	8
H	-2.131384	0.201974	0.748783	1
H	-2.439484	-1.517136	0.492153	1
H	-2.011884	-0.494106	-0.882767	1
H	-0.515314	-3.048726	0.692103	1
H	1.178036	-2.319966	0.902383	1
H	2.516586	1.688464	-0.089307	1
H	1.125076	2.714594	0.403203	1
H	1.653136	2.664684	-1.292667	1
Es	0.124909	-2.172920	0.686833	99
Es	1.068069	1.498119	-0.505748	99
Es	-1.074502	-0.803215	0.289332	99
Es	0.598940	0.931077	-0.644938	99
Es	-1.937429	-0.558524	-0.521423	99
Es	-2.014256	-0.082930	0.566110	99
Es	-0.359020	-0.954187	0.416796	99
Es	1.612176	2.467544	-0.990768	99
Es	0.029271	0.752616	-1.712485	99
Es	-2.222483	-1.250981	0.394412	99
Es	2.179772	1.804720	-0.183051	99
Es	0.776440	0.131660	0.642378	99
Es	-0.152060	0.502218	-1.711058	99
Es	0.446129	0.225318	0.497698	99
Es	0.416544	0.668396	-1.424277	99
Es	-0.167287	-1.537357	0.877074	99
Es	0.026964	0.950454	-1.261865	99
Es	1.535533	2.072706	-0.380184	99
Es	-1.812937	-0.675711	0.176977	99
Es	0.177159	-0.256865	0.423551	99
Es	1.253110	2.485960	0.143848	99
Es	0.834051	-2.276496	0.830850	99
Es	0.521869	0.416544	0.030540	99
Es	0.106230	0.971338	-1.907834	99
Es	-0.054745	-1.633870	0.228969	99
Es	-0.308380	-2.760825	0.693191	99
Es	0.447890	0.226104	0.498706	99
