45
Properties=species:S:1:pos:R:3:Z:I:1 energy=-345.0136904223106 field_type=dipole dipole="0.000000 0.000000 0.000000" charge=0
C	-1.150116	-2.094243	0.478528	6
C	-0.981516	-1.139192	-0.686442	6
C	-0.485876	0.206418	-0.201402	6
O	-1.221086	0.960948	0.439868	8
C	0.964314	0.543748	-0.484492	6
C	1.316014	1.948718	-0.022422	6
O	1.314124	2.016747	1.398558	8
H	-1.502596	-3.068182	0.126618	1
H	-1.876186	-1.708022	1.201118	1
H	-0.202156	-2.240372	1.006208	1
H	-1.932336	-0.987212	-1.208412	1
H	-0.273936	-1.548942	-1.414722	1
H	1.125734	0.463858	-1.564202	1
H	1.584634	-0.194812	0.034708	1
H	0.620674	2.699687	-0.412302	1
H	2.322664	2.209838	-0.362252	1
H	0.377644	1.931017	1.671038	1
Es	-0.891459	0.585534	0.426713	99
Es	-0.485872	0.206427	-0.201405	99
Es	-0.499394	-2.188481	0.830810	99
Es	0.818032	1.970878	1.527149	99
Es	-0.723291	-0.468574	-0.455164	99
Es	1.460983	1.760935	1.492758	99
Es	-1.057763	-1.592478	-0.107284	99
Es	-0.981491	-1.139167	-0.686402	99
Es	1.363578	0.041901	-0.139290	99
Es	-1.070884	1.226742	0.538242	99
Es	0.836824	2.451924	-0.303557	99
Es	-1.386011	-2.752453	0.232284	99
Es	-0.491418	-1.416118	-1.180075	99
Es	1.408202	2.298967	1.472853	99
Es	-1.031175	0.814598	0.001220	99
Es	0.241495	0.377829	-0.346377	99
Es	1.313901	2.016706	1.398328	99
Es	1.316001	1.948655	-0.022215	99
Es	-1.150092	-2.094204	0.478471	99
Es	-1.618505	-1.029292	-1.033595	99
Es	1.291661	1.988006	0.854576	99
Es	0.964255	0.543725	-0.484501	99
Es	1.128879	1.228782	-0.262829	99
Es	-1.512996	0.847146	0.476765	99
Es	-1.639580	-1.832138	0.961462	99
Es	2.006385	2.119777	-0.261055	99
Es	1.059103	0.483272	-1.213363	99
Es	-1.220915	0.960789	0.439739	99
45
Properties=species:S:1:pos:R:3:Z:I:1 energy=-345.0136904223106 field_type=dipole dipole="0.000000 0.000000 0.000000" charge=0
C	-1.150116	-2.094243	0.478528	6
C	-0.981516	-1.139192	-0.686442	6
C	-0.485876	0.206418	-0.201402	6
O	-1.221086	0.960948	0.439868	8
C	0.964314	0.543748	-0.484492	6
C	1.316014	1.948718	-0.022422	6
O	1.314124	2.016747	1.398558	8
H	-1.502596	-3.068182	0.126618	1
H	-1.876186	-1.708022	1.201118	1
H	-0.202156	-2.240372	1.006208	1
H	-1.932336	-0.987212	-1.208412	1
H	-0.273936	-1.548942	-1.414722	1
H	1.125734	0.463858	-1.564202	1
H	1.584634	-0.194812	0.034708	1
H	0.620674	2.699687	-0.412302	1
H	2.322664	2.209838	-0.362252	1
H	0.377644	1.931017	1.671038	1
Es	-1.639565	-1.832032	0.961565	99
Es	2.006368	2.119786	-0.261067	99
Es	-0.491427	-1.416140	-1.180130	99
Es	1.291723	1.986642	0.854201	99
Es	-0.485872	0.206427	-0.201411	99
Es	1.363518	0.041875	-0.139360	99
Es	1.462854	1.762442	1.494672	99
Es	1.059105	0.483262	-1.213316	99
Es	1.316001	1.948654	-0.022216	99
Es	0.241511	0.377854	-0.346348	99
Es	-1.071568	1.227114	0.538185	99
Es	-0.981491	-1.139168	-0.686404	99
Es	1.313834	2.016716	1.398344	99
Es	-1.386035	-2.752459	0.232318	99
Es	-0.723307	-0.468622	-0.455257	99
Es	0.836870	2.451887	-0.303562	99
Es	-1.618423	-1.029222	-1.033563	99
Es	-1.220860	0.960767	0.439704	99
Es	1.128938	1.228866	-0.262825	99
Es	-1.512560	0.846631	0.476832	99
Es	-1.057620	-1.592479	-0.107289	99
Es	0.964254	0.543727	-0.484499	99
Es	-0.499597	-2.188604	0.830742	99
Es	-0.891095	0.585816	0.426827	99
Es	-1.150091	-2.094204	0.478471	99
Es	-1.031352	0.814462	0.001131	99
Es	0.818301	1.970501	1.527557	99
Es	1.406039	2.299191	1.470956	99
45
Properties=species:S:1:pos:R:3:Z:I:1 energy=-345.0136904223106 field_type=dipole dipole="0.000000 0.000000 0.000000" charge=0
C	-1.150116	-2.094243	0.478528	6
C	-0.981516	-1.139192	-0.686442	6
C	-0.485876	0.206418	-0.201402	6
O	-1.221086	0.960948	0.439868	8
C	0.964314	0.543748	-0.484492	6
C	1.316014	1.948718	-0.022422	6
O	1.314124	2.016747	1.398558	8
H	-1.502596	-3.068182	0.126618	1
H	-1.876186	-1.708022	1.201118	1
H	-0.202156	-2.240372	1.006208	1
H	-1.932336	-0.987212	-1.208412	1
H	-0.273936	-1.548942	-1.414722	1
H	1.125734	0.463858	-1.564202	1
H	1.584634	-0.194812	0.034708	1
H	0.620674	2.699687	-0.412302	1
H	2.322664	2.209838	-0.362252	1
H	0.377644	1.931017	1.671038	1
Es	1.316002	1.948658	-0.022223	99
Es	-0.892025	0.585478	0.427174	99
Es	-0.499465	-2.188525	0.830771	99
Es	-0.723328	-0.468649	-0.455314	99
Es	1.129007	1.228791	-0.262867	99
Es	-1.071021	1.226880	0.538367	99
Es	1.407056	2.299315	1.472038	99
Es	-1.618432	-1.029250	-1.033654	99
Es	-0.981490	-1.139165	-0.686401	99
Es	-0.491476	-1.415957	-1.180059	99
Es	-1.057691	-1.592660	-0.107222	99
Es	-1.030733	0.814173	0.001127	99
Es	0.818148	1.970166	1.527393	99
Es	0.836924	2.451834	-0.303541	99
Es	-1.512814	0.847445	0.476261	99
Es	-1.639541	-1.832081	0.961497	99
Es	-1.150091	-2.094204	0.478472	99
Es	1.059103	0.483266	-1.213375	99
Es	-1.220897	0.960769	0.439714	99
Es	-0.485871	0.206426	-0.201406	99
Es	0.964254	0.543725	-0.484501	99
Es	1.313825	2.016689	1.398346	99
Es	0.241530	0.377993	-0.346296	99
Es	2.006305	2.119830	-0.261099	99
Es	-1.386035	-2.752450	0.232388	99
Es	1.291867	1.987097	0.854400	99
Es	1.461867	1.762236	1.493622	99
Es	1.363471	0.041857	-0.139358	99
45
Properties=species:S:1:pos:R:3:Z:I:1 energy=-345.0136904223106 field_type=dipole dipole="0.000000 0.000000 0.000000" charge=0
C	-1.150116	-2.094243	0.478528	6
C	-0.981516	-1.139192	-0.686442	6
C	-0.485876	0.206418	-0.201402	6
O	-1.221086	0.960948	0.439868	8
C	0.964314	0.543748	-0.484492	6
C	1.316014	1.948718	-0.022422	6
O	1.314124	2.016747	1.398558	8
H	-1.502596	-3.068182	0.126618	1
H	-1.876186	-1.708022	1.201118	1
H	-0.202156	-2.240372	1.006208	1
H	-1.932336	-0.987212	-1.208412	1
H	-0.273936	-1.548942	-1.414722	1
H	1.125734	0.463858	-1.564202	1
H	1.584634	-0.194812	0.034708	1
H	0.620674	2.699687	-0.412302	1
H	2.322664	2.209838	-0.362252	1
H	0.377644	1.931017	1.671038	1
Es	-1.385990	-2.752408	0.232373	99
Es	-0.981491	-1.139168	-0.686403	99
Es	1.291683	1.986420	0.854163	99
Es	-1.071948	1.227074	0.537892	99
Es	1.363457	0.041867	-0.139361	99
Es	1.129043	1.228813	-0.262831	99
Es	-1.639565	-1.832164	0.961507	99
Es	-0.491452	-1.415991	-1.180096	99
Es	-1.057706	-1.592544	-0.107140	99
Es	0.836924	2.451896	-0.303622	99
Es	-1.150092	-2.094205	0.478472	99
Es	-1.220854	0.960743	0.439688	99
Es	1.316002	1.948656	-0.022221	99
Es	1.462344	1.763181	1.493843	99
Es	-1.618373	-1.029174	-1.033643	99
Es	-1.512494	0.847403	0.475995	99
Es	-1.030470	0.813875	0.001036	99
Es	-0.499530	-2.188577	0.830808	99
Es	1.406639	2.299331	1.471387	99
Es	-0.891596	0.585698	0.428090	99
Es	0.818262	1.969791	1.528081	99
Es	2.006256	2.119786	-0.261028	99
Es	0.964255	0.543726	-0.484502	99
Es	-0.485867	0.206420	-0.201403	99
Es	-0.723453	-0.468752	-0.455435	99
Es	1.059098	0.483254	-1.213388	99
Es	0.241557	0.377947	-0.346336	99
Es	1.313816	2.016791	1.398332	99
45
Properties=species:S:1:pos:R:3:Z:I:1 energy=-345.0136904223106 field_type=dipole dipole="0.000000 0.000000 0.000000" charge=0
C	-1.150116	-2.094243	0.478528	6
C	-0.981516	-1.139192	-0.686442	6
C	-0.485876	0.206418	-0.201402	6
O	-1.221086	0.960948	0.439868	8
C	0.964314	0.543748	-0.484492	6
C	1.316014	1.948718	-0.022422	6
O	1.314124	2.016747	1.398558	8
H	-1.502596	-3.068182	0.126618	1
H	-1.876186	-1.708022	1.201118	1
H	-0.202156	-2.240372	1.006208	1
H	-1.932336	-0.987212	-1.208412	1
H	-0.273936	-1.548942	-1.414722	1
H	1.125734	0.463858	-1.564202	1
H	1.584634	-0.194812	0.034708	1
H	0.620674	2.699687	-0.412302	1
H	2.322664	2.209838	-0.362252	1
H	0.377644	1.931017	1.671038	1
Es	-0.891047	0.585697	0.427119	99
Es	-0.485868	0.206422	-0.201406	99
Es	1.363410	0.041852	-0.139333	99
Es	0.837022	2.451862	-0.303524	99
Es	1.404765	2.299477	1.470755	99
Es	-0.499549	-2.188588	0.830799	99
Es	1.316001	1.948655	-0.022218	99
Es	-1.057705	-1.592559	-0.107157	99
Es	0.818219	1.968427	1.528293	99
Es	1.292306	1.986034	0.853788	99
Es	-0.723515	-0.468737	-0.455403	99
Es	-1.070835	1.226436	0.536978	99
Es	0.241645	0.377983	-0.346349	99
Es	-1.512820	0.847926	0.477907	99
Es	2.006274	2.119839	-0.261079	99
Es	0.964255	0.543726	-0.484502	99
Es	-1.150091	-2.094203	0.478470	99
Es	-0.491444	-1.415969	-1.180102	99
Es	-1.220863	0.960751	0.439696	99
Es	-1.618351	-1.029195	-1.033643	99
Es	-1.386009	-2.752415	0.232401	99
Es	-0.981490	-1.139168	-0.686402	99
Es	-1.031816	0.813975	0.000963	99
Es	1.059114	0.483242	-1.213422	99
Es	1.128927	1.228813	-0.262872	99
Es	1.463572	1.764845	1.494611	99
Es	-1.639535	-1.832153	0.961513	99
Es	1.313881	2.016716	1.398377	99
45
Properties=species:S:1:pos:R:3:Z:I:1 energy=-345.0136904223106 field_type=dipole dipole="0.000000 0.000000 0.000000" charge=0
C	-1.150116	-2.094243	0.478528	6
C	-0.981516	-1.139192	-0.686442	6
C	-0.485876	0.206418	-0.201402	6
O	-1.221086	0.960948	0.439868	8
C	0.964314	0.543748	-0.484492	6
C	1.316014	1.948718	-0.022422	6
O	1.314124	2.016747	1.398558	8
H	-1.502596	-3.068182	0.126618	1
H	-1.876186	-1.708022	1.201118	1
H	-0.202156	-2.240372	1.006208	1
H	-1.932336	-0.987212	-1.208412	1
H	-0.273936	-1.548942	-1.414722	1
H	1.125734	0.463858	-1.564202	1
H	1.584634	-0.194812	0.034708	1
H	0.620674	2.699687	-0.412302	1
H	2.322664	2.209838	-0.362252	1
H	0.377644	1.931017	1.671038	1
Es	-1.220914	0.960783	0.439729	99
Es	-1.385976	-2.752400	0.232394	99
Es	-1.618274	-1.029121	-1.033665	99
Es	1.059038	0.483193	-1.213315	99
Es	-0.723510	-0.468819	-0.455480	99
Es	-0.499584	-2.188602	0.830809	99
Es	-1.150092	-2.094205	0.478473	99
Es	1.411449	2.297059	1.475341	99
Es	-1.057766	-1.592550	-0.107103	99
Es	1.363439	0.041799	-0.139351	99
Es	-1.639508	-1.832267	0.961526	99
Es	2.006208	2.119901	-0.261135	99
Es	0.817961	1.971557	1.528332	99
Es	0.836998	2.451740	-0.303563	99
Es	1.291785	1.989206	0.853696	99
Es	1.129015	1.228899	-0.262874	99
Es	0.964256	0.543728	-0.484503	99
Es	-1.031142	0.813749	0.001007	99
Es	-0.485872	0.206426	-0.201408	99
Es	0.241684	0.378040	-0.346344	99
Es	-1.070572	1.226515	0.537545	99
Es	1.316002	1.948657	-0.022222	99
Es	-0.981490	-1.139169	-0.686403	99
Es	1.457757	1.761001	1.490201	99
Es	1.313810	2.016769	1.398310	99
Es	-0.892091	0.585129	0.427531	99
Es	-1.512658	0.848579	0.476840	99
Es	-0.491500	-1.415906	-1.180110	99
45
Properties=species:S:1:pos:R:3:Z:I:1 energy=-345.0136904223106 field_type=dipole dipole="0.000000 0.000000 0.000000" charge=0
C	-1.150116	-2.094243	0.478528	6
C	-0.981516	-1.139192	-0.686442	6
C	-0.485876	0.206418	-0.201402	6
O	-1.221086	0.960948	0.439868	8
C	0.964314	0.543748	-0.484492	6
C	1.316014	1.948718	-0.022422	6
O	1.314124	2.016747	1.398558	8
H	-1.502596	-3.068182	0.126618	1
H	-1.876186	-1.708022	1.201118	1
H	-0.202156	-2.240372	1.006208	1
H	-1.932336	-0.987212	-1.208412	1
H	-0.273936	-1.548942	-1.414722	1
H	1.125734	0.463858	-1.564202	1
H	1.584634	-0.194812	0.034708	1
H	0.620674	2.699687	-0.412302	1
H	2.322664	2.209838	-0.362252	1
H	0.377644	1.931017	1.671038	1
Es	-1.071563	1.226105	0.538548	99
Es	-0.499674	-2.188585	0.830887	99
Es	-1.028909	0.814531	0.001763	99
Es	1.292092	1.987052	0.853636	99
Es	-0.491511	-1.415991	-1.180083	99
Es	0.818131	1.970196	1.528285	99
Es	0.241744	0.378040	-0.346219	99
Es	-1.220931	0.960764	0.439725	99
Es	1.363463	0.041813	-0.139458	99
Es	-0.981491	-1.139169	-0.686404	99
Es	-0.723521	-0.468839	-0.455684	99
Es	-1.057722	-1.592505	-0.107102	99
Es	1.313819	2.016701	1.398329	99
Es	-0.892309	0.585367	0.427942	99
Es	1.128984	1.228844	-0.262886	99
Es	-1.618259	-1.029079	-1.033679	99
Es	2.006212	2.119897	-0.261091	99
Es	1.405865	2.298070	1.471208	99
Es	-0.485870	0.206423	-0.201405	99
Es	1.058945	0.483271	-1.213434	99
Es	1.316002	1.948658	-0.022222	99
Es	-1.513630	0.847953	0.474736	99
Es	-1.386029	-2.752460	0.232550	99
Es	0.837097	2.451777	-0.303541	99
Es	1.462794	1.763529	1.494453	99
Es	0.964255	0.543725	-0.484502	99
Es	-1.150093	-2.094206	0.478472	99
Es	-1.639440	-1.832193	0.961433	99
45
Properties=species:S:1:pos:R:3:Z:I:1 energy=-345.0136904223106 field_type=dipole dipole="0.000000 0.000000 0.000000" charge=0
C	-1.150116	-2.094243	0.478528	6
C	-0.981516	-1.139192	-0.686442	6
C	-0.485876	0.206418	-0.201402	6
O	-1.221086	0.960948	0.439868	8
C	0.964314	0.543748	-0.484492	6
C	1.316014	1.948718	-0.022422	6
O	1.314124	2.016747	1.398558	8
H	-1.502596	-3.068182	0.126618	1
H	-1.876186	-1.708022	1.201118	1
H	-0.202156	-2.240372	1.006208	1
H	-1.932336	-0.987212	-1.208412	1
H	-0.273936	-1.548942	-1.414722	1
H	1.125734	0.463858	-1.564202	1
H	1.584634	-0.194812	0.034708	1
H	0.620674	2.699687	-0.412302	1
H	2.322664	2.209838	-0.362252	1
H	0.377644	1.931017	1.671038	1
Es	0.964255	0.543725	-0.484502	99
Es	-0.491498	-1.415876	-1.180091	99
Es	-1.072318	1.227289	0.537457	99
Es	-1.150092	-2.094205	0.478473	99
Es	1.059091	0.483176	-1.213430	99
Es	-0.485869	0.206423	-0.201405	99
Es	-1.057743	-1.592559	-0.107077	99
Es	-0.891054	0.586008	0.427884	99
Es	1.128981	1.228863	-0.262887	99
Es	-0.723614	-0.468865	-0.455609	99
Es	0.837121	2.451785	-0.303545	99
Es	1.363302	0.041796	-0.139314	99
Es	1.461091	1.763109	1.493147	99
Es	1.313857	2.016700	1.398350	99
Es	2.006167	2.119884	-0.261108	99
Es	-1.618230	-1.029086	-1.033702	99
Es	-1.031091	0.813605	0.000995	99
Es	-0.499651	-2.188615	0.830849	99
Es	-0.981491	-1.139168	-0.686404	99
Es	1.407497	2.297925	1.472553	99
Es	-1.639460	-1.832256	0.961488	99
Es	0.241775	0.378124	-0.346389	99
Es	-1.385993	-2.752410	0.232514	99
Es	-1.220885	0.960770	0.439710	99
Es	0.818123	1.970351	1.528366	99
Es	-1.511993	0.847060	0.476638	99
Es	1.316002	1.948656	-0.022220	99
Es	1.292172	1.987482	0.853516	99
45
Properties=species:S:1:pos:R:3:Z:I:1 energy=-345.0136904223106 field_type=dipole dipole="0.000000 0.000000 0.000000" charge=0
C	-1.150116	-2.094243	0.478528	6
C	-0.981516	-1.139192	-0.686442	6
C	-0.485876	0.206418	-0.201402	6
O	-1.221086	0.960948	0.439868	8
C	0.964314	0.543748	-0.484492	6
C	1.316014	1.948718	-0.022422	6
O	1.314124	2.016747	1.398558	8
H	-1.502596	-3.068182	0.126618	1
H	-1.876186	-1.708022	1.201118	1
H	-0.202156	-2.240372	1.006208	1
H	-1.932336	-0.987212	-1.208412	1
H	-0.273936	-1.548942	-1.414722	1
H	1.125734	0.463858	-1.564202	1
H	1.584634	-0.194812	0.034708	1
H	0.620674	2.699687	-0.412302	1
H	2.322664	2.209838	-0.362252	1
H	0.377644	1.931017	1.671038	1
Es	-1.031198	0.814955	0.001118	99
Es	-1.071109	1.226620	0.539250	99
Es	0.241819	0.378132	-0.346372	99
Es	-1.057741	-1.592568	-0.107029	99
Es	0.817992	1.971493	1.528493	99
Es	2.006137	2.119899	-0.261109	99
Es	-0.981491	-1.139169	-0.686404	99
Es	-0.723611	-0.468880	-0.455680	99
Es	-1.385979	-2.752404	0.232530	99
Es	-0.499681	-2.188625	0.830857	99
Es	-1.150092	-2.094205	0.478473	99
Es	1.409114	2.297210	1.473250	99
Es	1.313850	2.016613	1.398350	99
Es	-1.618201	-1.029051	-1.033717	99
Es	1.316002	1.948656	-0.022220	99
Es	-1.220943	0.960835	0.439792	99
Es	-0.485869	0.206422	-0.201405	99
Es	-0.491519	-1.415841	-1.180091	99
Es	1.128985	1.228879	-0.262906	99
Es	0.837159	2.451772	-0.303543	99
Es	-0.891851	0.585379	0.425936	99
Es	0.964255	0.543726	-0.484502	99
Es	1.292232	1.987654	0.853370	99
Es	1.059060	0.483165	-1.213435	99
Es	-1.512252	0.846931	0.476582	99
Es	1.459547	1.762604	1.492497	99
Es	-1.639454	-1.832285	0.961491	99
Es	1.363289	0.041774	-0.139317	99
