45
Properties=species:S:1:pos:R:3:Z:I:1 energy=-345.015103976278 field_type=dipole dipole="0.000000 0.000000 0.000000" charge=0
C	-2.429958	-0.765438	0.145517	6
C	-0.924528	-0.893248	0.294987	6
C	-0.222548	0.452392	0.281877	6
O	-0.826678	1.524462	0.193147	8
C	1.305002	0.434052	0.391977	6
C	1.935232	0.198732	-0.968743	6
O	1.774212	1.678912	0.899217	8
H	-2.901708	-1.751538	0.184257	1
H	-2.690208	-0.298398	-0.809773	1
H	-2.855088	-0.151188	0.945827	1
H	-0.527928	-1.503268	-0.522303	1
H	-0.692658	-1.386368	1.244987	1
H	1.603332	-0.343518	1.101707	1
H	1.653552	0.991412	-1.671603	1
H	1.628692	-0.760108	-1.398133	1
H	3.027862	0.216022	-0.893753	1
H	1.143412	2.357092	0.580807	1
Es	1.572155	1.210277	0.693510	99
Es	1.305011	0.434247	0.392006	99
Es	2.667175	0.204093	-0.909092	99
Es	-0.594567	1.135210	-0.027353	99
Es	-1.664564	-0.823691	0.220788	99
Es	-0.753617	-1.210883	0.934496	99
Es	-0.621720	1.772197	0.199866	99
Es	-0.222552	0.452386	0.281872	99
Es	1.718671	-0.458246	-1.254377	99
Es	2.049331	1.723543	0.767446	99
Es	-2.600062	-0.454726	-0.504409	99
Es	1.733953	0.735294	-1.437677	99
Es	-0.826522	1.524176	0.193172	99
Es	1.735220	1.664311	1.200485	99
Es	1.496600	-0.103647	0.870015	99
Es	-2.742931	-1.442906	0.172479	99
Es	1.594569	0.302767	-0.294407	99
Es	-2.712188	-0.356250	0.691125	99
Es	0.536046	0.433945	0.339170	99
Es	-0.924503	-0.893195	0.294983	99
Es	-0.633759	1.153315	0.474286	99
Es	1.441173	2.022370	0.716197	99
Es	-2.429892	-0.765462	0.145522	99
Es	-0.571848	-0.221196	0.281995	99
Es	1.935196	0.198716	-0.968718	99
Es	-0.642366	-1.291248	-0.254138	99
Es	-1.135239	1.496331	0.168685	99
Es	1.773928	1.678852	0.898926	99
45
Properties=species:S:1:pos:R:3:Z:I:1 energy=-345.015103976278 field_type=dipole dipole="0.000000 0.000000 0.000000" charge=0
C	-2.429958	-0.765438	0.145517	6
C	-0.924528	-0.893248	0.294987	6
C	-0.222548	0.452392	0.281877	6
O	-0.826678	1.524462	0.193147	8
C	1.305002	0.434052	0.391977	6
C	1.935232	0.198732	-0.968743	6
O	1.774212	1.678912	0.899217	8
H	-2.901708	-1.751538	0.184257	1
H	-2.690208	-0.298398	-0.809773	1
H	-2.855088	-0.151188	0.945827	1
H	-0.527928	-1.503268	-0.522303	1
H	-0.692658	-1.386368	1.244987	1
H	1.603332	-0.343518	1.101707	1
H	1.653552	0.991412	-1.671603	1
H	1.628692	-0.760108	-1.398133	1
H	3.027862	0.216022	-0.893753	1
H	1.143412	2.357092	0.580807	1
Es	1.305011	0.434251	0.392005	99
Es	-0.753532	-1.210909	0.934499	99
Es	-1.134783	1.495826	0.167251	99
Es	-0.642307	-1.291142	-0.254186	99
Es	1.718716	-0.458116	-1.254519	99
Es	-2.429890	-0.765461	0.145519	99
Es	1.935195	0.198717	-0.968717	99
Es	0.536128	0.433941	0.339129	99
Es	-2.712052	-0.356108	0.691146	99
Es	2.049451	1.723805	0.767677	99
Es	-0.222553	0.452388	0.281875	99
Es	-0.634963	1.153549	0.474720	99
Es	1.733961	0.735437	-1.437607	99
Es	-0.622226	1.772532	0.200599	99
Es	-2.743028	-1.442813	0.172607	99
Es	-0.571908	-0.221400	0.281975	99
Es	-1.664592	-0.823719	0.220576	99
Es	1.441371	2.022095	0.716025	99
Es	1.773868	1.678844	0.899055	99
Es	2.667142	0.204017	-0.909099	99
Es	-0.924504	-0.893194	0.294983	99
Es	1.496568	-0.103639	0.870000	99
Es	1.572226	1.210068	0.693422	99
Es	-2.600191	-0.454852	-0.504346	99
Es	-0.593273	1.135073	-0.026935	99
Es	-0.826547	1.524262	0.193162	99
Es	1.594535	0.302552	-0.294384	99
Es	1.734875	1.664575	1.200422	99
45
Properties=species:S:1:pos:R:3:Z:I:1 energy=-345.015103976278 field_type=dipole dipole="0.000000 0.000000 0.000000" charge=0
C	-2.429958	-0.765438	0.145517	6
C	-0.924528	-0.893248	0.294987	6
C	-0.222548	0.452392	0.281877	6
O	-0.826678	1.524462	0.193147	8
C	1.305002	0.434052	0.391977	6
C	1.935232	0.198732	-0.968743	6
O	1.774212	1.678912	0.899217	8
H	-2.901708	-1.751538	0.184257	1
H	-2.690208	-0.298398	-0.809773	1
H	-2.855088	-0.151188	0.945827	1
H	-0.527928	-1.503268	-0.522303	1
H	-0.692658	-1.386368	1.244987	1
H	1.603332	-0.343518	1.101707	1
H	1.653552	0.991412	-1.671603	1
H	1.628692	-0.760108	-1.398133	1
H	3.027862	0.216022	-0.893753	1
H	1.143412	2.357092	0.580807	1
Es	1.718578	-0.458090	-1.254627	99
Es	-2.712031	-0.356082	0.691107	99
Es	-0.594215	1.135163	-0.027155	99
Es	1.734029	0.735418	-1.437458	99
Es	2.048371	1.724177	0.767819	99
Es	-0.571992	-0.221446	0.281965	99
Es	-1.134835	1.494552	0.169098	99
Es	-0.642280	-1.291199	-0.254156	99
Es	-0.826519	1.524176	0.193169	99
Es	-2.600201	-0.454872	-0.504279	99
Es	-0.222552	0.452386	0.281873	99
Es	1.935195	0.198716	-0.968717	99
Es	1.441190	2.022428	0.716582	99
Es	2.667210	0.203984	-0.909143	99
Es	1.305013	0.434252	0.392008	99
Es	-0.753519	-1.210822	0.934506	99
Es	1.572828	1.209948	0.692439	99
Es	-1.664555	-0.823753	0.220549	99
Es	-2.743085	-1.442831	0.172614	99
Es	-0.924504	-0.893196	0.294982	99
Es	0.536190	0.434051	0.339204	99
Es	1.594606	0.302466	-0.294424	99
Es	-2.429892	-0.765462	0.145522	99
Es	1.773914	1.678850	0.899023	99
Es	-0.623302	1.773313	0.199091	99
Es	1.496415	-0.103570	0.870033	99
Es	-0.632885	1.154031	0.474488	99
Es	1.735527	1.663992	1.200740	99
45
Properties=species:S:1:pos:R:3:Z:I:1 energy=-345.015103976278 field_type=dipole dipole="0.000000 0.000000 0.000000" charge=0
C	-2.429958	-0.765438	0.145517	6
C	-0.924528	-0.893248	0.294987	6
C	-0.222548	0.452392	0.281877	6
O	-0.826678	1.524462	0.193147	8
C	1.305002	0.434052	0.391977	6
C	1.935232	0.198732	-0.968743	6
O	1.774212	1.678912	0.899217	8
H	-2.901708	-1.751538	0.184257	1
H	-2.690208	-0.298398	-0.809773	1
H	-2.855088	-0.151188	0.945827	1
H	-0.527928	-1.503268	-0.522303	1
H	-0.692658	-1.386368	1.244987	1
H	1.603332	-0.343518	1.101707	1
H	1.653552	0.991412	-1.671603	1
H	1.628692	-0.760108	-1.398133	1
H	3.027862	0.216022	-0.893753	1
H	1.143412	2.357092	0.580807	1
Es	-0.924504	-0.893196	0.294983	99
Es	-2.743078	-1.442791	0.172542	99
Es	-2.429893	-0.765461	0.145522	99
Es	1.496377	-0.103562	0.870025	99
Es	-0.826493	1.524140	0.193178	99
Es	1.935191	0.198718	-0.968712	99
Es	1.441441	2.022646	0.716296	99
Es	-0.632206	1.153333	0.474521	99
Es	1.733949	0.735407	-1.437652	99
Es	-0.595419	1.135601	-0.027064	99
Es	2.667121	0.204024	-0.909143	99
Es	-2.712141	-0.356070	0.691094	99
Es	1.735668	1.664516	1.200362	99
Es	-0.222551	0.452384	0.281873	99
Es	-1.664614	-0.823758	0.220598	99
Es	1.305011	0.434245	0.392005	99
Es	2.048467	1.723681	0.767766	99
Es	1.594622	0.302457	-0.294432	99
Es	-0.572045	-0.221503	0.282200	99
Es	0.536246	0.434041	0.339193	99
Es	-0.642195	-1.291032	-0.254229	99
Es	1.718724	-0.458138	-1.254461	99
Es	-0.753468	-1.210926	0.934423	99
Es	1.773940	1.678860	0.899017	99
Es	-1.135170	1.495601	0.169523	99
Es	-0.622460	1.772549	0.198497	99
Es	-2.600143	-0.454915	-0.504256	99
Es	1.572325	1.209727	0.693184	99
45
Properties=species:S:1:pos:R:3:Z:I:1 energy=-345.015103976278 field_type=dipole dipole="0.000000 0.000000 0.000000" charge=0
C	-2.429958	-0.765438	0.145517	6
C	-0.924528	-0.893248	0.294987	6
C	-0.222548	0.452392	0.281877	6
O	-0.826678	1.524462	0.193147	8
C	1.305002	0.434052	0.391977	6
C	1.935232	0.198732	-0.968743	6
O	1.774212	1.678912	0.899217	8
H	-2.901708	-1.751538	0.184257	1
H	-2.690208	-0.298398	-0.809773	1
H	-2.855088	-0.151188	0.945827	1
H	-0.527928	-1.503268	-0.522303	1
H	-0.692658	-1.386368	1.244987	1
H	1.603332	-0.343518	1.101707	1
H	1.653552	0.991412	-1.671603	1
H	1.628692	-0.760108	-1.398133	1
H	3.027862	0.216022	-0.893753	1
H	1.143412	2.357092	0.580807	1
Es	-0.753435	-1.210901	0.934590	99
Es	1.718668	-0.458047	-1.254526	99
Es	-1.134842	1.497588	0.167941	99
Es	-0.594166	1.135051	-0.027611	99
Es	-2.600177	-0.454871	-0.504184	99
Es	-0.222549	0.452384	0.281873	99
Es	-0.826529	1.524206	0.193165	99
Es	-2.429893	-0.765461	0.145521	99
Es	-0.642140	-1.290966	-0.254131	99
Es	1.733977	0.735374	-1.437578	99
Es	1.735413	1.664534	1.200044	99
Es	-1.664558	-0.823680	0.220489	99
Es	1.935196	0.198716	-0.968718	99
Es	1.594520	0.302384	-0.294417	99
Es	-2.712130	-0.356139	0.690976	99
Es	-0.621406	1.771321	0.200732	99
Es	-0.634786	1.153080	0.474459	99
Es	-0.924504	-0.893196	0.294982	99
Es	2.048613	1.723953	0.768111	99
Es	1.773929	1.678853	0.899027	99
Es	1.572558	1.209567	0.693091	99
Es	2.667201	0.203979	-0.909164	99
Es	1.496338	-0.103541	0.869992	99
Es	1.305010	0.434243	0.392005	99
Es	0.536286	0.434016	0.339146	99
Es	1.441378	2.022573	0.716359	99
Es	-0.572129	-0.221604	0.282129	99
Es	-2.743143	-1.442837	0.172551	99
45
Properties=species:S:1:pos:R:3:Z:I:1 energy=-345.015103976278 field_type=dipole dipole="0.000000 0.000000 0.000000" charge=0
C	-2.429958	-0.765438	0.145517	6
C	-0.924528	-0.893248	0.294987	6
C	-0.222548	0.452392	0.281877	6
O	-0.826678	1.524462	0.193147	8
C	1.305002	0.434052	0.391977	6
C	1.935232	0.198732	-0.968743	6
O	1.774212	1.678912	0.899217	8
H	-2.901708	-1.751538	0.184257	1
H	-2.690208	-0.298398	-0.809773	1
H	-2.855088	-0.151188	0.945827	1
H	-0.527928	-1.503268	-0.522303	1
H	-0.692658	-1.386368	1.244987	1
H	1.603332	-0.343518	1.101707	1
H	1.653552	0.991412	-1.671603	1
H	1.628692	-0.760108	-1.398133	1
H	3.027862	0.216022	-0.893753	1
H	1.143412	2.357092	0.580807	1
Es	1.773939	1.678876	0.899040	99
Es	1.441637	2.022821	0.716242	99
Es	1.935198	0.198712	-0.968723	99
Es	-0.572089	-0.221656	0.282105	99
Es	-0.642133	-1.291013	-0.254180	99
Es	-0.753404	-1.210855	0.934427	99
Es	-0.924502	-0.893199	0.294989	99
Es	2.667150	0.203993	-0.909130	99
Es	1.572510	1.209202	0.693086	99
Es	-1.134830	1.494323	0.166653	99
Es	-2.743120	-1.442713	0.172524	99
Es	1.594515	0.302339	-0.294455	99
Es	2.048032	1.723800	0.768284	99
Es	-0.634736	1.154203	0.474689	99
Es	0.536327	0.434056	0.339235	99
Es	1.496301	-0.103469	0.869975	99
Es	1.734015	0.735366	-1.437612	99
Es	-0.222552	0.452387	0.281867	99
Es	1.305011	0.434244	0.392005	99
Es	-0.826511	1.524190	0.193165	99
Es	-2.429892	-0.765463	0.145522	99
Es	-2.712202	-0.356087	0.691033	99
Es	1.735751	1.664784	1.200007	99
Es	-0.623985	1.773127	0.200945	99
Es	-1.664604	-0.823756	0.220597	99
Es	1.718735	-0.458044	-1.254542	99
Es	-0.591690	1.135370	-0.026694	99
Es	-2.600172	-0.454957	-0.504202	99
45
Properties=species:S:1:pos:R:3:Z:I:1 energy=-345.015103976278 field_type=dipole dipole="0.000000 0.000000 0.000000" charge=0
C	-2.429958	-0.765438	0.145517	6
C	-0.924528	-0.893248	0.294987	6
C	-0.222548	0.452392	0.281877	6
O	-0.826678	1.524462	0.193147	8
C	1.305002	0.434052	0.391977	6
C	1.935232	0.198732	-0.968743	6
O	1.774212	1.678912	0.899217	8
H	-2.901708	-1.751538	0.184257	1
H	-2.690208	-0.298398	-0.809773	1
H	-2.855088	-0.151188	0.945827	1
H	-0.527928	-1.503268	-0.522303	1
H	-0.692658	-1.386368	1.244987	1
H	1.603332	-0.343518	1.101707	1
H	1.653552	0.991412	-1.671603	1
H	1.628692	-0.760108	-1.398133	1
H	3.027862	0.216022	-0.893753	1
H	1.143412	2.357092	0.580807	1
Es	1.718599	-0.457960	-1.254518	99
Es	1.572495	1.209116	0.693578	99
Es	-1.664578	-0.823651	0.220704	99
Es	-0.924505	-0.893197	0.294983	99
Es	-0.222553	0.452388	0.281875	99
Es	-0.634483	1.153469	0.474725	99
Es	0.536422	0.434073	0.339240	99
Es	-0.753340	-1.210823	0.934374	99
Es	1.496273	-0.103507	0.869985	99
Es	-0.572093	-0.221712	0.282091	99
Es	-2.712158	-0.356195	0.690984	99
Es	-0.594615	1.134599	-0.027371	99
Es	-1.134421	1.497186	0.168358	99
Es	2.047444	1.723963	0.767221	99
Es	1.773933	1.678863	0.899004	99
Es	-0.642209	-1.291067	-0.254197	99
Es	-2.600262	-0.454880	-0.504143	99
Es	2.667253	0.203894	-0.909211	99
Es	1.736938	1.665001	1.200218	99
Es	1.305008	0.434243	0.392005	99
Es	1.935196	0.198716	-0.968718	99
Es	-2.429892	-0.765462	0.145522	99
Es	-0.826530	1.524219	0.193163	99
Es	1.441062	2.022589	0.716645	99
Es	1.594489	0.302384	-0.294449	99
Es	1.734023	0.735333	-1.437574	99
Es	-2.743144	-1.442741	0.172528	99
Es	-0.621656	1.771740	0.199830	99
45
Properties=species:S:1:pos:R:3:Z:I:1 energy=-345.015103976278 field_type=dipole dipole="0.000000 0.000000 0.000000" charge=0
C	-2.429958	-0.765438	0.145517	6
C	-0.924528	-0.893248	0.294987	6
C	-0.222548	0.452392	0.281877	6
O	-0.826678	1.524462	0.193147	8
C	1.305002	0.434052	0.391977	6
C	1.935232	0.198732	-0.968743	6
O	1.774212	1.678912	0.899217	8
H	-2.901708	-1.751538	0.184257	1
H	-2.690208	-0.298398	-0.809773	1
H	-2.855088	-0.151188	0.945827	1
H	-0.527928	-1.503268	-0.522303	1
H	-0.692658	-1.386368	1.244987	1
H	1.603332	-0.343518	1.101707	1
H	1.653552	0.991412	-1.671603	1
H	1.628692	-0.760108	-1.398133	1
H	3.027862	0.216022	-0.893753	1
H	1.143412	2.357092	0.580807	1
Es	-0.924504	-0.893196	0.294982	99
Es	-2.712194	-0.356175	0.691064	99
Es	0.536554	0.434104	0.339285	99
Es	-2.743123	-1.442641	0.172487	99
Es	1.496216	-0.103515	0.869990	99
Es	2.667181	0.203983	-0.909191	99
Es	-1.134563	1.497071	0.168041	99
Es	2.048569	1.724244	0.768975	99
Es	1.572833	1.209149	0.692805	99
Es	1.733989	0.735355	-1.437574	99
Es	-0.572182	-0.221738	0.282071	99
Es	1.594433	0.302285	-0.294490	99
Es	-0.222553	0.452387	0.281870	99
Es	-0.826508	1.524198	0.193166	99
Es	1.735244	1.664323	1.199185	99
Es	-0.753362	-1.210742	0.934404	99
Es	1.773948	1.678858	0.899021	99
Es	1.441276	2.022966	0.716703	99
Es	-0.593720	1.134627	-0.027549	99
Es	-1.664658	-0.823821	0.220525	99
Es	1.305011	0.434237	0.392008	99
Es	-0.634797	1.153697	0.474576	99
Es	1.935198	0.198716	-0.968720	99
Es	1.718732	-0.457989	-1.254571	99
Es	-2.429892	-0.765460	0.145521	99
Es	-0.622153	1.771601	0.200529	99
Es	-0.642019	-1.291031	-0.254100	99
Es	-2.600259	-0.454912	-0.504160	99
45
Properties=species:S:1:pos:R:3:Z:I:1 energy=-345.015103976278 field_type=dipole dipole="0.000000 0.000000 0.000000" charge=0
C	-2.429958	-0.765438	0.145517	6
C	-0.924528	-0.893248	0.294987	6
C	-0.222548	0.452392	0.281877	6
O	-0.826678	1.524462	0.193147	8
C	1.305002	0.434052	0.391977	6
C	1.935232	0.198732	-0.968743	6
O	1.774212	1.678912	0.899217	8
H	-2.901708	-1.751538	0.184257	1
H	-2.690208	-0.298398	-0.809773	1
H	-2.855088	-0.151188	0.945827	1
H	-0.527928	-1.503268	-0.522303	1
H	-0.692658	-1.386368	1.244987	1
H	1.603332	-0.343518	1.101707	1
H	1.653552	0.991412	-1.671603	1
H	1.628692	-0.760108	-1.398133	1
H	3.027862	0.216022	-0.893753	1
H	1.143412	2.357092	0.580807	1
Es	1.305011	0.434245	0.392006	99
Es	-2.600261	-0.454960	-0.504183	99
Es	-0.634701	1.153252	0.474516	99
Es	-2.712246	-0.356176	0.690992	99
Es	2.667159	0.203957	-0.909245	99
Es	1.442787	2.024268	0.715428	99
Es	-0.826526	1.524178	0.193167	99
Es	2.048578	1.722745	0.770669	99
Es	1.496190	-0.103483	0.870046	99
Es	1.718715	-0.457982	-1.254556	99
Es	1.572176	1.209091	0.692803	99
Es	-2.743100	-1.442649	0.172525	99
Es	1.733997	0.735356	-1.437583	99
Es	-0.572236	-0.221754	0.282103	99
Es	1.935195	0.198715	-0.968719	99
Es	-1.134516	1.497478	0.168090	99
Es	-0.594134	1.134878	-0.027566	99
Es	1.734281	1.664541	1.198723	99
Es	-0.621841	1.771388	0.200521	99
Es	-2.429894	-0.765461	0.145522	99
Es	0.536613	0.434118	0.339293	99
Es	-0.642002	-1.290917	-0.254033	99
Es	-0.924503	-0.893198	0.294982	99
Es	-1.664705	-0.823813	0.220535	99
Es	-0.753297	-1.210797	0.934393	99
Es	1.594506	0.302272	-0.294491	99
Es	-0.222553	0.452389	0.281865	99
Es	1.774005	1.678898	0.899053	99
45
Properties=species:S:1:pos:R:3:Z:I:1 energy=-345.015103976278 field_type=dipole dipole="0.000000 0.000000 0.000000" charge=0
C	-2.429958	-0.765438	0.145517	6
C	-0.924528	-0.893248	0.294987	6
C	-0.222548	0.452392	0.281877	6
O	-0.826678	1.524462	0.193147	8
C	1.305002	0.434052	0.391977	6
C	1.935232	0.198732	-0.968743	6
O	1.774212	1.678912	0.899217	8
H	-2.901708	-1.751538	0.184257	1
H	-2.690208	-0.298398	-0.809773	1
H	-2.855088	-0.151188	0.945827	1
H	-0.527928	-1.503268	-0.522303	1
H	-0.692658	-1.386368	1.244987	1
H	1.603332	-0.343518	1.101707	1
H	1.653552	0.991412	-1.671603	1
H	1.628692	-0.760108	-1.398133	1
H	3.027862	0.216022	-0.893753	1
H	1.143412	2.357092	0.580807	1
Es	1.572138	1.208571	0.693779	99
Es	-0.634467	1.152793	0.474361	99
Es	1.718683	-0.457973	-1.254580	99
Es	-0.924504	-0.893197	0.294983	99
Es	-0.222553	0.452386	0.281876	99
Es	2.667178	0.203946	-0.909256	99
Es	-1.664681	-0.823735	0.220583	99
Es	-0.572210	-0.221909	0.282085	99
Es	1.496158	-0.103448	0.869955	99
Es	1.594458	0.302240	-0.294525	99
Es	1.734010	0.735349	-1.437549	99
Es	-2.429894	-0.765461	0.145522	99
Es	1.737830	1.665472	1.199915	99
Es	-2.600218	-0.455034	-0.504139	99
Es	-2.712275	-0.356099	0.690912	99
Es	-0.826514	1.524167	0.193168	99
Es	-0.753303	-1.210659	0.934425	99
Es	-1.134391	1.497120	0.168135	99
Es	1.305010	0.434240	0.392005	99
Es	1.935195	0.198715	-0.968718	99
Es	0.536632	0.434121	0.339430	99
Es	2.046383	1.723349	0.767438	99
Es	-0.641981	-1.291040	-0.254043	99
Es	-2.743183	-1.442612	0.172538	99
Es	1.773873	1.678856	0.899088	99
Es	-0.622388	1.771588	0.200955	99
Es	-0.593955	1.135504	-0.027998	99
Es	1.441666	2.023331	0.716508	99
45
Properties=species:S:1:pos:R:3:Z:I:1 energy=-345.015103976278 field_type=dipole dipole="0.000000 0.000000 0.000000" charge=0
C	-2.429958	-0.765438	0.145517	6
C	-0.924528	-0.893248	0.294987	6
C	-0.222548	0.452392	0.281877	6
O	-0.826678	1.524462	0.193147	8
C	1.305002	0.434052	0.391977	6
C	1.935232	0.198732	-0.968743	6
O	1.774212	1.678912	0.899217	8
H	-2.901708	-1.751538	0.184257	1
H	-2.690208	-0.298398	-0.809773	1
H	-2.855088	-0.151188	0.945827	1
H	-0.527928	-1.503268	-0.522303	1
H	-0.692658	-1.386368	1.244987	1
H	1.603332	-0.343518	1.101707	1
H	1.653552	0.991412	-1.671603	1
H	1.628692	-0.760108	-1.398133	1
H	3.027862	0.216022	-0.893753	1
H	1.143412	2.357092	0.580807	1
Es	-2.712244	-0.356171	0.690931	99
Es	-2.743199	-1.442593	0.172508	99
Es	0.536696	0.434145	0.339416	99
Es	-2.600276	-0.454975	-0.504098	99
Es	1.718741	-0.458008	-1.254555	99
Es	1.773961	1.678863	0.898914	99
Es	-0.826511	1.524218	0.193168	99
Es	-0.924504	-0.893197	0.294983	99
Es	-0.753207	-1.210763	0.934402	99
Es	1.594492	0.302205	-0.294527	99
Es	-0.593836	1.135093	-0.027813	99
Es	-0.572296	-0.221917	0.282071	99
Es	2.667114	0.203976	-0.909279	99
Es	1.572358	1.208530	0.693415	99
Es	-0.622213	1.771189	0.200789	99
Es	-1.664701	-0.823816	0.220540	99
Es	-0.641957	-1.290867	-0.254046	99
Es	1.496106	-0.103434	0.869959	99
Es	-2.429894	-0.765461	0.145522	99
Es	-0.634729	1.153145	0.474611	99
Es	2.046610	1.723571	0.768141	99
Es	1.305008	0.434235	0.392002	99
Es	-0.222553	0.452388	0.281874	99
Es	1.441655	2.023439	0.716623	99
Es	1.935196	0.198717	-0.968719	99
Es	1.737312	1.665178	1.199654	99
Es	1.733986	0.735367	-1.437588	99
Es	-1.134415	1.497520	0.167955	99
45
Properties=species:S:1:pos:R:3:Z:I:1 energy=-345.015103976278 field_type=dipole dipole="0.000000 0.000000 0.000000" charge=0
C	-2.429958	-0.765438	0.145517	6
C	-0.924528	-0.893248	0.294987	6
C	-0.222548	0.452392	0.281877	6
O	-0.826678	1.524462	0.193147	8
C	1.305002	0.434052	0.391977	6
C	1.935232	0.198732	-0.968743	6
O	1.774212	1.678912	0.899217	8
H	-2.901708	-1.751538	0.184257	1
H	-2.690208	-0.298398	-0.809773	1
H	-2.855088	-0.151188	0.945827	1
H	-0.527928	-1.503268	-0.522303	1
H	-0.692658	-1.386368	1.244987	1
H	1.603332	-0.343518	1.101707	1
H	1.653552	0.991412	-1.671603	1
H	1.628692	-0.760108	-1.398133	1
H	3.027862	0.216022	-0.893753	1
H	1.143412	2.357092	0.580807	1
Es	-2.712290	-0.356224	0.690923	99
Es	1.572373	1.208403	0.693107	99
Es	-0.594906	1.134121	-0.027260	99
Es	-0.924506	-0.893197	0.294983	99
Es	1.740476	1.664643	1.200025	99
Es	1.734027	0.735340	-1.437559	99
Es	1.305011	0.434244	0.392005	99
Es	2.667149	0.203953	-0.909260	99
Es	1.594370	0.302128	-0.294606	99
Es	-0.635946	1.152994	0.475056	99
Es	1.718746	-0.457938	-1.254613	99
Es	-2.743123	-1.442576	0.172525	99
Es	0.536805	0.434173	0.339448	99
Es	1.935195	0.198716	-0.968720	99
Es	-2.600361	-0.455005	-0.504095	99
Es	1.440515	2.023520	0.718737	99
Es	-1.664718	-0.823752	0.220600	99
Es	1.496034	-0.103417	0.869951	99
Es	-1.134525	1.500527	0.167406	99
Es	-0.826508	1.524202	0.193171	99
Es	2.044662	1.724193	0.765848	99
Es	-0.222552	0.452387	0.281873	99
Es	-0.753141	-1.210668	0.934359	99
Es	-0.572340	-0.221989	0.282046	99
Es	-0.641920	-1.290906	-0.254062	99
Es	1.773892	1.678854	0.899050	99
Es	-2.429897	-0.765463	0.145521	99
Es	-0.619825	1.769315	0.200393	99
45
Properties=species:S:1:pos:R:3:Z:I:1 energy=-345.015103976278 field_type=dipole dipole="0.000000 0.000000 0.000000" charge=0
C	-2.429958	-0.765438	0.145517	6
C	-0.924528	-0.893248	0.294987	6
C	-0.222548	0.452392	0.281877	6
O	-0.826678	1.524462	0.193147	8
C	1.305002	0.434052	0.391977	6
C	1.935232	0.198732	-0.968743	6
O	1.774212	1.678912	0.899217	8
H	-2.901708	-1.751538	0.184257	1
H	-2.690208	-0.298398	-0.809773	1
H	-2.855088	-0.151188	0.945827	1
H	-0.527928	-1.503268	-0.522303	1
H	-0.692658	-1.386368	1.244987	1
H	1.603332	-0.343518	1.101707	1
H	1.653552	0.991412	-1.671603	1
H	1.628692	-0.760108	-1.398133	1
H	3.027862	0.216022	-0.893753	1
H	1.143412	2.357092	0.580807	1
Es	1.935196	0.198716	-0.968720	99
Es	-0.222554	0.452389	0.281873	99
Es	1.594396	0.302269	-0.294639	99
Es	1.744566	1.666067	1.200043	99
Es	-0.621593	1.771017	0.200113	99
Es	1.570769	1.207771	0.695753	99
Es	-0.641868	-1.290887	-0.254007	99
Es	-2.743249	-1.442532	0.172608	99
Es	-1.134064	1.498163	0.167930	99
Es	-0.924503	-0.893199	0.294982	99
Es	1.305011	0.434242	0.392005	99
Es	-2.429895	-0.765460	0.145521	99
Es	1.495997	-0.103472	0.869988	99
Es	1.734088	0.735328	-1.437628	99
Es	-0.572397	-0.221976	0.281954	99
Es	-2.600363	-0.455027	-0.504091	99
Es	1.718674	-0.457932	-1.254533	99
Es	-0.826540	1.524183	0.193162	99
Es	2.667182	0.203865	-0.909201	99
Es	-0.753103	-1.210627	0.934314	99
Es	-2.712209	-0.356169	0.690841	99
Es	0.536856	0.434203	0.339299	99
Es	1.439860	2.023653	0.719615	99
Es	1.773962	1.678865	0.898941	99
Es	-1.664734	-0.823927	0.220590	99
Es	-0.635260	1.153754	0.474973	99
Es	2.042708	1.723256	0.762458	99
Es	-0.594235	1.134046	-0.027289	99
