45
Properties=species:S:1:pos:R:3:Z:I:1 energy=-345.01351852368066 field_type=dipole dipole="0.000000 0.000000 0.000000" charge=0
C	-1.075068	-1.178743	1.218930	6
C	-0.890558	-0.875203	-0.264160	6
C	-0.520108	0.580197	-0.555130	6
O	-1.498178	1.449287	0.009250	8
C	0.877293	0.935637	-0.041640	6
C	2.055153	0.446947	-0.839350	6
O	1.021313	1.594267	0.992070	8
H	-1.351887	-2.228693	1.353740	1
H	-1.870647	-0.567213	1.655050	1
H	-0.154138	-0.999263	1.780170	1
H	-1.837927	-1.103603	-0.768730	1
H	-0.133367	-1.551453	-0.676710	1
H	-0.531377	0.754457	-1.637420	1
H	-1.136907	1.738787	0.872230	1
H	2.123183	-0.641103	-0.777960	1
H	2.974832	0.884177	-0.439260	1
H	1.948392	0.761517	-1.881080	1
Es	-0.520195	0.580322	-0.554992	99
Es	-1.105712	1.116374	-0.185801	99
Es	-1.075051	-1.178741	1.218879	99
Es	1.021248	1.594109	0.991795	99
Es	-1.498040	1.449239	0.009324	99
Es	-1.300369	1.583940	0.460767	99
Es	2.055091	0.446944	-0.839342	99
Es	1.967084	0.655753	-1.533736	99
Es	-0.362466	-1.330278	-0.549113	99
Es	-1.261139	-1.894605	1.303223	99
Es	0.187081	0.753215	-0.297229	99
Es	-1.529326	-1.022734	-0.612903	99
Es	-0.672470	-0.141705	-0.399351	99
Es	-1.611212	-0.764209	1.511570	99
Es	-1.497856	1.695464	-0.168823	99
Es	0.966596	1.570605	0.488078	99
Es	-1.747870	1.274924	0.056039	99
Es	-0.890524	-0.875165	-0.264138	99
Es	0.734872	1.670921	1.120347	99
Es	-0.972651	-1.012487	0.477832	99
Es	0.975276	1.148825	0.761888	99
Es	1.464151	0.682404	-0.449832	99
Es	2.081188	-0.276462	-0.794180	99
Es	-0.444028	-1.055655	1.594631	99
Es	0.877304	0.935627	-0.041643	99
Es	-0.510091	0.694113	-1.292280	99
Es	1.318207	1.649493	1.070869	99
Es	2.666778	0.736571	-0.572221	99
45
Properties=species:S:1:pos:R:3:Z:I:1 energy=-345.01351852368066 field_type=dipole dipole="0.000000 0.000000 0.000000" charge=0
C	-1.075068	-1.178743	1.218930	6
C	-0.890558	-0.875203	-0.264160	6
C	-0.520108	0.580197	-0.555130	6
O	-1.498178	1.449287	0.009250	8
C	0.877293	0.935637	-0.041640	6
C	2.055153	0.446947	-0.839350	6
O	1.021313	1.594267	0.992070	8
H	-1.351887	-2.228693	1.353740	1
H	-1.870647	-0.567213	1.655050	1
H	-0.154138	-0.999263	1.780170	1
H	-1.837927	-1.103603	-0.768730	1
H	-0.133367	-1.551453	-0.676710	1
H	-0.531377	0.754457	-1.637420	1
H	-1.136907	1.738787	0.872230	1
H	2.123183	-0.641103	-0.777960	1
H	2.974832	0.884177	-0.439260	1
H	1.948392	0.761517	-1.881080	1
Es	-0.890525	-0.875164	-0.264138	99
Es	0.187017	0.753330	-0.297165	99
Es	-1.075053	-1.178744	1.218878	99
Es	-0.362599	-1.330214	-0.549125	99
Es	1.967048	0.655742	-1.533622	99
Es	-1.611058	-0.764170	1.511659	99
Es	-1.529372	-1.022699	-0.612951	99
Es	-1.300775	1.584207	0.461273	99
Es	0.973878	1.148315	0.760382	99
Es	0.966586	1.571833	0.489248	99
Es	1.021259	1.594096	0.991807	99
Es	-1.497871	1.449216	0.009378	99
Es	1.318554	1.646875	1.068574	99
Es	-0.972488	-1.012514	0.477671	99
Es	2.081103	-0.276461	-0.794281	99
Es	-1.261216	-1.894604	1.303315	99
Es	-1.499717	1.695249	-0.168930	99
Es	-1.746436	1.274105	0.056036	99
Es	2.666921	0.736646	-0.572127	99
Es	0.735939	1.672905	1.122896	99
Es	2.055091	0.446944	-0.839342	99
Es	-0.510112	0.694079	-1.292235	99
Es	-0.444213	-1.055792	1.594619	99
Es	-1.105104	1.117133	-0.186290	99
Es	-0.672252	-0.141737	-0.399236	99
Es	1.464156	0.682269	-0.449987	99
Es	0.877304	0.935640	-0.041650	99
Es	-0.520189	0.580318	-0.554998	99
45
Properties=species:S:1:pos:R:3:Z:I:1 energy=-345.01351852368066 field_type=dipole dipole="0.000000 0.000000 0.000000" charge=0
C	-1.075068	-1.178743	1.218930	6
C	-0.890558	-0.875203	-0.264160	6
C	-0.520108	0.580197	-0.555130	6
O	-1.498178	1.449287	0.009250	8
C	0.877293	0.935637	-0.041640	6
C	2.055153	0.446947	-0.839350	6
O	1.021313	1.594267	0.992070	8
H	-1.351887	-2.228693	1.353740	1
H	-1.870647	-0.567213	1.655050	1
H	-0.154138	-0.999263	1.780170	1
H	-1.837927	-1.103603	-0.768730	1
H	-0.133367	-1.551453	-0.676710	1
H	-0.531377	0.754457	-1.637420	1
H	-1.136907	1.738787	0.872230	1
H	2.123183	-0.641103	-0.777960	1
H	2.974832	0.884177	-0.439260	1
H	1.948392	0.761517	-1.881080	1
Es	-1.301721	1.583502	0.461883	99
Es	0.974483	1.147927	0.760406	99
Es	0.735587	1.671469	1.120992	99
Es	1.021262	1.594097	0.991813	99
Es	-0.890521	-0.875167	-0.264141	99
Es	-0.672394	-0.141750	-0.399327	99
Es	2.666909	0.736772	-0.572188	99
Es	1.317890	1.648275	1.070609	99
Es	-1.748423	1.277521	0.053921	99
Es	1.966982	0.655678	-1.533591	99
Es	1.464262	0.682278	-0.450027	99
Es	2.055091	0.446944	-0.839341	99
Es	-1.529288	-1.022857	-0.613051	99
Es	-1.106259	1.114487	-0.184969	99
Es	-1.611046	-0.764240	1.511533	99
Es	-0.444126	-1.055741	1.594748	99
Es	0.967003	1.572261	0.489071	99
Es	-0.362551	-1.330036	-0.549065	99
Es	-1.495654	1.695306	-0.168746	99
Es	-0.510051	0.694111	-1.292229	99
Es	2.081101	-0.276571	-0.794166	99
Es	-1.497842	1.449159	0.009428	99
Es	-1.075049	-1.178741	1.218880	99
Es	0.877305	0.935640	-0.041650	99
Es	-0.972528	-1.012555	0.477789	99
Es	-0.520193	0.580320	-0.554994	99
Es	0.186941	0.753280	-0.297216	99
Es	-1.261295	-1.894567	1.303289	99
45
Properties=species:S:1:pos:R:3:Z:I:1 energy=-345.01351852368066 field_type=dipole dipole="0.000000 0.000000 0.000000" charge=0
C	-1.075068	-1.178743	1.218930	6
C	-0.890558	-0.875203	-0.264160	6
C	-0.520108	0.580197	-0.555130	6
O	-1.498178	1.449287	0.009250	8
C	0.877293	0.935637	-0.041640	6
C	2.055153	0.446947	-0.839350	6
O	1.021313	1.594267	0.992070	8
H	-1.351887	-2.228693	1.353740	1
H	-1.870647	-0.567213	1.655050	1
H	-0.154138	-0.999263	1.780170	1
H	-1.837927	-1.103603	-0.768730	1
H	-0.133367	-1.551453	-0.676710	1
H	-0.531377	0.754457	-1.637420	1
H	-1.136907	1.738787	0.872230	1
H	2.123183	-0.641103	-0.777960	1
H	2.974832	0.884177	-0.439260	1
H	1.948392	0.761517	-1.881080	1
Es	-1.497894	1.449087	0.009461	99
Es	0.974997	1.147908	0.760275	99
Es	0.966519	1.571867	0.489475	99
Es	0.877304	0.935634	-0.041646	99
Es	1.966964	0.655745	-1.533577	99
Es	-1.261330	-1.894548	1.303357	99
Es	2.055092	0.446945	-0.839344	99
Es	-0.444135	-1.055729	1.594767	99
Es	1.021293	1.594182	0.991935	99
Es	-1.105844	1.115375	-0.185488	99
Es	-0.672307	-0.141738	-0.399334	99
Es	-1.497035	1.695010	-0.168700	99
Es	1.464282	0.682276	-0.449909	99
Es	-1.075052	-1.178741	1.218880	99
Es	0.735256	1.670695	1.120347	99
Es	0.186885	0.753294	-0.297316	99
Es	-1.301269	1.583998	0.461571	99
Es	-1.610942	-0.764320	1.511553	99
Es	-1.747884	1.276551	0.054693	99
Es	-1.529216	-1.022856	-0.612978	99
Es	-0.972603	-1.012512	0.477699	99
Es	-0.520192	0.580320	-0.554994	99
Es	2.666981	0.736650	-0.572190	99
Es	1.318116	1.649382	1.070850	99
Es	-0.362607	-1.330093	-0.549091	99
Es	-0.890525	-0.875166	-0.264138	99
Es	-0.510059	0.694064	-1.292199	99
Es	2.081078	-0.276479	-0.794300	99
45
Properties=species:S:1:pos:R:3:Z:I:1 energy=-345.01351852368066 field_type=dipole dipole="0.000000 0.000000 0.000000" charge=0
C	-1.075068	-1.178743	1.218930	6
C	-0.890558	-0.875203	-0.264160	6
C	-0.520108	0.580197	-0.555130	6
O	-1.498178	1.449287	0.009250	8
C	0.877293	0.935637	-0.041640	6
C	2.055153	0.446947	-0.839350	6
O	1.021313	1.594267	0.992070	8
H	-1.351887	-2.228693	1.353740	1
H	-1.870647	-0.567213	1.655050	1
H	-0.154138	-0.999263	1.780170	1
H	-1.837927	-1.103603	-0.768730	1
H	-0.133367	-1.551453	-0.676710	1
H	-0.531377	0.754457	-1.637420	1
H	-1.136907	1.738787	0.872230	1
H	2.123183	-0.641103	-0.777960	1
H	2.974832	0.884177	-0.439260	1
H	1.948392	0.761517	-1.881080	1
Es	1.318975	1.647200	1.069309	99
Es	0.877304	0.935631	-0.041648	99
Es	0.186794	0.753276	-0.297313	99
Es	-1.611029	-0.764345	1.511604	99
Es	2.081093	-0.276485	-0.794146	99
Es	-1.529211	-1.022794	-0.613059	99
Es	1.021258	1.594095	0.991800	99
Es	-1.497898	1.449203	0.009366	99
Es	0.736214	1.672418	1.122184	99
Es	0.966150	1.571181	0.488647	99
Es	-0.444208	-1.055650	1.594692	99
Es	2.666939	0.736727	-0.572200	99
Es	-0.672205	-0.141793	-0.399313	99
Es	-0.362627	-1.330088	-0.549076	99
Es	-0.510036	0.694057	-1.292232	99
Es	-1.106034	1.114877	-0.185073	99
Es	1.464412	0.682386	-0.450010	99
Es	1.966922	0.655683	-1.533676	99
Es	-1.075052	-1.178742	1.218881	99
Es	-0.520191	0.580319	-0.554996	99
Es	-0.890524	-0.875166	-0.264139	99
Es	0.973575	1.149034	0.761005	99
Es	-1.301031	1.584956	0.461186	99
Es	-1.497448	1.694533	-0.169410	99
Es	-0.972644	-1.012527	0.477730	99
Es	2.055091	0.446944	-0.839342	99
Es	-1.747546	1.276450	0.055479	99
Es	-1.261167	-1.894578	1.303408	99
45
Properties=species:S:1:pos:R:3:Z:I:1 energy=-345.01351852368066 field_type=dipole dipole="0.000000 0.000000 0.000000" charge=0
C	-1.075068	-1.178743	1.218930	6
C	-0.890558	-0.875203	-0.264160	6
C	-0.520108	0.580197	-0.555130	6
O	-1.498178	1.449287	0.009250	8
C	0.877293	0.935637	-0.041640	6
C	2.055153	0.446947	-0.839350	6
O	1.021313	1.594267	0.992070	8
H	-1.351887	-2.228693	1.353740	1
H	-1.870647	-0.567213	1.655050	1
H	-0.154138	-0.999263	1.780170	1
H	-1.837927	-1.103603	-0.768730	1
H	-0.133367	-1.551453	-0.676710	1
H	-0.531377	0.754457	-1.637420	1
H	-1.136907	1.738787	0.872230	1
H	2.123183	-0.641103	-0.777960	1
H	2.974832	0.884177	-0.439260	1
H	1.948392	0.761517	-1.881080	1
Es	-0.672236	-0.141846	-0.399533	99
Es	-1.610986	-0.764355	1.511558	99
Es	2.080971	-0.276504	-0.793993	99
Es	-0.520193	0.580319	-0.554996	99
Es	2.055092	0.446945	-0.839342	99
Es	-1.075052	-1.178741	1.218880	99
Es	-0.362695	-1.330171	-0.549061	99
Es	0.186736	0.753376	-0.297379	99
Es	2.666964	0.736693	-0.572219	99
Es	-0.444238	-1.055707	1.594788	99
Es	-1.501139	1.694292	-0.168494	99
Es	-1.261248	-1.894520	1.303420	99
Es	-1.497868	1.449184	0.009417	99
Es	1.318215	1.648393	1.072445	99
Es	0.973881	1.148372	0.759830	99
Es	-1.745289	1.274423	0.056278	99
Es	-0.972584	-1.012441	0.477715	99
Es	-0.890524	-0.875167	-0.264139	99
Es	1.967004	0.655552	-1.533705	99
Es	1.464427	0.682415	-0.450042	99
Es	0.967894	1.571972	0.489496	99
Es	-1.301088	1.585056	0.461467	99
Es	-1.104606	1.117116	-0.187160	99
Es	-1.529105	-1.022875	-0.612920	99
Es	0.734990	1.671220	1.119251	99
Es	1.021227	1.594102	0.991819	99
Es	0.877305	0.935627	-0.041642	99
Es	-0.509980	0.694072	-1.292079	99
45
Properties=species:S:1:pos:R:3:Z:I:1 energy=-345.01351852368066 field_type=dipole dipole="0.000000 0.000000 0.000000" charge=0
C	-1.075068	-1.178743	1.218930	6
C	-0.890558	-0.875203	-0.264160	6
C	-0.520108	0.580197	-0.555130	6
O	-1.498178	1.449287	0.009250	8
C	0.877293	0.935637	-0.041640	6
C	2.055153	0.446947	-0.839350	6
O	1.021313	1.594267	0.992070	8
H	-1.351887	-2.228693	1.353740	1
H	-1.870647	-0.567213	1.655050	1
H	-0.154138	-0.999263	1.780170	1
H	-1.837927	-1.103603	-0.768730	1
H	-0.133367	-1.551453	-0.676710	1
H	-0.531377	0.754457	-1.637420	1
H	-1.136907	1.738787	0.872230	1
H	2.123183	-0.641103	-0.777960	1
H	2.974832	0.884177	-0.439260	1
H	1.948392	0.761517	-1.881080	1
Es	-0.520191	0.580319	-0.554996	99
Es	-0.890524	-0.875166	-0.264138	99
Es	-1.497896	1.449185	0.009410	99
Es	1.464434	0.682276	-0.449977	99
Es	0.186653	0.753362	-0.297371	99
Es	-0.444268	-1.055730	1.594781	99
Es	-0.362694	-1.330032	-0.549125	99
Es	0.973797	1.148707	0.760148	99
Es	2.055092	0.446944	-0.839343	99
Es	-0.509939	0.694123	-1.292094	99
Es	-1.745638	1.276061	0.056495	99
Es	2.081191	-0.276531	-0.794010	99
Es	-1.300619	1.584447	0.461300	99
Es	-1.610976	-0.764423	1.511639	99
Es	-0.672187	-0.141958	-0.399372	99
Es	-0.972619	-1.012530	0.477695	99
Es	-1.075052	-1.178742	1.218882	99
Es	-1.261201	-1.894492	1.303411	99
Es	-1.500142	1.694855	-0.168583	99
Es	1.317629	1.648044	1.073665	99
Es	-1.105694	1.115535	-0.187078	99
Es	0.968682	1.572270	0.488707	99
Es	0.734829	1.670912	1.118493	99
Es	2.666865	0.736841	-0.572303	99
Es	0.877304	0.935629	-0.041646	99
Es	1.966900	0.655573	-1.533694	99
Es	-1.529123	-1.022787	-0.613075	99
Es	1.021263	1.594110	0.991838	99
45
Properties=species:S:1:pos:R:3:Z:I:1 energy=-345.01351852368066 field_type=dipole dipole="0.000000 0.000000 0.000000" charge=0
C	-1.075068	-1.178743	1.218930	6
C	-0.890558	-0.875203	-0.264160	6
C	-0.520108	0.580197	-0.555130	6
O	-1.498178	1.449287	0.009250	8
C	0.877293	0.935637	-0.041640	6
C	2.055153	0.446947	-0.839350	6
O	1.021313	1.594267	0.992070	8
H	-1.351887	-2.228693	1.353740	1
H	-1.870647	-0.567213	1.655050	1
H	-0.154138	-0.999263	1.780170	1
H	-1.837927	-1.103603	-0.768730	1
H	-0.133367	-1.551453	-0.676710	1
H	-0.531377	0.754457	-1.637420	1
H	-1.136907	1.738787	0.872230	1
H	2.123183	-0.641103	-0.777960	1
H	2.974832	0.884177	-0.439260	1
H	1.948392	0.761517	-1.881080	1
Es	1.464514	0.682331	-0.450082	99
Es	0.966266	1.571542	0.489374	99
Es	-1.075054	-1.178741	1.218883	99
Es	-0.520190	0.580317	-0.554997	99
Es	-1.497847	1.449169	0.009391	99
Es	2.080971	-0.276521	-0.794131	99
Es	1.318138	1.648596	1.069758	99
Es	0.974255	1.147834	0.760674	99
Es	-0.362754	-1.329991	-0.549175	99
Es	-1.745899	1.276088	0.055855	99
Es	-1.610932	-0.764448	1.511612	99
Es	-1.301141	1.585233	0.461573	99
Es	-1.105164	1.115712	-0.187022	99
Es	-1.261261	-1.894477	1.303395	99
Es	-0.972530	-1.012499	0.477766	99
Es	0.736246	1.671931	1.121317	99
Es	1.966987	0.655706	-1.533672	99
Es	-0.672156	-0.142110	-0.399436	99
Es	-0.444273	-1.055762	1.594842	99
Es	-0.509907	0.694195	-1.292040	99
Es	2.055091	0.446944	-0.839339	99
Es	-1.529133	-1.022771	-0.613059	99
Es	-1.499940	1.693868	-0.168244	99
Es	0.186554	0.753452	-0.297413	99
Es	-0.890526	-0.875168	-0.264140	99
Es	2.666964	0.736666	-0.572133	99
Es	0.877304	0.935634	-0.041646	99
Es	1.021292	1.594072	0.991748	99
45
Properties=species:S:1:pos:R:3:Z:I:1 energy=-345.01351852368066 field_type=dipole dipole="0.000000 0.000000 0.000000" charge=0
C	-1.075068	-1.178743	1.218930	6
C	-0.890558	-0.875203	-0.264160	6
C	-0.520108	0.580197	-0.555130	6
O	-1.498178	1.449287	0.009250	8
C	0.877293	0.935637	-0.041640	6
C	2.055153	0.446947	-0.839350	6
O	1.021313	1.594267	0.992070	8
H	-1.351887	-2.228693	1.353740	1
H	-1.870647	-0.567213	1.655050	1
H	-0.154138	-0.999263	1.780170	1
H	-1.837927	-1.103603	-0.768730	1
H	-0.133367	-1.551453	-0.676710	1
H	-0.531377	0.754457	-1.637420	1
H	-1.136907	1.738787	0.872230	1
H	2.123183	-0.641103	-0.777960	1
H	2.974832	0.884177	-0.439260	1
H	1.948392	0.761517	-1.881080	1
Es	-0.890525	-0.875166	-0.264138	99
Es	1.318126	1.648006	1.069530	99
Es	-1.746973	1.276678	0.053917	99
Es	-1.075054	-1.178746	1.218885	99
Es	2.666967	0.736732	-0.572195	99
Es	-0.509826	0.694255	-1.292014	99
Es	1.966896	0.655687	-1.533673	99
Es	-1.610969	-0.764413	1.511637	99
Es	2.055091	0.446945	-0.839343	99
Es	-1.302259	1.584009	0.462346	99
Es	1.021252	1.594106	0.991810	99
Es	-0.672186	-0.142196	-0.399464	99
Es	0.736450	1.671152	1.122304	99
Es	-1.498045	1.694280	-0.167285	99
Es	-1.104808	1.115980	-0.186780	99
Es	-1.529118	-1.022796	-0.613123	99
Es	0.186426	0.753328	-0.297436	99
Es	0.965886	1.572634	0.489475	99
Es	-0.972502	-1.012534	0.477698	99
Es	-0.362723	-1.329963	-0.549126	99
Es	-0.444417	-1.055711	1.594770	99
Es	-1.497883	1.449204	0.009395	99
Es	2.081055	-0.276499	-0.794132	99
Es	0.974515	1.148134	0.759696	99
Es	1.464537	0.682255	-0.449976	99
Es	-1.261149	-1.894504	1.303520	99
Es	-0.520191	0.580317	-0.554997	99
Es	0.877304	0.935628	-0.041645	99
45
Properties=species:S:1:pos:R:3:Z:I:1 energy=-345.01351852368066 field_type=dipole dipole="0.000000 0.000000 0.000000" charge=0
C	-1.075068	-1.178743	1.218930	6
C	-0.890558	-0.875203	-0.264160	6
C	-0.520108	0.580197	-0.555130	6
O	-1.498178	1.449287	0.009250	8
C	0.877293	0.935637	-0.041640	6
C	2.055153	0.446947	-0.839350	6
O	1.021313	1.594267	0.992070	8
H	-1.351887	-2.228693	1.353740	1
H	-1.870647	-0.567213	1.655050	1
H	-0.154138	-0.999263	1.780170	1
H	-1.837927	-1.103603	-0.768730	1
H	-0.133367	-1.551453	-0.676710	1
H	-0.531377	0.754457	-1.637420	1
H	-1.136907	1.738787	0.872230	1
H	2.123183	-0.641103	-0.777960	1
H	2.974832	0.884177	-0.439260	1
H	1.948392	0.761517	-1.881080	1
Es	-1.302102	1.584786	0.462071	99
Es	0.186465	0.753374	-0.297397	99
Es	1.021273	1.594073	0.991772	99
Es	0.974225	1.148062	0.759536	99
Es	-0.972344	-1.012574	0.477725	99
Es	2.055091	0.446944	-0.839342	99
Es	1.464647	0.682244	-0.450021	99
Es	-1.746617	1.277026	0.054489	99
Es	2.081005	-0.276513	-0.794062	99
Es	-1.105015	1.115318	-0.186661	99
Es	-0.509832	0.694191	-1.291986	99
Es	-0.362746	-1.329820	-0.549108	99
Es	1.317777	1.647902	1.070752	99
Es	-1.075051	-1.178743	1.218886	99
Es	-0.890523	-0.875165	-0.264139	99
Es	-1.529037	-1.022915	-0.613177	99
Es	2.666975	0.736728	-0.572199	99
Es	0.966812	1.572823	0.489475	99
Es	-1.497941	1.449205	0.009361	99
Es	-1.498339	1.693827	-0.167706	99
Es	1.966858	0.655690	-1.533719	99
Es	-0.672234	-0.142095	-0.399472	99
Es	-0.520189	0.580317	-0.554998	99
Es	-0.444468	-1.055667	1.595090	99
Es	-1.611010	-0.764583	1.511420	99
Es	0.877304	0.935629	-0.041644	99
Es	0.736104	1.671184	1.121271	99
Es	-1.261214	-1.894445	1.303439	99
45
Properties=species:S:1:pos:R:3:Z:I:1 energy=-345.01351852368066 field_type=dipole dipole="0.000000 0.000000 0.000000" charge=0
C	-1.075068	-1.178743	1.218930	6
C	-0.890558	-0.875203	-0.264160	6
C	-0.520108	0.580197	-0.555130	6
O	-1.498178	1.449287	0.009250	8
C	0.877293	0.935637	-0.041640	6
C	2.055153	0.446947	-0.839350	6
O	1.021313	1.594267	0.992070	8
H	-1.351887	-2.228693	1.353740	1
H	-1.870647	-0.567213	1.655050	1
H	-0.154138	-0.999263	1.780170	1
H	-1.837927	-1.103603	-0.768730	1
H	-0.133367	-1.551453	-0.676710	1
H	-0.531377	0.754457	-1.637420	1
H	-1.136907	1.738787	0.872230	1
H	2.123183	-0.641103	-0.777960	1
H	2.974832	0.884177	-0.439260	1
H	1.948392	0.761517	-1.881080	1
Es	0.186385	0.753434	-0.297435	99
Es	1.317471	1.650110	1.070711	99
Es	2.055093	0.446943	-0.839342	99
Es	0.966075	1.571808	0.489369	99
Es	-0.509806	0.694205	-1.291987	99
Es	-0.520191	0.580319	-0.554997	99
Es	1.966904	0.655710	-1.533666	99
Es	-1.261129	-1.894470	1.303513	99
Es	-0.672113	-0.142136	-0.399497	99
Es	2.080978	-0.276587	-0.794072	99
Es	-0.890523	-0.875166	-0.264139	99
Es	0.877305	0.935630	-0.041645	99
Es	-0.972571	-1.012514	0.477681	99
Es	0.735701	1.670212	1.120475	99
Es	-1.075048	-1.178742	1.218883	99
Es	-0.362814	-1.329961	-0.549154	99
Es	-0.444450	-1.055721	1.594818	99
Es	-1.748108	1.278490	0.053015	99
Es	-1.610935	-0.764530	1.511684	99
Es	1.464694	0.682331	-0.450084	99
Es	-1.497826	1.449166	0.009380	99
Es	1.021268	1.594119	0.991859	99
Es	2.666956	0.736722	-0.572191	99
Es	-1.528988	-1.022807	-0.613095	99
Es	0.975651	1.147735	0.760414	99
Es	-1.105378	1.115008	-0.187298	99
Es	-1.302251	1.583660	0.462627	99
Es	-1.496472	1.693832	-0.166167	99
45
Properties=species:S:1:pos:R:3:Z:I:1 energy=-345.01351852368066 field_type=dipole dipole="0.000000 0.000000 0.000000" charge=0
C	-1.075068	-1.178743	1.218930	6
C	-0.890558	-0.875203	-0.264160	6
C	-0.520108	0.580197	-0.555130	6
O	-1.498178	1.449287	0.009250	8
C	0.877293	0.935637	-0.041640	6
C	2.055153	0.446947	-0.839350	6
O	1.021313	1.594267	0.992070	8
H	-1.351887	-2.228693	1.353740	1
H	-1.870647	-0.567213	1.655050	1
H	-0.154138	-0.999263	1.780170	1
H	-1.837927	-1.103603	-0.768730	1
H	-0.133367	-1.551453	-0.676710	1
H	-0.531377	0.754457	-1.637420	1
H	-1.136907	1.738787	0.872230	1
H	2.123183	-0.641103	-0.777960	1
H	2.974832	0.884177	-0.439260	1
H	1.948392	0.761517	-1.881080	1
Es	-0.972683	-1.012478	0.477690	99
Es	-0.520191	0.580317	-0.554998	99
Es	0.735310	1.669837	1.120115	99
Es	-1.745231	1.276479	0.054900	99
Es	0.186350	0.753377	-0.297429	99
Es	0.967133	1.572810	0.489209	99
Es	0.877304	0.935630	-0.041647	99
Es	-1.610887	-0.764596	1.511727	99
Es	1.966850	0.655814	-1.533638	99
Es	1.021284	1.594087	0.991794	99
Es	-1.497834	1.449181	0.009397	99
Es	-0.672139	-0.142109	-0.399535	99
Es	2.055089	0.446943	-0.839341	99
Es	-1.104663	1.115745	-0.187027	99
Es	-1.500104	1.693432	-0.167988	99
Es	2.667046	0.736650	-0.572143	99
Es	-1.261135	-1.894438	1.303524	99
Es	2.080899	-0.276558	-0.794191	99
Es	-0.444410	-1.055724	1.594812	99
Es	-1.075052	-1.178741	1.218882	99
Es	1.464801	0.682215	-0.450007	99
Es	-0.890524	-0.875167	-0.264140	99
Es	1.316998	1.649166	1.072091	99
Es	-1.302253	1.585362	0.462272	99
Es	-0.362796	-1.329930	-0.549165	99
Es	0.975386	1.148203	0.759534	99
Es	-1.528892	-1.022860	-0.613078	99
Es	-0.509780	0.694154	-1.291963	99
45
Properties=species:S:1:pos:R:3:Z:I:1 energy=-345.01351852368066 field_type=dipole dipole="0.000000 0.000000 0.000000" charge=0
C	-1.075068	-1.178743	1.218930	6
C	-0.890558	-0.875203	-0.264160	6
C	-0.520108	0.580197	-0.555130	6
O	-1.498178	1.449287	0.009250	8
C	0.877293	0.935637	-0.041640	6
C	2.055153	0.446947	-0.839350	6
O	1.021313	1.594267	0.992070	8
H	-1.351887	-2.228693	1.353740	1
H	-1.870647	-0.567213	1.655050	1
H	-0.154138	-0.999263	1.780170	1
H	-1.837927	-1.103603	-0.768730	1
H	-0.133367	-1.551453	-0.676710	1
H	-0.531377	0.754457	-1.637420	1
H	-1.136907	1.738787	0.872230	1
H	2.123183	-0.641103	-0.777960	1
H	2.974832	0.884177	-0.439260	1
H	1.948392	0.761517	-1.881080	1
Es	0.973916	1.148026	0.760565	99
Es	1.464838	0.682220	-0.450081	99
Es	-1.261107	-1.894490	1.303531	99
Es	1.966746	0.655666	-1.533691	99
Es	-1.610908	-0.764572	1.511708	99
Es	2.666987	0.736840	-0.572260	99
Es	2.055090	0.446944	-0.839341	99
Es	-1.301918	1.585047	0.461979	99
Es	-0.972600	-1.012529	0.477715	99
Es	0.737082	1.672131	1.122384	99
Es	0.965962	1.572123	0.489014	99
Es	-1.528887	-1.022815	-0.613111	99
Es	-0.444498	-1.055712	1.594817	99
Es	-1.499555	1.693652	-0.167601	99
Es	-1.075052	-1.178743	1.218884	99
Es	2.081029	-0.276573	-0.794010	99
Es	-0.890525	-0.875168	-0.264138	99
Es	-0.672096	-0.142150	-0.399445	99
Es	1.317875	1.647475	1.068878	99
Es	0.877305	0.935629	-0.041645	99
Es	-1.745643	1.277196	0.055166	99
Es	-1.105006	1.115182	-0.187389	99
Es	1.021282	1.594209	0.991988	99
Es	-1.497921	1.449194	0.009381	99
Es	-0.520183	0.580317	-0.555000	99
Es	0.186269	0.753462	-0.297483	99
Es	-0.509746	0.694147	-1.291970	99
Es	-0.362860	-1.329907	-0.549187	99
45
Properties=species:S:1:pos:R:3:Z:I:1 energy=-345.01351852368066 field_type=dipole dipole="0.000000 0.000000 0.000000" charge=0
C	-1.075068	-1.178743	1.218930	6
C	-0.890558	-0.875203	-0.264160	6
C	-0.520108	0.580197	-0.555130	6
O	-1.498178	1.449287	0.009250	8
C	0.877293	0.935637	-0.041640	6
C	2.055153	0.446947	-0.839350	6
O	1.021313	1.594267	0.992070	8
H	-1.351887	-2.228693	1.353740	1
H	-1.870647	-0.567213	1.655050	1
H	-0.154138	-0.999263	1.780170	1
H	-1.837927	-1.103603	-0.768730	1
H	-0.133367	-1.551453	-0.676710	1
H	-0.531377	0.754457	-1.637420	1
H	-1.136907	1.738787	0.872230	1
H	2.123183	-0.641103	-0.777960	1
H	2.974832	0.884177	-0.439260	1
H	1.948392	0.761517	-1.881080	1
Es	2.080962	-0.276536	-0.794027	99
Es	1.318176	1.647138	1.067539	99
Es	-1.610729	-0.764521	1.511697	99
Es	-0.890525	-0.875169	-0.264140	99
Es	1.021260	1.594088	0.991783	99
Es	-1.498927	1.693884	-0.166783	99
Es	-1.261343	-1.894368	1.303566	99
Es	-0.444465	-1.055892	1.594894	99
Es	2.055091	0.446944	-0.839342	99
Es	-0.972602	-1.012533	0.477674	99
Es	-1.528857	-1.022782	-0.613133	99
Es	-1.746004	1.277012	0.053757	99
Es	0.965240	1.572124	0.489407	99
Es	-0.672027	-0.142230	-0.399537	99
Es	-0.509707	0.694230	-1.291934	99
Es	-0.520193	0.580319	-0.554996	99
Es	-1.075047	-1.178740	1.218883	99
Es	0.877304	0.935631	-0.041645	99
Es	0.973537	1.147707	0.760482	99
Es	-0.362891	-1.329902	-0.549200	99
Es	0.737931	1.672900	1.123585	99
Es	-1.104420	1.115971	-0.187448	99
Es	-1.302827	1.584161	0.462692	99
Es	1.464867	0.682276	-0.450043	99
Es	-1.497909	1.449207	0.009377	99
Es	0.186174	0.753459	-0.297499	99
Es	2.666960	0.736690	-0.572192	99
Es	1.966848	0.655733	-1.533759	99
45
Properties=species:S:1:pos:R:3:Z:I:1 energy=-345.01351852368066 field_type=dipole dipole="0.000000 0.000000 0.000000" charge=0
C	-1.075068	-1.178743	1.218930	6
C	-0.890558	-0.875203	-0.264160	6
C	-0.520108	0.580197	-0.555130	6
O	-1.498178	1.449287	0.009250	8
C	0.877293	0.935637	-0.041640	6
C	2.055153	0.446947	-0.839350	6
O	1.021313	1.594267	0.992070	8
H	-1.351887	-2.228693	1.353740	1
H	-1.870647	-0.567213	1.655050	1
H	-0.154138	-0.999263	1.780170	1
H	-1.837927	-1.103603	-0.768730	1
H	-0.133367	-1.551453	-0.676710	1
H	-0.531377	0.754457	-1.637420	1
H	-1.136907	1.738787	0.872230	1
H	2.123183	-0.641103	-0.777960	1
H	2.974832	0.884177	-0.439260	1
H	1.948392	0.761517	-1.881080	1
Es	0.186094	0.753494	-0.297481	99
Es	-1.301407	1.586304	0.461475	99
Es	-1.075052	-1.178742	1.218882	99
Es	-1.104752	1.115396	-0.187617	99
Es	1.317897	1.647516	1.068403	99
Es	2.667015	0.736752	-0.572214	99
Es	0.973871	1.147829	0.760281	99
Es	-1.528875	-1.022872	-0.613103	99
Es	-1.610720	-0.764511	1.511727	99
Es	1.021351	1.594065	0.991756	99
Es	1.966769	0.655756	-1.533671	99
Es	0.737580	1.672229	1.123022	99
Es	-0.520188	0.580315	-0.554999	99
Es	0.965471	1.572308	0.489330	99
Es	-0.444487	-1.055831	1.594814	99
Es	1.464975	0.682306	-0.450159	99
Es	2.080870	-0.276659	-0.794009	99
Es	-0.972615	-1.012487	0.477625	99
Es	-1.502115	1.693102	-0.168465	99
Es	-0.672086	-0.142267	-0.399564	99
Es	-1.497840	1.449178	0.009403	99
Es	2.055094	0.446936	-0.839341	99
Es	-1.743935	1.276296	0.056772	99
Es	-1.261282	-1.894413	1.303637	99
Es	0.877303	0.935629	-0.041646	99
Es	-0.509666	0.694248	-1.291922	99
Es	-0.362865	-1.329906	-0.549141	99
Es	-0.890527	-0.875170	-0.264136	99
45
Properties=species:S:1:pos:R:3:Z:I:1 energy=-345.01351852368066 field_type=dipole dipole="0.000000 0.000000 0.000000" charge=0
C	-1.075068	-1.178743	1.218930	6
C	-0.890558	-0.875203	-0.264160	6
C	-0.520108	0.580197	-0.555130	6
O	-1.498178	1.449287	0.009250	8
C	0.877293	0.935637	-0.041640	6
C	2.055153	0.446947	-0.839350	6
O	1.021313	1.594267	0.992070	8
H	-1.351887	-2.228693	1.353740	1
H	-1.870647	-0.567213	1.655050	1
H	-0.154138	-0.999263	1.780170	1
H	-1.837927	-1.103603	-0.768730	1
H	-0.133367	-1.551453	-0.676710	1
H	-0.531377	0.754457	-1.637420	1
H	-1.136907	1.738787	0.872230	1
H	2.123183	-0.641103	-0.777960	1
H	2.974832	0.884177	-0.439260	1
H	1.948392	0.761517	-1.881080	1
Es	0.186118	0.753537	-0.297574	99
Es	-1.497900	1.449047	0.009508	99
Es	1.317405	1.647771	1.070855	99
Es	-0.890525	-0.875167	-0.264137	99
Es	-0.972572	-1.012530	0.477688	99
Es	-0.671933	-0.142364	-0.399543	99
Es	2.080986	-0.276666	-0.794018	99
Es	-0.444562	-1.055776	1.594870	99
Es	-1.104474	1.115941	-0.188221	99
Es	-1.075051	-1.178742	1.218884	99
Es	-1.501405	1.692544	-0.167362	99
Es	-1.528863	-1.022738	-0.613155	99
Es	2.666870	0.736710	-0.572193	99
Es	2.055091	0.446943	-0.839342	99
Es	-1.301259	1.586368	0.461320	99
Es	1.021222	1.594107	0.991830	99
Es	0.877304	0.935634	-0.041649	99
Es	0.736407	1.671497	1.120974	99
Es	1.464974	0.682289	-0.450094	99
Es	-1.261141	-1.894431	1.303557	99
Es	1.966859	0.655827	-1.533730	99
Es	0.973998	1.148013	0.759694	99
Es	-1.610844	-0.764625	1.511739	99
Es	-0.520187	0.580317	-0.555001	99
Es	-1.745086	1.276375	0.056349	99
Es	-0.362954	-1.329882	-0.549226	99
Es	-0.509686	0.694243	-1.291791	99
Es	0.967084	1.572562	0.489426	99
