47
Properties=species:S:1:pos:R:3:Z:I:1 energy=-309.12056499546105 field_type=dipole dipole="0.000000 0.000000 0.000000" charge=0
C	-2.675912	1.508807	-0.559042	6
C	-1.562783	0.834667	0.217318	6
O	-0.996662	-0.187943	-0.597502	8
C	0.074068	-0.891693	0.059598	6
C	1.049408	-1.568683	-0.866742	6
C	1.453748	-0.319283	-0.133182	6
C	2.445047	-0.377873	0.977098	6
H	-3.130572	2.311857	0.028208	1
H	-3.451882	0.784357	-0.827462	1
H	-2.293902	1.928307	-1.495852	1
H	-1.960083	0.393507	1.137508	1
H	-0.790883	1.568017	0.475968	1
H	-0.152092	-1.411383	0.985788	1
H	0.865767	-1.496313	-1.932202	1
H	1.465768	-2.518133	-0.552622	1
H	1.544998	0.595357	-0.708842	1
H	2.404808	-1.329583	1.515408	1
H	2.253668	0.427067	1.692828	1
H	3.457498	-0.251063	0.583728	1
Es	-1.835661	0.531508	0.858239	99
Es	-0.859169	-0.041466	-0.829749	99
Es	3.134272	-0.292489	0.707785	99
Es	0.437865	-1.366308	-0.443084	99
Es	-1.186218	0.188906	-0.260434	99
Es	1.049370	-1.568562	-0.866618	99
Es	-1.029796	1.342962	0.401255	99
Es	0.924244	-1.517072	-1.582004	99
Es	-2.121999	1.173191	-0.172141	99
Es	-0.084275	-1.235287	0.697742	99
Es	-2.411985	1.797988	-1.190384	99
Es	1.335767	-2.209852	-0.644659	99
Es	1.946229	-0.365367	0.425573	99
Es	2.445035	-0.377875	0.977089	99
Es	-0.594981	-0.440642	-0.314941	99
Es	0.725569	-0.460739	0.100555	99
Es	-1.222461	-0.391703	-0.643694	99
Es	1.423684	-0.961142	-0.582840	99
Es	2.312787	0.172112	1.464336	99
Es	0.074043	-0.891576	0.059400	99
Es	-2.675897	1.508808	-0.559016	99
Es	2.411256	-1.030182	1.341731	99
Es	-1.562719	0.834514	0.217168	99
Es	-3.203686	1.016571	-0.734053	99
Es	-2.980217	2.054718	-0.151646	99
Es	1.505503	0.298362	-0.526542	99
Es	-0.996534	-0.187825	-0.597217	99
Es	1.453653	-0.319421	-0.133191	99
47
Properties=species:S:1:pos:R:3:Z:I:1 energy=-309.12056499546105 field_type=dipole dipole="0.000000 0.000000 0.000000" charge=0
C	-2.675912	1.508807	-0.559042	6
C	-1.562783	0.834667	0.217318	6
O	-0.996662	-0.187943	-0.597502	8
C	0.074068	-0.891693	0.059598	6
C	1.049408	-1.568683	-0.866742	6
C	1.453748	-0.319283	-0.133182	6
C	2.445047	-0.377873	0.977098	6
H	-3.130572	2.311857	0.028208	1
H	-3.451882	0.784357	-0.827462	1
H	-2.293902	1.928307	-1.495852	1
H	-1.960083	0.393507	1.137508	1
H	-0.790883	1.568017	0.475968	1
H	-0.152092	-1.411383	0.985788	1
H	0.865767	-1.496313	-1.932202	1
H	1.465768	-2.518133	-0.552622	1
H	1.544998	0.595357	-0.708842	1
H	2.404808	-1.329583	1.515408	1
H	2.253668	0.427067	1.692828	1
H	3.457498	-0.251063	0.583728	1
Es	2.445036	-0.377875	0.977090	99
Es	-1.029833	1.342916	0.401218	99
Es	-3.203674	1.016660	-0.734044	99
Es	-1.184896	0.191448	-0.261857	99
Es	1.505490	0.298319	-0.526499	99
Es	2.411305	-1.030153	1.341794	99
Es	1.946298	-0.365449	0.425414	99
Es	-1.835633	0.531552	0.858276	99
Es	-2.121995	1.173146	-0.172152	99
Es	0.924407	-1.517106	-1.581934	99
Es	-0.084237	-1.235169	0.697745	99
Es	-1.562719	0.834516	0.217170	99
Es	1.453661	-0.319429	-0.133198	99
Es	1.335859	-2.209777	-0.644665	99
Es	-1.222808	-0.392367	-0.640479	99
Es	0.437513	-1.366392	-0.442992	99
Es	1.423495	-0.961291	-0.583026	99
Es	3.134174	-0.292572	0.707750	99
Es	-2.675895	1.508806	-0.559016	99
Es	0.074042	-0.891588	0.059392	99
Es	-0.996604	-0.187960	-0.597063	99
Es	1.049368	-1.568563	-0.866618	99
Es	-2.980216	2.054670	-0.151618	99
Es	2.312886	0.172208	1.464321	99
Es	-0.860912	-0.044575	-0.831525	99
Es	0.725718	-0.460603	0.100681	99
Es	-2.412009	1.798034	-1.190421	99
Es	-0.594137	-0.439272	-0.315081	99
47
Properties=species:S:1:pos:R:3:Z:I:1 energy=-309.12056499546105 field_type=dipole dipole="0.000000 0.000000 0.000000" charge=0
C	-2.675912	1.508807	-0.559042	6
C	-1.562783	0.834667	0.217318	6
O	-0.996662	-0.187943	-0.597502	8
C	0.074068	-0.891693	0.059598	6
C	1.049408	-1.568683	-0.866742	6
C	1.453748	-0.319283	-0.133182	6
C	2.445047	-0.377873	0.977098	6
H	-3.130572	2.311857	0.028208	1
H	-3.451882	0.784357	-0.827462	1
H	-2.293902	1.928307	-1.495852	1
H	-1.960083	0.393507	1.137508	1
H	-0.790883	1.568017	0.475968	1
H	-0.152092	-1.411383	0.985788	1
H	0.865767	-1.496313	-1.932202	1
H	1.465768	-2.518133	-0.552622	1
H	1.544998	0.595357	-0.708842	1
H	2.404808	-1.329583	1.515408	1
H	2.253668	0.427067	1.692828	1
H	3.457498	-0.251063	0.583728	1
Es	-1.562720	0.834517	0.217171	99
Es	-3.203746	1.016601	-0.734106	99
Es	-2.980167	2.054680	-0.151627	99
Es	-1.029842	1.342905	0.401223	99
Es	0.725499	-0.460590	0.100917	99
Es	0.437644	-1.366627	-0.443163	99
Es	0.924308	-1.517171	-1.581816	99
Es	3.134265	-0.292461	0.707868	99
Es	-0.084217	-1.235208	0.697594	99
Es	1.423786	-0.961037	-0.583032	99
Es	2.445036	-0.377875	0.977089	99
Es	-2.412131	1.798053	-1.190286	99
Es	1.505445	0.298265	-0.526428	99
Es	1.453659	-0.319421	-0.133192	99
Es	1.946366	-0.365420	0.425301	99
Es	-0.860452	-0.043633	-0.830822	99
Es	2.312735	0.172089	1.464380	99
Es	0.074038	-0.891585	0.059394	99
Es	-2.121873	1.173184	-0.172197	99
Es	-0.996520	-0.187840	-0.597172	99
Es	-0.594244	-0.439472	-0.314927	99
Es	-1.835604	0.531569	0.858268	99
Es	1.049369	-1.568562	-0.866616	99
Es	-2.675895	1.508806	-0.559016	99
Es	-1.186153	0.190529	-0.261334	99
Es	2.411326	-1.030133	1.341700	99
Es	1.335788	-2.209715	-0.644801	99
Es	-1.222019	-0.392314	-0.641709	99
47
Properties=species:S:1:pos:R:3:Z:I:1 energy=-309.12056499546105 field_type=dipole dipole="0.000000 0.000000 0.000000" charge=0
C	-2.675912	1.508807	-0.559042	6
C	-1.562783	0.834667	0.217318	6
O	-0.996662	-0.187943	-0.597502	8
C	0.074068	-0.891693	0.059598	6
C	1.049408	-1.568683	-0.866742	6
C	1.453748	-0.319283	-0.133182	6
C	2.445047	-0.377873	0.977098	6
H	-3.130572	2.311857	0.028208	1
H	-3.451882	0.784357	-0.827462	1
H	-2.293902	1.928307	-1.495852	1
H	-1.960083	0.393507	1.137508	1
H	-0.790883	1.568017	0.475968	1
H	-0.152092	-1.411383	0.985788	1
H	0.865767	-1.496313	-1.932202	1
H	1.465768	-2.518133	-0.552622	1
H	1.544998	0.595357	-0.708842	1
H	2.404808	-1.329583	1.515408	1
H	2.253668	0.427067	1.692828	1
H	3.457498	-0.251063	0.583728	1
Es	-0.595444	-0.440951	-0.314326	99
Es	-1.029859	1.342831	0.401238	99
Es	0.924341	-1.517279	-1.581732	99
Es	1.335514	-2.209652	-0.644866	99
Es	-1.186750	0.190119	-0.260983	99
Es	1.505445	0.298212	-0.526307	99
Es	0.074043	-0.891592	0.059389	99
Es	1.424375	-0.960868	-0.583066	99
Es	-3.203736	1.016676	-0.734000	99
Es	-2.122012	1.173237	-0.172098	99
Es	2.411294	-1.030040	1.341747	99
Es	0.437400	-1.366867	-0.443162	99
Es	-2.675896	1.508806	-0.559016	99
Es	2.312923	0.172163	1.464384	99
Es	-0.858315	-0.042471	-0.827404	99
Es	-2.412031	1.797979	-1.190430	99
Es	-0.084151	-1.235026	0.697564	99
Es	-1.562719	0.834516	0.217170	99
Es	3.134251	-0.292622	0.707674	99
Es	-1.222346	-0.391602	-0.645964	99
Es	1.946129	-0.365348	0.425498	99
Es	1.049368	-1.568557	-0.866613	99
Es	2.445036	-0.377875	0.977089	99
Es	1.453657	-0.319424	-0.133193	99
Es	-2.980165	2.054697	-0.151709	99
Es	0.725455	-0.460684	0.100764	99
Es	-1.835570	0.531615	0.858259	99
Es	-0.996553	-0.187862	-0.597244	99
47
Properties=species:S:1:pos:R:3:Z:I:1 energy=-309.12056499546105 field_type=dipole dipole="0.000000 0.000000 0.000000" charge=0
C	-2.675912	1.508807	-0.559042	6
C	-1.562783	0.834667	0.217318	6
O	-0.996662	-0.187943	-0.597502	8
C	0.074068	-0.891693	0.059598	6
C	1.049408	-1.568683	-0.866742	6
C	1.453748	-0.319283	-0.133182	6
C	2.445047	-0.377873	0.977098	6
H	-3.130572	2.311857	0.028208	1
H	-3.451882	0.784357	-0.827462	1
H	-2.293902	1.928307	-1.495852	1
H	-1.960083	0.393507	1.137508	1
H	-0.790883	1.568017	0.475968	1
H	-0.152092	-1.411383	0.985788	1
H	0.865767	-1.496313	-1.932202	1
H	1.465768	-2.518133	-0.552622	1
H	1.544998	0.595357	-0.708842	1
H	2.404808	-1.329583	1.515408	1
H	2.253668	0.427067	1.692828	1
H	3.457498	-0.251063	0.583728	1
Es	0.725516	-0.460315	0.101075	99
Es	-2.412157	1.798099	-1.190463	99
Es	-1.222084	-0.391400	-0.639791	99
Es	-1.835466	0.531619	0.858203	99
Es	0.437375	-1.367117	-0.443367	99
Es	-0.861398	-0.045199	-0.832027	99
Es	2.445037	-0.377875	0.977091	99
Es	1.946303	-0.365183	0.425311	99
Es	-3.203750	1.016698	-0.733962	99
Es	-2.675896	1.508806	-0.559016	99
Es	-2.980147	2.054562	-0.151712	99
Es	-1.185164	0.191765	-0.261954	99
Es	-0.594179	-0.440084	-0.314921	99
Es	-0.996541	-0.187855	-0.597230	99
Es	1.453664	-0.319432	-0.133200	99
Es	1.424012	-0.961026	-0.583009	99
Es	2.411232	-1.030190	1.341728	99
Es	0.924500	-1.517228	-1.581674	99
Es	-2.122003	1.173195	-0.172050	99
Es	-0.084160	-1.235091	0.697439	99
Es	2.312774	0.172042	1.464324	99
Es	-1.562720	0.834518	0.217172	99
Es	1.049373	-1.568558	-0.866615	99
Es	3.134291	-0.292470	0.707912	99
Es	1.335680	-2.209562	-0.644958	99
Es	0.074042	-0.891588	0.059392	99
Es	1.505458	0.298138	-0.526303	99
Es	-1.029909	1.342864	0.401269	99
47
Properties=species:S:1:pos:R:3:Z:I:1 energy=-309.12056499546105 field_type=dipole dipole="0.000000 0.000000 0.000000" charge=0
C	-2.675912	1.508807	-0.559042	6
C	-1.562783	0.834667	0.217318	6
O	-0.996662	-0.187943	-0.597502	8
C	0.074068	-0.891693	0.059598	6
C	1.049408	-1.568683	-0.866742	6
C	1.453748	-0.319283	-0.133182	6
C	2.445047	-0.377873	0.977098	6
H	-3.130572	2.311857	0.028208	1
H	-3.451882	0.784357	-0.827462	1
H	-2.293902	1.928307	-1.495852	1
H	-1.960083	0.393507	1.137508	1
H	-0.790883	1.568017	0.475968	1
H	-0.152092	-1.411383	0.985788	1
H	0.865767	-1.496313	-1.932202	1
H	1.465768	-2.518133	-0.552622	1
H	1.544998	0.595357	-0.708842	1
H	2.404808	-1.329583	1.515408	1
H	2.253668	0.427067	1.692828	1
H	3.457498	-0.251063	0.583728	1
Es	1.946225	-0.365217	0.425249	99
Es	-0.996521	-0.187833	-0.597193	99
Es	1.335585	-2.209537	-0.645042	99
Es	-1.186062	0.191258	-0.261565	99
Es	0.074036	-0.891592	0.059389	99
Es	-2.980166	2.054610	-0.151713	99
Es	-2.675897	1.508806	-0.559017	99
Es	-3.203759	1.016805	-0.734104	99
Es	-1.029927	1.342839	0.401307	99
Es	-2.412084	1.798082	-1.190360	99
Es	1.049361	-1.568560	-0.866612	99
Es	-0.084119	-1.234984	0.697395	99
Es	0.437241	-1.367091	-0.443223	99
Es	2.445036	-0.377875	0.977089	99
Es	-2.122072	1.173085	-0.171982	99
Es	-0.594229	-0.440376	-0.314893	99
Es	1.505515	0.298080	-0.526211	99
Es	2.312859	0.172079	1.464365	99
Es	-1.562710	0.834517	0.217168	99
Es	0.725352	-0.460288	0.101150	99
Es	-0.860928	-0.044555	-0.830653	99
Es	3.134212	-0.292513	0.707869	99
Es	1.424379	-0.961062	-0.583269	99
Es	-1.221648	-0.391333	-0.641618	99
Es	-1.835437	0.531666	0.858151	99
Es	1.453658	-0.319425	-0.133195	99
Es	2.411301	-1.030164	1.341730	99
Es	0.924481	-1.517290	-1.581547	99
47
Properties=species:S:1:pos:R:3:Z:I:1 energy=-309.12056499546105 field_type=dipole dipole="0.000000 0.000000 0.000000" charge=0
C	-2.675912	1.508807	-0.559042	6
C	-1.562783	0.834667	0.217318	6
O	-0.996662	-0.187943	-0.597502	8
C	0.074068	-0.891693	0.059598	6
C	1.049408	-1.568683	-0.866742	6
C	1.453748	-0.319283	-0.133182	6
C	2.445047	-0.377873	0.977098	6
H	-3.130572	2.311857	0.028208	1
H	-3.451882	0.784357	-0.827462	1
H	-2.293902	1.928307	-1.495852	1
H	-1.960083	0.393507	1.137508	1
H	-0.790883	1.568017	0.475968	1
H	-0.152092	-1.411383	0.985788	1
H	0.865767	-1.496313	-1.932202	1
H	1.465768	-2.518133	-0.552622	1
H	1.544998	0.595357	-0.708842	1
H	2.404808	-1.329583	1.515408	1
H	2.253668	0.427067	1.692828	1
H	3.457498	-0.251063	0.583728	1
Es	-2.412086	1.798053	-1.190350	99
Es	0.924555	-1.517366	-1.581509	99
Es	0.725343	-0.460198	0.101343	99
Es	-1.835438	0.531655	0.858179	99
Es	1.453656	-0.319424	-0.133194	99
Es	0.074044	-0.891590	0.059391	99
Es	3.134214	-0.292439	0.707969	99
Es	1.049374	-1.568552	-0.866610	99
Es	1.946328	-0.365127	0.425119	99
Es	1.505462	0.298009	-0.526155	99
Es	-0.594487	-0.439707	-0.314552	99
Es	-0.996596	-0.187904	-0.597126	99
Es	-1.029946	1.342746	0.401316	99
Es	-0.860997	-0.045438	-0.832031	99
Es	1.424456	-0.961072	-0.583336	99
Es	-0.084116	-1.234946	0.697293	99
Es	2.411320	-1.030208	1.341668	99
Es	-1.185755	0.191898	-0.262069	99
Es	-2.122054	1.173247	-0.172020	99
Es	-2.675896	1.508806	-0.559017	99
Es	-1.221532	-0.391638	-0.640110	99
Es	1.335535	-2.209416	-0.645081	99
Es	-2.980213	2.054628	-0.151753	99
Es	-3.203729	1.016736	-0.734099	99
Es	2.445034	-0.377878	0.977088	99
Es	-1.562721	0.834520	0.217174	99
Es	0.437130	-1.367271	-0.443271	99
Es	2.312798	0.172007	1.464406	99
47
Properties=species:S:1:pos:R:3:Z:I:1 energy=-309.12056499546105 field_type=dipole dipole="0.000000 0.000000 0.000000" charge=0
C	-2.675912	1.508807	-0.559042	6
C	-1.562783	0.834667	0.217318	6
O	-0.996662	-0.187943	-0.597502	8
C	0.074068	-0.891693	0.059598	6
C	1.049408	-1.568683	-0.866742	6
C	1.453748	-0.319283	-0.133182	6
C	2.445047	-0.377873	0.977098	6
H	-3.130572	2.311857	0.028208	1
H	-3.451882	0.784357	-0.827462	1
H	-2.293902	1.928307	-1.495852	1
H	-1.960083	0.393507	1.137508	1
H	-0.790883	1.568017	0.475968	1
H	-0.152092	-1.411383	0.985788	1
H	0.865767	-1.496313	-1.932202	1
H	1.465768	-2.518133	-0.552622	1
H	1.544998	0.595357	-0.708842	1
H	2.404808	-1.329583	1.515408	1
H	2.253668	0.427067	1.692828	1
H	3.457498	-0.251063	0.583728	1
Es	-0.861540	-0.044590	-0.830767	99
Es	1.424656	-0.961029	-0.583431	99
Es	-0.996565	-0.187895	-0.597184	99
Es	-2.412161	1.797999	-1.190360	99
Es	-1.221700	-0.391781	-0.641174	99
Es	-1.835409	0.531704	0.858109	99
Es	2.312828	0.172067	1.464320	99
Es	1.335550	-2.209351	-0.645237	99
Es	-1.562720	0.834519	0.217172	99
Es	3.134180	-0.292448	0.707901	99
Es	2.411353	-1.030198	1.341774	99
Es	-2.675895	1.508807	-0.559017	99
Es	-3.203724	1.016770	-0.734061	99
Es	1.049370	-1.568567	-0.866619	99
Es	-2.122029	1.173251	-0.171998	99
Es	-1.185942	0.191171	-0.261505	99
Es	2.445036	-0.377876	0.977089	99
Es	1.946265	-0.365138	0.425187	99
Es	0.436988	-1.367521	-0.443145	99
Es	0.074042	-0.891583	0.059395	99
Es	-0.084090	-1.234847	0.697184	99
Es	-0.593637	-0.439729	-0.315241	99
Es	-2.980213	2.054666	-0.151790	99
Es	1.453654	-0.319424	-0.133193	99
Es	0.924451	-1.517400	-1.581372	99
Es	1.505518	0.297901	-0.526126	99
Es	0.725355	-0.460072	0.101379	99
Es	-1.029938	1.342728	0.401370	99
47
Properties=species:S:1:pos:R:3:Z:I:1 energy=-309.12056499546105 field_type=dipole dipole="0.000000 0.000000 0.000000" charge=0
C	-2.675912	1.508807	-0.559042	6
C	-1.562783	0.834667	0.217318	6
O	-0.996662	-0.187943	-0.597502	8
C	0.074068	-0.891693	0.059598	6
C	1.049408	-1.568683	-0.866742	6
C	1.453748	-0.319283	-0.133182	6
C	2.445047	-0.377873	0.977098	6
H	-3.130572	2.311857	0.028208	1
H	-3.451882	0.784357	-0.827462	1
H	-2.293902	1.928307	-1.495852	1
H	-1.960083	0.393507	1.137508	1
H	-0.790883	1.568017	0.475968	1
H	-0.152092	-1.411383	0.985788	1
H	0.865767	-1.496313	-1.932202	1
H	1.465768	-2.518133	-0.552622	1
H	1.544998	0.595357	-0.708842	1
H	2.404808	-1.329583	1.515408	1
H	2.253668	0.427067	1.692828	1
H	3.457498	-0.251063	0.583728	1
Es	3.134226	-0.292529	0.707885	99
Es	-1.562721	0.834519	0.217172	99
Es	1.453657	-0.319429	-0.133197	99
Es	-0.592713	-0.439004	-0.315728	99
Es	0.924540	-1.517427	-1.581306	99
Es	-2.412142	1.798012	-1.190340	99
Es	-1.185760	0.192133	-0.261852	99
Es	-2.675896	1.508807	-0.559018	99
Es	-2.980189	2.054660	-0.151784	99
Es	2.411309	-1.030125	1.341720	99
Es	0.725269	-0.460171	0.101393	99
Es	0.074046	-0.891577	0.059397	99
Es	-2.122033	1.173300	-0.172029	99
Es	-3.203752	1.016785	-0.734085	99
Es	2.445036	-0.377875	0.977090	99
Es	-0.863360	-0.046232	-0.832628	99
Es	1.049366	-1.568554	-0.866610	99
Es	-0.084056	-1.234752	0.697201	99
Es	-0.996588	-0.187907	-0.597101	99
Es	0.436833	-1.367730	-0.443226	99
Es	1.335540	-2.209297	-0.645278	99
Es	-1.835387	0.531722	0.858173	99
Es	2.312852	0.172074	1.464378	99
Es	1.424822	-0.960895	-0.583385	99
Es	1.505450	0.297860	-0.526116	99
Es	-1.220967	-0.391827	-0.638538	99
Es	-1.029972	1.342648	0.401330	99
Es	1.946272	-0.365057	0.425141	99
47
Properties=species:S:1:pos:R:3:Z:I:1 energy=-309.12056499546105 field_type=dipole dipole="0.000000 0.000000 0.000000" charge=0
C	-2.675912	1.508807	-0.559042	6
C	-1.562783	0.834667	0.217318	6
O	-0.996662	-0.187943	-0.597502	8
C	0.074068	-0.891693	0.059598	6
C	1.049408	-1.568683	-0.866742	6
C	1.453748	-0.319283	-0.133182	6
C	2.445047	-0.377873	0.977098	6
H	-3.130572	2.311857	0.028208	1
H	-3.451882	0.784357	-0.827462	1
H	-2.293902	1.928307	-1.495852	1
H	-1.960083	0.393507	1.137508	1
H	-0.790883	1.568017	0.475968	1
H	-0.152092	-1.411383	0.985788	1
H	0.865767	-1.496313	-1.932202	1
H	1.465768	-2.518133	-0.552622	1
H	1.544998	0.595357	-0.708842	1
H	2.404808	-1.329583	1.515408	1
H	2.253668	0.427067	1.692828	1
H	3.457498	-0.251063	0.583728	1
Es	-1.562725	0.834525	0.217176	99
Es	-0.084014	-1.234614	0.697157	99
Es	2.445036	-0.377877	0.977091	99
Es	-1.221072	-0.390982	-0.639329	99
Es	2.411309	-1.030099	1.341700	99
Es	-0.863201	-0.045889	-0.831850	99
Es	-2.122091	1.173316	-0.172003	99
Es	0.436708	-1.367724	-0.443122	99
Es	-1.030007	1.342610	0.401329	99
Es	-1.185699	0.192002	-0.261616	99
Es	3.134266	-0.292502	0.707947	99
Es	1.049360	-1.568551	-0.866606	99
Es	0.074045	-0.891592	0.059394	99
Es	2.312818	0.172016	1.464389	99
Es	-1.835326	0.531736	0.858169	99
Es	-2.412120	1.798041	-1.190318	99
Es	-2.675896	1.508807	-0.559016	99
Es	1.453655	-0.319428	-0.133196	99
Es	-0.592861	-0.440124	-0.315818	99
Es	-2.980175	2.054633	-0.151807	99
Es	1.505454	0.297846	-0.525999	99
Es	0.924512	-1.517546	-1.581174	99
Es	0.725284	-0.460091	0.101400	99
Es	-0.996549	-0.187858	-0.597209	99
Es	1.335469	-2.209271	-0.645294	99
Es	1.946200	-0.365039	0.425110	99
Es	1.425081	-0.961010	-0.583726	99
Es	-3.203779	1.016794	-0.734117	99
