45
Properties=species:S:1:pos:R:3:Z:I:1 energy=-344.9479849866962 field_type=dipole dipole="0.000000 0.000000 0.000000" charge=0
C	-2.718394	0.629869	0.433549	6
C	-1.274664	0.322269	0.774029	6
O	-0.666835	-0.306451	-0.353351	8
C	0.700645	-0.686251	-0.103191	6
C	1.559596	-0.809831	-1.330851	6
C	1.750735	0.352439	-0.403331	6
O	2.923096	0.331649	0.426189	8
H	-3.221174	1.118999	1.273399	1
H	-3.259835	-0.288621	0.184219	1
H	-2.777725	1.283199	-0.443161	1
H	-1.227684	-0.348271	1.638469	1
H	-0.738884	1.248479	1.008809	1
H	0.889465	-1.393011	0.698069	1
H	1.097395	-0.616111	-2.292231	1
H	2.308206	-1.591521	-1.352571	1
H	1.407066	1.323019	-0.746611	1
H	3.248995	-0.569851	0.588569	1
Es	1.047419	-0.908792	-0.766296	99
Es	0.828739	-1.161494	0.448856	99
Es	-0.862972	-0.072889	0.090750	99
Es	3.141015	0.464656	0.263106	99
Es	0.700527	-0.686144	-0.103369	99
Es	1.789547	-0.175156	-0.990108	99
Es	2.922937	0.331348	0.426059	99
Es	-1.274599	0.322169	0.773837	99
Es	1.750889	0.352261	-0.403223	99
Es	1.527386	1.006836	-0.625842	99
Es	-0.644888	-0.089872	-0.569975	99
Es	1.559551	-0.809765	-1.330699	99
Es	-3.084161	0.004510	0.271104	99
Es	-0.145899	-0.442884	-0.223205	99
Es	2.072206	-1.334901	-1.330537	99
Es	-1.239452	-0.140188	1.374524	99
Es	2.834956	0.440502	0.698089	99
Es	-0.822261	-0.567980	-0.398793	99
Es	-3.052761	0.962607	1.010477	99
Es	-0.666676	-0.306393	-0.353042	99
Es	-1.998892	0.476076	0.602705	99
Es	-0.904751	0.961432	0.940282	99
Es	3.066642	-0.166070	0.494046	99
Es	-2.718369	0.629870	0.433569	99
Es	-2.754138	1.078152	-0.157527	99
Es	2.480079	0.302695	0.108486	99
Es	1.168803	-0.071650	-0.083889	99
Es	1.246781	-0.678560	-1.971704	99
45
Properties=species:S:1:pos:R:3:Z:I:1 energy=-344.9479849866962 field_type=dipole dipole="0.000000 0.000000 0.000000" charge=0
C	-2.718394	0.629869	0.433549	6
C	-1.274664	0.322269	0.774029	6
O	-0.666835	-0.306451	-0.353351	8
C	0.700645	-0.686251	-0.103191	6
C	1.559596	-0.809831	-1.330851	6
C	1.750735	0.352439	-0.403331	6
O	2.923096	0.331649	0.426189	8
H	-3.221174	1.118999	1.273399	1
H	-3.259835	-0.288621	0.184219	1
H	-2.777725	1.283199	-0.443161	1
H	-1.227684	-0.348271	1.638469	1
H	-0.738884	1.248479	1.008809	1
H	0.889465	-1.393011	0.698069	1
H	1.097395	-0.616111	-2.292231	1
H	2.308206	-1.591521	-1.352571	1
H	1.407066	1.323019	-0.746611	1
H	3.248995	-0.569851	0.588569	1
Es	1.168809	-0.071603	-0.083818	99
Es	-0.862929	-0.072035	0.090440	99
Es	1.789528	-0.175089	-0.990206	99
Es	-2.754255	1.078105	-0.157511	99
Es	-0.145758	-0.442698	-0.223210	99
Es	2.922948	0.331344	0.426032	99
Es	-0.821160	-0.567819	-0.396217	99
Es	2.832694	0.435367	0.697642	99
Es	-0.904706	0.961313	0.940307	99
Es	-1.998829	0.476230	0.602677	99
Es	2.480097	0.303283	0.107755	99
Es	2.072225	-1.334752	-1.330642	99
Es	-3.084187	0.004511	0.271172	99
Es	1.047346	-0.908980	-0.766371	99
Es	3.068447	-0.166010	0.491691	99
Es	-1.239456	-0.140159	1.374512	99
Es	-2.718369	0.629870	0.433569	99
Es	1.527323	1.006742	-0.625676	99
Es	1.246868	-0.678535	-1.971650	99
Es	0.700537	-0.686134	-0.103363	99
Es	-1.274599	0.322166	0.773838	99
Es	1.750891	0.352262	-0.403224	99
Es	-3.052731	0.962611	1.010422	99
Es	-0.666618	-0.306244	-0.353055	99
Es	3.141470	0.469187	0.266693	99
Es	0.828776	-1.161508	0.448776	99
Es	1.559550	-0.809775	-1.330706	99
Es	-0.646254	-0.091275	-0.572194	99
45
Properties=species:S:1:pos:R:3:Z:I:1 energy=-344.9479849866962 field_type=dipole dipole="0.000000 0.000000 0.000000" charge=0
C	-2.718394	0.629869	0.433549	6
C	-1.274664	0.322269	0.774029	6
O	-0.666835	-0.306451	-0.353351	8
C	0.700645	-0.686251	-0.103191	6
C	1.559596	-0.809831	-1.330851	6
C	1.750735	0.352439	-0.403331	6
O	2.923096	0.331649	0.426189	8
H	-3.221174	1.118999	1.273399	1
H	-3.259835	-0.288621	0.184219	1
H	-2.777725	1.283199	-0.443161	1
H	-1.227684	-0.348271	1.638469	1
H	-0.738884	1.248479	1.008809	1
H	0.889465	-1.393011	0.698069	1
H	1.097395	-0.616111	-2.292231	1
H	2.308206	-1.591521	-1.352571	1
H	1.407066	1.323019	-0.746611	1
H	3.248995	-0.569851	0.588569	1
Es	1.750886	0.352261	-0.403222	99
Es	1.047329	-0.909119	-0.766569	99
Es	-3.052729	0.962616	1.010393	99
Es	2.835781	0.439829	0.698402	99
Es	-1.274598	0.322168	0.773836	99
Es	2.479330	0.303416	0.108669	99
Es	2.072065	-1.334801	-1.330627	99
Es	-0.820919	-0.567735	-0.397274	99
Es	-1.998869	0.476218	0.602730	99
Es	2.923040	0.331307	0.425949	99
Es	-2.718369	0.629870	0.433569	99
Es	0.700526	-0.686145	-0.103368	99
Es	1.247012	-0.678524	-1.971634	99
Es	0.828746	-1.161372	0.448771	99
Es	1.527445	1.006665	-0.625791	99
Es	-0.646691	-0.091034	-0.570921	99
Es	-1.239431	-0.140086	1.374537	99
Es	-0.145079	-0.442038	-0.223902	99
Es	-0.863361	-0.072969	0.090937	99
Es	-0.666652	-0.306332	-0.353053	99
Es	1.168668	-0.071471	-0.083628	99
Es	3.139728	0.464782	0.264089	99
Es	-0.904732	0.961306	0.940262	99
Es	1.559553	-0.809765	-1.330698	99
Es	-2.754212	1.078121	-0.157496	99
Es	1.789619	-0.175132	-0.990133	99
Es	-3.084214	0.004494	0.271148	99
Es	3.067786	-0.166154	0.492706	99
45
Properties=species:S:1:pos:R:3:Z:I:1 energy=-344.9479849866962 field_type=dipole dipole="0.000000 0.000000 0.000000" charge=0
C	-2.718394	0.629869	0.433549	6
C	-1.274664	0.322269	0.774029	6
O	-0.666835	-0.306451	-0.353351	8
C	0.700645	-0.686251	-0.103191	6
C	1.559596	-0.809831	-1.330851	6
C	1.750735	0.352439	-0.403331	6
O	2.923096	0.331649	0.426189	8
H	-3.221174	1.118999	1.273399	1
H	-3.259835	-0.288621	0.184219	1
H	-2.777725	1.283199	-0.443161	1
H	-1.227684	-0.348271	1.638469	1
H	-0.738884	1.248479	1.008809	1
H	0.889465	-1.393011	0.698069	1
H	1.097395	-0.616111	-2.292231	1
H	2.308206	-1.591521	-1.352571	1
H	1.407066	1.323019	-0.746611	1
H	3.248995	-0.569851	0.588569	1
Es	2.479162	0.303188	0.108496	99
Es	-0.863904	-0.074169	0.091334	99
Es	-0.646630	-0.090189	-0.570587	99
Es	-0.145171	-0.441579	-0.223781	99
Es	2.072084	-1.334664	-1.330678	99
Es	-3.052723	0.962595	1.010382	99
Es	-0.904739	0.961232	0.940323	99
Es	-1.998832	0.476211	0.602700	99
Es	2.836158	0.440443	0.697769	99
Es	1.047254	-0.909341	-0.766427	99
Es	-2.718369	0.629870	0.433569	99
Es	1.750888	0.352258	-0.403229	99
Es	1.168636	-0.071521	-0.083663	99
Es	0.828753	-1.161178	0.448812	99
Es	0.700530	-0.686142	-0.103367	99
Es	1.247028	-0.678688	-1.971535	99
Es	-3.084248	0.004564	0.271149	99
Es	-0.820329	-0.567744	-0.398164	99
Es	-0.666641	-0.306406	-0.353001	99
Es	-1.274599	0.322169	0.773837	99
Es	1.789725	-0.175011	-0.990417	99
Es	2.922857	0.331284	0.426162	99
Es	-2.754270	1.078118	-0.157463	99
Es	1.527440	1.006627	-0.625744	99
Es	3.068178	-0.166226	0.493437	99
Es	3.139305	0.464517	0.263963	99
Es	-1.239432	-0.140077	1.374499	99
Es	1.559546	-0.809764	-1.330691	99
45
Properties=species:S:1:pos:R:3:Z:I:1 energy=-344.9479849866962 field_type=dipole dipole="0.000000 0.000000 0.000000" charge=0
C	-2.718394	0.629869	0.433549	6
C	-1.274664	0.322269	0.774029	6
O	-0.666835	-0.306451	-0.353351	8
C	0.700645	-0.686251	-0.103191	6
C	1.559596	-0.809831	-1.330851	6
C	1.750735	0.352439	-0.403331	6
O	2.923096	0.331649	0.426189	8
H	-3.221174	1.118999	1.273399	1
H	-3.259835	-0.288621	0.184219	1
H	-2.777725	1.283199	-0.443161	1
H	-1.227684	-0.348271	1.638469	1
H	-0.738884	1.248479	1.008809	1
H	0.889465	-1.393011	0.698069	1
H	1.097395	-0.616111	-2.292231	1
H	2.308206	-1.591521	-1.352571	1
H	1.407066	1.323019	-0.746611	1
H	3.248995	-0.569851	0.588569	1
Es	-0.145652	-0.442375	-0.223391	99
Es	-3.052764	0.962599	1.010443	99
Es	-2.754329	1.078069	-0.157449	99
Es	1.168588	-0.071553	-0.083455	99
Es	2.480389	0.303918	0.106765	99
Es	1.750883	0.352255	-0.403227	99
Es	2.072017	-1.334662	-1.330745	99
Es	1.789862	-0.174818	-0.990598	99
Es	-0.862965	-0.071744	0.090488	99
Es	1.527411	1.006529	-0.625619	99
Es	-1.274598	0.322169	0.773836	99
Es	-0.821254	-0.568008	-0.396586	99
Es	1.047234	-0.909399	-0.766479	99
Es	1.247064	-0.678720	-1.971435	99
Es	3.142070	0.470167	0.268393	99
Es	0.700530	-0.686145	-0.103370	99
Es	0.828727	-1.161175	0.448649	99
Es	-0.904716	0.961195	0.940366	99
Es	1.559547	-0.809764	-1.330696	99
Es	-0.666671	-0.306368	-0.353030	99
Es	3.068467	-0.166087	0.491624	99
Es	-3.084180	0.004566	0.271141	99
Es	-1.239428	-0.140054	1.374449	99
Es	2.922968	0.331381	0.426073	99
Es	-2.718369	0.629870	0.433569	99
Es	2.831805	0.433849	0.696963	99
Es	-0.646140	-0.091594	-0.571649	99
Es	-1.998840	0.476276	0.602653	99
45
Properties=species:S:1:pos:R:3:Z:I:1 energy=-344.9479849866962 field_type=dipole dipole="0.000000 0.000000 0.000000" charge=0
C	-2.718394	0.629869	0.433549	6
C	-1.274664	0.322269	0.774029	6
O	-0.666835	-0.306451	-0.353351	8
C	0.700645	-0.686251	-0.103191	6
C	1.559596	-0.809831	-1.330851	6
C	1.750735	0.352439	-0.403331	6
O	2.923096	0.331649	0.426189	8
H	-3.221174	1.118999	1.273399	1
H	-3.259835	-0.288621	0.184219	1
H	-2.777725	1.283199	-0.443161	1
H	-1.227684	-0.348271	1.638469	1
H	-0.738884	1.248479	1.008809	1
H	0.889465	-1.393011	0.698069	1
H	1.097395	-0.616111	-2.292231	1
H	2.308206	-1.591521	-1.352571	1
H	1.407066	1.323019	-0.746611	1
H	3.248995	-0.569851	0.588569	1
Es	1.527496	1.006448	-0.625738	99
Es	-0.820648	-0.567188	-0.396832	99
Es	1.247111	-0.678732	-1.971476	99
Es	-2.718370	0.629870	0.433569	99
Es	3.066675	-0.166392	0.495027	99
Es	2.478468	0.303751	0.109060	99
Es	-0.904752	0.961127	0.940343	99
Es	2.922984	0.331363	0.426035	99
Es	1.750878	0.352263	-0.403209	99
Es	-0.646917	-0.092059	-0.571121	99
Es	-0.863594	-0.072181	0.090795	99
Es	3.139580	0.462059	0.262543	99
Es	2.071973	-1.334483	-1.330783	99
Es	1.789848	-0.174882	-0.990428	99
Es	-0.666664	-0.306372	-0.353046	99
Es	0.828773	-1.161105	0.448703	99
Es	-3.052647	0.962724	1.010321	99
Es	1.168677	-0.071319	-0.083665	99
Es	-2.754323	1.077992	-0.157560	99
Es	-1.998871	0.476205	0.602722	99
Es	2.837972	0.442491	0.697237	99
Es	-1.239357	-0.140014	1.374464	99
Es	-1.274600	0.322170	0.773839	99
Es	1.559550	-0.809763	-1.330694	99
Es	-3.084327	0.004613	0.271334	99
Es	0.700538	-0.686143	-0.103369	99
Es	1.047076	-0.909764	-0.766422	99
Es	-0.144873	-0.442304	-0.223966	99
45
Properties=species:S:1:pos:R:3:Z:I:1 energy=-344.9479849866962 field_type=dipole dipole="0.000000 0.000000 0.000000" charge=0
C	-2.718394	0.629869	0.433549	6
C	-1.274664	0.322269	0.774029	6
O	-0.666835	-0.306451	-0.353351	8
C	0.700645	-0.686251	-0.103191	6
C	1.559596	-0.809831	-1.330851	6
C	1.750735	0.352439	-0.403331	6
O	2.923096	0.331649	0.426189	8
H	-3.221174	1.118999	1.273399	1
H	-3.259835	-0.288621	0.184219	1
H	-2.777725	1.283199	-0.443161	1
H	-1.227684	-0.348271	1.638469	1
H	-0.738884	1.248479	1.008809	1
H	0.889465	-1.393011	0.698069	1
H	1.097395	-0.616111	-2.292231	1
H	2.308206	-1.591521	-1.352571	1
H	1.407066	1.323019	-0.746611	1
H	3.248995	-0.569851	0.588569	1
Es	-0.145153	-0.443668	-0.223799	99
Es	0.700534	-0.686139	-0.103367	99
Es	-1.274599	0.322170	0.773839	99
Es	2.071917	-1.334419	-1.330789	99
Es	2.836706	0.440159	0.696912	99
Es	0.828712	-1.160973	0.448635	99
Es	1.047169	-0.909822	-0.766492	99
Es	1.168551	-0.071452	-0.083323	99
Es	-0.863735	-0.073005	0.091196	99
Es	-0.904752	0.961090	0.940339	99
Es	-2.754387	1.078092	-0.157475	99
Es	1.789974	-0.174797	-0.990757	99
Es	3.140320	0.464016	0.263745	99
Es	-0.666669	-0.306363	-0.353070	99
Es	-3.084268	0.004564	0.271243	99
Es	-0.645583	-0.090902	-0.569479	99
Es	2.478601	0.303919	0.108672	99
Es	1.559560	-0.809759	-1.330700	99
Es	-2.718374	0.629870	0.433565	99
Es	1.247178	-0.678821	-1.971432	99
Es	-0.821544	-0.566196	-0.399033	99
Es	-1.998852	0.476321	0.602753	99
Es	2.922987	0.331483	0.426099	99
Es	-1.239348	-0.139961	1.374460	99
Es	3.067082	-0.166280	0.494384	99
Es	1.527422	1.006408	-0.625540	99
Es	1.750883	0.352257	-0.403226	99
Es	-3.052674	0.962584	1.010323	99
45
Properties=species:S:1:pos:R:3:Z:I:1 energy=-344.9479849866962 field_type=dipole dipole="0.000000 0.000000 0.000000" charge=0
C	-2.718394	0.629869	0.433549	6
C	-1.274664	0.322269	0.774029	6
O	-0.666835	-0.306451	-0.353351	8
C	0.700645	-0.686251	-0.103191	6
C	1.559596	-0.809831	-1.330851	6
C	1.750735	0.352439	-0.403331	6
O	2.923096	0.331649	0.426189	8
H	-3.221174	1.118999	1.273399	1
H	-3.259835	-0.288621	0.184219	1
H	-2.777725	1.283199	-0.443161	1
H	-1.227684	-0.348271	1.638469	1
H	-0.738884	1.248479	1.008809	1
H	0.889465	-1.393011	0.698069	1
H	1.097395	-0.616111	-2.292231	1
H	2.308206	-1.591521	-1.352571	1
H	1.407066	1.323019	-0.746611	1
H	3.248995	-0.569851	0.588569	1
Es	1.247294	-0.678782	-1.971383	99
Es	3.140940	0.467320	0.266633	99
Es	3.068158	-0.166012	0.492674	99
Es	1.527536	1.006320	-0.625662	99
Es	-0.145078	-0.443662	-0.223710	99
Es	1.559555	-0.809760	-1.330698	99
Es	-2.754365	1.078037	-0.157369	99
Es	-0.904764	0.961105	0.940369	99
Es	-3.084304	0.004586	0.271150	99
Es	-0.821711	-0.566128	-0.399522	99
Es	2.479449	0.303871	0.107458	99
Es	1.750885	0.352258	-0.403226	99
Es	-3.052726	0.962630	1.010323	99
Es	2.922997	0.331352	0.425951	99
Es	-2.718370	0.629870	0.433569	99
Es	1.047067	-0.909920	-0.766559	99
Es	-0.645344	-0.091075	-0.569017	99
Es	2.071840	-1.334435	-1.330817	99
Es	1.790030	-0.174870	-0.990747	99
Es	0.828689	-1.160909	0.448577	99
Es	-0.666657	-0.306381	-0.353036	99
Es	0.700540	-0.686142	-0.103375	99
Es	2.834158	0.436789	0.697148	99
Es	-0.863856	-0.072856	0.091152	99
Es	-1.274600	0.322170	0.773840	99
Es	1.168467	-0.071339	-0.083192	99
Es	-1.998829	0.476261	0.602738	99
Es	-1.239343	-0.139921	1.374413	99
45
Properties=species:S:1:pos:R:3:Z:I:1 energy=-344.9479849866962 field_type=dipole dipole="0.000000 0.000000 0.000000" charge=0
C	-2.718394	0.629869	0.433549	6
C	-1.274664	0.322269	0.774029	6
O	-0.666835	-0.306451	-0.353351	8
C	0.700645	-0.686251	-0.103191	6
C	1.559596	-0.809831	-1.330851	6
C	1.750735	0.352439	-0.403331	6
O	2.923096	0.331649	0.426189	8
H	-3.221174	1.118999	1.273399	1
H	-3.259835	-0.288621	0.184219	1
H	-2.777725	1.283199	-0.443161	1
H	-1.227684	-0.348271	1.638469	1
H	-0.738884	1.248479	1.008809	1
H	0.889465	-1.393011	0.698069	1
H	1.097395	-0.616111	-2.292231	1
H	2.308206	-1.591521	-1.352571	1
H	1.407066	1.323019	-0.746611	1
H	3.248995	-0.569851	0.588569	1
Es	1.750890	0.352254	-0.403234	99
Es	-1.998925	0.476200	0.602820	99
Es	2.478434	0.304005	0.108667	99
Es	-0.821561	-0.565683	-0.399809	99
Es	-2.718370	0.629870	0.433568	99
Es	1.247389	-0.678790	-1.971388	99
Es	-3.052715	0.962671	1.010289	99
Es	1.047263	-0.909582	-0.766774	99
Es	-3.084318	0.004675	0.271271	99
Es	-0.904765	0.961022	0.940382	99
Es	2.836825	0.439821	0.697013	99
Es	-0.145102	-0.444029	-0.223542	99
Es	0.828691	-1.161044	0.448389	99
Es	-0.666649	-0.306393	-0.353003	99
Es	3.067542	-0.166289	0.493887	99
Es	3.139979	0.464387	0.264232	99
Es	-0.645072	-0.091544	-0.568891	99
Es	1.790254	-0.174597	-0.990962	99
Es	-1.274601	0.322171	0.773841	99
Es	-1.239284	-0.139888	1.374392	99
Es	1.527469	1.006265	-0.625418	99
Es	0.700538	-0.686151	-0.103384	99
Es	1.168161	-0.071613	-0.082818	99
Es	-2.754342	1.078007	-0.157508	99
Es	2.922950	0.331367	0.426057	99
Es	1.559548	-0.809762	-1.330692	99
Es	2.071704	-1.334460	-1.330797	99
Es	-0.864276	-0.072512	0.091094	99
45
Properties=species:S:1:pos:R:3:Z:I:1 energy=-344.9479849866962 field_type=dipole dipole="0.000000 0.000000 0.000000" charge=0
C	-2.718394	0.629869	0.433549	6
C	-1.274664	0.322269	0.774029	6
O	-0.666835	-0.306451	-0.353351	8
C	0.700645	-0.686251	-0.103191	6
C	1.559596	-0.809831	-1.330851	6
C	1.750735	0.352439	-0.403331	6
O	2.923096	0.331649	0.426189	8
H	-3.221174	1.118999	1.273399	1
H	-3.259835	-0.288621	0.184219	1
H	-2.777725	1.283199	-0.443161	1
H	-1.227684	-0.348271	1.638469	1
H	-0.738884	1.248479	1.008809	1
H	0.889465	-1.393011	0.698069	1
H	1.097395	-0.616111	-2.292231	1
H	2.308206	-1.591521	-1.352571	1
H	1.407066	1.323019	-0.746611	1
H	3.248995	-0.569851	0.588569	1
Es	3.139911	0.465259	0.264181	99
Es	-0.666706	-0.306378	-0.353046	99
Es	1.559552	-0.809762	-1.330695	99
Es	1.247389	-0.678881	-1.971263	99
Es	-0.904768	0.960961	0.940378	99
Es	2.922944	0.331364	0.426044	99
Es	1.168402	-0.071455	-0.083164	99
Es	3.067900	-0.166153	0.492651	99
Es	-0.145357	-0.445019	-0.223897	99
Es	-1.998921	0.476295	0.602816	99
Es	-1.239266	-0.139858	1.374396	99
Es	-3.052742	0.962541	1.010314	99
Es	1.750882	0.352256	-0.403227	99
Es	-1.274600	0.322171	0.773841	99
Es	-0.863223	-0.072058	0.091150	99
Es	-2.754397	1.078099	-0.157420	99
Es	0.700541	-0.686137	-0.103370	99
Es	-0.822623	-0.565401	-0.399661	99
Es	2.071750	-1.334320	-1.330905	99
Es	-0.644743	-0.091276	-0.568667	99
Es	1.790270	-0.174558	-0.990995	99
Es	-2.718370	0.629870	0.433569	99
Es	0.828684	-1.160799	0.448478	99
Es	1.527493	1.006234	-0.625506	99
Es	-3.084273	0.004659	0.271169	99
Es	2.477392	0.304384	0.109794	99
Es	1.046967	-0.910146	-0.766524	99
Es	2.837571	0.438485	0.697243	99
45
Properties=species:S:1:pos:R:3:Z:I:1 energy=-344.9479849866962 field_type=dipole dipole="0.000000 0.000000 0.000000" charge=0
C	-2.718394	0.629869	0.433549	6
C	-1.274664	0.322269	0.774029	6
O	-0.666835	-0.306451	-0.353351	8
C	0.700645	-0.686251	-0.103191	6
C	1.559596	-0.809831	-1.330851	6
C	1.750735	0.352439	-0.403331	6
O	2.923096	0.331649	0.426189	8
H	-3.221174	1.118999	1.273399	1
H	-3.259835	-0.288621	0.184219	1
H	-2.777725	1.283199	-0.443161	1
H	-1.227684	-0.348271	1.638469	1
H	-0.738884	1.248479	1.008809	1
H	0.889465	-1.393011	0.698069	1
H	1.097395	-0.616111	-2.292231	1
H	2.308206	-1.591521	-1.352571	1
H	1.407066	1.323019	-0.746611	1
H	3.248995	-0.569851	0.588569	1
Es	-1.239288	-0.139855	1.374331	99
Es	1.527513	1.006136	-0.625467	99
Es	3.067939	-0.166355	0.494166	99
Es	-2.718370	0.629873	0.433564	99
Es	-2.754400	1.078119	-0.157363	99
Es	-0.904729	0.960919	0.940450	99
Es	-0.666664	-0.306364	-0.353039	99
Es	-1.998916	0.476293	0.602816	99
Es	-0.144527	-0.442904	-0.223620	99
Es	0.700544	-0.686135	-0.103369	99
Es	-0.820989	-0.566003	-0.400472	99
Es	0.828678	-1.160777	0.448418	99
Es	-0.645416	-0.091920	-0.568059	99
Es	-3.084287	0.004705	0.271112	99
Es	2.071663	-1.334285	-1.330911	99
Es	1.247420	-0.678940	-1.971246	99
Es	2.478292	0.304053	0.108596	99
Es	-1.274600	0.322170	0.773839	99
Es	-0.865067	-0.072934	0.091070	99
Es	1.559550	-0.809761	-1.330692	99
Es	-3.052756	0.962512	1.010334	99
Es	1.790381	-0.174520	-0.991135	99
Es	2.836642	0.439327	0.696333	99
Es	1.168331	-0.071452	-0.083016	99
Es	1.750879	0.352267	-0.403229	99
Es	2.922943	0.331338	0.426031	99
Es	1.046966	-0.910150	-0.766526	99
Es	3.139926	0.465022	0.264768	99
45
Properties=species:S:1:pos:R:3:Z:I:1 energy=-344.9479849866962 field_type=dipole dipole="0.000000 0.000000 0.000000" charge=0
C	-2.718394	0.629869	0.433549	6
C	-1.274664	0.322269	0.774029	6
O	-0.666835	-0.306451	-0.353351	8
C	0.700645	-0.686251	-0.103191	6
C	1.559596	-0.809831	-1.330851	6
C	1.750735	0.352439	-0.403331	6
O	2.923096	0.331649	0.426189	8
H	-3.221174	1.118999	1.273399	1
H	-3.259835	-0.288621	0.184219	1
H	-2.777725	1.283199	-0.443161	1
H	-1.227684	-0.348271	1.638469	1
H	-0.738884	1.248479	1.008809	1
H	0.889465	-1.393011	0.698069	1
H	1.097395	-0.616111	-2.292231	1
H	2.308206	-1.591521	-1.352571	1
H	1.407066	1.323019	-0.746611	1
H	3.248995	-0.569851	0.588569	1
Es	1.790530	-0.174392	-0.991258	99
Es	1.750879	0.352253	-0.403227	99
Es	1.046886	-0.910288	-0.766572	99
Es	-1.239279	-0.139824	1.374353	99
Es	1.559548	-0.809762	-1.330693	99
Es	2.071589	-1.334199	-1.330962	99
Es	1.168218	-0.071560	-0.082970	99
Es	2.478218	0.304131	0.108665	99
Es	-0.144114	-0.442723	-0.224372	99
Es	-3.052747	0.962567	1.010265	99
Es	-0.864448	-0.071715	0.090992	99
Es	1.247525	-0.678970	-1.971182	99
Es	-0.904771	0.960945	0.940417	99
Es	-1.998879	0.476260	0.602858	99
Es	0.700536	-0.686146	-0.103379	99
Es	-1.274602	0.322172	0.773845	99
Es	-0.647567	-0.093641	-0.570859	99
Es	-2.754392	1.078071	-0.157390	99
Es	2.837203	0.440254	0.696331	99
Es	-3.084329	0.004698	0.271163	99
Es	-2.718369	0.629870	0.433569	99
Es	1.527524	1.006099	-0.625436	99
Es	3.139849	0.463996	0.264188	99
Es	3.067509	-0.166374	0.494638	99
Es	-0.666646	-0.306402	-0.353024	99
Es	0.828667	-1.160704	0.448422	99
Es	2.922968	0.331373	0.426094	99
Es	-0.819850	-0.565612	-0.396791	99
45
Properties=species:S:1:pos:R:3:Z:I:1 energy=-344.9479849866962 field_type=dipole dipole="0.000000 0.000000 0.000000" charge=0
C	-2.718394	0.629869	0.433549	6
C	-1.274664	0.322269	0.774029	6
O	-0.666835	-0.306451	-0.353351	8
C	0.700645	-0.686251	-0.103191	6
C	1.559596	-0.809831	-1.330851	6
C	1.750735	0.352439	-0.403331	6
O	2.923096	0.331649	0.426189	8
H	-3.221174	1.118999	1.273399	1
H	-3.259835	-0.288621	0.184219	1
H	-2.777725	1.283199	-0.443161	1
H	-1.227684	-0.348271	1.638469	1
H	-0.738884	1.248479	1.008809	1
H	0.889465	-1.393011	0.698069	1
H	1.097395	-0.616111	-2.292231	1
H	2.308206	-1.591521	-1.352571	1
H	1.407066	1.323019	-0.746611	1
H	3.248995	-0.569851	0.588569	1
Es	1.559555	-0.809753	-1.330687	99
Es	1.247480	-0.678876	-1.971087	99
Es	1.750875	0.352247	-0.403229	99
Es	2.837534	0.440556	0.696629	99
Es	3.139303	0.463484	0.264609	99
Es	-1.274602	0.322172	0.773843	99
Es	-1.239237	-0.139743	1.374373	99
Es	3.067842	-0.166333	0.494347	99
Es	-0.144681	-0.444210	-0.223766	99
Es	0.700543	-0.686139	-0.103373	99
Es	-2.754391	1.078058	-0.157351	99
Es	1.527626	1.005962	-0.625443	99
Es	1.168249	-0.071226	-0.082895	99
Es	0.828655	-1.160551	0.448380	99
Es	-0.904765	0.960869	0.940378	99
Es	-0.645473	-0.092341	-0.568794	99
Es	1.790511	-0.174470	-0.991243	99
Es	-2.718371	0.629870	0.433569	99
Es	-3.052742	0.962583	1.010243	99
Es	-1.998918	0.476300	0.602862	99
Es	-0.820974	-0.564864	-0.399671	99
Es	-0.666671	-0.306387	-0.353054	99
Es	2.922911	0.331331	0.426068	99
Es	2.071560	-1.334230	-1.331109	99
Es	-3.084364	0.004703	0.271144	99
Es	1.046864	-0.910586	-0.766535	99
Es	-0.864839	-0.072413	0.091222	99
Es	2.478177	0.304366	0.108256	99
45
Properties=species:S:1:pos:R:3:Z:I:1 energy=-344.9479849866962 field_type=dipole dipole="0.000000 0.000000 0.000000" charge=0
C	-2.718394	0.629869	0.433549	6
C	-1.274664	0.322269	0.774029	6
O	-0.666835	-0.306451	-0.353351	8
C	0.700645	-0.686251	-0.103191	6
C	1.559596	-0.809831	-1.330851	6
C	1.750735	0.352439	-0.403331	6
O	2.923096	0.331649	0.426189	8
H	-3.221174	1.118999	1.273399	1
H	-3.259835	-0.288621	0.184219	1
H	-2.777725	1.283199	-0.443161	1
H	-1.227684	-0.348271	1.638469	1
H	-0.738884	1.248479	1.008809	1
H	0.889465	-1.393011	0.698069	1
H	1.097395	-0.616111	-2.292231	1
H	2.308206	-1.591521	-1.352571	1
H	1.407066	1.323019	-0.746611	1
H	3.248995	-0.569851	0.588569	1
Es	1.527610	1.005930	-0.625391	99
Es	2.838414	0.441452	0.696722	99
Es	-2.718372	0.629869	0.433570	99
Es	-1.998906	0.476315	0.602829	99
Es	2.071590	-1.334048	-1.331134	99
Es	-0.666664	-0.306359	-0.353008	99
Es	1.247518	-0.679011	-1.971036	99
Es	3.138793	0.462832	0.263474	99
Es	-1.274601	0.322172	0.773842	99
Es	2.477671	0.304087	0.109120	99
Es	-0.904784	0.960847	0.940417	99
Es	-0.645303	-0.092747	-0.568659	99
Es	2.922949	0.331344	0.426097	99
Es	1.559550	-0.809765	-1.330695	99
Es	1.790580	-0.174308	-0.991402	99
Es	-0.821186	-0.564543	-0.399714	99
Es	1.168218	-0.071303	-0.082763	99
Es	-0.864799	-0.071894	0.091099	99
Es	-1.239210	-0.139739	1.374333	99
Es	0.828623	-1.160616	0.448252	99
Es	-2.754492	1.078046	-0.157377	99
Es	-3.084312	0.004723	0.271194	99
Es	3.067922	-0.166297	0.494521	99
Es	-3.052739	0.962549	1.010272	99
Es	-0.144669	-0.444610	-0.223766	99
Es	1.750877	0.352250	-0.403230	99
Es	1.046838	-0.910656	-0.766513	99
Es	0.700541	-0.686145	-0.103371	99
