41
Properties=species:S:1:pos:R:3:Z:I:1 energy=-306.7628478521273 field_type=dipole dipole="0.000000 0.000000 0.000000" charge=0
C	-2.214461	-1.843856	0.186418	6
C	-1.026241	-1.359986	-0.180492	6
O	-0.617331	-0.095726	0.166518	8
C	0.488389	0.479514	-0.440852	6
C	0.770269	0.357264	-1.747992	6
C	1.291299	1.327264	0.421318	6
C	1.101169	1.504744	1.736628	6
H	-2.515081	-2.849266	-0.085132	1
H	-2.906171	-1.239356	0.763438	1
H	-0.305001	-1.937106	-0.742672	1
H	0.138829	-0.223066	-2.411692	1
H	1.624859	0.852154	-2.197792	1
H	2.116309	1.859564	-0.048822	1
H	0.301819	1.006564	2.276278	1
H	1.751349	2.161294	2.304848	1
Es	-0.617019	-0.095985	0.166274	99
Es	1.347133	0.689085	-2.045547	99
Es	1.844902	1.679563	0.088993	99
Es	1.291293	1.327227	0.421196	99
Es	0.878973	0.895061	0.001760	99
Es	-0.739008	-0.567545	-0.009625	99
Es	0.991634	1.649598	0.991382	99
Es	1.383662	1.154087	1.117832	99
Es	-0.183329	0.068408	-0.084024	99
Es	0.346804	-0.038978	-2.194420	99
Es	0.468966	0.680872	-1.178244	99
Es	-1.026046	-1.359683	-0.180462	99
Es	-1.780415	-1.511001	-0.278262	99
Es	0.833862	0.153412	-1.035345	99
Es	-2.214514	-1.843883	0.186434	99
Es	1.101165	1.504762	1.736710	99
Es	0.568847	1.175012	2.105339	99
Es	1.539530	1.948577	2.123889	99
Es	-2.413929	-2.520763	0.005617	99
Es	-2.682836	-1.441089	0.573295	99
Es	-0.533827	-1.742780	-0.562898	99
Es	-0.816195	0.076935	0.075334	99
Es	-0.560006	-0.135521	0.448689	99
Es	-1.512098	-1.731419	0.284774	99
Es	0.488143	0.479432	-0.440610	99
Es	0.770292	0.357234	-1.748053	99
41
Properties=species:S:1:pos:R:3:Z:I:1 energy=-306.7628478521273 field_type=dipole dipole="0.000000 0.000000 0.000000" charge=0
C	-2.214461	-1.843856	0.186418	6
C	-1.026241	-1.359986	-0.180492	6
O	-0.617331	-0.095726	0.166518	8
C	0.488389	0.479514	-0.440852	6
C	0.770269	0.357264	-1.747992	6
C	1.291299	1.327264	0.421318	6
C	1.101169	1.504744	1.736628	6
H	-2.515081	-2.849266	-0.085132	1
H	-2.906171	-1.239356	0.763438	1
H	-0.305001	-1.937106	-0.742672	1
H	0.138829	-0.223066	-2.411692	1
H	1.624859	0.852154	-2.197792	1
H	2.116309	1.859564	-0.048822	1
H	0.301819	1.006564	2.276278	1
H	1.751349	2.161294	2.304848	1
Es	-1.026043	-1.359680	-0.180460	99
Es	-0.815651	0.075702	0.074840	99
Es	1.347143	0.689128	-2.045576	99
Es	-0.183720	0.068931	-0.084617	99
Es	1.383663	1.154016	1.117761	99
Es	-0.560213	-0.134500	0.449423	99
Es	0.833913	0.153407	-1.035369	99
Es	1.844858	1.679701	0.088955	99
Es	1.291292	1.327228	0.421196	99
Es	-2.214522	-1.843878	0.186422	99
Es	-2.413933	-2.520736	0.005678	99
Es	1.101166	1.504762	1.736709	99
Es	0.568816	1.175006	2.105346	99
Es	-0.533747	-1.742892	-0.562945	99
Es	0.878863	0.895196	0.001736	99
Es	0.346759	-0.038947	-2.194401	99
Es	-1.780433	-1.510966	-0.278244	99
Es	-0.738932	-0.567876	-0.009252	99
Es	0.991752	1.649384	0.991514	99
Es	-1.512131	-1.731306	0.284710	99
Es	0.488157	0.479419	-0.440609	99
Es	-2.682767	-1.441179	0.573384	99
Es	-0.617139	-0.095926	0.166213	99
Es	0.770294	0.357229	-1.748049	99
Es	1.539565	1.948624	2.123872	99
Es	0.468974	0.680770	-1.178210	99
41
Properties=species:S:1:pos:R:3:Z:I:1 energy=-306.7628478521273 field_type=dipole dipole="0.000000 0.000000 0.000000" charge=0
C	-2.214461	-1.843856	0.186418	6
C	-1.026241	-1.359986	-0.180492	6
O	-0.617331	-0.095726	0.166518	8
C	0.488389	0.479514	-0.440852	6
C	0.770269	0.357264	-1.747992	6
C	1.291299	1.327264	0.421318	6
C	1.101169	1.504744	1.736628	6
H	-2.515081	-2.849266	-0.085132	1
H	-2.906171	-1.239356	0.763438	1
H	-0.305001	-1.937106	-0.742672	1
H	0.138829	-0.223066	-2.411692	1
H	1.624859	0.852154	-2.197792	1
H	2.116309	1.859564	-0.048822	1
H	0.301819	1.006564	2.276278	1
H	1.751349	2.161294	2.304848	1
Es	0.833845	0.153484	-1.035393	99
Es	0.469033	0.680773	-1.178209	99
Es	-0.617102	-0.095950	0.166222	99
Es	-1.026047	-1.359684	-0.180462	99
Es	0.770296	0.357224	-1.748047	99
Es	0.878920	0.895140	0.001757	99
Es	-2.214511	-1.843884	0.186438	99
Es	0.346726	-0.038966	-2.194378	99
Es	1.844898	1.679636	0.088947	99
Es	-2.413969	-2.520702	0.005555	99
Es	0.568849	1.174978	2.105339	99
Es	1.383613	1.154106	1.117848	99
Es	-0.739725	-0.567192	-0.010750	99
Es	-0.533818	-1.742884	-0.563034	99
Es	1.291292	1.327229	0.421202	99
Es	-2.682814	-1.441171	0.573304	99
Es	-0.183935	0.069386	-0.084655	99
Es	-0.816877	0.077956	0.078554	99
Es	1.101163	1.504763	1.736704	99
Es	-0.558012	-0.137847	0.447217	99
Es	0.488159	0.479423	-0.440613	99
Es	1.347180	0.689060	-2.045586	99
Es	1.539583	1.948564	2.123899	99
Es	0.991689	1.649496	0.991386	99
Es	-1.512172	-1.731472	0.284868	99
Es	-1.780278	-1.510848	-0.278088	99
41
Properties=species:S:1:pos:R:3:Z:I:1 energy=-306.7628478521273 field_type=dipole dipole="0.000000 0.000000 0.000000" charge=0
C	-2.214461	-1.843856	0.186418	6
C	-1.026241	-1.359986	-0.180492	6
O	-0.617331	-0.095726	0.166518	8
C	0.488389	0.479514	-0.440852	6
C	0.770269	0.357264	-1.747992	6
C	1.291299	1.327264	0.421318	6
C	1.101169	1.504744	1.736628	6
H	-2.515081	-2.849266	-0.085132	1
H	-2.906171	-1.239356	0.763438	1
H	-0.305001	-1.937106	-0.742672	1
H	0.138829	-0.223066	-2.411692	1
H	1.624859	0.852154	-2.197792	1
H	2.116309	1.859564	-0.048822	1
H	0.301819	1.006564	2.276278	1
H	1.751349	2.161294	2.304848	1
Es	-2.682802	-1.441165	0.573328	99
Es	1.291292	1.327228	0.421199	99
Es	0.346802	-0.038975	-2.194400	99
Es	0.833782	0.153548	-1.035393	99
Es	-1.512183	-1.731496	0.284798	99
Es	-0.617062	-0.095962	0.166237	99
Es	0.878984	0.895169	0.001743	99
Es	0.469037	0.680719	-1.178205	99
Es	1.844908	1.679644	0.088935	99
Es	-1.780241	-1.510888	-0.278107	99
Es	0.568833	1.174997	2.105413	99
Es	-0.183112	0.068233	-0.082973	99
Es	1.101164	1.504763	1.736706	99
Es	-1.026044	-1.359684	-0.180458	99
Es	-2.214512	-1.843883	0.186436	99
Es	-0.533835	-1.742890	-0.563058	99
Es	-0.814223	0.076241	0.074032	99
Es	1.383546	1.154120	1.117851	99
Es	1.539645	1.948554	2.123826	99
Es	-0.739765	-0.567667	-0.010578	99
Es	0.488156	0.479420	-0.440609	99
Es	-0.561576	-0.134480	0.449883	99
Es	0.770293	0.357230	-1.748049	99
Es	1.347189	0.689068	-2.045554	99
Es	-2.413956	-2.520695	0.005639	99
Es	0.991662	1.649470	0.991384	99
41
Properties=species:S:1:pos:R:3:Z:I:1 energy=-306.7628478521273 field_type=dipole dipole="0.000000 0.000000 0.000000" charge=0
C	-2.214461	-1.843856	0.186418	6
C	-1.026241	-1.359986	-0.180492	6
O	-0.617331	-0.095726	0.166518	8
C	0.488389	0.479514	-0.440852	6
C	0.770269	0.357264	-1.747992	6
C	1.291299	1.327264	0.421318	6
C	1.101169	1.504744	1.736628	6
H	-2.515081	-2.849266	-0.085132	1
H	-2.906171	-1.239356	0.763438	1
H	-0.305001	-1.937106	-0.742672	1
H	0.138829	-0.223066	-2.411692	1
H	1.624859	0.852154	-2.197792	1
H	2.116309	1.859564	-0.048822	1
H	0.301819	1.006564	2.276278	1
H	1.751349	2.161294	2.304848	1
Es	0.469047	0.680690	-1.178213	99
Es	0.879032	0.895166	0.001755	99
Es	-1.780229	-1.510878	-0.278042	99
Es	-2.682803	-1.441165	0.573283	99
Es	-2.214511	-1.843883	0.186436	99
Es	0.770293	0.357230	-1.748048	99
Es	-0.563726	-0.131452	0.450472	99
Es	-0.182544	0.068556	-0.083309	99
Es	1.101164	1.504763	1.736705	99
Es	-2.413975	-2.520689	0.005632	99
Es	1.539631	1.948564	2.123859	99
Es	-0.616970	-0.095999	0.166290	99
Es	-1.026047	-1.359684	-0.180461	99
Es	0.833705	0.153589	-1.035413	99
Es	1.844916	1.679653	0.088930	99
Es	0.346789	-0.038973	-2.194403	99
Es	-0.533852	-1.742935	-0.563087	99
Es	1.383544	1.154148	1.117846	99
Es	0.488156	0.479420	-0.440610	99
Es	1.347200	0.689072	-2.045548	99
Es	-1.512177	-1.731478	0.284809	99
Es	-0.738711	-0.568524	-0.008478	99
Es	1.291292	1.327228	0.421199	99
Es	0.991693	1.649445	0.991402	99
Es	-0.813741	0.073785	0.071650	99
Es	0.568809	1.174967	2.105373	99
41
Properties=species:S:1:pos:R:3:Z:I:1 energy=-306.7628478521273 field_type=dipole dipole="0.000000 0.000000 0.000000" charge=0
C	-2.214461	-1.843856	0.186418	6
C	-1.026241	-1.359986	-0.180492	6
O	-0.617331	-0.095726	0.166518	8
C	0.488389	0.479514	-0.440852	6
C	0.770269	0.357264	-1.747992	6
C	1.291299	1.327264	0.421318	6
C	1.101169	1.504744	1.736628	6
H	-2.515081	-2.849266	-0.085132	1
H	-2.906171	-1.239356	0.763438	1
H	-0.305001	-1.937106	-0.742672	1
H	0.138829	-0.223066	-2.411692	1
H	1.624859	0.852154	-2.197792	1
H	2.116309	1.859564	-0.048822	1
H	0.301819	1.006564	2.276278	1
H	1.751349	2.161294	2.304848	1
Es	0.346802	-0.038905	-2.194451	99
Es	0.568780	1.174971	2.105372	99
Es	-0.560038	-0.135691	0.447165	99
Es	-1.512230	-1.731468	0.284743	99
Es	-2.413943	-2.520681	0.005675	99
Es	0.991735	1.649408	0.991441	99
Es	0.488157	0.479421	-0.440611	99
Es	1.844931	1.679662	0.088922	99
Es	-1.026047	-1.359685	-0.180461	99
Es	-0.533875	-1.742968	-0.563117	99
Es	0.469009	0.680438	-1.178152	99
Es	1.383536	1.154137	1.117823	99
Es	-0.183015	0.068879	-0.083670	99
Es	0.770300	0.357220	-1.748040	99
Es	-0.816866	0.077144	0.075989	99
Es	-0.738703	-0.567982	-0.009120	99
Es	1.291292	1.327229	0.421200	99
Es	0.833692	0.153609	-1.035492	99
Es	-0.617079	-0.095951	0.166257	99
Es	1.539628	1.948579	2.123849	99
Es	-2.682801	-1.441190	0.573331	99
Es	1.101164	1.504762	1.736705	99
Es	0.879049	0.895201	0.001767	99
Es	-1.780204	-1.510863	-0.278034	99
Es	-2.214509	-1.843883	0.186435	99
Es	1.347224	0.689223	-2.045500	99
41
Properties=species:S:1:pos:R:3:Z:I:1 energy=-306.7628478521273 field_type=dipole dipole="0.000000 0.000000 0.000000" charge=0
C	-2.214461	-1.843856	0.186418	6
C	-1.026241	-1.359986	-0.180492	6
O	-0.617331	-0.095726	0.166518	8
C	0.488389	0.479514	-0.440852	6
C	0.770269	0.357264	-1.747992	6
C	1.291299	1.327264	0.421318	6
C	1.101169	1.504744	1.736628	6
H	-2.515081	-2.849266	-0.085132	1
H	-2.906171	-1.239356	0.763438	1
H	-0.305001	-1.937106	-0.742672	1
H	0.138829	-0.223066	-2.411692	1
H	1.624859	0.852154	-2.197792	1
H	2.116309	1.859564	-0.048822	1
H	0.301819	1.006564	2.276278	1
H	1.751349	2.161294	2.304848	1
Es	-0.739992	-0.567714	-0.009756	99
Es	-2.682809	-1.441214	0.573275	99
Es	-1.026045	-1.359681	-0.180461	99
Es	0.568785	1.174984	2.105413	99
Es	-2.413971	-2.520650	0.005648	99
Es	1.383616	1.154140	1.117835	99
Es	1.101164	1.504762	1.736706	99
Es	-2.214509	-1.843882	0.186436	99
Es	0.879058	0.895190	0.001718	99
Es	1.347170	0.689107	-2.045581	99
Es	-1.780065	-1.510789	-0.277943	99
Es	-1.512277	-1.731584	0.284807	99
Es	1.291287	1.327228	0.421208	99
Es	0.833663	0.153694	-1.035431	99
Es	1.539634	1.948596	2.123804	99
Es	1.844844	1.679672	0.088924	99
Es	-0.814706	0.075921	0.075560	99
Es	-0.617153	-0.095956	0.166227	99
Es	-0.561290	-0.134871	0.448287	99
Es	-0.533899	-1.742993	-0.563172	99
Es	0.991723	1.649410	0.991443	99
Es	0.346784	-0.039015	-2.194372	99
Es	-0.182596	0.069059	-0.083682	99
Es	0.469116	0.680558	-1.178208	99
Es	0.488157	0.479420	-0.440612	99
Es	0.770297	0.357225	-1.748047	99
41
Properties=species:S:1:pos:R:3:Z:I:1 energy=-306.7628478521273 field_type=dipole dipole="0.000000 0.000000 0.000000" charge=0
C	-2.214461	-1.843856	0.186418	6
C	-1.026241	-1.359986	-0.180492	6
O	-0.617331	-0.095726	0.166518	8
C	0.488389	0.479514	-0.440852	6
C	0.770269	0.357264	-1.747992	6
C	1.291299	1.327264	0.421318	6
C	1.101169	1.504744	1.736628	6
H	-2.515081	-2.849266	-0.085132	1
H	-2.906171	-1.239356	0.763438	1
H	-0.305001	-1.937106	-0.742672	1
H	0.138829	-0.223066	-2.411692	1
H	1.624859	0.852154	-2.197792	1
H	2.116309	1.859564	-0.048822	1
H	0.301819	1.006564	2.276278	1
H	1.751349	2.161294	2.304848	1
Es	-0.740052	-0.567882	-0.009624	99
Es	-2.214510	-1.843882	0.186436	99
Es	1.291292	1.327230	0.421201	99
Es	1.101164	1.504762	1.736705	99
Es	-0.814823	0.075736	0.076721	99
Es	1.347215	0.689051	-2.045576	99
Es	-2.682780	-1.441244	0.573346	99
Es	1.844922	1.679650	0.088883	99
Es	0.568811	1.175004	2.105464	99
Es	0.488161	0.479424	-0.440617	99
Es	-0.183639	0.069436	-0.084862	99
Es	0.770293	0.357230	-1.748047	99
Es	-1.780182	-1.510842	-0.277994	99
Es	0.469133	0.680565	-1.178220	99
Es	0.346800	-0.038995	-2.194363	99
Es	-1.512232	-1.731451	0.284714	99
Es	0.833524	0.153721	-1.035446	99
Es	-0.617233	-0.095916	0.166056	99
Es	1.539740	1.948624	2.123753	99
Es	-0.533897	-1.743013	-0.563146	99
Es	-1.026049	-1.359687	-0.180462	99
Es	-2.413947	-2.520671	0.005680	99
Es	-0.559982	-0.134940	0.448365	99
Es	0.991644	1.649352	0.991420	99
Es	0.879172	0.895219	0.001785	99
Es	1.383439	1.154137	1.117856	99
41
Properties=species:S:1:pos:R:3:Z:I:1 energy=-306.7628478521273 field_type=dipole dipole="0.000000 0.000000 0.000000" charge=0
C	-2.214461	-1.843856	0.186418	6
C	-1.026241	-1.359986	-0.180492	6
O	-0.617331	-0.095726	0.166518	8
C	0.488389	0.479514	-0.440852	6
C	0.770269	0.357264	-1.747992	6
C	1.291299	1.327264	0.421318	6
C	1.101169	1.504744	1.736628	6
H	-2.515081	-2.849266	-0.085132	1
H	-2.906171	-1.239356	0.763438	1
H	-0.305001	-1.937106	-0.742672	1
H	0.138829	-0.223066	-2.411692	1
H	1.624859	0.852154	-2.197792	1
H	2.116309	1.859564	-0.048822	1
H	0.301819	1.006564	2.276278	1
H	1.751349	2.161294	2.304848	1
Es	-2.413897	-2.520748	0.005821	99
Es	-0.564600	-0.130717	0.450344	99
Es	0.469083	0.680516	-1.178189	99
Es	0.568746	1.174944	2.105363	99
Es	1.844937	1.679637	0.088872	99
Es	-1.780170	-1.510917	-0.278022	99
Es	0.991781	1.649379	0.991439	99
Es	1.347171	0.689117	-2.045550	99
Es	0.833642	0.153587	-1.035434	99
Es	-0.182067	0.068626	-0.082966	99
Es	0.879089	0.895210	0.001758	99
Es	-0.617106	-0.095934	0.166232	99
Es	-1.026043	-1.359690	-0.180449	99
Es	1.101162	1.504765	1.736703	99
Es	-0.739021	-0.568768	-0.008302	99
Es	-2.682736	-1.441186	0.573437	99
Es	-2.214506	-1.843883	0.186435	99
Es	0.488159	0.479422	-0.440617	99
Es	-1.512357	-1.731257	0.284527	99
Es	0.346830	-0.038863	-2.194417	99
Es	0.770280	0.357245	-1.748049	99
Es	1.291291	1.327230	0.421200	99
Es	-0.812938	0.073259	0.071248	99
Es	1.539653	1.948594	2.123849	99
Es	-0.533897	-1.743155	-0.563059	99
Es	1.383498	1.154203	1.117853	99
