41
Properties=species:S:1:pos:R:3:Z:I:1 energy=-306.74112178796753 field_type=dipole dipole="0.000000 0.000000 0.000000" charge=0
C	-1.586778	-2.204815	0.617505	6
C	-1.981298	-0.939375	0.797585	6
O	-1.300588	0.218865	0.553325	8
C	0.020182	0.099985	0.016505	6
C	0.583102	1.503055	-0.193015	6
C	1.926432	1.461895	-0.787795	6
C	3.022352	1.428385	-1.278045	6
H	-2.258638	-3.021085	0.864265	1
H	-0.611388	-2.472915	0.230795	1
H	-2.964838	-0.698925	1.188625	1
H	-0.014548	-0.432535	-0.942515	1
H	0.658572	-0.455025	0.715755	1
H	0.609172	2.033955	0.766055	1
H	-0.095548	2.078495	-0.833995	1
H	3.993812	1.400035	-1.715055	1
Es	-0.811501	0.134794	0.352939	99
Es	3.022578	1.428376	-1.278145	99
Es	-1.981192	-0.939064	0.797555	99
Es	0.019957	0.100077	0.016598	99
Es	-0.003822	-0.264377	-0.636984	99
Es	-1.644854	-1.624467	1.008700	99
Es	-0.927518	-2.382720	0.355872	99
Es	0.455339	-0.279843	0.493203	99
Es	-1.277983	0.317107	0.827773	99
Es	0.619572	1.851659	0.443990	99
Es	-1.517728	-0.252969	0.623081	99
Es	2.599372	1.234781	-0.766172	99
Es	-1.300514	0.218732	0.553318	99
Es	-2.039138	-2.751822	0.783551	99
Es	0.145665	1.881049	-0.633071	99
Es	-1.472762	0.345609	0.351530	99
Es	1.926171	1.461907	-0.787680	99
Es	-2.646725	-0.776028	1.062173	99
Es	-1.887217	-1.611586	0.390365	99
Es	-1.586753	-2.204864	0.617494	99
Es	3.655814	1.409794	-1.562680	99
Es	0.583228	1.503005	-0.193071	99
Es	1.281826	1.473508	-0.501511	99
Es	2.348056	1.291633	-1.335281	99
Es	0.315333	0.810810	-0.094157	99
Es	2.501903	1.799314	-1.008066	99
41
Properties=species:S:1:pos:R:3:Z:I:1 energy=-306.74112178796753 field_type=dipole dipole="0.000000 0.000000 0.000000" charge=0
C	-1.586778	-2.204815	0.617505	6
C	-1.981298	-0.939375	0.797585	6
O	-1.300588	0.218865	0.553325	8
C	0.020182	0.099985	0.016505	6
C	0.583102	1.503055	-0.193015	6
C	1.926432	1.461895	-0.787795	6
C	3.022352	1.428385	-1.278045	6
H	-2.258638	-3.021085	0.864265	1
H	-0.611388	-2.472915	0.230795	1
H	-2.964838	-0.698925	1.188625	1
H	-0.014548	-0.432535	-0.942515	1
H	0.658572	-0.455025	0.715755	1
H	0.609172	2.033955	0.766055	1
H	-0.095548	2.078495	-0.833995	1
H	3.993812	1.400035	-1.715055	1
Es	3.655759	1.409862	-1.562653	99
Es	-1.887209	-1.611632	0.390252	99
Es	-1.981191	-0.939054	0.797550	99
Es	-0.003843	-0.264366	-0.636904	99
Es	2.349984	1.281173	-1.329779	99
Es	-1.279065	0.321111	0.825829	99
Es	-0.811064	0.134999	0.352862	99
Es	-1.472955	0.341855	0.350348	99
Es	0.019959	0.100078	0.016598	99
Es	0.619612	1.851699	0.444013	99
Es	-2.646765	-0.776041	1.062163	99
Es	-1.586753	-2.204862	0.617493	99
Es	2.496851	1.800887	-1.019365	99
Es	-1.644855	-1.624397	1.008522	99
Es	0.315342	0.810788	-0.094230	99
Es	-0.927533	-2.382754	0.356017	99
Es	0.583230	1.503005	-0.193069	99
Es	1.926172	1.461906	-0.787678	99
Es	-2.039097	-2.751827	0.783731	99
Es	3.022568	1.428374	-1.278142	99
Es	0.145769	1.881102	-0.633120	99
Es	-1.516936	-0.253271	0.626295	99
Es	0.455302	-0.279906	0.493166	99
Es	2.602513	1.243552	-0.760471	99
Es	-1.300467	0.218583	0.553276	99
Es	1.281776	1.473550	-0.501381	99
41
Properties=species:S:1:pos:R:3:Z:I:1 energy=-306.74112178796753 field_type=dipole dipole="0.000000 0.000000 0.000000" charge=0
C	-1.586778	-2.204815	0.617505	6
C	-1.981298	-0.939375	0.797585	6
O	-1.300588	0.218865	0.553325	8
C	0.020182	0.099985	0.016505	6
C	0.583102	1.503055	-0.193015	6
C	1.926432	1.461895	-0.787795	6
C	3.022352	1.428385	-1.278045	6
H	-2.258638	-3.021085	0.864265	1
H	-0.611388	-2.472915	0.230795	1
H	-2.964838	-0.698925	1.188625	1
H	-0.014548	-0.432535	-0.942515	1
H	0.658572	-0.455025	0.715755	1
H	0.609172	2.033955	0.766055	1
H	-0.095548	2.078495	-0.833995	1
H	3.993812	1.400035	-1.715055	1
Es	3.655743	1.409876	-1.562654	99
Es	-1.473203	0.343698	0.351520	99
Es	2.349385	1.284717	-1.331590	99
Es	2.498577	1.800682	-1.015486	99
Es	-1.278672	0.319131	0.825727	99
Es	-0.810938	0.135310	0.352603	99
Es	-1.586755	-2.204860	0.617494	99
Es	-1.981195	-0.939065	0.797550	99
Es	-1.887201	-1.611555	0.390366	99
Es	0.315448	0.810715	-0.094243	99
Es	0.145754	1.881076	-0.633136	99
Es	0.619635	1.851729	0.444043	99
Es	-1.300459	0.218493	0.553191	99
Es	-2.646841	-0.776123	1.062192	99
Es	1.926178	1.461898	-0.787670	99
Es	-0.003794	-0.264397	-0.636880	99
Es	0.583227	1.503005	-0.193070	99
Es	-1.644863	-1.624467	1.008372	99
Es	3.022563	1.428383	-1.278131	99
Es	-1.517276	-0.253287	0.625590	99
Es	-2.039049	-2.751782	0.783794	99
Es	1.281728	1.473564	-0.501374	99
Es	2.601386	1.240233	-0.762569	99
Es	0.455266	-0.279871	0.493134	99
Es	-0.927494	-2.382766	0.355948	99
Es	0.019955	0.100078	0.016601	99
41
Properties=species:S:1:pos:R:3:Z:I:1 energy=-306.74112178796753 field_type=dipole dipole="0.000000 0.000000 0.000000" charge=0
C	-1.586778	-2.204815	0.617505	6
C	-1.981298	-0.939375	0.797585	6
O	-1.300588	0.218865	0.553325	8
C	0.020182	0.099985	0.016505	6
C	0.583102	1.503055	-0.193015	6
C	1.926432	1.461895	-0.787795	6
C	3.022352	1.428385	-1.278045	6
H	-2.258638	-3.021085	0.864265	1
H	-0.611388	-2.472915	0.230795	1
H	-2.964838	-0.698925	1.188625	1
H	-0.014548	-0.432535	-0.942515	1
H	0.658572	-0.455025	0.715755	1
H	0.609172	2.033955	0.766055	1
H	-0.095548	2.078495	-0.833995	1
H	3.993812	1.400035	-1.715055	1
Es	3.022570	1.428373	-1.278139	99
Es	2.342604	1.350469	-1.354728	99
Es	0.583227	1.503007	-0.193070	99
Es	-1.586754	-2.204859	0.617494	99
Es	-0.810916	0.135370	0.352343	99
Es	3.655766	1.409838	-1.562516	99
Es	-1.644960	-1.624419	1.008400	99
Es	2.526863	1.788832	-0.952900	99
Es	1.281556	1.473655	-0.501435	99
Es	-1.279658	0.323618	0.824260	99
Es	-0.927485	-2.382754	0.356015	99
Es	0.455257	-0.279902	0.493098	99
Es	0.619743	1.851743	0.444004	99
Es	1.926175	1.461902	-0.787679	99
Es	2.579915	1.186288	-0.802040	99
Es	0.019960	0.100077	0.016597	99
Es	-1.300439	0.218503	0.553321	99
Es	-2.039049	-2.751789	0.783643	99
Es	0.145774	1.881145	-0.633155	99
Es	-1.981190	-0.939055	0.797555	99
Es	0.315460	0.810657	-0.094241	99
Es	-1.887155	-1.611612	0.390368	99
Es	-1.473683	0.339186	0.349707	99
Es	-0.003785	-0.264372	-0.636821	99
Es	-2.646843	-0.776133	1.062248	99
Es	-1.515847	-0.253354	0.628994	99
41
Properties=species:S:1:pos:R:3:Z:I:1 energy=-306.74112178796753 field_type=dipole dipole="0.000000 0.000000 0.000000" charge=0
C	-1.586778	-2.204815	0.617505	6
C	-1.981298	-0.939375	0.797585	6
O	-1.300588	0.218865	0.553325	8
C	0.020182	0.099985	0.016505	6
C	0.583102	1.503055	-0.193015	6
C	1.926432	1.461895	-0.787795	6
C	3.022352	1.428385	-1.278045	6
H	-2.258638	-3.021085	0.864265	1
H	-0.611388	-2.472915	0.230795	1
H	-2.964838	-0.698925	1.188625	1
H	-0.014548	-0.432535	-0.942515	1
H	0.658572	-0.455025	0.715755	1
H	0.609172	2.033955	0.766055	1
H	-0.095548	2.078495	-0.833995	1
H	3.993812	1.400035	-1.715055	1
Es	-1.586759	-2.204856	0.617481	99
Es	-1.644875	-1.624476	1.008357	99
Es	0.583226	1.503008	-0.193070	99
Es	-1.516316	-0.253306	0.627599	99
Es	3.655638	1.409864	-1.562742	99
Es	1.281503	1.473612	-0.501284	99
Es	-0.927594	-2.382778	0.356132	99
Es	0.315503	0.810579	-0.094248	99
Es	0.619802	1.851825	0.444058	99
Es	-1.281046	0.324040	0.824712	99
Es	-2.646884	-0.776137	1.062264	99
Es	-0.003789	-0.264368	-0.636814	99
Es	1.926174	1.461898	-0.787680	99
Es	-1.300449	0.218556	0.553282	99
Es	2.466379	1.797447	-1.087861	99
Es	2.619939	1.310423	-0.730484	99
Es	3.022561	1.428390	-1.278143	99
Es	-1.472543	0.338579	0.349199	99
Es	0.145820	1.881118	-0.633184	99
Es	2.363118	1.217755	-1.291259	99
Es	-2.039129	-2.751836	0.783624	99
Es	-1.887011	-1.611483	0.390340	99
Es	-1.981192	-0.939060	0.797555	99
Es	0.019964	0.100076	0.016596	99
Es	0.455256	-0.279892	0.493058	99
Es	-0.810191	0.135439	0.353836	99
41
Properties=species:S:1:pos:R:3:Z:I:1 energy=-306.74112178796753 field_type=dipole dipole="0.000000 0.000000 0.000000" charge=0
C	-1.586778	-2.204815	0.617505	6
C	-1.981298	-0.939375	0.797585	6
O	-1.300588	0.218865	0.553325	8
C	0.020182	0.099985	0.016505	6
C	0.583102	1.503055	-0.193015	6
C	1.926432	1.461895	-0.787795	6
C	3.022352	1.428385	-1.278045	6
H	-2.258638	-3.021085	0.864265	1
H	-0.611388	-2.472915	0.230795	1
H	-2.964838	-0.698925	1.188625	1
H	-0.014548	-0.432535	-0.942515	1
H	0.658572	-0.455025	0.715755	1
H	0.609172	2.033955	0.766055	1
H	-0.095548	2.078495	-0.833995	1
H	3.993812	1.400035	-1.715055	1
Es	0.583226	1.503013	-0.193066	99
Es	3.022575	1.428376	-1.278129	99
Es	-0.810432	0.135652	0.352566	99
Es	-1.300429	0.218494	0.553238	99
Es	0.019963	0.100076	0.016596	99
Es	-1.887042	-1.611527	0.390365	99
Es	-0.003802	-0.264307	-0.636751	99
Es	-0.927543	-2.382769	0.356118	99
Es	2.609991	1.267505	-0.747086	99
Es	-1.516639	-0.253466	0.628090	99
Es	0.145884	1.881197	-0.633378	99
Es	-2.039022	-2.751801	0.783610	99
Es	-1.644949	-1.624446	1.008360	99
Es	0.455270	-0.279955	0.492979	99
Es	-1.586754	-2.204862	0.617495	99
Es	1.281512	1.473417	-0.501079	99
Es	1.926176	1.461900	-0.787678	99
Es	-2.646937	-0.776210	1.062220	99
Es	3.655668	1.409784	-1.562581	99
Es	-1.280471	0.324023	0.824305	99
Es	-1.981193	-0.939063	0.797553	99
Es	0.315512	0.810580	-0.094228	99
Es	-1.472604	0.338619	0.350490	99
Es	0.619757	1.851827	0.443990	99
Es	2.485360	1.800943	-1.045117	99
Es	2.354030	1.257415	-1.317561	99
41
Properties=species:S:1:pos:R:3:Z:I:1 energy=-306.74112178796753 field_type=dipole dipole="0.000000 0.000000 0.000000" charge=0
C	-1.586778	-2.204815	0.617505	6
C	-1.981298	-0.939375	0.797585	6
O	-1.300588	0.218865	0.553325	8
C	0.020182	0.099985	0.016505	6
C	0.583102	1.503055	-0.193015	6
C	1.926432	1.461895	-0.787795	6
C	3.022352	1.428385	-1.278045	6
H	-2.258638	-3.021085	0.864265	1
H	-0.611388	-2.472915	0.230795	1
H	-2.964838	-0.698925	1.188625	1
H	-0.014548	-0.432535	-0.942515	1
H	0.658572	-0.455025	0.715755	1
H	0.609172	2.033955	0.766055	1
H	-0.095548	2.078495	-0.833995	1
H	3.993812	1.400035	-1.715055	1
Es	1.926176	1.461900	-0.787684	99
Es	2.356497	1.244715	-1.310162	99
Es	1.281490	1.473523	-0.500945	99
Es	-0.810561	0.135807	0.351757	99
Es	3.022565	1.428363	-1.278138	99
Es	-1.300419	0.218510	0.553259	99
Es	-1.886883	-1.611381	0.390751	99
Es	-1.586750	-2.204857	0.617504	99
Es	-2.647076	-0.776211	1.062091	99
Es	-0.003783	-0.264400	-0.636647	99
Es	2.479784	1.800930	-1.057652	99
Es	0.145995	1.881136	-0.633442	99
Es	0.315549	0.810506	-0.094209	99
Es	-1.644927	-1.624595	1.008353	99
Es	2.613074	1.280050	-0.742008	99
Es	0.619766	1.851999	0.443921	99
Es	-2.039094	-2.751828	0.783566	99
Es	-1.279362	0.320270	0.825357	99
Es	-1.517882	-0.253394	0.625467	99
Es	3.655646	1.409871	-1.562598	99
Es	-1.981193	-0.939064	0.797553	99
Es	0.455188	-0.279944	0.492985	99
Es	0.583227	1.503006	-0.193070	99
Es	0.019963	0.100077	0.016596	99
Es	-1.472327	0.342152	0.352785	99
Es	-0.927557	-2.382726	0.355933	99
