40
Properties=species:S:1:pos:R:3:Z:I:1 energy=-269.7039430828988 field_type=dipole dipole="0.000000 0.000000 0.000000" charge=0
C	-3.008803	-0.211167	0.324045	6
C	-1.564803	-0.211167	0.324045	6
C	-0.374644	-0.211167	0.324045	6
C	1.069356	-0.211167	0.324045	6
C	1.609076	-0.975577	-0.881765	6
C	1.551376	1.150003	0.324045	6
C	1.948657	2.271903	0.324045	6
H	-3.402773	0.809723	0.335695	1
H	-3.402864	-0.731697	1.202285	1
H	-3.402783	-0.711467	-0.565915	1
H	1.427006	-0.717297	1.229645	1
H	1.287867	-0.522927	-1.829875	1
H	1.258996	-2.014897	-0.878405	1
H	2.705697	-0.991477	-0.879825	1
H	2.298636	3.278373	0.323885	1
Es	-0.962308	-0.020124	0.015781	99
Es	-0.965651	-0.045380	0.644357	99
Es	1.309634	0.489993	0.323500	99
Es	2.097517	1.598237	0.335148	99
Es	-2.265021	-0.211417	0.323861	99
Es	1.948744	2.272142	0.324037	99
Es	1.069296	-0.211068	0.324012	99
Es	2.178143	2.929354	0.323711	99
Es	-3.256317	-0.560185	0.912229	99
Es	-3.256117	0.472003	0.331780	99
Es	1.551284	1.149722	0.324048	99
Es	1.299607	-0.533030	0.926026	99
Es	2.352608	-0.982671	-0.870365	99
Es	1.577047	1.783982	0.627562	99
Es	-0.374357	-0.211162	0.324051	99
Es	-3.008694	-0.211167	0.324046	99
Es	1.368282	-1.678490	-0.868908	99
Es	-0.961559	-0.578557	0.308750	99
Es	-3.256261	-0.546546	-0.272166	99
Es	-1.565079	-0.211169	0.324033	99
Es	1.323535	-0.567627	-0.268110	99
Es	1.595579	1.774024	0.006220	99
Es	1.388033	-0.663996	-1.516835	99
Es	0.332721	-0.200901	0.323716	99
Es	1.609056	-0.975547	-0.881708	99
40
Properties=species:S:1:pos:R:3:Z:I:1 energy=-269.7039430828988 field_type=dipole dipole="0.000000 0.000000 0.000000" charge=0
C	-3.008803	-0.211167	0.324045	6
C	-1.564803	-0.211167	0.324045	6
C	-0.374644	-0.211167	0.324045	6
C	1.069356	-0.211167	0.324045	6
C	1.609076	-0.975577	-0.881765	6
C	1.551376	1.150003	0.324045	6
C	1.948657	2.271903	0.324045	6
H	-3.402773	0.809723	0.335695	1
H	-3.402864	-0.731697	1.202285	1
H	-3.402783	-0.711467	-0.565915	1
H	1.427006	-0.717297	1.229645	1
H	1.287867	-0.522927	-1.829875	1
H	1.258996	-2.014897	-0.878405	1
H	2.705697	-0.991477	-0.879825	1
H	2.298636	3.278373	0.323885	1
Es	1.309649	0.490044	0.323491	99
Es	-0.962314	-0.062151	-0.007140	99
Es	1.388043	-0.664056	-1.516901	99
Es	1.299457	-0.533036	0.926034	99
Es	1.069296	-0.211067	0.324012	99
Es	-3.008692	-0.211169	0.324044	99
Es	2.178151	2.929284	0.323773	99
Es	1.634367	1.760275	-0.013231	99
Es	-3.256018	0.472002	0.331817	99
Es	1.368353	-1.678401	-0.868916	99
Es	1.609054	-0.975545	-0.881706	99
Es	1.948744	2.272138	0.324041	99
Es	-1.565078	-0.211171	0.324041	99
Es	-2.265207	-0.211349	0.323732	99
Es	-0.965675	-0.004733	0.619308	99
Es	1.323515	-0.567694	-0.268047	99
Es	-3.256387	-0.546631	-0.272238	99
Es	-3.256128	-0.560158	0.912417	99
Es	2.092712	1.599904	0.380197	99
Es	-0.961498	-0.577190	0.356681	99
Es	-0.374356	-0.211164	0.324043	99
Es	2.352586	-0.982727	-0.870364	99
Es	1.543109	1.796097	0.601958	99
Es	0.332764	-0.200813	0.323682	99
Es	1.551276	1.149733	0.324047	99
40
Properties=species:S:1:pos:R:3:Z:I:1 energy=-269.7039430828988 field_type=dipole dipole="0.000000 0.000000 0.000000" charge=0
C	-3.008803	-0.211167	0.324045	6
C	-1.564803	-0.211167	0.324045	6
C	-0.374644	-0.211167	0.324045	6
C	1.069356	-0.211167	0.324045	6
C	1.609076	-0.975577	-0.881765	6
C	1.551376	1.150003	0.324045	6
C	1.948657	2.271903	0.324045	6
H	-3.402773	0.809723	0.335695	1
H	-3.402864	-0.731697	1.202285	1
H	-3.402783	-0.711467	-0.565915	1
H	1.427006	-0.717297	1.229645	1
H	1.287867	-0.522927	-1.829875	1
H	1.258996	-2.014897	-0.878405	1
H	2.705697	-0.991477	-0.879825	1
H	2.298636	3.278373	0.323885	1
Es	-3.256032	0.472135	0.331777	99
Es	-0.965626	-0.063033	0.653265	99
Es	1.309485	0.489977	0.323392	99
Es	1.299550	-0.532979	0.926223	99
Es	2.352537	-0.982778	-0.870392	99
Es	2.178061	2.929322	0.323725	99
Es	-0.961603	-0.577428	0.287709	99
Es	1.570530	1.786252	0.623839	99
Es	-3.256425	-0.546797	-0.272183	99
Es	-0.374354	-0.211160	0.324053	99
Es	1.368297	-1.678424	-0.868901	99
Es	2.096378	1.598691	0.343989	99
Es	1.551284	1.149739	0.324046	99
Es	1.603348	1.771233	0.001173	99
Es	1.069296	-0.211067	0.324012	99
Es	1.323534	-0.567609	-0.268214	99
Es	-3.255970	-0.560081	0.912460	99
Es	0.332837	-0.200777	0.323790	99
Es	1.609054	-0.975544	-0.881705	99
Es	1.388110	-0.664078	-1.516891	99
Es	-2.265249	-0.211458	0.323665	99
Es	1.948745	2.272144	0.324041	99
Es	-1.565073	-0.211176	0.324043	99
Es	-0.962300	-0.003514	0.027814	99
Es	-3.008693	-0.211168	0.324045	99
40
Properties=species:S:1:pos:R:3:Z:I:1 energy=-269.7039430828988 field_type=dipole dipole="0.000000 0.000000 0.000000" charge=0
C	-3.008803	-0.211167	0.324045	6
C	-1.564803	-0.211167	0.324045	6
C	-0.374644	-0.211167	0.324045	6
C	1.069356	-0.211167	0.324045	6
C	1.609076	-0.975577	-0.881765	6
C	1.551376	1.150003	0.324045	6
C	1.948657	2.271903	0.324045	6
H	-3.402773	0.809723	0.335695	1
H	-3.402864	-0.731697	1.202285	1
H	-3.402783	-0.711467	-0.565915	1
H	1.427006	-0.717297	1.229645	1
H	1.287867	-0.522927	-1.829875	1
H	1.258996	-2.014897	-0.878405	1
H	2.705697	-0.991477	-0.879825	1
H	2.298636	3.278373	0.323885	1
Es	1.551280	1.149730	0.324045	99
Es	1.948747	2.272145	0.324041	99
Es	-3.256269	-0.546895	-0.272200	99
Es	-3.255982	0.472135	0.331566	99
Es	2.178149	2.929226	0.323705	99
Es	1.069296	-0.211067	0.324011	99
Es	-1.565075	-0.211171	0.324040	99
Es	-0.962317	-0.067935	-0.009619	99
Es	-3.008694	-0.211168	0.324045	99
Es	1.595736	1.773987	0.005473	99
Es	1.609053	-0.975543	-0.881706	99
Es	2.352480	-0.982755	-0.870400	99
Es	1.299514	-0.532972	0.926231	99
Es	-0.965678	0.000535	0.615395	99
Es	-0.374366	-0.211166	0.324046	99
Es	0.332882	-0.200692	0.323717	99
Es	1.309297	0.489923	0.323582	99
Es	2.097159	1.598385	0.335280	99
Es	1.388119	-0.664053	-1.516894	99
Es	-3.256089	-0.560013	0.912584	99
Es	1.323631	-0.567621	-0.268309	99
Es	1.368366	-1.678435	-0.868958	99
Es	1.577354	1.783889	0.628223	99
Es	-0.961509	-0.576710	0.363133	99
Es	-2.265362	-0.211336	0.323745	99
40
Properties=species:S:1:pos:R:3:Z:I:1 energy=-269.7039430828988 field_type=dipole dipole="0.000000 0.000000 0.000000" charge=0
C	-3.008803	-0.211167	0.324045	6
C	-1.564803	-0.211167	0.324045	6
C	-0.374644	-0.211167	0.324045	6
C	1.069356	-0.211167	0.324045	6
C	1.609076	-0.975577	-0.881765	6
C	1.551376	1.150003	0.324045	6
C	1.948657	2.271903	0.324045	6
H	-3.402773	0.809723	0.335695	1
H	-3.402864	-0.731697	1.202285	1
H	-3.402783	-0.711467	-0.565915	1
H	1.427006	-0.717297	1.229645	1
H	1.287867	-0.522927	-1.829875	1
H	1.258996	-2.014897	-0.878405	1
H	2.705697	-0.991477	-0.879825	1
H	2.298636	3.278373	0.323885	1
Es	-3.008694	-0.211169	0.324045	99
Es	2.352485	-0.982756	-0.870402	99
Es	1.299453	-0.533004	0.926287	99
Es	-3.255968	0.472187	0.331761	99
Es	1.571249	1.782714	0.020910	99
Es	-0.965642	0.018633	0.600680	99
Es	2.178080	2.929243	0.323721	99
Es	1.609055	-0.975546	-0.881707	99
Es	1.388158	-0.664123	-1.516893	99
Es	-1.565073	-0.211174	0.324048	99
Es	1.069297	-0.211068	0.324012	99
Es	1.602267	1.774932	0.643404	99
Es	1.948755	2.272138	0.324039	99
Es	1.323507	-0.567621	-0.268468	99
Es	-3.256246	-0.546760	-0.272316	99
Es	1.551282	1.149732	0.324047	99
Es	0.333016	-0.200589	0.323740	99
Es	-0.961515	-0.573168	0.386371	99
Es	1.309379	0.489858	0.323583	99
Es	2.096708	1.598625	0.304686	99
Es	-2.265459	-0.211358	0.323764	99
Es	-0.962354	-0.089520	-0.018143	99
Es	1.368376	-1.678425	-0.868955	99
Es	-3.256040	-0.560198	0.912516	99
Es	-0.374355	-0.211162	0.324046	99
40
Properties=species:S:1:pos:R:3:Z:I:1 energy=-269.7039430828988 field_type=dipole dipole="0.000000 0.000000 0.000000" charge=0
C	-3.008803	-0.211167	0.324045	6
C	-1.564803	-0.211167	0.324045	6
C	-0.374644	-0.211167	0.324045	6
C	1.069356	-0.211167	0.324045	6
C	1.609076	-0.975577	-0.881765	6
C	1.551376	1.150003	0.324045	6
C	1.948657	2.271903	0.324045	6
H	-3.402773	0.809723	0.335695	1
H	-3.402864	-0.731697	1.202285	1
H	-3.402783	-0.711467	-0.565915	1
H	1.427006	-0.717297	1.229645	1
H	1.287867	-0.522927	-1.829875	1
H	1.258996	-2.014897	-0.878405	1
H	2.705697	-0.991477	-0.879825	1
H	2.298636	3.278373	0.323885	1
Es	1.652987	1.753644	-0.020635	99
Es	1.609055	-0.975547	-0.881709	99
Es	-1.565075	-0.211174	0.324041	99
Es	-0.961623	-0.577423	0.286239	99
Es	0.333110	-0.200645	0.323984	99
Es	2.178104	2.929200	0.323610	99
Es	-0.965607	-0.064081	0.653584	99
Es	1.069296	-0.211068	0.324012	99
Es	1.948746	2.272137	0.324029	99
Es	-0.374357	-0.211161	0.324045	99
Es	2.352507	-0.982747	-0.870413	99
Es	1.309249	0.489814	0.323611	99
Es	-0.962280	-0.002508	0.028935	99
Es	1.551281	1.149727	0.324046	99
Es	-3.256202	-0.546768	-0.272405	99
Es	1.323531	-0.567680	-0.268639	99
Es	-3.008694	-0.211169	0.324045	99
Es	1.528324	1.801458	0.587397	99
Es	-2.265566	-0.211375	0.323815	99
Es	1.368389	-1.678409	-0.868984	99
Es	1.388179	-0.664181	-1.516862	99
Es	1.299431	-0.532878	0.926304	99
Es	-3.255999	-0.560256	0.912519	99
Es	2.088869	1.601247	0.402387	99
Es	-3.255934	0.472265	0.331815	99
40
Properties=species:S:1:pos:R:3:Z:I:1 energy=-269.7039430828988 field_type=dipole dipole="0.000000 0.000000 0.000000" charge=0
C	-3.008803	-0.211167	0.324045	6
C	-1.564803	-0.211167	0.324045	6
C	-0.374644	-0.211167	0.324045	6
C	1.069356	-0.211167	0.324045	6
C	1.609076	-0.975577	-0.881765	6
C	1.551376	1.150003	0.324045	6
C	1.948657	2.271903	0.324045	6
H	-3.402773	0.809723	0.335695	1
H	-3.402864	-0.731697	1.202285	1
H	-3.402783	-0.711467	-0.565915	1
H	1.427006	-0.717297	1.229645	1
H	1.287867	-0.522927	-1.829875	1
H	1.258996	-2.014897	-0.878405	1
H	2.705697	-0.991477	-0.879825	1
H	2.298636	3.278373	0.323885	1
Es	2.352472	-0.982668	-0.870446	99
Es	-1.565074	-0.211169	0.324043	99
Es	-0.962299	-0.043372	0.002439	99
Es	1.601281	1.772028	0.002177	99
Es	-3.255903	0.472306	0.331816	99
Es	1.323321	-0.567410	-0.268821	99
Es	1.948748	2.272144	0.324041	99
Es	2.096829	1.598540	0.342047	99
Es	1.609056	-0.975548	-0.881710	99
Es	-3.008695	-0.211169	0.324045	99
Es	1.551285	1.149733	0.324045	99
Es	0.333182	-0.200464	0.323925	99
Es	-0.965671	-0.022029	0.631190	99
Es	-3.255981	-0.560290	0.912559	99
Es	1.069294	-0.211067	0.324011	99
Es	-0.961520	-0.578725	0.335229	99
Es	-3.256173	-0.546770	-0.272434	99
Es	1.309101	0.489723	0.323576	99
Es	2.178096	2.929177	0.323749	99
Es	1.299636	-0.533076	0.926477	99
Es	1.572078	1.785754	0.624793	99
Es	-2.265636	-0.211343	0.323795	99
Es	-0.374358	-0.211165	0.324048	99
Es	1.388198	-0.664254	-1.516834	99
Es	1.368454	-1.678465	-0.868984	99
40
Properties=species:S:1:pos:R:3:Z:I:1 energy=-269.7039430828988 field_type=dipole dipole="0.000000 0.000000 0.000000" charge=0
C	-3.008803	-0.211167	0.324045	6
C	-1.564803	-0.211167	0.324045	6
C	-0.374644	-0.211167	0.324045	6
C	1.069356	-0.211167	0.324045	6
C	1.609076	-0.975577	-0.881765	6
C	1.551376	1.150003	0.324045	6
C	1.948657	2.271903	0.324045	6
H	-3.402773	0.809723	0.335695	1
H	-3.402864	-0.731697	1.202285	1
H	-3.402783	-0.711467	-0.565915	1
H	1.427006	-0.717297	1.229645	1
H	1.287867	-0.522927	-1.829875	1
H	1.258996	-2.014897	-0.878405	1
H	2.705697	-0.991477	-0.879825	1
H	2.298636	3.278373	0.323885	1
Es	1.609058	-0.975550	-0.881711	99
Es	1.299436	-0.532931	0.926570	99
Es	-3.256120	-0.546787	-0.272499	99
Es	2.097545	1.598308	0.312340	99
Es	1.577325	1.780582	0.017099	99
Es	1.948725	2.272154	0.324042	99
Es	2.178084	2.929158	0.323721	99
Es	1.368404	-1.678377	-0.869069	99
Es	-3.255921	-0.560353	0.912598	99
Es	-3.255906	0.472332	0.331843	99
Es	1.388153	-0.664115	-1.516820	99
Es	1.551278	1.149737	0.324044	99
Es	-0.962322	-0.066886	-0.009114	99
Es	-3.008696	-0.211169	0.324045	99
Es	-2.265743	-0.211296	0.323770	99
Es	-0.374360	-0.211154	0.324048	99
Es	-0.965654	-0.000429	0.616242	99
Es	1.309040	0.489714	0.323633	99
Es	-1.565078	-0.211170	0.324044	99
Es	1.323599	-0.567673	-0.268722	99
Es	1.069297	-0.211068	0.324013	99
Es	1.595375	1.777414	0.639581	99
Es	0.333242	-0.200472	0.323752	99
Es	2.352467	-0.982794	-0.870499	99
Es	-0.961505	-0.576753	0.361825	99
40
Properties=species:S:1:pos:R:3:Z:I:1 energy=-269.7039430828988 field_type=dipole dipole="0.000000 0.000000 0.000000" charge=0
C	-3.008803	-0.211167	0.324045	6
C	-1.564803	-0.211167	0.324045	6
C	-0.374644	-0.211167	0.324045	6
C	1.069356	-0.211167	0.324045	6
C	1.609076	-0.975577	-0.881765	6
C	1.551376	1.150003	0.324045	6
C	1.948657	2.271903	0.324045	6
H	-3.402773	0.809723	0.335695	1
H	-3.402864	-0.731697	1.202285	1
H	-3.402783	-0.711467	-0.565915	1
H	1.427006	-0.717297	1.229645	1
H	1.287867	-0.522927	-1.829875	1
H	1.258996	-2.014897	-0.878405	1
H	2.705697	-0.991477	-0.879825	1
H	2.298636	3.278373	0.323885	1
Es	-2.265845	-0.211407	0.323844	99
Es	1.388238	-0.664146	-1.516824	99
Es	2.178146	2.929101	0.323591	99
Es	-0.965659	-0.026417	0.633766	99
Es	1.368482	-1.678460	-0.869110	99
Es	1.309090	0.489656	0.323569	99
Es	-0.961533	-0.579028	0.329834	99
Es	1.609056	-0.975548	-0.881710	99
Es	1.323496	-0.567796	-0.268837	99
Es	1.551283	1.149744	0.324051	99
Es	-3.255858	-0.560345	0.912635	99
Es	-0.374356	-0.211163	0.324049	99
Es	2.352427	-0.982685	-0.870413	99
Es	-3.008690	-0.211168	0.324044	99
Es	2.097595	1.598257	0.331867	99
Es	-1.565071	-0.211170	0.324041	99
Es	1.591561	1.775491	0.007370	99
Es	0.333300	-0.200357	0.323868	99
Es	1.299309	-0.532890	0.926579	99
Es	-3.255812	0.472407	0.331891	99
Es	1.948751	2.272123	0.324044	99
Es	1.580992	1.782675	0.630014	99
Es	1.069299	-0.211071	0.324010	99
Es	-0.962307	-0.038574	0.005157	99
Es	-3.256173	-0.546809	-0.272555	99
40
Properties=species:S:1:pos:R:3:Z:I:1 energy=-269.7039430828988 field_type=dipole dipole="0.000000 0.000000 0.000000" charge=0
C	-3.008803	-0.211167	0.324045	6
C	-1.564803	-0.211167	0.324045	6
C	-0.374644	-0.211167	0.324045	6
C	1.069356	-0.211167	0.324045	6
C	1.609076	-0.975577	-0.881765	6
C	1.551376	1.150003	0.324045	6
C	1.948657	2.271903	0.324045	6
H	-3.402773	0.809723	0.335695	1
H	-3.402864	-0.731697	1.202285	1
H	-3.402783	-0.711467	-0.565915	1
H	1.427006	-0.717297	1.229645	1
H	1.287867	-0.522927	-1.829875	1
H	1.258996	-2.014897	-0.878405	1
H	2.705697	-0.991477	-0.879825	1
H	2.298636	3.278373	0.323885	1
Es	1.609055	-0.975547	-0.881709	99
Es	-2.265879	-0.211334	0.323788	99
Es	1.308986	0.489637	0.323695	99
Es	-0.961505	-0.578374	0.344135	99
Es	2.178058	2.929128	0.323797	99
Es	-3.255827	0.472417	0.331828	99
Es	1.948740	2.272140	0.324029	99
Es	-0.374345	-0.211168	0.324046	99
Es	1.607516	1.769849	-0.000568	99
Es	1.565822	1.787984	0.620713	99
Es	1.069297	-0.211069	0.324012	99
Es	-3.256099	-0.546822	-0.272544	99
Es	2.096894	1.598484	0.348778	99
Es	-3.255889	-0.560363	0.912669	99
Es	-0.965672	-0.014885	0.626246	99
Es	1.368437	-1.678422	-0.869076	99
Es	1.323544	-0.567721	-0.268944	99
Es	-3.008696	-0.211169	0.324045	99
Es	1.299358	-0.532849	0.926674	99
Es	1.388268	-0.664181	-1.516848	99
Es	-0.962318	-0.050902	-0.001507	99
Es	-1.565073	-0.211171	0.324041	99
Es	1.551282	1.149739	0.324045	99
Es	0.333385	-0.200194	0.323895	99
Es	2.352382	-0.982785	-0.870464	99
40
Properties=species:S:1:pos:R:3:Z:I:1 energy=-269.7039430828988 field_type=dipole dipole="0.000000 0.000000 0.000000" charge=0
C	-3.008803	-0.211167	0.324045	6
C	-1.564803	-0.211167	0.324045	6
C	-0.374644	-0.211167	0.324045	6
C	1.069356	-0.211167	0.324045	6
C	1.609076	-0.975577	-0.881765	6
C	1.551376	1.150003	0.324045	6
C	1.948657	2.271903	0.324045	6
H	-3.402773	0.809723	0.335695	1
H	-3.402864	-0.731697	1.202285	1
H	-3.402783	-0.711467	-0.565915	1
H	1.427006	-0.717297	1.229645	1
H	1.287867	-0.522927	-1.829875	1
H	1.258996	-2.014897	-0.878405	1
H	2.705697	-0.991477	-0.879825	1
H	2.298636	3.278373	0.323885	1
Es	0.333418	-0.200243	0.323906	99
Es	2.097351	1.598387	0.335133	99
Es	2.352427	-0.982755	-0.870499	99
Es	1.299329	-0.532889	0.926684	99
Es	-1.565078	-0.211172	0.324041	99
Es	-3.008697	-0.211167	0.324044	99
Es	2.178056	2.929090	0.323895	99
Es	1.576391	1.784190	0.628318	99
Es	-0.962293	-0.039709	0.004545	99
Es	1.596443	1.773796	0.005285	99
Es	1.323521	-0.567623	-0.269070	99
Es	1.368440	-1.678419	-0.869031	99
Es	-2.265993	-0.211409	0.323826	99
Es	1.308978	0.489596	0.323819	99
Es	1.551297	1.149750	0.324066	99
Es	1.388257	-0.664284	-1.516816	99
Es	1.069299	-0.211064	0.324013	99
Es	-3.255701	0.472480	0.331798	99
Es	-0.965653	-0.025508	0.633228	99
Es	1.948743	2.272138	0.324041	99
Es	-3.255912	-0.560329	0.912727	99
Es	-0.961511	-0.578880	0.331090	99
Es	-3.256089	-0.546853	-0.272605	99
Es	1.609056	-0.975548	-0.881712	99
Es	-0.374359	-0.211155	0.324046	99
