47
Properties=species:S:1:pos:R:3:Z:I:1 energy=-309.13836007770885 field_type=dipole dipole="0.000000 0.000000 0.000000" charge=0
C	-2.861912	-0.237589	-0.219606	6
C	-1.492922	-0.105679	0.418294	6
O	-0.508892	-0.425979	-0.563426	8
C	0.825288	-0.389439	-0.050056	6
C	1.704198	-1.181299	-1.012906	6
C	1.289858	1.039751	0.018044	6
C	1.733598	1.642631	1.128994	6
H	-3.651322	0.005271	0.497494	1
H	-3.019492	-1.257349	-0.586506	1
H	-2.951302	0.429631	-1.083456	1
H	-1.412842	-0.795359	1.265454	1
H	-1.353322	0.919961	0.774804	1
H	0.861308	-0.876359	0.932704	1
H	1.650118	-0.774429	-2.029556	1
H	1.357798	-2.218929	-1.074926	1
H	2.751308	-1.184499	-0.692726	1
H	1.241318	1.606721	-0.909416	1
H	1.791208	1.120401	2.079214	1
H	2.046008	2.682541	1.107574	1
Es	0.825113	-0.389409	-0.050171	99
Es	1.733643	1.642672	1.129078	99
Es	1.668635	-0.895136	-1.697943	99
Es	1.821286	1.247099	0.513944	99
Es	-1.492798	-0.105743	0.418121	99
Es	1.213110	1.439466	0.657525	99
Es	1.289822	1.039700	0.017972	99
Es	1.255122	1.414274	-0.615124	99
Es	-2.861896	-0.237582	-0.219582	99
Es	1.271662	-0.776697	-0.533372	99
Es	-2.180773	-0.172665	0.098329	99
Es	1.064527	0.337996	-0.005555	99
Es	-2.968857	-0.932512	-0.462039	99
Es	-0.508791	-0.425894	-0.563108	99
Es	-3.394330	-0.070386	0.275980	99
Es	-0.521289	-0.202852	-0.775492	99
Es	-0.560434	-0.719950	-0.634472	99
Es	2.413943	-1.178009	-0.787438	99
Es	1.948933	2.347057	1.122913	99
Es	-0.852389	-0.297052	-0.167170	99
Es	-1.396313	0.598455	0.668494	99
Es	0.849426	-0.716102	0.633141	99
Es	-1.433542	-0.581749	1.008441	99
Es	1.469249	-1.885148	-1.046532	99
Es	1.704191	-1.181285	-1.012883	99
Es	-0.014952	-0.398861	-0.334355	99
Es	-2.921597	0.220909	-0.801064	99
Es	1.774134	1.290965	1.776741	99
47
Properties=species:S:1:pos:R:3:Z:I:1 energy=-309.13836007770885 field_type=dipole dipole="0.000000 0.000000 0.000000" charge=0
C	-2.861912	-0.237589	-0.219606	6
C	-1.492922	-0.105679	0.418294	6
O	-0.508892	-0.425979	-0.563426	8
C	0.825288	-0.389439	-0.050056	6
C	1.704198	-1.181299	-1.012906	6
C	1.289858	1.039751	0.018044	6
C	1.733598	1.642631	1.128994	6
H	-3.651322	0.005271	0.497494	1
H	-3.019492	-1.257349	-0.586506	1
H	-2.951302	0.429631	-1.083456	1
H	-1.412842	-0.795359	1.265454	1
H	-1.353322	0.919961	0.774804	1
H	0.861308	-0.876359	0.932704	1
H	1.650118	-0.774429	-2.029556	1
H	1.357798	-2.218929	-1.074926	1
H	2.751308	-1.184499	-0.692726	1
H	1.241318	1.606721	-0.909416	1
H	1.791208	1.120401	2.079214	1
H	2.046008	2.682541	1.107574	1
Es	-2.921646	0.220829	-0.801071	99
Es	-3.394370	-0.070393	0.275946	99
Es	0.825112	-0.389409	-0.050172	99
Es	1.949033	2.347086	1.122916	99
Es	-2.861896	-0.237583	-0.219581	99
Es	1.668571	-0.895176	-1.697986	99
Es	2.413945	-1.177952	-0.787474	99
Es	1.213263	1.439626	0.657421	99
Es	1.704192	-1.181281	-1.012884	99
Es	1.064362	0.337944	-0.005453	99
Es	-2.968794	-0.932531	-0.461998	99
Es	1.733634	1.642675	1.129082	99
Es	1.469328	-1.885147	-1.046471	99
Es	1.289818	1.039700	0.017974	99
Es	1.255254	1.414205	-0.615178	99
Es	-2.180797	-0.172607	0.098228	99
Es	-0.560285	-0.720375	-0.634407	99
Es	-0.521519	-0.203755	-0.775117	99
Es	-0.508807	-0.425858	-0.563090	99
Es	-0.852525	-0.296578	-0.167098	99
Es	1.773997	1.290890	1.776761	99
Es	1.271737	-0.776740	-0.533413	99
Es	-1.396349	0.598423	0.668454	99
Es	-0.014675	-0.397978	-0.334755	99
Es	-1.492793	-0.105745	0.418116	99
Es	1.821155	1.247026	0.513996	99
Es	-1.433518	-0.581702	1.008474	99
Es	0.849407	-0.716035	0.633160	99
47
Properties=species:S:1:pos:R:3:Z:I:1 energy=-309.13836007770885 field_type=dipole dipole="0.000000 0.000000 0.000000" charge=0
C	-2.861912	-0.237589	-0.219606	6
C	-1.492922	-0.105679	0.418294	6
O	-0.508892	-0.425979	-0.563426	8
C	0.825288	-0.389439	-0.050056	6
C	1.704198	-1.181299	-1.012906	6
C	1.289858	1.039751	0.018044	6
C	1.733598	1.642631	1.128994	6
H	-3.651322	0.005271	0.497494	1
H	-3.019492	-1.257349	-0.586506	1
H	-2.951302	0.429631	-1.083456	1
H	-1.412842	-0.795359	1.265454	1
H	-1.353322	0.919961	0.774804	1
H	0.861308	-0.876359	0.932704	1
H	1.650118	-0.774429	-2.029556	1
H	1.357798	-2.218929	-1.074926	1
H	2.751308	-1.184499	-0.692726	1
H	1.241318	1.606721	-0.909416	1
H	1.791208	1.120401	2.079214	1
H	2.046008	2.682541	1.107574	1
Es	-0.560559	-0.719572	-0.635521	99
Es	-1.433539	-0.581709	1.008393	99
Es	-0.508807	-0.425990	-0.563020	99
Es	-0.521585	-0.203571	-0.774141	99
Es	-0.014259	-0.398430	-0.335007	99
Es	0.825112	-0.389409	-0.050172	99
Es	-1.492796	-0.105742	0.418119	99
Es	-1.396365	0.598380	0.668554	99
Es	2.413941	-1.177905	-0.787594	99
Es	1.733639	1.642673	1.129082	99
Es	0.849421	-0.715980	0.633144	99
Es	1.255101	1.414364	-0.615127	99
Es	1.668568	-0.895281	-1.697907	99
Es	-2.921637	0.220925	-0.801040	99
Es	1.213234	1.439460	0.657475	99
Es	1.469337	-1.885218	-1.046449	99
Es	-3.394341	-0.070447	0.275968	99
Es	1.064351	0.337853	-0.005474	99
Es	-0.852591	-0.296965	-0.166842	99
Es	1.289817	1.039700	0.017971	99
Es	1.704191	-1.181282	-1.012883	99
Es	-2.861896	-0.237582	-0.219581	99
Es	1.948952	2.347024	1.122945	99
Es	1.821248	1.247096	0.513928	99
Es	1.271768	-0.776635	-0.533390	99
Es	-2.180767	-0.172719	0.098310	99
Es	1.774163	1.290966	1.776717	99
Es	-2.968867	-0.932445	-0.462075	99
47
Properties=species:S:1:pos:R:3:Z:I:1 energy=-309.13836007770885 field_type=dipole dipole="0.000000 0.000000 0.000000" charge=0
C	-2.861912	-0.237589	-0.219606	6
C	-1.492922	-0.105679	0.418294	6
O	-0.508892	-0.425979	-0.563426	8
C	0.825288	-0.389439	-0.050056	6
C	1.704198	-1.181299	-1.012906	6
C	1.289858	1.039751	0.018044	6
C	1.733598	1.642631	1.128994	6
H	-3.651322	0.005271	0.497494	1
H	-3.019492	-1.257349	-0.586506	1
H	-2.951302	0.429631	-1.083456	1
H	-1.412842	-0.795359	1.265454	1
H	-1.353322	0.919961	0.774804	1
H	0.861308	-0.876359	0.932704	1
H	1.650118	-0.774429	-2.029556	1
H	1.357798	-2.218929	-1.074926	1
H	2.751308	-1.184499	-0.692726	1
H	1.241318	1.606721	-0.909416	1
H	1.791208	1.120401	2.079214	1
H	2.046008	2.682541	1.107574	1
Es	1.948834	2.347084	1.122907	99
Es	-1.396347	0.598352	0.668519	99
Es	1.733641	1.642673	1.129084	99
Es	1.774020	1.291027	1.776785	99
Es	1.668784	-0.895104	-1.697897	99
Es	0.849384	-0.715886	0.633077	99
Es	1.469296	-1.885146	-1.046677	99
Es	-2.968900	-0.932448	-0.462071	99
Es	-2.921709	0.220883	-0.801013	99
Es	-0.522037	-0.204142	-0.775366	99
Es	1.255050	1.414299	-0.615147	99
Es	1.821332	1.247163	0.513933	99
Es	-3.394317	-0.070450	0.275926	99
Es	0.825114	-0.389409	-0.050171	99
Es	-2.861897	-0.237583	-0.219582	99
Es	2.413861	-1.178064	-0.787401	99
Es	-0.014435	-0.397525	-0.334969	99
Es	-1.492799	-0.105741	0.418122	99
Es	1.064291	0.337722	-0.005256	99
Es	-2.180741	-0.172679	0.098373	99
Es	-1.433515	-0.581613	1.008403	99
Es	1.271819	-0.776769	-0.533412	99
Es	-0.559429	-0.719474	-0.633984	99
Es	1.704192	-1.181282	-1.012884	99
Es	1.289817	1.039703	0.017974	99
Es	-0.508872	-0.425963	-0.563284	99
Es	1.213448	1.439393	0.657346	99
Es	-0.853051	-0.297459	-0.166955	99
47
Properties=species:S:1:pos:R:3:Z:I:1 energy=-309.13836007770885 field_type=dipole dipole="0.000000 0.000000 0.000000" charge=0
C	-2.861912	-0.237589	-0.219606	6
C	-1.492922	-0.105679	0.418294	6
O	-0.508892	-0.425979	-0.563426	8
C	0.825288	-0.389439	-0.050056	6
C	1.704198	-1.181299	-1.012906	6
C	1.289858	1.039751	0.018044	6
C	1.733598	1.642631	1.128994	6
H	-3.651322	0.005271	0.497494	1
H	-3.019492	-1.257349	-0.586506	1
H	-2.951302	0.429631	-1.083456	1
H	-1.412842	-0.795359	1.265454	1
H	-1.353322	0.919961	0.774804	1
H	0.861308	-0.876359	0.932704	1
H	1.650118	-0.774429	-2.029556	1
H	1.357798	-2.218929	-1.074926	1
H	2.751308	-1.184499	-0.692726	1
H	1.241318	1.606721	-0.909416	1
H	1.791208	1.120401	2.079214	1
H	2.046008	2.682541	1.107574	1
Es	0.825112	-0.389408	-0.050172	99
Es	1.774075	1.290913	1.776794	99
Es	-0.521010	-0.203662	-0.774252	99
Es	1.704194	-1.181283	-1.012884	99
Es	-0.559833	-0.719220	-0.635659	99
Es	-0.014736	-0.398398	-0.334324	99
Es	-2.180743	-0.172620	0.098363	99
Es	1.255244	1.414380	-0.615192	99
Es	1.469439	-1.885078	-1.046492	99
Es	-1.433482	-0.581584	1.008378	99
Es	-3.394324	-0.070466	0.275935	99
Es	1.213412	1.439533	0.657387	99
Es	1.733642	1.642672	1.129081	99
Es	1.289823	1.039694	0.017973	99
Es	-2.968910	-0.932374	-0.462015	99
Es	1.820942	1.247169	0.513975	99
Es	1.271674	-0.776627	-0.533431	99
Es	-1.396287	0.598266	0.668560	99
Es	2.413786	-1.178030	-0.787387	99
Es	1.064350	0.337704	-0.005278	99
Es	0.849472	-0.716004	0.633042	99
Es	-1.492796	-0.105743	0.418119	99
Es	1.948979	2.347024	1.122904	99
Es	-2.861901	-0.237583	-0.219581	99
Es	-0.853536	-0.297324	-0.167225	99
Es	-2.921781	0.220818	-0.801054	99
Es	-0.508748	-0.425962	-0.563095	99
Es	1.668777	-0.895249	-1.698089	99
47
Properties=species:S:1:pos:R:3:Z:I:1 energy=-309.13836007770885 field_type=dipole dipole="0.000000 0.000000 0.000000" charge=0
C	-2.861912	-0.237589	-0.219606	6
C	-1.492922	-0.105679	0.418294	6
O	-0.508892	-0.425979	-0.563426	8
C	0.825288	-0.389439	-0.050056	6
C	1.704198	-1.181299	-1.012906	6
C	1.289858	1.039751	0.018044	6
C	1.733598	1.642631	1.128994	6
H	-3.651322	0.005271	0.497494	1
H	-3.019492	-1.257349	-0.586506	1
H	-2.951302	0.429631	-1.083456	1
H	-1.412842	-0.795359	1.265454	1
H	-1.353322	0.919961	0.774804	1
H	0.861308	-0.876359	0.932704	1
H	1.650118	-0.774429	-2.029556	1
H	1.357798	-2.218929	-1.074926	1
H	2.751308	-1.184499	-0.692726	1
H	1.241318	1.606721	-0.909416	1
H	1.791208	1.120401	2.079214	1
H	2.046008	2.682541	1.107574	1
Es	0.849376	-0.715813	0.632988	99
Es	1.733640	1.642675	1.129082	99
Es	-0.853427	-0.297993	-0.166721	99
Es	1.064318	0.337676	-0.005240	99
Es	1.289825	1.039699	0.017973	99
Es	1.704193	-1.181284	-1.012885	99
Es	2.414021	-1.178067	-0.787646	99
Es	-3.394392	-0.070318	0.275868	99
Es	1.774036	1.290994	1.776829	99
Es	1.821075	1.247149	0.513933	99
Es	-1.433476	-0.581521	1.008423	99
Es	0.825116	-0.389410	-0.050169	99
Es	-2.180825	-0.172636	0.098421	99
Es	1.948875	2.347025	1.122887	99
Es	1.469301	-1.885026	-1.046401	99
Es	1.271933	-0.776677	-0.533265	99
Es	-0.014203	-0.400318	-0.334526	99
Es	-1.492797	-0.105742	0.418120	99
Es	1.213495	1.439526	0.657347	99
Es	-2.921636	0.220725	-0.801129	99
Es	-0.561442	-0.718345	-0.640324	99
Es	1.255227	1.414352	-0.615177	99
Es	-0.508821	-0.426049	-0.562999	99
Es	-1.396285	0.598195	0.668515	99
Es	-0.519959	-0.201903	-0.770040	99
Es	-2.968957	-0.932385	-0.461928	99
Es	-2.861897	-0.237583	-0.219582	99
Es	1.668520	-0.895385	-1.697973	99
47
Properties=species:S:1:pos:R:3:Z:I:1 energy=-309.13836007770885 field_type=dipole dipole="0.000000 0.000000 0.000000" charge=0
C	-2.861912	-0.237589	-0.219606	6
C	-1.492922	-0.105679	0.418294	6
O	-0.508892	-0.425979	-0.563426	8
C	0.825288	-0.389439	-0.050056	6
C	1.704198	-1.181299	-1.012906	6
C	1.289858	1.039751	0.018044	6
C	1.733598	1.642631	1.128994	6
H	-3.651322	0.005271	0.497494	1
H	-3.019492	-1.257349	-0.586506	1
H	-2.951302	0.429631	-1.083456	1
H	-1.412842	-0.795359	1.265454	1
H	-1.353322	0.919961	0.774804	1
H	0.861308	-0.876359	0.932704	1
H	1.650118	-0.774429	-2.029556	1
H	1.357798	-2.218929	-1.074926	1
H	2.751308	-1.184499	-0.692726	1
H	1.241318	1.606721	-0.909416	1
H	1.791208	1.120401	2.079214	1
H	2.046008	2.682541	1.107574	1
Es	1.704193	-1.181283	-1.012884	99
Es	1.064265	0.337513	-0.005262	99
Es	1.948966	2.347055	1.122885	99
Es	1.733641	1.642671	1.129078	99
Es	0.849389	-0.715805	0.633041	99
Es	-1.396260	0.598138	0.668545	99
Es	-0.521917	-0.205371	-0.777063	99
Es	-1.492797	-0.105742	0.418120	99
Es	1.271911	-0.776690	-0.533321	99
Es	1.668676	-0.895279	-1.697991	99
Es	-0.559890	-0.719073	-0.632270	99
Es	1.469399	-1.885128	-1.046492	99
Es	-0.508823	-0.425826	-0.563063	99
Es	1.774012	1.290974	1.776794	99
Es	1.255215	1.414478	-0.615157	99
Es	-3.394320	-0.070405	0.275823	99
Es	-2.921702	0.220831	-0.800983	99
Es	0.825114	-0.389408	-0.050170	99
Es	-1.433473	-0.581502	1.008404	99
Es	-2.861897	-0.237583	-0.219582	99
Es	-0.014294	-0.398116	-0.334900	99
Es	-2.180806	-0.172618	0.098476	99
Es	1.289826	1.039699	0.017972	99
Es	-0.852916	-0.296152	-0.167307	99
Es	2.413839	-1.178023	-0.787570	99
Es	1.213590	1.439455	0.657348	99
Es	-2.969027	-0.932390	-0.462078	99
Es	1.820924	1.247139	0.513989	99
47
Properties=species:S:1:pos:R:3:Z:I:1 energy=-309.13836007770885 field_type=dipole dipole="0.000000 0.000000 0.000000" charge=0
C	-2.861912	-0.237589	-0.219606	6
C	-1.492922	-0.105679	0.418294	6
O	-0.508892	-0.425979	-0.563426	8
C	0.825288	-0.389439	-0.050056	6
C	1.704198	-1.181299	-1.012906	6
C	1.289858	1.039751	0.018044	6
C	1.733598	1.642631	1.128994	6
H	-3.651322	0.005271	0.497494	1
H	-3.019492	-1.257349	-0.586506	1
H	-2.951302	0.429631	-1.083456	1
H	-1.412842	-0.795359	1.265454	1
H	-1.353322	0.919961	0.774804	1
H	0.861308	-0.876359	0.932704	1
H	1.650118	-0.774429	-2.029556	1
H	1.357798	-2.218929	-1.074926	1
H	2.751308	-1.184499	-0.692726	1
H	1.241318	1.606721	-0.909416	1
H	1.791208	1.120401	2.079214	1
H	2.046008	2.682541	1.107574	1
Es	-1.396282	0.598148	0.668565	99
Es	2.413790	-1.177958	-0.787529	99
Es	0.825120	-0.389408	-0.050168	99
Es	-1.433472	-0.581458	1.008367	99
Es	1.289827	1.039697	0.017972	99
Es	1.255227	1.414463	-0.615165	99
Es	1.704193	-1.181283	-1.012884	99
Es	-0.520629	-0.202680	-0.770277	99
Es	1.668718	-0.895259	-1.697988	99
Es	-1.492798	-0.105742	0.418121	99
Es	-2.968992	-0.932355	-0.462027	99
Es	-0.853778	-0.298625	-0.166712	99
Es	1.948969	2.347077	1.122899	99
Es	1.469450	-1.885184	-1.046511	99
Es	-0.013861	-0.399518	-0.334614	99
Es	1.733636	1.642675	1.129083	99
Es	1.213600	1.439457	0.657339	99
Es	1.271860	-0.776718	-0.533327	99
Es	-0.508799	-0.425749	-0.563106	99
Es	-3.394325	-0.070450	0.275822	99
Es	1.774114	1.290897	1.776763	99
Es	-2.180783	-0.172631	0.098471	99
Es	-2.861896	-0.237581	-0.219582	99
Es	1.820788	1.247256	0.513977	99
Es	-0.560781	-0.718001	-0.639857	99
Es	1.064269	0.337433	-0.005295	99
Es	0.849444	-0.715743	0.633074	99
Es	-2.921771	0.220800	-0.801029	99
47
Properties=species:S:1:pos:R:3:Z:I:1 energy=-309.13836007770885 field_type=dipole dipole="0.000000 0.000000 0.000000" charge=0
C	-2.861912	-0.237589	-0.219606	6
C	-1.492922	-0.105679	0.418294	6
O	-0.508892	-0.425979	-0.563426	8
C	0.825288	-0.389439	-0.050056	6
C	1.704198	-1.181299	-1.012906	6
C	1.289858	1.039751	0.018044	6
C	1.733598	1.642631	1.128994	6
H	-3.651322	0.005271	0.497494	1
H	-3.019492	-1.257349	-0.586506	1
H	-2.951302	0.429631	-1.083456	1
H	-1.412842	-0.795359	1.265454	1
H	-1.353322	0.919961	0.774804	1
H	0.861308	-0.876359	0.932704	1
H	1.650118	-0.774429	-2.029556	1
H	1.357798	-2.218929	-1.074926	1
H	2.751308	-1.184499	-0.692726	1
H	1.241318	1.606721	-0.909416	1
H	1.791208	1.120401	2.079214	1
H	2.046008	2.682541	1.107574	1
Es	-3.394295	-0.070473	0.275825	99
Es	-0.853620	-0.298087	-0.166469	99
Es	1.213670	1.439450	0.657322	99
Es	0.849429	-0.715841	0.632929	99
Es	1.289824	1.039699	0.017973	99
Es	1.704193	-1.181283	-1.012884	99
Es	1.469500	-1.885093	-1.046381	99
Es	-0.560371	-0.717790	-0.637335	99
Es	1.948999	2.347004	1.122877	99
Es	0.825113	-0.389410	-0.050173	99
Es	1.668663	-0.895423	-1.698072	99
Es	-0.013187	-0.398623	-0.335637	99
Es	-1.492798	-0.105742	0.418120	99
Es	-2.921747	0.220882	-0.800974	99
Es	1.820793	1.247360	0.513900	99
Es	1.064218	0.337416	-0.005007	99
Es	-2.180832	-0.172775	0.098520	99
Es	-0.521808	-0.204191	-0.771985	99
Es	1.733643	1.642672	1.129080	99
Es	-1.396308	0.598110	0.668525	99
Es	1.774189	1.290874	1.776798	99
Es	1.271911	-0.776570	-0.533395	99
Es	1.255043	1.414501	-0.615155	99
Es	-2.861898	-0.237583	-0.219582	99
Es	-0.508856	-0.425868	-0.563149	99
Es	-1.433403	-0.581371	1.008389	99
Es	-2.969059	-0.932323	-0.462107	99
Es	2.413830	-1.177966	-0.787574	99
47
Properties=species:S:1:pos:R:3:Z:I:1 energy=-309.13836007770885 field_type=dipole dipole="0.000000 0.000000 0.000000" charge=0
C	-2.861912	-0.237589	-0.219606	6
C	-1.492922	-0.105679	0.418294	6
O	-0.508892	-0.425979	-0.563426	8
C	0.825288	-0.389439	-0.050056	6
C	1.704198	-1.181299	-1.012906	6
C	1.289858	1.039751	0.018044	6
C	1.733598	1.642631	1.128994	6
H	-3.651322	0.005271	0.497494	1
H	-3.019492	-1.257349	-0.586506	1
H	-2.951302	0.429631	-1.083456	1
H	-1.412842	-0.795359	1.265454	1
H	-1.353322	0.919961	0.774804	1
H	0.861308	-0.876359	0.932704	1
H	1.650118	-0.774429	-2.029556	1
H	1.357798	-2.218929	-1.074926	1
H	2.751308	-1.184499	-0.692726	1
H	1.241318	1.606721	-0.909416	1
H	1.791208	1.120401	2.079214	1
H	2.046008	2.682541	1.107574	1
Es	1.255203	1.414530	-0.615179	99
Es	-2.861897	-0.237582	-0.219582	99
Es	1.668654	-0.895349	-1.697981	99
Es	-0.853697	-0.298312	-0.166508	99
Es	-0.508804	-0.425852	-0.563098	99
Es	1.469530	-1.885136	-1.046491	99
Es	1.773958	1.290899	1.776815	99
Es	1.064152	0.337354	-0.005109	99
Es	-1.396275	0.598034	0.668556	99
Es	-2.969019	-0.932318	-0.462019	99
Es	-0.013546	-0.398257	-0.335410	99
Es	1.948906	2.347070	1.122929	99
Es	1.733648	1.642662	1.129072	99
Es	1.289826	1.039699	0.017972	99
Es	-1.492797	-0.105742	0.418120	99
Es	-0.560024	-0.718070	-0.637342	99
Es	-0.521748	-0.204040	-0.772238	99
Es	0.825116	-0.389409	-0.050169	99
Es	-1.433417	-0.581338	1.008371	99
Es	-2.180851	-0.172644	0.098503	99
Es	1.271936	-0.776780	-0.533309	99
Es	2.413841	-1.177927	-0.787581	99
Es	1.704191	-1.181281	-1.012886	99
Es	-3.394291	-0.070497	0.275805	99
Es	-2.921833	0.220818	-0.801035	99
Es	0.849365	-0.715663	0.632976	99
Es	1.213870	1.439447	0.657236	99
Es	1.820836	1.247244	0.513963	99
47
Properties=species:S:1:pos:R:3:Z:I:1 energy=-309.13836007770885 field_type=dipole dipole="0.000000 0.000000 0.000000" charge=0
C	-2.861912	-0.237589	-0.219606	6
C	-1.492922	-0.105679	0.418294	6
O	-0.508892	-0.425979	-0.563426	8
C	0.825288	-0.389439	-0.050056	6
C	1.704198	-1.181299	-1.012906	6
C	1.289858	1.039751	0.018044	6
C	1.733598	1.642631	1.128994	6
H	-3.651322	0.005271	0.497494	1
H	-3.019492	-1.257349	-0.586506	1
H	-2.951302	0.429631	-1.083456	1
H	-1.412842	-0.795359	1.265454	1
H	-1.353322	0.919961	0.774804	1
H	0.861308	-0.876359	0.932704	1
H	1.650118	-0.774429	-2.029556	1
H	1.357798	-2.218929	-1.074926	1
H	2.751308	-1.184499	-0.692726	1
H	1.241318	1.606721	-0.909416	1
H	1.791208	1.120401	2.079214	1
H	2.046008	2.682541	1.107574	1
Es	-0.560434	-0.717895	-0.636841	99
Es	1.820637	1.247258	0.514030	99
Es	1.289826	1.039699	0.017972	99
Es	-0.508819	-0.425919	-0.563094	99
Es	1.213958	1.439399	0.657202	99
Es	1.774008	1.290932	1.776829	99
Es	0.825116	-0.389411	-0.050167	99
Es	2.413777	-1.178074	-0.787470	99
Es	-2.861897	-0.237583	-0.219582	99
Es	-2.969075	-0.932348	-0.461978	99
Es	1.733641	1.642671	1.129080	99
Es	0.849416	-0.715682	0.632928	99
Es	-1.492800	-0.105741	0.418123	99
Es	1.668859	-0.895317	-1.697958	99
Es	-1.396242	0.597963	0.668584	99
Es	-0.013460	-0.398800	-0.334959	99
Es	-0.521064	-0.204875	-0.772535	99
Es	1.704193	-1.181282	-1.012883	99
Es	1.469417	-1.885101	-1.046587	99
Es	-0.854047	-0.297066	-0.167117	99
Es	-1.433409	-0.581314	1.008345	99
Es	1.271969	-0.776623	-0.533423	99
Es	-2.921789	0.220740	-0.801043	99
Es	1.948946	2.347102	1.122843	99
Es	1.255247	1.414560	-0.615223	99
Es	-2.180896	-0.172605	0.098496	99
Es	1.064059	0.337268	-0.004953	99
Es	-3.394299	-0.070395	0.275762	99
47
Properties=species:S:1:pos:R:3:Z:I:1 energy=-309.13836007770885 field_type=dipole dipole="0.000000 0.000000 0.000000" charge=0
C	-2.861912	-0.237589	-0.219606	6
C	-1.492922	-0.105679	0.418294	6
O	-0.508892	-0.425979	-0.563426	8
C	0.825288	-0.389439	-0.050056	6
C	1.704198	-1.181299	-1.012906	6
C	1.289858	1.039751	0.018044	6
C	1.733598	1.642631	1.128994	6
H	-3.651322	0.005271	0.497494	1
H	-3.019492	-1.257349	-0.586506	1
H	-2.951302	0.429631	-1.083456	1
H	-1.412842	-0.795359	1.265454	1
H	-1.353322	0.919961	0.774804	1
H	0.861308	-0.876359	0.932704	1
H	1.650118	-0.774429	-2.029556	1
H	1.357798	-2.218929	-1.074926	1
H	2.751308	-1.184499	-0.692726	1
H	1.241318	1.606721	-0.909416	1
H	1.791208	1.120401	2.079214	1
H	2.046008	2.682541	1.107574	1
Es	1.272004	-0.776735	-0.533289	99
Es	-0.854656	-0.297821	-0.167300	99
Es	1.733636	1.642672	1.129079	99
Es	1.820696	1.247313	0.514033	99
Es	-2.861897	-0.237583	-0.219582	99
Es	1.704193	-1.181284	-1.012885	99
Es	0.849367	-0.715609	0.632916	99
Es	-2.969074	-0.932321	-0.462041	99
Es	-3.394293	-0.070451	0.275773	99
Es	-0.508804	-0.425953	-0.563071	99
Es	1.469498	-1.885169	-1.046588	99
Es	1.064010	0.337212	-0.004907	99
Es	1.214130	1.439348	0.657098	99
Es	-1.433384	-0.581286	1.008354	99
Es	1.289832	1.039698	0.017968	99
Es	2.413729	-1.178017	-0.787584	99
Es	1.773972	1.290919	1.776847	99
Es	-2.180895	-0.172628	0.098521	99
Es	-1.492804	-0.105740	0.418124	99
Es	1.668800	-0.895298	-1.697951	99
Es	-0.559193	-0.717756	-0.635990	99
Es	-0.521468	-0.205310	-0.773513	99
Es	-1.396252	0.597938	0.668575	99
Es	-2.921817	0.220784	-0.800995	99
Es	0.825122	-0.389411	-0.050168	99
Es	-0.013699	-0.397655	-0.334698	99
Es	1.948879	2.347133	1.122848	99
Es	1.255201	1.414570	-0.615195	99
47
Properties=species:S:1:pos:R:3:Z:I:1 energy=-309.13836007770885 field_type=dipole dipole="0.000000 0.000000 0.000000" charge=0
C	-2.861912	-0.237589	-0.219606	6
C	-1.492922	-0.105679	0.418294	6
O	-0.508892	-0.425979	-0.563426	8
C	0.825288	-0.389439	-0.050056	6
C	1.704198	-1.181299	-1.012906	6
C	1.289858	1.039751	0.018044	6
C	1.733598	1.642631	1.128994	6
H	-3.651322	0.005271	0.497494	1
H	-3.019492	-1.257349	-0.586506	1
H	-2.951302	0.429631	-1.083456	1
H	-1.412842	-0.795359	1.265454	1
H	-1.353322	0.919961	0.774804	1
H	0.861308	-0.876359	0.932704	1
H	1.650118	-0.774429	-2.029556	1
H	1.357798	-2.218929	-1.074926	1
H	2.751308	-1.184499	-0.692726	1
H	1.241318	1.606721	-0.909416	1
H	1.791208	1.120401	2.079214	1
H	2.046008	2.682541	1.107574	1
Es	-0.854308	-0.298349	-0.166677	99
Es	1.820473	1.247350	0.514026	99
Es	1.948892	2.347162	1.122847	99
Es	1.733638	1.642669	1.129081	99
Es	2.413758	-1.178019	-0.787595	99
Es	-2.969108	-0.932354	-0.462001	99
Es	1.668832	-0.895377	-1.697900	99
Es	1.289826	1.039700	0.017974	99
Es	-0.013232	-0.401352	-0.334811	99
Es	1.255246	1.414638	-0.615229	99
Es	-1.492804	-0.105740	0.418126	99
Es	1.469460	-1.885173	-1.046583	99
Es	0.825120	-0.389410	-0.050169	99
Es	-0.508824	-0.425928	-0.563116	99
Es	-2.921830	0.220722	-0.800998	99
Es	-1.396163	0.597855	0.668634	99
Es	-2.180917	-0.172477	0.098519	99
Es	-3.394280	-0.070397	0.275730	99
Es	1.064095	0.337177	-0.004941	99
Es	1.272037	-0.776618	-0.533306	99
Es	1.704193	-1.181285	-1.012885	99
Es	-0.520088	-0.202883	-0.770143	99
Es	-0.561378	-0.716063	-0.639861	99
Es	-2.861897	-0.237583	-0.219581	99
Es	1.214080	1.439298	0.657223	99
Es	1.774074	1.290859	1.776811	99
Es	0.849377	-0.715580	0.632899	99
Es	-1.433434	-0.581282	1.008308	99
47
Properties=species:S:1:pos:R:3:Z:I:1 energy=-309.13836007770885 field_type=dipole dipole="0.000000 0.000000 0.000000" charge=0
C	-2.861912	-0.237589	-0.219606	6
C	-1.492922	-0.105679	0.418294	6
O	-0.508892	-0.425979	-0.563426	8
C	0.825288	-0.389439	-0.050056	6
C	1.704198	-1.181299	-1.012906	6
C	1.289858	1.039751	0.018044	6
C	1.733598	1.642631	1.128994	6
H	-3.651322	0.005271	0.497494	1
H	-3.019492	-1.257349	-0.586506	1
H	-2.951302	0.429631	-1.083456	1
H	-1.412842	-0.795359	1.265454	1
H	-1.353322	0.919961	0.774804	1
H	0.861308	-0.876359	0.932704	1
H	1.650118	-0.774429	-2.029556	1
H	1.357798	-2.218929	-1.074926	1
H	2.751308	-1.184499	-0.692726	1
H	1.241318	1.606721	-0.909416	1
H	1.791208	1.120401	2.079214	1
H	2.046008	2.682541	1.107574	1
Es	-1.492802	-0.105740	0.418125	99
Es	-0.520852	-0.206587	-0.774380	99
Es	-1.396236	0.597854	0.668609	99
Es	1.214201	1.439274	0.657173	99
Es	-2.861897	-0.237583	-0.219582	99
Es	-0.013306	-0.399280	-0.334902	99
Es	2.413729	-1.177975	-0.787601	99
Es	1.255191	1.414731	-0.615200	99
Es	-3.394293	-0.070541	0.275759	99
Es	1.469539	-1.885180	-1.046574	99
Es	-2.180920	-0.172632	0.098555	99
Es	0.825121	-0.389411	-0.050169	99
Es	-0.854368	-0.295638	-0.167538	99
Es	1.948959	2.347136	1.122827	99
Es	0.849371	-0.715523	0.632875	99
Es	1.733641	1.642671	1.129079	99
Es	1.704193	-1.181287	-1.012886	99
Es	-1.433366	-0.581227	1.008317	99
Es	-0.560529	-0.717230	-0.634671	99
Es	1.064139	0.337043	-0.004928	99
Es	-2.969082	-0.932271	-0.462138	99
Es	1.820366	1.247402	0.514032	99
Es	1.774021	1.290856	1.776840	99
Es	1.272039	-0.776724	-0.533271	99
Es	-2.921866	0.220839	-0.800915	99
Es	1.668803	-0.895357	-1.697934	99
Es	-0.508783	-0.425759	-0.563092	99
Es	1.289825	1.039699	0.017974	99
