36
Properties=species:S:1:pos:R:3:Z:I:1 energy=-341.42847146758146 field_type=dipole dipole="0.000000 0.000000 0.000000" charge=0
C	-1.708575	-1.229157	-0.003944	6
C	-0.209535	-1.305507	0.004126	6
O	0.412675	-2.359057	0.008896	8
C	0.513746	-0.056007	0.002436	6
C	1.126745	0.977103	0.001736	6
C	1.864125	2.212993	0.001376	6
O	1.278645	3.285842	0.000856	8
H	-2.053804	-0.192097	0.011496	1
H	-2.098165	-1.741127	0.880116	1
H	-2.087355	-1.712157	-0.908764	1
H	2.961495	2.119173	0.001666	1
Es	1.479538	3.524161	0.000820	99
Es	0.188131	-1.955490	0.258431	99
Es	-0.209481	-1.305371	0.004124	99
Es	1.494815	2.867066	-0.250801	99
Es	-1.708499	-1.229159	-0.003944	99
Es	0.412503	-2.358770	0.008902	99
Es	0.721735	-2.323278	0.010127	99
Es	0.514431	0.652310	-0.026093	99
Es	0.215850	-2.603071	0.007716	99
Es	-0.952284	-1.246861	0.000416	99
Es	1.495149	2.867069	0.252530	99
Es	0.513631	-0.056189	0.002438	99
Es	-1.931385	-0.530069	0.006244	99
Es	0.190424	-1.955365	-0.242942	99
Es	0.998530	0.359622	-0.280315	99
Es	1.864050	2.212870	0.001385	99
Es	-1.941312	-1.550801	-0.604134	99
Es	0.955454	0.385199	0.312865	99
Es	-1.949284	-1.570207	0.582593	99
Es	2.599232	2.136999	0.001569	99
Es	1.126863	0.977299	0.001737	99
Es	0.160092	-0.637961	0.002918	99
Es	1.278806	3.285556	0.000858	99
Es	1.486316	1.557986	0.001421	99
Es	0.971516	3.257620	0.001114	99
36
Properties=species:S:1:pos:R:3:Z:I:1 energy=-341.42847146758146 field_type=dipole dipole="0.000000 0.000000 0.000000" charge=0
C	-1.708575	-1.229157	-0.003944	6
C	-0.209535	-1.305507	0.004126	6
O	0.412675	-2.359057	0.008896	8
C	0.513746	-0.056007	0.002436	6
C	1.126745	0.977103	0.001736	6
C	1.864125	2.212993	0.001376	6
O	1.278645	3.285842	0.000856	8
H	-2.053804	-0.192097	0.011496	1
H	-2.098165	-1.741127	0.880116	1
H	-2.087355	-1.712157	-0.908764	1
H	2.961495	2.119173	0.001666	1
Es	-0.952399	-1.246628	0.000587	99
Es	0.556747	0.625228	0.180250	99
Es	0.814226	0.466877	-0.342826	99
Es	0.412481	-2.358781	0.008894	99
Es	0.513629	-0.056195	0.002434	99
Es	1.495946	2.867524	0.252571	99
Es	-1.931467	-0.530089	0.006265	99
Es	0.721477	-2.325441	0.010556	99
Es	0.970415	3.257816	0.001120	99
Es	0.188836	-1.954316	0.258043	99
Es	-1.949243	-1.570276	0.582608	99
Es	-1.708499	-1.229159	-0.003944	99
Es	-0.209482	-1.305370	0.004125	99
Es	0.214471	-2.601819	0.008701	99
Es	1.479610	3.523485	0.000324	99
Es	1.495270	2.867150	-0.250147	99
Es	1.864051	2.212869	0.001370	99
Es	1.126864	0.977301	0.001732	99
Es	0.161029	-0.638535	0.004291	99
Es	-1.941235	-1.550825	-0.604177	99
Es	1.486899	1.557596	0.002089	99
Es	0.191575	-1.955680	-0.244001	99
Es	1.278773	3.285499	0.000855	99
Es	1.095710	0.305919	0.166591	99
Es	2.599135	2.137017	0.001668	99
36
Properties=species:S:1:pos:R:3:Z:I:1 energy=-341.42847146758146 field_type=dipole dipole="0.000000 0.000000 0.000000" charge=0
C	-1.708575	-1.229157	-0.003944	6
C	-0.209535	-1.305507	0.004126	6
O	0.412675	-2.359057	0.008896	8
C	0.513746	-0.056007	0.002436	6
C	1.126745	0.977103	0.001736	6
C	1.864125	2.212993	0.001376	6
O	1.278645	3.285842	0.000856	8
H	-2.053804	-0.192097	0.011496	1
H	-2.098165	-1.741127	0.880116	1
H	-2.087355	-1.712157	-0.908764	1
H	2.961495	2.119173	0.001666	1
Es	1.126840	0.977310	0.001749	99
Es	1.278782	3.285542	0.000853	99
Es	0.550110	0.629685	-0.162547	99
Es	-1.949295	-1.570294	0.582684	99
Es	1.486702	1.557708	0.000758	99
Es	0.720724	-2.321782	0.009590	99
Es	-1.708499	-1.229159	-0.003944	99
Es	1.088602	0.309030	-0.176156	99
Es	0.188799	-1.954509	0.257880	99
Es	0.217066	-2.604436	0.009498	99
Es	0.972100	3.253688	-0.000148	99
Es	-0.209481	-1.305373	0.004127	99
Es	1.495083	2.867617	0.252523	99
Es	0.828314	0.459135	0.346633	99
Es	-1.941191	-1.550786	-0.604280	99
Es	-1.931384	-0.530135	0.006242	99
Es	0.189890	-1.956411	-0.243860	99
Es	1.476568	3.526883	0.001897	99
Es	2.599271	2.136977	0.001494	99
Es	-0.952573	-1.246705	0.000523	99
Es	0.412496	-2.358801	0.008899	99
Es	1.497387	2.867730	-0.250569	99
Es	0.160823	-0.638417	0.002304	99
Es	1.864050	2.212868	0.001381	99
Es	0.513635	-0.056196	0.002445	99
36
Properties=species:S:1:pos:R:3:Z:I:1 energy=-341.42847146758146 field_type=dipole dipole="0.000000 0.000000 0.000000" charge=0
C	-1.708575	-1.229157	-0.003944	6
C	-0.209535	-1.305507	0.004126	6
O	0.412675	-2.359057	0.008896	8
C	0.513746	-0.056007	0.002436	6
C	1.126745	0.977103	0.001736	6
C	1.864125	2.212993	0.001376	6
O	1.278645	3.285842	0.000856	8
H	-2.053804	-0.192097	0.011496	1
H	-2.098165	-1.741127	0.880116	1
H	-2.087355	-1.712157	-0.908764	1
H	2.961495	2.119173	0.001666	1
Es	0.791505	0.480973	0.345918	99
Es	0.412520	-2.358734	0.008895	99
Es	-1.941395	-1.550723	-0.604281	99
Es	1.476813	3.525331	0.000759	99
Es	-0.952473	-1.246791	0.000533	99
Es	0.513628	-0.056192	0.002446	99
Es	2.599239	2.136932	0.001507	99
Es	1.486860	1.557652	0.000862	99
Es	-0.209482	-1.305371	0.004126	99
Es	0.721088	-2.325854	0.009366	99
Es	0.190101	-1.954051	0.258455	99
Es	-1.931302	-0.530141	0.006384	99
Es	1.278780	3.285612	0.000858	99
Es	0.191084	-1.955561	-0.243639	99
Es	-1.708502	-1.229157	-0.003944	99
Es	1.864049	2.212871	0.001381	99
Es	0.214243	-2.601773	0.009040	99
Es	0.569489	0.617417	-0.197862	99
Es	-1.949320	-1.570210	0.582526	99
Es	0.971150	3.254816	0.000589	99
Es	1.496875	2.867626	-0.250615	99
Es	1.126864	0.977301	0.001740	99
Es	1.105504	0.299724	-0.140278	99
Es	0.161163	-0.638619	0.002323	99
Es	1.496336	2.868090	0.252892	99
36
Properties=species:S:1:pos:R:3:Z:I:1 energy=-341.42847146758146 field_type=dipole dipole="0.000000 0.000000 0.000000" charge=0
C	-1.708575	-1.229157	-0.003944	6
C	-0.209535	-1.305507	0.004126	6
O	0.412675	-2.359057	0.008896	8
C	0.513746	-0.056007	0.002436	6
C	1.126745	0.977103	0.001736	6
C	1.864125	2.212993	0.001376	6
O	1.278645	3.285842	0.000856	8
H	-2.053804	-0.192097	0.011496	1
H	-2.098165	-1.741127	0.880116	1
H	-2.087355	-1.712157	-0.908764	1
H	2.961495	2.119173	0.001666	1
Es	0.971642	3.254974	0.001045	99
Es	1.126862	0.977292	0.001735	99
Es	1.278773	3.285503	0.000856	99
Es	-0.209482	-1.305370	0.004125	99
Es	-1.941126	-1.550743	-0.604311	99
Es	-1.708500	-1.229158	-0.003944	99
Es	1.496143	2.867709	0.252605	99
Es	0.720829	-2.323171	0.009733	99
Es	1.864049	2.212871	0.001374	99
Es	0.216265	-2.603456	0.008838	99
Es	1.477226	3.525744	0.000802	99
Es	-0.952621	-1.246617	0.000627	99
Es	0.882115	0.426805	-0.336200	99
Es	1.056078	0.328253	0.228704	99
Es	0.160741	-0.638405	0.003791	99
Es	0.513632	-0.056196	0.002436	99
Es	0.412513	-2.358788	0.008895	99
Es	-1.931420	-0.530118	0.006303	99
Es	-1.949309	-1.570381	0.582643	99
Es	0.188792	-1.954591	0.258331	99
Es	1.495947	2.867549	-0.250536	99
Es	2.599340	2.136946	0.001610	99
Es	1.486398	1.557812	0.001651	99
Es	0.190506	-1.955967	-0.243621	99
Es	0.529424	0.642670	0.112488	99
36
Properties=species:S:1:pos:R:3:Z:I:1 energy=-341.42847146758146 field_type=dipole dipole="0.000000 0.000000 0.000000" charge=0
C	-1.708575	-1.229157	-0.003944	6
C	-0.209535	-1.305507	0.004126	6
O	0.412675	-2.359057	0.008896	8
C	0.513746	-0.056007	0.002436	6
C	1.126745	0.977103	0.001736	6
C	1.864125	2.212993	0.001376	6
O	1.278645	3.285842	0.000856	8
H	-2.053804	-0.192097	0.011496	1
H	-2.098165	-1.741127	0.880116	1
H	-2.087355	-1.712157	-0.908764	1
H	2.961495	2.119173	0.001666	1
Es	0.709792	0.530134	0.325149	99
Es	0.513628	-0.056191	0.002439	99
Es	1.864051	2.212868	0.001368	99
Es	0.161616	-0.638862	0.002845	99
Es	-1.931427	-0.530126	0.006331	99
Es	1.129935	0.286397	-0.052354	99
Es	0.720848	-2.323919	0.010957	99
Es	1.487093	1.557472	0.001263	99
Es	1.278800	3.285536	0.000858	99
Es	0.215846	-2.602898	0.008908	99
Es	1.496191	2.867670	0.252546	99
Es	0.191501	-1.955927	-0.244455	99
Es	1.126856	0.977293	0.001737	99
Es	0.412514	-2.358792	0.008898	99
Es	-1.708497	-1.229158	-0.003943	99
Es	1.495678	2.867301	-0.250724	99
Es	-1.949166	-1.570256	0.582642	99
Es	-0.209482	-1.305370	0.004133	99
Es	-1.941304	-1.550848	-0.604285	99
Es	2.599339	2.136975	0.001557	99
Es	0.625902	0.581986	-0.265949	99
Es	0.971856	3.255273	0.001270	99
Es	0.188504	-1.954459	0.257709	99
Es	-0.952660	-1.246590	0.000500	99
Es	1.477403	3.525659	0.000579	99
36
Properties=species:S:1:pos:R:3:Z:I:1 energy=-341.42847146758146 field_type=dipole dipole="0.000000 0.000000 0.000000" charge=0
C	-1.708575	-1.229157	-0.003944	6
C	-0.209535	-1.305507	0.004126	6
O	0.412675	-2.359057	0.008896	8
C	0.513746	-0.056007	0.002436	6
C	1.126745	0.977103	0.001736	6
C	1.864125	2.212993	0.001376	6
O	1.278645	3.285842	0.000856	8
H	-2.053804	-0.192097	0.011496	1
H	-2.098165	-1.741127	0.880116	1
H	-2.087355	-1.712157	-0.908764	1
H	2.961495	2.119173	0.001666	1
Es	0.412516	-2.358798	0.008895	99
Es	1.486720	1.557601	0.001977	99
Es	2.599389	2.136997	0.001668	99
Es	1.126859	0.977301	0.001732	99
Es	1.864049	2.212871	0.001358	99
Es	-1.949265	-1.570331	0.582677	99
Es	0.190322	-1.956381	-0.243707	99
Es	-0.209482	-1.305371	0.004124	99
Es	0.971073	3.257781	0.000698	99
Es	1.278809	3.285585	0.000857	99
Es	0.720325	-2.321359	0.009848	99
Es	0.161058	-0.638571	0.003981	99
Es	1.495288	2.867172	0.252564	99
Es	0.813358	0.467431	-0.344017	99
Es	0.188416	-1.954613	0.258087	99
Es	0.558169	0.624400	0.181888	99
Es	-1.931393	-0.530102	0.006290	99
Es	-1.708500	-1.229159	-0.003946	99
Es	0.217545	-2.604818	0.009035	99
Es	0.513627	-0.056193	0.002435	99
Es	1.495465	2.867349	-0.250446	99
Es	1.479114	3.523573	0.001005	99
Es	-0.952748	-1.246601	0.000642	99
Es	1.095272	0.306194	0.166651	99
Es	-1.941168	-1.550790	-0.604315	99
36
Properties=species:S:1:pos:R:3:Z:I:1 energy=-341.42847146758146 field_type=dipole dipole="0.000000 0.000000 0.000000" charge=0
C	-1.708575	-1.229157	-0.003944	6
C	-0.209535	-1.305507	0.004126	6
O	0.412675	-2.359057	0.008896	8
C	0.513746	-0.056007	0.002436	6
C	1.126745	0.977103	0.001736	6
C	1.864125	2.212993	0.001376	6
O	1.278645	3.285842	0.000856	8
H	-2.053804	-0.192097	0.011496	1
H	-2.098165	-1.741127	0.880116	1
H	-2.087355	-1.712157	-0.908764	1
H	2.961495	2.119173	0.001666	1
Es	0.189017	-1.955048	0.258536	99
Es	0.412509	-2.358784	0.008891	99
Es	0.513631	-0.056192	0.002436	99
Es	0.971988	3.254899	-0.000447	99
Es	-0.952824	-1.246562	0.000540	99
Es	1.496861	2.867722	-0.250316	99
Es	1.486216	1.557897	0.001728	99
Es	1.126865	0.977296	0.001735	99
Es	2.599413	2.136940	0.001622	99
Es	1.278790	3.285591	0.000859	99
Es	1.494427	2.867242	0.252515	99
Es	-1.949265	-1.570311	0.582738	99
Es	-1.708500	-1.229158	-0.003944	99
Es	1.864048	2.212873	0.001377	99
Es	1.477488	3.526040	0.002025	99
Es	0.519950	0.648771	0.071329	99
Es	-0.209482	-1.305371	0.004126	99
Es	0.720821	-2.324695	0.010328	99
Es	-1.931412	-0.530121	0.006208	99
Es	1.028545	0.343751	0.259158	99
Es	0.160568	-0.638383	0.003691	99
Es	0.191405	-1.954903	-0.243509	99
Es	0.215333	-2.602464	0.007907	99
Es	0.919575	0.404979	-0.325277	99
Es	-1.941148	-1.550838	-0.604277	99
36
Properties=species:S:1:pos:R:3:Z:I:1 energy=-341.42847146758146 field_type=dipole dipole="0.000000 0.000000 0.000000" charge=0
C	-1.708575	-1.229157	-0.003944	6
C	-0.209535	-1.305507	0.004126	6
O	0.412675	-2.359057	0.008896	8
C	0.513746	-0.056007	0.002436	6
C	1.126745	0.977103	0.001736	6
C	1.864125	2.212993	0.001376	6
O	1.278645	3.285842	0.000856	8
H	-2.053804	-0.192097	0.011496	1
H	-2.098165	-1.741127	0.880116	1
H	-2.087355	-1.712157	-0.908764	1
H	2.961495	2.119173	0.001666	1
Es	1.495180	2.867195	0.252735	99
Es	0.190923	-1.956010	-0.243803	99
Es	0.189366	-1.954222	0.258329	99
Es	0.216143	-2.603116	0.009110	99
Es	0.711126	0.529178	-0.322212	99
Es	0.720529	-2.323816	0.009624	99
Es	-1.949229	-1.570325	0.582669	99
Es	0.412426	-2.358758	0.008895	99
Es	1.278782	3.285610	0.000868	99
Es	0.624934	0.582328	0.269077	99
Es	1.487057	1.557520	0.001823	99
Es	-1.931408	-0.530081	0.006300	99
Es	1.479092	3.523237	0.001070	99
Es	1.495616	2.867295	-0.250608	99
Es	1.864052	2.212864	0.001379	99
Es	1.129530	0.286878	0.058447	99
Es	0.971122	3.258109	0.000558	99
Es	1.126864	0.977307	0.001738	99
Es	2.599414	2.136972	0.001596	99
Es	0.513627	-0.056190	0.002435	99
Es	0.161727	-0.638861	0.003521	99
Es	-1.941182	-1.550838	-0.604321	99
Es	-0.209483	-1.305371	0.004128	99
Es	-0.952888	-1.246580	0.000567	99
Es	-1.708501	-1.229158	-0.003944	99
36
Properties=species:S:1:pos:R:3:Z:I:1 energy=-341.42847146758146 field_type=dipole dipole="0.000000 0.000000 0.000000" charge=0
C	-1.708575	-1.229157	-0.003944	6
C	-0.209535	-1.305507	0.004126	6
O	0.412675	-2.359057	0.008896	8
C	0.513746	-0.056007	0.002436	6
C	1.126745	0.977103	0.001736	6
C	1.864125	2.212993	0.001376	6
O	1.278645	3.285842	0.000856	8
H	-2.053804	-0.192097	0.011496	1
H	-2.098165	-1.741127	0.880116	1
H	-2.087355	-1.712157	-0.908764	1
H	2.961495	2.119173	0.001666	1
Es	1.496129	2.867109	0.251874	99
Es	1.486514	1.557702	0.002036	99
Es	0.161072	-0.638620	0.003884	99
Es	0.546463	0.631837	0.157114	99
Es	1.477799	3.524530	0.001562	99
Es	-1.708499	-1.229159	-0.003945	99
Es	1.495925	2.868203	-0.250752	99
Es	1.864049	2.212872	0.001375	99
Es	1.278815	3.285567	0.000853	99
Es	-1.931427	-0.530123	0.006281	99
Es	-0.209480	-1.305373	0.004131	99
Es	1.126863	0.977295	0.001737	99
Es	0.839355	0.451990	-0.344096	99
Es	-1.941220	-1.550875	-0.604303	99
Es	0.970932	3.256077	0.001001	99
Es	-1.949164	-1.570297	0.582734	99
Es	0.720855	-2.324149	0.009852	99
Es	1.081251	0.314097	0.191664	99
Es	0.189166	-1.954352	0.258153	99
Es	0.513628	-0.056191	0.002437	99
Es	0.412514	-2.358782	0.008895	99
Es	0.215795	-2.602736	0.009046	99
Es	2.599452	2.136957	0.001688	99
Es	0.190922	-1.955890	-0.243780	99
Es	-0.952890	-1.246519	0.000536	99
36
Properties=species:S:1:pos:R:3:Z:I:1 energy=-341.42847146758146 field_type=dipole dipole="0.000000 0.000000 0.000000" charge=0
C	-1.708575	-1.229157	-0.003944	6
C	-0.209535	-1.305507	0.004126	6
O	0.412675	-2.359057	0.008896	8
C	0.513746	-0.056007	0.002436	6
C	1.126745	0.977103	0.001736	6
C	1.864125	2.212993	0.001376	6
O	1.278645	3.285842	0.000856	8
H	-2.053804	-0.192097	0.011496	1
H	-2.098165	-1.741127	0.880116	1
H	-2.087355	-1.712157	-0.908764	1
H	2.961495	2.119173	0.001666	1
Es	0.971448	3.257336	0.000702	99
Es	1.478660	3.523982	0.000805	99
Es	1.486621	1.557620	0.001048	99
Es	0.720380	-2.325547	0.009990	99
Es	-1.949234	-1.570385	0.582728	99
Es	0.191561	-1.955529	-0.244257	99
Es	0.556952	0.625471	-0.174291	99
Es	-0.209482	-1.305372	0.004127	99
Es	0.161221	-0.638697	0.002603	99
Es	0.513631	-0.056187	0.002439	99
Es	0.412504	-2.358777	0.008872	99
Es	1.126865	0.977293	0.001733	99
Es	1.495198	2.867345	0.252648	99
Es	0.214584	-2.602241	0.009636	99
Es	2.599481	2.136977	0.001513	99
Es	-1.941204	-1.550743	-0.604360	99
Es	0.190325	-1.953788	0.257718	99
Es	-1.708503	-1.229159	-0.003943	99
Es	0.817428	0.465560	0.349069	99
Es	-1.931311	-0.530068	0.006335	99
Es	1.092420	0.307010	-0.167359	99
Es	-0.953033	-1.246610	0.000474	99
Es	1.495463	2.867225	-0.250476	99
Es	1.864049	2.212869	0.001370	99
Es	1.278796	3.285582	0.000855	99
36
Properties=species:S:1:pos:R:3:Z:I:1 energy=-341.42847146758146 field_type=dipole dipole="0.000000 0.000000 0.000000" charge=0
C	-1.708575	-1.229157	-0.003944	6
C	-0.209535	-1.305507	0.004126	6
O	0.412675	-2.359057	0.008896	8
C	0.513746	-0.056007	0.002436	6
C	1.126745	0.977103	0.001736	6
C	1.864125	2.212993	0.001376	6
O	1.278645	3.285842	0.000856	8
H	-2.053804	-0.192097	0.011496	1
H	-2.098165	-1.741127	0.880116	1
H	-2.087355	-1.712157	-0.908764	1
H	2.961495	2.119173	0.001666	1
Es	-1.941303	-1.550839	-0.604369	99
Es	1.278777	3.285576	0.000856	99
Es	1.495643	2.867504	0.252643	99
Es	-1.708501	-1.229157	-0.003942	99
Es	1.080369	0.314637	0.192814	99
Es	1.864051	2.212869	0.001376	99
Es	0.412544	-2.358755	0.008892	99
Es	0.188749	-1.954320	0.257901	99
Es	-1.949144	-1.570279	0.582835	99
Es	0.840530	0.451266	-0.344479	99
Es	-1.931272	-0.530118	0.006308	99
Es	1.486465	1.557689	0.001839	99
Es	0.217519	-2.604105	0.009619	99
Es	1.477986	3.524391	0.000849	99
Es	-0.953073	-1.246645	0.000486	99
Es	0.971466	3.256582	0.000870	99
Es	2.599500	2.137007	0.001612	99
Es	0.161047	-0.638562	0.003870	99
Es	1.495582	2.867404	-0.250542	99
Es	0.720231	-2.322184	0.009854	99
Es	1.126861	0.977298	0.001733	99
Es	0.513638	-0.056195	0.002439	99
Es	-0.209483	-1.305370	0.004123	99
Es	0.190341	-1.956494	-0.244123	99
Es	0.546294	0.631965	0.156515	99
36
Properties=species:S:1:pos:R:3:Z:I:1 energy=-341.42847146758146 field_type=dipole dipole="0.000000 0.000000 0.000000" charge=0
C	-1.708575	-1.229157	-0.003944	6
C	-0.209535	-1.305507	0.004126	6
O	0.412675	-2.359057	0.008896	8
C	0.513746	-0.056007	0.002436	6
C	1.126745	0.977103	0.001736	6
C	1.864125	2.212993	0.001376	6
O	1.278645	3.285842	0.000856	8
H	-2.053804	-0.192097	0.011496	1
H	-2.098165	-1.741127	0.880116	1
H	-2.087355	-1.712157	-0.908764	1
H	2.961495	2.119173	0.001666	1
Es	2.599530	2.136904	0.001538	99
Es	0.513632	-0.056191	0.002440	99
Es	1.278783	3.285554	0.000859	99
Es	0.217046	-2.603870	0.008512	99
Es	0.160717	-0.638514	0.002992	99
Es	0.515530	0.651774	-0.032533	99
Es	-0.209482	-1.305371	0.004118	99
Es	0.950202	0.388332	0.316551	99
Es	1.486093	1.557844	0.001432	99
Es	0.720011	-2.322825	0.009697	99
Es	1.496371	2.867770	-0.250495	99
Es	0.971606	3.255760	0.000175	99
Es	-1.949191	-1.570327	0.582772	99
Es	1.864049	2.212872	0.001378	99
Es	0.412506	-2.358776	0.008896	99
Es	1.477293	3.524939	0.001298	99
Es	-1.931328	-0.530014	0.006244	99
Es	0.189020	-1.954752	0.258623	99
Es	1.495298	2.867482	0.252740	99
Es	-0.953088	-1.246582	0.000449	99
Es	0.190633	-1.955662	-0.243567	99
Es	-1.708503	-1.229157	-0.003944	99
Es	1.126859	0.977289	0.001739	99
Es	1.002434	0.357531	-0.277659	99
Es	-1.941204	-1.550843	-0.604276	99
36
Properties=species:S:1:pos:R:3:Z:I:1 energy=-341.42847146758146 field_type=dipole dipole="0.000000 0.000000 0.000000" charge=0
C	-1.708575	-1.229157	-0.003944	6
C	-0.209535	-1.305507	0.004126	6
O	0.412675	-2.359057	0.008896	8
C	0.513746	-0.056007	0.002436	6
C	1.126745	0.977103	0.001736	6
C	1.864125	2.212993	0.001376	6
O	1.278645	3.285842	0.000856	8
H	-2.053804	-0.192097	0.011496	1
H	-2.098165	-1.741127	0.880116	1
H	-2.087355	-1.712157	-0.908764	1
H	2.961495	2.119173	0.001666	1
Es	1.477306	3.525026	0.000712	99
Es	-1.931334	-0.530099	0.006243	99
Es	0.412503	-2.358743	0.008895	99
Es	1.864055	2.212866	0.001377	99
Es	0.214780	-2.601846	0.008605	99
Es	0.971824	3.255845	0.000707	99
Es	1.486900	1.557499	0.001708	99
Es	0.719287	0.524173	-0.325935	99
Es	-1.949176	-1.570301	0.582833	99
Es	2.599506	2.136976	0.001573	99
Es	1.495813	2.867636	0.252826	99
Es	0.720692	-2.325718	0.009893	99
Es	-1.941193	-1.550886	-0.604368	99
Es	-0.953223	-1.246441	0.000504	99
Es	1.127828	0.287871	0.068679	99
Es	0.189748	-1.954082	0.258313	99
Es	-1.708501	-1.229157	-0.003944	99
Es	1.126855	0.977295	0.001737	99
Es	1.495882	2.867436	-0.250425	99
Es	0.191873	-1.955465	-0.243531	99
Es	0.618603	0.586307	0.262654	99
Es	-0.209483	-1.305372	0.004138	99
Es	1.278789	3.285542	0.000856	99
Es	0.513629	-0.056187	0.002437	99
Es	0.161857	-0.639005	0.003492	99
36
Properties=species:S:1:pos:R:3:Z:I:1 energy=-341.42847146758146 field_type=dipole dipole="0.000000 0.000000 0.000000" charge=0
C	-1.708575	-1.229157	-0.003944	6
C	-0.209535	-1.305507	0.004126	6
O	0.412675	-2.359057	0.008896	8
C	0.513746	-0.056007	0.002436	6
C	1.126745	0.977103	0.001736	6
C	1.864125	2.212993	0.001376	6
O	1.278645	3.285842	0.000856	8
H	-2.053804	-0.192097	0.011496	1
H	-2.098165	-1.741127	0.880116	1
H	-2.087355	-1.712157	-0.908764	1
H	2.961495	2.119173	0.001666	1
Es	0.412526	-2.358810	0.008889	99
Es	-0.953229	-1.246401	0.000498	99
Es	1.126858	0.977295	0.001736	99
Es	0.971357	3.259797	0.000419	99
Es	-1.708499	-1.229158	-0.003944	99
Es	1.278768	3.285611	0.000852	99
Es	1.494898	2.866591	-0.250306	99
Es	1.864049	2.212871	0.001368	99
Es	0.218348	-2.604811	0.008698	99
Es	0.188369	-1.954856	0.258221	99
Es	0.513636	-0.056186	0.002439	99
Es	1.494279	2.867256	0.253072	99
Es	0.161621	-0.638873	0.002747	99
Es	0.719891	-2.321161	0.009905	99
Es	0.190387	-1.956245	-0.243705	99
Es	0.772768	0.492099	0.345435	99
Es	-0.209484	-1.305370	0.004127	99
Es	1.480162	3.522209	0.000551	99
Es	-1.949162	-1.570392	0.582750	99
Es	2.599573	2.136955	0.001488	99
Es	0.581982	0.609595	-0.215133	99
Es	1.486665	1.557614	0.001163	99
Es	-1.931366	-0.530112	0.006365	99
Es	1.111579	0.296468	-0.123185	99
Es	-1.941158	-1.550818	-0.604472	99
36
Properties=species:S:1:pos:R:3:Z:I:1 energy=-341.42847146758146 field_type=dipole dipole="0.000000 0.000000 0.000000" charge=0
C	-1.708575	-1.229157	-0.003944	6
C	-0.209535	-1.305507	0.004126	6
O	0.412675	-2.359057	0.008896	8
C	0.513746	-0.056007	0.002436	6
C	1.126745	0.977103	0.001736	6
C	1.864125	2.212993	0.001376	6
O	1.278645	3.285842	0.000856	8
H	-2.053804	-0.192097	0.011496	1
H	-2.098165	-1.741127	0.880116	1
H	-2.087355	-1.712157	-0.908764	1
H	2.961495	2.119173	0.001666	1
Es	0.971693	3.257418	0.000510	99
Es	1.495186	2.867592	0.253107	99
Es	1.278767	3.285482	0.000856	99
Es	0.513634	-0.056191	0.002435	99
Es	-1.941116	-1.550871	-0.604449	99
Es	0.780423	0.487099	-0.342880	99
Es	-0.209483	-1.305370	0.004125	99
Es	-0.953294	-1.246515	0.000690	99
Es	0.192545	-1.955524	-0.243859	99
Es	1.864050	2.212870	0.001374	99
Es	0.577388	0.612249	0.212272	99
Es	1.108613	0.298766	0.135788	99
Es	1.486601	1.557667	0.001651	99
Es	-1.949196	-1.570356	0.582727	99
Es	0.720485	-2.326580	0.010119	99
Es	1.495687	2.867146	-0.250505	99
Es	0.412512	-2.358754	0.008894	99
Es	2.599567	2.136887	0.001605	99
Es	0.161529	-0.638856	0.003720	99
Es	0.189875	-1.953572	0.258218	99
Es	-1.931329	-0.530013	0.006316	99
Es	-1.708503	-1.229159	-0.003943	99
Es	0.214193	-2.601405	0.008716	99
Es	1.478133	3.523859	0.000757	99
Es	1.126858	0.977297	0.001734	99
36
Properties=species:S:1:pos:R:3:Z:I:1 energy=-341.42847146758146 field_type=dipole dipole="0.000000 0.000000 0.000000" charge=0
C	-1.708575	-1.229157	-0.003944	6
C	-0.209535	-1.305507	0.004126	6
O	0.412675	-2.359057	0.008896	8
C	0.513746	-0.056007	0.002436	6
C	1.126745	0.977103	0.001736	6
C	1.864125	2.212993	0.001376	6
O	1.278645	3.285842	0.000856	8
H	-2.053804	-0.192097	0.011496	1
H	-2.098165	-1.741127	0.880116	1
H	-2.087355	-1.712157	-0.908764	1
H	2.961495	2.119173	0.001666	1
Es	1.100045	0.302856	-0.150834	99
Es	0.513631	-0.056187	0.002435	99
Es	0.971491	3.256721	0.001281	99
Es	0.566434	0.619458	-0.191224	99
Es	-1.941099	-1.550834	-0.604448	99
Es	1.486543	1.557659	0.001300	99
Es	-1.931346	-0.530013	0.006334	99
Es	-1.949180	-1.570411	0.582735	99
Es	1.477523	3.524080	0.000716	99
Es	1.126856	0.977297	0.001738	99
Es	0.412544	-2.358829	0.008893	99
Es	1.278801	3.285555	0.000856	99
Es	1.495649	2.867273	-0.250933	99
Es	0.161472	-0.638837	0.002647	99
Es	1.495875	2.867836	0.252567	99
Es	0.800203	0.475719	0.349154	99
Es	0.720452	-2.326120	0.010069	99
Es	2.599608	2.136941	0.001508	99
Es	1.864051	2.212869	0.001378	99
Es	-1.708505	-1.229159	-0.003946	99
Es	0.189944	-1.954074	0.258295	99
Es	-0.953368	-1.246461	0.000516	99
Es	-0.209484	-1.305371	0.004126	99
Es	0.192004	-1.955268	-0.243824	99
Es	0.214673	-2.601531	0.008638	99
36
Properties=species:S:1:pos:R:3:Z:I:1 energy=-341.42847146758146 field_type=dipole dipole="0.000000 0.000000 0.000000" charge=0
C	-1.708575	-1.229157	-0.003944	6
C	-0.209535	-1.305507	0.004126	6
O	0.412675	-2.359057	0.008896	8
C	0.513746	-0.056007	0.002436	6
C	1.126745	0.977103	0.001736	6
C	1.864125	2.212993	0.001376	6
O	1.278645	3.285842	0.000856	8
H	-2.053804	-0.192097	0.011496	1
H	-2.098165	-1.741127	0.880116	1
H	-2.087355	-1.712157	-0.908764	1
H	2.961495	2.119173	0.001666	1
Es	-0.209478	-1.305373	0.004122	99
Es	0.216881	-2.603405	0.008918	99
Es	1.278782	3.285558	0.000857	99
Es	0.189284	-1.954362	0.258421	99
Es	0.412471	-2.358794	0.008894	99
Es	1.495097	2.867269	-0.250745	99
Es	1.477903	3.523955	0.000586	99
Es	-1.931317	-0.530078	0.006271	99
Es	0.161087	-0.638741	0.003648	99
Es	-0.953360	-1.246441	0.000595	99
Es	1.864051	2.212870	0.001376	99
Es	2.599635	2.136939	0.001607	99
Es	1.126859	0.977293	0.001734	99
Es	-1.941135	-1.550880	-0.604439	99
Es	0.876350	0.430198	-0.339837	99
Es	0.719924	-2.323427	0.009739	99
Es	0.513632	-0.056189	0.002435	99
Es	1.495765	2.867592	0.252679	99
Es	1.486203	1.557727	0.001647	99
Es	1.058370	0.327056	0.224474	99
Es	0.190992	-1.955800	-0.243823	99
Es	-1.949197	-1.570343	0.582813	99
Es	0.971654	3.257104	0.001280	99
Es	0.532868	0.640601	0.120671	99
Es	-1.708503	-1.229159	-0.003944	99
36
Properties=species:S:1:pos:R:3:Z:I:1 energy=-341.42847146758146 field_type=dipole dipole="0.000000 0.000000 0.000000" charge=0
C	-1.708575	-1.229157	-0.003944	6
C	-0.209535	-1.305507	0.004126	6
O	0.412675	-2.359057	0.008896	8
C	0.513746	-0.056007	0.002436	6
C	1.126745	0.977103	0.001736	6
C	1.864125	2.212993	0.001376	6
O	1.278645	3.285842	0.000856	8
H	-2.053804	-0.192097	0.011496	1
H	-2.098165	-1.741127	0.880116	1
H	-2.087355	-1.712157	-0.908764	1
H	2.961495	2.119173	0.001666	1
Es	-1.941109	-1.550847	-0.604542	99
Es	1.478418	3.523212	0.001043	99
Es	1.278803	3.285591	0.000860	99
Es	1.495228	2.867460	-0.250852	99
Es	0.412576	-2.358885	0.008897	99
Es	-1.949137	-1.570426	0.582788	99
Es	0.971409	3.257959	0.000920	99
Es	1.486023	1.557761	0.001546	99
Es	0.990677	0.365283	0.291407	99
Es	1.495263	2.867269	0.252582	99
Es	0.216311	-2.602684	0.008879	99
Es	1.864050	2.212870	0.001376	99
Es	-0.953489	-1.246436	0.000589	99
Es	0.962861	0.380104	-0.305433	99
Es	0.189330	-1.954336	0.258303	99
Es	0.720169	-2.324168	0.009884	99
Es	-0.209484	-1.305371	0.004125	99
Es	-1.931292	-0.530026	0.006381	99
Es	0.513634	-0.056192	0.002438	99
Es	-1.708504	-1.229159	-0.003941	99
Es	1.126857	0.977290	0.001742	99
Es	0.191133	-1.955711	-0.243871	99
Es	0.514572	0.652384	0.019949	99
Es	2.599644	2.136920	0.001589	99
Es	0.160877	-0.638694	0.003319	99
36
Properties=species:S:1:pos:R:3:Z:I:1 energy=-341.42847146758146 field_type=dipole dipole="0.000000 0.000000 0.000000" charge=0
C	-1.708575	-1.229157	-0.003944	6
C	-0.209535	-1.305507	0.004126	6
O	0.412675	-2.359057	0.008896	8
C	0.513746	-0.056007	0.002436	6
C	1.126745	0.977103	0.001736	6
C	1.864125	2.212993	0.001376	6
O	1.278645	3.285842	0.000856	8
H	-2.053804	-0.192097	0.011496	1
H	-2.098165	-1.741127	0.880116	1
H	-2.087355	-1.712157	-0.908764	1
H	2.961495	2.119173	0.001666	1
Es	1.495296	2.867102	-0.250590	99
Es	-1.941110	-1.550910	-0.604516	99
Es	1.126855	0.977295	0.001733	99
Es	0.412513	-2.358779	0.008893	99
Es	1.864049	2.212870	0.001378	99
Es	0.189102	-1.954099	0.257985	99
Es	1.495113	2.867464	0.253113	99
Es	1.486530	1.557645	0.001682	99
Es	0.971577	3.258297	0.000629	99
Es	0.191347	-1.956078	-0.244025	99
Es	0.576324	0.612908	0.210502	99
Es	1.478490	3.523084	0.000689	99
Es	-1.931306	-0.530039	0.006316	99
Es	-1.949135	-1.570354	0.582813	99
Es	-0.953534	-1.246388	0.000667	99
Es	-0.209485	-1.305369	0.004124	99
Es	2.599638	2.136938	0.001573	99
Es	0.513633	-0.056187	0.002435	99
Es	0.720045	-2.323702	0.010109	99
Es	0.161705	-0.638931	0.003679	99
Es	-1.708506	-1.229157	-0.003943	99
Es	0.216714	-2.603137	0.009130	99
Es	0.782841	0.485634	-0.343750	99
Es	1.107302	0.299524	0.138496	99
Es	1.278820	3.285535	0.000857	99
36
Properties=species:S:1:pos:R:3:Z:I:1 energy=-341.42847146758146 field_type=dipole dipole="0.000000 0.000000 0.000000" charge=0
C	-1.708575	-1.229157	-0.003944	6
C	-0.209535	-1.305507	0.004126	6
O	0.412675	-2.359057	0.008896	8
C	0.513746	-0.056007	0.002436	6
C	1.126745	0.977103	0.001736	6
C	1.864125	2.212993	0.001376	6
O	1.278645	3.285842	0.000856	8
H	-2.053804	-0.192097	0.011496	1
H	-2.098165	-1.741127	0.880116	1
H	-2.087355	-1.712157	-0.908764	1
H	2.961495	2.119173	0.001666	1
Es	0.190957	-1.955233	-0.243328	99
Es	0.963835	0.379588	-0.304658	99
Es	0.189851	-1.954605	0.258724	99
Es	1.477868	3.524106	0.001265	99
Es	1.495446	2.867407	-0.250938	99
Es	1.494743	2.867199	0.252852	99
Es	1.126847	0.977288	0.001734	99
Es	-1.941134	-1.550948	-0.604418	99
Es	1.864050	2.212871	0.001376	99
Es	-0.953558	-1.246386	0.000439	99
Es	1.278763	3.285559	0.000860	99
Es	0.513632	-0.056188	0.002435	99
Es	2.599681	2.136915	0.001610	99
Es	0.514479	0.652483	0.018280	99
Es	0.216073	-2.602411	0.008529	99
Es	-0.209486	-1.305371	0.004125	99
Es	0.720215	-2.324708	0.009376	99
Es	-1.708503	-1.229159	-0.003941	99
Es	0.989812	0.365799	0.292278	99
Es	-1.931362	-0.530019	0.006275	99
Es	1.486017	1.557703	0.001541	99
Es	0.412492	-2.358784	0.008894	99
Es	0.972228	3.257213	0.000522	99
Es	0.160927	-0.638767	0.003269	99
Es	-1.949052	-1.570385	0.582878	99
