48
Properties=species:S:1:pos:R:3:Z:I:1 energy=-346.1711444490721 field_type=dipole dipole="0.000000 0.000000 0.000000" charge=0
C	-1.809993	-1.023312	-0.000164	6
C	-0.299493	-0.877602	0.149986	6
O	0.326007	-1.823972	-0.725064	8
C	0.231347	0.539538	-0.165604	6
C	-0.424233	1.610708	0.707316	6
C	1.759927	0.607798	0.003316	6
O	2.422297	-0.216912	-0.946784	8
H	-2.351743	-0.440502	0.749676	1
H	-2.103803	-2.073332	0.107766	1
H	-2.137133	-0.705942	-0.996284	1
H	-0.017403	-1.159172	1.170956	1
H	-0.041363	-1.683652	-1.618124	1
H	0.010957	0.755978	-1.219764	1
H	-0.284903	1.393948	1.771716	1
H	-1.497793	1.684958	0.509536	1
H	0.007697	2.596648	0.503846	1
H	2.064457	0.293878	1.007606	1
H	2.119517	1.630368	-0.151694	1
H	2.025657	-1.109432	-0.858244	1
Es	-0.041637	-0.163111	-0.003071	99
Es	-2.003306	-1.733870	0.076148	99
Es	-0.299422	-0.877745	0.149802	99
Es	-1.155568	1.655852	0.572880	99
Es	0.325793	-1.823695	-0.725183	99
Es	-0.103299	-1.066855	0.849219	99
Es	2.721945	-0.222798	-0.865016	99
Es	0.230225	-2.101003	-0.636333	99
Es	-2.022699	-0.801935	-0.684711	99
Es	2.422085	-0.217046	-0.946515	99
Es	1.759980	0.607657	0.003167	99
Es	0.638324	-1.749738	-0.739834	99
Es	-2.172533	-0.623236	0.508360	99
Es	0.231329	0.539538	-0.165550	99
Es	1.953859	0.392133	0.707240	99
Es	-0.424220	1.610682	0.707304	99
Es	2.219257	-0.673002	-0.881646	99
Es	0.073776	0.682101	-0.888382	99
Es	-1.068067	-0.937465	0.072595	99
Es	-0.326936	1.455902	1.432406	99
Es	1.996558	1.314153	-0.100316	99
Es	2.328463	-0.111658	-1.221036	99
Es	2.155678	0.079532	-0.573769	99
Es	-0.104249	1.071244	0.279480	99
Es	0.084642	-1.459940	-0.419419	99
Es	-0.124978	2.277456	0.566664	99
Es	0.118466	-1.729895	-1.196791	99
Es	0.983237	0.566299	-0.072677	99
Es	-1.809980	-1.023297	-0.000168	99
48
Properties=species:S:1:pos:R:3:Z:I:1 energy=-346.1711444490721 field_type=dipole dipole="0.000000 0.000000 0.000000" charge=0
C	-1.809993	-1.023312	-0.000164	6
C	-0.299493	-0.877602	0.149986	6
O	0.326007	-1.823972	-0.725064	8
C	0.231347	0.539538	-0.165604	6
C	-0.424233	1.610708	0.707316	6
C	1.759927	0.607798	0.003316	6
O	2.422297	-0.216912	-0.946784	8
H	-2.351743	-0.440502	0.749676	1
H	-2.103803	-2.073332	0.107766	1
H	-2.137133	-0.705942	-0.996284	1
H	-0.017403	-1.159172	1.170956	1
H	-0.041363	-1.683652	-1.618124	1
H	0.010957	0.755978	-1.219764	1
H	-0.284903	1.393948	1.771716	1
H	-1.497793	1.684958	0.509536	1
H	0.007697	2.596648	0.503846	1
H	2.064457	0.293878	1.007606	1
H	2.119517	1.630368	-0.151694	1
H	2.025657	-1.109432	-0.858244	1
Es	-0.326890	1.455987	1.432456	99
Es	0.983284	0.566540	-0.072672	99
Es	0.084659	-1.459746	-0.419049	99
Es	2.721567	-0.222113	-0.866405	99
Es	-0.299421	-0.877740	0.149799	99
Es	-1.809983	-1.023295	-0.000169	99
Es	-2.022695	-0.801883	-0.684618	99
Es	-1.155499	1.655822	0.572961	99
Es	2.422148	-0.216986	-0.946659	99
Es	2.220485	-0.673286	-0.880720	99
Es	-2.003338	-1.733857	0.076021	99
Es	0.230256	-2.100517	-0.636642	99
Es	2.326989	-0.112230	-1.221126	99
Es	-2.172580	-0.623293	0.508391	99
Es	0.073895	0.682006	-0.888263	99
Es	1.953801	0.392139	0.707257	99
Es	-1.067908	-0.937420	0.072590	99
Es	-0.125064	2.277467	0.566560	99
Es	1.996606	1.314138	-0.100313	99
Es	0.638314	-1.750199	-0.740021	99
Es	-0.104529	1.071202	0.279402	99
Es	0.325820	-1.823728	-0.725165	99
Es	2.156227	0.079575	-0.573061	99
Es	0.118391	-1.730077	-1.196780	99
Es	-0.424220	1.610682	0.707304	99
Es	-0.103335	-1.066907	0.849270	99
Es	0.231328	0.539539	-0.165551	99
Es	1.759980	0.607658	0.003166	99
Es	-0.041563	-0.163218	-0.003116	99
48
Properties=species:S:1:pos:R:3:Z:I:1 energy=-346.1711444490721 field_type=dipole dipole="0.000000 0.000000 0.000000" charge=0
C	-1.809993	-1.023312	-0.000164	6
C	-0.299493	-0.877602	0.149986	6
O	0.326007	-1.823972	-0.725064	8
C	0.231347	0.539538	-0.165604	6
C	-0.424233	1.610708	0.707316	6
C	1.759927	0.607798	0.003316	6
O	2.422297	-0.216912	-0.946784	8
H	-2.351743	-0.440502	0.749676	1
H	-2.103803	-2.073332	0.107766	1
H	-2.137133	-0.705942	-0.996284	1
H	-0.017403	-1.159172	1.170956	1
H	-0.041363	-1.683652	-1.618124	1
H	0.010957	0.755978	-1.219764	1
H	-0.284903	1.393948	1.771716	1
H	-1.497793	1.684958	0.509536	1
H	0.007697	2.596648	0.503846	1
H	2.064457	0.293878	1.007606	1
H	2.119517	1.630368	-0.151694	1
H	2.025657	-1.109432	-0.858244	1
Es	-0.125034	2.277477	0.566683	99
Es	-1.809981	-1.023296	-0.000170	99
Es	-0.327032	1.455916	1.432465	99
Es	2.327388	-0.112260	-1.220212	99
Es	0.231328	0.539538	-0.165551	99
Es	0.983259	0.566398	-0.072708	99
Es	-2.003394	-1.733872	0.076146	99
Es	-0.104444	1.071294	0.279417	99
Es	1.996544	1.314163	-0.100283	99
Es	-2.022714	-0.801925	-0.684654	99
Es	0.119766	-1.728835	-1.197334	99
Es	0.637919	-1.752348	-0.739004	99
Es	2.219847	-0.673250	-0.881446	99
Es	2.156004	0.079735	-0.573179	99
Es	0.227994	-2.100187	-0.637118	99
Es	2.722186	-0.222262	-0.866607	99
Es	1.953821	0.392195	0.707189	99
Es	-0.299424	-0.877742	0.149807	99
Es	-1.155429	1.655883	0.572870	99
Es	-0.041591	-0.163228	-0.003137	99
Es	-0.424220	1.610682	0.707304	99
Es	0.073859	0.681960	-0.888223	99
Es	-1.067843	-0.937334	0.072651	99
Es	2.422046	-0.217009	-0.946563	99
Es	0.326104	-1.823904	-0.725107	99
Es	1.759980	0.607658	0.003168	99
Es	-2.172563	-0.623311	0.508215	99
Es	0.085694	-1.459023	-0.419078	99
Es	-0.103349	-1.066855	0.849311	99
48
Properties=species:S:1:pos:R:3:Z:I:1 energy=-346.1711444490721 field_type=dipole dipole="0.000000 0.000000 0.000000" charge=0
C	-1.809993	-1.023312	-0.000164	6
C	-0.299493	-0.877602	0.149986	6
O	0.326007	-1.823972	-0.725064	8
C	0.231347	0.539538	-0.165604	6
C	-0.424233	1.610708	0.707316	6
C	1.759927	0.607798	0.003316	6
O	2.422297	-0.216912	-0.946784	8
H	-2.351743	-0.440502	0.749676	1
H	-2.103803	-2.073332	0.107766	1
H	-2.137133	-0.705942	-0.996284	1
H	-0.017403	-1.159172	1.170956	1
H	-0.041363	-1.683652	-1.618124	1
H	0.010957	0.755978	-1.219764	1
H	-0.284903	1.393948	1.771716	1
H	-1.497793	1.684958	0.509536	1
H	0.007697	2.596648	0.503846	1
H	2.064457	0.293878	1.007606	1
H	2.119517	1.630368	-0.151694	1
H	2.025657	-1.109432	-0.858244	1
Es	0.637964	-1.747680	-0.740784	99
Es	-0.104373	1.071281	0.279441	99
Es	-0.327104	1.455933	1.432432	99
Es	0.117280	-1.731156	-1.196479	99
Es	2.422092	-0.217026	-0.946588	99
Es	0.325860	-1.823686	-0.725204	99
Es	-2.003406	-1.733778	0.076159	99
Es	1.953833	0.392213	0.707195	99
Es	1.759980	0.607658	0.003167	99
Es	0.233316	-2.100633	-0.636843	99
Es	-2.172576	-0.623245	0.508262	99
Es	-0.041556	-0.163175	-0.003111	99
Es	0.231328	0.539538	-0.165551	99
Es	-1.155406	1.655897	0.572854	99
Es	1.996522	1.314113	-0.100254	99
Es	-1.067822	-0.937425	0.072661	99
Es	2.155250	0.080025	-0.573734	99
Es	-0.125045	2.277488	0.566748	99
Es	-0.424220	1.610683	0.707304	99
Es	0.073847	0.681957	-0.888206	99
Es	-0.299423	-0.877743	0.149805	99
Es	2.219834	-0.673198	-0.881706	99
Es	2.721360	-0.222658	-0.865047	99
Es	-1.809982	-1.023296	-0.000169	99
Es	-2.022749	-0.802020	-0.684634	99
Es	2.328965	-0.112183	-1.220965	99
Es	0.083053	-1.461161	-0.418346	99
Es	0.983239	0.566387	-0.072753	99
Es	-0.103340	-1.066852	0.849196	99
48
Properties=species:S:1:pos:R:3:Z:I:1 energy=-346.1711444490721 field_type=dipole dipole="0.000000 0.000000 0.000000" charge=0
C	-1.809993	-1.023312	-0.000164	6
C	-0.299493	-0.877602	0.149986	6
O	0.326007	-1.823972	-0.725064	8
C	0.231347	0.539538	-0.165604	6
C	-0.424233	1.610708	0.707316	6
C	1.759927	0.607798	0.003316	6
O	2.422297	-0.216912	-0.946784	8
H	-2.351743	-0.440502	0.749676	1
H	-2.103803	-2.073332	0.107766	1
H	-2.137133	-0.705942	-0.996284	1
H	-0.017403	-1.159172	1.170956	1
H	-0.041363	-1.683652	-1.618124	1
H	0.010957	0.755978	-1.219764	1
H	-0.284903	1.393948	1.771716	1
H	-1.497793	1.684958	0.509536	1
H	0.007697	2.596648	0.503846	1
H	2.064457	0.293878	1.007606	1
H	2.119517	1.630368	-0.151694	1
H	2.025657	-1.109432	-0.858244	1
Es	-1.809983	-1.023297	-0.000169	99
Es	-0.103329	-1.066818	0.849091	99
Es	-0.327042	1.456010	1.432380	99
Es	2.154963	0.080008	-0.573791	99
Es	0.231328	0.539538	-0.165551	99
Es	2.721239	-0.222443	-0.865079	99
Es	0.117620	-1.731407	-1.197085	99
Es	-0.104414	1.071158	0.279342	99
Es	1.996551	1.314085	-0.100257	99
Es	-1.067881	-0.937566	0.072887	99
Es	-0.424220	1.610683	0.707304	99
Es	0.073899	0.681990	-0.888203	99
Es	1.953826	0.392250	0.707189	99
Es	-2.003469	-1.733801	0.076070	99
Es	-0.299422	-0.877744	0.149804	99
Es	-2.022580	-0.801961	-0.684643	99
Es	0.325817	-1.823702	-0.725183	99
Es	0.983229	0.566410	-0.072697	99
Es	0.232077	-2.100255	-0.635919	99
Es	-0.041609	-0.163114	-0.003141	99
Es	2.219825	-0.673479	-0.882085	99
Es	-0.125085	2.277439	0.566750	99
Es	1.759983	0.607654	0.003164	99
Es	2.329403	-0.112137	-1.220566	99
Es	0.637343	-1.749440	-0.740719	99
Es	2.422062	-0.217026	-0.946510	99
Es	-2.172644	-0.623223	0.508225	99
Es	-1.155414	1.655974	0.572995	99
Es	0.084649	-1.459528	-0.418755	99
48
Properties=species:S:1:pos:R:3:Z:I:1 energy=-346.1711444490721 field_type=dipole dipole="0.000000 0.000000 0.000000" charge=0
C	-1.809993	-1.023312	-0.000164	6
C	-0.299493	-0.877602	0.149986	6
O	0.326007	-1.823972	-0.725064	8
C	0.231347	0.539538	-0.165604	6
C	-0.424233	1.610708	0.707316	6
C	1.759927	0.607798	0.003316	6
O	2.422297	-0.216912	-0.946784	8
H	-2.351743	-0.440502	0.749676	1
H	-2.103803	-2.073332	0.107766	1
H	-2.137133	-0.705942	-0.996284	1
H	-0.017403	-1.159172	1.170956	1
H	-0.041363	-1.683652	-1.618124	1
H	0.010957	0.755978	-1.219764	1
H	-0.284903	1.393948	1.771716	1
H	-1.497793	1.684958	0.509536	1
H	0.007697	2.596648	0.503846	1
H	2.064457	0.293878	1.007606	1
H	2.119517	1.630368	-0.151694	1
H	2.025657	-1.109432	-0.858244	1
Es	-2.003388	-1.733819	0.076179	99
Es	1.996636	1.314138	-0.100209	99
Es	1.759979	0.607660	0.003169	99
Es	2.421943	-0.216996	-0.946614	99
Es	0.325788	-1.823754	-0.725152	99
Es	0.118950	-1.730066	-1.197400	99
Es	2.720289	-0.223440	-0.863548	99
Es	-2.022787	-0.802032	-0.684598	99
Es	0.084873	-1.459322	-0.418595	99
Es	0.231329	0.539538	-0.165551	99
Es	2.331203	-0.111755	-1.221408	99
Es	0.638085	-1.751728	-0.739442	99
Es	-2.172564	-0.623256	0.508236	99
Es	0.073866	0.681835	-0.888144	99
Es	-0.103294	-1.066846	0.849114	99
Es	2.219400	-0.673183	-0.882557	99
Es	0.983169	0.566516	-0.072801	99
Es	0.229769	-2.099445	-0.637114	99
Es	1.953734	0.392287	0.707068	99
Es	-0.299424	-0.877741	0.149809	99
Es	-0.104487	1.071086	0.279347	99
Es	-0.125057	2.277522	0.566767	99
Es	-1.067863	-0.937362	0.072704	99
Es	-1.155352	1.655973	0.573040	99
Es	2.154712	0.080219	-0.573837	99
Es	-0.424220	1.610683	0.707304	99
Es	-1.809983	-1.023297	-0.000170	99
Es	-0.327151	1.456077	1.432297	99
Es	-0.041434	-0.163232	-0.003043	99
48
Properties=species:S:1:pos:R:3:Z:I:1 energy=-346.1711444490721 field_type=dipole dipole="0.000000 0.000000 0.000000" charge=0
C	-1.809993	-1.023312	-0.000164	6
C	-0.299493	-0.877602	0.149986	6
O	0.326007	-1.823972	-0.725064	8
C	0.231347	0.539538	-0.165604	6
C	-0.424233	1.610708	0.707316	6
C	1.759927	0.607798	0.003316	6
O	2.422297	-0.216912	-0.946784	8
H	-2.351743	-0.440502	0.749676	1
H	-2.103803	-2.073332	0.107766	1
H	-2.137133	-0.705942	-0.996284	1
H	-0.017403	-1.159172	1.170956	1
H	-0.041363	-1.683652	-1.618124	1
H	0.010957	0.755978	-1.219764	1
H	-0.284903	1.393948	1.771716	1
H	-1.497793	1.684958	0.509536	1
H	0.007697	2.596648	0.503846	1
H	2.064457	0.293878	1.007606	1
H	2.119517	1.630368	-0.151694	1
H	2.025657	-1.109432	-0.858244	1
Es	-0.104407	1.071308	0.279286	99
Es	2.154706	0.080602	-0.573879	99
Es	-0.125113	2.277547	0.566856	99
Es	-2.022748	-0.802026	-0.684622	99
Es	-0.103191	-1.066706	0.849077	99
Es	1.953833	0.392298	0.707109	99
Es	1.759978	0.607660	0.003170	99
Es	-0.327136	1.455983	1.432293	99
Es	-2.003414	-1.733780	0.076154	99
Es	0.073957	0.681845	-0.888072	99
Es	2.219464	-0.673422	-0.882680	99
Es	-0.299427	-0.877740	0.149811	99
Es	0.231623	-2.100054	-0.636459	99
Es	0.117732	-1.731105	-1.196833	99
Es	1.996547	1.314044	-0.100181	99
Es	0.231328	0.539539	-0.165551	99
Es	-1.067890	-0.937450	0.072864	99
Es	2.719724	-0.223482	-0.863641	99
Es	0.983156	0.566415	-0.072767	99
Es	0.637970	-1.749573	-0.740574	99
Es	-2.172587	-0.623248	0.508244	99
Es	-0.424220	1.610682	0.707304	99
Es	0.084293	-1.459902	-0.418687	99
Es	2.331569	-0.111767	-1.221373	99
Es	2.422089	-0.217034	-0.946504	99
Es	-1.809983	-1.023297	-0.000169	99
Es	0.325842	-1.823751	-0.725145	99
Es	-0.041615	-0.163262	-0.003201	99
Es	-1.155359	1.655932	0.573019	99
48
Properties=species:S:1:pos:R:3:Z:I:1 energy=-346.1711444490721 field_type=dipole dipole="0.000000 0.000000 0.000000" charge=0
C	-1.809993	-1.023312	-0.000164	6
C	-0.299493	-0.877602	0.149986	6
O	0.326007	-1.823972	-0.725064	8
C	0.231347	0.539538	-0.165604	6
C	-0.424233	1.610708	0.707316	6
C	1.759927	0.607798	0.003316	6
O	2.422297	-0.216912	-0.946784	8
H	-2.351743	-0.440502	0.749676	1
H	-2.103803	-2.073332	0.107766	1
H	-2.137133	-0.705942	-0.996284	1
H	-0.017403	-1.159172	1.170956	1
H	-0.041363	-1.683652	-1.618124	1
H	0.010957	0.755978	-1.219764	1
H	-0.284903	1.393948	1.771716	1
H	-1.497793	1.684958	0.509536	1
H	0.007697	2.596648	0.503846	1
H	2.064457	0.293878	1.007606	1
H	2.119517	1.630368	-0.151694	1
H	2.025657	-1.109432	-0.858244	1
Es	0.073902	0.681858	-0.888155	99
Es	1.953823	0.392360	0.707062	99
Es	2.422044	-0.217037	-0.946566	99
Es	-0.041389	-0.163098	-0.003077	99
Es	0.229890	-2.098443	-0.637716	99
Es	2.220412	-0.673791	-0.881807	99
Es	-1.067787	-0.937381	0.072741	99
Es	-0.299423	-0.877742	0.149806	99
Es	0.084672	-1.459469	-0.417987	99
Es	-2.022765	-0.802147	-0.684659	99
Es	-0.327124	1.456143	1.432277	99
Es	-0.104387	1.071120	0.279419	99
Es	0.638099	-1.752559	-0.739006	99
Es	-0.103435	-1.066845	0.849045	99
Es	0.119138	-1.730166	-1.197805	99
Es	2.720344	-0.222399	-0.865870	99
Es	2.155337	0.080685	-0.573316	99
Es	1.759973	0.607664	0.003172	99
Es	1.996537	1.314014	-0.100142	99
Es	-0.424220	1.610684	0.707304	99
Es	0.231327	0.539541	-0.165550	99
Es	-1.809982	-1.023296	-0.000169	99
Es	0.983128	0.566376	-0.072735	99
Es	0.325754	-1.823721	-0.725154	99
Es	-2.003490	-1.733734	0.076314	99
Es	2.329470	-0.112600	-1.220528	99
Es	-2.172575	-0.623193	0.508075	99
Es	-1.155361	1.655924	0.573075	99
Es	-0.125189	2.277510	0.566803	99
48
Properties=species:S:1:pos:R:3:Z:I:1 energy=-346.1711444490721 field_type=dipole dipole="0.000000 0.000000 0.000000" charge=0
C	-1.809993	-1.023312	-0.000164	6
C	-0.299493	-0.877602	0.149986	6
O	0.326007	-1.823972	-0.725064	8
C	0.231347	0.539538	-0.165604	6
C	-0.424233	1.610708	0.707316	6
C	1.759927	0.607798	0.003316	6
O	2.422297	-0.216912	-0.946784	8
H	-2.351743	-0.440502	0.749676	1
H	-2.103803	-2.073332	0.107766	1
H	-2.137133	-0.705942	-0.996284	1
H	-0.017403	-1.159172	1.170956	1
H	-0.041363	-1.683652	-1.618124	1
H	0.010957	0.755978	-1.219764	1
H	-0.284903	1.393948	1.771716	1
H	-1.497793	1.684958	0.509536	1
H	0.007697	2.596648	0.503846	1
H	2.064457	0.293878	1.007606	1
H	2.119517	1.630368	-0.151694	1
H	2.025657	-1.109432	-0.858244	1
Es	1.759976	0.607664	0.003175	99
Es	0.230174	-2.098405	-0.638629	99
Es	-0.125137	2.277515	0.566881	99
Es	-2.022814	-0.802070	-0.684546	99
Es	-0.041449	-0.163164	-0.003157	99
Es	-0.424220	1.610683	0.707304	99
Es	-0.103379	-1.066805	0.849007	99
Es	2.155551	0.080609	-0.572889	99
Es	-2.003447	-1.733793	0.076188	99
Es	0.073966	0.681825	-0.888014	99
Es	0.084266	-1.460051	-0.417159	99
Es	0.231330	0.539539	-0.165551	99
Es	1.953839	0.392364	0.707001	99
Es	2.329576	-0.112264	-1.220438	99
Es	2.422072	-0.217036	-0.946523	99
Es	-1.067798	-0.937397	0.072712	99
Es	0.118778	-1.729870	-1.197197	99
Es	-2.172566	-0.623244	0.508187	99
Es	-0.327195	1.456056	1.432286	99
Es	2.720255	-0.222801	-0.865966	99
Es	-1.809984	-1.023296	-0.000168	99
Es	0.638556	-1.752315	-0.739522	99
Es	-0.299425	-0.877740	0.149810	99
Es	-1.155315	1.655993	0.573037	99
Es	0.325775	-1.823726	-0.725175	99
Es	2.220164	-0.673630	-0.882270	99
Es	1.996542	1.314045	-0.100125	99
Es	0.983096	0.566344	-0.072762	99
Es	-0.104466	1.071230	0.279354	99
48
Properties=species:S:1:pos:R:3:Z:I:1 energy=-346.1711444490721 field_type=dipole dipole="0.000000 0.000000 0.000000" charge=0
C	-1.809993	-1.023312	-0.000164	6
C	-0.299493	-0.877602	0.149986	6
O	0.326007	-1.823972	-0.725064	8
C	0.231347	0.539538	-0.165604	6
C	-0.424233	1.610708	0.707316	6
C	1.759927	0.607798	0.003316	6
O	2.422297	-0.216912	-0.946784	8
H	-2.351743	-0.440502	0.749676	1
H	-2.103803	-2.073332	0.107766	1
H	-2.137133	-0.705942	-0.996284	1
H	-0.017403	-1.159172	1.170956	1
H	-0.041363	-1.683652	-1.618124	1
H	0.010957	0.755978	-1.219764	1
H	-0.284903	1.393948	1.771716	1
H	-1.497793	1.684958	0.509536	1
H	0.007697	2.596648	0.503846	1
H	2.064457	0.293878	1.007606	1
H	2.119517	1.630368	-0.151694	1
H	2.025657	-1.109432	-0.858244	1
Es	-0.103436	-1.066830	0.848937	99
Es	-0.424220	1.610683	0.707304	99
Es	0.638120	-1.753152	-0.739436	99
Es	-0.041423	-0.163098	-0.003133	99
Es	-1.067732	-0.937424	0.072969	99
Es	2.333031	-0.111653	-1.221198	99
Es	-0.299428	-0.877742	0.149810	99
Es	0.229548	-2.098048	-0.637322	99
Es	1.759978	0.607662	0.003171	99
Es	-0.125140	2.277413	0.566940	99
Es	0.325838	-1.823686	-0.725173	99
Es	1.953813	0.392391	0.707012	99
Es	-2.003432	-1.733717	0.076067	99
Es	1.996563	1.313977	-0.100091	99
Es	-2.172660	-0.623457	0.508159	99
Es	0.118816	-1.730705	-1.197715	99
Es	-0.327249	1.456071	1.432341	99
Es	0.983072	0.566424	-0.072785	99
Es	-1.155278	1.656114	0.572988	99
Es	2.154506	0.081104	-0.573880	99
Es	-1.809986	-1.023299	-0.000169	99
Es	0.085270	-1.458778	-0.418064	99
Es	0.073960	0.681852	-0.888013	99
Es	2.218864	-0.673187	-0.883571	99
Es	2.719128	-0.224406	-0.862877	99
Es	-0.104464	1.071162	0.279334	99
Es	0.231331	0.539540	-0.165553	99
Es	-2.022777	-0.801936	-0.684625	99
Es	2.422112	-0.217014	-0.946576	99
48
Properties=species:S:1:pos:R:3:Z:I:1 energy=-346.1711444490721 field_type=dipole dipole="0.000000 0.000000 0.000000" charge=0
C	-1.809993	-1.023312	-0.000164	6
C	-0.299493	-0.877602	0.149986	6
O	0.326007	-1.823972	-0.725064	8
C	0.231347	0.539538	-0.165604	6
C	-0.424233	1.610708	0.707316	6
C	1.759927	0.607798	0.003316	6
O	2.422297	-0.216912	-0.946784	8
H	-2.351743	-0.440502	0.749676	1
H	-2.103803	-2.073332	0.107766	1
H	-2.137133	-0.705942	-0.996284	1
H	-0.017403	-1.159172	1.170956	1
H	-0.041363	-1.683652	-1.618124	1
H	0.010957	0.755978	-1.219764	1
H	-0.284903	1.393948	1.771716	1
H	-1.497793	1.684958	0.509536	1
H	0.007697	2.596648	0.503846	1
H	2.064457	0.293878	1.007606	1
H	2.119517	1.630368	-0.151694	1
H	2.025657	-1.109432	-0.858244	1
Es	-2.172610	-0.623277	0.508167	99
Es	-0.104388	1.071206	0.279349	99
Es	-0.424219	1.610680	0.707303	99
Es	1.996592	1.313955	-0.100078	99
Es	-0.103412	-1.066797	0.848947	99
Es	2.422068	-0.217015	-0.946547	99
Es	0.084737	-1.459248	-0.417621	99
Es	2.154428	0.081198	-0.573943	99
Es	-0.125180	2.277454	0.566965	99
Es	-0.041320	-0.163036	-0.002996	99
Es	0.983031	0.566438	-0.072784	99
Es	-1.067749	-0.937396	0.072801	99
Es	1.953802	0.392432	0.706982	99
Es	0.231328	0.539537	-0.165553	99
Es	0.230902	-2.098620	-0.637459	99
Es	1.759977	0.607662	0.003172	99
Es	2.220475	-0.673916	-0.882115	99
Es	2.331430	-0.112743	-1.221106	99
Es	2.719244	-0.222729	-0.864387	99
Es	-0.327271	1.456162	1.432238	99
Es	0.073929	0.681648	-0.888117	99
Es	-0.299426	-0.877739	0.149812	99
Es	-1.809984	-1.023297	-0.000171	99
Es	0.637395	-1.751966	-0.739756	99
Es	-2.022815	-0.802094	-0.684570	99
Es	-2.003458	-1.733721	0.076181	99
Es	0.325811	-1.823756	-0.725172	99
Es	-1.155320	1.656045	0.573017	99
Es	0.118727	-1.730810	-1.197706	99
48
Properties=species:S:1:pos:R:3:Z:I:1 energy=-346.1711444490721 field_type=dipole dipole="0.000000 0.000000 0.000000" charge=0
C	-1.809993	-1.023312	-0.000164	6
C	-0.299493	-0.877602	0.149986	6
O	0.326007	-1.823972	-0.725064	8
C	0.231347	0.539538	-0.165604	6
C	-0.424233	1.610708	0.707316	6
C	1.759927	0.607798	0.003316	6
O	2.422297	-0.216912	-0.946784	8
H	-2.351743	-0.440502	0.749676	1
H	-2.103803	-2.073332	0.107766	1
H	-2.137133	-0.705942	-0.996284	1
H	-0.017403	-1.159172	1.170956	1
H	-0.041363	-1.683652	-1.618124	1
H	0.010957	0.755978	-1.219764	1
H	-0.284903	1.393948	1.771716	1
H	-1.497793	1.684958	0.509536	1
H	0.007697	2.596648	0.503846	1
H	2.064457	0.293878	1.007606	1
H	2.119517	1.630368	-0.151694	1
H	2.025657	-1.109432	-0.858244	1
Es	2.220347	-0.674031	-0.882857	99
Es	0.073967	0.681757	-0.887994	99
Es	-1.067694	-0.937416	0.072844	99
Es	1.953810	0.392439	0.706916	99
Es	2.718783	-0.223071	-0.864654	99
Es	-0.103409	-1.066798	0.848907	99
Es	-2.003520	-1.733726	0.076125	99
Es	-2.022814	-0.802054	-0.684504	99
Es	1.996604	1.313926	-0.100005	99
Es	1.759977	0.607660	0.003170	99
Es	0.231329	0.539539	-0.165552	99
Es	-0.125231	2.277436	0.566915	99
Es	-0.424221	1.610683	0.707305	99
Es	-0.327205	1.456176	1.432280	99
Es	0.637107	-1.753294	-0.739243	99
Es	0.230119	-2.098201	-0.637680	99
Es	-1.809984	-1.023296	-0.000169	99
Es	-1.155246	1.656102	0.573138	99
Es	2.154909	0.080994	-0.573143	99
Es	2.422055	-0.216994	-0.946608	99
Es	-0.041390	-0.163130	-0.003063	99
Es	-2.172607	-0.623297	0.508152	99
Es	0.119459	-1.730565	-1.198107	99
Es	0.325807	-1.823709	-0.725160	99
Es	-0.104429	1.071166	0.279271	99
Es	2.331595	-0.112075	-1.220857	99
Es	0.982953	0.566417	-0.072840	99
Es	0.085077	-1.458640	-0.417546	99
Es	-0.299426	-0.877740	0.149811	99
48
Properties=species:S:1:pos:R:3:Z:I:1 energy=-346.1711444490721 field_type=dipole dipole="0.000000 0.000000 0.000000" charge=0
C	-1.809993	-1.023312	-0.000164	6
C	-0.299493	-0.877602	0.149986	6
O	0.326007	-1.823972	-0.725064	8
C	0.231347	0.539538	-0.165604	6
C	-0.424233	1.610708	0.707316	6
C	1.759927	0.607798	0.003316	6
O	2.422297	-0.216912	-0.946784	8
H	-2.351743	-0.440502	0.749676	1
H	-2.103803	-2.073332	0.107766	1
H	-2.137133	-0.705942	-0.996284	1
H	-0.017403	-1.159172	1.170956	1
H	-0.041363	-1.683652	-1.618124	1
H	0.010957	0.755978	-1.219764	1
H	-0.284903	1.393948	1.771716	1
H	-1.497793	1.684958	0.509536	1
H	0.007697	2.596648	0.503846	1
H	2.064457	0.293878	1.007606	1
H	2.119517	1.630368	-0.151694	1
H	2.025657	-1.109432	-0.858244	1
Es	2.718604	-0.222681	-0.863829	99
Es	0.983033	0.566379	-0.072950	99
Es	-1.067727	-0.937415	0.072881	99
Es	-0.299424	-0.877740	0.149810	99
Es	-0.104333	1.071069	0.279452	99
Es	0.325805	-1.823715	-0.725151	99
Es	0.636885	-1.754243	-0.739075	99
Es	0.229276	-2.098269	-0.637902	99
Es	-2.022841	-0.802083	-0.684523	99
Es	1.759980	0.607660	0.003169	99
Es	2.332517	-0.113232	-1.221222	99
Es	0.085735	-1.458272	-0.417386	99
Es	1.996545	1.313905	-0.100017	99
Es	-0.041374	-0.163122	-0.003159	99
Es	0.073865	0.681845	-0.887942	99
Es	-1.155235	1.656113	0.573099	99
Es	2.422075	-0.217039	-0.946536	99
Es	-2.172613	-0.623306	0.508130	99
Es	0.119904	-1.729918	-1.198206	99
Es	1.953804	0.392453	0.706967	99
Es	-0.125233	2.277423	0.566936	99
Es	-1.809984	-1.023296	-0.000169	99
Es	0.231328	0.539539	-0.165555	99
Es	2.153819	0.081864	-0.574513	99
Es	-0.327271	1.456225	1.432271	99
Es	-0.103387	-1.066759	0.848860	99
Es	2.220691	-0.674094	-0.882051	99
Es	-2.003501	-1.733712	0.076158	99
Es	-0.424221	1.610683	0.707304	99
48
Properties=species:S:1:pos:R:3:Z:I:1 energy=-346.1711444490721 field_type=dipole dipole="0.000000 0.000000 0.000000" charge=0
C	-1.809993	-1.023312	-0.000164	6
C	-0.299493	-0.877602	0.149986	6
O	0.326007	-1.823972	-0.725064	8
C	0.231347	0.539538	-0.165604	6
C	-0.424233	1.610708	0.707316	6
C	1.759927	0.607798	0.003316	6
O	2.422297	-0.216912	-0.946784	8
H	-2.351743	-0.440502	0.749676	1
H	-2.103803	-2.073332	0.107766	1
H	-2.137133	-0.705942	-0.996284	1
H	-0.017403	-1.159172	1.170956	1
H	-0.041363	-1.683652	-1.618124	1
H	0.010957	0.755978	-1.219764	1
H	-0.284903	1.393948	1.771716	1
H	-1.497793	1.684958	0.509536	1
H	0.007697	2.596648	0.503846	1
H	2.064457	0.293878	1.007606	1
H	2.119517	1.630368	-0.151694	1
H	2.025657	-1.109432	-0.858244	1
Es	2.422132	-0.216957	-0.946638	99
Es	0.119006	-1.730969	-1.198038	99
Es	1.759976	0.607663	0.003173	99
Es	-1.067653	-0.937358	0.072846	99
Es	2.153819	0.081856	-0.574183	99
Es	-1.155240	1.656162	0.573372	99
Es	-2.003503	-1.733661	0.076178	99
Es	0.230722	-2.097919	-0.637701	99
Es	1.996556	1.313839	-0.099981	99
Es	0.084812	-1.458958	-0.417363	99
Es	1.953835	0.392497	0.706929	99
Es	2.218494	-0.673615	-0.884821	99
Es	-0.299424	-0.877740	0.149812	99
Es	0.325816	-1.823721	-0.725162	99
Es	0.231330	0.539538	-0.165552	99
Es	-0.041328	-0.163164	-0.003109	99
Es	0.073949	0.681739	-0.887841	99
Es	-2.022921	-0.802090	-0.684528	99
Es	-0.104659	1.071255	0.279239	99
Es	-0.326991	1.456127	1.432281	99
Es	2.717817	-0.224959	-0.861688	99
Es	-0.125248	2.277427	0.566832	99
Es	-0.103452	-1.066784	0.848844	99
Es	-1.809984	-1.023296	-0.000169	99
Es	0.982937	0.566398	-0.073003	99
Es	-2.172592	-0.623364	0.508122	99
Es	-0.424220	1.610683	0.707304	99
Es	2.335482	-0.111507	-1.220830	99
Es	0.637257	-1.752864	-0.739474	99
48
Properties=species:S:1:pos:R:3:Z:I:1 energy=-346.1711444490721 field_type=dipole dipole="0.000000 0.000000 0.000000" charge=0
C	-1.809993	-1.023312	-0.000164	6
C	-0.299493	-0.877602	0.149986	6
O	0.326007	-1.823972	-0.725064	8
C	0.231347	0.539538	-0.165604	6
C	-0.424233	1.610708	0.707316	6
C	1.759927	0.607798	0.003316	6
O	2.422297	-0.216912	-0.946784	8
H	-2.351743	-0.440502	0.749676	1
H	-2.103803	-2.073332	0.107766	1
H	-2.137133	-0.705942	-0.996284	1
H	-0.017403	-1.159172	1.170956	1
H	-0.041363	-1.683652	-1.618124	1
H	0.010957	0.755978	-1.219764	1
H	-0.284903	1.393948	1.771716	1
H	-1.497793	1.684958	0.509536	1
H	0.007697	2.596648	0.503846	1
H	2.064457	0.293878	1.007606	1
H	2.119517	1.630368	-0.151694	1
H	2.025657	-1.109432	-0.858244	1
Es	1.759977	0.607664	0.003173	99
Es	-0.104433	1.071151	0.279278	99
Es	0.637144	-1.753262	-0.739444	99
Es	-0.125275	2.277438	0.566984	99
Es	0.119026	-1.731006	-1.198168	99
Es	-1.067738	-0.937421	0.073038	99
Es	2.422092	-0.217030	-0.946619	99
Es	0.230622	-2.097573	-0.637815	99
Es	-2.003555	-1.733774	0.075922	99
Es	0.074006	0.681774	-0.887890	99
Es	0.325867	-1.823758	-0.725148	99
Es	-0.103425	-1.066753	0.848795	99
Es	2.220312	-0.673841	-0.883301	99
Es	0.231328	0.539539	-0.165552	99
Es	-0.299427	-0.877737	0.149816	99
Es	0.084945	-1.458859	-0.417164	99
Es	2.718500	-0.223526	-0.865452	99
Es	-1.155216	1.656140	0.573201	99
Es	-0.327229	1.456207	1.432229	99
Es	-0.424221	1.610684	0.707304	99
Es	0.982981	0.566352	-0.072877	99
Es	1.996540	1.313864	-0.100003	99
Es	-0.041384	-0.163111	-0.003153	99
Es	-2.172676	-0.623399	0.508157	99
Es	-1.809990	-1.023308	-0.000168	99
Es	1.953805	0.392533	0.706923	99
Es	2.155809	0.080581	-0.571965	99
Es	2.331040	-0.111415	-1.220812	99
Es	-2.022703	-0.801896	-0.684437	99
48
Properties=species:S:1:pos:R:3:Z:I:1 energy=-346.1711444490721 field_type=dipole dipole="0.000000 0.000000 0.000000" charge=0
C	-1.809993	-1.023312	-0.000164	6
C	-0.299493	-0.877602	0.149986	6
O	0.326007	-1.823972	-0.725064	8
C	0.231347	0.539538	-0.165604	6
C	-0.424233	1.610708	0.707316	6
C	1.759927	0.607798	0.003316	6
O	2.422297	-0.216912	-0.946784	8
H	-2.351743	-0.440502	0.749676	1
H	-2.103803	-2.073332	0.107766	1
H	-2.137133	-0.705942	-0.996284	1
H	-0.017403	-1.159172	1.170956	1
H	-0.041363	-1.683652	-1.618124	1
H	0.010957	0.755978	-1.219764	1
H	-0.284903	1.393948	1.771716	1
H	-1.497793	1.684958	0.509536	1
H	0.007697	2.596648	0.503846	1
H	2.064457	0.293878	1.007606	1
H	2.119517	1.630368	-0.151694	1
H	2.025657	-1.109432	-0.858244	1
Es	1.996583	1.313785	-0.099994	99
Es	-2.003512	-1.733665	0.076196	99
Es	0.982912	0.566463	-0.072800	99
Es	1.759979	0.607662	0.003172	99
Es	0.325771	-1.823771	-0.725144	99
Es	-0.104454	1.071126	0.279313	99
Es	2.155117	0.081261	-0.572592	99
Es	-1.809983	-1.023295	-0.000168	99
Es	-0.327311	1.456348	1.432306	99
Es	2.329823	-0.113121	-1.219696	99
Es	-1.155150	1.656068	0.573118	99
Es	-2.022958	-0.802102	-0.684502	99
Es	0.119107	-1.730747	-1.198096	99
Es	-0.125335	2.277438	0.566883	99
Es	0.231328	0.539540	-0.165562	99
Es	-0.424225	1.610684	0.707304	99
Es	0.085311	-1.458620	-0.416951	99
Es	1.953839	0.392555	0.706920	99
Es	0.637473	-1.754195	-0.739388	99
Es	-0.103457	-1.066766	0.848781	99
Es	-0.041358	-0.163133	-0.003131	99
Es	-1.067655	-0.937369	0.072840	99
Es	-2.172564	-0.623357	0.508119	99
Es	2.422188	-0.216932	-0.946726	99
Es	0.229964	-2.097119	-0.638156	99
Es	2.221432	-0.674395	-0.882378	99
Es	-0.299427	-0.877738	0.149813	99
Es	0.074117	0.681711	-0.887864	99
Es	2.719167	-0.222057	-0.866767	99
48
Properties=species:S:1:pos:R:3:Z:I:1 energy=-346.1711444490721 field_type=dipole dipole="0.000000 0.000000 0.000000" charge=0
C	-1.809993	-1.023312	-0.000164	6
C	-0.299493	-0.877602	0.149986	6
O	0.326007	-1.823972	-0.725064	8
C	0.231347	0.539538	-0.165604	6
C	-0.424233	1.610708	0.707316	6
C	1.759927	0.607798	0.003316	6
O	2.422297	-0.216912	-0.946784	8
H	-2.351743	-0.440502	0.749676	1
H	-2.103803	-2.073332	0.107766	1
H	-2.137133	-0.705942	-0.996284	1
H	-0.017403	-1.159172	1.170956	1
H	-0.041363	-1.683652	-1.618124	1
H	0.010957	0.755978	-1.219764	1
H	-0.284903	1.393948	1.771716	1
H	-1.497793	1.684958	0.509536	1
H	0.007697	2.596648	0.503846	1
H	2.064457	0.293878	1.007606	1
H	2.119517	1.630368	-0.151694	1
H	2.025657	-1.109432	-0.858244	1
Es	-0.424221	1.610685	0.707305	99
Es	0.119025	-1.731217	-1.198088	99
Es	0.982956	0.566460	-0.072913	99
Es	1.996556	1.313811	-0.099971	99
Es	-2.022878	-0.802078	-0.684451	99
Es	2.422114	-0.216958	-0.946625	99
Es	-1.155199	1.656085	0.573270	99
Es	-0.103347	-1.066687	0.848715	99
Es	-2.003570	-1.733670	0.076113	99
Es	-0.125346	2.277466	0.566930	99
Es	1.759983	0.607657	0.003167	99
Es	0.230424	-2.097410	-0.637727	99
Es	-0.104535	1.071205	0.279269	99
Es	2.154654	0.081503	-0.573026	99
Es	0.325899	-1.823801	-0.725115	99
Es	2.332014	-0.112541	-1.220284	99
Es	2.718386	-0.223087	-0.865021	99
Es	2.220587	-0.674185	-0.883221	99
Es	1.953807	0.392573	0.706897	99
Es	0.231328	0.539539	-0.165553	99
Es	0.074023	0.681624	-0.887828	99
Es	-0.327193	1.456275	1.432218	99
Es	-1.067668	-0.937402	0.073045	99
Es	0.637253	-1.753407	-0.739532	99
Es	-1.809983	-1.023297	-0.000169	99
Es	-2.172639	-0.623374	0.508067	99
Es	-0.041298	-0.163134	-0.003143	99
Es	-0.299422	-0.877742	0.149811	99
Es	0.085011	-1.458635	-0.417288	99
48
Properties=species:S:1:pos:R:3:Z:I:1 energy=-346.1711444490721 field_type=dipole dipole="0.000000 0.000000 0.000000" charge=0
C	-1.809993	-1.023312	-0.000164	6
C	-0.299493	-0.877602	0.149986	6
O	0.326007	-1.823972	-0.725064	8
C	0.231347	0.539538	-0.165604	6
C	-0.424233	1.610708	0.707316	6
C	1.759927	0.607798	0.003316	6
O	2.422297	-0.216912	-0.946784	8
H	-2.351743	-0.440502	0.749676	1
H	-2.103803	-2.073332	0.107766	1
H	-2.137133	-0.705942	-0.996284	1
H	-0.017403	-1.159172	1.170956	1
H	-0.041363	-1.683652	-1.618124	1
H	0.010957	0.755978	-1.219764	1
H	-0.284903	1.393948	1.771716	1
H	-1.497793	1.684958	0.509536	1
H	0.007697	2.596648	0.503846	1
H	2.064457	0.293878	1.007606	1
H	2.119517	1.630368	-0.151694	1
H	2.025657	-1.109432	-0.858244	1
Es	0.085149	-1.458356	-0.417165	99
Es	0.325827	-1.823714	-0.725155	99
Es	-2.022835	-0.802070	-0.684468	99
Es	0.073994	0.681652	-0.887839	99
Es	-0.041288	-0.163081	-0.003123	99
Es	1.759975	0.607665	0.003176	99
Es	2.155466	0.081458	-0.572295	99
Es	0.231328	0.539541	-0.165550	99
Es	-2.172636	-0.623346	0.508077	99
Es	0.982906	0.566465	-0.072923	99
Es	-1.067638	-0.937445	0.073015	99
Es	-2.003577	-1.733681	0.076106	99
Es	0.229482	-2.096752	-0.638206	99
Es	-0.103444	-1.066716	0.848726	99
Es	-0.299427	-0.877738	0.149812	99
Es	0.119847	-1.730829	-1.198534	99
Es	1.953819	0.392598	0.706859	99
Es	-1.809986	-1.023295	-0.000167	99
Es	-1.155151	1.656254	0.573195	99
Es	2.221901	-0.674621	-0.881930	99
Es	-0.424220	1.610685	0.707306	99
Es	-0.125252	2.277406	0.567067	99
Es	-0.104503	1.071085	0.279259	99
Es	1.996572	1.313779	-0.099948	99
Es	0.637349	-1.754827	-0.738696	99
Es	2.422099	-0.217034	-0.946493	99
Es	-0.327354	1.456251	1.432198	99
Es	2.718335	-0.221932	-0.867230	99
Es	2.329981	-0.113146	-1.220223	99
48
Properties=species:S:1:pos:R:3:Z:I:1 energy=-346.1711444490721 field_type=dipole dipole="0.000000 0.000000 0.000000" charge=0
C	-1.809993	-1.023312	-0.000164	6
C	-0.299493	-0.877602	0.149986	6
O	0.326007	-1.823972	-0.725064	8
C	0.231347	0.539538	-0.165604	6
C	-0.424233	1.610708	0.707316	6
C	1.759927	0.607798	0.003316	6
O	2.422297	-0.216912	-0.946784	8
H	-2.351743	-0.440502	0.749676	1
H	-2.103803	-2.073332	0.107766	1
H	-2.137133	-0.705942	-0.996284	1
H	-0.017403	-1.159172	1.170956	1
H	-0.041363	-1.683652	-1.618124	1
H	0.010957	0.755978	-1.219764	1
H	-0.284903	1.393948	1.771716	1
H	-1.497793	1.684958	0.509536	1
H	0.007697	2.596648	0.503846	1
H	2.064457	0.293878	1.007606	1
H	2.119517	1.630368	-0.151694	1
H	2.025657	-1.109432	-0.858244	1
Es	-1.809982	-1.023296	-0.000169	99
Es	-2.172628	-0.623318	0.508041	99
Es	0.637453	-1.755775	-0.739179	99
Es	-0.299427	-0.877736	0.149817	99
Es	1.953826	0.392596	0.706781	99
Es	2.718167	-0.223124	-0.865252	99
Es	0.228999	-2.096314	-0.638437	99
Es	-0.125420	2.277428	0.567014	99
Es	0.231329	0.539540	-0.165558	99
Es	2.422102	-0.217002	-0.946597	99
Es	0.074039	0.681641	-0.887853	99
Es	1.759976	0.607664	0.003176	99
Es	0.982776	0.566474	-0.072897	99
Es	2.332241	-0.112729	-1.220043	99
Es	-0.041226	-0.163107	-0.003036	99
Es	2.154745	0.081912	-0.573019	99
Es	2.220563	-0.674296	-0.883296	99
Es	1.996609	1.313732	-0.099850	99
Es	0.119444	-1.730664	-1.198308	99
Es	0.325846	-1.823738	-0.725160	99
Es	-2.022905	-0.802157	-0.684444	99
Es	-0.424220	1.610683	0.707306	99
Es	-2.003543	-1.733696	0.076193	99
Es	-0.103487	-1.066734	0.848669	99
Es	-1.155159	1.656161	0.573351	99
Es	-0.104449	1.071112	0.279162	99
Es	0.085924	-1.458007	-0.416657	99
Es	-1.067653	-0.937331	0.072925	99
Es	-0.327218	1.456339	1.432172	99
48
Properties=species:S:1:pos:R:3:Z:I:1 energy=-346.1711444490721 field_type=dipole dipole="0.000000 0.000000 0.000000" charge=0
C	-1.809993	-1.023312	-0.000164	6
C	-0.299493	-0.877602	0.149986	6
O	0.326007	-1.823972	-0.725064	8
C	0.231347	0.539538	-0.165604	6
C	-0.424233	1.610708	0.707316	6
C	1.759927	0.607798	0.003316	6
O	2.422297	-0.216912	-0.946784	8
H	-2.351743	-0.440502	0.749676	1
H	-2.103803	-2.073332	0.107766	1
H	-2.137133	-0.705942	-0.996284	1
H	-0.017403	-1.159172	1.170956	1
H	-0.041363	-1.683652	-1.618124	1
H	0.010957	0.755978	-1.219764	1
H	-0.284903	1.393948	1.771716	1
H	-1.497793	1.684958	0.509536	1
H	0.007697	2.596648	0.503846	1
H	2.064457	0.293878	1.007606	1
H	2.119517	1.630368	-0.151694	1
H	2.025657	-1.109432	-0.858244	1
Es	0.084766	-1.459046	-0.416235	99
Es	0.982861	0.566493	-0.072969	99
Es	-0.104490	1.071122	0.279208	99
Es	1.953803	0.392615	0.706805	99
Es	-1.067611	-0.937423	0.073070	99
Es	2.332316	-0.112642	-1.220011	99
Es	-0.125384	2.277384	0.566995	99
Es	0.232022	-2.097230	-0.638148	99
Es	0.325808	-1.823725	-0.725166	99
Es	2.220704	-0.674403	-0.883327	99
Es	0.118426	-1.731566	-1.198081	99
Es	-0.299427	-0.877735	0.149815	99
Es	0.231326	0.539535	-0.165552	99
Es	0.074044	0.681598	-0.887744	99
Es	-0.424220	1.610683	0.707304	99
Es	-1.155101	1.656218	0.573264	99
Es	1.759978	0.607664	0.003175	99
Es	-2.003588	-1.733647	0.076100	99
Es	-0.327312	1.456374	1.432238	99
Es	-0.041294	-0.163123	-0.003108	99
Es	-1.809984	-1.023297	-0.000169	99
Es	-0.103413	-1.066698	0.848653	99
Es	0.636632	-1.752925	-0.740153	99
Es	2.421954	-0.216993	-0.946599	99
Es	2.154903	0.081838	-0.572704	99
Es	-2.022884	-0.802086	-0.684435	99
Es	1.996604	1.313736	-0.099880	99
Es	2.717932	-0.223084	-0.865555	99
Es	-2.172647	-0.623379	0.508059	99
48
Properties=species:S:1:pos:R:3:Z:I:1 energy=-346.1711444490721 field_type=dipole dipole="0.000000 0.000000 0.000000" charge=0
C	-1.809993	-1.023312	-0.000164	6
C	-0.299493	-0.877602	0.149986	6
O	0.326007	-1.823972	-0.725064	8
C	0.231347	0.539538	-0.165604	6
C	-0.424233	1.610708	0.707316	6
C	1.759927	0.607798	0.003316	6
O	2.422297	-0.216912	-0.946784	8
H	-2.351743	-0.440502	0.749676	1
H	-2.103803	-2.073332	0.107766	1
H	-2.137133	-0.705942	-0.996284	1
H	-0.017403	-1.159172	1.170956	1
H	-0.041363	-1.683652	-1.618124	1
H	0.010957	0.755978	-1.219764	1
H	-0.284903	1.393948	1.771716	1
H	-1.497793	1.684958	0.509536	1
H	0.007697	2.596648	0.503846	1
H	2.064457	0.293878	1.007606	1
H	2.119517	1.630368	-0.151694	1
H	2.025657	-1.109432	-0.858244	1
Es	-0.424219	1.610681	0.707304	99
Es	-1.155151	1.656220	0.573286	99
Es	2.154823	0.081820	-0.572574	99
Es	0.231328	0.539540	-0.165553	99
Es	-0.125343	2.277420	0.567073	99
Es	2.717401	-0.222317	-0.866057	99
Es	-0.327315	1.456324	1.432146	99
Es	-0.103473	-1.066714	0.848551	99
Es	2.421978	-0.216994	-0.946590	99
Es	2.221889	-0.674735	-0.882521	99
Es	-1.067621	-0.937427	0.073066	99
Es	-2.022877	-0.802090	-0.684390	99
Es	0.637630	-1.757467	-0.737853	99
Es	-2.003614	-1.733672	0.076088	99
Es	0.085866	-1.457843	-0.416622	99
Es	2.331746	-0.113072	-1.220469	99
Es	1.953804	0.392641	0.706769	99
Es	0.074054	0.681565	-0.887756	99
Es	-0.041193	-0.163062	-0.003044	99
Es	1.759974	0.607667	0.003177	99
Es	-0.299429	-0.877734	0.149817	99
Es	1.996627	1.313682	-0.099830	99
Es	0.325864	-1.823791	-0.725138	99
Es	-2.172643	-0.623363	0.508040	99
Es	-0.104501	1.071166	0.279226	99
Es	0.120618	-1.730288	-1.199050	99
Es	-1.809986	-1.023294	-0.000164	99
Es	0.227696	-2.095121	-0.639100	99
Es	0.982785	0.566514	-0.072983	99
48
Properties=species:S:1:pos:R:3:Z:I:1 energy=-346.1711444490721 field_type=dipole dipole="0.000000 0.000000 0.000000" charge=0
C	-1.809993	-1.023312	-0.000164	6
C	-0.299493	-0.877602	0.149986	6
O	0.326007	-1.823972	-0.725064	8
C	0.231347	0.539538	-0.165604	6
C	-0.424233	1.610708	0.707316	6
C	1.759927	0.607798	0.003316	6
O	2.422297	-0.216912	-0.946784	8
H	-2.351743	-0.440502	0.749676	1
H	-2.103803	-2.073332	0.107766	1
H	-2.137133	-0.705942	-0.996284	1
H	-0.017403	-1.159172	1.170956	1
H	-0.041363	-1.683652	-1.618124	1
H	0.010957	0.755978	-1.219764	1
H	-0.284903	1.393948	1.771716	1
H	-1.497793	1.684958	0.509536	1
H	0.007697	2.596648	0.503846	1
H	2.064457	0.293878	1.007606	1
H	2.119517	1.630368	-0.151694	1
H	2.025657	-1.109432	-0.858244	1
Es	0.635448	-1.753410	-0.739370	99
Es	-2.022889	-0.802083	-0.684436	99
Es	-1.809984	-1.023297	-0.000169	99
Es	-1.155125	1.656130	0.573388	99
Es	-0.125450	2.277456	0.566971	99
Es	2.717573	-0.224221	-0.864809	99
Es	2.155114	0.081822	-0.572341	99
Es	2.219624	-0.674121	-0.884703	99
Es	-2.003633	-1.733639	0.076129	99
Es	1.953878	0.392658	0.706784	99
Es	0.231327	0.539540	-0.165557	99
Es	-0.103463	-1.066655	0.848635	99
Es	1.996546	1.313689	-0.099864	99
Es	-0.041276	-0.163090	-0.003192	99
Es	1.759976	0.607665	0.003175	99
Es	-0.104549	1.071136	0.279201	99
Es	0.119773	-1.730603	-1.198689	99
Es	0.982764	0.566376	-0.072819	99
Es	-0.299427	-0.877733	0.149818	99
Es	0.231695	-2.097937	-0.638462	99
Es	2.422065	-0.217021	-0.946586	99
Es	0.074191	0.681574	-0.887773	99
Es	2.333467	-0.111702	-1.219798	99
Es	-0.327247	1.456432	1.432142	99
Es	0.325836	-1.823721	-0.725154	99
Es	-0.424220	1.610682	0.707306	99
Es	0.084933	-1.458879	-0.416050	99
Es	-2.172633	-0.623395	0.507993	99
Es	-1.067591	-0.937395	0.073079	99
