42
Properties=species:S:1:pos:R:3:Z:I:1 energy=-343.7734668946491 field_type=dipole dipole="0.000000 0.000000 0.000000" charge=0
C	-1.620592	-1.691848	0.190435	6
C	-0.099242	-1.632758	0.184555	6
O	0.379158	-2.306628	-0.976125	8
C	0.382778	-0.271588	0.184555	6
C	0.780058	0.850312	0.184555	6
C	1.262078	2.211482	0.184555	6
O	0.232278	3.076232	-0.272895	8
H	-2.036612	-1.205648	1.078085	1
H	-1.961412	-2.731968	0.168145	1
H	-2.039602	-1.204058	-0.696775	1
H	0.284948	-2.174268	1.055035	1
H	0.155738	-1.742178	-1.736205	1
H	2.125528	2.322572	-0.478505	1
H	1.555208	2.525412	1.191045	1
H	0.599688	3.974932	-0.260465	1
Es	0.208542	-2.561611	-0.996480	99
Es	1.011281	1.507308	0.184059	99
Es	1.261865	2.211506	0.184480	99
Es	-0.857095	-1.638416	0.192484	99
Es	0.685556	-2.309663	-0.958778	99
Es	0.375537	0.347046	0.475675	99
Es	0.382712	-0.271809	0.184549	99
Es	0.245775	-1.991087	-1.371504	99
Es	0.640063	2.755549	-0.094356	99
Es	-1.895995	-1.360919	0.795173	99
Es	0.780153	0.850566	0.184538	99
Es	1.849675	2.270685	-0.261922	99
Es	0.193262	-2.022134	-0.545698	99
Es	0.232601	3.076333	-0.272798	99
Es	-1.620557	-1.691835	0.190438	99
Es	0.929649	0.194581	0.224947	99
Es	0.164139	-1.983041	0.772924	99
Es	0.451298	3.553054	-0.258096	99
Es	0.444212	0.334905	-0.151552	99
Es	0.378990	-2.306377	-0.976126	99
Es	0.012240	3.068523	-0.060541	99
Es	0.150401	-0.918238	0.187209	99
Es	1.463052	2.407556	0.869343	99
Es	-1.893629	-1.356508	-0.415516	99
Es	-0.099160	-1.632737	0.184346	99
Es	-1.842606	-2.397887	0.180512	99
Es	0.186292	3.005861	-0.566059	99
42
Properties=species:S:1:pos:R:3:Z:I:1 energy=-343.7734668946491 field_type=dipole dipole="0.000000 0.000000 0.000000" charge=0
C	-1.620592	-1.691848	0.190435	6
C	-0.099242	-1.632758	0.184555	6
O	0.379158	-2.306628	-0.976125	8
C	0.382778	-0.271588	0.184555	6
C	0.780058	0.850312	0.184555	6
C	1.262078	2.211482	0.184555	6
O	0.232278	3.076232	-0.272895	8
H	-2.036612	-1.205648	1.078085	1
H	-1.961412	-2.731968	0.168145	1
H	-2.039602	-1.204058	-0.696775	1
H	0.284948	-2.174268	1.055035	1
H	0.155738	-1.742178	-1.736205	1
H	2.125528	2.322572	-0.478505	1
H	1.555208	2.525412	1.191045	1
H	0.599688	3.974932	-0.260465	1
Es	0.150447	-0.918362	0.187695	99
Es	-0.099163	-1.632734	0.184348	99
Es	0.379042	-2.306306	-0.976107	99
Es	0.207752	-2.560650	-0.996671	99
Es	1.261864	2.211508	0.184481	99
Es	0.477862	0.317238	-0.165439	99
Es	1.849616	2.270680	-0.261924	99
Es	0.347523	0.360879	0.450588	99
Es	1.463102	2.407575	0.869369	99
Es	1.011198	1.507342	0.183883	99
Es	0.193504	-2.021880	-0.545520	99
Es	-1.896013	-1.361073	0.795248	99
Es	-1.842573	-2.397869	0.180357	99
Es	0.382704	-0.271812	0.184546	99
Es	0.780148	0.850570	0.184543	99
Es	-1.893673	-1.356403	-0.415420	99
Es	-1.620559	-1.691837	0.190439	99
Es	0.924197	0.198408	0.263732	99
Es	0.164066	-1.983144	0.772909	99
Es	0.639901	2.754983	-0.093720	99
Es	0.451086	3.553257	-0.257884	99
Es	-0.857074	-1.638257	0.192426	99
Es	0.232538	3.076321	-0.272793	99
Es	0.246597	-1.990799	-1.371709	99
Es	0.186902	3.006174	-0.565768	99
Es	0.685258	-2.311166	-0.958647	99
Es	0.012003	3.068570	-0.061711	99
42
Properties=species:S:1:pos:R:3:Z:I:1 energy=-343.7734668946491 field_type=dipole dipole="0.000000 0.000000 0.000000" charge=0
C	-1.620592	-1.691848	0.190435	6
C	-0.099242	-1.632758	0.184555	6
O	0.379158	-2.306628	-0.976125	8
C	0.382778	-0.271588	0.184555	6
C	0.780058	0.850312	0.184555	6
C	1.262078	2.211482	0.184555	6
O	0.232278	3.076232	-0.272895	8
H	-2.036612	-1.205648	1.078085	1
H	-1.961412	-2.731968	0.168145	1
H	-2.039602	-1.204058	-0.696775	1
H	0.284948	-2.174268	1.055035	1
H	0.155738	-1.742178	-1.736205	1
H	2.125528	2.322572	-0.478505	1
H	1.555208	2.525412	1.191045	1
H	0.599688	3.974932	-0.260465	1
Es	0.477899	0.317248	-0.165637	99
Es	0.378767	-2.306359	-0.976137	99
Es	0.382704	-0.271809	0.184560	99
Es	0.184621	3.005646	-0.565661	99
Es	-1.842577	-2.397874	0.180389	99
Es	0.193667	-2.022033	-0.544992	99
Es	-1.896052	-1.361049	0.795191	99
Es	0.780153	0.850566	0.184555	99
Es	0.683928	-2.310303	-0.958643	99
Es	0.164200	-1.982971	0.772935	99
Es	0.247353	-1.990327	-1.371591	99
Es	0.640032	2.754984	-0.094465	99
Es	0.924064	0.198458	0.264024	99
Es	0.451306	3.553304	-0.258480	99
Es	-0.099163	-1.632734	0.184350	99
Es	1.011242	1.507446	0.183881	99
Es	-1.620559	-1.691838	0.190439	99
Es	-1.893651	-1.356441	-0.415443	99
Es	0.232598	3.076329	-0.272849	99
Es	0.208483	-2.561831	-0.997292	99
Es	0.013830	3.069114	-0.060445	99
Es	0.347611	0.360805	0.450595	99
Es	1.849650	2.270605	-0.261919	99
Es	1.261867	2.211506	0.184480	99
Es	1.463078	2.407471	0.869418	99
Es	0.150350	-0.918428	0.187458	99
Es	-0.857147	-1.638271	0.192531	99
42
Properties=species:S:1:pos:R:3:Z:I:1 energy=-343.7734668946491 field_type=dipole dipole="0.000000 0.000000 0.000000" charge=0
C	-1.620592	-1.691848	0.190435	6
C	-0.099242	-1.632758	0.184555	6
O	0.379158	-2.306628	-0.976125	8
C	0.382778	-0.271588	0.184555	6
C	0.780058	0.850312	0.184555	6
C	1.262078	2.211482	0.184555	6
O	0.232278	3.076232	-0.272895	8
H	-2.036612	-1.205648	1.078085	1
H	-1.961412	-2.731968	0.168145	1
H	-2.039602	-1.204058	-0.696775	1
H	0.284948	-2.174268	1.055035	1
H	0.155738	-1.742178	-1.736205	1
H	2.125528	2.322572	-0.478505	1
H	1.555208	2.525412	1.191045	1
H	0.599688	3.974932	-0.260465	1
Es	0.382710	-0.271810	0.184557	99
Es	1.849668	2.270555	-0.261936	99
Es	0.232577	3.076338	-0.272817	99
Es	-1.620558	-1.691837	0.190439	99
Es	0.334031	0.368010	0.435959	99
Es	-0.099162	-1.632734	0.184350	99
Es	0.150390	-0.918512	0.187664	99
Es	-1.893554	-1.356487	-0.415515	99
Es	0.685074	-2.311824	-0.959042	99
Es	0.451447	3.553316	-0.258611	99
Es	1.011226	1.507514	0.183739	99
Es	0.378930	-2.306328	-0.976118	99
Es	0.014688	3.069432	-0.060084	99
Es	0.919224	0.200662	0.284201	99
Es	-1.896119	-1.360979	0.795050	99
Es	-0.857165	-1.638311	0.192715	99
Es	0.246596	-1.990926	-1.371824	99
Es	0.780149	0.850565	0.184548	99
Es	0.640032	2.754668	-0.094864	99
Es	0.164237	-1.982896	0.772893	99
Es	1.463074	2.407437	0.869429	99
Es	1.261869	2.211507	0.184481	99
Es	0.193984	-2.021704	-0.545134	99
Es	0.183584	3.005637	-0.565550	99
Es	0.496341	0.307830	-0.171165	99
Es	-1.842674	-2.397836	0.180467	99
Es	0.207655	-2.560073	-0.996580	99
42
Properties=species:S:1:pos:R:3:Z:I:1 energy=-343.7734668946491 field_type=dipole dipole="0.000000 0.000000 0.000000" charge=0
C	-1.620592	-1.691848	0.190435	6
C	-0.099242	-1.632758	0.184555	6
O	0.379158	-2.306628	-0.976125	8
C	0.382778	-0.271588	0.184555	6
C	0.780058	0.850312	0.184555	6
C	1.262078	2.211482	0.184555	6
O	0.232278	3.076232	-0.272895	8
H	-2.036612	-1.205648	1.078085	1
H	-1.961412	-2.731968	0.168145	1
H	-2.039602	-1.204058	-0.696775	1
H	0.284948	-2.174268	1.055035	1
H	0.155738	-1.742178	-1.736205	1
H	2.125528	2.322572	-0.478505	1
H	1.555208	2.525412	1.191045	1
H	0.599688	3.974932	-0.260465	1
Es	0.639876	2.754422	-0.094586	99
Es	0.232648	3.076371	-0.272774	99
Es	1.463130	2.407411	0.869435	99
Es	0.246703	-1.991055	-1.372127	99
Es	0.193111	-2.022109	-0.545079	99
Es	-1.893634	-1.356530	-0.415436	99
Es	0.476600	0.317895	-0.165019	99
Es	1.261864	2.211507	0.184477	99
Es	0.013525	3.069164	-0.061054	99
Es	1.849646	2.270394	-0.261949	99
Es	-0.099163	-1.632729	0.184355	99
Es	-0.857213	-1.638229	0.192646	99
Es	0.684336	-2.310179	-0.958558	99
Es	0.150235	-0.918648	0.187385	99
Es	0.164398	-1.982708	0.772994	99
Es	0.924466	0.198291	0.262143	99
Es	0.209132	-2.561243	-0.996830	99
Es	-1.842650	-2.397869	0.180478	99
Es	1.011216	1.507632	0.183908	99
Es	0.780148	0.850560	0.184549	99
Es	0.348578	0.360303	0.451914	99
Es	0.378998	-2.306335	-0.976134	99
Es	0.451396	3.553336	-0.258311	99
Es	0.382707	-0.271808	0.184559	99
Es	-1.896077	-1.360968	0.795079	99
Es	-1.620560	-1.691837	0.190439	99
Es	0.184836	3.006174	-0.565253	99
42
Properties=species:S:1:pos:R:3:Z:I:1 energy=-343.7734668946491 field_type=dipole dipole="0.000000 0.000000 0.000000" charge=0
C	-1.620592	-1.691848	0.190435	6
C	-0.099242	-1.632758	0.184555	6
O	0.379158	-2.306628	-0.976125	8
C	0.382778	-0.271588	0.184555	6
C	0.780058	0.850312	0.184555	6
C	1.262078	2.211482	0.184555	6
O	0.232278	3.076232	-0.272895	8
H	-2.036612	-1.205648	1.078085	1
H	-1.961412	-2.731968	0.168145	1
H	-2.039602	-1.204058	-0.696775	1
H	0.284948	-2.174268	1.055035	1
H	0.155738	-1.742178	-1.736205	1
H	2.125528	2.322572	-0.478505	1
H	1.555208	2.525412	1.191045	1
H	0.599688	3.974932	-0.260465	1
Es	-1.896064	-1.360992	0.795088	99
Es	0.183425	3.005737	-0.564943	99
Es	0.014818	3.069443	-0.060464	99
Es	0.378954	-2.306366	-0.976130	99
Es	-1.842658	-2.397806	0.180496	99
Es	-1.620560	-1.691837	0.190439	99
Es	0.193110	-2.021876	-0.545002	99
Es	0.342334	0.363569	0.445138	99
Es	0.150339	-0.918738	0.187594	99
Es	0.640163	2.754382	-0.094892	99
Es	0.683887	-2.309852	-0.958579	99
Es	0.780128	0.850567	0.184546	99
Es	1.011361	1.507608	0.183875	99
Es	-0.857205	-1.638157	0.192620	99
Es	0.246591	-1.991369	-1.372524	99
Es	0.164323	-1.982799	0.772958	99
Es	0.922557	0.199195	0.271554	99
Es	0.451239	3.553569	-0.258870	99
Es	-0.099166	-1.632733	0.184358	99
Es	0.232610	3.076336	-0.272802	99
Es	1.463078	2.407343	0.869467	99
Es	0.382704	-0.271803	0.184551	99
Es	0.484645	0.313784	-0.167736	99
Es	1.849692	2.270428	-0.261944	99
Es	-1.893663	-1.356525	-0.415466	99
Es	1.261866	2.211507	0.184477	99
Es	0.209744	-2.561400	-0.996558	99
42
Properties=species:S:1:pos:R:3:Z:I:1 energy=-343.7734668946491 field_type=dipole dipole="0.000000 0.000000 0.000000" charge=0
C	-1.620592	-1.691848	0.190435	6
C	-0.099242	-1.632758	0.184555	6
O	0.379158	-2.306628	-0.976125	8
C	0.382778	-0.271588	0.184555	6
C	0.780058	0.850312	0.184555	6
C	1.262078	2.211482	0.184555	6
O	0.232278	3.076232	-0.272895	8
H	-2.036612	-1.205648	1.078085	1
H	-1.961412	-2.731968	0.168145	1
H	-2.039602	-1.204058	-0.696775	1
H	0.284948	-2.174268	1.055035	1
H	0.155738	-1.742178	-1.736205	1
H	2.125528	2.322572	-0.478505	1
H	1.555208	2.525412	1.191045	1
H	0.599688	3.974932	-0.260465	1
Es	0.929402	0.194982	0.229363	99
Es	0.683355	-2.309720	-0.958988	99
Es	-1.893670	-1.356509	-0.415448	99
Es	0.382711	-0.271815	0.184559	99
Es	0.450955	3.553820	-0.258469	99
Es	-0.099163	-1.632733	0.184353	99
Es	0.184312	3.005928	-0.564885	99
Es	0.640082	2.754368	-0.094455	99
Es	0.780148	0.850567	0.184551	99
Es	1.849725	2.270390	-0.261934	99
Es	1.463064	2.407325	0.869435	99
Es	-1.842684	-2.397795	0.180495	99
Es	0.209534	-2.561800	-0.996525	99
Es	0.379001	-2.306384	-0.976123	99
Es	-1.896061	-1.361017	0.795060	99
Es	0.150361	-0.918878	0.187232	99
Es	0.193768	-2.021659	-0.544798	99
Es	0.164427	-1.982729	0.772980	99
Es	0.246638	-1.991285	-1.372410	99
Es	-0.857270	-1.638094	0.192672	99
Es	0.371744	0.348810	0.472936	99
Es	1.261865	2.211508	0.184480	99
Es	0.014299	3.069066	-0.061355	99
Es	1.011321	1.507640	0.184231	99
Es	-1.620565	-1.691838	0.190437	99
Es	0.448370	0.332757	-0.153320	99
Es	0.232584	3.076307	-0.272822	99
42
Properties=species:S:1:pos:R:3:Z:I:1 energy=-343.7734668946491 field_type=dipole dipole="0.000000 0.000000 0.000000" charge=0
C	-1.620592	-1.691848	0.190435	6
C	-0.099242	-1.632758	0.184555	6
O	0.379158	-2.306628	-0.976125	8
C	0.382778	-0.271588	0.184555	6
C	0.780058	0.850312	0.184555	6
C	1.262078	2.211482	0.184555	6
O	0.232278	3.076232	-0.272895	8
H	-2.036612	-1.205648	1.078085	1
H	-1.961412	-2.731968	0.168145	1
H	-2.039602	-1.204058	-0.696775	1
H	0.284948	-2.174268	1.055035	1
H	0.155738	-1.742178	-1.736205	1
H	2.125528	2.322572	-0.478505	1
H	1.555208	2.525412	1.191045	1
H	0.599688	3.974932	-0.260465	1
Es	1.011393	1.507734	0.184032	99
Es	1.463040	2.407234	0.869515	99
Es	0.927473	0.196493	0.245041	99
Es	0.247481	-1.990956	-1.372543	99
Es	0.232598	3.076365	-0.272714	99
Es	0.461356	0.325865	-0.159301	99
Es	0.150295	-0.918955	0.187368	99
Es	0.382704	-0.271806	0.184558	99
Es	1.849737	2.270366	-0.261933	99
Es	-0.099162	-1.632734	0.184350	99
Es	0.193791	-2.021555	-0.544762	99
Es	0.682863	-2.310348	-0.958682	99
Es	0.209154	-2.561610	-0.996793	99
Es	0.639947	2.754240	-0.093899	99
Es	0.185614	3.006001	-0.564226	99
Es	0.360686	0.354184	0.463237	99
Es	-1.620557	-1.691836	0.190440	99
Es	-1.896110	-1.361033	0.795014	99
Es	0.451031	3.553828	-0.258992	99
Es	1.261869	2.211506	0.184480	99
Es	0.379034	-2.306397	-0.976115	99
Es	-0.857189	-1.638140	0.192776	99
Es	0.780145	0.850559	0.184546	99
Es	0.164442	-1.982690	0.773031	99
Es	0.013006	3.069083	-0.062166	99
Es	-1.893562	-1.356441	-0.415412	99
Es	-1.842824	-2.397744	0.180402	99
42
Properties=species:S:1:pos:R:3:Z:I:1 energy=-343.7734668946491 field_type=dipole dipole="0.000000 0.000000 0.000000" charge=0
C	-1.620592	-1.691848	0.190435	6
C	-0.099242	-1.632758	0.184555	6
O	0.379158	-2.306628	-0.976125	8
C	0.382778	-0.271588	0.184555	6
C	0.780058	0.850312	0.184555	6
C	1.262078	2.211482	0.184555	6
O	0.232278	3.076232	-0.272895	8
H	-2.036612	-1.205648	1.078085	1
H	-1.961412	-2.731968	0.168145	1
H	-2.039602	-1.204058	-0.696775	1
H	0.284948	-2.174268	1.055035	1
H	0.155738	-1.742178	-1.736205	1
H	2.125528	2.322572	-0.478505	1
H	1.555208	2.525412	1.191045	1
H	0.599688	3.974932	-0.260465	1
Es	1.261869	2.211506	0.184481	99
Es	-1.896129	-1.361038	0.795022	99
Es	1.463036	2.407222	0.869504	99
Es	0.232463	3.076301	-0.272851	99
Es	-1.893718	-1.356580	-0.415425	99
Es	-0.099163	-1.632733	0.184354	99
Es	0.211705	-2.562782	-0.996503	99
Es	0.164491	-1.982578	0.772971	99
Es	0.780148	0.850561	0.184550	99
Es	0.382705	-0.271806	0.184558	99
Es	1.849758	2.270289	-0.261947	99
Es	0.924039	0.198490	0.264343	99
Es	-1.842721	-2.397683	0.180500	99
Es	-1.620560	-1.691837	0.190440	99
Es	1.011383	1.507801	0.183984	99
Es	-0.857266	-1.637973	0.192735	99
Es	0.451169	3.553661	-0.258894	99
Es	0.150371	-0.919137	0.187437	99
Es	0.640204	2.753735	-0.095138	99
Es	0.378962	-2.306292	-0.976125	99
Es	0.245824	-1.991982	-1.372657	99
Es	0.183177	3.006208	-0.564337	99
Es	0.347279	0.360962	0.450369	99
Es	0.683115	-2.307800	-0.958963	99
Es	0.478229	0.317109	-0.165677	99
Es	0.015135	3.069633	-0.060823	99
Es	0.192750	-2.022043	-0.544655	99
42
Properties=species:S:1:pos:R:3:Z:I:1 energy=-343.7734668946491 field_type=dipole dipole="0.000000 0.000000 0.000000" charge=0
C	-1.620592	-1.691848	0.190435	6
C	-0.099242	-1.632758	0.184555	6
O	0.379158	-2.306628	-0.976125	8
C	0.382778	-0.271588	0.184555	6
C	0.780058	0.850312	0.184555	6
C	1.262078	2.211482	0.184555	6
O	0.232278	3.076232	-0.272895	8
H	-2.036612	-1.205648	1.078085	1
H	-1.961412	-2.731968	0.168145	1
H	-2.039602	-1.204058	-0.696775	1
H	0.284948	-2.174268	1.055035	1
H	0.155738	-1.742178	-1.736205	1
H	2.125528	2.322572	-0.478505	1
H	1.555208	2.525412	1.191045	1
H	0.599688	3.974932	-0.260465	1
Es	0.450810	3.554000	-0.258899	99
Es	0.247069	-1.991378	-1.372841	99
Es	0.210065	-2.560717	-0.996879	99
Es	1.849723	2.270240	-0.261978	99
Es	0.014206	3.069298	-0.062032	99
Es	-1.620561	-1.691837	0.190438	99
Es	-1.896085	-1.361090	0.795074	99
Es	1.261870	2.211507	0.184481	99
Es	0.184486	3.005899	-0.564271	99
Es	0.164504	-1.982589	0.773007	99
Es	0.639979	2.754058	-0.093970	99
Es	0.382706	-0.271805	0.184557	99
Es	0.378964	-2.306347	-0.976119	99
Es	-0.857316	-1.637913	0.192710	99
Es	0.472769	0.319922	-0.163689	99
Es	0.232625	3.076314	-0.272851	99
Es	0.192872	-2.021963	-0.544596	99
Es	0.925388	0.197798	0.258114	99
Es	1.011383	1.507866	0.183997	99
Es	0.150363	-0.919158	0.187424	99
Es	-0.099163	-1.632734	0.184354	99
Es	-1.893667	-1.356452	-0.415327	99
Es	0.683397	-2.310474	-0.958521	99
Es	1.463082	2.407165	0.869550	99
Es	0.351379	0.358831	0.454595	99
Es	-1.842738	-2.397790	0.180373	99
Es	0.780145	0.850561	0.184549	99
42
Properties=species:S:1:pos:R:3:Z:I:1 energy=-343.7734668946491 field_type=dipole dipole="0.000000 0.000000 0.000000" charge=0
C	-1.620592	-1.691848	0.190435	6
C	-0.099242	-1.632758	0.184555	6
O	0.379158	-2.306628	-0.976125	8
C	0.382778	-0.271588	0.184555	6
C	0.780058	0.850312	0.184555	6
C	1.262078	2.211482	0.184555	6
O	0.232278	3.076232	-0.272895	8
H	-2.036612	-1.205648	1.078085	1
H	-1.961412	-2.731968	0.168145	1
H	-2.039602	-1.204058	-0.696775	1
H	0.284948	-2.174268	1.055035	1
H	0.155738	-1.742178	-1.736205	1
H	2.125528	2.322572	-0.478505	1
H	1.555208	2.525412	1.191045	1
H	0.599688	3.974932	-0.260465	1
Es	0.378911	-2.306349	-0.976124	99
Es	1.849718	2.270194	-0.261981	99
Es	0.212257	-2.561713	-0.996330	99
Es	0.918044	0.201122	0.288800	99
Es	-0.857334	-1.637853	0.192663	99
Es	0.683246	-2.308331	-0.959081	99
Es	0.500113	0.305984	-0.172331	99
Es	-1.620561	-1.691837	0.190439	99
Es	1.463095	2.407143	0.869551	99
Es	-1.893732	-1.356565	-0.415387	99
Es	0.192553	-2.022225	-0.544349	99
Es	0.780147	0.850561	0.184547	99
Es	0.640064	2.753845	-0.094301	99
Es	-1.896054	-1.361009	0.795050	99
Es	0.164486	-1.982537	0.773004	99
Es	0.014134	3.069144	-0.062110	99
Es	0.450746	3.554106	-0.258875	99
Es	0.232588	3.076320	-0.272850	99
Es	0.331450	0.369470	0.432457	99
Es	1.261870	2.211507	0.184481	99
Es	0.150321	-0.919252	0.187720	99
Es	0.382702	-0.271811	0.184557	99
Es	-0.099165	-1.632732	0.184361	99
Es	1.011406	1.507887	0.183840	99
Es	0.184538	3.006178	-0.563914	99
Es	0.245435	-1.992289	-1.373099	99
Es	-1.842724	-2.397745	0.180513	99
42
Properties=species:S:1:pos:R:3:Z:I:1 energy=-343.7734668946491 field_type=dipole dipole="0.000000 0.000000 0.000000" charge=0
C	-1.620592	-1.691848	0.190435	6
C	-0.099242	-1.632758	0.184555	6
O	0.379158	-2.306628	-0.976125	8
C	0.382778	-0.271588	0.184555	6
C	0.780058	0.850312	0.184555	6
C	1.262078	2.211482	0.184555	6
O	0.232278	3.076232	-0.272895	8
H	-2.036612	-1.205648	1.078085	1
H	-1.961412	-2.731968	0.168145	1
H	-2.039602	-1.204058	-0.696775	1
H	0.284948	-2.174268	1.055035	1
H	0.155738	-1.742178	-1.736205	1
H	2.125528	2.322572	-0.478505	1
H	1.555208	2.525412	1.191045	1
H	0.599688	3.974932	-0.260465	1
Es	-0.099163	-1.632735	0.184351	99
Es	1.011495	1.507897	0.183941	99
Es	-1.893667	-1.356519	-0.415412	99
Es	0.925006	0.198000	0.261492	99
Es	0.248237	-1.990786	-1.372797	99
Es	0.379062	-2.306492	-0.976130	99
Es	0.150382	-0.919378	0.187421	99
Es	0.349534	0.359783	0.452142	99
Es	0.206926	-2.557479	-0.996864	99
Es	0.683529	-2.314927	-0.959136	99
Es	1.261860	2.211505	0.184478	99
Es	0.194703	-2.021211	-0.544076	99
Es	0.474912	0.318829	-0.164589	99
Es	1.849740	2.270236	-0.261957	99
Es	-1.896132	-1.361072	0.795034	99
Es	0.232598	3.076331	-0.272810	99
Es	0.640026	2.753709	-0.094087	99
Es	0.184682	3.006326	-0.564002	99
Es	0.014206	3.068980	-0.062623	99
Es	-1.620561	-1.691837	0.190440	99
Es	1.463060	2.407052	0.869579	99
Es	-0.857378	-1.637862	0.192776	99
Es	0.164553	-1.982466	0.773034	99
Es	0.780145	0.850560	0.184549	99
Es	-1.842739	-2.397701	0.180439	99
Es	0.450532	3.554272	-0.258499	99
Es	0.382705	-0.271804	0.184559	99
