47
Properties=species:S:1:pos:R:3:Z:I:1 energy=-309.12043988356584 field_type=dipole dipole="0.000000 0.000000 0.000000" charge=0
C	-2.664618	0.684858	0.845952	6
O	-1.248618	0.571478	0.856772	8
C	-0.773498	-0.180151	-0.259248	6
C	0.734432	-0.244761	-0.189788	6
C	1.274442	-1.092201	0.932101	6
C	1.515772	-0.214381	-1.488648	6
C	1.519693	0.988238	-0.588328	6
H	-2.969957	1.265258	1.720422	1
H	-3.128877	-0.304201	0.903342	1
H	-3.000587	1.207759	-0.054458	1
H	-1.102677	0.304259	-1.186818	1
H	-1.192087	-1.192901	-0.230368	1
H	2.370363	-1.090322	0.955922	1
H	0.944873	-2.130221	0.816501	1
H	0.920552	-0.723722	1.900332	1
H	0.973862	-0.141951	-2.425138	1
H	2.429612	-0.794441	-1.560558	1
H	2.429942	1.219729	-0.046148	1
H	0.967383	1.867679	-0.901838	1
Es	1.519647	0.988071	-0.588379	99
Es	-0.773550	-0.180035	-0.259069	99
Es	1.010739	-0.665906	0.367131	99
Es	1.062712	-0.414091	-0.888862	99
Es	-1.142351	0.855083	0.815966	99
Es	0.734520	-0.244693	-0.189903	99
Es	-2.987410	0.002443	0.877819	99
Es	-1.180614	0.404121	1.105160	99
Es	-1.000935	0.154497	-0.903940	99
Es	1.630043	0.474526	-1.161052	99
Es	1.141499	1.580899	-0.806768	99
Es	-2.874984	1.079754	1.440621	99
Es	2.138390	1.138260	-0.218733	99
Es	1.035293	-0.843756	1.585603	99
Es	-0.017398	-0.208562	-0.232012	99
Es	-1.064520	-0.880971	-0.240802	99
Es	-1.102179	0.281417	0.423023	99
Es	1.140694	-0.164634	-2.122574	99
Es	-1.791818	0.595809	0.822161	99
Es	1.046111	-1.801297	0.849131	99
Es	2.022894	-1.086876	0.939875	99
Es	1.274440	-1.092194	0.932071	99
Es	2.135175	-0.611455	-1.531209	99
Es	1.070860	0.464644	-0.232641	99
Es	-1.248915	0.571215	0.856573	99
Es	-2.664404	0.684837	0.845947	99
Es	1.515721	-0.214297	-1.488509	99
Es	-2.899100	1.039045	0.220758	99
47
Properties=species:S:1:pos:R:3:Z:I:1 energy=-309.12043988356584 field_type=dipole dipole="0.000000 0.000000 0.000000" charge=0
C	-2.664618	0.684858	0.845952	6
O	-1.248618	0.571478	0.856772	8
C	-0.773498	-0.180151	-0.259248	6
C	0.734432	-0.244761	-0.189788	6
C	1.274442	-1.092201	0.932101	6
C	1.515772	-0.214381	-1.488648	6
C	1.519693	0.988238	-0.588328	6
H	-2.969957	1.265258	1.720422	1
H	-3.128877	-0.304201	0.903342	1
H	-3.000587	1.207759	-0.054458	1
H	-1.102677	0.304259	-1.186818	1
H	-1.192087	-1.192901	-0.230368	1
H	2.370363	-1.090322	0.955922	1
H	0.944873	-2.130221	0.816501	1
H	0.920552	-0.723722	1.900332	1
H	0.973862	-0.141951	-2.425138	1
H	2.429612	-0.794441	-1.560558	1
H	2.429942	1.219729	-0.046148	1
H	0.967383	1.867679	-0.901838	1
Es	-1.248830	0.571384	0.856512	99
Es	-1.102492	0.280305	0.423588	99
Es	-1.142206	0.854926	0.815084	99
Es	2.138281	1.138292	-0.218779	99
Es	-2.987418	0.002459	0.877829	99
Es	1.070823	0.464784	-0.232458	99
Es	-0.773548	-0.180033	-0.259071	99
Es	1.010554	-0.665835	0.367131	99
Es	0.734520	-0.244698	-0.189906	99
Es	-1.792425	0.595627	0.823425	99
Es	-2.664401	0.684832	0.845947	99
Es	1.035508	-0.843715	1.585601	99
Es	1.062558	-0.414265	-0.888769	99
Es	1.519647	0.988069	-0.588380	99
Es	1.045885	-1.801179	0.849245	99
Es	-1.001071	0.154450	-0.903876	99
Es	1.140812	-0.164594	-2.122492	99
Es	1.515719	-0.214302	-1.488510	99
Es	1.274440	-1.092194	0.932073	99
Es	-0.017267	-0.208518	-0.232168	99
Es	1.630275	0.474580	-1.161239	99
Es	2.135072	-0.611473	-1.531271	99
Es	-2.874994	1.079700	1.440583	99
Es	1.141593	1.580856	-0.806755	99
Es	2.022977	-1.087097	0.939726	99
Es	-1.064402	-0.880934	-0.240854	99
Es	-2.899136	1.039065	0.220777	99
Es	-1.179909	0.405363	1.104396	99
47
Properties=species:S:1:pos:R:3:Z:I:1 energy=-309.12043988356584 field_type=dipole dipole="0.000000 0.000000 0.000000" charge=0
C	-2.664618	0.684858	0.845952	6
O	-1.248618	0.571478	0.856772	8
C	-0.773498	-0.180151	-0.259248	6
C	0.734432	-0.244761	-0.189788	6
C	1.274442	-1.092201	0.932101	6
C	1.515772	-0.214381	-1.488648	6
C	1.519693	0.988238	-0.588328	6
H	-2.969957	1.265258	1.720422	1
H	-3.128877	-0.304201	0.903342	1
H	-3.000587	1.207759	-0.054458	1
H	-1.102677	0.304259	-1.186818	1
H	-1.192087	-1.192901	-0.230368	1
H	2.370363	-1.090322	0.955922	1
H	0.944873	-2.130221	0.816501	1
H	0.920552	-0.723722	1.900332	1
H	0.973862	-0.141951	-2.425138	1
H	2.429612	-0.794441	-1.560558	1
H	2.429942	1.219729	-0.046148	1
H	0.967383	1.867679	-0.901838	1
Es	1.140918	-0.164697	-2.122418	99
Es	-2.987431	0.002494	0.877830	99
Es	-1.181664	0.403812	1.102659	99
Es	1.010521	-0.665959	0.367060	99
Es	0.734522	-0.244696	-0.189906	99
Es	1.630484	0.474946	-1.161328	99
Es	-0.773544	-0.180036	-0.259076	99
Es	-2.875018	1.079759	1.440583	99
Es	2.134933	-0.611424	-1.531291	99
Es	-1.792528	0.596500	0.823019	99
Es	-2.664404	0.684837	0.845948	99
Es	1.515716	-0.214291	-1.488496	99
Es	-0.017215	-0.208383	-0.232126	99
Es	-1.064469	-0.881023	-0.240862	99
Es	1.274440	-1.092193	0.932071	99
Es	1.045900	-1.801207	0.849307	99
Es	1.062427	-0.414568	-0.888907	99
Es	2.138141	1.138333	-0.218801	99
Es	-2.899110	1.039013	0.220776	99
Es	-1.248869	0.571227	0.856547	99
Es	1.141680	1.580791	-0.806667	99
Es	-1.000971	0.154453	-0.903838	99
Es	1.070824	0.464780	-0.232380	99
Es	1.035432	-0.843679	1.585495	99
Es	1.519646	0.988070	-0.588378	99
Es	-1.140466	0.855080	0.817657	99
Es	-1.102328	0.280979	0.423064	99
Es	2.022995	-1.087064	0.939844	99
47
Properties=species:S:1:pos:R:3:Z:I:1 energy=-309.12043988356584 field_type=dipole dipole="0.000000 0.000000 0.000000" charge=0
C	-2.664618	0.684858	0.845952	6
O	-1.248618	0.571478	0.856772	8
C	-0.773498	-0.180151	-0.259248	6
C	0.734432	-0.244761	-0.189788	6
C	1.274442	-1.092201	0.932101	6
C	1.515772	-0.214381	-1.488648	6
C	1.519693	0.988238	-0.588328	6
H	-2.969957	1.265258	1.720422	1
H	-3.128877	-0.304201	0.903342	1
H	-3.000587	1.207759	-0.054458	1
H	-1.102677	0.304259	-1.186818	1
H	-1.192087	-1.192901	-0.230368	1
H	2.370363	-1.090322	0.955922	1
H	0.944873	-2.130221	0.816501	1
H	0.920552	-0.723722	1.900332	1
H	0.973862	-0.141951	-2.425138	1
H	2.429612	-0.794441	-1.560558	1
H	2.429942	1.219729	-0.046148	1
H	0.967383	1.867679	-0.901838	1
Es	0.734521	-0.244693	-0.189904	99
Es	-1.248802	0.571363	0.856555	99
Es	-2.664419	0.684837	0.845949	99
Es	1.010422	-0.665875	0.367042	99
Es	-1.183940	0.401739	1.100552	99
Es	-2.875022	1.079736	1.440569	99
Es	-1.001093	0.154357	-0.903843	99
Es	1.062434	-0.414693	-0.888967	99
Es	1.070667	0.464847	-0.232145	99
Es	2.134842	-0.611376	-1.531301	99
Es	-1.138176	0.854911	0.820736	99
Es	1.519646	0.988072	-0.588378	99
Es	-2.899131	1.039017	0.220819	99
Es	1.141835	1.580758	-0.806641	99
Es	-1.064373	-0.880963	-0.240817	99
Es	-2.987433	0.002504	0.877805	99
Es	1.140981	-0.164808	-2.122362	99
Es	1.515718	-0.214297	-1.488503	99
Es	-0.017130	-0.208360	-0.232170	99
Es	1.274441	-1.092194	0.932072	99
Es	-1.792658	0.597989	0.822533	99
Es	1.630613	0.475056	-1.161529	99
Es	-1.102254	0.281615	0.422607	99
Es	-0.773547	-0.180036	-0.259075	99
Es	2.138027	1.138329	-0.218864	99
Es	1.035461	-0.843740	1.585536	99
Es	1.045953	-1.801182	0.849296	99
Es	2.022981	-1.087057	0.939816	99
47
Properties=species:S:1:pos:R:3:Z:I:1 energy=-309.12043988356584 field_type=dipole dipole="0.000000 0.000000 0.000000" charge=0
C	-2.664618	0.684858	0.845952	6
O	-1.248618	0.571478	0.856772	8
C	-0.773498	-0.180151	-0.259248	6
C	0.734432	-0.244761	-0.189788	6
C	1.274442	-1.092201	0.932101	6
C	1.515772	-0.214381	-1.488648	6
C	1.519693	0.988238	-0.588328	6
H	-2.969957	1.265258	1.720422	1
H	-3.128877	-0.304201	0.903342	1
H	-3.000587	1.207759	-0.054458	1
H	-1.102677	0.304259	-1.186818	1
H	-1.192087	-1.192901	-0.230368	1
H	2.370363	-1.090322	0.955922	1
H	0.944873	-2.130221	0.816501	1
H	0.920552	-0.723722	1.900332	1
H	0.973862	-0.141951	-2.425138	1
H	2.429612	-0.794441	-1.560558	1
H	2.429942	1.219729	-0.046148	1
H	0.967383	1.867679	-0.901838	1
Es	0.734522	-0.244693	-0.189902	99
Es	2.137885	1.138414	-0.218983	99
Es	-2.987491	0.002500	0.877784	99
Es	1.062332	-0.414962	-0.888979	99
Es	1.141051	-0.164790	-2.122315	99
Es	1.035519	-0.843718	1.585505	99
Es	1.010381	-0.665852	0.366994	99
Es	1.070632	0.465033	-0.231924	99
Es	-1.248877	0.571227	0.856538	99
Es	-1.181689	0.403819	1.102208	99
Es	1.045912	-1.801156	0.849380	99
Es	-1.792688	0.596678	0.823201	99
Es	-1.102071	0.281381	0.422697	99
Es	1.274440	-1.092194	0.932072	99
Es	-2.664403	0.684836	0.845946	99
Es	-1.064467	-0.880896	-0.240848	99
Es	-0.017069	-0.208549	-0.232025	99
Es	-2.899121	1.039025	0.220876	99
Es	-0.773547	-0.180036	-0.259075	99
Es	-1.140490	0.854590	0.818315	99
Es	1.141901	1.580686	-0.806646	99
Es	2.022999	-1.087111	0.939804	99
Es	1.519647	0.988070	-0.588379	99
Es	-2.875048	1.079723	1.440525	99
Es	2.134772	-0.611262	-1.531380	99
Es	1.515716	-0.214304	-1.488504	99
Es	1.630759	0.475035	-1.161609	99
Es	-1.000945	0.154360	-0.903889	99
47
Properties=species:S:1:pos:R:3:Z:I:1 energy=-309.12043988356584 field_type=dipole dipole="0.000000 0.000000 0.000000" charge=0
C	-2.664618	0.684858	0.845952	6
O	-1.248618	0.571478	0.856772	8
C	-0.773498	-0.180151	-0.259248	6
C	0.734432	-0.244761	-0.189788	6
C	1.274442	-1.092201	0.932101	6
C	1.515772	-0.214381	-1.488648	6
C	1.519693	0.988238	-0.588328	6
H	-2.969957	1.265258	1.720422	1
H	-3.128877	-0.304201	0.903342	1
H	-3.000587	1.207759	-0.054458	1
H	-1.102677	0.304259	-1.186818	1
H	-1.192087	-1.192901	-0.230368	1
H	2.370363	-1.090322	0.955922	1
H	0.944873	-2.130221	0.816501	1
H	0.920552	-0.723722	1.900332	1
H	0.973862	-0.141951	-2.425138	1
H	2.429612	-0.794441	-1.560558	1
H	2.429942	1.219729	-0.046148	1
H	0.967383	1.867679	-0.901838	1
Es	-1.248857	0.571505	0.856348	99
Es	1.035487	-0.843752	1.585522	99
Es	1.519645	0.988069	-0.588377	99
Es	-1.792841	0.598279	0.823158	99
Es	1.515719	-0.214295	-1.488504	99
Es	1.062275	-0.414979	-0.889013	99
Es	2.022946	-1.087046	0.939836	99
Es	2.134632	-0.611322	-1.531404	99
Es	-2.987447	0.002524	0.877799	99
Es	-1.102634	0.280982	0.422834	99
Es	-0.773549	-0.180035	-0.259072	99
Es	1.010338	-0.665843	0.366946	99
Es	0.734523	-0.244692	-0.189905	99
Es	1.141980	1.580629	-0.806528	99
Es	-2.899145	1.038990	0.220834	99
Es	1.630973	0.475339	-1.161882	99
Es	-0.016974	-0.208500	-0.232108	99
Es	-2.875074	1.079728	1.440540	99
Es	1.070479	0.464934	-0.231769	99
Es	-1.001022	0.154325	-0.903808	99
Es	2.137853	1.138415	-0.218999	99
Es	-1.183655	0.402416	1.100222	99
Es	-1.137831	0.854491	0.820464	99
Es	-2.664405	0.684837	0.845947	99
Es	-1.064422	-0.880889	-0.240881	99
Es	1.274440	-1.092194	0.932072	99
Es	1.045983	-1.801202	0.849331	99
Es	1.141144	-0.164860	-2.122214	99
47
Properties=species:S:1:pos:R:3:Z:I:1 energy=-309.12043988356584 field_type=dipole dipole="0.000000 0.000000 0.000000" charge=0
C	-2.664618	0.684858	0.845952	6
O	-1.248618	0.571478	0.856772	8
C	-0.773498	-0.180151	-0.259248	6
C	0.734432	-0.244761	-0.189788	6
C	1.274442	-1.092201	0.932101	6
C	1.515772	-0.214381	-1.488648	6
C	1.519693	0.988238	-0.588328	6
H	-2.969957	1.265258	1.720422	1
H	-3.128877	-0.304201	0.903342	1
H	-3.000587	1.207759	-0.054458	1
H	-1.102677	0.304259	-1.186818	1
H	-1.192087	-1.192901	-0.230368	1
H	2.370363	-1.090322	0.955922	1
H	0.944873	-2.130221	0.816501	1
H	0.920552	-0.723722	1.900332	1
H	0.973862	-0.141951	-2.425138	1
H	2.429612	-0.794441	-1.560558	1
H	2.429942	1.219729	-0.046148	1
H	0.967383	1.867679	-0.901838	1
Es	-2.899142	1.038918	0.220844	99
Es	2.137759	1.138447	-0.219066	99
Es	1.515719	-0.214293	-1.488503	99
Es	1.519647	0.988069	-0.588382	99
Es	1.046013	-1.801165	0.849343	99
Es	2.134534	-0.611317	-1.531416	99
Es	-1.177502	0.408526	1.106314	99
Es	1.070313	0.465021	-0.231457	99
Es	1.035491	-0.843762	1.585555	99
Es	1.141225	-0.164919	-2.122148	99
Es	-2.987472	0.002577	0.877829	99
Es	1.631144	0.475348	-1.162146	99
Es	-1.064425	-0.880851	-0.240890	99
Es	-1.792899	0.595682	0.824117	99
Es	-1.248733	0.571424	0.856677	99
Es	-1.101996	0.279346	0.424026	99
Es	2.022948	-1.087060	0.939811	99
Es	-2.875091	1.079782	1.440517	99
Es	0.734523	-0.244691	-0.189904	99
Es	1.142098	1.580569	-0.806523	99
Es	-0.773551	-0.180027	-0.259067	99
Es	-1.001051	0.154288	-0.903792	99
Es	-0.016909	-0.208547	-0.232115	99
Es	1.010264	-0.665823	0.366881	99
Es	1.274439	-1.092194	0.932072	99
Es	-2.664408	0.684837	0.845947	99
Es	-1.144640	0.852672	0.811900	99
Es	1.062261	-0.415003	-0.889037	99
47
Properties=species:S:1:pos:R:3:Z:I:1 energy=-309.12043988356584 field_type=dipole dipole="0.000000 0.000000 0.000000" charge=0
C	-2.664618	0.684858	0.845952	6
O	-1.248618	0.571478	0.856772	8
C	-0.773498	-0.180151	-0.259248	6
C	0.734432	-0.244761	-0.189788	6
C	1.274442	-1.092201	0.932101	6
C	1.515772	-0.214381	-1.488648	6
C	1.519693	0.988238	-0.588328	6
H	-2.969957	1.265258	1.720422	1
H	-3.128877	-0.304201	0.903342	1
H	-3.000587	1.207759	-0.054458	1
H	-1.102677	0.304259	-1.186818	1
H	-1.192087	-1.192901	-0.230368	1
H	2.370363	-1.090322	0.955922	1
H	0.944873	-2.130221	0.816501	1
H	0.920552	-0.723722	1.900332	1
H	0.973862	-0.141951	-2.425138	1
H	2.429612	-0.794441	-1.560558	1
H	2.429942	1.219729	-0.046148	1
H	0.967383	1.867679	-0.901838	1
Es	1.010214	-0.665799	0.366878	99
Es	0.734524	-0.244690	-0.189908	99
Es	1.062122	-0.415321	-0.889097	99
Es	1.631281	0.475629	-1.162181	99
Es	-1.143501	0.852742	0.813257	99
Es	-2.987463	0.002607	0.877788	99
Es	-0.773548	-0.180035	-0.259073	99
Es	1.035511	-0.843789	1.585518	99
Es	2.134456	-0.611265	-1.531484	99
Es	-2.875116	1.079709	1.440528	99
Es	2.137653	1.138470	-0.219110	99
Es	-1.064438	-0.880854	-0.240922	99
Es	1.142150	1.580523	-0.806429	99
Es	-2.664403	0.684837	0.845947	99
Es	-1.001018	0.154292	-0.903772	99
Es	1.141298	-0.164934	-2.122066	99
Es	1.046011	-1.801178	0.849363	99
Es	1.070329	0.465048	-0.231453	99
Es	2.022941	-1.087058	0.939846	99
Es	1.519645	0.988062	-0.588380	99
Es	-0.016826	-0.208537	-0.232095	99
Es	1.274440	-1.092195	0.932073	99
Es	-1.101962	0.279116	0.423871	99
Es	1.515721	-0.214291	-1.488505	99
Es	-1.793192	0.596085	0.824497	99
Es	-1.178348	0.408339	1.104830	99
Es	-2.899162	1.038960	0.220867	99
Es	-1.248758	0.571382	0.856598	99
47
Properties=species:S:1:pos:R:3:Z:I:1 energy=-309.12043988356584 field_type=dipole dipole="0.000000 0.000000 0.000000" charge=0
C	-2.664618	0.684858	0.845952	6
O	-1.248618	0.571478	0.856772	8
C	-0.773498	-0.180151	-0.259248	6
C	0.734432	-0.244761	-0.189788	6
C	1.274442	-1.092201	0.932101	6
C	1.515772	-0.214381	-1.488648	6
C	1.519693	0.988238	-0.588328	6
H	-2.969957	1.265258	1.720422	1
H	-3.128877	-0.304201	0.903342	1
H	-3.000587	1.207759	-0.054458	1
H	-1.102677	0.304259	-1.186818	1
H	-1.192087	-1.192901	-0.230368	1
H	2.370363	-1.090322	0.955922	1
H	0.944873	-2.130221	0.816501	1
H	0.920552	-0.723722	1.900332	1
H	0.973862	-0.141951	-2.425138	1
H	2.429612	-0.794441	-1.560558	1
H	2.429942	1.219729	-0.046148	1
H	0.967383	1.867679	-0.901838	1
Es	-2.987526	0.002603	0.877788	99
Es	1.519645	0.988065	-0.588380	99
Es	-2.899138	1.038962	0.220916	99
Es	1.274440	-1.092195	0.932073	99
Es	1.046036	-1.801153	0.849313	99
Es	2.022928	-1.087064	0.939797	99
Es	2.137591	1.138483	-0.219151	99
Es	-0.016819	-0.208556	-0.232101	99
Es	2.134398	-0.611202	-1.531527	99
Es	-1.180315	0.405466	1.102430	99
Es	1.631376	0.475737	-1.162283	99
Es	1.515718	-0.214294	-1.488502	99
Es	1.070253	0.465072	-0.231308	99
Es	-2.875080	1.079753	1.440517	99
Es	-1.141520	0.853156	0.817091	99
Es	-2.664408	0.684837	0.845947	99
Es	1.010117	-0.665702	0.366863	99
Es	1.035564	-0.843878	1.585576	99
Es	-1.248797	0.571344	0.856586	99
Es	-0.773548	-0.180036	-0.259074	99
Es	-1.001003	0.154261	-0.903740	99
Es	1.062101	-0.415479	-0.889116	99
Es	-1.793516	0.596606	0.823950	99
Es	-1.101658	0.281045	0.423019	99
Es	1.141363	-0.164936	-2.122029	99
Es	-1.064402	-0.880823	-0.240987	99
Es	0.734524	-0.244690	-0.189907	99
Es	1.142238	1.580471	-0.806377	99
