42
Properties=species:S:1:pos:R:3:Z:I:1 energy=-343.75504506028756 field_type=dipole dipole="0.000000 0.000000 0.000000" charge=0
C	-1.753922	-1.281354	-0.830515	6
O	-0.472732	-1.100774	-0.239625	8
C	-0.163763	0.133256	0.305115	6
C	-0.996423	1.191036	0.302205	6
C	1.177998	0.213176	0.922005	6
C	2.372528	0.344796	0.008995	6
O	1.992308	1.399966	0.898195	8
H	-1.816232	-2.313354	-1.188425	1
H	-1.884942	-0.618494	-1.691745	1
H	-2.550512	-1.133434	-0.094205	1
H	-1.985562	1.180186	-0.135045	1
H	-0.680803	2.129276	0.751065	1
H	1.287588	-0.427854	1.790715	1
H	2.211688	0.504336	-1.049725	1
H	3.262787	-0.220764	0.250985	1
Es	1.850846	1.621502	0.739784	99
Es	1.243639	-0.210039	1.513503	99
Es	-0.163704	0.132931	0.305046	99
Es	-0.787004	1.817623	0.604631	99
Es	-0.276191	-1.105962	-0.455484	99
Es	1.724911	0.063974	0.382837	99
Es	0.503212	0.185395	0.614828	99
Es	1.178120	0.213464	0.921945	99
Es	-0.450990	-1.277300	-0.003339	99
Es	-0.472914	-1.100531	-0.239620	99
Es	2.173131	1.389335	1.146414	99
Es	1.992237	1.399647	0.898060	99
Es	-0.478501	0.793277	0.011582	99
Es	-1.846470	-0.822339	-1.413291	99
Es	-0.962003	-1.120075	-0.444773	99
Es	-1.664754	1.177630	0.003985	99
Es	2.265073	0.460153	-0.708003	99
Es	-0.996469	1.191068	0.302206	99
Es	2.222059	1.059880	0.524902	99
Es	1.599378	0.994479	0.980400	99
Es	-2.297835	-1.171857	-0.330038	99
Es	-0.737530	0.597918	0.593981	99
Es	2.372421	0.345017	0.009210	99
Es	-1.753689	-1.281318	-0.830407	99
Es	2.984751	-0.029904	0.174542	99
Es	-0.398122	-0.614069	-0.037183	99
Es	-1.791087	-1.981340	-1.071543	99
42
Properties=species:S:1:pos:R:3:Z:I:1 energy=-343.75504506028756 field_type=dipole dipole="0.000000 0.000000 0.000000" charge=0
C	-1.753922	-1.281354	-0.830515	6
O	-0.472732	-1.100774	-0.239625	8
C	-0.163763	0.133256	0.305115	6
C	-0.996423	1.191036	0.302205	6
C	1.177998	0.213176	0.922005	6
C	2.372528	0.344796	0.008995	6
O	1.992308	1.399966	0.898195	8
H	-1.816232	-2.313354	-1.188425	1
H	-1.884942	-0.618494	-1.691745	1
H	-2.550512	-1.133434	-0.094205	1
H	-1.985562	1.180186	-0.135045	1
H	-0.680803	2.129276	0.751065	1
H	1.287588	-0.427854	1.790715	1
H	2.211688	0.504336	-1.049725	1
H	3.262787	-0.220764	0.250985	1
Es	-1.846468	-0.822385	-1.413225	99
Es	1.243528	-0.209891	1.513487	99
Es	1.851123	1.622778	0.741348	99
Es	-1.791155	-1.981411	-1.071561	99
Es	2.984765	-0.029774	0.174478	99
Es	-0.395157	-0.611608	-0.043004	99
Es	-0.996457	1.191068	0.302190	99
Es	1.724880	0.063489	0.382658	99
Es	0.503313	0.185457	0.614923	99
Es	-0.462644	-1.265042	0.001766	99
Es	1.178121	0.213456	0.921944	99
Es	-0.960497	-1.119080	-0.449340	99
Es	1.992224	1.399656	0.898053	99
Es	-0.737470	0.597945	0.594008	99
Es	-1.753689	-1.281319	-0.830408	99
Es	2.222414	1.060485	0.524336	99
Es	-0.473019	-1.100413	-0.239625	99
Es	-0.163700	0.132928	0.305040	99
Es	-2.297805	-1.171747	-0.330049	99
Es	-0.478438	0.793335	0.011757	99
Es	-0.787208	1.817685	0.604535	99
Es	-0.268905	-1.121798	-0.450258	99
Es	-1.664717	1.177450	0.003915	99
Es	2.372422	0.345019	0.009208	99
Es	1.599360	0.994216	0.980683	99
Es	2.265197	0.460219	-0.707885	99
Es	2.172497	1.387841	1.145204	99
42
Properties=species:S:1:pos:R:3:Z:I:1 energy=-343.75504506028756 field_type=dipole dipole="0.000000 0.000000 0.000000" charge=0
C	-1.753922	-1.281354	-0.830515	6
O	-0.472732	-1.100774	-0.239625	8
C	-0.163763	0.133256	0.305115	6
C	-0.996423	1.191036	0.302205	6
C	1.177998	0.213176	0.922005	6
C	2.372528	0.344796	0.008995	6
O	1.992308	1.399966	0.898195	8
H	-1.816232	-2.313354	-1.188425	1
H	-1.884942	-0.618494	-1.691745	1
H	-2.550512	-1.133434	-0.094205	1
H	-1.985562	1.180186	-0.135045	1
H	-0.680803	2.129276	0.751065	1
H	1.287588	-0.427854	1.790715	1
H	2.211688	0.504336	-1.049725	1
H	3.262787	-0.220764	0.250985	1
Es	-0.787222	1.817669	0.604509	99
Es	-1.846503	-0.822360	-1.413217	99
Es	2.984777	-0.029596	0.174322	99
Es	-0.271861	-1.115732	-0.452652	99
Es	1.850449	1.619550	0.739422	99
Es	-2.297853	-1.171879	-0.330055	99
Es	-0.472917	-1.100530	-0.239608	99
Es	1.178123	0.213464	0.921946	99
Es	1.724977	0.063109	0.382806	99
Es	-0.961569	-1.119731	-0.446920	99
Es	-0.396205	-0.612574	-0.041153	99
Es	-1.791094	-1.981322	-1.071612	99
Es	2.265036	0.460119	-0.707868	99
Es	-0.457662	-1.269414	-0.000058	99
Es	0.503371	0.185555	0.615023	99
Es	-1.753689	-1.281316	-0.830406	99
Es	1.243416	-0.209767	1.513423	99
Es	-0.737444	0.598012	0.593977	99
Es	2.372424	0.345018	0.009211	99
Es	2.172045	1.391539	1.145932	99
Es	1.599353	0.994063	0.981144	99
Es	-0.478473	0.793254	0.011712	99
Es	1.992267	1.399748	0.898113	99
Es	2.223632	1.060208	0.524987	99
Es	-0.996460	1.191063	0.302200	99
Es	-1.664697	1.177476	0.003955	99
Es	-0.163704	0.132932	0.305046	99
42
Properties=species:S:1:pos:R:3:Z:I:1 energy=-343.75504506028756 field_type=dipole dipole="0.000000 0.000000 0.000000" charge=0
C	-1.753922	-1.281354	-0.830515	6
O	-0.472732	-1.100774	-0.239625	8
C	-0.163763	0.133256	0.305115	6
C	-0.996423	1.191036	0.302205	6
C	1.177998	0.213176	0.922005	6
C	2.372528	0.344796	0.008995	6
O	1.992308	1.399966	0.898195	8
H	-1.816232	-2.313354	-1.188425	1
H	-1.884942	-0.618494	-1.691745	1
H	-2.550512	-1.133434	-0.094205	1
H	-1.985562	1.180186	-0.135045	1
H	-0.680803	2.129276	0.751065	1
H	1.287588	-0.427854	1.790715	1
H	2.211688	0.504336	-1.049725	1
H	3.262787	-0.220764	0.250985	1
Es	-0.274886	-1.108285	-0.454735	99
Es	1.243407	-0.209712	1.513405	99
Es	-0.478524	0.793290	0.011747	99
Es	-0.397845	-0.613770	-0.037505	99
Es	-2.297836	-1.171785	-0.330125	99
Es	1.992260	1.399666	0.898094	99
Es	2.265239	0.460199	-0.707759	99
Es	1.598733	0.994077	0.980987	99
Es	-0.472997	-1.100468	-0.239587	99
Es	1.851098	1.619972	0.740429	99
Es	-0.787246	1.817688	0.604548	99
Es	0.503402	0.185602	0.615238	99
Es	-0.737402	0.597964	0.593870	99
Es	-0.163702	0.132926	0.305040	99
Es	2.372424	0.345012	0.009206	99
Es	2.984727	-0.029601	0.174340	99
Es	-0.996459	1.191072	0.302196	99
Es	-1.664695	1.177438	0.004000	99
Es	-0.962410	-1.120807	-0.444947	99
Es	-0.451989	-1.274657	-0.003639	99
Es	2.223860	1.060703	0.524583	99
Es	-1.791174	-1.981358	-1.071583	99
Es	2.171738	1.390750	1.145576	99
Es	-1.846487	-0.822412	-1.413202	99
Es	1.178126	0.213466	0.921942	99
Es	1.724848	0.062909	0.382467	99
Es	-1.753692	-1.281318	-0.830409	99
42
Properties=species:S:1:pos:R:3:Z:I:1 energy=-343.75504506028756 field_type=dipole dipole="0.000000 0.000000 0.000000" charge=0
C	-1.753922	-1.281354	-0.830515	6
O	-0.472732	-1.100774	-0.239625	8
C	-0.163763	0.133256	0.305115	6
C	-0.996423	1.191036	0.302205	6
C	1.177998	0.213176	0.922005	6
C	2.372528	0.344796	0.008995	6
O	1.992308	1.399966	0.898195	8
H	-1.816232	-2.313354	-1.188425	1
H	-1.884942	-0.618494	-1.691745	1
H	-2.550512	-1.133434	-0.094205	1
H	-1.985562	1.180186	-0.135045	1
H	-0.680803	2.129276	0.751065	1
H	1.287588	-0.427854	1.790715	1
H	2.211688	0.504336	-1.049725	1
H	3.262787	-0.220764	0.250985	1
Es	1.178126	0.213469	0.921944	99
Es	-0.396541	-0.612887	-0.039708	99
Es	-0.996459	1.191070	0.302192	99
Es	2.984669	-0.029559	0.174325	99
Es	-2.297777	-1.171797	-0.330126	99
Es	1.992240	1.399692	0.898088	99
Es	-1.791207	-1.981393	-1.071627	99
Es	-1.846532	-0.822358	-1.413144	99
Es	-0.787403	1.817628	0.604628	99
Es	2.224213	1.060209	0.524460	99
Es	-0.737329	0.597930	0.593800	99
Es	-0.163705	0.132950	0.305043	99
Es	2.171323	1.390873	1.145308	99
Es	-0.478464	0.793406	0.011798	99
Es	0.503507	0.185641	0.615246	99
Es	1.243369	-0.209679	1.513353	99
Es	2.265360	0.460237	-0.707698	99
Es	-0.962115	-1.120388	-0.446230	99
Es	1.597972	0.994901	0.981326	99
Es	-0.455167	-1.271349	-0.001820	99
Es	-1.664691	1.177381	0.003944	99
Es	-0.472983	-1.100477	-0.239605	99
Es	-1.753692	-1.281319	-0.830409	99
Es	2.372419	0.345010	0.009208	99
Es	1.851904	1.619610	0.740598	99
Es	-0.273332	-1.112939	-0.453024	99
Es	1.724808	0.062697	0.382309	99
42
Properties=species:S:1:pos:R:3:Z:I:1 energy=-343.75504506028756 field_type=dipole dipole="0.000000 0.000000 0.000000" charge=0
C	-1.753922	-1.281354	-0.830515	6
O	-0.472732	-1.100774	-0.239625	8
C	-0.163763	0.133256	0.305115	6
C	-0.996423	1.191036	0.302205	6
C	1.177998	0.213176	0.922005	6
C	2.372528	0.344796	0.008995	6
O	1.992308	1.399966	0.898195	8
H	-1.816232	-2.313354	-1.188425	1
H	-1.884942	-0.618494	-1.691745	1
H	-2.550512	-1.133434	-0.094205	1
H	-1.985562	1.180186	-0.135045	1
H	-0.680803	2.129276	0.751065	1
H	1.287588	-0.427854	1.790715	1
H	2.211688	0.504336	-1.049725	1
H	3.262787	-0.220764	0.250985	1
Es	-0.396181	-0.612328	-0.040163	99
Es	2.224685	1.060095	0.524908	99
Es	-0.478624	0.793277	0.011783	99
Es	-0.274527	-1.112348	-0.452084	99
Es	2.372421	0.345018	0.009210	99
Es	1.178124	0.213450	0.921940	99
Es	1.851369	1.618976	0.739767	99
Es	-0.737342	0.597975	0.593716	99
Es	-0.472956	-1.100485	-0.239604	99
Es	2.171132	1.392050	1.144655	99
Es	-1.753698	-1.281321	-0.830411	99
Es	1.243199	-0.209489	1.513326	99
Es	-0.962076	-1.120775	-0.446675	99
Es	-0.996458	1.191061	0.302198	99
Es	-1.664716	1.177391	0.004082	99
Es	-0.454361	-1.272053	-0.001833	99
Es	0.503624	0.185778	0.615496	99
Es	-1.846596	-0.822294	-1.413172	99
Es	2.984701	-0.029442	0.174195	99
Es	1.724755	0.062217	0.382236	99
Es	2.265332	0.460232	-0.707590	99
Es	-1.791202	-1.981406	-1.071588	99
Es	1.992272	1.399778	0.898116	99
Es	1.598336	0.994465	0.982263	99
Es	-0.787282	1.817690	0.604546	99
Es	-0.163703	0.132922	0.305043	99
Es	-2.297712	-1.171876	-0.330184	99
42
Properties=species:S:1:pos:R:3:Z:I:1 energy=-343.75504506028756 field_type=dipole dipole="0.000000 0.000000 0.000000" charge=0
C	-1.753922	-1.281354	-0.830515	6
O	-0.472732	-1.100774	-0.239625	8
C	-0.163763	0.133256	0.305115	6
C	-0.996423	1.191036	0.302205	6
C	1.177998	0.213176	0.922005	6
C	2.372528	0.344796	0.008995	6
O	1.992308	1.399966	0.898195	8
H	-1.816232	-2.313354	-1.188425	1
H	-1.884942	-0.618494	-1.691745	1
H	-2.550512	-1.133434	-0.094205	1
H	-1.985562	1.180186	-0.135045	1
H	-0.680803	2.129276	0.751065	1
H	1.287588	-0.427854	1.790715	1
H	2.211688	0.504336	-1.049725	1
H	3.262787	-0.220764	0.250985	1
Es	1.598223	0.993929	0.982076	99
Es	-0.473045	-1.100461	-0.239486	99
Es	-0.455070	-1.271799	-0.001710	99
Es	-0.478604	0.793327	0.011849	99
Es	-0.273564	-1.112724	-0.452444	99
Es	1.178120	0.213450	0.921943	99
Es	-0.787279	1.817655	0.604565	99
Es	-1.791201	-1.981346	-1.071679	99
Es	-0.396515	-0.612929	-0.039900	99
Es	2.170862	1.392820	1.144782	99
Es	1.992314	1.399550	0.898158	99
Es	2.265436	0.460246	-0.707521	99
Es	2.225008	1.061035	0.524558	99
Es	-0.996460	1.191065	0.302197	99
Es	-0.163702	0.132931	0.305038	99
Es	-2.297827	-1.171824	-0.330156	99
Es	-1.846541	-0.822400	-1.413100	99
Es	-0.737297	0.597938	0.593641	99
Es	-1.664696	1.177445	0.004051	99
Es	-1.753689	-1.281321	-0.830408	99
Es	1.243136	-0.209440	1.513305	99
Es	0.503606	0.185786	0.615525	99
Es	1.851154	1.618108	0.740391	99
Es	2.372419	0.345016	0.009211	99
Es	2.984656	-0.029283	0.174138	99
Es	-0.961925	-1.120125	-0.446856	99
Es	1.724997	0.061911	0.382008	99
42
Properties=species:S:1:pos:R:3:Z:I:1 energy=-343.75504506028756 field_type=dipole dipole="0.000000 0.000000 0.000000" charge=0
C	-1.753922	-1.281354	-0.830515	6
O	-0.472732	-1.100774	-0.239625	8
C	-0.163763	0.133256	0.305115	6
C	-0.996423	1.191036	0.302205	6
C	1.177998	0.213176	0.922005	6
C	2.372528	0.344796	0.008995	6
O	1.992308	1.399966	0.898195	8
H	-1.816232	-2.313354	-1.188425	1
H	-1.884942	-0.618494	-1.691745	1
H	-2.550512	-1.133434	-0.094205	1
H	-1.985562	1.180186	-0.135045	1
H	-0.680803	2.129276	0.751065	1
H	1.287588	-0.427854	1.790715	1
H	2.211688	0.504336	-1.049725	1
H	3.262787	-0.220764	0.250985	1
Es	-0.163702	0.132935	0.305040	99
Es	-0.478639	0.793275	0.011865	99
Es	2.225216	1.061016	0.524279	99
Es	-0.396946	-0.613264	-0.038521	99
Es	-0.962373	-1.120781	-0.446207	99
Es	2.265516	0.460241	-0.707473	99
Es	0.503695	0.185872	0.615685	99
Es	-0.996456	1.191061	0.302197	99
Es	-0.452851	-1.273551	-0.003205	99
Es	-2.297738	-1.171741	-0.330221	99
Es	-1.753694	-1.281320	-0.830410	99
Es	-0.737330	0.597947	0.593551	99
Es	1.178127	0.213456	0.921939	99
Es	-0.787304	1.817643	0.604595	99
Es	-1.791285	-1.981418	-1.071530	99
Es	1.243063	-0.209348	1.513237	99
Es	-1.664686	1.177442	0.004065	99
Es	2.984595	-0.029305	0.174144	99
Es	1.992256	1.399729	0.898111	99
Es	2.170940	1.393111	1.144408	99
Es	1.724753	0.061681	0.381997	99
Es	2.372420	0.345022	0.009213	99
Es	-0.274845	-1.109980	-0.452896	99
Es	-0.473012	-1.100463	-0.239582	99
Es	1.851381	1.617583	0.740448	99
Es	1.597992	0.994149	0.982628	99
Es	-1.846575	-0.822433	-1.413178	99
42
Properties=species:S:1:pos:R:3:Z:I:1 energy=-343.75504506028756 field_type=dipole dipole="0.000000 0.000000 0.000000" charge=0
C	-1.753922	-1.281354	-0.830515	6
O	-0.472732	-1.100774	-0.239625	8
C	-0.163763	0.133256	0.305115	6
C	-0.996423	1.191036	0.302205	6
C	1.177998	0.213176	0.922005	6
C	2.372528	0.344796	0.008995	6
O	1.992308	1.399966	0.898195	8
H	-1.816232	-2.313354	-1.188425	1
H	-1.884942	-0.618494	-1.691745	1
H	-2.550512	-1.133434	-0.094205	1
H	-1.985562	1.180186	-0.135045	1
H	-0.680803	2.129276	0.751065	1
H	1.287588	-0.427854	1.790715	1
H	2.211688	0.504336	-1.049725	1
H	3.262787	-0.220764	0.250985	1
Es	0.503758	0.185882	0.615656	99
Es	2.265540	0.460229	-0.707421	99
Es	-0.961216	-1.119945	-0.449217	99
Es	-0.478706	0.793031	0.012097	99
Es	-0.787208	1.817723	0.604478	99
Es	1.851442	1.616959	0.740257	99
Es	2.372420	0.345015	0.009211	99
Es	1.243010	-0.209254	1.513214	99
Es	1.178124	0.213460	0.921943	99
Es	2.984531	-0.029213	0.174071	99
Es	-0.458812	-1.268282	-0.000550	99
Es	-1.846523	-0.822496	-1.413118	99
Es	-1.753699	-1.281321	-0.830411	99
Es	-0.996449	1.191059	0.302187	99
Es	1.992259	1.399666	0.898103	99
Es	-1.664647	1.177464	0.003956	99
Es	-0.472954	-1.100456	-0.239674	99
Es	-1.791283	-1.981387	-1.071603	99
Es	-0.395988	-0.612418	-0.040887	99
Es	-0.271084	-1.116970	-0.450086	99
Es	-2.297811	-1.171697	-0.330224	99
Es	-0.163705	0.132934	0.305046	99
Es	1.724782	0.061470	0.382002	99
Es	1.597735	0.994156	0.982836	99
Es	2.225692	1.061018	0.524294	99
Es	2.170700	1.393840	1.144358	99
Es	-0.737392	0.598091	0.593659	99
42
Properties=species:S:1:pos:R:3:Z:I:1 energy=-343.75504506028756 field_type=dipole dipole="0.000000 0.000000 0.000000" charge=0
C	-1.753922	-1.281354	-0.830515	6
O	-0.472732	-1.100774	-0.239625	8
C	-0.163763	0.133256	0.305115	6
C	-0.996423	1.191036	0.302205	6
C	1.177998	0.213176	0.922005	6
C	2.372528	0.344796	0.008995	6
O	1.992308	1.399966	0.898195	8
H	-1.816232	-2.313354	-1.188425	1
H	-1.884942	-0.618494	-1.691745	1
H	-2.550512	-1.133434	-0.094205	1
H	-1.985562	1.180186	-0.135045	1
H	-0.680803	2.129276	0.751065	1
H	1.287588	-0.427854	1.790715	1
H	2.211688	0.504336	-1.049725	1
H	3.262787	-0.220764	0.250985	1
Es	-0.996455	1.191063	0.302192	99
Es	0.503868	0.185990	0.615758	99
Es	-1.664681	1.177420	0.004026	99
Es	-2.297773	-1.171624	-0.330290	99
Es	-0.787254	1.817703	0.604493	99
Es	-0.962471	-1.120928	-0.446242	99
Es	1.851875	1.616831	0.740512	99
Es	1.242985	-0.209251	1.513198	99
Es	1.597174	0.994185	0.982777	99
Es	-0.276800	-1.106746	-0.452805	99
Es	-0.163704	0.132933	0.305043	99
Es	-0.737370	0.598235	0.593583	99
Es	-0.478711	0.792885	0.012097	99
Es	2.265642	0.460257	-0.707350	99
Es	2.226230	1.061222	0.524319	99
Es	1.992274	1.399618	0.898113	99
Es	-1.753696	-1.281320	-0.830410	99
Es	-0.450495	-1.276306	-0.004060	99
Es	-0.472989	-1.100473	-0.239556	99
Es	2.372418	0.345020	0.009214	99
Es	1.724725	0.061328	0.381812	99
Es	2.984487	-0.029166	0.174046	99
Es	-0.397243	-0.613650	-0.037754	99
Es	1.178132	0.213459	0.921937	99
Es	-1.791348	-1.981448	-1.071563	99
Es	2.170209	1.393835	1.144203	99
Es	-1.846513	-0.822512	-1.413117	99
42
Properties=species:S:1:pos:R:3:Z:I:1 energy=-343.75504506028756 field_type=dipole dipole="0.000000 0.000000 0.000000" charge=0
C	-1.753922	-1.281354	-0.830515	6
O	-0.472732	-1.100774	-0.239625	8
C	-0.163763	0.133256	0.305115	6
C	-0.996423	1.191036	0.302205	6
C	1.177998	0.213176	0.922005	6
C	2.372528	0.344796	0.008995	6
O	1.992308	1.399966	0.898195	8
H	-1.816232	-2.313354	-1.188425	1
H	-1.884942	-0.618494	-1.691745	1
H	-2.550512	-1.133434	-0.094205	1
H	-1.985562	1.180186	-0.135045	1
H	-0.680803	2.129276	0.751065	1
H	1.287588	-0.427854	1.790715	1
H	2.211688	0.504336	-1.049725	1
H	3.262787	-0.220764	0.250985	1
Es	2.225938	1.061394	0.523714	99
Es	-0.163705	0.132944	0.305044	99
Es	1.242900	-0.209142	1.513171	99
Es	-0.787252	1.817719	0.604500	99
Es	1.852411	1.617796	0.741721	99
Es	-1.753692	-1.281320	-0.830408	99
Es	2.265700	0.460292	-0.707244	99
Es	1.992269	1.399746	0.898105	99
Es	-0.961959	-1.120744	-0.447889	99
Es	-1.791319	-1.981362	-1.071564	99
Es	0.503936	0.186061	0.616019	99
Es	-0.271760	-1.117905	-0.450300	99
Es	-0.458081	-1.267125	-0.000767	99
Es	-0.473006	-1.100476	-0.239568	99
Es	2.984519	-0.029097	0.173997	99
Es	1.724600	0.060934	0.381634	99
Es	1.178130	0.213462	0.921940	99
Es	1.597082	0.994468	0.983180	99
Es	2.170144	1.392400	1.143190	99
Es	-1.664639	1.177436	0.004015	99
Es	2.372417	0.345014	0.009212	99
Es	-0.478737	0.792933	0.012145	99
Es	-2.297818	-1.171689	-0.330257	99
Es	-0.395174	-0.611841	-0.041908	99
Es	-0.737396	0.598135	0.593447	99
Es	-0.996454	1.191062	0.302193	99
Es	-1.846539	-0.822534	-1.413143	99
42
Properties=species:S:1:pos:R:3:Z:I:1 energy=-343.75504506028756 field_type=dipole dipole="0.000000 0.000000 0.000000" charge=0
C	-1.753922	-1.281354	-0.830515	6
O	-0.472732	-1.100774	-0.239625	8
C	-0.163763	0.133256	0.305115	6
C	-0.996423	1.191036	0.302205	6
C	1.177998	0.213176	0.922005	6
C	2.372528	0.344796	0.008995	6
O	1.992308	1.399966	0.898195	8
H	-1.816232	-2.313354	-1.188425	1
H	-1.884942	-0.618494	-1.691745	1
H	-2.550512	-1.133434	-0.094205	1
H	-1.985562	1.180186	-0.135045	1
H	-0.680803	2.129276	0.751065	1
H	1.287588	-0.427854	1.790715	1
H	2.211688	0.504336	-1.049725	1
H	3.262787	-0.220764	0.250985	1
Es	2.265762	0.460308	-0.707210	99
Es	2.169926	1.393119	1.143052	99
Es	-0.737230	0.598130	0.593266	99
Es	-1.664680	1.177351	0.004021	99
Es	1.852425	1.617124	0.741583	99
Es	1.724768	0.060797	0.381488	99
Es	2.984463	-0.029026	0.173958	99
Es	1.992251	1.399703	0.898100	99
Es	-1.753697	-1.281321	-0.830411	99
Es	2.372422	0.345016	0.009209	99
Es	-0.996454	1.191060	0.302195	99
Es	-1.846550	-0.822513	-1.413015	99
Es	-0.962651	-1.121388	-0.446881	99
Es	-0.163704	0.132936	0.305042	99
Es	1.242872	-0.209110	1.513120	99
Es	0.503954	0.186081	0.616053	99
Es	-0.478713	0.793093	0.012124	99
Es	-1.791341	-1.981410	-1.071674	99
Es	-0.396879	-0.613432	-0.038051	99
Es	-2.297805	-1.171682	-0.330324	99
Es	-0.472859	-1.100566	-0.239608	99
Es	1.178128	0.213458	0.921940	99
Es	1.596666	0.994189	0.983503	99
Es	-0.787386	1.817664	0.604625	99
Es	-0.274581	-1.110151	-0.451855	99
Es	2.226382	1.061722	0.523871	99
Es	-0.452974	-1.272596	-0.003944	99
42
Properties=species:S:1:pos:R:3:Z:I:1 energy=-343.75504506028756 field_type=dipole dipole="0.000000 0.000000 0.000000" charge=0
C	-1.753922	-1.281354	-0.830515	6
O	-0.472732	-1.100774	-0.239625	8
C	-0.163763	0.133256	0.305115	6
C	-0.996423	1.191036	0.302205	6
C	1.177998	0.213176	0.922005	6
C	2.372528	0.344796	0.008995	6
O	1.992308	1.399966	0.898195	8
H	-1.816232	-2.313354	-1.188425	1
H	-1.884942	-0.618494	-1.691745	1
H	-2.550512	-1.133434	-0.094205	1
H	-1.985562	1.180186	-0.135045	1
H	-0.680803	2.129276	0.751065	1
H	1.287588	-0.427854	1.790715	1
H	2.211688	0.504336	-1.049725	1
H	3.262787	-0.220764	0.250985	1
Es	2.226388	1.062047	0.523169	99
Es	-0.996466	1.191064	0.302202	99
Es	-0.472980	-1.100489	-0.239600	99
Es	-0.163703	0.132936	0.305041	99
Es	1.853359	1.618811	0.743177	99
Es	-0.396277	-0.612794	-0.039673	99
Es	-2.297806	-1.171760	-0.330311	99
Es	1.242830	-0.208995	1.513092	99
Es	2.169658	1.390765	1.142534	99
Es	-0.737300	0.597954	0.593272	99
Es	2.265772	0.460296	-0.707084	99
Es	1.724582	0.060510	0.381395	99
Es	-0.478884	0.793086	0.012042	99
Es	0.503982	0.186182	0.616172	99
Es	-0.787229	1.817648	0.604607	99
Es	-0.454486	-1.270782	-0.002670	99
Es	1.596242	0.994644	0.983081	99
Es	-1.664653	1.177510	0.004169	99
Es	-0.273695	-1.112848	-0.451277	99
Es	-1.791300	-1.981378	-1.071694	99
Es	2.984429	-0.029010	0.173867	99
Es	-1.753700	-1.281322	-0.830412	99
Es	-0.962451	-1.121230	-0.447118	99
Es	1.992234	1.399703	0.898063	99
Es	2.372418	0.345015	0.009212	99
Es	1.178134	0.213469	0.921935	99
Es	-1.846581	-0.822473	-1.413014	99
