41
Properties=species:S:1:pos:R:3:Z:I:1 energy=-306.72588435944067 field_type=dipole dipole="0.000000 0.000000 0.000000" charge=0
C	-0.399441	-2.014871	-0.984529	6
O	-0.532811	-1.174211	0.154271	8
C	-0.021161	0.145259	-0.064149	6
C	-0.527041	0.983459	1.075981	6
C	-1.265521	2.096019	0.951431	6
C	1.422839	0.145259	-0.064149	6
C	2.612999	0.145259	-0.064149	6
H	-0.909981	-2.958511	-0.773519	1
H	0.653539	-2.235361	-1.183759	1
H	-0.863271	-1.559421	-1.864719	1
H	-0.413801	0.532419	-1.012659	1
H	-0.279091	0.628209	2.074311	1
H	-1.553411	2.486749	-0.019189	1
H	-1.602281	2.635619	1.831171	1
H	3.678439	0.144129	-0.056349	1
Es	-0.713809	-1.694823	-1.592020	99
Es	2.012251	-0.183208	0.070979	99
Es	-1.495342	2.465980	1.541296	99
Es	1.422575	0.145263	-0.064154	99
Es	-1.461807	2.364391	0.293882	99
Es	0.319962	-2.160452	-1.128135	99
Es	-0.532637	-1.174129	0.154007	99
Es	-0.399470	-2.014726	-0.984350	99
Es	0.732211	0.145164	-0.068725	99
Es	-0.270085	0.408816	-0.710061	99
Es	-0.460863	-1.464053	-0.296156	99
Es	-0.747331	-2.654329	-0.841161	99
Es	-0.257254	0.568579	0.498383	99
Es	-0.621168	1.722824	0.996859	99
Es	2.613269	0.145258	-0.064143	99
Es	-1.265558	2.096104	0.951415	99
Es	-0.526967	0.983358	1.075939	99
Es	2.019914	0.428159	0.151241	99
Es	-0.363675	-1.295904	0.379391	99
Es	-0.310784	-0.676655	0.036196	99
Es	-0.831491	-1.126460	0.182586	99
Es	2.030438	0.192115	-0.418894	99
Es	-0.021112	0.145062	-0.064072	99
Es	-0.351747	0.736579	1.742214	99
Es	3.308271	0.144338	-0.059733	99
Es	-1.169940	1.366493	1.010084	99
41
Properties=species:S:1:pos:R:3:Z:I:1 energy=-306.72588435944067 field_type=dipole dipole="0.000000 0.000000 0.000000" charge=0
C	-0.399441	-2.014871	-0.984529	6
O	-0.532811	-1.174211	0.154271	8
C	-0.021161	0.145259	-0.064149	6
C	-0.527041	0.983459	1.075981	6
C	-1.265521	2.096019	0.951431	6
C	1.422839	0.145259	-0.064149	6
C	2.612999	0.145259	-0.064149	6
H	-0.909981	-2.958511	-0.773519	1
H	0.653539	-2.235361	-1.183759	1
H	-0.863271	-1.559421	-1.864719	1
H	-0.413801	0.532419	-1.012659	1
H	-0.279091	0.628209	2.074311	1
H	-1.553411	2.486749	-0.019189	1
H	-1.602281	2.635619	1.831171	1
H	3.678439	0.144129	-0.056349	1
Es	-0.462533	-1.463812	-0.296941	99
Es	-0.399469	-2.014724	-0.984348	99
Es	2.014877	0.471003	-0.215799	99
Es	0.319931	-2.160424	-1.128172	99
Es	-0.312571	-0.675875	0.035736	99
Es	-0.526965	0.983358	1.075939	99
Es	-0.713855	-1.694874	-1.592030	99
Es	-0.360896	-1.295366	0.377049	99
Es	-0.621195	1.722821	0.996864	99
Es	-1.169810	1.366574	1.010139	99
Es	-0.257310	0.568492	0.498360	99
Es	-0.351743	0.736655	1.742258	99
Es	1.422580	0.145261	-0.064156	99
Es	-0.532594	-1.174103	0.153975	99
Es	-1.461797	2.364333	0.293863	99
Es	0.732285	0.145125	-0.068237	99
Es	-0.021111	0.145066	-0.064073	99
Es	3.308190	0.144647	-0.060222	99
Es	2.020768	-0.147044	-0.273432	99
Es	-0.747260	-2.654331	-0.841144	99
Es	2.613264	0.145265	-0.064136	99
Es	-1.265563	2.096100	0.951415	99
Es	-0.270030	0.408860	-0.710081	99
Es	-0.830804	-1.128194	0.186246	99
Es	2.026869	0.112929	0.292536	99
Es	-1.495405	2.466003	1.541258	99
41
Properties=species:S:1:pos:R:3:Z:I:1 energy=-306.72588435944067 field_type=dipole dipole="0.000000 0.000000 0.000000" charge=0
C	-0.399441	-2.014871	-0.984529	6
O	-0.532811	-1.174211	0.154271	8
C	-0.021161	0.145259	-0.064149	6
C	-0.527041	0.983459	1.075981	6
C	-1.265521	2.096019	0.951431	6
C	1.422839	0.145259	-0.064149	6
C	2.612999	0.145259	-0.064149	6
H	-0.909981	-2.958511	-0.773519	1
H	0.653539	-2.235361	-1.183759	1
H	-0.863271	-1.559421	-1.864719	1
H	-0.413801	0.532419	-1.012659	1
H	-0.279091	0.628209	2.074311	1
H	-1.553411	2.486749	-0.019189	1
H	-1.602281	2.635619	1.831171	1
H	3.678439	0.144129	-0.056349	1
Es	-1.495384	2.465954	1.541294	99
Es	-1.265562	2.096104	0.951415	99
Es	-0.351807	0.736688	1.742304	99
Es	2.613262	0.145258	-0.064146	99
Es	-0.399469	-2.014728	-0.984352	99
Es	-1.169796	1.366583	1.010041	99
Es	-0.462984	-1.464091	-0.297027	99
Es	2.026533	-0.070726	-0.352699	99
Es	-0.713840	-1.694869	-1.592037	99
Es	-1.461805	2.364389	0.293870	99
Es	-0.021114	0.145058	-0.064074	99
Es	-0.312848	-0.675891	0.035506	99
Es	-0.526971	0.983362	1.075939	99
Es	0.319912	-2.160385	-1.128166	99
Es	-0.270002	0.408903	-0.710062	99
Es	3.308197	0.144889	-0.059795	99
Es	-0.257049	0.568575	0.498571	99
Es	1.422580	0.145260	-0.064149	99
Es	-0.747241	-2.654372	-0.841150	99
Es	-0.621224	1.722772	0.996842	99
Es	0.732078	0.144911	-0.068489	99
Es	-0.831608	-1.129088	0.189211	99
Es	-0.359277	-1.294360	0.374397	99
Es	-0.532677	-1.174084	0.153945	99
Es	2.012675	0.501005	-0.110319	99
Es	2.023273	0.006626	0.265998	99
41
Properties=species:S:1:pos:R:3:Z:I:1 energy=-306.72588435944067 field_type=dipole dipole="0.000000 0.000000 0.000000" charge=0
C	-0.399441	-2.014871	-0.984529	6
O	-0.532811	-1.174211	0.154271	8
C	-0.021161	0.145259	-0.064149	6
C	-0.527041	0.983459	1.075981	6
C	-1.265521	2.096019	0.951431	6
C	1.422839	0.145259	-0.064149	6
C	2.612999	0.145259	-0.064149	6
H	-0.909981	-2.958511	-0.773519	1
H	0.653539	-2.235361	-1.183759	1
H	-0.863271	-1.559421	-1.864719	1
H	-0.413801	0.532419	-1.012659	1
H	-0.279091	0.628209	2.074311	1
H	-1.553411	2.486749	-0.019189	1
H	-1.602281	2.635619	1.831171	1
H	3.678439	0.144129	-0.056349	1
Es	-0.351841	0.736767	1.742331	99
Es	-0.532727	-1.174128	0.154005	99
Es	-0.831866	-1.127834	0.186939	99
Es	2.613263	0.145256	-0.064153	99
Es	1.422581	0.145262	-0.064154	99
Es	-1.169738	1.366620	1.010133	99
Es	-0.399466	-2.014725	-0.984345	99
Es	-0.269933	0.408906	-0.710115	99
Es	-0.461670	-1.464755	-0.296560	99
Es	-1.265562	2.096100	0.951417	99
Es	-0.311120	-0.676413	0.036267	99
Es	-1.495399	2.466038	1.541230	99
Es	-0.621270	1.722748	0.996856	99
Es	-0.257106	0.568473	0.498475	99
Es	0.319869	-2.160432	-1.128167	99
Es	-0.362047	-1.294326	0.375436	99
Es	2.012863	0.497918	-0.131913	99
Es	0.732103	0.144866	-0.068321	99
Es	-0.747301	-2.654367	-0.841193	99
Es	2.025442	-0.087688	-0.339027	99
Es	-0.021114	0.145061	-0.064075	99
Es	-0.713753	-1.694889	-1.592016	99
Es	-1.461727	2.364345	0.293845	99
Es	-0.526965	0.983360	1.075939	99
Es	3.308139	0.144777	-0.060069	99
Es	2.024195	0.026806	0.274103	99
41
Properties=species:S:1:pos:R:3:Z:I:1 energy=-306.72588435944067 field_type=dipole dipole="0.000000 0.000000 0.000000" charge=0
C	-0.399441	-2.014871	-0.984529	6
O	-0.532811	-1.174211	0.154271	8
C	-0.021161	0.145259	-0.064149	6
C	-0.527041	0.983459	1.075981	6
C	-1.265521	2.096019	0.951431	6
C	1.422839	0.145259	-0.064149	6
C	2.612999	0.145259	-0.064149	6
H	-0.909981	-2.958511	-0.773519	1
H	0.653539	-2.235361	-1.183759	1
H	-0.863271	-1.559421	-1.864719	1
H	-0.413801	0.532419	-1.012659	1
H	-0.279091	0.628209	2.074311	1
H	-1.553411	2.486749	-0.019189	1
H	-1.602281	2.635619	1.831171	1
H	3.678439	0.144129	-0.056349	1
Es	-0.831563	-1.128728	0.188996	99
Es	-0.532726	-1.174078	0.153912	99
Es	-0.621402	1.722666	0.996980	99
Es	-0.713796	-1.694925	-1.592007	99
Es	2.013863	0.483946	-0.184541	99
Es	-0.747254	-2.654349	-0.841200	99
Es	-0.399469	-2.014728	-0.984352	99
Es	-1.265551	2.096110	0.951415	99
Es	-1.495446	2.466008	1.541286	99
Es	-0.463000	-1.463956	-0.297127	99
Es	0.319869	-2.160420	-1.128202	99
Es	3.308144	0.144706	-0.060212	99
Es	-0.021112	0.145062	-0.064073	99
Es	-1.461669	2.364372	0.293835	99
Es	-0.526963	0.983358	1.075938	99
Es	-0.351870	0.736752	1.742311	99
Es	2.613260	0.145259	-0.064141	99
Es	2.026033	0.079124	0.288196	99
Es	-0.256942	0.568651	0.498416	99
Es	-0.312040	-0.676033	0.036101	99
Es	1.422583	0.145264	-0.064151	99
Es	-0.360111	-1.294701	0.374270	99
Es	0.732040	0.144987	-0.068277	99
Es	2.022601	-0.126086	-0.300438	99
Es	-0.269866	0.408866	-0.710097	99
Es	-1.169761	1.366615	1.010030	99
41
Properties=species:S:1:pos:R:3:Z:I:1 energy=-306.72588435944067 field_type=dipole dipole="0.000000 0.000000 0.000000" charge=0
C	-0.399441	-2.014871	-0.984529	6
O	-0.532811	-1.174211	0.154271	8
C	-0.021161	0.145259	-0.064149	6
C	-0.527041	0.983459	1.075981	6
C	-1.265521	2.096019	0.951431	6
C	1.422839	0.145259	-0.064149	6
C	2.612999	0.145259	-0.064149	6
H	-0.909981	-2.958511	-0.773519	1
H	0.653539	-2.235361	-1.183759	1
H	-0.863271	-1.559421	-1.864719	1
H	-0.413801	0.532419	-1.012659	1
H	-0.279091	0.628209	2.074311	1
H	-1.553411	2.486749	-0.019189	1
H	-1.602281	2.635619	1.831171	1
H	3.678439	0.144129	-0.056349	1
Es	-0.713953	-1.695042	-1.591940	99
Es	-0.256943	0.568713	0.498361	99
Es	0.319840	-2.160267	-1.128352	99
Es	-0.532677	-1.174104	0.153962	99
Es	-0.021112	0.145065	-0.064073	99
Es	2.613257	0.145251	-0.064142	99
Es	-1.265559	2.096095	0.951415	99
Es	-1.169644	1.366686	1.010116	99
Es	-0.312420	-0.675724	0.036094	99
Es	2.012814	-0.173725	0.092287	99
Es	-1.495333	2.466006	1.541313	99
Es	2.030962	0.168764	-0.421585	99
Es	-0.621454	1.722614	0.996877	99
Es	0.731829	0.145186	-0.068882	99
Es	-1.461832	2.364342	0.293832	99
Es	1.422575	0.145268	-0.064155	99
Es	-0.351850	0.736759	1.742361	99
Es	2.018972	0.442088	0.132641	99
Es	-0.269861	0.408828	-0.710061	99
Es	-0.526961	0.983354	1.075939	99
Es	-0.399469	-2.014730	-0.984356	99
Es	-0.831171	-1.129023	0.189687	99
Es	-0.747089	-2.654425	-0.841149	99
Es	-0.359865	-1.294399	0.373755	99
Es	3.308099	0.144321	-0.059748	99
Es	-0.463304	-1.464154	-0.297330	99
41
Properties=species:S:1:pos:R:3:Z:I:1 energy=-306.72588435944067 field_type=dipole dipole="0.000000 0.000000 0.000000" charge=0
C	-0.399441	-2.014871	-0.984529	6
O	-0.532811	-1.174211	0.154271	8
C	-0.021161	0.145259	-0.064149	6
C	-0.527041	0.983459	1.075981	6
C	-1.265521	2.096019	0.951431	6
C	1.422839	0.145259	-0.064149	6
C	2.612999	0.145259	-0.064149	6
H	-0.909981	-2.958511	-0.773519	1
H	0.653539	-2.235361	-1.183759	1
H	-0.863271	-1.559421	-1.864719	1
H	-0.413801	0.532419	-1.012659	1
H	-0.279091	0.628209	2.074311	1
H	-1.553411	2.486749	-0.019189	1
H	-1.602281	2.635619	1.831171	1
H	3.678439	0.144129	-0.056349	1
Es	-1.169331	1.366890	1.010147	99
Es	-1.265558	2.096093	0.951414	99
Es	-0.021112	0.145068	-0.064073	99
Es	2.023506	0.371226	0.210644	99
Es	-0.621448	1.722613	0.996913	99
Es	2.011460	-0.205661	-0.008123	99
Es	-0.399468	-2.014731	-0.984356	99
Es	-0.713825	-1.694943	-1.591956	99
Es	3.308065	0.144185	-0.059928	99
Es	-1.461910	2.364234	0.293748	99
Es	-0.351938	0.736734	1.742450	99
Es	0.731764	0.145513	-0.068710	99
Es	2.613259	0.145259	-0.064146	99
Es	-1.495431	2.465976	1.541308	99
Es	-0.462448	-1.464463	-0.296835	99
Es	-0.269754	0.408818	-0.710035	99
Es	-0.257046	0.568715	0.498299	99
Es	1.422592	0.145270	-0.064152	99
Es	2.027820	0.271332	-0.399152	99
Es	-0.361274	-1.294552	0.374951	99
Es	-0.311809	-0.675917	0.036265	99
Es	0.319814	-2.160360	-1.128284	99
Es	-0.526970	0.983359	1.075941	99
Es	-0.747192	-2.654386	-0.841265	99
Es	-0.532691	-1.174143	0.154054	99
Es	-0.831225	-1.128386	0.187749	99
41
Properties=species:S:1:pos:R:3:Z:I:1 energy=-306.72588435944067 field_type=dipole dipole="0.000000 0.000000 0.000000" charge=0
C	-0.399441	-2.014871	-0.984529	6
O	-0.532811	-1.174211	0.154271	8
C	-0.021161	0.145259	-0.064149	6
C	-0.527041	0.983459	1.075981	6
C	-1.265521	2.096019	0.951431	6
C	1.422839	0.145259	-0.064149	6
C	2.612999	0.145259	-0.064149	6
H	-0.909981	-2.958511	-0.773519	1
H	0.653539	-2.235361	-1.183759	1
H	-0.863271	-1.559421	-1.864719	1
H	-0.413801	0.532419	-1.012659	1
H	-0.279091	0.628209	2.074311	1
H	-1.553411	2.486749	-0.019189	1
H	-1.602281	2.635619	1.831171	1
H	3.678439	0.144129	-0.056349	1
Es	3.308060	0.144790	-0.059892	99
Es	1.422584	0.145262	-0.064154	99
Es	-0.021111	0.145068	-0.064073	99
Es	2.029585	-0.003912	-0.392088	99
Es	2.613258	0.145259	-0.064144	99
Es	-0.269762	0.408862	-0.710141	99
Es	-1.495423	2.465977	1.541354	99
Es	-1.169426	1.366832	1.010072	99
Es	-0.351870	0.736806	1.742469	99
Es	-1.265560	2.096099	0.951415	99
Es	2.013143	0.502432	-0.031738	99
Es	-0.621565	1.722512	0.996881	99
Es	-0.526964	0.983358	1.075939	99
Es	-1.461812	2.364319	0.293812	99
Es	-0.532674	-1.174137	0.154052	99
Es	-0.399469	-2.014728	-0.984354	99
Es	-0.830195	-1.128455	0.188297	99
Es	-0.463180	-1.464956	-0.297041	99
Es	-0.747270	-2.654394	-0.841285	99
Es	-0.361442	-1.294277	0.374729	99
Es	0.319745	-2.160432	-1.128226	99
Es	-0.713687	-1.694942	-1.591991	99
Es	0.731816	0.144852	-0.068672	99
Es	-0.311907	-0.675740	0.036186	99
Es	-0.256857	0.568743	0.498393	99
Es	2.019832	-0.061453	0.227067	99
41
Properties=species:S:1:pos:R:3:Z:I:1 energy=-306.72588435944067 field_type=dipole dipole="0.000000 0.000000 0.000000" charge=0
C	-0.399441	-2.014871	-0.984529	6
O	-0.532811	-1.174211	0.154271	8
C	-0.021161	0.145259	-0.064149	6
C	-0.527041	0.983459	1.075981	6
C	-1.265521	2.096019	0.951431	6
C	1.422839	0.145259	-0.064149	6
C	2.612999	0.145259	-0.064149	6
H	-0.909981	-2.958511	-0.773519	1
H	0.653539	-2.235361	-1.183759	1
H	-0.863271	-1.559421	-1.864719	1
H	-0.413801	0.532419	-1.012659	1
H	-0.279091	0.628209	2.074311	1
H	-1.553411	2.486749	-0.019189	1
H	-1.602281	2.635619	1.831171	1
H	3.678439	0.144129	-0.056349	1
Es	-0.021111	0.145067	-0.064073	99
Es	2.026084	0.080044	0.288552	99
Es	-0.713674	-1.694980	-1.591961	99
Es	2.022558	-0.126745	-0.300377	99
Es	-1.169461	1.366820	1.010023	99
Es	2.613261	0.145269	-0.064137	99
Es	-1.265560	2.096106	0.951415	99
Es	1.422592	0.145264	-0.064155	99
Es	-0.830645	-1.129383	0.189861	99
Es	-0.532706	-1.174106	0.153943	99
Es	-1.461806	2.364406	0.293827	99
Es	-0.747309	-2.654374	-0.841275	99
Es	-0.256727	0.568782	0.498391	99
Es	-1.495328	2.465961	1.541400	99
Es	-0.399468	-2.014728	-0.984353	99
Es	-0.312353	-0.675459	0.036216	99
Es	-0.351902	0.736830	1.742483	99
Es	0.731757	0.145096	-0.068248	99
Es	0.319772	-2.160447	-1.128243	99
Es	3.308048	0.144695	-0.060230	99
Es	-0.463220	-1.464600	-0.297212	99
Es	-0.621707	1.722392	0.996883	99
Es	-0.269709	0.408910	-0.710148	99
Es	-0.360456	-1.294033	0.373386	99
Es	2.013890	0.483594	-0.185041	99
Es	-0.526968	0.983358	1.075939	99
41
Properties=species:S:1:pos:R:3:Z:I:1 energy=-306.72588435944067 field_type=dipole dipole="0.000000 0.000000 0.000000" charge=0
C	-0.399441	-2.014871	-0.984529	6
O	-0.532811	-1.174211	0.154271	8
C	-0.021161	0.145259	-0.064149	6
C	-0.527041	0.983459	1.075981	6
C	-1.265521	2.096019	0.951431	6
C	1.422839	0.145259	-0.064149	6
C	2.612999	0.145259	-0.064149	6
H	-0.909981	-2.958511	-0.773519	1
H	0.653539	-2.235361	-1.183759	1
H	-0.863271	-1.559421	-1.864719	1
H	-0.413801	0.532419	-1.012659	1
H	-0.279091	0.628209	2.074311	1
H	-1.553411	2.486749	-0.019189	1
H	-1.602281	2.635619	1.831171	1
H	3.678439	0.144129	-0.056349	1
Es	-0.464362	-1.464188	-0.297687	99
Es	-0.621585	1.722517	0.996955	99
Es	0.319745	-2.160387	-1.128239	99
Es	0.731706	0.145032	-0.068355	99
Es	2.613260	0.145261	-0.064151	99
Es	-0.358231	-1.293493	0.370533	99
Es	-0.313193	-0.675177	0.036046	99
Es	-0.351966	0.736766	1.742497	99
Es	-0.532530	-1.174091	0.153970	99
Es	1.422582	0.145257	-0.064151	99
Es	-1.495475	2.465863	1.541406	99
Es	-0.713667	-1.694999	-1.591971	99
Es	-0.021111	0.145069	-0.064073	99
Es	-0.399469	-2.014731	-0.984356	99
Es	-0.269675	0.408921	-0.710176	99
Es	-0.831100	-1.130699	0.193360	99
Es	-1.169252	1.366917	1.009973	99
Es	-0.526965	0.983363	1.075938	99
Es	3.308014	0.144753	-0.060174	99
Es	-0.256803	0.568754	0.498360	99
Es	2.013064	0.495270	-0.145393	99
Es	-0.747253	-2.654418	-0.841294	99
Es	2.024737	0.039716	0.278728	99
Es	-1.461805	2.364405	0.293822	99
Es	2.024744	-0.098035	-0.330116	99
Es	-1.265561	2.096097	0.951415	99
41
Properties=species:S:1:pos:R:3:Z:I:1 energy=-306.72588435944067 field_type=dipole dipole="0.000000 0.000000 0.000000" charge=0
C	-0.399441	-2.014871	-0.984529	6
O	-0.532811	-1.174211	0.154271	8
C	-0.021161	0.145259	-0.064149	6
C	-0.527041	0.983459	1.075981	6
C	-1.265521	2.096019	0.951431	6
C	1.422839	0.145259	-0.064149	6
C	2.612999	0.145259	-0.064149	6
H	-0.909981	-2.958511	-0.773519	1
H	0.653539	-2.235361	-1.183759	1
H	-0.863271	-1.559421	-1.864719	1
H	-0.413801	0.532419	-1.012659	1
H	-0.279091	0.628209	2.074311	1
H	-1.553411	2.486749	-0.019189	1
H	-1.602281	2.635619	1.831171	1
H	3.678439	0.144129	-0.056349	1
Es	-0.399468	-2.014732	-0.984356	99
Es	-0.526969	0.983363	1.075940	99
Es	-1.169208	1.366990	1.010117	99
Es	-0.747271	-2.654408	-0.841322	99
Es	-1.495442	2.465972	1.541409	99
Es	1.422587	0.145266	-0.064159	99
Es	-0.359641	-1.294298	0.372558	99
Es	2.022224	-0.130639	-0.296165	99
Es	2.014032	0.481857	-0.190022	99
Es	-1.461814	2.364294	0.293749	99
Es	-0.532727	-1.174054	0.153885	99
Es	0.731638	0.145150	-0.068014	99
Es	-0.269520	0.408872	-0.710270	99
Es	-0.713617	-1.695011	-1.591979	99
Es	-0.829533	-1.129987	0.191286	99
Es	2.026316	0.085661	0.289431	99
Es	2.613244	0.145263	-0.064137	99
Es	-1.265558	2.096100	0.951415	99
Es	-0.621770	1.722361	0.996950	99
Es	-0.021111	0.145070	-0.064074	99
Es	-0.351892	0.736859	1.742509	99
Es	-0.464575	-1.464301	-0.297819	99
Es	-0.256826	0.568809	0.498207	99
Es	3.307996	0.144685	-0.060416	99
Es	0.319714	-2.160414	-1.128229	99
Es	-0.312958	-0.674986	0.036373	99
41
Properties=species:S:1:pos:R:3:Z:I:1 energy=-306.72588435944067 field_type=dipole dipole="0.000000 0.000000 0.000000" charge=0
C	-0.399441	-2.014871	-0.984529	6
O	-0.532811	-1.174211	0.154271	8
C	-0.021161	0.145259	-0.064149	6
C	-0.527041	0.983459	1.075981	6
C	-1.265521	2.096019	0.951431	6
C	1.422839	0.145259	-0.064149	6
C	2.612999	0.145259	-0.064149	6
H	-0.909981	-2.958511	-0.773519	1
H	0.653539	-2.235361	-1.183759	1
H	-0.863271	-1.559421	-1.864719	1
H	-0.413801	0.532419	-1.012659	1
H	-0.279091	0.628209	2.074311	1
H	-1.553411	2.486749	-0.019189	1
H	-1.602281	2.635619	1.831171	1
H	3.678439	0.144129	-0.056349	1
Es	0.731411	0.145186	-0.068850	99
Es	-1.265560	2.096097	0.951416	99
Es	-0.463572	-1.465310	-0.297220	99
Es	-0.256675	0.568873	0.498286	99
Es	-0.713681	-1.695015	-1.591955	99
Es	-0.830085	-1.129548	0.190677	99
Es	-0.526966	0.983362	1.075940	99
Es	0.319692	-2.160392	-1.128288	99
Es	3.307941	0.144381	-0.059720	99
Es	2.031420	0.133043	-0.422725	99
Es	-1.169152	1.367009	1.010093	99
Es	-0.351903	0.736866	1.742556	99
Es	-0.021111	0.145069	-0.064075	99
Es	-1.461826	2.364295	0.293724	99
Es	-0.399468	-2.014731	-0.984356	99
Es	2.017490	0.460802	0.102012	99
Es	-0.747220	-2.654422	-0.841320	99
Es	-0.312282	-0.675185	0.036301	99
Es	-1.495450	2.465946	1.541422	99
Es	1.422584	0.145259	-0.064157	99
Es	-0.360813	-1.293467	0.372516	99
Es	2.613259	0.145267	-0.064141	99
Es	-0.532667	-1.174120	0.153963	99
Es	2.013900	-0.156726	0.123967	99
Es	-0.269583	0.408896	-0.710154	99
Es	-0.621830	1.722308	0.996954	99
41
Properties=species:S:1:pos:R:3:Z:I:1 energy=-306.72588435944067 field_type=dipole dipole="0.000000 0.000000 0.000000" charge=0
C	-0.399441	-2.014871	-0.984529	6
O	-0.532811	-1.174211	0.154271	8
C	-0.021161	0.145259	-0.064149	6
C	-0.527041	0.983459	1.075981	6
C	-1.265521	2.096019	0.951431	6
C	1.422839	0.145259	-0.064149	6
C	2.612999	0.145259	-0.064149	6
H	-0.909981	-2.958511	-0.773519	1
H	0.653539	-2.235361	-1.183759	1
H	-0.863271	-1.559421	-1.864719	1
H	-0.413801	0.532419	-1.012659	1
H	-0.279091	0.628209	2.074311	1
H	-1.553411	2.486749	-0.019189	1
H	-1.602281	2.635619	1.831171	1
H	3.678439	0.144129	-0.056349	1
Es	-0.399468	-2.014732	-0.984357	99
Es	-0.713625	-1.695006	-1.591999	99
Es	-0.532667	-1.174091	0.153916	99
Es	-0.621847	1.722311	0.996937	99
Es	2.613254	0.145259	-0.064146	99
Es	-0.311543	-0.675421	0.036729	99
Es	0.319666	-2.160431	-1.128226	99
Es	-0.363044	-1.293901	0.374618	99
Es	0.731519	0.144977	-0.068443	99
Es	-1.461869	2.364307	0.293726	99
Es	3.307946	0.144722	-0.060248	99
Es	-1.169047	1.367088	1.010055	99
Es	-0.269640	0.408949	-0.710165	99
Es	-0.351985	0.736863	1.742577	99
Es	-0.463037	-1.465698	-0.297071	99
Es	1.422586	0.145263	-0.064153	99
Es	-0.829124	-1.128613	0.188130	99
Es	-1.495420	2.465928	1.541458	99
Es	-0.526963	0.983361	1.075941	99
Es	-0.747230	-2.654396	-0.841342	99
Es	-0.256511	0.568844	0.498391	99
Es	2.013205	0.493540	-0.153546	99
Es	2.025075	0.047826	0.281098	99
Es	-1.265560	2.096097	0.951414	99
Es	-0.021112	0.145069	-0.064073	99
Es	2.024293	-0.104371	-0.324355	99
41
Properties=species:S:1:pos:R:3:Z:I:1 energy=-306.72588435944067 field_type=dipole dipole="0.000000 0.000000 0.000000" charge=0
C	-0.399441	-2.014871	-0.984529	6
O	-0.532811	-1.174211	0.154271	8
C	-0.021161	0.145259	-0.064149	6
C	-0.527041	0.983459	1.075981	6
C	-1.265521	2.096019	0.951431	6
C	1.422839	0.145259	-0.064149	6
C	2.612999	0.145259	-0.064149	6
H	-0.909981	-2.958511	-0.773519	1
H	0.653539	-2.235361	-1.183759	1
H	-0.863271	-1.559421	-1.864719	1
H	-0.413801	0.532419	-1.012659	1
H	-0.279091	0.628209	2.074311	1
H	-1.553411	2.486749	-0.019189	1
H	-1.602281	2.635619	1.831171	1
H	3.678439	0.144129	-0.056349	1
Es	3.307873	0.144100	-0.060010	99
Es	-0.829199	-1.129445	0.191114	99
Es	0.319652	-2.160343	-1.128316	99
Es	-1.168995	1.367098	1.010128	99
Es	-0.021112	0.145070	-0.064074	99
Es	-1.265562	2.096095	0.951417	99
Es	-0.351962	0.736884	1.742583	99
Es	2.027589	0.278106	-0.396539	99
Es	-0.747216	-2.654466	-0.841330	99
Es	-0.399468	-2.014730	-0.984355	99
Es	-0.526966	0.983360	1.075938	99
Es	0.731232	0.145678	-0.068637	99
Es	-0.256658	0.568890	0.498181	99
Es	2.011498	-0.207157	-0.015233	99
Es	2.023878	0.365895	0.215171	99
Es	-0.361031	-1.293797	0.372269	99
Es	-1.461888	2.364300	0.293693	99
Es	2.613258	0.145258	-0.064147	99
Es	-0.713644	-1.695071	-1.591926	99
Es	-0.311990	-0.675063	0.036567	99
Es	-0.464477	-1.465230	-0.297591	99
Es	-1.495441	2.465898	1.541414	99
Es	-0.621890	1.722285	0.997012	99
Es	1.422580	0.145264	-0.064155	99
Es	-0.269441	0.408924	-0.710193	99
Es	-0.532768	-1.174059	0.153887	99
41
Properties=species:S:1:pos:R:3:Z:I:1 energy=-306.72588435944067 field_type=dipole dipole="0.000000 0.000000 0.000000" charge=0
C	-0.399441	-2.014871	-0.984529	6
O	-0.532811	-1.174211	0.154271	8
C	-0.021161	0.145259	-0.064149	6
C	-0.527041	0.983459	1.075981	6
C	-1.265521	2.096019	0.951431	6
C	1.422839	0.145259	-0.064149	6
C	2.612999	0.145259	-0.064149	6
H	-0.909981	-2.958511	-0.773519	1
H	0.653539	-2.235361	-1.183759	1
H	-0.863271	-1.559421	-1.864719	1
H	-0.413801	0.532419	-1.012659	1
H	-0.279091	0.628209	2.074311	1
H	-1.553411	2.486749	-0.019189	1
H	-1.602281	2.635619	1.831171	1
H	3.678439	0.144129	-0.056349	1
Es	1.422586	0.145258	-0.064153	99
Es	0.731365	0.145166	-0.068103	99
Es	-0.311562	-0.675124	0.037033	99
Es	3.307933	0.144594	-0.060420	99
Es	-0.352017	0.736845	1.742619	99
Es	-0.621874	1.722328	0.997030	99
Es	-0.463649	-1.465551	-0.297325	99
Es	2.021128	-0.143291	-0.280127	99
Es	-0.532698	-1.174140	0.154058	99
Es	0.319618	-2.160387	-1.128295	99
Es	-0.399468	-2.014731	-0.984356	99
Es	-0.713636	-1.695057	-1.591963	99
Es	-1.265561	2.096096	0.951418	99
Es	2.613246	0.145261	-0.064149	99
Es	-0.021112	0.145065	-0.064073	99
Es	-0.269401	0.408927	-0.710273	99
Es	-0.362471	-1.293913	0.373319	99
Es	-0.256665	0.568902	0.498200	99
Es	2.026847	0.105985	0.292227	99
Es	-0.526963	0.983362	1.075941	99
Es	-0.747201	-2.654430	-0.841352	99
Es	-0.828985	-1.129034	0.189245	99
Es	-1.495517	2.465884	1.541440	99
Es	-1.461927	2.364240	0.293694	99
Es	2.014627	0.474279	-0.208859	99
Es	-1.168794	1.367207	1.010090	99
