47
Properties=species:S:1:pos:R:3:Z:I:1 energy=-309.1370348523235 field_type=dipole dipole="0.000000 0.000000 0.000000" charge=0
C	-0.091544	-1.811775	1.704115	6
O	-0.768193	-0.561235	1.673605	8
C	-0.982813	-0.077395	0.345285	6
C	-2.094293	0.964955	0.416195	6
C	0.285956	0.551005	-0.161695	6
C	0.920197	0.179995	-1.286095	6
C	2.189647	0.800695	-1.770565	6
H	-0.006123	-2.128075	2.747475	1
H	0.916717	-1.723795	1.288975	1
H	-0.659994	-2.571095	1.158095	1
H	-1.318023	-0.897475	-0.301735	1
H	-1.837693	1.776505	1.107465	1
H	-3.014813	0.510445	0.799335	1
H	-2.305263	1.397095	-0.567705	1
H	0.700407	1.347165	0.455225	1
H	0.512496	-0.621775	-1.897765	1
H	2.528946	1.612175	-1.119345	1
H	2.044926	1.207625	-2.775725	1
H	2.979466	0.044955	-1.815145	1
Es	-1.910237	1.515993	0.880520	99
Es	-0.982763	-0.077419	0.345491	99
Es	-2.718761	0.650905	0.670576	99
Es	0.285901	0.551022	-0.161617	99
Es	2.716805	0.284603	-1.799457	99
Es	0.920273	0.179973	-1.286202	99
Es	0.773667	0.143996	-0.550375	99
Es	-1.205173	-0.646341	-0.104798	99
Es	0.646227	-0.366994	-1.707392	99
Es	-0.338505	0.235874	0.078620	99
Es	-0.033548	-2.028445	2.414684	99
Es	0.598047	-1.756881	1.414219	99
Es	-0.580758	-0.356305	1.804670	99
Es	-1.534254	0.451695	0.377430	99
Es	2.085712	1.071580	-2.449789	99
Es	1.554418	0.494268	-1.526783	99
Es	-2.231141	1.253366	-0.257249	99
Es	-2.094275	0.964942	0.416183	99
Es	0.418158	0.586084	-0.891812	99
Es	-0.505004	-1.036714	1.647487	99
Es	2.415403	1.350503	-1.324606	99
Es	-0.768153	-0.561496	1.673261	99
Es	-1.048215	-0.619417	1.784646	99
Es	-0.828708	-0.409633	1.155781	99
Es	-0.091658	-1.811580	1.704107	99
Es	0.560836	1.092644	0.260404	99
Es	-0.480521	-2.335328	1.320497	99
Es	2.189614	0.800673	-1.770559	99
47
Properties=species:S:1:pos:R:3:Z:I:1 energy=-309.1370348523235 field_type=dipole dipole="0.000000 0.000000 0.000000" charge=0
C	-0.091544	-1.811775	1.704115	6
O	-0.768193	-0.561235	1.673605	8
C	-0.982813	-0.077395	0.345285	6
C	-2.094293	0.964955	0.416195	6
C	0.285956	0.551005	-0.161695	6
C	0.920197	0.179995	-1.286095	6
C	2.189647	0.800695	-1.770565	6
H	-0.006123	-2.128075	2.747475	1
H	0.916717	-1.723795	1.288975	1
H	-0.659994	-2.571095	1.158095	1
H	-1.318023	-0.897475	-0.301735	1
H	-1.837693	1.776505	1.107465	1
H	-3.014813	0.510445	0.799335	1
H	-2.305263	1.397095	-0.567705	1
H	0.700407	1.347165	0.455225	1
H	0.512496	-0.621775	-1.897765	1
H	2.528946	1.612175	-1.119345	1
H	2.044926	1.207625	-2.775725	1
H	2.979466	0.044955	-1.815145	1
Es	-0.505245	-1.036849	1.646933	99
Es	-0.768038	-0.561414	1.673336	99
Es	0.598095	-1.756963	1.414259	99
Es	-0.091655	-1.811584	1.704107	99
Es	-0.033618	-2.028465	2.414621	99
Es	-0.982763	-0.077419	0.345492	99
Es	-1.049000	-0.619121	1.784968	99
Es	-2.231136	1.253334	-0.257293	99
Es	0.285901	0.551021	-0.161617	99
Es	-0.827714	-0.408265	1.155992	99
Es	-0.480486	-2.335297	1.320562	99
Es	-0.338468	0.235716	0.078745	99
Es	-2.718728	0.650921	0.670558	99
Es	-1.534272	0.451708	0.377451	99
Es	0.646288	-0.367162	-1.707299	99
Es	-0.580864	-0.357835	1.804612	99
Es	-1.205095	-0.646322	-0.104751	99
Es	0.418055	0.585952	-0.891809	99
Es	2.189614	0.800674	-1.770558	99
Es	0.920268	0.179983	-1.286213	99
Es	1.554425	0.494314	-1.526817	99
Es	0.560973	1.092627	0.260403	99
Es	2.716858	0.284629	-1.799529	99
Es	-1.910323	1.516014	0.880496	99
Es	0.773518	0.144315	-0.550599	99
Es	-2.094275	0.964941	0.416183	99
Es	2.415380	1.350507	-1.324579	99
Es	2.085692	1.071607	-2.449716	99
47
Properties=species:S:1:pos:R:3:Z:I:1 energy=-309.1370348523235 field_type=dipole dipole="0.000000 0.000000 0.000000" charge=0
C	-0.091544	-1.811775	1.704115	6
O	-0.768193	-0.561235	1.673605	8
C	-0.982813	-0.077395	0.345285	6
C	-2.094293	0.964955	0.416195	6
C	0.285956	0.551005	-0.161695	6
C	0.920197	0.179995	-1.286095	6
C	2.189647	0.800695	-1.770565	6
H	-0.006123	-2.128075	2.747475	1
H	0.916717	-1.723795	1.288975	1
H	-0.659994	-2.571095	1.158095	1
H	-1.318023	-0.897475	-0.301735	1
H	-1.837693	1.776505	1.107465	1
H	-3.014813	0.510445	0.799335	1
H	-2.305263	1.397095	-0.567705	1
H	0.700407	1.347165	0.455225	1
H	0.512496	-0.621775	-1.897765	1
H	2.528946	1.612175	-1.119345	1
H	2.044926	1.207625	-2.775725	1
H	2.979466	0.044955	-1.815145	1
Es	2.085867	1.071577	-2.449704	99
Es	-2.231015	1.253344	-0.257259	99
Es	0.920265	0.179980	-1.286203	99
Es	-0.033550	-2.028497	2.414661	99
Es	-0.338565	0.235726	0.078678	99
Es	-1.910358	1.516028	0.880604	99
Es	-2.094274	0.964941	0.416179	99
Es	2.189615	0.800673	-1.770559	99
Es	-0.583393	-0.355891	1.807416	99
Es	-2.718781	0.650883	0.670401	99
Es	2.415367	1.350506	-1.324617	99
Es	0.646217	-0.367110	-1.707376	99
Es	-1.048089	-0.621359	1.781744	99
Es	-1.205120	-0.646266	-0.104738	99
Es	0.285905	0.551017	-0.161613	99
Es	-0.982763	-0.077420	0.345494	99
Es	-0.767957	-0.561378	1.673268	99
Es	2.716831	0.284555	-1.799417	99
Es	0.418209	0.585840	-0.891716	99
Es	0.598021	-1.756964	1.414224	99
Es	-0.091658	-1.811575	1.704104	99
Es	-1.534305	0.451794	0.377477	99
Es	-0.504029	-1.036404	1.647596	99
Es	0.560996	1.092633	0.260373	99
Es	-0.480455	-2.335288	1.320553	99
Es	-0.827376	-0.408489	1.155826	99
Es	0.773495	0.144212	-0.550554	99
Es	1.554286	0.494501	-1.526903	99
47
Properties=species:S:1:pos:R:3:Z:I:1 energy=-309.1370348523235 field_type=dipole dipole="0.000000 0.000000 0.000000" charge=0
C	-0.091544	-1.811775	1.704115	6
O	-0.768193	-0.561235	1.673605	8
C	-0.982813	-0.077395	0.345285	6
C	-2.094293	0.964955	0.416195	6
C	0.285956	0.551005	-0.161695	6
C	0.920197	0.179995	-1.286095	6
C	2.189647	0.800695	-1.770565	6
H	-0.006123	-2.128075	2.747475	1
H	0.916717	-1.723795	1.288975	1
H	-0.659994	-2.571095	1.158095	1
H	-1.318023	-0.897475	-0.301735	1
H	-1.837693	1.776505	1.107465	1
H	-3.014813	0.510445	0.799335	1
H	-2.305263	1.397095	-0.567705	1
H	0.700407	1.347165	0.455225	1
H	0.512496	-0.621775	-1.897765	1
H	2.528946	1.612175	-1.119345	1
H	2.044926	1.207625	-2.775725	1
H	2.979466	0.044955	-1.815145	1
Es	0.418304	0.585706	-0.891648	99
Es	1.554494	0.494502	-1.526842	99
Es	-2.094275	0.964942	0.416183	99
Es	-0.768134	-0.561470	1.673280	99
Es	2.415443	1.350520	-1.324605	99
Es	2.716823	0.284545	-1.799540	99
Es	-0.982764	-0.077418	0.345491	99
Es	-0.829423	-0.409236	1.155712	99
Es	-2.231043	1.253440	-0.257253	99
Es	0.773397	0.144346	-0.550639	99
Es	-0.480444	-2.335322	1.320538	99
Es	0.598003	-1.756992	1.414284	99
Es	-1.534171	0.451856	0.377469	99
Es	-1.047578	-0.617670	1.786308	99
Es	0.561022	1.092692	0.260343	99
Es	-1.205119	-0.646260	-0.104780	99
Es	-0.338631	0.235628	0.078732	99
Es	0.285900	0.551022	-0.161617	99
Es	-2.718783	0.650909	0.670439	99
Es	-0.580942	-0.357658	1.802635	99
Es	-0.091655	-1.811585	1.704108	99
Es	0.646131	-0.367162	-1.707302	99
Es	-0.033539	-2.028500	2.414603	99
Es	0.920263	0.179979	-1.286199	99
Es	2.189614	0.800671	-1.770559	99
Es	2.085678	1.071589	-2.449692	99
Es	-1.910413	1.515932	0.880559	99
Es	-0.504772	-1.037436	1.647930	99
47
Properties=species:S:1:pos:R:3:Z:I:1 energy=-309.1370348523235 field_type=dipole dipole="0.000000 0.000000 0.000000" charge=0
C	-0.091544	-1.811775	1.704115	6
O	-0.768193	-0.561235	1.673605	8
C	-0.982813	-0.077395	0.345285	6
C	-2.094293	0.964955	0.416195	6
C	0.285956	0.551005	-0.161695	6
C	0.920197	0.179995	-1.286095	6
C	2.189647	0.800695	-1.770565	6
H	-0.006123	-2.128075	2.747475	1
H	0.916717	-1.723795	1.288975	1
H	-0.659994	-2.571095	1.158095	1
H	-1.318023	-0.897475	-0.301735	1
H	-1.837693	1.776505	1.107465	1
H	-3.014813	0.510445	0.799335	1
H	-2.305263	1.397095	-0.567705	1
H	0.700407	1.347165	0.455225	1
H	0.512496	-0.621775	-1.897765	1
H	2.528946	1.612175	-1.119345	1
H	2.044926	1.207625	-2.775725	1
H	2.979466	0.044955	-1.815145	1
Es	-1.534204	0.451812	0.377518	99
Es	-0.091655	-1.811585	1.704107	99
Es	-0.033541	-2.028540	2.414621	99
Es	0.285902	0.551022	-0.161619	99
Es	-2.231065	1.253424	-0.257315	99
Es	2.415457	1.350462	-1.324630	99
Es	-0.828338	-0.408674	1.155648	99
Es	-1.047576	-0.618737	1.784256	99
Es	0.597978	-1.757007	1.414275	99
Es	-0.480419	-2.335286	1.320529	99
Es	0.646134	-0.367223	-1.707266	99
Es	0.561027	1.092779	0.260303	99
Es	-1.205035	-0.646223	-0.104787	99
Es	-1.910446	1.515913	0.880484	99
Es	2.085692	1.071636	-2.449687	99
Es	0.920264	0.179981	-1.286204	99
Es	-0.338786	0.235649	0.078685	99
Es	-2.094276	0.964942	0.416183	99
Es	-0.581532	-0.357419	1.804483	99
Es	2.189617	0.800675	-1.770560	99
Es	-0.982765	-0.077417	0.345487	99
Es	-0.505176	-1.037363	1.648008	99
Es	-0.768170	-0.561300	1.673506	99
Es	2.716829	0.284559	-1.799553	99
Es	-2.718767	0.650934	0.670505	99
Es	1.554481	0.494549	-1.526812	99
Es	0.773350	0.144470	-0.550706	99
Es	0.418408	0.585536	-0.891522	99
47
Properties=species:S:1:pos:R:3:Z:I:1 energy=-309.1370348523235 field_type=dipole dipole="0.000000 0.000000 0.000000" charge=0
C	-0.091544	-1.811775	1.704115	6
O	-0.768193	-0.561235	1.673605	8
C	-0.982813	-0.077395	0.345285	6
C	-2.094293	0.964955	0.416195	6
C	0.285956	0.551005	-0.161695	6
C	0.920197	0.179995	-1.286095	6
C	2.189647	0.800695	-1.770565	6
H	-0.006123	-2.128075	2.747475	1
H	0.916717	-1.723795	1.288975	1
H	-0.659994	-2.571095	1.158095	1
H	-1.318023	-0.897475	-0.301735	1
H	-1.837693	1.776505	1.107465	1
H	-3.014813	0.510445	0.799335	1
H	-2.305263	1.397095	-0.567705	1
H	0.700407	1.347165	0.455225	1
H	0.512496	-0.621775	-1.897765	1
H	2.528946	1.612175	-1.119345	1
H	2.044926	1.207625	-2.775725	1
H	2.979466	0.044955	-1.815145	1
Es	-0.581740	-0.357520	1.803836	99
Es	-0.768040	-0.561383	1.673336	99
Es	-2.094277	0.964943	0.416183	99
Es	-2.231141	1.253366	-0.257191	99
Es	-0.033547	-2.028592	2.414611	99
Es	1.554710	0.494576	-1.526654	99
Es	-0.091654	-1.811586	1.704108	99
Es	-0.480386	-2.335264	1.320469	99
Es	2.085603	1.071498	-2.449865	99
Es	2.716837	0.284581	-1.799377	99
Es	-1.534207	0.451817	0.377368	99
Es	0.561107	1.092682	0.260330	99
Es	0.920267	0.179980	-1.286204	99
Es	2.189617	0.800676	-1.770560	99
Es	0.285909	0.551012	-0.161615	99
Es	-1.205006	-0.646217	-0.104779	99
Es	0.646125	-0.367242	-1.707223	99
Es	-2.718780	0.650985	0.670552	99
Es	0.597953	-1.757005	1.414320	99
Es	-0.504849	-1.037446	1.648238	99
Es	2.415415	1.350546	-1.324753	99
Es	-1.047081	-0.618274	1.785065	99
Es	0.773197	0.144665	-0.550880	99
Es	-0.338756	0.235461	0.078798	99
Es	-0.829110	-0.408850	1.155452	99
Es	-1.910365	1.515988	0.880432	99
Es	-0.982764	-0.077418	0.345488	99
Es	0.418351	0.585591	-0.891548	99
47
Properties=species:S:1:pos:R:3:Z:I:1 energy=-309.1370348523235 field_type=dipole dipole="0.000000 0.000000 0.000000" charge=0
C	-0.091544	-1.811775	1.704115	6
O	-0.768193	-0.561235	1.673605	8
C	-0.982813	-0.077395	0.345285	6
C	-2.094293	0.964955	0.416195	6
C	0.285956	0.551005	-0.161695	6
C	0.920197	0.179995	-1.286095	6
C	2.189647	0.800695	-1.770565	6
H	-0.006123	-2.128075	2.747475	1
H	0.916717	-1.723795	1.288975	1
H	-0.659994	-2.571095	1.158095	1
H	-1.318023	-0.897475	-0.301735	1
H	-1.837693	1.776505	1.107465	1
H	-3.014813	0.510445	0.799335	1
H	-2.305263	1.397095	-0.567705	1
H	0.700407	1.347165	0.455225	1
H	0.512496	-0.621775	-1.897765	1
H	2.528946	1.612175	-1.119345	1
H	2.044926	1.207625	-2.775725	1
H	2.979466	0.044955	-1.815145	1
Es	2.415477	1.350559	-1.324745	99
Es	0.418520	0.585407	-0.891416	99
Es	-2.231042	1.253292	-0.257197	99
Es	0.597911	-1.757055	1.414250	99
Es	-0.503021	-1.036311	1.648125	99
Es	0.285905	0.551015	-0.161620	99
Es	1.554585	0.494608	-1.526670	99
Es	-0.480383	-2.335281	1.320575	99
Es	-1.910420	1.516065	0.880463	99
Es	-2.094275	0.964942	0.416183	99
Es	-0.091654	-1.811585	1.704106	99
Es	2.716840	0.284614	-1.799496	99
Es	-0.338831	0.235523	0.078700	99
Es	0.773210	0.144566	-0.550834	99
Es	2.189614	0.800673	-1.770559	99
Es	-0.033478	-2.028563	2.414613	99
Es	0.920263	0.179984	-1.286204	99
Es	2.085636	1.071507	-2.449743	99
Es	-0.828380	-0.408270	1.155509	99
Es	-1.534329	0.451772	0.377407	99
Es	-0.768069	-0.561398	1.673376	99
Es	0.646038	-0.367212	-1.707306	99
Es	-0.982765	-0.077418	0.345488	99
Es	-1.047110	-0.621020	1.782643	99
Es	-2.718811	0.651019	0.670443	99
Es	-0.584231	-0.356459	1.806260	99
Es	-1.204927	-0.646154	-0.104697	99
Es	0.561111	1.092750	0.260284	99
47
Properties=species:S:1:pos:R:3:Z:I:1 energy=-309.1370348523235 field_type=dipole dipole="0.000000 0.000000 0.000000" charge=0
C	-0.091544	-1.811775	1.704115	6
O	-0.768193	-0.561235	1.673605	8
C	-0.982813	-0.077395	0.345285	6
C	-2.094293	0.964955	0.416195	6
C	0.285956	0.551005	-0.161695	6
C	0.920197	0.179995	-1.286095	6
C	2.189647	0.800695	-1.770565	6
H	-0.006123	-2.128075	2.747475	1
H	0.916717	-1.723795	1.288975	1
H	-0.659994	-2.571095	1.158095	1
H	-1.318023	-0.897475	-0.301735	1
H	-1.837693	1.776505	1.107465	1
H	-3.014813	0.510445	0.799335	1
H	-2.305263	1.397095	-0.567705	1
H	0.700407	1.347165	0.455225	1
H	0.512496	-0.621775	-1.897765	1
H	2.528946	1.612175	-1.119345	1
H	2.044926	1.207625	-2.775725	1
H	2.979466	0.044955	-1.815145	1
Es	0.920266	0.179979	-1.286204	99
Es	-2.231058	1.253438	-0.257168	99
Es	0.285905	0.551016	-0.161625	99
Es	0.597890	-1.757007	1.414321	99
Es	-0.091657	-1.811582	1.704105	99
Es	-0.768067	-0.561388	1.673340	99
Es	-2.094277	0.964943	0.416183	99
Es	1.554675	0.494563	-1.526791	99
Es	-0.982764	-0.077417	0.345488	99
Es	0.773128	0.144722	-0.550938	99
Es	2.716889	0.284621	-1.799539	99
Es	-0.338819	0.235396	0.078751	99
Es	-0.480262	-2.335263	1.320495	99
Es	-0.505408	-1.038021	1.648494	99
Es	-0.829056	-0.408502	1.155353	99
Es	2.189614	0.800674	-1.770560	99
Es	0.561152	1.092728	0.260300	99
Es	-0.581671	-0.358227	1.803346	99
Es	-1.204874	-0.646152	-0.104674	99
Es	2.085646	1.071678	-2.449729	99
Es	-2.718815	0.650963	0.670439	99
Es	-0.033506	-2.028643	2.414615	99
Es	-1.910451	1.515935	0.880501	99
Es	0.418480	0.585395	-0.891417	99
Es	0.646044	-0.367229	-1.707206	99
Es	-1.046707	-0.617304	1.785400	99
Es	2.415398	1.350426	-1.324637	99
Es	-1.534311	0.451825	0.377294	99
47
Properties=species:S:1:pos:R:3:Z:I:1 energy=-309.1370348523235 field_type=dipole dipole="0.000000 0.000000 0.000000" charge=0
C	-0.091544	-1.811775	1.704115	6
O	-0.768193	-0.561235	1.673605	8
C	-0.982813	-0.077395	0.345285	6
C	-2.094293	0.964955	0.416195	6
C	0.285956	0.551005	-0.161695	6
C	0.920197	0.179995	-1.286095	6
C	2.189647	0.800695	-1.770565	6
H	-0.006123	-2.128075	2.747475	1
H	0.916717	-1.723795	1.288975	1
H	-0.659994	-2.571095	1.158095	1
H	-1.318023	-0.897475	-0.301735	1
H	-1.837693	1.776505	1.107465	1
H	-3.014813	0.510445	0.799335	1
H	-2.305263	1.397095	-0.567705	1
H	0.700407	1.347165	0.455225	1
H	0.512496	-0.621775	-1.897765	1
H	2.528946	1.612175	-1.119345	1
H	2.044926	1.207625	-2.775725	1
H	2.979466	0.044955	-1.815145	1
Es	-1.910456	1.516027	0.880376	99
Es	-1.204786	-0.646135	-0.104659	99
Es	2.716830	0.284592	-1.799387	99
Es	-1.534359	0.451753	0.377318	99
Es	-0.580433	-0.359058	1.802201	99
Es	-0.982763	-0.077416	0.345485	99
Es	-0.033505	-2.028600	2.414587	99
Es	-2.094277	0.964942	0.416183	99
Es	2.085765	1.071596	-2.449803	99
Es	-0.338885	0.235397	0.078708	99
Es	1.554695	0.494659	-1.526821	99
Es	0.920268	0.179979	-1.286201	99
Es	-0.829401	-0.408513	1.155292	99
Es	-0.506346	-1.038451	1.648386	99
Es	-1.046541	-0.616038	1.786629	99
Es	-0.768095	-0.561364	1.673415	99
Es	2.189615	0.800674	-1.770559	99
Es	-2.718787	0.651014	0.670534	99
Es	0.561146	1.092770	0.260313	99
Es	-0.480325	-2.335275	1.320551	99
Es	-0.091654	-1.811587	1.704107	99
Es	0.645985	-0.367290	-1.707170	99
Es	0.597900	-1.757067	1.414309	99
Es	0.773047	0.144866	-0.551046	99
Es	0.285903	0.551019	-0.161620	99
Es	2.415392	1.350467	-1.324677	99
Es	0.418580	0.585287	-0.891331	99
Es	-2.231127	1.253319	-0.257181	99
47
Properties=species:S:1:pos:R:3:Z:I:1 energy=-309.1370348523235 field_type=dipole dipole="0.000000 0.000000 0.000000" charge=0
C	-0.091544	-1.811775	1.704115	6
O	-0.768193	-0.561235	1.673605	8
C	-0.982813	-0.077395	0.345285	6
C	-2.094293	0.964955	0.416195	6
C	0.285956	0.551005	-0.161695	6
C	0.920197	0.179995	-1.286095	6
C	2.189647	0.800695	-1.770565	6
H	-0.006123	-2.128075	2.747475	1
H	0.916717	-1.723795	1.288975	1
H	-0.659994	-2.571095	1.158095	1
H	-1.318023	-0.897475	-0.301735	1
H	-1.837693	1.776505	1.107465	1
H	-3.014813	0.510445	0.799335	1
H	-2.305263	1.397095	-0.567705	1
H	0.700407	1.347165	0.455225	1
H	0.512496	-0.621775	-1.897765	1
H	2.528946	1.612175	-1.119345	1
H	2.044926	1.207625	-2.775725	1
H	2.979466	0.044955	-1.815145	1
Es	2.085727	1.071592	-2.449780	99
Es	2.415380	1.350483	-1.324676	99
Es	-2.230989	1.253459	-0.257197	99
Es	-1.204774	-0.646097	-0.104640	99
Es	0.561148	1.092771	0.260318	99
Es	-2.718831	0.650992	0.670362	99
Es	-0.581035	-0.358783	1.802283	99
Es	-0.829599	-0.408619	1.155214	99
Es	-1.534302	0.451868	0.377359	99
Es	-1.910595	1.515900	0.880481	99
Es	2.189615	0.800674	-1.770559	99
Es	-1.046278	-0.616241	1.786533	99
Es	-0.480311	-2.335270	1.320576	99
Es	-0.768141	-0.561465	1.673291	99
Es	-0.505789	-1.038309	1.648605	99
Es	0.285900	0.551023	-0.161621	99
Es	-0.982766	-0.077416	0.345484	99
Es	-2.094277	0.964947	0.416187	99
Es	2.716859	0.284601	-1.799415	99
Es	-0.033516	-2.028603	2.414569	99
Es	0.772996	0.145076	-0.551165	99
Es	0.418509	0.585251	-0.891350	99
Es	-0.338827	0.235152	0.078778	99
Es	1.554760	0.494664	-1.526807	99
Es	0.920268	0.179979	-1.286202	99
Es	-0.091648	-1.811594	1.704109	99
Es	0.597904	-1.757088	1.414311	99
Es	0.645997	-0.367376	-1.707110	99
47
Properties=species:S:1:pos:R:3:Z:I:1 energy=-309.1370348523235 field_type=dipole dipole="0.000000 0.000000 0.000000" charge=0
C	-0.091544	-1.811775	1.704115	6
O	-0.768193	-0.561235	1.673605	8
C	-0.982813	-0.077395	0.345285	6
C	-2.094293	0.964955	0.416195	6
C	0.285956	0.551005	-0.161695	6
C	0.920197	0.179995	-1.286095	6
C	2.189647	0.800695	-1.770565	6
H	-0.006123	-2.128075	2.747475	1
H	0.916717	-1.723795	1.288975	1
H	-0.659994	-2.571095	1.158095	1
H	-1.318023	-0.897475	-0.301735	1
H	-1.837693	1.776505	1.107465	1
H	-3.014813	0.510445	0.799335	1
H	-2.305263	1.397095	-0.567705	1
H	0.700407	1.347165	0.455225	1
H	0.512496	-0.621775	-1.897765	1
H	2.528946	1.612175	-1.119345	1
H	2.044926	1.207625	-2.775725	1
H	2.979466	0.044955	-1.815145	1
Es	0.597872	-1.757068	1.414378	99
Es	0.920264	0.179985	-1.286202	99
Es	-2.718924	0.651004	0.670235	99
Es	0.285903	0.551020	-0.161620	99
Es	-0.581767	-0.358498	1.803054	99
Es	2.189615	0.800674	-1.770559	99
Es	-2.094272	0.964939	0.416184	99
Es	2.415467	1.350425	-1.324690	99
Es	-0.505334	-1.038244	1.648275	99
Es	2.716813	0.284557	-1.799464	99
Es	-1.045661	-0.617041	1.785954	99
Es	-1.910630	1.516070	0.880477	99
Es	1.554754	0.494724	-1.526806	99
Es	-0.830087	-0.408243	1.155345	99
Es	0.772961	0.145044	-0.551157	99
Es	0.645922	-0.367344	-1.707099	99
Es	-2.230899	1.253324	-0.257048	99
Es	-0.338961	0.235142	0.078671	99
Es	-0.091651	-1.811591	1.704108	99
Es	-0.768018	-0.561382	1.673284	99
Es	-1.204868	-0.646068	-0.104605	99
Es	-0.033531	-2.028630	2.414599	99
Es	-1.534202	0.451879	0.377332	99
Es	-0.480215	-2.335274	1.320531	99
Es	-0.982766	-0.077416	0.345484	99
Es	0.561210	1.092779	0.260278	99
Es	2.085700	1.071641	-2.449774	99
Es	0.418693	0.585162	-0.891227	99
47
Properties=species:S:1:pos:R:3:Z:I:1 energy=-309.1370348523235 field_type=dipole dipole="0.000000 0.000000 0.000000" charge=0
C	-0.091544	-1.811775	1.704115	6
O	-0.768193	-0.561235	1.673605	8
C	-0.982813	-0.077395	0.345285	6
C	-2.094293	0.964955	0.416195	6
C	0.285956	0.551005	-0.161695	6
C	0.920197	0.179995	-1.286095	6
C	2.189647	0.800695	-1.770565	6
H	-0.006123	-2.128075	2.747475	1
H	0.916717	-1.723795	1.288975	1
H	-0.659994	-2.571095	1.158095	1
H	-1.318023	-0.897475	-0.301735	1
H	-1.837693	1.776505	1.107465	1
H	-3.014813	0.510445	0.799335	1
H	-2.305263	1.397095	-0.567705	1
H	0.700407	1.347165	0.455225	1
H	0.512496	-0.621775	-1.897765	1
H	2.528946	1.612175	-1.119345	1
H	2.044926	1.207625	-2.775725	1
H	2.979466	0.044955	-1.815145	1
Es	-0.480267	-2.335273	1.320560	99
Es	2.415409	1.350459	-1.324657	99
Es	1.554792	0.494765	-1.526838	99
Es	0.597822	-1.757113	1.414331	99
Es	2.189615	0.800674	-1.770559	99
Es	-0.982766	-0.077416	0.345484	99
Es	-1.046270	-0.615130	1.788181	99
Es	-0.033465	-2.028632	2.414581	99
Es	-0.339037	0.235183	0.078738	99
Es	0.418770	0.585024	-0.891150	99
Es	0.645876	-0.367330	-1.707146	99
Es	0.772787	0.145097	-0.551266	99
Es	2.085751	1.071617	-2.449775	99
Es	-1.534324	0.451803	0.377250	99
Es	-2.231063	1.253358	-0.257115	99
Es	2.716825	0.284582	-1.799428	99
Es	0.285904	0.551017	-0.161619	99
Es	-0.505727	-1.038453	1.648676	99
Es	0.920267	0.179980	-1.286202	99
Es	-2.718840	0.651087	0.670446	99
Es	-0.829927	-0.408369	1.155138	99
Es	-0.091652	-1.811589	1.704108	99
Es	-2.094277	0.964943	0.416183	99
Es	-1.910519	1.515998	0.880377	99
Es	-0.768019	-0.561431	1.673284	99
Es	-1.204725	-0.646060	-0.104621	99
Es	-0.580875	-0.360007	1.800684	99
Es	0.561324	1.092786	0.260292	99
