45
Properties=species:S:1:pos:R:3:Z:I:1 energy=-344.9647783818839 field_type=dipole dipole="0.000000 0.000000 0.000000" charge=0
C	-1.827724	-1.033989	-1.520124	6
O	-2.001524	0.058461	-0.628044	8
C	-1.588474	-0.269429	0.692916	6
O	-0.182804	-0.453449	0.806006	8
C	0.523705	0.767351	0.606486	6
C	1.967906	0.492271	0.881716	6
C	2.965326	0.706921	0.014536	6
H	-2.206294	-0.737659	-2.501664	1
H	-2.394554	-1.905769	-1.179934	1
H	-0.767834	-1.288069	-1.620894	1
H	-2.084954	-1.188959	1.021436	1
H	-1.915174	0.529571	1.367716	1
H	0.165926	1.527711	1.310076	1
H	0.372275	1.126241	-0.417144	1
H	2.199146	0.086591	1.863366	1
H	2.782676	1.103411	-0.979824	1
H	3.992386	0.478791	0.283376	1
Es	-2.086746	-0.831703	-2.187822	99
Es	-0.106102	-0.636417	0.574787	99
Es	0.054888	0.026034	0.725912	99
Es	2.115445	0.219759	1.549490	99
Es	-1.808296	0.289535	1.150262	99
Es	0.278066	1.288266	1.089927	99
Es	-1.920801	-0.375627	-0.939586	99
Es	-1.588282	-0.269399	0.692685	99
Es	1.967805	0.492273	0.881775	99
Es	2.501474	0.910696	0.557790	99
Es	-1.813513	0.281992	-0.720078	99
Es	0.427298	1.016071	-0.091383	99
Es	0.523633	0.767140	0.606548	99
Es	3.663921	0.556863	0.190119	99
Es	-1.830282	-0.096077	-0.140684	99
Es	2.845769	0.976593	-0.661117	99
Es	-0.139457	-0.531706	1.099724	99
Es	-2.001437	0.058203	-0.627968	99
Es	-1.106567	-1.212866	-1.589239	99
Es	-2.213699	-1.635974	-1.280539	99
Es	-0.182985	-0.453102	0.805927	99
Es	-0.708507	-0.350686	0.752201	99
Es	2.436110	0.303968	0.324236	99
Es	-1.827761	-1.033813	-1.519976	99
Es	1.251151	0.630154	0.739932	99
Es	2.965401	0.706948	0.014473	99
Es	-2.301556	0.099255	-0.600470	99
Es	-1.923441	-0.909191	0.912053	99
45
Properties=species:S:1:pos:R:3:Z:I:1 energy=-344.9647783818839 field_type=dipole dipole="0.000000 0.000000 0.000000" charge=0
C	-1.827724	-1.033989	-1.520124	6
O	-2.001524	0.058461	-0.628044	8
C	-1.588474	-0.269429	0.692916	6
O	-0.182804	-0.453449	0.806006	8
C	0.523705	0.767351	0.606486	6
C	1.967906	0.492271	0.881716	6
C	2.965326	0.706921	0.014536	6
H	-2.206294	-0.737659	-2.501664	1
H	-2.394554	-1.905769	-1.179934	1
H	-0.767834	-1.288069	-1.620894	1
H	-2.084954	-1.188959	1.021436	1
H	-1.915174	0.529571	1.367716	1
H	0.165926	1.527711	1.310076	1
H	0.372275	1.126241	-0.417144	1
H	2.199146	0.086591	1.863366	1
H	2.782676	1.103411	-0.979824	1
H	3.992386	0.478791	0.283376	1
Es	-1.831639	-0.096526	-0.140628	99
Es	-2.302269	0.103450	-0.601962	99
Es	1.251128	0.630141	0.739764	99
Es	-0.182976	-0.453110	0.805925	99
Es	2.436091	0.304236	0.324339	99
Es	-2.213653	-1.635914	-1.280522	99
Es	0.427311	1.016065	-0.091264	99
Es	-2.086790	-0.831752	-2.187853	99
Es	2.965405	0.706957	0.014472	99
Es	0.054496	0.026127	0.726175	99
Es	-1.810066	0.278961	-0.719631	99
Es	-1.827756	-1.033813	-1.519975	99
Es	-0.708678	-0.351040	0.752137	99
Es	-1.588286	-0.269404	0.692688	99
Es	2.501517	0.910686	0.557807	99
Es	-1.923490	-0.909115	0.912153	99
Es	1.967804	0.492254	0.881768	99
Es	-0.139758	-0.530905	1.099361	99
Es	0.523636	0.767142	0.606548	99
Es	2.845767	0.976558	-0.661138	99
Es	-0.105256	-0.636999	0.574961	99
Es	-1.922317	-0.376214	-0.938664	99
Es	-2.001313	0.058108	-0.627941	99
Es	0.278084	1.288314	1.089918	99
Es	3.663923	0.556784	0.190116	99
Es	2.115466	0.219642	1.549488	99
Es	-1.106591	-1.212917	-1.589240	99
Es	-1.808261	0.289473	1.150175	99
45
Properties=species:S:1:pos:R:3:Z:I:1 energy=-344.9647783818839 field_type=dipole dipole="0.000000 0.000000 0.000000" charge=0
C	-1.827724	-1.033989	-1.520124	6
O	-2.001524	0.058461	-0.628044	8
C	-1.588474	-0.269429	0.692916	6
O	-0.182804	-0.453449	0.806006	8
C	0.523705	0.767351	0.606486	6
C	1.967906	0.492271	0.881716	6
C	2.965326	0.706921	0.014536	6
H	-2.206294	-0.737659	-2.501664	1
H	-2.394554	-1.905769	-1.179934	1
H	-0.767834	-1.288069	-1.620894	1
H	-2.084954	-1.188959	1.021436	1
H	-1.915174	0.529571	1.367716	1
H	0.165926	1.527711	1.310076	1
H	0.372275	1.126241	-0.417144	1
H	2.199146	0.086591	1.863366	1
H	2.782676	1.103411	-0.979824	1
H	3.992386	0.478791	0.283376	1
Es	0.054682	0.026128	0.726081	99
Es	2.845723	0.976547	-0.661125	99
Es	0.523630	0.767134	0.606548	99
Es	2.115480	0.219706	1.549538	99
Es	-1.832688	-0.096720	-0.139705	99
Es	-2.001423	0.058155	-0.627944	99
Es	1.251203	0.630147	0.739750	99
Es	-0.708962	-0.351048	0.752862	99
Es	-0.105708	-0.636766	0.574956	99
Es	0.278101	1.288307	1.089796	99
Es	2.501473	0.910658	0.557767	99
Es	2.436134	0.304226	0.324365	99
Es	-1.808358	0.275864	-0.718587	99
Es	3.663952	0.556791	0.190088	99
Es	-1.808308	0.289424	1.150225	99
Es	-0.182919	-0.453211	0.805949	99
Es	-0.139319	-0.531056	1.098775	99
Es	0.427295	1.016058	-0.091212	99
Es	-2.301739	0.107070	-0.603533	99
Es	-1.923494	-0.909143	0.912073	99
Es	2.965405	0.706963	0.014479	99
Es	-2.086778	-0.831756	-2.187842	99
Es	-2.213644	-1.635918	-1.280563	99
Es	-1.923368	-0.376509	-0.938999	99
Es	-1.106599	-1.212918	-1.589248	99
Es	-1.827761	-1.033810	-1.519973	99
Es	1.967802	0.492266	0.881773	99
Es	-1.588281	-0.269401	0.692683	99
45
Properties=species:S:1:pos:R:3:Z:I:1 energy=-344.9647783818839 field_type=dipole dipole="0.000000 0.000000 0.000000" charge=0
C	-1.827724	-1.033989	-1.520124	6
O	-2.001524	0.058461	-0.628044	8
C	-1.588474	-0.269429	0.692916	6
O	-0.182804	-0.453449	0.806006	8
C	0.523705	0.767351	0.606486	6
C	1.967906	0.492271	0.881716	6
C	2.965326	0.706921	0.014536	6
H	-2.206294	-0.737659	-2.501664	1
H	-2.394554	-1.905769	-1.179934	1
H	-0.767834	-1.288069	-1.620894	1
H	-2.084954	-1.188959	1.021436	1
H	-1.915174	0.529571	1.367716	1
H	0.165926	1.527711	1.310076	1
H	0.372275	1.126241	-0.417144	1
H	2.199146	0.086591	1.863366	1
H	2.782676	1.103411	-0.979824	1
H	3.992386	0.478791	0.283376	1
Es	-1.831382	-0.096330	-0.140057	99
Es	-0.182979	-0.453149	0.805949	99
Es	-2.086768	-0.831750	-2.187754	99
Es	-1.588279	-0.269400	0.692681	99
Es	0.427354	1.016063	-0.091228	99
Es	2.436106	0.304384	0.324458	99
Es	3.663925	0.556749	0.190091	99
Es	0.523635	0.767141	0.606547	99
Es	-2.301746	0.103655	-0.602200	99
Es	0.278098	1.288326	1.089862	99
Es	2.845756	0.976478	-0.661152	99
Es	-1.810902	0.278466	-0.719416	99
Es	2.115555	0.219654	1.549492	99
Es	1.251046	0.630073	0.739737	99
Es	-0.105341	-0.636231	0.576023	99
Es	-1.922261	-0.376095	-0.939121	99
Es	0.054773	0.026306	0.725812	99
Es	-1.106596	-1.212847	-1.589343	99
Es	1.967802	0.492267	0.881773	99
Es	-1.827763	-1.033810	-1.519973	99
Es	-0.139731	-0.531249	1.099400	99
Es	2.965403	0.706945	0.014471	99
Es	-1.923396	-0.909099	0.912045	99
Es	-2.213621	-1.635993	-1.280623	99
Es	-2.001364	0.058119	-0.627946	99
Es	2.501514	0.910731	0.557765	99
Es	-1.808353	0.289418	1.150298	99
Es	-0.708954	-0.351634	0.751389	99
45
Properties=species:S:1:pos:R:3:Z:I:1 energy=-344.9647783818839 field_type=dipole dipole="0.000000 0.000000 0.000000" charge=0
C	-1.827724	-1.033989	-1.520124	6
O	-2.001524	0.058461	-0.628044	8
C	-1.588474	-0.269429	0.692916	6
O	-0.182804	-0.453449	0.806006	8
C	0.523705	0.767351	0.606486	6
C	1.967906	0.492271	0.881716	6
C	2.965326	0.706921	0.014536	6
H	-2.206294	-0.737659	-2.501664	1
H	-2.394554	-1.905769	-1.179934	1
H	-0.767834	-1.288069	-1.620894	1
H	-2.084954	-1.188959	1.021436	1
H	-1.915174	0.529571	1.367716	1
H	0.165926	1.527711	1.310076	1
H	0.372275	1.126241	-0.417144	1
H	2.199146	0.086591	1.863366	1
H	2.782676	1.103411	-0.979824	1
H	3.992386	0.478791	0.283376	1
Es	2.436084	0.304471	0.324422	99
Es	2.115649	0.219561	1.549461	99
Es	-1.810847	0.278099	-0.719261	99
Es	0.523634	0.767138	0.606547	99
Es	-0.105844	-0.635777	0.575143	99
Es	-1.106625	-1.212903	-1.589308	99
Es	-0.139084	-0.532130	1.097606	99
Es	0.427305	1.016136	-0.091215	99
Es	-0.182988	-0.453077	0.806048	99
Es	-1.808351	0.289435	1.150273	99
Es	1.967805	0.492268	0.881773	99
Es	-0.709461	-0.351499	0.752958	99
Es	-2.001397	0.058120	-0.627927	99
Es	-1.588280	-0.269401	0.692684	99
Es	-2.086784	-0.831806	-2.187801	99
Es	0.055151	0.026483	0.726830	99
Es	-1.923384	-0.909072	0.912085	99
Es	2.845720	0.976554	-0.661129	99
Es	-2.301278	0.104159	-0.602337	99
Es	-2.213602	-1.635934	-1.280579	99
Es	0.278131	1.288250	1.089850	99
Es	-1.827760	-1.033815	-1.519978	99
Es	3.663963	0.556796	0.190108	99
Es	2.501502	0.910496	0.557746	99
Es	-1.922541	-0.376240	-0.939386	99
Es	2.965401	0.706949	0.014471	99
Es	-1.831584	-0.096316	-0.139886	99
Es	1.250996	0.630243	0.739780	99
45
Properties=species:S:1:pos:R:3:Z:I:1 energy=-344.9647783818839 field_type=dipole dipole="0.000000 0.000000 0.000000" charge=0
C	-1.827724	-1.033989	-1.520124	6
O	-2.001524	0.058461	-0.628044	8
C	-1.588474	-0.269429	0.692916	6
O	-0.182804	-0.453449	0.806006	8
C	0.523705	0.767351	0.606486	6
C	1.967906	0.492271	0.881716	6
C	2.965326	0.706921	0.014536	6
H	-2.206294	-0.737659	-2.501664	1
H	-2.394554	-1.905769	-1.179934	1
H	-0.767834	-1.288069	-1.620894	1
H	-2.084954	-1.188959	1.021436	1
H	-1.915174	0.529571	1.367716	1
H	0.165926	1.527711	1.310076	1
H	0.372275	1.126241	-0.417144	1
H	2.199146	0.086591	1.863366	1
H	2.782676	1.103411	-0.979824	1
H	3.992386	0.478791	0.283376	1
Es	2.501518	0.910455	0.557739	99
Es	-2.213655	-1.635892	-1.280655	99
Es	2.436140	0.304528	0.324522	99
Es	-1.922458	-0.376195	-0.939792	99
Es	-2.001472	0.058061	-0.627895	99
Es	-0.182972	-0.453116	0.805892	99
Es	-1.588280	-0.269400	0.692682	99
Es	2.115618	0.219603	1.549499	99
Es	-1.832027	-0.096459	-0.139740	99
Es	-2.086729	-0.831789	-2.187782	99
Es	-0.709412	-0.351280	0.753956	99
Es	1.967809	0.492282	0.881777	99
Es	-1.810881	0.278065	-0.718780	99
Es	0.427309	1.016072	-0.091160	99
Es	2.845700	0.976559	-0.661160	99
Es	0.523636	0.767143	0.606547	99
Es	3.663956	0.556764	0.190107	99
Es	-0.137778	-0.534751	1.097268	99
Es	-1.827760	-1.033819	-1.519981	99
Es	-2.300823	0.104419	-0.602520	99
Es	0.055319	0.026713	0.727563	99
Es	-1.106639	-1.212975	-1.589301	99
Es	1.251067	0.630252	0.739718	99
Es	-1.923403	-0.909043	0.912084	99
Es	0.278026	1.288267	1.089748	99
Es	-0.107317	-0.633579	0.573906	99
Es	-1.808364	0.289356	1.150263	99
Es	2.965401	0.706949	0.014474	99
45
Properties=species:S:1:pos:R:3:Z:I:1 energy=-344.9647783818839 field_type=dipole dipole="0.000000 0.000000 0.000000" charge=0
C	-1.827724	-1.033989	-1.520124	6
O	-2.001524	0.058461	-0.628044	8
C	-1.588474	-0.269429	0.692916	6
O	-0.182804	-0.453449	0.806006	8
C	0.523705	0.767351	0.606486	6
C	1.967906	0.492271	0.881716	6
C	2.965326	0.706921	0.014536	6
H	-2.206294	-0.737659	-2.501664	1
H	-2.394554	-1.905769	-1.179934	1
H	-0.767834	-1.288069	-1.620894	1
H	-2.084954	-1.188959	1.021436	1
H	-1.915174	0.529571	1.367716	1
H	0.165926	1.527711	1.310076	1
H	0.372275	1.126241	-0.417144	1
H	2.199146	0.086591	1.863366	1
H	2.782676	1.103411	-0.979824	1
H	3.992386	0.478791	0.283376	1
Es	2.965401	0.706949	0.014475	99
Es	-2.213627	-1.635925	-1.280648	99
Es	1.967807	0.492269	0.881772	99
Es	-2.001295	0.058123	-0.627974	99
Es	-1.827761	-1.033816	-1.519979	99
Es	-0.709431	-0.351713	0.752248	99
Es	0.278109	1.288299	1.089766	99
Es	1.250988	0.630241	0.739711	99
Es	2.115639	0.219622	1.549498	99
Es	-1.810569	0.277588	-0.718715	99
Es	-1.808351	0.289337	1.150248	99
Es	3.663979	0.556811	0.190161	99
Es	-2.086726	-0.831780	-2.187814	99
Es	2.845708	0.976618	-0.661145	99
Es	2.501474	0.910358	0.557691	99
Es	-0.139817	-0.531972	1.097450	99
Es	-1.106687	-1.212954	-1.589299	99
Es	-1.923423	-0.908992	0.912093	99
Es	0.523635	0.767141	0.606547	99
Es	2.436145	0.304504	0.324485	99
Es	-1.588282	-0.269401	0.692685	99
Es	-1.922625	-0.376464	-0.939626	99
Es	0.427362	1.016092	-0.091151	99
Es	0.055362	0.026620	0.727357	99
Es	-1.832496	-0.096290	-0.139496	99
Es	-0.182962	-0.453126	0.805933	99
Es	-0.105353	-0.635888	0.575615	99
Es	-2.300674	0.104938	-0.602910	99
45
Properties=species:S:1:pos:R:3:Z:I:1 energy=-344.9647783818839 field_type=dipole dipole="0.000000 0.000000 0.000000" charge=0
C	-1.827724	-1.033989	-1.520124	6
O	-2.001524	0.058461	-0.628044	8
C	-1.588474	-0.269429	0.692916	6
O	-0.182804	-0.453449	0.806006	8
C	0.523705	0.767351	0.606486	6
C	1.967906	0.492271	0.881716	6
C	2.965326	0.706921	0.014536	6
H	-2.206294	-0.737659	-2.501664	1
H	-2.394554	-1.905769	-1.179934	1
H	-0.767834	-1.288069	-1.620894	1
H	-2.084954	-1.188959	1.021436	1
H	-1.915174	0.529571	1.367716	1
H	0.165926	1.527711	1.310076	1
H	0.372275	1.126241	-0.417144	1
H	2.199146	0.086591	1.863366	1
H	2.782676	1.103411	-0.979824	1
H	3.992386	0.478791	0.283376	1
Es	2.965400	0.706943	0.014472	99
Es	2.115773	0.219656	1.549531	99
Es	2.845711	0.976682	-0.661158	99
Es	2.436142	0.304608	0.324537	99
Es	1.967810	0.492269	0.881769	99
Es	-1.588287	-0.269398	0.692687	99
Es	0.427380	1.016086	-0.091084	99
Es	0.523636	0.767143	0.606547	99
Es	0.055779	0.026718	0.727272	99
Es	-1.827760	-1.033817	-1.519980	99
Es	3.663953	0.556782	0.190158	99
Es	-0.137860	-0.534646	1.096773	99
Es	1.250928	0.630166	0.739667	99
Es	-1.833305	-0.096447	-0.139189	99
Es	-1.808138	0.274196	-0.717966	99
Es	2.501441	0.910243	0.557633	99
Es	-2.086673	-0.831831	-2.187856	99
Es	-1.106723	-1.212978	-1.589239	99
Es	-0.709807	-0.351552	0.753772	99
Es	-1.923408	-0.909013	0.912082	99
Es	-0.182992	-0.453094	0.805870	99
Es	-2.001310	0.058126	-0.627948	99
Es	-2.301017	0.108977	-0.604300	99
Es	0.278129	1.288327	1.089761	99
Es	-1.923906	-0.376859	-0.939347	99
Es	-2.213619	-1.635906	-1.280650	99
Es	-1.808370	0.289281	1.150245	99
Es	-0.107376	-0.633471	0.574922	99
45
Properties=species:S:1:pos:R:3:Z:I:1 energy=-344.9647783818839 field_type=dipole dipole="0.000000 0.000000 0.000000" charge=0
C	-1.827724	-1.033989	-1.520124	6
O	-2.001524	0.058461	-0.628044	8
C	-1.588474	-0.269429	0.692916	6
O	-0.182804	-0.453449	0.806006	8
C	0.523705	0.767351	0.606486	6
C	1.967906	0.492271	0.881716	6
C	2.965326	0.706921	0.014536	6
H	-2.206294	-0.737659	-2.501664	1
H	-2.394554	-1.905769	-1.179934	1
H	-0.767834	-1.288069	-1.620894	1
H	-2.084954	-1.188959	1.021436	1
H	-1.915174	0.529571	1.367716	1
H	0.165926	1.527711	1.310076	1
H	0.372275	1.126241	-0.417144	1
H	2.199146	0.086591	1.863366	1
H	2.782676	1.103411	-0.979824	1
H	3.992386	0.478791	0.283376	1
Es	1.967806	0.492270	0.881771	99
Es	-1.827760	-1.033818	-1.519981	99
Es	0.427438	1.016066	-0.091112	99
Es	-1.588283	-0.269400	0.692686	99
Es	-2.301695	0.107799	-0.603531	99
Es	2.845747	0.976651	-0.661163	99
Es	3.663974	0.556796	0.190230	99
Es	-2.001312	0.058128	-0.627946	99
Es	-1.923423	-0.908939	0.912117	99
Es	-1.106747	-1.212944	-1.589294	99
Es	-2.213533	-1.635919	-1.280635	99
Es	1.250893	0.630363	0.739701	99
Es	-0.709766	-0.352574	0.752302	99
Es	-0.140094	-0.528862	1.097591	99
Es	-1.808344	0.289317	1.150234	99
Es	-1.923135	-0.376479	-0.939587	99
Es	2.115802	0.219724	1.549622	99
Es	-0.182946	-0.453151	0.805907	99
Es	0.523635	0.767142	0.606548	99
Es	2.436186	0.304629	0.324506	99
Es	2.501322	0.910015	0.557542	99
Es	2.965402	0.706957	0.014478	99
Es	0.055078	0.026530	0.725027	99
Es	-1.809477	0.274707	-0.718105	99
Es	0.278083	1.288332	1.089699	99
Es	-0.104497	-0.638087	0.577785	99
Es	-2.086735	-0.831863	-2.187854	99
Es	-1.832088	-0.096200	-0.139557	99
