41
Properties=species:S:1:pos:R:3:Z:I:1 energy=-306.7340968038715 field_type=dipole dipole="0.000000 0.000000 0.000000" charge=0
O	-2.545421	0.055761	-0.388417	8
C	-1.109871	0.061351	-0.464647	6
C	-0.392431	1.105651	0.419013	6
C	0.671869	0.031931	0.751453	6
C	-0.382651	-1.029369	0.353153	6
C	1.865600	0.060241	-0.075017	6
C	2.849909	0.083591	-0.762357	6
H	-2.821961	-0.706739	-0.925347	1
H	-0.781861	0.099761	-1.511377	1
H	-0.977261	1.428151	1.289163	1
H	-0.038081	1.997991	-0.106187	1
H	0.924379	0.000431	1.818363	1
H	-0.020741	-1.884359	-0.226177	1
H	-0.964411	-1.410079	1.201573	1
H	3.722929	0.105681	-1.373187	1
Es	-2.006531	0.042874	-0.430683	99
Es	-2.545186	0.055428	-0.388510	99
Es	0.671905	0.031931	0.751348	99
Es	-0.878667	0.082958	-1.180367	99
Es	2.850108	0.083597	-0.762498	99
Es	-0.382607	-1.029310	0.353155	99
Es	2.464385	0.384279	-0.276603	99
Es	-0.804022	0.649220	-0.050808	99
Es	0.862610	0.011033	1.460887	99
Es	-0.789756	-0.555949	-0.087194	99
Es	-0.776711	-1.270750	0.931666	99
Es	-2.643114	0.306789	-0.534853	99
Es	1.288933	0.047096	0.315770	99
Es	1.865392	0.060234	-0.074866	99
Es	0.221883	-0.554530	0.570078	99
Es	-0.133839	-1.615518	-0.041637	99
Es	-0.147914	1.713693	0.062702	99
Es	-2.678083	-0.360538	-0.681475	99
Es	3.419553	0.097745	-1.161068	99
Es	2.158212	0.071360	-0.721537	99
Es	-2.614558	-0.009977	-0.096103	99
Es	0.216077	0.620992	0.605538	99
Es	2.474851	-0.240106	-0.282419	99
Es	-1.110079	0.061343	-0.464579	99
Es	-0.392398	1.105572	0.419004	99
Es	-0.786016	1.304808	1.010997	99
41
Properties=species:S:1:pos:R:3:Z:I:1 energy=-306.7340968038715 field_type=dipole dipole="0.000000 0.000000 0.000000" charge=0
O	-2.545421	0.055761	-0.388417	8
C	-1.109871	0.061351	-0.464647	6
C	-0.392431	1.105651	0.419013	6
C	0.671869	0.031931	0.751453	6
C	-0.382651	-1.029369	0.353153	6
C	1.865600	0.060241	-0.075017	6
C	2.849909	0.083591	-0.762357	6
H	-2.821961	-0.706739	-0.925347	1
H	-0.781861	0.099761	-1.511377	1
H	-0.977261	1.428151	1.289163	1
H	-0.038081	1.997991	-0.106187	1
H	0.924379	0.000431	1.818363	1
H	-0.020741	-1.884359	-0.226177	1
H	-0.964411	-1.410079	1.201573	1
H	3.722929	0.105681	-1.373187	1
Es	-0.776693	-1.270722	0.931632	99
Es	-0.147966	1.713648	0.062725	99
Es	-0.803903	0.649356	-0.050928	99
Es	-1.110071	0.061343	-0.464578	99
Es	-2.615733	-0.008357	-0.095592	99
Es	0.671905	0.031933	0.751347	99
Es	3.419628	0.097818	-1.160989	99
Es	2.233853	0.351284	-0.606455	99
Es	-0.878794	0.082907	-1.180298	99
Es	-0.382606	-1.029309	0.353155	99
Es	1.865388	0.060233	-0.074868	99
Es	-0.789700	-0.555913	-0.087303	99
Es	2.566513	0.124969	-0.135516	99
Es	0.862814	0.011170	1.460631	99
Es	-2.006296	0.042503	-0.430214	99
Es	-2.678451	-0.360729	-0.681210	99
Es	-2.641771	0.305594	-0.535939	99
Es	2.850104	0.083597	-0.762498	99
Es	-0.133960	-1.615515	-0.041546	99
Es	-0.786106	1.304840	1.010909	99
Es	-0.392397	1.105574	0.419003	99
Es	0.221996	-0.554755	0.570401	99
Es	-2.545223	0.055545	-0.388612	99
Es	1.288527	0.046885	0.315692	99
Es	2.297231	-0.260706	-0.538676	99
Es	0.216139	0.621081	0.605672	99
41
Properties=species:S:1:pos:R:3:Z:I:1 energy=-306.7340968038715 field_type=dipole dipole="0.000000 0.000000 0.000000" charge=0
O	-2.545421	0.055761	-0.388417	8
C	-1.109871	0.061351	-0.464647	6
C	-0.392431	1.105651	0.419013	6
C	0.671869	0.031931	0.751453	6
C	-0.382651	-1.029369	0.353153	6
C	1.865600	0.060241	-0.075017	6
C	2.849909	0.083591	-0.762357	6
H	-2.821961	-0.706739	-0.925347	1
H	-0.781861	0.099761	-1.511377	1
H	-0.977261	1.428151	1.289163	1
H	-0.038081	1.997991	-0.106187	1
H	0.924379	0.000431	1.818363	1
H	-0.020741	-1.884359	-0.226177	1
H	-0.964411	-1.410079	1.201573	1
H	3.722929	0.105681	-1.373187	1
Es	2.442568	-0.266913	-0.330351	99
Es	-2.006071	0.043048	-0.430428	99
Es	2.850104	0.083599	-0.762497	99
Es	3.419532	0.097805	-1.160995	99
Es	-2.545280	0.055574	-0.388565	99
Es	0.222069	-0.554942	0.570226	99
Es	-1.110078	0.061345	-0.464578	99
Es	-0.776685	-1.270716	0.931485	99
Es	-0.147921	1.713574	0.062813	99
Es	-2.614726	-0.010371	-0.096493	99
Es	-2.678699	-0.360011	-0.682327	99
Es	0.862827	0.011100	1.460689	99
Es	-0.803931	0.649514	-0.051143	99
Es	2.160473	0.134539	-0.716219	99
Es	-0.392398	1.105572	0.419003	99
Es	-0.786099	1.304933	1.010804	99
Es	2.494453	0.347881	-0.234007	99
Es	-0.133956	-1.615533	-0.041444	99
Es	1.865385	0.060236	-0.074873	99
Es	1.288693	0.047053	0.315984	99
Es	-0.878724	0.082633	-1.180285	99
Es	-0.382606	-1.029308	0.353154	99
Es	0.216164	0.621161	0.605658	99
Es	-0.789833	-0.555807	-0.087208	99
Es	0.671905	0.031931	0.751347	99
Es	-2.642737	0.306376	-0.533804	99
41
Properties=species:S:1:pos:R:3:Z:I:1 energy=-306.7340968038715 field_type=dipole dipole="0.000000 0.000000 0.000000" charge=0
O	-2.545421	0.055761	-0.388417	8
C	-1.109871	0.061351	-0.464647	6
C	-0.392431	1.105651	0.419013	6
C	0.671869	0.031931	0.751453	6
C	-0.382651	-1.029369	0.353153	6
C	1.865600	0.060241	-0.075017	6
C	2.849909	0.083591	-0.762357	6
H	-2.821961	-0.706739	-0.925347	1
H	-0.781861	0.099761	-1.511377	1
H	-0.977261	1.428151	1.289163	1
H	-0.038081	1.997991	-0.106187	1
H	0.924379	0.000431	1.818363	1
H	-0.020741	-1.884359	-0.226177	1
H	-0.964411	-1.410079	1.201573	1
H	3.722929	0.105681	-1.373187	1
Es	0.216280	0.621378	0.605663	99
Es	-0.134057	-1.615524	-0.041414	99
Es	2.850105	0.083610	-0.762492	99
Es	-2.643436	0.305748	-0.533728	99
Es	2.455940	-0.257465	-0.310588	99
Es	-0.786039	1.304954	1.010773	99
Es	-2.545225	0.055506	-0.388533	99
Es	-1.110074	0.061344	-0.464579	99
Es	0.671903	0.031932	0.751348	99
Es	2.482829	0.363679	-0.250444	99
Es	0.862960	0.011089	1.460583	99
Es	-0.382606	-1.029308	0.353155	99
Es	1.865390	0.060235	-0.074870	99
Es	3.419532	0.097764	-1.160961	99
Es	2.158724	0.109311	-0.719557	99
Es	-0.803997	0.649501	-0.051115	99
Es	-2.678685	-0.360593	-0.681668	99
Es	-0.789879	-0.555892	-0.087250	99
Es	-0.878750	0.082691	-1.180236	99
Es	-2.005968	0.043865	-0.431305	99
Es	1.288556	0.047034	0.316077	99
Es	-0.776621	-1.270715	0.931479	99
Es	-2.614198	-0.009936	-0.096402	99
Es	-0.148023	1.713546	0.062836	99
Es	0.222164	-0.555054	0.570170	99
Es	-0.392398	1.105573	0.419003	99
41
Properties=species:S:1:pos:R:3:Z:I:1 energy=-306.7340968038715 field_type=dipole dipole="0.000000 0.000000 0.000000" charge=0
O	-2.545421	0.055761	-0.388417	8
C	-1.109871	0.061351	-0.464647	6
C	-0.392431	1.105651	0.419013	6
C	0.671869	0.031931	0.751453	6
C	-0.382651	-1.029369	0.353153	6
C	1.865600	0.060241	-0.075017	6
C	2.849909	0.083591	-0.762357	6
H	-2.821961	-0.706739	-0.925347	1
H	-0.781861	0.099761	-1.511377	1
H	-0.977261	1.428151	1.289163	1
H	-0.038081	1.997991	-0.106187	1
H	0.924379	0.000431	1.818363	1
H	-0.020741	-1.884359	-0.226177	1
H	-0.964411	-1.410079	1.201573	1
H	3.722929	0.105681	-1.373187	1
Es	0.216355	0.621551	0.605667	99
Es	0.671903	0.031932	0.751348	99
Es	-2.615520	-0.008434	-0.096331	99
Es	-0.804002	0.649530	-0.051051	99
Es	-0.786023	1.304992	1.010720	99
Es	2.850101	0.083593	-0.762496	99
Es	-2.545208	0.055592	-0.388725	99
Es	2.457757	0.390939	-0.286089	99
Es	-1.110079	0.061348	-0.464579	99
Es	0.222277	-0.555128	0.570213	99
Es	-0.134069	-1.615511	-0.041324	99
Es	2.158572	0.057862	-0.721511	99
Es	-0.878793	0.082768	-1.180173	99
Es	-0.789965	-0.556017	-0.087412	99
Es	-2.678643	-0.360936	-0.681328	99
Es	-0.776563	-1.270735	0.931377	99
Es	-0.148124	1.713495	0.062859	99
Es	-2.005698	0.043599	-0.430411	99
Es	3.419389	0.097647	-1.161140	99
Es	-0.382606	-1.029306	0.353154	99
Es	0.863067	0.011034	1.460491	99
Es	2.481293	-0.233198	-0.272806	99
Es	-0.392398	1.105571	0.419002	99
Es	-2.642441	0.304789	-0.534852	99
Es	1.865389	0.060235	-0.074871	99
Es	1.288458	0.047062	0.316212	99
41
Properties=species:S:1:pos:R:3:Z:I:1 energy=-306.7340968038715 field_type=dipole dipole="0.000000 0.000000 0.000000" charge=0
O	-2.545421	0.055761	-0.388417	8
C	-1.109871	0.061351	-0.464647	6
C	-0.392431	1.105651	0.419013	6
C	0.671869	0.031931	0.751453	6
C	-0.382651	-1.029369	0.353153	6
C	1.865600	0.060241	-0.075017	6
C	2.849909	0.083591	-0.762357	6
H	-2.821961	-0.706739	-0.925347	1
H	-0.781861	0.099761	-1.511377	1
H	-0.977261	1.428151	1.289163	1
H	-0.038081	1.997991	-0.106187	1
H	0.924379	0.000431	1.818363	1
H	-0.020741	-1.884359	-0.226177	1
H	-0.964411	-1.410079	1.201573	1
H	3.722929	0.105681	-1.373187	1
Es	-1.110074	0.061342	-0.464579	99
Es	-2.545226	0.055560	-0.388623	99
Es	1.865396	0.060232	-0.074876	99
Es	2.502253	0.336194	-0.223012	99
Es	-2.616663	-0.006676	-0.095945	99
Es	-0.878800	0.082783	-1.180150	99
Es	0.216409	0.621624	0.605711	99
Es	-0.785989	1.304943	1.010624	99
Es	-2.641130	0.303834	-0.536233	99
Es	2.433226	-0.272092	-0.344161	99
Es	2.850103	0.083591	-0.762513	99
Es	0.222356	-0.555282	0.570221	99
Es	-0.134141	-1.615470	-0.041289	99
Es	-0.382606	-1.029307	0.353154	99
Es	-0.789923	-0.556062	-0.087375	99
Es	0.671902	0.031932	0.751349	99
Es	-2.005546	0.043108	-0.429986	99
Es	3.419471	0.097834	-1.160920	99
Es	-0.148148	1.713557	0.062930	99
Es	-2.678949	-0.361212	-0.680868	99
Es	-0.776578	-1.270753	0.931366	99
Es	-0.804081	0.649533	-0.051160	99
Es	0.863120	0.011099	1.460389	99
Es	2.162060	0.151367	-0.713440	99
Es	1.288383	0.047026	0.316329	99
Es	-0.392397	1.105571	0.419001	99
41
Properties=species:S:1:pos:R:3:Z:I:1 energy=-306.7340968038715 field_type=dipole dipole="0.000000 0.000000 0.000000" charge=0
O	-2.545421	0.055761	-0.388417	8
C	-1.109871	0.061351	-0.464647	6
C	-0.392431	1.105651	0.419013	6
C	0.671869	0.031931	0.751453	6
C	-0.382651	-1.029369	0.353153	6
C	1.865600	0.060241	-0.075017	6
C	2.849909	0.083591	-0.762357	6
H	-2.821961	-0.706739	-0.925347	1
H	-0.781861	0.099761	-1.511377	1
H	-0.977261	1.428151	1.289163	1
H	-0.038081	1.997991	-0.106187	1
H	0.924379	0.000431	1.818363	1
H	-0.020741	-1.884359	-0.226177	1
H	-0.964411	-1.410079	1.201573	1
H	3.722929	0.105681	-1.373187	1
Es	2.166392	-0.016584	-0.713459	99
Es	0.863158	0.011096	1.460350	99
Es	1.288294	0.047147	0.316479	99
Es	0.216605	0.621674	0.605713	99
Es	-0.790030	-0.556061	-0.087404	99
Es	2.417389	0.418422	-0.343525	99
Es	2.513788	-0.186444	-0.223678	99
Es	-0.392398	1.105574	0.419002	99
Es	2.850103	0.083595	-0.762496	99
Es	-0.134216	-1.615383	-0.041263	99
Es	-0.804045	0.649721	-0.051216	99
Es	-0.148181	1.713443	0.062983	99
Es	0.671902	0.031932	0.751348	99
Es	-2.545188	0.055408	-0.388498	99
Es	-0.382607	-1.029309	0.353155	99
Es	-2.679522	-0.360530	-0.681596	99
Es	-0.776521	-1.270840	0.931309	99
Es	3.419456	0.097768	-1.160910	99
Es	-0.786006	1.305037	1.010585	99
Es	-2.005638	0.042637	-0.430369	99
Es	-2.643536	0.307275	-0.532980	99
Es	-1.110070	0.061344	-0.464578	99
Es	0.222401	-0.555325	0.570172	99
Es	-2.613671	-0.010222	-0.098252	99
Es	-0.878821	0.082665	-1.180056	99
Es	1.865391	0.060235	-0.074870	99
41
Properties=species:S:1:pos:R:3:Z:I:1 energy=-306.7340968038715 field_type=dipole dipole="0.000000 0.000000 0.000000" charge=0
O	-2.545421	0.055761	-0.388417	8
C	-1.109871	0.061351	-0.464647	6
C	-0.392431	1.105651	0.419013	6
C	0.671869	0.031931	0.751453	6
C	-0.382651	-1.029369	0.353153	6
C	1.865600	0.060241	-0.075017	6
C	2.849909	0.083591	-0.762357	6
H	-2.821961	-0.706739	-0.925347	1
H	-0.781861	0.099761	-1.511377	1
H	-0.977261	1.428151	1.289163	1
H	-0.038081	1.997991	-0.106187	1
H	0.924379	0.000431	1.818363	1
H	-0.020741	-1.884359	-0.226177	1
H	-0.964411	-1.410079	1.201573	1
H	3.722929	0.105681	-1.373187	1
Es	-0.148271	1.713398	0.063025	99
Es	-2.642765	0.305189	-0.534287	99
Es	-2.545220	0.055528	-0.388574	99
Es	-0.790019	-0.556173	-0.087431	99
Es	3.419484	0.097786	-1.160755	99
Es	-2.679118	-0.360921	-0.681282	99
Es	2.850101	0.083595	-0.762491	99
Es	-2.615136	-0.008688	-0.097335	99
Es	-0.134237	-1.615409	-0.041165	99
Es	1.287958	0.047146	0.316527	99
Es	1.865389	0.060237	-0.074871	99
Es	-0.804041	0.649786	-0.051329	99
Es	-0.776539	-1.270795	0.931243	99
Es	2.264433	0.386571	-0.562527	99
Es	-1.110078	0.061345	-0.464581	99
Es	-0.785979	1.305065	1.010542	99
Es	-2.005323	0.043472	-0.430201	99
Es	-0.392397	1.105573	0.419003	99
Es	2.263552	-0.231773	-0.585418	99
Es	0.222534	-0.555356	0.570247	99
Es	0.671904	0.031932	0.751349	99
Es	-0.382607	-1.029307	0.353155	99
Es	-0.878876	0.082596	-1.179999	99
Es	2.569770	0.060648	-0.132928	99
Es	0.863234	0.011108	1.460198	99
Es	0.216674	0.621721	0.605831	99
41
Properties=species:S:1:pos:R:3:Z:I:1 energy=-306.7340968038715 field_type=dipole dipole="0.000000 0.000000 0.000000" charge=0
O	-2.545421	0.055761	-0.388417	8
C	-1.109871	0.061351	-0.464647	6
C	-0.392431	1.105651	0.419013	6
C	0.671869	0.031931	0.751453	6
C	-0.382651	-1.029369	0.353153	6
C	1.865600	0.060241	-0.075017	6
C	2.849909	0.083591	-0.762357	6
H	-2.821961	-0.706739	-0.925347	1
H	-0.781861	0.099761	-1.511377	1
H	-0.977261	1.428151	1.289163	1
H	-0.038081	1.997991	-0.106187	1
H	0.924379	0.000431	1.818363	1
H	-0.020741	-1.884359	-0.226177	1
H	-0.964411	-1.410079	1.201573	1
H	3.722929	0.105681	-1.373187	1
Es	-1.110065	0.061344	-0.464577	99
Es	0.222552	-0.555491	0.570250	99
Es	-0.804124	0.649857	-0.051347	99
Es	-0.392398	1.105574	0.419002	99
Es	-2.643432	0.305609	-0.532964	99
Es	-2.679476	-0.360604	-0.681652	99
Es	-0.382607	-1.029309	0.353155	99
Es	-2.545242	0.055563	-0.388609	99
Es	2.248663	-0.214458	-0.605789	99
Es	-0.776511	-1.270772	0.931157	99
Es	2.279908	0.399519	-0.540314	99
Es	-2.614193	-0.009712	-0.097669	99
Es	3.419428	0.097772	-1.160783	99
Es	-0.790016	-0.556196	-0.087555	99
Es	1.865387	0.060240	-0.074873	99
Es	2.569255	0.030344	-0.134708	99
Es	0.216740	0.621774	0.605842	99
Es	-0.785935	1.305030	1.010467	99
Es	0.863251	0.011088	1.460172	99
Es	0.671900	0.031932	0.751349	99
Es	-0.134284	-1.615435	-0.041138	99
Es	-2.005227	0.043695	-0.430830	99
Es	2.850100	0.083609	-0.762506	99
Es	-0.148244	1.713438	0.063124	99
Es	-0.878898	0.082687	-1.179903	99
Es	1.287896	0.047176	0.316640	99
41
Properties=species:S:1:pos:R:3:Z:I:1 energy=-306.7340968038715 field_type=dipole dipole="0.000000 0.000000 0.000000" charge=0
O	-2.545421	0.055761	-0.388417	8
C	-1.109871	0.061351	-0.464647	6
C	-0.392431	1.105651	0.419013	6
C	0.671869	0.031931	0.751453	6
C	-0.382651	-1.029369	0.353153	6
C	1.865600	0.060241	-0.075017	6
C	2.849909	0.083591	-0.762357	6
H	-2.821961	-0.706739	-0.925347	1
H	-0.781861	0.099761	-1.511377	1
H	-0.977261	1.428151	1.289163	1
H	-0.038081	1.997991	-0.106187	1
H	0.924379	0.000431	1.818363	1
H	-0.020741	-1.884359	-0.226177	1
H	-0.964411	-1.410079	1.201573	1
H	3.722929	0.105681	-1.373187	1
Es	-0.790117	-0.556200	-0.087483	99
Es	2.159929	0.129505	-0.717231	99
Es	-2.642669	0.304908	-0.533060	99
Es	0.216840	0.621955	0.605754	99
Es	-2.679936	-0.360527	-0.681811	99
Es	2.445323	-0.265285	-0.326377	99
Es	-0.148298	1.713397	0.063212	99
Es	-0.392397	1.105572	0.419002	99
Es	-0.878868	0.082596	-1.179889	99
Es	0.863530	0.011147	1.460165	99
Es	-2.614708	-0.008969	-0.097476	99
Es	-0.382606	-1.029306	0.353154	99
Es	-0.785837	1.305080	1.010371	99
Es	2.850102	0.083591	-0.762496	99
Es	-0.134371	-1.615400	-0.041088	99
Es	3.419387	0.097769	-1.160875	99
Es	1.287934	0.046903	0.316695	99
Es	-2.545227	0.055534	-0.388584	99
Es	-0.776469	-1.270815	0.931049	99
Es	0.222612	-0.555574	0.570320	99
Es	1.865390	0.060234	-0.074871	99
Es	-1.110069	0.061344	-0.464578	99
Es	2.492352	0.351359	-0.237038	99
Es	0.671903	0.031933	0.751348	99
Es	-2.005049	0.043607	-0.430828	99
Es	-0.804253	0.649916	-0.051438	99
