42
Properties=species:S:1:pos:R:3:Z:I:1 energy=-343.7893495528418 field_type=dipole dipole="0.000000 0.000000 0.000000" charge=0
O	-2.028665	0.238814	-0.167193	8
C	-0.595055	0.079914	-0.356893	6
C	0.267226	1.032134	0.532137	6
C	1.172926	-0.162836	0.869367	6
C	0.022305	-1.097456	0.463627	6
C	-0.228905	0.087564	-1.901323	6
O	0.886635	-0.028316	-2.408823	8
H	-2.167544	0.222764	0.795997	1
H	-0.266665	1.442984	1.396857	1
H	0.766325	1.854034	0.010517	1
H	2.053725	-0.243296	0.222357	1
H	1.493816	-0.233256	1.911837	1
H	0.325866	-1.976336	-0.112673	1
H	-0.597085	-1.430566	1.304447	1
H	-1.104915	0.213854	-2.560243	1
Es	-0.111887	1.292090	1.118995	99
Es	-0.407501	0.083057	-1.127036	99
Es	-0.833467	0.174065	-2.333061	99
Es	-0.410126	-1.301380	1.035586	99
Es	0.267201	1.032071	0.532112	99
Es	-0.228884	0.087556	-1.901231	99
Es	-2.028399	0.238781	-0.166925	99
Es	0.600340	1.595236	0.176578	99
Es	0.771930	0.490781	0.736432	99
Es	-0.338655	-0.564753	-0.005115	99
Es	1.172841	-0.162826	0.869351	99
Es	0.867213	-0.015836	-2.714020	99
Es	0.514023	0.264319	-2.208572	99
Es	0.221659	-1.697682	0.070729	99
Es	0.634986	-0.698683	0.698172	99
Es	-0.595252	0.079935	-0.356930	99
Es	-0.201642	0.626006	0.033043	99
Es	-1.488028	0.177021	-0.226867	99
Es	-2.094332	0.524413	-0.259828	99
Es	0.886309	-0.028282	-2.408664	99
Es	1.760152	-0.216128	0.428376	99
Es	0.453970	-0.237551	-2.225548	99
Es	-2.080681	0.225547	0.352021	99
Es	1.116374	-0.063033	-2.199188	99
Es	1.390040	-0.210822	1.585861	99
Es	-2.164488	-0.013077	-0.286514	99
Es	0.022298	-1.097388	0.463605	99
42
Properties=species:S:1:pos:R:3:Z:I:1 energy=-343.7893495528418 field_type=dipole dipole="0.000000 0.000000 0.000000" charge=0
O	-2.028665	0.238814	-0.167193	8
C	-0.595055	0.079914	-0.356893	6
C	0.267226	1.032134	0.532137	6
C	1.172926	-0.162836	0.869367	6
C	0.022305	-1.097456	0.463627	6
C	-0.228905	0.087564	-1.901323	6
O	0.886635	-0.028316	-2.408823	8
H	-2.167544	0.222764	0.795997	1
H	-0.266665	1.442984	1.396857	1
H	0.766325	1.854034	0.010517	1
H	2.053725	-0.243296	0.222357	1
H	1.493816	-0.233256	1.911837	1
H	0.325866	-1.976336	-0.112673	1
H	-0.597085	-1.430566	1.304447	1
H	-1.104915	0.213854	-2.560243	1
Es	-2.028511	0.238791	-0.167009	99
Es	-0.201714	0.626107	0.033057	99
Es	-0.407503	0.083071	-1.126991	99
Es	-0.228885	0.087558	-1.901231	99
Es	-0.833497	0.173950	-2.333067	99
Es	0.635226	-0.698792	0.698244	99
Es	0.453076	-0.237637	-2.226812	99
Es	0.771893	0.490792	0.736454	99
Es	0.022299	-1.097389	0.463605	99
Es	-0.595255	0.079938	-0.356931	99
Es	1.390224	-0.210834	1.585762	99
Es	0.267204	1.032070	0.532110	99
Es	1.760024	-0.216121	0.428314	99
Es	-0.338776	-0.564836	-0.005254	99
Es	0.221475	-1.697687	0.070889	99
Es	-0.111801	1.292084	1.118973	99
Es	0.871454	-0.016326	-2.713985	99
Es	-1.487454	0.178494	-0.227421	99
Es	0.886293	-0.028279	-2.408664	99
Es	-2.080240	0.229081	0.352139	99
Es	0.513348	0.264229	-2.210586	99
Es	-2.100331	0.522470	-0.266319	99
Es	1.172841	-0.162826	0.869355	99
Es	-2.159378	-0.016133	-0.279526	99
Es	-0.410033	-1.301320	1.035548	99
Es	1.113721	-0.062247	-2.195949	99
Es	0.600291	1.595231	0.176655	99
42
Properties=species:S:1:pos:R:3:Z:I:1 energy=-343.7893495528418 field_type=dipole dipole="0.000000 0.000000 0.000000" charge=0
O	-2.028665	0.238814	-0.167193	8
C	-0.595055	0.079914	-0.356893	6
C	0.267226	1.032134	0.532137	6
C	1.172926	-0.162836	0.869367	6
C	0.022305	-1.097456	0.463627	6
C	-0.228905	0.087564	-1.901323	6
O	0.886635	-0.028316	-2.408823	8
H	-2.167544	0.222764	0.795997	1
H	-0.266665	1.442984	1.396857	1
H	0.766325	1.854034	0.010517	1
H	2.053725	-0.243296	0.222357	1
H	1.493816	-0.233256	1.911837	1
H	0.325866	-1.976336	-0.112673	1
H	-0.597085	-1.430566	1.304447	1
H	-1.104915	0.213854	-2.560243	1
Es	0.886408	-0.028296	-2.408697	99
Es	-2.097564	0.522882	-0.263890	99
Es	-0.407518	0.083186	-1.126971	99
Es	-2.081307	0.227541	0.352412	99
Es	-2.161152	-0.014161	-0.282776	99
Es	0.635148	-0.698849	0.698253	99
Es	0.600251	1.595127	0.176636	99
Es	-0.595254	0.079938	-0.356926	99
Es	-1.487496	0.177797	-0.226893	99
Es	-0.111793	1.292225	1.118873	99
Es	0.513686	0.264163	-2.209161	99
Es	0.022298	-1.097390	0.463606	99
Es	-0.833487	0.173983	-2.333098	99
Es	0.221546	-1.697610	0.070859	99
Es	-0.338707	-0.564926	-0.005243	99
Es	0.772050	0.490962	0.736565	99
Es	1.115523	-0.062652	-2.198166	99
Es	-2.028415	0.238677	-0.166936	99
Es	-0.410101	-1.301415	1.035499	99
Es	1.760140	-0.216143	0.428529	99
Es	-0.201765	0.625901	0.032973	99
Es	-0.228884	0.087559	-1.901231	99
Es	1.390077	-0.210792	1.585645	99
Es	0.267204	1.032072	0.532111	99
Es	1.172839	-0.162825	0.869356	99
Es	0.868447	-0.015936	-2.714056	99
Es	0.453820	-0.237581	-2.225909	99
42
Properties=species:S:1:pos:R:3:Z:I:1 energy=-343.7893495528418 field_type=dipole dipole="0.000000 0.000000 0.000000" charge=0
O	-2.028665	0.238814	-0.167193	8
C	-0.595055	0.079914	-0.356893	6
C	0.267226	1.032134	0.532137	6
C	1.172926	-0.162836	0.869367	6
C	0.022305	-1.097456	0.463627	6
C	-0.228905	0.087564	-1.901323	6
O	0.886635	-0.028316	-2.408823	8
H	-2.167544	0.222764	0.795997	1
H	-0.266665	1.442984	1.396857	1
H	0.766325	1.854034	0.010517	1
H	2.053725	-0.243296	0.222357	1
H	1.493816	-0.233256	1.911837	1
H	0.325866	-1.976336	-0.112673	1
H	-0.597085	-1.430566	1.304447	1
H	-1.104915	0.213854	-2.560243	1
Es	-0.201711	0.626174	0.032872	99
Es	0.453763	-0.238384	-2.226200	99
Es	-1.487621	0.177237	-0.227155	99
Es	0.221457	-1.697581	0.070875	99
Es	0.267205	1.032072	0.532111	99
Es	-2.028391	0.238655	-0.166898	99
Es	-2.081489	0.227172	0.352635	99
Es	0.513891	0.264145	-2.208320	99
Es	-0.407573	0.083074	-1.126794	99
Es	-0.111801	1.292158	1.118817	99
Es	-0.338807	-0.564936	-0.005248	99
Es	1.760065	-0.216138	0.428535	99
Es	1.116728	-0.062923	-2.199646	99
Es	1.172840	-0.162826	0.869356	99
Es	0.600203	1.595167	0.176762	99
Es	-0.595252	0.079937	-0.356930	99
Es	0.772046	0.490993	0.736620	99
Es	0.867145	-0.014878	-2.713190	99
Es	-0.228884	0.087557	-1.901231	99
Es	0.635328	-0.698870	0.698337	99
Es	0.886341	-0.028290	-2.408641	99
Es	0.022299	-1.097388	0.463605	99
Es	-0.410029	-1.301461	1.035395	99
Es	-2.161809	-0.013280	-0.283532	99
Es	-0.833455	0.174006	-2.333131	99
Es	-2.096663	0.522918	-0.263205	99
Es	1.390166	-0.210876	1.585564	99
42
Properties=species:S:1:pos:R:3:Z:I:1 energy=-343.7893495528418 field_type=dipole dipole="0.000000 0.000000 0.000000" charge=0
O	-2.028665	0.238814	-0.167193	8
C	-0.595055	0.079914	-0.356893	6
C	0.267226	1.032134	0.532137	6
C	1.172926	-0.162836	0.869367	6
C	0.022305	-1.097456	0.463627	6
C	-0.228905	0.087564	-1.901323	6
O	0.886635	-0.028316	-2.408823	8
H	-2.167544	0.222764	0.795997	1
H	-0.266665	1.442984	1.396857	1
H	0.766325	1.854034	0.010517	1
H	2.053725	-0.243296	0.222357	1
H	1.493816	-0.233256	1.911837	1
H	0.325866	-1.976336	-0.112673	1
H	-0.597085	-1.430566	1.304447	1
H	-1.104915	0.213854	-2.560243	1
Es	1.760053	-0.216173	0.428590	99
Es	0.221390	-1.697582	0.070952	99
Es	-2.099677	0.521559	-0.266016	99
Es	0.772230	0.491061	0.736693	99
Es	-0.111776	1.292158	1.118734	99
Es	0.635333	-0.699005	0.698384	99
Es	-0.833461	0.173977	-2.333153	99
Es	0.267205	1.032068	0.532109	99
Es	-0.338829	-0.564953	-0.005301	99
Es	0.600068	1.595174	0.176810	99
Es	-0.409962	-1.301447	1.035379	99
Es	-2.028407	0.238780	-0.166953	99
Es	0.886390	-0.028303	-2.408706	99
Es	0.512996	0.264734	-2.210203	99
Es	-0.201733	0.626271	0.032816	99
Es	1.112742	-0.061398	-2.196969	99
Es	-0.407597	0.083072	-1.126670	99
Es	1.172838	-0.162826	0.869356	99
Es	0.022298	-1.097388	0.463604	99
Es	-0.595255	0.079939	-0.356933	99
Es	0.454096	-0.238148	-2.225679	99
Es	0.871627	-0.017183	-2.714467	99
Es	-2.081603	0.228848	0.352504	99
Es	1.390199	-0.210880	1.585416	99
Es	-1.487016	0.178619	-0.227168	99
Es	-2.159270	-0.015095	-0.280535	99
Es	-0.228885	0.087559	-1.901231	99
42
Properties=species:S:1:pos:R:3:Z:I:1 energy=-343.7893495528418 field_type=dipole dipole="0.000000 0.000000 0.000000" charge=0
O	-2.028665	0.238814	-0.167193	8
C	-0.595055	0.079914	-0.356893	6
C	0.267226	1.032134	0.532137	6
C	1.172926	-0.162836	0.869367	6
C	0.022305	-1.097456	0.463627	6
C	-0.228905	0.087564	-1.901323	6
O	0.886635	-0.028316	-2.408823	8
H	-2.167544	0.222764	0.795997	1
H	-0.266665	1.442984	1.396857	1
H	0.766325	1.854034	0.010517	1
H	2.053725	-0.243296	0.222357	1
H	1.493816	-0.233256	1.911837	1
H	0.325866	-1.976336	-0.112673	1
H	-0.597085	-1.430566	1.304447	1
H	-1.104915	0.213854	-2.560243	1
Es	0.865101	-0.015542	-2.712784	99
Es	0.454096	-0.238049	-2.225107	99
Es	-1.487189	0.175985	-0.227967	99
Es	0.022299	-1.097389	0.463605	99
Es	-0.201789	0.626365	0.032714	99
Es	0.221339	-1.697556	0.071016	99
Es	0.600022	1.595109	0.176879	99
Es	-2.162785	-0.011624	-0.283698	99
Es	1.390260	-0.210866	1.585329	99
Es	0.514132	0.264491	-2.208305	99
Es	1.118187	-0.062894	-2.201132	99
Es	0.772290	0.491096	0.736803	99
Es	0.635419	-0.699021	0.698528	99
Es	0.886332	-0.028286	-2.408682	99
Es	-0.410008	-1.301449	1.035279	99
Es	-0.833456	0.173975	-2.333191	99
Es	-0.595249	0.079937	-0.356928	99
Es	-2.095921	0.522772	-0.262298	99
Es	-0.338797	-0.564975	-0.005352	99
Es	-0.228885	0.087559	-1.901231	99
Es	1.172839	-0.162826	0.869355	99
Es	1.760019	-0.216198	0.428590	99
Es	0.267204	1.032073	0.532111	99
Es	-0.111732	1.292229	1.118633	99
Es	-0.407604	0.082984	-1.126579	99
Es	-2.081740	0.226834	0.352694	99
Es	-2.028393	0.238704	-0.166921	99
42
Properties=species:S:1:pos:R:3:Z:I:1 energy=-343.7893495528418 field_type=dipole dipole="0.000000 0.000000 0.000000" charge=0
O	-2.028665	0.238814	-0.167193	8
C	-0.595055	0.079914	-0.356893	6
C	0.267226	1.032134	0.532137	6
C	1.172926	-0.162836	0.869367	6
C	0.022305	-1.097456	0.463627	6
C	-0.228905	0.087564	-1.901323	6
O	0.886635	-0.028316	-2.408823	8
H	-2.167544	0.222764	0.795997	1
H	-0.266665	1.442984	1.396857	1
H	0.766325	1.854034	0.010517	1
H	2.053725	-0.243296	0.222357	1
H	1.493816	-0.233256	1.911837	1
H	0.325866	-1.976336	-0.112673	1
H	-0.597085	-1.430566	1.304447	1
H	-1.104915	0.213854	-2.560243	1
Es	-2.099348	0.520885	-0.264139	99
Es	-0.201807	0.626343	0.032761	99
Es	-0.228887	0.087557	-1.901229	99
Es	0.221299	-1.697518	0.071022	99
Es	0.870058	-0.015868	-2.712669	99
Es	0.022300	-1.097388	0.463605	99
Es	-0.407610	0.083027	-1.126550	99
Es	1.390248	-0.210791	1.585225	99
Es	0.886416	-0.028298	-2.408707	99
Es	-0.111671	1.292233	1.118571	99
Es	1.760027	-0.216124	0.428762	99
Es	0.453390	-0.238237	-2.227251	99
Es	0.267205	1.032073	0.532111	99
Es	-0.833435	0.173993	-2.333210	99
Es	1.115073	-0.062310	-2.197182	99
Es	0.600003	1.595101	0.176930	99
Es	-0.595241	0.079937	-0.356922	99
Es	0.635534	-0.699281	0.698571	99
Es	-2.081674	0.227881	0.352606	99
Es	-2.160006	-0.014314	-0.281806	99
Es	0.512891	0.264392	-2.210207	99
Es	-1.486566	0.179522	-0.227931	99
Es	0.772261	0.491135	0.736794	99
Es	-0.409949	-1.301506	1.035210	99
Es	1.172837	-0.162825	0.869355	99
Es	-0.338927	-0.564951	-0.005427	99
Es	-2.028427	0.238770	-0.166931	99
42
Properties=species:S:1:pos:R:3:Z:I:1 energy=-343.7893495528418 field_type=dipole dipole="0.000000 0.000000 0.000000" charge=0
O	-2.028665	0.238814	-0.167193	8
C	-0.595055	0.079914	-0.356893	6
C	0.267226	1.032134	0.532137	6
C	1.172926	-0.162836	0.869367	6
C	0.022305	-1.097456	0.463627	6
C	-0.228905	0.087564	-1.901323	6
O	0.886635	-0.028316	-2.408823	8
H	-2.167544	0.222764	0.795997	1
H	-0.266665	1.442984	1.396857	1
H	0.766325	1.854034	0.010517	1
H	2.053725	-0.243296	0.222357	1
H	1.493816	-0.233256	1.911837	1
H	0.325866	-1.976336	-0.112673	1
H	-0.597085	-1.430566	1.304447	1
H	-1.104915	0.213854	-2.560243	1
Es	-0.201772	0.626355	0.032729	99
Es	0.453323	-0.238472	-2.226177	99
Es	-0.833411	0.173968	-2.333272	99
Es	-2.028385	0.238667	-0.166920	99
Es	1.390288	-0.210833	1.585173	99
Es	0.886392	-0.028282	-2.408689	99
Es	0.267205	1.032073	0.532111	99
Es	0.635531	-0.699240	0.698575	99
Es	1.759971	-0.216176	0.428795	99
Es	-0.595247	0.079938	-0.356927	99
Es	-0.228884	0.087558	-1.901232	99
Es	0.022300	-1.097388	0.463604	99
Es	0.514152	0.264793	-2.208704	99
Es	-2.161043	-0.012750	-0.283173	99
Es	0.772505	0.491221	0.736814	99
Es	-0.338919	-0.565078	-0.005530	99
Es	1.116287	-0.063060	-2.199871	99
Es	-0.111699	1.292183	1.118558	99
Es	1.172839	-0.162826	0.869356	99
Es	-0.407666	0.083038	-1.126458	99
Es	-2.097807	0.522050	-0.262957	99
Es	-1.486710	0.178133	-0.227656	99
Es	0.599890	1.595148	0.176952	99
Es	0.221236	-1.697455	0.071147	99
Es	0.867676	-0.015237	-2.712549	99
Es	-2.082087	0.226637	0.352501	99
Es	-0.409970	-1.301529	1.035160	99
42
Properties=species:S:1:pos:R:3:Z:I:1 energy=-343.7893495528418 field_type=dipole dipole="0.000000 0.000000 0.000000" charge=0
O	-2.028665	0.238814	-0.167193	8
C	-0.595055	0.079914	-0.356893	6
C	0.267226	1.032134	0.532137	6
C	1.172926	-0.162836	0.869367	6
C	0.022305	-1.097456	0.463627	6
C	-0.228905	0.087564	-1.901323	6
O	0.886635	-0.028316	-2.408823	8
H	-2.167544	0.222764	0.795997	1
H	-0.266665	1.442984	1.396857	1
H	0.766325	1.854034	0.010517	1
H	2.053725	-0.243296	0.222357	1
H	1.493816	-0.233256	1.911837	1
H	0.325866	-1.976336	-0.112673	1
H	-0.597085	-1.430566	1.304447	1
H	-1.104915	0.213854	-2.560243	1
Es	-0.409935	-1.301544	1.035112	99
Es	0.772435	0.491354	0.737022	99
Es	0.267206	1.032068	0.532109	99
Es	1.172839	-0.162826	0.869355	99
Es	0.514991	0.264735	-2.207284	99
Es	-0.338880	-0.565054	-0.005488	99
Es	0.453744	-0.238022	-2.225080	99
Es	-0.407672	0.083038	-1.126369	99
Es	-1.486583	0.178121	-0.227866	99
Es	0.886242	-0.028285	-2.408746	99
Es	-0.201826	0.626360	0.032622	99
Es	-2.028426	0.238826	-0.166951	99
Es	0.635626	-0.699410	0.698636	99
Es	-0.228886	0.087560	-1.901231	99
Es	-2.082189	0.227708	0.352737	99
Es	1.390390	-0.210880	1.585046	99
Es	-0.833425	0.173962	-2.333260	99
Es	-2.159442	-0.013271	-0.281025	99
Es	0.599896	1.595074	0.176951	99
Es	1.759897	-0.216122	0.428832	99
Es	-0.111663	1.292284	1.118443	99
Es	-2.099415	0.521330	-0.265097	99
Es	1.117333	-0.063725	-2.201850	99
Es	0.221181	-1.697443	0.071133	99
Es	-0.595247	0.079938	-0.356926	99
Es	0.865501	-0.014953	-2.713068	99
Es	0.022300	-1.097388	0.463605	99
42
Properties=species:S:1:pos:R:3:Z:I:1 energy=-343.7893495528418 field_type=dipole dipole="0.000000 0.000000 0.000000" charge=0
O	-2.028665	0.238814	-0.167193	8
C	-0.595055	0.079914	-0.356893	6
C	0.267226	1.032134	0.532137	6
C	1.172926	-0.162836	0.869367	6
C	0.022305	-1.097456	0.463627	6
C	-0.228905	0.087564	-1.901323	6
O	0.886635	-0.028316	-2.408823	8
H	-2.167544	0.222764	0.795997	1
H	-0.266665	1.442984	1.396857	1
H	0.766325	1.854034	0.010517	1
H	2.053725	-0.243296	0.222357	1
H	1.493816	-0.233256	1.911837	1
H	0.325866	-1.976336	-0.112673	1
H	-0.597085	-1.430566	1.304447	1
H	-1.104915	0.213854	-2.560243	1
Es	1.390343	-0.210907	1.585022	99
Es	1.116148	-0.062907	-2.199773	99
Es	-0.595244	0.079937	-0.356926	99
Es	0.022302	-1.097383	0.463601	99
Es	-0.228886	0.087558	-1.901231	99
Es	1.172840	-0.162826	0.869355	99
Es	1.759917	-0.216099	0.428915	99
Es	0.772549	0.491312	0.737018	99
Es	-0.201865	0.626415	0.032757	99
Es	-0.407634	0.083137	-1.126291	99
Es	-0.111634	1.292294	1.118404	99
Es	0.453474	-0.237949	-2.225677	99
Es	-0.338862	-0.565214	-0.005679	99
Es	-2.097645	0.521503	-0.263163	99
Es	0.267205	1.032074	0.532114	99
Es	-2.082245	0.227236	0.352658	99
Es	0.635640	-0.699333	0.698714	99
Es	0.886380	-0.028287	-2.408708	99
Es	-0.833425	0.173955	-2.333298	99
Es	0.599834	1.595059	0.176987	99
Es	-2.161113	-0.012450	-0.282580	99
Es	-2.028542	0.238800	-0.167074	99
Es	-1.486518	0.177605	-0.228081	99
Es	0.867654	-0.015828	-2.712880	99
Es	0.221200	-1.697560	0.071235	99
Es	0.514131	0.264720	-2.208997	99
Es	-0.410010	-1.301424	1.034940	99
42
Properties=species:S:1:pos:R:3:Z:I:1 energy=-343.7893495528418 field_type=dipole dipole="0.000000 0.000000 0.000000" charge=0
O	-2.028665	0.238814	-0.167193	8
C	-0.595055	0.079914	-0.356893	6
C	0.267226	1.032134	0.532137	6
C	1.172926	-0.162836	0.869367	6
C	0.022305	-1.097456	0.463627	6
C	-0.228905	0.087564	-1.901323	6
O	0.886635	-0.028316	-2.408823	8
H	-2.167544	0.222764	0.795997	1
H	-0.266665	1.442984	1.396857	1
H	0.766325	1.854034	0.010517	1
H	2.053725	-0.243296	0.222357	1
H	1.493816	-0.233256	1.911837	1
H	0.325866	-1.976336	-0.112673	1
H	-0.597085	-1.430566	1.304447	1
H	-1.104915	0.213854	-2.560243	1
Es	-2.082427	0.227175	0.352816	99
Es	-2.098627	0.520948	-0.263687	99
Es	0.886429	-0.028297	-2.408725	99
Es	-0.407692	0.083109	-1.126201	99
Es	1.172836	-0.162825	0.869354	99
Es	0.861321	-0.013770	-2.712082	99
Es	0.514397	0.263763	-2.205915	99
Es	1.759918	-0.216152	0.428992	99
Es	-0.228886	0.087560	-1.901230	99
Es	1.120501	-0.062690	-2.204952	99
Es	-0.201935	0.626601	0.032526	99
Es	-0.833386	0.174036	-2.333333	99
Es	1.390352	-0.210807	1.584916	99
Es	-0.409928	-1.301546	1.034975	99
Es	0.772605	0.491298	0.736915	99
Es	0.455114	-0.239404	-2.224362	99
Es	0.022301	-1.097389	0.463605	99
Es	-2.028417	0.238811	-0.166940	99
Es	-0.595245	0.079937	-0.356926	99
Es	0.599823	1.595128	0.177116	99
Es	-0.111566	1.292193	1.118391	99
Es	-1.486354	0.178404	-0.228229	99
Es	0.221058	-1.697409	0.071240	99
Es	0.267207	1.032073	0.532109	99
Es	-0.338890	-0.565124	-0.005558	99
Es	0.635741	-0.699556	0.698744	99
Es	-2.160256	-0.012630	-0.282197	99
42
Properties=species:S:1:pos:R:3:Z:I:1 energy=-343.7893495528418 field_type=dipole dipole="0.000000 0.000000 0.000000" charge=0
O	-2.028665	0.238814	-0.167193	8
C	-0.595055	0.079914	-0.356893	6
C	0.267226	1.032134	0.532137	6
C	1.172926	-0.162836	0.869367	6
C	0.022305	-1.097456	0.463627	6
C	-0.228905	0.087564	-1.901323	6
O	0.886635	-0.028316	-2.408823	8
H	-2.167544	0.222764	0.795997	1
H	-0.266665	1.442984	1.396857	1
H	0.766325	1.854034	0.010517	1
H	2.053725	-0.243296	0.222357	1
H	1.493816	-0.233256	1.911837	1
H	0.325866	-1.976336	-0.112673	1
H	-0.597085	-1.430566	1.304447	1
H	-1.104915	0.213854	-2.560243	1
Es	1.390426	-0.210819	1.584757	99
Es	-1.486135	0.178542	-0.228215	99
Es	0.865441	-0.015358	-2.712806	99
Es	-0.228886	0.087557	-1.901230	99
Es	0.221030	-1.697394	0.071334	99
Es	-0.833398	0.173986	-2.333348	99
Es	-0.409879	-1.301545	1.034931	99
Es	0.267206	1.032069	0.532110	99
Es	1.172838	-0.162826	0.869355	99
Es	-0.338978	-0.565167	-0.005711	99
Es	0.514726	0.264723	-2.207848	99
Es	0.599783	1.594998	0.177120	99
Es	-2.160342	-0.012277	-0.282506	99
Es	0.453698	-0.237818	-2.225087	99
Es	1.759873	-0.216171	0.429026	99
Es	-0.111515	1.292343	1.118281	99
Es	-0.595244	0.079937	-0.356923	99
Es	-2.098549	0.520875	-0.263270	99
Es	-2.028444	0.238726	-0.166957	99
Es	0.022300	-1.097389	0.463605	99
Es	1.117550	-0.063524	-2.201616	99
Es	-0.407689	0.083046	-1.126147	99
Es	0.772756	0.491442	0.737133	99
Es	0.886342	-0.028285	-2.408686	99
Es	-0.201967	0.626543	0.032548	99
Es	0.635685	-0.699614	0.698801	99
Es	-2.082635	0.226838	0.352710	99
42
Properties=species:S:1:pos:R:3:Z:I:1 energy=-343.7893495528418 field_type=dipole dipole="0.000000 0.000000 0.000000" charge=0
O	-2.028665	0.238814	-0.167193	8
C	-0.595055	0.079914	-0.356893	6
C	0.267226	1.032134	0.532137	6
C	1.172926	-0.162836	0.869367	6
C	0.022305	-1.097456	0.463627	6
C	-0.228905	0.087564	-1.901323	6
O	0.886635	-0.028316	-2.408823	8
H	-2.167544	0.222764	0.795997	1
H	-0.266665	1.442984	1.396857	1
H	0.766325	1.854034	0.010517	1
H	2.053725	-0.243296	0.222357	1
H	1.493816	-0.233256	1.911837	1
H	0.325866	-1.976336	-0.112673	1
H	-0.597085	-1.430566	1.304447	1
H	-1.104915	0.213854	-2.560243	1
Es	-0.339028	-0.565277	-0.005735	99
Es	0.635842	-0.699609	0.698774	99
Es	0.022301	-1.097387	0.463604	99
Es	1.390411	-0.210836	1.584760	99
Es	-0.201885	0.626579	0.032427	99
Es	0.866703	-0.015596	-2.713003	99
Es	-0.833403	0.173984	-2.333376	99
Es	0.514071	0.264514	-2.208279	99
Es	-0.409847	-1.301571	1.034890	99
Es	0.221016	-1.697375	0.071362	99
Es	0.886333	-0.028284	-2.408667	99
Es	0.772768	0.491506	0.737107	99
Es	0.453984	-0.238154	-2.225260	99
Es	-0.111580	1.292337	1.118261	99
Es	0.599698	1.594979	0.177207	99
Es	0.267207	1.032072	0.532111	99
Es	1.116648	-0.062780	-2.200834	99
Es	-2.082593	0.227725	0.352845	99
Es	-2.158085	-0.012688	-0.279663	99
Es	1.172835	-0.162826	0.869355	99
Es	-0.407713	0.083087	-1.126061	99
Es	-1.486201	0.178227	-0.228217	99
Es	-2.028398	0.238662	-0.166946	99
Es	1.759860	-0.216146	0.429106	99
Es	-0.228885	0.087564	-1.901231	99
Es	-2.100825	0.520795	-0.266252	99
Es	-0.595241	0.079937	-0.356923	99
42
Properties=species:S:1:pos:R:3:Z:I:1 energy=-343.7893495528418 field_type=dipole dipole="0.000000 0.000000 0.000000" charge=0
O	-2.028665	0.238814	-0.167193	8
C	-0.595055	0.079914	-0.356893	6
C	0.267226	1.032134	0.532137	6
C	1.172926	-0.162836	0.869367	6
C	0.022305	-1.097456	0.463627	6
C	-0.228905	0.087564	-1.901323	6
O	0.886635	-0.028316	-2.408823	8
H	-2.167544	0.222764	0.795997	1
H	-0.266665	1.442984	1.396857	1
H	0.766325	1.854034	0.010517	1
H	2.053725	-0.243296	0.222357	1
H	1.493816	-0.233256	1.911837	1
H	0.325866	-1.976336	-0.112673	1
H	-0.597085	-1.430566	1.304447	1
H	-1.104915	0.213854	-2.560243	1
Es	-0.201885	0.626701	0.032410	99
Es	0.267207	1.032071	0.532110	99
Es	1.172837	-0.162825	0.869355	99
Es	0.453847	-0.237872	-2.225136	99
Es	0.599595	1.595068	0.177274	99
Es	0.220944	-1.697328	0.071339	99
Es	-2.160444	-0.012350	-0.281955	99
Es	-0.833391	0.173956	-2.333368	99
Es	1.390434	-0.210819	1.584707	99
Es	0.513910	0.264765	-2.209114	99
Es	0.772917	0.491536	0.737014	99
Es	1.759818	-0.216148	0.429196	99
Es	1.116398	-0.062526	-2.200249	99
Es	-1.486180	0.178196	-0.228524	99
Es	-2.082605	0.227797	0.352982	99
Es	-0.409853	-1.301615	1.034839	99
Es	-0.111536	1.292225	1.118258	99
Es	-0.407715	0.082962	-1.125984	99
Es	-0.228888	0.087553	-1.901234	99
Es	0.886355	-0.028291	-2.408669	99
Es	-2.098478	0.520246	-0.263857	99
Es	-0.339043	-0.565223	-0.005687	99
Es	0.635891	-0.699716	0.698802	99
Es	-0.595243	0.079936	-0.356922	99
Es	0.022301	-1.097387	0.463604	99
Es	0.867209	-0.016314	-2.712905	99
Es	-2.028409	0.238840	-0.166924	99
42
Properties=species:S:1:pos:R:3:Z:I:1 energy=-343.7893495528418 field_type=dipole dipole="0.000000 0.000000 0.000000" charge=0
O	-2.028665	0.238814	-0.167193	8
C	-0.595055	0.079914	-0.356893	6
C	0.267226	1.032134	0.532137	6
C	1.172926	-0.162836	0.869367	6
C	0.022305	-1.097456	0.463627	6
C	-0.228905	0.087564	-1.901323	6
O	0.886635	-0.028316	-2.408823	8
H	-2.167544	0.222764	0.795997	1
H	-0.266665	1.442984	1.396857	1
H	0.766325	1.854034	0.010517	1
H	2.053725	-0.243296	0.222357	1
H	1.493816	-0.233256	1.911837	1
H	0.325866	-1.976336	-0.112673	1
H	-0.597085	-1.430566	1.304447	1
H	-1.104915	0.213854	-2.560243	1
Es	1.759830	-0.216095	0.429250	99
Es	0.220941	-1.697322	0.071472	99
Es	-0.409832	-1.301592	1.034796	99
Es	-2.028397	0.238774	-0.166949	99
Es	-2.162159	-0.011262	-0.283135	99
Es	0.772886	0.491383	0.737060	99
Es	-0.201997	0.626880	0.032387	99
Es	0.267207	1.032073	0.532110	99
Es	-1.486083	0.177109	-0.228658	99
Es	0.022302	-1.097390	0.463604	99
Es	0.869842	-0.015676	-2.713262	99
Es	-0.111439	1.292344	1.118186	99
Es	0.886351	-0.028291	-2.408568	99
Es	-0.339056	-0.565287	-0.005826	99
Es	0.635934	-0.699803	0.698814	99
Es	-0.595240	0.079936	-0.356922	99
Es	-2.096767	0.520502	-0.262397	99
Es	0.453359	-0.237552	-2.226852	99
Es	-2.082718	0.227592	0.352866	99
Es	0.513652	0.264573	-2.208980	99
Es	0.599638	1.594968	0.177290	99
Es	-0.228885	0.087561	-1.901230	99
Es	1.172840	-0.162826	0.869356	99
Es	1.114496	-0.063303	-2.198424	99
Es	1.390423	-0.210778	1.584658	99
Es	-0.407760	0.082944	-1.125887	99
Es	-0.833375	0.173977	-2.333398	99
42
Properties=species:S:1:pos:R:3:Z:I:1 energy=-343.7893495528418 field_type=dipole dipole="0.000000 0.000000 0.000000" charge=0
O	-2.028665	0.238814	-0.167193	8
C	-0.595055	0.079914	-0.356893	6
C	0.267226	1.032134	0.532137	6
C	1.172926	-0.162836	0.869367	6
C	0.022305	-1.097456	0.463627	6
C	-0.228905	0.087564	-1.901323	6
O	0.886635	-0.028316	-2.408823	8
H	-2.167544	0.222764	0.795997	1
H	-0.266665	1.442984	1.396857	1
H	0.766325	1.854034	0.010517	1
H	2.053725	-0.243296	0.222357	1
H	1.493816	-0.233256	1.911837	1
H	0.325866	-1.976336	-0.112673	1
H	-0.597085	-1.430566	1.304447	1
H	-1.104915	0.213854	-2.560243	1
Es	0.267207	1.032070	0.532110	99
Es	0.867601	-0.016200	-2.712623	99
Es	0.599532	1.594985	0.177319	99
Es	-0.339084	-0.565334	-0.005856	99
Es	-0.228890	0.087565	-1.901223	99
Es	-0.409794	-1.301599	1.034732	99
Es	1.759746	-0.216116	0.429319	99
Es	-0.201943	0.626751	0.032372	99
Es	0.453662	-0.237922	-2.225463	99
Es	0.886315	-0.028283	-2.408667	99
Es	1.116167	-0.062772	-2.200262	99
Es	-2.160743	-0.011526	-0.282325	99
Es	-0.833352	0.173962	-2.333433	99
Es	1.172844	-0.162825	0.869353	99
Es	0.513955	0.264925	-2.209069	99
Es	-1.485900	0.177776	-0.228560	99
Es	-2.083106	0.227527	0.352951	99
Es	0.635990	-0.699852	0.698841	99
Es	0.022298	-1.097393	0.463608	99
Es	0.773012	0.491602	0.737184	99
Es	-0.595239	0.079936	-0.356921	99
Es	-0.407778	0.083048	-1.125819	99
Es	0.220890	-1.697323	0.071461	99
Es	1.390487	-0.210836	1.584592	99
Es	-2.097974	0.520142	-0.263407	99
Es	-2.028414	0.238801	-0.166943	99
Es	-0.111494	1.292328	1.118089	99
42
Properties=species:S:1:pos:R:3:Z:I:1 energy=-343.7893495528418 field_type=dipole dipole="0.000000 0.000000 0.000000" charge=0
O	-2.028665	0.238814	-0.167193	8
C	-0.595055	0.079914	-0.356893	6
C	0.267226	1.032134	0.532137	6
C	1.172926	-0.162836	0.869367	6
C	0.022305	-1.097456	0.463627	6
C	-0.228905	0.087564	-1.901323	6
O	0.886635	-0.028316	-2.408823	8
H	-2.167544	0.222764	0.795997	1
H	-0.266665	1.442984	1.396857	1
H	0.766325	1.854034	0.010517	1
H	2.053725	-0.243296	0.222357	1
H	1.493816	-0.233256	1.911837	1
H	0.325866	-1.976336	-0.112673	1
H	-0.597085	-1.430566	1.304447	1
H	-1.104915	0.213854	-2.560243	1
Es	-1.485632	0.180469	-0.228584	99
Es	-0.111472	1.292317	1.118059	99
Es	0.513868	0.264735	-2.208495	99
Es	0.636056	-0.699872	0.698897	99
Es	-0.595239	0.079936	-0.356921	99
Es	-0.228886	0.087559	-1.901230	99
Es	0.220846	-1.697287	0.071524	99
Es	-0.339119	-0.565401	-0.005895	99
Es	-0.833339	0.173974	-2.333461	99
Es	-0.407796	0.083056	-1.125753	99
Es	-0.409783	-1.301624	1.034675	99
Es	-2.104033	0.517948	-0.269517	99
Es	-2.082554	0.230884	0.352926	99
Es	1.116363	-0.062789	-2.200726	99
Es	-2.155430	-0.015346	-0.276078	99
Es	0.886278	-0.028277	-2.408724	99
Es	0.867264	-0.015744	-2.712572	99
Es	-2.028499	0.238788	-0.167041	99
Es	0.022302	-1.097387	0.463604	99
Es	0.773081	0.491672	0.737206	99
Es	0.267208	1.032069	0.532109	99
Es	0.453905	-0.238195	-2.225555	99
Es	0.599478	1.594989	0.177363	99
Es	1.172836	-0.162825	0.869355	99
Es	1.390464	-0.210836	1.584510	99
Es	1.759771	-0.216142	0.429367	99
Es	-0.201945	0.626768	0.032319	99
42
Properties=species:S:1:pos:R:3:Z:I:1 energy=-343.7893495528418 field_type=dipole dipole="0.000000 0.000000 0.000000" charge=0
O	-2.028665	0.238814	-0.167193	8
C	-0.595055	0.079914	-0.356893	6
C	0.267226	1.032134	0.532137	6
C	1.172926	-0.162836	0.869367	6
C	0.022305	-1.097456	0.463627	6
C	-0.228905	0.087564	-1.901323	6
O	0.886635	-0.028316	-2.408823	8
H	-2.167544	0.222764	0.795997	1
H	-0.266665	1.442984	1.396857	1
H	0.766325	1.854034	0.010517	1
H	2.053725	-0.243296	0.222357	1
H	1.493816	-0.233256	1.911837	1
H	0.325866	-1.976336	-0.112673	1
H	-0.597085	-1.430566	1.304447	1
H	-1.104915	0.213854	-2.560243	1
Es	0.886346	-0.028290	-2.408677	99
Es	-0.339168	-0.565452	-0.005918	99
Es	-0.409755	-1.301651	1.034630	99
Es	0.599438	1.594955	0.177397	99
Es	0.453291	-0.237873	-2.224319	99
Es	-0.595241	0.079936	-0.356921	99
Es	-0.407789	0.083036	-1.125684	99
Es	0.267208	1.032070	0.532109	99
Es	-0.201951	0.626798	0.032301	99
Es	0.636127	-0.699887	0.698898	99
Es	-0.228887	0.087558	-1.901230	99
Es	0.220813	-1.697261	0.071539	99
Es	0.868258	-0.017279	-2.712788	99
Es	-2.161487	-0.011070	-0.282387	99
Es	-0.833353	0.173915	-2.333473	99
Es	-1.485660	0.178285	-0.229912	99
Es	0.773115	0.491698	0.737327	99
Es	0.514266	0.265105	-2.210332	99
Es	1.390490	-0.210880	1.584460	99
Es	1.115513	-0.061848	-2.199964	99
Es	1.172835	-0.162825	0.869355	99
Es	-2.082443	0.227293	0.353130	99
Es	1.759750	-0.216100	0.429384	99
Es	0.022304	-1.097385	0.463602	99
Es	-2.028437	0.238767	-0.166971	99
Es	-2.098126	0.519468	-0.262179	99
Es	-0.111463	1.292352	1.117984	99
42
Properties=species:S:1:pos:R:3:Z:I:1 energy=-343.7893495528418 field_type=dipole dipole="0.000000 0.000000 0.000000" charge=0
O	-2.028665	0.238814	-0.167193	8
C	-0.595055	0.079914	-0.356893	6
C	0.267226	1.032134	0.532137	6
C	1.172926	-0.162836	0.869367	6
C	0.022305	-1.097456	0.463627	6
C	-0.228905	0.087564	-1.901323	6
O	0.886635	-0.028316	-2.408823	8
H	-2.167544	0.222764	0.795997	1
H	-0.266665	1.442984	1.396857	1
H	0.766325	1.854034	0.010517	1
H	2.053725	-0.243296	0.222357	1
H	1.493816	-0.233256	1.911837	1
H	0.325866	-1.976336	-0.112673	1
H	-0.597085	-1.430566	1.304447	1
H	-1.104915	0.213854	-2.560243	1
Es	0.636152	-0.699952	0.698952	99
Es	-0.228887	0.087559	-1.901230	99
Es	0.454404	-0.238754	-2.224719	99
Es	0.220774	-1.697216	0.071607	99
Es	-0.407822	0.083042	-1.125613	99
Es	1.117717	-0.062218	-2.202382	99
Es	1.390450	-0.210846	1.584400	99
Es	0.513777	0.264930	-2.208390	99
Es	-0.339187	-0.565429	-0.005989	99
Es	-0.409719	-1.301687	1.034572	99
Es	0.886443	-0.028310	-2.408747	99
Es	0.599375	1.594936	0.177425	99
Es	-0.111463	1.292370	1.117949	99
Es	-0.595237	0.079936	-0.356919	99
Es	-2.160379	-0.011251	-0.281867	99
Es	-2.028430	0.238768	-0.166962	99
Es	-2.098541	0.519506	-0.263458	99
Es	0.267208	1.032070	0.532109	99
Es	1.759770	-0.216155	0.429472	99
Es	-2.083252	0.227569	0.353031	99
Es	-1.485562	0.178093	-0.229071	99
Es	-0.833326	0.173960	-2.333490	99
Es	0.773244	0.491751	0.737305	99
Es	1.172833	-0.162825	0.869356	99
Es	-0.201956	0.626876	0.032268	99
Es	0.022303	-1.097383	0.463604	99
Es	0.865305	-0.015903	-2.711852	99
42
Properties=species:S:1:pos:R:3:Z:I:1 energy=-343.7893495528418 field_type=dipole dipole="0.000000 0.000000 0.000000" charge=0
O	-2.028665	0.238814	-0.167193	8
C	-0.595055	0.079914	-0.356893	6
C	0.267226	1.032134	0.532137	6
C	1.172926	-0.162836	0.869367	6
C	0.022305	-1.097456	0.463627	6
C	-0.228905	0.087564	-1.901323	6
O	0.886635	-0.028316	-2.408823	8
H	-2.167544	0.222764	0.795997	1
H	-0.266665	1.442984	1.396857	1
H	0.766325	1.854034	0.010517	1
H	2.053725	-0.243296	0.222357	1
H	1.493816	-0.233256	1.911837	1
H	0.325866	-1.976336	-0.112673	1
H	-0.597085	-1.430566	1.304447	1
H	-1.104915	0.213854	-2.560243	1
Es	0.636197	-0.700056	0.698994	99
Es	-0.201961	0.626798	0.032125	99
Es	-2.098625	0.519342	-0.263606	99
Es	0.886360	-0.028290	-2.408603	99
Es	0.513859	0.264720	-2.208372	99
Es	0.599300	1.595045	0.177490	99
Es	-2.083348	0.227690	0.353057	99
Es	1.116967	-0.062632	-2.201607	99
Es	-0.595236	0.079936	-0.356919	99
Es	1.390545	-0.210822	1.584311	99
Es	-0.339186	-0.565477	-0.005993	99
Es	-0.409690	-1.301549	1.034575	99
Es	-1.485494	0.178140	-0.229104	99
Es	-0.228888	0.087560	-1.901228	99
Es	0.454067	-0.238328	-2.225242	99
Es	-0.833323	0.173985	-2.333490	99
Es	0.220738	-1.697315	0.071717	99
Es	-2.028419	0.238783	-0.166953	99
Es	0.866356	-0.015736	-2.712306	99
Es	0.022302	-1.097387	0.463604	99
Es	1.172836	-0.162825	0.869355	99
Es	-0.407810	0.082986	-1.125549	99
Es	1.759693	-0.216160	0.429492	99
Es	0.773252	0.491901	0.737355	99
Es	-2.160287	-0.011189	-0.281715	99
Es	0.267210	1.032068	0.532110	99
Es	-0.111423	1.292249	1.117866	99
42
Properties=species:S:1:pos:R:3:Z:I:1 energy=-343.7893495528418 field_type=dipole dipole="0.000000 0.000000 0.000000" charge=0
O	-2.028665	0.238814	-0.167193	8
C	-0.595055	0.079914	-0.356893	6
C	0.267226	1.032134	0.532137	6
C	1.172926	-0.162836	0.869367	6
C	0.022305	-1.097456	0.463627	6
C	-0.228905	0.087564	-1.901323	6
O	0.886635	-0.028316	-2.408823	8
H	-2.167544	0.222764	0.795997	1
H	-0.266665	1.442984	1.396857	1
H	0.766325	1.854034	0.010517	1
H	2.053725	-0.243296	0.222357	1
H	1.493816	-0.233256	1.911837	1
H	0.325866	-1.976336	-0.112673	1
H	-0.597085	-1.430566	1.304447	1
H	-1.104915	0.213854	-2.560243	1
Es	-0.339201	-0.565426	-0.006042	99
Es	-0.595232	0.079934	-0.356922	99
Es	0.636304	-0.700204	0.699033	99
Es	-2.160307	-0.011159	-0.281409	99
Es	-0.228888	0.087558	-1.901229	99
Es	1.172833	-0.162824	0.869354	99
Es	0.453055	-0.237456	-2.225943	99
Es	-1.485454	0.178078	-0.229308	99
Es	-0.409727	-1.301681	1.034450	99
Es	1.759644	-0.216095	0.429576	99
Es	0.220642	-1.697176	0.071659	99
Es	-0.407833	0.082961	-1.125494	99
Es	0.773263	0.491775	0.737345	99
Es	-2.083228	0.227932	0.353071	99
Es	0.514523	0.265105	-2.208659	99
Es	1.390571	-0.210841	1.584287	99
Es	0.868211	-0.015747	-2.712648	99
Es	0.267210	1.032067	0.532110	99
Es	-0.833350	0.173853	-2.333532	99
Es	-2.028437	0.238720	-0.166974	99
Es	0.886364	-0.028300	-2.408665	99
Es	-0.202051	0.626962	0.032286	99
Es	-2.098751	0.519175	-0.263699	99
Es	-0.111312	1.292489	1.117892	99
Es	1.115473	-0.063710	-2.200182	99
Es	0.599369	1.594834	0.177400	99
Es	0.022303	-1.097387	0.463604	99
42
Properties=species:S:1:pos:R:3:Z:I:1 energy=-343.7893495528418 field_type=dipole dipole="0.000000 0.000000 0.000000" charge=0
O	-2.028665	0.238814	-0.167193	8
C	-0.595055	0.079914	-0.356893	6
C	0.267226	1.032134	0.532137	6
C	1.172926	-0.162836	0.869367	6
C	0.022305	-1.097456	0.463627	6
C	-0.228905	0.087564	-1.901323	6
O	0.886635	-0.028316	-2.408823	8
H	-2.167544	0.222764	0.795997	1
H	-0.266665	1.442984	1.396857	1
H	0.766325	1.854034	0.010517	1
H	2.053725	-0.243296	0.222357	1
H	1.493816	-0.233256	1.911837	1
H	0.325866	-1.976336	-0.112673	1
H	-0.597085	-1.430566	1.304447	1
H	-1.104915	0.213854	-2.560243	1
Es	0.220629	-1.697235	0.071749	99
Es	-0.833309	0.173907	-2.333553	99
Es	1.115824	-0.063424	-2.200988	99
Es	-0.595235	0.079936	-0.356928	99
Es	-0.409648	-1.301614	1.034489	99
Es	0.773324	0.491870	0.737472	99
Es	-1.485314	0.178035	-0.229026	99
Es	-0.228885	0.087558	-1.901232	99
Es	1.172826	-0.162827	0.869351	99
Es	0.636354	-0.700172	0.699013	99
Es	0.452839	-0.237548	-2.224974	99
Es	-0.111412	1.292403	1.117776	99
Es	-2.098545	0.519451	-0.263212	99
Es	1.390595	-0.210825	1.584198	99
Es	0.867615	-0.016437	-2.712354	99
Es	0.886315	-0.028292	-2.408658	99
Es	-2.083838	0.226819	0.353011	99
Es	0.515009	0.265567	-2.209128	99
Es	-0.339232	-0.565592	-0.006107	99
Es	0.022303	-1.097387	0.463602	99
Es	1.759644	-0.216102	0.429581	99
Es	-0.407867	0.083017	-1.125396	99
Es	-2.160114	-0.010440	-0.282194	99
Es	-0.201980	0.626937	0.032153	99
Es	-2.028381	0.238871	-0.166927	99
Es	0.267206	1.032066	0.532105	99
Es	0.599271	1.594893	0.177540	99
42
Properties=species:S:1:pos:R:3:Z:I:1 energy=-343.7893495528418 field_type=dipole dipole="0.000000 0.000000 0.000000" charge=0
O	-2.028665	0.238814	-0.167193	8
C	-0.595055	0.079914	-0.356893	6
C	0.267226	1.032134	0.532137	6
C	1.172926	-0.162836	0.869367	6
C	0.022305	-1.097456	0.463627	6
C	-0.228905	0.087564	-1.901323	6
O	0.886635	-0.028316	-2.408823	8
H	-2.167544	0.222764	0.795997	1
H	-0.266665	1.442984	1.396857	1
H	0.766325	1.854034	0.010517	1
H	2.053725	-0.243296	0.222357	1
H	1.493816	-0.233256	1.911837	1
H	0.325866	-1.976336	-0.112673	1
H	-0.597085	-1.430566	1.304447	1
H	-1.104915	0.213854	-2.560243	1
Es	-0.228887	0.087558	-1.901230	99
Es	0.513924	0.264922	-2.208882	99
Es	0.636391	-0.700304	0.698825	99
Es	1.172832	-0.162824	0.869356	99
Es	-2.159991	-0.010535	-0.282597	99
Es	-2.098462	0.518977	-0.262974	99
Es	-0.111345	1.292409	1.117771	99
Es	0.022304	-1.097387	0.463605	99
Es	0.773416	0.491953	0.737505	99
Es	-0.202043	0.626923	0.032140	99
Es	-0.407855	0.083013	-1.125383	99
Es	1.115164	-0.063197	-2.199809	99
Es	0.267209	1.032068	0.532110	99
Es	-2.084109	0.226855	0.353128	99
Es	0.599245	1.594902	0.177513	99
Es	-0.595234	0.079936	-0.356918	99
Es	0.868804	-0.015757	-2.712425	99
Es	-1.485201	0.178725	-0.228989	99
Es	-0.339246	-0.565523	-0.005981	99
Es	-0.833300	0.173933	-2.333577	99
Es	0.886404	-0.028288	-2.408706	99
Es	1.759656	-0.216034	0.429730	99
Es	0.453293	-0.237888	-2.226273	99
Es	-0.409616	-1.301631	1.034513	99
Es	1.390530	-0.210884	1.584155	99
Es	-2.028431	0.238720	-0.166934	99
Es	0.220541	-1.697204	0.071688	99
42
Properties=species:S:1:pos:R:3:Z:I:1 energy=-343.7893495528418 field_type=dipole dipole="0.000000 0.000000 0.000000" charge=0
O	-2.028665	0.238814	-0.167193	8
C	-0.595055	0.079914	-0.356893	6
C	0.267226	1.032134	0.532137	6
C	1.172926	-0.162836	0.869367	6
C	0.022305	-1.097456	0.463627	6
C	-0.228905	0.087564	-1.901323	6
O	0.886635	-0.028316	-2.408823	8
H	-2.167544	0.222764	0.795997	1
H	-0.266665	1.442984	1.396857	1
H	0.766325	1.854034	0.010517	1
H	2.053725	-0.243296	0.222357	1
H	1.493816	-0.233256	1.911837	1
H	0.325866	-1.976336	-0.112673	1
H	-0.597085	-1.430566	1.304447	1
H	-1.104915	0.213854	-2.560243	1
Es	0.599170	1.594913	0.177635	99
Es	0.886361	-0.028292	-2.408676	99
Es	-0.407871	0.083105	-1.125294	99
Es	-0.339238	-0.565630	-0.006180	99
Es	1.172834	-0.162825	0.869356	99
Es	0.867942	-0.015970	-2.712339	99
Es	-0.228886	0.087559	-1.901232	99
Es	-2.098461	0.518817	-0.261520	99
Es	0.022305	-1.097386	0.463603	99
Es	-1.485042	0.179274	-0.229783	99
Es	-0.409683	-1.301664	1.034375	99
Es	0.636404	-0.700264	0.699089	99
Es	-0.202024	0.626978	0.032084	99
Es	1.759588	-0.216123	0.429691	99
Es	-2.083513	0.226153	0.353049	99
Es	0.773499	0.491999	0.737480	99
Es	-0.595230	0.079937	-0.356914	99
Es	0.220567	-1.697157	0.071809	99
Es	-0.833273	0.174015	-2.333593	99
Es	-2.160788	-0.010288	-0.283147	99
Es	0.454303	-0.238908	-2.225413	99
Es	-2.028399	0.238798	-0.166973	99
Es	1.390616	-0.210860	1.584096	99
Es	-0.111346	1.292354	1.117736	99
Es	1.115882	-0.061530	-2.200618	99
Es	0.513059	0.264368	-2.209063	99
Es	0.267213	1.032066	0.532105	99
42
Properties=species:S:1:pos:R:3:Z:I:1 energy=-343.7893495528418 field_type=dipole dipole="0.000000 0.000000 0.000000" charge=0
O	-2.028665	0.238814	-0.167193	8
C	-0.595055	0.079914	-0.356893	6
C	0.267226	1.032134	0.532137	6
C	1.172926	-0.162836	0.869367	6
C	0.022305	-1.097456	0.463627	6
C	-0.228905	0.087564	-1.901323	6
O	0.886635	-0.028316	-2.408823	8
H	-2.167544	0.222764	0.795997	1
H	-0.266665	1.442984	1.396857	1
H	0.766325	1.854034	0.010517	1
H	2.053725	-0.243296	0.222357	1
H	1.493816	-0.233256	1.911837	1
H	0.325866	-1.976336	-0.112673	1
H	-0.597085	-1.430566	1.304447	1
H	-1.104915	0.213854	-2.560243	1
Es	0.886369	-0.028291	-2.408666	99
Es	0.599236	1.594907	0.177676	99
Es	0.636448	-0.700306	0.699115	99
Es	1.759603	-0.216094	0.429750	99
Es	1.172834	-0.162825	0.869354	99
Es	-0.228887	0.087558	-1.901230	99
Es	-0.339230	-0.565683	-0.006183	99
Es	1.390592	-0.210852	1.584068	99
Es	-0.202121	0.627050	0.032036	99
Es	0.773458	0.491954	0.737528	99
Es	0.022310	-1.097380	0.463600	99
Es	0.867076	-0.015276	-2.712180	99
Es	-0.595230	0.079935	-0.356916	99
Es	-0.111298	1.292366	1.117673	99
Es	-1.485144	0.178330	-0.229729	99
Es	0.454437	-0.238907	-2.225749	99
Es	-2.083312	0.227389	0.352977	99
Es	0.220549	-1.697119	0.071812	99
Es	0.513171	0.264276	-2.208159	99
Es	-2.098385	0.518855	-0.262495	99
Es	1.116478	-0.062123	-2.201368	99
Es	0.267211	1.032072	0.532109	99
Es	-2.160926	-0.010616	-0.282146	99
Es	-0.409656	-1.301707	1.034298	99
Es	-0.833272	0.173999	-2.333611	99
Es	-2.028443	0.238744	-0.166983	99
Es	-0.407872	0.083180	-1.125220	99
