39
Properties=species:S:1:pos:R:3:Z:I:1 energy=-342.6676459664755 field_type=dipole dipole="0.000000 0.000000 0.000000" charge=0
O	-2.735644	-0.492192	0.235385	8
C	-1.515534	-0.443682	0.110405	6
C	-0.814114	0.878678	-0.107015	6
C	0.695276	0.908058	0.050065	6
C	1.337445	-0.426892	-0.019915	6
C	0.616296	-1.543882	-0.008915	6
O	-0.774395	-1.586662	0.082605	8
H	-1.249694	1.595828	0.601525	1
H	-1.082494	1.213268	-1.115795	1
H	0.960066	1.373978	1.005615	1
H	1.117425	1.550388	-0.730845	1
H	2.422385	-0.480382	-0.062805	1
H	1.022986	-2.546512	-0.040305	1
Es	-1.125128	0.194402	0.016444	99
Es	-0.256122	-1.511660	0.051111	99
Es	-0.854897	-1.640382	-0.167282	99
Es	-2.286353	-0.462522	0.446436	99
Es	-1.107947	1.347102	0.365854	99
Es	1.005553	-0.985032	0.314584	99
Es	1.012961	0.232499	0.010483	99
Es	0.695242	0.908001	0.050056	99
Es	2.065409	-0.460409	-0.049452	99
Es	0.615928	-1.543975	-0.008898	99
Es	0.980367	1.335835	-0.480192	99
Es	-0.814098	0.878586	-0.107003	99
Es	-2.849167	-0.205668	0.229901	99
Es	-2.335807	-0.491706	-0.055741	99
Es	0.972933	-0.971544	-0.355491	99
Es	-0.062601	0.864247	-0.026758	99
Es	-0.845441	-1.736776	0.314755	99
Es	0.885240	-2.218847	-0.031230	99
Es	0.873745	1.211402	0.699374	99
Es	-1.000423	-1.127962	0.117012	99
Es	-2.841470	-0.779082	0.261475	99
Es	-0.997770	1.078721	-0.779654	99
Es	1.337461	-0.426806	-0.019921	99
Es	-0.774222	-1.586275	0.082608	99
Es	-2.735361	-0.492190	0.235363	99
Es	-1.515339	-0.443900	0.110406	99
39
Properties=species:S:1:pos:R:3:Z:I:1 energy=-342.6676459664755 field_type=dipole dipole="0.000000 0.000000 0.000000" charge=0
O	-2.735644	-0.492192	0.235385	8
C	-1.515534	-0.443682	0.110405	6
C	-0.814114	0.878678	-0.107015	6
C	0.695276	0.908058	0.050065	6
C	1.337445	-0.426892	-0.019915	6
C	0.616296	-1.543882	-0.008915	6
O	-0.774395	-1.586662	0.082605	8
H	-1.249694	1.595828	0.601525	1
H	-1.082494	1.213268	-1.115795	1
H	0.960066	1.373978	1.005615	1
H	1.117425	1.550388	-0.730845	1
H	2.422385	-0.480382	-0.062805	1
H	1.022986	-2.546512	-0.040305	1
Es	-2.335497	-0.493975	-0.055878	99
Es	-0.774170	-1.586246	0.082537	99
Es	-0.863446	-1.667288	-0.161929	99
Es	-1.125126	0.194580	0.016258	99
Es	-0.062579	0.864131	-0.026832	99
Es	1.005689	-0.984967	0.314639	99
Es	-1.515341	-0.443901	0.110394	99
Es	1.337457	-0.426801	-0.019921	99
Es	-0.997865	1.078796	-0.779662	99
Es	-2.735452	-0.492145	0.235360	99
Es	0.980464	1.335836	-0.480163	99
Es	0.885283	-2.218873	-0.031384	99
Es	-0.255833	-1.512163	0.046965	99
Es	0.972711	-0.971514	-0.355259	99
Es	2.065401	-0.460486	-0.049615	99
Es	-2.843866	-0.204638	0.228337	99
Es	-0.836366	-1.710452	0.325629	99
Es	0.695243	0.908002	0.050056	99
Es	0.615928	-1.543974	-0.008901	99
Es	-1.107921	1.347014	0.365984	99
Es	1.012991	0.232578	0.010578	99
Es	-2.286560	-0.463107	0.446949	99
Es	-2.846751	-0.777312	0.262696	99
Es	-0.814098	0.878587	-0.107003	99
Es	0.873727	1.211344	0.699350	99
Es	-1.001329	-1.126965	0.105054	99
39
Properties=species:S:1:pos:R:3:Z:I:1 energy=-342.6676459664755 field_type=dipole dipole="0.000000 0.000000 0.000000" charge=0
O	-2.735644	-0.492192	0.235385	8
C	-1.515534	-0.443682	0.110405	6
C	-0.814114	0.878678	-0.107015	6
C	0.695276	0.908058	0.050065	6
C	1.337445	-0.426892	-0.019915	6
C	0.616296	-1.543882	-0.008915	6
O	-0.774395	-1.586662	0.082605	8
H	-1.249694	1.595828	0.601525	1
H	-1.082494	1.213268	-1.115795	1
H	0.960066	1.373978	1.005615	1
H	1.117425	1.550388	-0.730845	1
H	2.422385	-0.480382	-0.062805	1
H	1.022986	-2.546512	-0.040305	1
Es	-0.864941	-1.671488	-0.160922	99
Es	-2.844500	-0.777258	0.260408	99
Es	-0.997782	1.078539	-0.779704	99
Es	-2.735292	-0.492212	0.235352	99
Es	-1.125158	0.194687	0.016445	99
Es	0.980451	1.335834	-0.480100	99
Es	-0.814096	0.878588	-0.107003	99
Es	-1.515340	-0.443901	0.110399	99
Es	1.005339	-0.984947	0.314104	99
Es	-1.108031	1.347191	0.365791	99
Es	0.873718	1.211337	0.699411	99
Es	-2.336480	-0.492216	-0.055818	99
Es	-2.285583	-0.465563	0.446556	99
Es	0.885374	-2.218932	-0.031111	99
Es	-0.062572	0.864083	-0.026806	99
Es	0.615928	-1.543974	-0.008902	99
Es	-2.846261	-0.203953	0.230942	99
Es	0.695243	0.908002	0.050056	99
Es	1.337459	-0.426805	-0.019931	99
Es	-1.001161	-1.127075	0.102945	99
Es	0.973154	-0.971574	-0.355159	99
Es	-0.774186	-1.586256	0.082641	99
Es	-0.256007	-1.511948	0.045901	99
Es	2.065431	-0.460561	-0.049373	99
Es	-0.834901	-1.706311	0.327667	99
Es	1.012887	0.232771	0.010449	99
39
Properties=species:S:1:pos:R:3:Z:I:1 energy=-342.6676459664755 field_type=dipole dipole="0.000000 0.000000 0.000000" charge=0
O	-2.735644	-0.492192	0.235385	8
C	-1.515534	-0.443682	0.110405	6
C	-0.814114	0.878678	-0.107015	6
C	0.695276	0.908058	0.050065	6
C	1.337445	-0.426892	-0.019915	6
C	0.616296	-1.543882	-0.008915	6
O	-0.774395	-1.586662	0.082605	8
H	-1.249694	1.595828	0.601525	1
H	-1.082494	1.213268	-1.115795	1
H	0.960066	1.373978	1.005615	1
H	1.117425	1.550388	-0.730845	1
H	2.422385	-0.480382	-0.062805	1
H	1.022986	-2.546512	-0.040305	1
Es	1.337460	-0.426810	-0.019925	99
Es	-0.997942	1.078594	-0.779703	99
Es	-2.842975	-0.778115	0.260528	99
Es	-2.847869	-0.206066	0.229815	99
Es	-0.814098	0.878588	-0.107003	99
Es	1.013036	0.232761	0.010660	99
Es	1.005597	-0.984993	0.314270	99
Es	0.972876	-0.971518	-0.355157	99
Es	-0.062526	0.864081	-0.026854	99
Es	2.065379	-0.460559	-0.049423	99
Es	-0.255960	-1.511729	0.048371	99
Es	0.615929	-1.543974	-0.008900	99
Es	-1.125081	0.194761	0.016432	99
Es	-0.861373	-1.662699	-0.163196	99
Es	0.885373	-2.218883	-0.031397	99
Es	-2.735270	-0.492261	0.235351	99
Es	0.980437	1.335775	-0.480119	99
Es	-1.001567	-1.127166	0.106755	99
Es	0.695243	0.908002	0.050057	99
Es	-2.336006	-0.491519	-0.055849	99
Es	-0.774181	-1.586300	0.082620	99
Es	-1.108028	1.347051	0.365879	99
Es	0.873723	1.211417	0.699339	99
Es	-1.515339	-0.443901	0.110399	99
Es	-0.838158	-1.715238	0.323684	99
Es	-2.285987	-0.463241	0.447607	99
39
Properties=species:S:1:pos:R:3:Z:I:1 energy=-342.6676459664755 field_type=dipole dipole="0.000000 0.000000 0.000000" charge=0
O	-2.735644	-0.492192	0.235385	8
C	-1.515534	-0.443682	0.110405	6
C	-0.814114	0.878678	-0.107015	6
C	0.695276	0.908058	0.050065	6
C	1.337445	-0.426892	-0.019915	6
C	0.616296	-1.543882	-0.008915	6
O	-0.774395	-1.586662	0.082605	8
H	-1.249694	1.595828	0.601525	1
H	-1.082494	1.213268	-1.115795	1
H	0.960066	1.373978	1.005615	1
H	1.117425	1.550388	-0.730845	1
H	2.422385	-0.480382	-0.062805	1
H	1.022986	-2.546512	-0.040305	1
Es	-2.285624	-0.463845	0.447973	99
Es	-2.842508	-0.777715	0.259975	99
Es	-1.125106	0.194866	0.016286	99
Es	-2.735275	-0.492209	0.235349	99
Es	1.012985	0.232872	0.010431	99
Es	-0.997895	1.078562	-0.779673	99
Es	-1.108167	1.347015	0.365821	99
Es	-1.002208	-1.126847	0.096811	99
Es	-0.829443	-1.691884	0.331699	99
Es	1.005531	-0.984948	0.314197	99
Es	0.973002	-0.971587	-0.354919	99
Es	-1.515346	-0.443901	0.110382	99
Es	-0.814097	0.878590	-0.107003	99
Es	0.615929	-1.543974	-0.008901	99
Es	-0.062406	0.864052	-0.026633	99
Es	0.695246	0.908004	0.050057	99
Es	-2.336305	-0.491420	-0.055878	99
Es	0.873820	1.211458	0.699354	99
Es	0.885401	-2.218872	-0.031340	99
Es	0.980327	1.335745	-0.480167	99
Es	2.065386	-0.460641	-0.049469	99
Es	1.337459	-0.426808	-0.019919	99
Es	-0.774222	-1.586270	0.082570	99
Es	-0.869572	-1.685802	-0.155595	99
Es	-0.255855	-1.512347	0.042781	99
Es	-2.848363	-0.206037	0.230051	99
39
Properties=species:S:1:pos:R:3:Z:I:1 energy=-342.6676459664755 field_type=dipole dipole="0.000000 0.000000 0.000000" charge=0
O	-2.735644	-0.492192	0.235385	8
C	-1.515534	-0.443682	0.110405	6
C	-0.814114	0.878678	-0.107015	6
C	0.695276	0.908058	0.050065	6
C	1.337445	-0.426892	-0.019915	6
C	0.616296	-1.543882	-0.008915	6
O	-0.774395	-1.586662	0.082605	8
H	-1.249694	1.595828	0.601525	1
H	-1.082494	1.213268	-1.115795	1
H	0.960066	1.373978	1.005615	1
H	1.117425	1.550388	-0.730845	1
H	2.422385	-0.480382	-0.062805	1
H	1.022986	-2.546512	-0.040305	1
Es	-1.125102	0.194954	0.016368	99
Es	0.615922	-1.543978	-0.008901	99
Es	-1.002046	-1.126842	0.100955	99
Es	-0.866490	-1.676198	-0.158312	99
Es	1.012978	0.232907	0.010487	99
Es	-0.832897	-1.701544	0.328610	99
Es	0.695245	0.908004	0.050057	99
Es	-2.335837	-0.493394	-0.055430	99
Es	0.873736	1.211346	0.699293	99
Es	1.005497	-0.984916	0.314024	99
Es	0.973048	-0.971606	-0.354895	99
Es	-2.843851	-0.777561	0.261799	99
Es	0.885479	-2.218874	-0.031192	99
Es	2.065381	-0.460624	-0.049445	99
Es	-0.062476	0.864035	-0.026982	99
Es	-0.774178	-1.586262	0.082622	99
Es	-0.814097	0.878589	-0.107003	99
Es	-1.515342	-0.443900	0.110400	99
Es	-0.255695	-1.512347	0.044367	99
Es	-2.846971	-0.205541	0.228055	99
Es	-2.286066	-0.462574	0.447699	99
Es	0.980474	1.335807	-0.480045	99
Es	1.337459	-0.426807	-0.019921	99
Es	-0.998068	1.078459	-0.779620	99
Es	-1.108065	1.347109	0.365897	99
Es	-2.735343	-0.492183	0.235352	99
39
Properties=species:S:1:pos:R:3:Z:I:1 energy=-342.6676459664755 field_type=dipole dipole="0.000000 0.000000 0.000000" charge=0
O	-2.735644	-0.492192	0.235385	8
C	-1.515534	-0.443682	0.110405	6
C	-0.814114	0.878678	-0.107015	6
C	0.695276	0.908058	0.050065	6
C	1.337445	-0.426892	-0.019915	6
C	0.616296	-1.543882	-0.008915	6
O	-0.774395	-1.586662	0.082605	8
H	-1.249694	1.595828	0.601525	1
H	-1.082494	1.213268	-1.115795	1
H	0.960066	1.373978	1.005615	1
H	1.117425	1.550388	-0.730845	1
H	2.422385	-0.480382	-0.062805	1
H	1.022986	-2.546512	-0.040305	1
Es	-2.735271	-0.492215	0.235350	99
Es	-2.846178	-0.205504	0.229603	99
Es	-0.774204	-1.586277	0.082594	99
Es	-0.255626	-1.512586	0.042646	99
Es	2.065370	-0.460670	-0.049513	99
Es	-2.285744	-0.463494	0.446932	99
Es	0.873798	1.211327	0.699252	99
Es	1.005570	-0.984919	0.313985	99
Es	-0.998020	1.078638	-0.779643	99
Es	-0.829753	-1.692429	0.331306	99
Es	-1.125079	0.195013	0.016247	99
Es	-1.515339	-0.443900	0.110401	99
Es	0.695243	0.908003	0.050056	99
Es	0.885521	-2.218918	-0.031364	99
Es	-0.869516	-1.685105	-0.155341	99
Es	-1.002249	-1.126805	0.097016	99
Es	-2.844536	-0.776784	0.262456	99
Es	0.972950	-0.971563	-0.354683	99
Es	-2.336324	-0.493286	-0.056906	99
Es	0.980488	1.335788	-0.480073	99
Es	1.012932	0.232929	0.010554	99
Es	1.337458	-0.426810	-0.019920	99
Es	-1.108143	1.346921	0.365955	99
Es	0.615930	-1.543973	-0.008900	99
Es	-0.062486	0.864091	-0.026767	99
Es	-0.814097	0.878589	-0.107003	99
39
Properties=species:S:1:pos:R:3:Z:I:1 energy=-342.6676459664755 field_type=dipole dipole="0.000000 0.000000 0.000000" charge=0
O	-2.735644	-0.492192	0.235385	8
C	-1.515534	-0.443682	0.110405	6
C	-0.814114	0.878678	-0.107015	6
C	0.695276	0.908058	0.050065	6
C	1.337445	-0.426892	-0.019915	6
C	0.616296	-1.543882	-0.008915	6
O	-0.774395	-1.586662	0.082605	8
H	-1.249694	1.595828	0.601525	1
H	-1.082494	1.213268	-1.115795	1
H	0.960066	1.373978	1.005615	1
H	1.117425	1.550388	-0.730845	1
H	2.422385	-0.480382	-0.062805	1
H	1.022986	-2.546512	-0.040305	1
Es	-2.842130	-0.777817	0.262164	99
Es	-0.839668	-1.718284	0.320978	99
Es	-1.108184	1.346990	0.365866	99
Es	-1.001481	-1.127049	0.108980	99
Es	-0.062462	0.864090	-0.026804	99
Es	-2.336142	-0.492587	-0.056494	99
Es	1.337457	-0.426811	-0.019920	99
Es	-2.285906	-0.462384	0.446988	99
Es	0.885575	-2.218922	-0.031331	99
Es	0.615929	-1.543973	-0.008903	99
Es	-2.735351	-0.492183	0.235358	99
Es	0.972938	-0.971520	-0.354622	99
Es	2.065359	-0.460700	-0.049510	99
Es	1.012944	0.232994	0.010672	99
Es	-0.255328	-1.512727	0.049106	99
Es	-1.125097	0.195064	0.016330	99
Es	-0.998054	1.078497	-0.779641	99
Es	0.873783	1.211360	0.699210	99
Es	1.005589	-0.984970	0.313818	99
Es	-0.860683	-1.658906	-0.163502	99
Es	0.695244	0.908003	0.050056	99
Es	-0.774205	-1.586245	0.082651	99
Es	-0.814097	0.878588	-0.107003	99
Es	-2.848522	-0.206298	0.229452	99
Es	0.980526	1.335749	-0.480061	99
Es	-1.515340	-0.443900	0.110400	99
39
Properties=species:S:1:pos:R:3:Z:I:1 energy=-342.6676459664755 field_type=dipole dipole="0.000000 0.000000 0.000000" charge=0
O	-2.735644	-0.492192	0.235385	8
C	-1.515534	-0.443682	0.110405	6
C	-0.814114	0.878678	-0.107015	6
C	0.695276	0.908058	0.050065	6
C	1.337445	-0.426892	-0.019915	6
C	0.616296	-1.543882	-0.008915	6
O	-0.774395	-1.586662	0.082605	8
H	-1.249694	1.595828	0.601525	1
H	-1.082494	1.213268	-1.115795	1
H	0.960066	1.373978	1.005615	1
H	1.117425	1.550388	-0.730845	1
H	2.422385	-0.480382	-0.062805	1
H	1.022986	-2.546512	-0.040305	1
Es	-2.845454	-0.776837	0.262199	99
Es	2.065328	-0.460700	-0.049526	99
Es	0.695245	0.908005	0.050055	99
Es	1.337458	-0.426810	-0.019922	99
Es	-0.998015	1.078347	-0.779628	99
Es	-0.867174	-1.677611	-0.157900	99
Es	-0.774193	-1.586266	0.082613	99
Es	-2.735364	-0.492193	0.235358	99
Es	1.012939	0.233042	0.010590	99
Es	-1.002175	-1.126829	0.100900	99
Es	-1.108363	1.347038	0.365855	99
Es	-0.062395	0.864080	-0.026684	99
Es	0.615933	-1.543972	-0.008902	99
Es	0.885610	-2.218935	-0.031361	99
Es	0.972957	-0.971592	-0.354453	99
Es	1.005635	-0.984927	0.313803	99
Es	-0.814098	0.878589	-0.107003	99
Es	-2.285107	-0.464049	0.446560	99
Es	-1.515339	-0.443900	0.110397	99
Es	-2.845176	-0.205043	0.229831	99
Es	-1.125018	0.195144	0.016285	99
Es	0.873722	1.211256	0.699157	99
Es	0.980518	1.335906	-0.480079	99
Es	-0.255433	-1.512596	0.044372	99
Es	-2.336939	-0.493163	-0.056564	99
Es	-0.832408	-1.699925	0.328285	99
39
Properties=species:S:1:pos:R:3:Z:I:1 energy=-342.6676459664755 field_type=dipole dipole="0.000000 0.000000 0.000000" charge=0
O	-2.735644	-0.492192	0.235385	8
C	-1.515534	-0.443682	0.110405	6
C	-0.814114	0.878678	-0.107015	6
C	0.695276	0.908058	0.050065	6
C	1.337445	-0.426892	-0.019915	6
C	0.616296	-1.543882	-0.008915	6
O	-0.774395	-1.586662	0.082605	8
H	-1.249694	1.595828	0.601525	1
H	-1.082494	1.213268	-1.115795	1
H	0.960066	1.373978	1.005615	1
H	1.117425	1.550388	-0.730845	1
H	2.422385	-0.480382	-0.062805	1
H	1.022986	-2.546512	-0.040305	1
Es	2.065358	-0.460802	-0.049509	99
Es	1.337457	-0.426811	-0.019919	99
Es	-0.831302	-1.697503	0.328783	99
Es	-1.515339	-0.443899	0.110400	99
Es	-0.998068	1.078302	-0.779696	99
Es	-2.286857	-0.462536	0.447972	99
Es	1.012891	0.233093	0.010594	99
Es	-1.125062	0.195226	0.016278	99
Es	-2.840664	-0.777874	0.260838	99
Es	-0.814097	0.878589	-0.107003	99
Es	1.005544	-0.984897	0.313625	99
Es	-0.774189	-1.586153	0.082250	99
Es	0.885647	-2.218954	-0.031350	99
Es	-1.108305	1.347062	0.365823	99
Es	0.873829	1.211289	0.699217	99
Es	0.972956	-0.971533	-0.354379	99
Es	-2.335032	-0.492031	-0.055934	99
Es	-2.850128	-0.206660	0.229315	99
Es	-1.002364	-1.126782	0.100115	99
Es	-0.062436	0.864130	-0.026748	99
Es	0.615931	-1.543973	-0.008901	99
Es	-0.255375	-1.512672	0.043625	99
Es	-0.868173	-1.680150	-0.156540	99
Es	-2.735327	-0.492166	0.235346	99
Es	0.980557	1.335760	-0.480018	99
Es	0.695244	0.908004	0.050057	99
39
Properties=species:S:1:pos:R:3:Z:I:1 energy=-342.6676459664755 field_type=dipole dipole="0.000000 0.000000 0.000000" charge=0
O	-2.735644	-0.492192	0.235385	8
C	-1.515534	-0.443682	0.110405	6
C	-0.814114	0.878678	-0.107015	6
C	0.695276	0.908058	0.050065	6
C	1.337445	-0.426892	-0.019915	6
C	0.616296	-1.543882	-0.008915	6
O	-0.774395	-1.586662	0.082605	8
H	-1.249694	1.595828	0.601525	1
H	-1.082494	1.213268	-1.115795	1
H	0.960066	1.373978	1.005615	1
H	1.117425	1.550388	-0.730845	1
H	2.422385	-0.480382	-0.062805	1
H	1.022986	-2.546512	-0.040305	1
Es	-1.125093	0.195361	0.016489	99
Es	1.012993	0.233163	0.010636	99
Es	-0.814097	0.878590	-0.107003	99
Es	-1.108124	1.346878	0.365939	99
Es	-0.862161	-1.657805	-0.162751	99
Es	-0.998283	1.078488	-0.779707	99
Es	-0.062382	0.863927	-0.026882	99
Es	-2.846961	-0.205673	0.230843	99
Es	0.885684	-2.218950	-0.031406	99
Es	-0.254848	-1.513362	0.047105	99
Es	0.972927	-0.971498	-0.354272	99
Es	-0.838847	-1.718647	0.320127	99
Es	-2.336798	-0.492263	-0.056968	99
Es	0.615932	-1.543972	-0.008902	99
Es	-0.774223	-1.586319	0.082581	99
Es	-2.735278	-0.492163	0.235347	99
Es	0.695243	0.908003	0.050056	99
Es	0.980553	1.335825	-0.480016	99
Es	1.337456	-0.426811	-0.019920	99
Es	2.065361	-0.460824	-0.049509	99
Es	0.873749	1.211285	0.699174	99
Es	-2.285220	-0.464769	0.447253	99
Es	-1.001341	-1.127106	0.111194	99
Es	-2.843780	-0.776458	0.260854	99
Es	-1.515340	-0.443900	0.110399	99
Es	1.005570	-0.984941	0.313578	99
