39
Properties=species:S:1:pos:R:3:Z:I:1 energy=-342.64944504151026 field_type=dipole dipole="0.000000 0.000000 0.000000" charge=0
O	-2.642030	-0.043708	0.092456	8
C	-1.418380	0.000382	-0.001034	6
C	-0.621751	1.297101	0.023486	6
O	0.642550	1.179251	-0.618964	8
C	1.441169	0.133642	-0.069094	6
C	0.698539	-1.167189	-0.056044	6
C	-0.638000	-1.257708	-0.056514	6
H	-1.190610	2.060861	-0.514984	1
H	-0.485420	1.620071	1.061026	1
H	1.771889	0.404742	0.939466	1
H	2.329110	0.040932	-0.702214	1
H	1.294489	-2.075388	-0.046784	1
H	-1.181551	-2.192988	-0.050804	1
Es	-1.004684	1.803302	-0.335195	99
Es	0.918921	0.771473	-0.379933	99
Es	1.652162	0.301794	0.623098	99
Es	-0.535304	1.494160	0.733199	99
Es	-2.641670	-0.043676	0.092430	99
Es	-0.638060	-1.257653	-0.056531	99
Es	0.579471	1.086401	-0.903318	99
Es	-2.775177	0.244101	0.110101	99
Es	0.698663	-1.167167	-0.056036	99
Es	1.112152	-1.772574	-0.045570	99
Es	-1.017538	-0.632965	-0.042928	99
Es	-0.022904	-1.188279	0.263595	99
Es	-0.014190	-1.190750	-0.375520	99
Es	0.642381	1.178936	-0.618714	99
Es	-1.007711	0.639668	0.004849	99
Es	-0.621556	1.296996	0.023398	99
Es	-2.177404	-0.032962	0.307560	99
Es	-2.217895	-0.022200	-0.193284	99
Es	-2.750873	-0.337397	0.096612	99
Es	0.789677	1.440626	-0.558320	99
Es	-1.418337	0.000383	-0.001042	99
Es	2.037002	0.061203	-0.495248	99
Es	-1.000300	-1.882328	-0.054579	99
Es	1.058218	-0.527236	-0.057506	99
Es	1.440984	0.133743	-0.069171	99
Es	0.169318	1.188836	-0.348007	99
39
Properties=species:S:1:pos:R:3:Z:I:1 energy=-342.64944504151026 field_type=dipole dipole="0.000000 0.000000 0.000000" charge=0
O	-2.642030	-0.043708	0.092456	8
C	-1.418380	0.000382	-0.001034	6
C	-0.621751	1.297101	0.023486	6
O	0.642550	1.179251	-0.618964	8
C	1.441169	0.133642	-0.069094	6
C	0.698539	-1.167189	-0.056044	6
C	-0.638000	-1.257708	-0.056514	6
H	-1.190610	2.060861	-0.514984	1
H	-0.485420	1.620071	1.061026	1
H	1.771889	0.404742	0.939466	1
H	2.329110	0.040932	-0.702214	1
H	1.294489	-2.075388	-0.046784	1
H	-1.181551	-2.192988	-0.050804	1
Es	2.037046	0.061209	-0.495215	99
Es	-2.176255	-0.033469	0.307259	99
Es	-2.641785	-0.043693	0.092436	99
Es	0.789828	1.440814	-0.560514	99
Es	0.169320	1.189613	-0.347577	99
Es	0.919481	0.771705	-0.379663	99
Es	1.652137	0.301752	0.623061	99
Es	0.578968	1.085561	-0.901675	99
Es	-1.418340	0.000383	-0.001038	99
Es	-1.004661	1.803307	-0.335081	99
Es	0.698662	-1.167166	-0.056035	99
Es	-2.749382	-0.337314	0.095951	99
Es	-2.219049	-0.021956	-0.193170	99
Es	-1.017516	-0.633024	-0.042834	99
Es	-1.000333	-1.882270	-0.054721	99
Es	-1.007754	0.639699	0.004840	99
Es	-2.776551	0.244256	0.110834	99
Es	-0.638060	-1.257653	-0.056525	99
Es	-0.535339	1.494121	0.733170	99
Es	1.440984	0.133743	-0.069171	99
Es	1.112090	-1.772610	-0.045606	99
Es	-0.014006	-1.190735	-0.375516	99
Es	0.642212	1.178652	-0.618905	99
Es	-0.621554	1.296995	0.023397	99
Es	-0.023064	-1.188276	0.263696	99
Es	1.058272	-0.527211	-0.057460	99
39
Properties=species:S:1:pos:R:3:Z:I:1 energy=-342.64944504151026 field_type=dipole dipole="0.000000 0.000000 0.000000" charge=0
O	-2.642030	-0.043708	0.092456	8
C	-1.418380	0.000382	-0.001034	6
C	-0.621751	1.297101	0.023486	6
O	0.642550	1.179251	-0.618964	8
C	1.441169	0.133642	-0.069094	6
C	0.698539	-1.167189	-0.056044	6
C	-0.638000	-1.257708	-0.056514	6
H	-1.190610	2.060861	-0.514984	1
H	-0.485420	1.620071	1.061026	1
H	1.771889	0.404742	0.939466	1
H	2.329110	0.040932	-0.702214	1
H	1.294489	-2.075388	-0.046784	1
H	-1.181551	-2.192988	-0.050804	1
Es	-1.004663	1.803178	-0.335173	99
Es	-2.777545	0.243235	0.109967	99
Es	1.112024	-1.772630	-0.045579	99
Es	-2.641685	-0.043679	0.092428	99
Es	-0.022910	-1.188215	0.263619	99
Es	-1.007686	0.639740	0.004882	99
Es	1.058345	-0.527102	-0.057431	99
Es	0.642433	1.179037	-0.618690	99
Es	-1.017616	-0.633093	-0.043010	99
Es	0.698661	-1.167166	-0.056034	99
Es	0.169356	1.189713	-0.347585	99
Es	2.036951	0.061132	-0.495277	99
Es	-2.177172	-0.032495	0.308189	99
Es	-0.014159	-1.190651	-0.375494	99
Es	0.919546	0.771712	-0.379546	99
Es	1.440984	0.133743	-0.069171	99
Es	-0.621551	1.296994	0.023396	99
Es	-1.418341	0.000382	-0.001039	99
Es	-0.638057	-1.257651	-0.056498	99
Es	-0.535384	1.494261	0.733185	99
Es	-2.748518	-0.337901	0.095660	99
Es	-2.218101	-0.021350	-0.192779	99
Es	1.652251	0.301723	0.623076	99
Es	0.578900	1.085515	-0.902376	99
Es	0.789571	1.440354	-0.560117	99
Es	-1.000286	-1.882351	-0.054662	99
39
Properties=species:S:1:pos:R:3:Z:I:1 energy=-342.64944504151026 field_type=dipole dipole="0.000000 0.000000 0.000000" charge=0
O	-2.642030	-0.043708	0.092456	8
C	-1.418380	0.000382	-0.001034	6
C	-0.621751	1.297101	0.023486	6
O	0.642550	1.179251	-0.618964	8
C	1.441169	0.133642	-0.069094	6
C	0.698539	-1.167189	-0.056044	6
C	-0.638000	-1.257708	-0.056514	6
H	-1.190610	2.060861	-0.514984	1
H	-0.485420	1.620071	1.061026	1
H	1.771889	0.404742	0.939466	1
H	2.329110	0.040932	-0.702214	1
H	1.294489	-2.075388	-0.046784	1
H	-1.181551	-2.192988	-0.050804	1
Es	-2.748247	-0.337241	0.096604	99
Es	-2.219159	-0.021490	-0.194343	99
Es	-1.007643	0.639834	0.004919	99
Es	0.579542	1.087249	-0.903442	99
Es	-1.004768	1.803169	-0.335119	99
Es	-0.638058	-1.257653	-0.056524	99
Es	2.036990	0.061157	-0.495189	99
Es	0.169206	1.189640	-0.347755	99
Es	-2.777662	0.243040	0.111515	99
Es	-0.535418	1.494169	0.733185	99
Es	1.652205	0.301697	0.623050	99
Es	-1.017560	-0.633026	-0.042995	99
Es	0.642454	1.179055	-0.618688	99
Es	0.919106	0.771085	-0.380354	99
Es	1.058307	-0.527016	-0.057486	99
Es	-0.621551	1.296995	0.023399	99
Es	-2.176285	-0.032882	0.307073	99
Es	1.440986	0.133741	-0.069169	99
Es	-0.023171	-1.188223	0.263597	99
Es	0.789536	1.439412	-0.558174	99
Es	-1.000326	-1.882265	-0.054693	99
Es	0.698663	-1.167168	-0.056037	99
Es	1.112056	-1.772683	-0.045618	99
Es	-1.418341	0.000383	-0.001040	99
Es	-0.013858	-1.190904	-0.375197	99
Es	-2.641659	-0.043639	0.092424	99
39
Properties=species:S:1:pos:R:3:Z:I:1 energy=-342.64944504151026 field_type=dipole dipole="0.000000 0.000000 0.000000" charge=0
O	-2.642030	-0.043708	0.092456	8
C	-1.418380	0.000382	-0.001034	6
C	-0.621751	1.297101	0.023486	6
O	0.642550	1.179251	-0.618964	8
C	1.441169	0.133642	-0.069094	6
C	0.698539	-1.167189	-0.056044	6
C	-0.638000	-1.257708	-0.056514	6
H	-1.190610	2.060861	-0.514984	1
H	-0.485420	1.620071	1.061026	1
H	1.771889	0.404742	0.939466	1
H	2.329110	0.040932	-0.702214	1
H	1.294489	-2.075388	-0.046784	1
H	-1.181551	-2.192988	-0.050804	1
Es	-2.745939	-0.338065	0.095746	99
Es	-1.017563	-0.633073	-0.043012	99
Es	-2.175928	-0.031914	0.307690	99
Es	-1.004726	1.803343	-0.335050	99
Es	-0.535387	1.494006	0.733162	99
Es	-1.007772	0.639882	0.004839	99
Es	2.036980	0.061121	-0.495198	99
Es	0.642462	1.179075	-0.618684	99
Es	-0.023010	-1.188259	0.263445	99
Es	-0.638059	-1.257653	-0.056523	99
Es	1.652225	0.301683	0.623044	99
Es	-0.621555	1.296996	0.023397	99
Es	-1.000259	-1.882325	-0.054659	99
Es	-2.219456	-0.020633	-0.193462	99
Es	0.579881	1.087112	-0.903589	99
Es	-1.418342	0.000382	-0.001045	99
Es	0.788814	1.438866	-0.558561	99
Es	0.168945	1.189750	-0.347797	99
Es	1.112030	-1.772726	-0.045630	99
Es	1.058294	-0.526929	-0.057444	99
Es	-2.641673	-0.043724	0.092430	99
Es	-2.780009	0.242116	0.110985	99
Es	1.440986	0.133741	-0.069170	99
Es	-0.014010	-1.190781	-0.375172	99
Es	0.698662	-1.167166	-0.056034	99
Es	0.919758	0.771610	-0.379771	99
39
Properties=species:S:1:pos:R:3:Z:I:1 energy=-342.64944504151026 field_type=dipole dipole="0.000000 0.000000 0.000000" charge=0
O	-2.642030	-0.043708	0.092456	8
C	-1.418380	0.000382	-0.001034	6
C	-0.621751	1.297101	0.023486	6
O	0.642550	1.179251	-0.618964	8
C	1.441169	0.133642	-0.069094	6
C	0.698539	-1.167189	-0.056044	6
C	-0.638000	-1.257708	-0.056514	6
H	-1.190610	2.060861	-0.514984	1
H	-0.485420	1.620071	1.061026	1
H	1.771889	0.404742	0.939466	1
H	2.329110	0.040932	-0.702214	1
H	1.294489	-2.075388	-0.046784	1
H	-1.181551	-2.192988	-0.050804	1
Es	-2.218650	-0.021367	-0.192915	99
Es	-1.004674	1.803231	-0.335073	99
Es	0.698661	-1.167166	-0.056034	99
Es	1.111994	-1.772747	-0.045618	99
Es	-1.017598	-0.633142	-0.043006	99
Es	-2.176586	-0.032955	0.308032	99
Es	-2.641692	-0.043686	0.092429	99
Es	-1.418340	0.000382	-0.001036	99
Es	0.581100	1.088699	-0.903598	99
Es	-1.000317	-1.882258	-0.054779	99
Es	2.037013	0.061148	-0.495134	99
Es	0.168156	1.188924	-0.348818	99
Es	-0.621556	1.296996	0.023398	99
Es	-1.007755	0.639924	0.004884	99
Es	-0.638058	-1.257653	-0.056530	99
Es	0.919811	0.771137	-0.380176	99
Es	0.642470	1.179054	-0.618588	99
Es	-0.023053	-1.188244	0.263610	99
Es	1.652202	0.301649	0.622965	99
Es	-2.749109	-0.337490	0.095485	99
Es	-0.535420	1.494168	0.733130	99
Es	1.058380	-0.526971	-0.057443	99
Es	-2.776963	0.243208	0.110356	99
Es	0.788292	1.438614	-0.557243	99
Es	-0.013948	-1.190759	-0.375188	99
Es	1.440988	0.133740	-0.069169	99
39
Properties=species:S:1:pos:R:3:Z:I:1 energy=-342.64944504151026 field_type=dipole dipole="0.000000 0.000000 0.000000" charge=0
O	-2.642030	-0.043708	0.092456	8
C	-1.418380	0.000382	-0.001034	6
C	-0.621751	1.297101	0.023486	6
O	0.642550	1.179251	-0.618964	8
C	1.441169	0.133642	-0.069094	6
C	0.698539	-1.167189	-0.056044	6
C	-0.638000	-1.257708	-0.056514	6
H	-1.190610	2.060861	-0.514984	1
H	-0.485420	1.620071	1.061026	1
H	1.771889	0.404742	0.939466	1
H	2.329110	0.040932	-0.702214	1
H	1.294489	-2.075388	-0.046784	1
H	-1.181551	-2.192988	-0.050804	1
Es	0.920154	0.771341	-0.379906	99
Es	0.789079	1.439112	-0.560399	99
Es	-1.418342	0.000382	-0.001035	99
Es	-0.621558	1.296997	0.023400	99
Es	1.440989	0.133738	-0.069167	99
Es	-2.176426	-0.032601	0.308075	99
Es	0.698662	-1.167168	-0.056034	99
Es	-2.776919	0.242917	0.110222	99
Es	-2.749141	-0.337461	0.095723	99
Es	-1.017662	-0.633184	-0.043081	99
Es	1.652164	0.301589	0.622968	99
Es	1.058381	-0.526866	-0.057458	99
Es	-0.013943	-1.190807	-0.375081	99
Es	-0.023062	-1.188221	0.263459	99
Es	-1.004708	1.803307	-0.335054	99
Es	0.579274	1.086586	-0.901948	99
Es	0.168957	1.190346	-0.347436	99
Es	-2.218812	-0.021368	-0.193061	99
Es	2.037057	0.061155	-0.495145	99
Es	0.642455	1.179063	-0.618655	99
Es	-1.000257	-1.882265	-0.054712	99
Es	1.111968	-1.772823	-0.045632	99
Es	-0.638040	-1.257649	-0.056497	99
Es	-0.535521	1.494000	0.733145	99
Es	-2.641686	-0.043699	0.092432	99
Es	-1.007711	0.640017	0.004818	99
39
Properties=species:S:1:pos:R:3:Z:I:1 energy=-342.64944504151026 field_type=dipole dipole="0.000000 0.000000 0.000000" charge=0
O	-2.642030	-0.043708	0.092456	8
C	-1.418380	0.000382	-0.001034	6
C	-0.621751	1.297101	0.023486	6
O	0.642550	1.179251	-0.618964	8
C	1.441169	0.133642	-0.069094	6
C	0.698539	-1.167189	-0.056044	6
C	-0.638000	-1.257708	-0.056514	6
H	-1.190610	2.060861	-0.514984	1
H	-0.485420	1.620071	1.061026	1
H	1.771889	0.404742	0.939466	1
H	2.329110	0.040932	-0.702214	1
H	1.294489	-2.075388	-0.046784	1
H	-1.181551	-2.192988	-0.050804	1
Es	1.111940	-1.772876	-0.045626	99
Es	1.440988	0.133740	-0.069169	99
Es	-2.176260	-0.033396	0.307523	99
Es	-0.023030	-1.188285	0.263299	99
Es	0.698662	-1.167166	-0.056034	99
Es	-2.775183	0.243763	0.110566	99
Es	-0.638045	-1.257650	-0.056551	99
Es	2.037024	0.061106	-0.495119	99
Es	0.642473	1.179088	-0.618567	99
Es	0.580405	1.088428	-0.903898	99
Es	1.058395	-0.526731	-0.057456	99
Es	-0.013932	-1.190780	-0.374925	99
Es	0.168698	1.190164	-0.347705	99
Es	-1.017666	-0.633170	-0.042985	99
Es	-1.000253	-1.882287	-0.054730	99
Es	-1.004753	1.803240	-0.335039	99
Es	-2.750839	-0.336959	0.096096	99
Es	-0.621557	1.296997	0.023399	99
Es	-2.218988	-0.021994	-0.193265	99
Es	-0.535496	1.494065	0.733119	99
Es	-1.418338	0.000383	-0.001037	99
Es	0.920289	0.771392	-0.379945	99
Es	1.652189	0.301570	0.622987	99
Es	0.788053	1.437412	-0.558344	99
Es	-2.641710	-0.043687	0.092437	99
Es	-1.007718	0.640068	0.004908	99
39
Properties=species:S:1:pos:R:3:Z:I:1 energy=-342.64944504151026 field_type=dipole dipole="0.000000 0.000000 0.000000" charge=0
O	-2.642030	-0.043708	0.092456	8
C	-1.418380	0.000382	-0.001034	6
C	-0.621751	1.297101	0.023486	6
O	0.642550	1.179251	-0.618964	8
C	1.441169	0.133642	-0.069094	6
C	0.698539	-1.167189	-0.056044	6
C	-0.638000	-1.257708	-0.056514	6
H	-1.190610	2.060861	-0.514984	1
H	-0.485420	1.620071	1.061026	1
H	1.771889	0.404742	0.939466	1
H	2.329110	0.040932	-0.702214	1
H	1.294489	-2.075388	-0.046784	1
H	-1.181551	-2.192988	-0.050804	1
Es	-0.022935	-1.188245	0.263293	99
Es	-2.641661	-0.043761	0.092432	99
Es	1.652123	0.301557	0.622988	99
Es	-2.219220	-0.021671	-0.193148	99
Es	-1.017712	-0.633239	-0.043067	99
Es	0.167969	1.189508	-0.348695	99
Es	1.111907	-1.772981	-0.045661	99
Es	-1.004837	1.803093	-0.335141	99
Es	1.440988	0.133740	-0.069169	99
Es	-1.418339	0.000382	-0.001037	99
Es	1.058451	-0.526741	-0.057476	99
Es	0.698663	-1.167165	-0.056033	99
Es	-2.176022	-0.032709	0.307868	99
Es	-0.621564	1.296998	0.023404	99
Es	-1.000223	-1.882330	-0.054841	99
Es	-0.014009	-1.190641	-0.374726	99
Es	-0.638053	-1.257651	-0.056521	99
Es	-0.535539	1.494191	0.733105	99
Es	-1.007606	0.640080	0.005031	99
Es	0.642470	1.179053	-0.618734	99
Es	0.788226	1.438201	-0.558059	99
Es	0.580973	1.088959	-0.902523	99
Es	2.037071	0.061150	-0.495038	99
Es	-2.776588	0.243060	0.110270	99
Es	-2.749491	-0.337154	0.095926	99
Es	0.920306	0.770753	-0.380508	99
39
Properties=species:S:1:pos:R:3:Z:I:1 energy=-342.64944504151026 field_type=dipole dipole="0.000000 0.000000 0.000000" charge=0
O	-2.642030	-0.043708	0.092456	8
C	-1.418380	0.000382	-0.001034	6
C	-0.621751	1.297101	0.023486	6
O	0.642550	1.179251	-0.618964	8
C	1.441169	0.133642	-0.069094	6
C	0.698539	-1.167189	-0.056044	6
C	-0.638000	-1.257708	-0.056514	6
H	-1.190610	2.060861	-0.514984	1
H	-0.485420	1.620071	1.061026	1
H	1.771889	0.404742	0.939466	1
H	2.329110	0.040932	-0.702214	1
H	1.294489	-2.075388	-0.046784	1
H	-1.181551	-2.192988	-0.050804	1
Es	0.698660	-1.167166	-0.056034	99
Es	1.440987	0.133740	-0.069170	99
Es	0.920478	0.771505	-0.379774	99
Es	-0.638047	-1.257646	-0.056522	99
Es	-0.535572	1.494046	0.733122	99
Es	0.642441	1.179038	-0.618683	99
Es	1.058434	-0.526639	-0.057487	99
Es	-1.418338	0.000383	-0.001035	99
Es	-2.176247	-0.032370	0.308130	99
Es	0.168892	1.191037	-0.347167	99
Es	1.652126	0.301505	0.622961	99
Es	2.037092	0.061130	-0.495060	99
Es	0.789787	1.440134	-0.563488	99
Es	-1.017705	-0.633277	-0.042973	99
Es	-2.778304	0.242240	0.110450	99
Es	-0.023003	-1.188252	0.263215	99
Es	-2.219010	-0.021282	-0.193439	99
Es	-1.000232	-1.882320	-0.054820	99
Es	-1.007709	0.640168	0.004849	99
Es	0.578359	1.084775	-0.899365	99
Es	-2.747738	-0.337231	0.095811	99
Es	-2.641665	-0.043605	0.092431	99
Es	-1.004768	1.803207	-0.335037	99
Es	1.111909	-1.772970	-0.045626	99
Es	-0.013922	-1.190714	-0.374750	99
Es	-0.621559	1.296997	0.023400	99
39
Properties=species:S:1:pos:R:3:Z:I:1 energy=-342.64944504151026 field_type=dipole dipole="0.000000 0.000000 0.000000" charge=0
O	-2.642030	-0.043708	0.092456	8
C	-1.418380	0.000382	-0.001034	6
C	-0.621751	1.297101	0.023486	6
O	0.642550	1.179251	-0.618964	8
C	1.441169	0.133642	-0.069094	6
C	0.698539	-1.167189	-0.056044	6
C	-0.638000	-1.257708	-0.056514	6
H	-1.190610	2.060861	-0.514984	1
H	-0.485420	1.620071	1.061026	1
H	1.771889	0.404742	0.939466	1
H	2.329110	0.040932	-0.702214	1
H	1.294489	-2.075388	-0.046784	1
H	-1.181551	-2.192988	-0.050804	1
Es	-2.219166	-0.021538	-0.193701	99
Es	0.579889	1.086954	-0.900930	99
Es	-1.000215	-1.882307	-0.054822	99
Es	-1.418339	0.000382	-0.001038	99
Es	-1.004785	1.803178	-0.335061	99
Es	-0.535571	1.494058	0.733160	99
Es	1.652155	0.301502	0.622915	99
Es	-0.022998	-1.188212	0.263317	99
Es	1.111928	-1.772987	-0.045663	99
Es	0.168213	1.190438	-0.347789	99
Es	-0.638050	-1.257648	-0.056528	99
Es	-0.013907	-1.190753	-0.374631	99
Es	0.698661	-1.167166	-0.056033	99
Es	-2.777557	0.242041	0.110048	99
Es	0.788529	1.438656	-0.561136	99
Es	-2.176120	-0.031822	0.308190	99
Es	-2.748346	-0.337231	0.096402	99
Es	-1.007667	0.640212	0.004881	99
Es	0.642405	1.178967	-0.618740	99
Es	2.037085	0.061091	-0.495065	99
Es	0.920891	0.771493	-0.379905	99
Es	1.440989	0.133739	-0.069168	99
Es	-0.621560	1.296998	0.023400	99
Es	-2.641769	-0.043694	0.092434	99
Es	-1.017745	-0.633344	-0.043155	99
Es	1.058398	-0.526569	-0.057441	99
39
Properties=species:S:1:pos:R:3:Z:I:1 energy=-342.64944504151026 field_type=dipole dipole="0.000000 0.000000 0.000000" charge=0
O	-2.642030	-0.043708	0.092456	8
C	-1.418380	0.000382	-0.001034	6
C	-0.621751	1.297101	0.023486	6
O	0.642550	1.179251	-0.618964	8
C	1.441169	0.133642	-0.069094	6
C	0.698539	-1.167189	-0.056044	6
C	-0.638000	-1.257708	-0.056514	6
H	-1.190610	2.060861	-0.514984	1
H	-0.485420	1.620071	1.061026	1
H	1.771889	0.404742	0.939466	1
H	2.329110	0.040932	-0.702214	1
H	1.294489	-2.075388	-0.046784	1
H	-1.181551	-2.192988	-0.050804	1
Es	-1.017697	-0.633334	-0.043012	99
Es	-0.535643	1.494076	0.733151	99
Es	0.921105	0.771448	-0.379864	99
Es	-0.638054	-1.257651	-0.056523	99
Es	-1.418337	0.000382	-0.001029	99
Es	0.579519	1.086565	-0.900432	99
Es	0.642477	1.179088	-0.618741	99
Es	-2.176054	-0.033117	0.308187	99
Es	1.111897	-1.773027	-0.045655	99
Es	1.058386	-0.526498	-0.057374	99
Es	0.788569	1.438586	-0.561864	99
Es	-2.641649	-0.043672	0.092429	99
Es	-2.219139	-0.022799	-0.193708	99
Es	-0.013934	-1.190704	-0.374607	99
Es	0.698660	-1.167166	-0.056034	99
Es	1.652267	0.301521	0.622887	99
Es	1.440991	0.133734	-0.069166	99
Es	-0.022947	-1.188292	0.263130	99
Es	-2.750812	-0.335978	0.096585	99
Es	2.036997	0.061031	-0.495089	99
Es	-1.000267	-1.882305	-0.054828	99
Es	0.168326	1.190844	-0.347585	99
Es	-1.007694	0.640264	0.004871	99
Es	-0.621558	1.296997	0.023399	99
Es	-2.775302	0.243304	0.109866	99
Es	-1.004760	1.803141	-0.335055	99
