38
Properties=species:S:1:pos:R:3:Z:I:1 energy=-305.61478997634646 field_type=dipole dipole="0.000000 0.000000 0.000000" charge=0
O	-1.098992	-2.478135	-0.400258	8
C	-0.920522	-1.597035	0.438402	6
C	0.253688	-0.626935	0.444752	6
C	-0.179402	0.724725	0.953102	6
C	0.017608	1.653185	0.001972	6
C	0.571238	1.025085	-1.170398	6
C	0.721228	-0.287805	-0.943928	6
H	-1.579892	-1.543735	1.322812	1
H	1.058238	-1.034875	1.063642	1
H	-0.571512	0.919165	1.940352	1
H	-0.191252	2.709765	0.082872	1
H	0.815998	1.547665	-2.083308	1
H	1.103578	-1.011075	-1.650018	1
Es	0.734533	1.385706	-1.785896	99
Es	-0.179402	0.724600	0.953166	99
Es	0.021603	0.022186	0.736072	99
Es	0.205099	1.238079	0.599216	99
Es	-0.122407	2.369689	0.051535	99
Es	-0.327971	-1.088822	0.432117	99
Es	0.721222	-0.287915	-0.943843	99
Es	0.493622	-0.501803	-0.246914	99
Es	0.253634	-0.626946	0.444754	99
Es	-0.887995	-2.312569	0.034553	99
Es	-0.920487	-1.596990	0.438383	99
Es	-0.885903	-2.472645	-0.627854	99
Es	0.017624	1.653256	0.001891	99
Es	0.980463	-0.780215	-1.409182	99
Es	0.768364	-0.901570	0.850163	99
Es	0.944244	0.430975	-0.948780	99
Es	0.295047	1.391801	-0.609890	99
Es	0.354187	0.325696	-1.165481	99
Es	-1.366163	-1.542194	1.047688	99
Es	-1.348089	-2.651795	-0.334967	99
Es	-1.178876	-1.992574	-0.226669	99
Es	-0.383598	1.135737	0.376724	99
Es	-1.098949	-2.477929	-0.400049	99
Es	-0.446872	0.838545	1.624969	99
Es	0.571223	1.025201	-1.170401	99
38
Properties=species:S:1:pos:R:3:Z:I:1 energy=-305.61478997634646 field_type=dipole dipole="0.000000 0.000000 0.000000" charge=0
O	-1.098992	-2.478135	-0.400258	8
C	-0.920522	-1.597035	0.438402	6
C	0.253688	-0.626935	0.444752	6
C	-0.179402	0.724725	0.953102	6
C	0.017608	1.653185	0.001972	6
C	0.571238	1.025085	-1.170398	6
C	0.721228	-0.287805	-0.943928	6
H	-1.579892	-1.543735	1.322812	1
H	1.058238	-1.034875	1.063642	1
H	-0.571512	0.919165	1.940352	1
H	-0.191252	2.709765	0.082872	1
H	0.815998	1.547665	-2.083308	1
H	1.103578	-1.011075	-1.650018	1
Es	-0.179401	0.724599	0.953165	99
Es	0.204926	1.237990	0.599108	99
Es	-1.347505	-2.652132	-0.335428	99
Es	-0.886035	-2.472043	-0.627878	99
Es	-1.098948	-2.477885	-0.400017	99
Es	-1.366162	-1.542176	1.047707	99
Es	0.721235	-0.287917	-0.943841	99
Es	-1.179446	-1.992506	-0.226064	99
Es	0.017620	1.653260	0.001890	99
Es	-0.920487	-1.596993	0.438381	99
Es	0.571220	1.025202	-1.170403	99
Es	0.253636	-0.626946	0.444754	99
Es	0.021473	0.022127	0.735935	99
Es	0.734627	1.385650	-1.785905	99
Es	-0.122521	2.369811	0.051525	99
Es	0.768441	-0.901431	0.850239	99
Es	-0.327853	-1.088901	0.432055	99
Es	0.980509	-0.780120	-1.409317	99
Es	-0.887891	-2.313005	0.034481	99
Es	0.354298	0.325799	-1.165373	99
Es	-0.446968	0.838555	1.624969	99
Es	0.295155	1.391769	-0.609746	99
Es	0.944022	0.430931	-0.948821	99
Es	0.493528	-0.501928	-0.246920	99
Es	-0.383320	1.135792	0.376807	99
38
Properties=species:S:1:pos:R:3:Z:I:1 energy=-305.61478997634646 field_type=dipole dipole="0.000000 0.000000 0.000000" charge=0
O	-1.098992	-2.478135	-0.400258	8
C	-0.920522	-1.597035	0.438402	6
C	0.253688	-0.626935	0.444752	6
C	-0.179402	0.724725	0.953102	6
C	0.017608	1.653185	0.001972	6
C	0.571238	1.025085	-1.170398	6
C	0.721228	-0.287805	-0.943928	6
H	-1.579892	-1.543735	1.322812	1
H	1.058238	-1.034875	1.063642	1
H	-0.571512	0.919165	1.940352	1
H	-0.191252	2.709765	0.082872	1
H	0.815998	1.547665	-2.083308	1
H	1.103578	-1.011075	-1.650018	1
Es	-1.179426	-1.992640	-0.226573	99
Es	0.204825	1.238065	0.599147	99
Es	0.021372	0.022049	0.736026	99
Es	0.017627	1.653256	0.001892	99
Es	-0.327746	-1.088936	0.432148	99
Es	-0.920484	-1.596992	0.438386	99
Es	-0.446996	0.838718	1.624957	99
Es	-1.366237	-1.542209	1.047654	99
Es	-0.122572	2.369756	0.051424	99
Es	-0.179402	0.724607	0.953158	99
Es	-0.885287	-2.472056	-0.627266	99
Es	0.354357	0.325817	-1.165288	99
Es	0.980543	-0.780182	-1.409326	99
Es	0.253637	-0.626945	0.444753	99
Es	0.493500	-0.501805	-0.246807	99
Es	-0.888614	-2.312745	0.035007	99
Es	0.571214	1.025197	-1.170404	99
Es	-1.347549	-2.652206	-0.336046	99
Es	0.768494	-0.901445	0.850204	99
Es	0.721220	-0.287912	-0.943842	99
Es	0.734599	1.385684	-1.785990	99
Es	0.295343	1.391656	-0.609729	99
Es	-0.383223	1.135755	0.376775	99
Es	-1.098915	-2.477899	-0.400061	99
Es	0.943872	0.430916	-0.948896	99
38
Properties=species:S:1:pos:R:3:Z:I:1 energy=-305.61478997634646 field_type=dipole dipole="0.000000 0.000000 0.000000" charge=0
O	-1.098992	-2.478135	-0.400258	8
C	-0.920522	-1.597035	0.438402	6
C	0.253688	-0.626935	0.444752	6
C	-0.179402	0.724725	0.953102	6
C	0.017608	1.653185	0.001972	6
C	0.571238	1.025085	-1.170398	6
C	0.721228	-0.287805	-0.943928	6
H	-1.579892	-1.543735	1.322812	1
H	1.058238	-1.034875	1.063642	1
H	-0.571512	0.919165	1.940352	1
H	-0.191252	2.709765	0.082872	1
H	0.815998	1.547665	-2.083308	1
H	1.103578	-1.011075	-1.650018	1
Es	-1.098961	-2.477914	-0.400030	99
Es	-0.179403	0.724602	0.953163	99
Es	-1.347175	-2.652620	-0.335964	99
Es	0.571213	1.025198	-1.170405	99
Es	0.017633	1.653256	0.001895	99
Es	0.943647	0.430872	-0.949100	99
Es	0.493405	-0.501937	-0.246703	99
Es	-0.122501	2.369771	0.051699	99
Es	0.021507	0.021955	0.735940	99
Es	0.204407	1.238034	0.599013	99
Es	-0.446961	0.838788	1.624958	99
Es	0.295556	1.391960	-0.609736	99
Es	-0.383170	1.135598	0.376730	99
Es	-0.920490	-1.596986	0.438382	99
Es	-1.366186	-1.542240	1.047672	99
Es	0.734616	1.385549	-1.786053	99
Es	-1.179865	-1.992435	-0.227447	99
Es	0.980607	-0.780058	-1.409405	99
Es	-0.889137	-2.311997	0.035082	99
Es	-0.884768	-2.472569	-0.626547	99
Es	-0.327649	-1.088935	0.432195	99
Es	0.253636	-0.626946	0.444753	99
Es	0.354495	0.325901	-1.165136	99
Es	0.721208	-0.287917	-0.943847	99
Es	0.768490	-0.901430	0.850197	99
38
Properties=species:S:1:pos:R:3:Z:I:1 energy=-305.61478997634646 field_type=dipole dipole="0.000000 0.000000 0.000000" charge=0
O	-1.098992	-2.478135	-0.400258	8
C	-0.920522	-1.597035	0.438402	6
C	0.253688	-0.626935	0.444752	6
C	-0.179402	0.724725	0.953102	6
C	0.017608	1.653185	0.001972	6
C	0.571238	1.025085	-1.170398	6
C	0.721228	-0.287805	-0.943928	6
H	-1.579892	-1.543735	1.322812	1
H	1.058238	-1.034875	1.063642	1
H	-0.571512	0.919165	1.940352	1
H	-0.191252	2.709765	0.082872	1
H	0.815998	1.547665	-2.083308	1
H	1.103578	-1.011075	-1.650018	1
Es	-0.447039	0.838814	1.624937	99
Es	0.021408	0.021890	0.735937	99
Es	-1.098904	-2.477870	-0.400049	99
Es	-0.327673	-1.088822	0.432157	99
Es	0.980630	-0.780007	-1.409470	99
Es	-0.886658	-2.471901	-0.628281	99
Es	0.943444	0.430818	-0.949086	99
Es	-0.122551	2.369784	0.051738	99
Es	-0.179403	0.724603	0.953161	99
Es	0.571219	1.025201	-1.170402	99
Es	0.204575	1.237967	0.598947	99
Es	-1.180355	-1.992954	-0.226097	99
Es	0.017625	1.653255	0.001892	99
Es	-1.346642	-2.652733	-0.334568	99
Es	-0.920486	-1.596990	0.438385	99
Es	0.493450	-0.501932	-0.246642	99
Es	0.354688	0.325886	-1.165146	99
Es	0.253636	-0.626945	0.444754	99
Es	0.734679	1.385580	-1.786058	99
Es	0.721222	-0.287914	-0.943844	99
Es	-0.887240	-2.312100	0.034101	99
Es	-1.366275	-1.542288	1.047655	99
Es	-0.382926	1.135795	0.376836	99
Es	0.768466	-0.901515	0.850210	99
Es	0.295263	1.391883	-0.609761	99
38
Properties=species:S:1:pos:R:3:Z:I:1 energy=-305.61478997634646 field_type=dipole dipole="0.000000 0.000000 0.000000" charge=0
O	-1.098992	-2.478135	-0.400258	8
C	-0.920522	-1.597035	0.438402	6
C	0.253688	-0.626935	0.444752	6
C	-0.179402	0.724725	0.953102	6
C	0.017608	1.653185	0.001972	6
C	0.571238	1.025085	-1.170398	6
C	0.721228	-0.287805	-0.943928	6
H	-1.579892	-1.543735	1.322812	1
H	1.058238	-1.034875	1.063642	1
H	-0.571512	0.919165	1.940352	1
H	-0.191252	2.709765	0.082872	1
H	0.815998	1.547665	-2.083308	1
H	1.103578	-1.011075	-1.650018	1
Es	0.017624	1.653255	0.001892	99
Es	0.204352	1.237983	0.598894	99
Es	-1.179326	-1.992515	-0.226297	99
Es	-0.920486	-1.596993	0.438385	99
Es	0.571222	1.025199	-1.170404	99
Es	-1.366318	-1.542278	1.047630	99
Es	-0.179413	0.724600	0.953157	99
Es	0.295319	1.391862	-0.609714	99
Es	0.768457	-0.901565	0.850193	99
Es	-0.886196	-2.472556	-0.627819	99
Es	-0.887982	-2.312815	0.034569	99
Es	0.980647	-0.779976	-1.409517	99
Es	0.493406	-0.501934	-0.246582	99
Es	0.253636	-0.626946	0.444754	99
Es	0.354824	0.325943	-1.165120	99
Es	-1.098924	-2.477893	-0.400045	99
Es	-1.347355	-2.651815	-0.335256	99
Es	-0.382786	1.135706	0.376830	99
Es	0.721223	-0.287912	-0.943845	99
Es	0.734677	1.385566	-1.786094	99
Es	-0.122555	2.369834	0.051784	99
Es	-0.447037	0.838892	1.624936	99
Es	0.943316	0.430819	-0.949130	99
Es	-0.327627	-1.088786	0.432145	99
Es	0.021455	0.021829	0.735959	99
38
Properties=species:S:1:pos:R:3:Z:I:1 energy=-305.61478997634646 field_type=dipole dipole="0.000000 0.000000 0.000000" charge=0
O	-1.098992	-2.478135	-0.400258	8
C	-0.920522	-1.597035	0.438402	6
C	0.253688	-0.626935	0.444752	6
C	-0.179402	0.724725	0.953102	6
C	0.017608	1.653185	0.001972	6
C	0.571238	1.025085	-1.170398	6
C	0.721228	-0.287805	-0.943928	6
H	-1.579892	-1.543735	1.322812	1
H	1.058238	-1.034875	1.063642	1
H	-0.571512	0.919165	1.940352	1
H	-0.191252	2.709765	0.082872	1
H	0.815998	1.547665	-2.083308	1
H	1.103578	-1.011075	-1.650018	1
Es	-0.179404	0.724603	0.953160	99
Es	-0.122585	2.369857	0.051867	99
Es	0.253634	-0.626945	0.444753	99
Es	-1.347199	-2.651124	-0.335073	99
Es	0.721236	-0.287905	-0.943843	99
Es	-1.098944	-2.477933	-0.400062	99
Es	-1.179258	-1.992436	-0.226381	99
Es	0.768449	-0.901581	0.850213	99
Es	-0.886192	-2.473135	-0.628099	99
Es	0.355382	0.325884	-1.165294	99
Es	0.493270	-0.502013	-0.246585	99
Es	-0.920485	-1.596991	0.438385	99
Es	0.734652	1.385484	-1.786175	99
Es	-0.447086	0.838926	1.624943	99
Es	-0.382591	1.135794	0.376913	99
Es	0.295034	1.391857	-0.609847	99
Es	0.021379	0.021788	0.735923	99
Es	0.943159	0.430960	-0.948686	99
Es	-1.366353	-1.542288	1.047632	99
Es	0.017626	1.653256	0.001893	99
Es	0.204333	1.237903	0.598780	99
Es	0.980623	-0.779916	-1.409647	99
Es	-0.888189	-2.312969	0.034782	99
Es	-0.327557	-1.088771	0.432154	99
Es	0.571219	1.025201	-1.170402	99
38
Properties=species:S:1:pos:R:3:Z:I:1 energy=-305.61478997634646 field_type=dipole dipole="0.000000 0.000000 0.000000" charge=0
O	-1.098992	-2.478135	-0.400258	8
C	-0.920522	-1.597035	0.438402	6
C	0.253688	-0.626935	0.444752	6
C	-0.179402	0.724725	0.953102	6
C	0.017608	1.653185	0.001972	6
C	0.571238	1.025085	-1.170398	6
C	0.721228	-0.287805	-0.943928	6
H	-1.579892	-1.543735	1.322812	1
H	1.058238	-1.034875	1.063642	1
H	-0.571512	0.919165	1.940352	1
H	-0.191252	2.709765	0.082872	1
H	0.815998	1.547665	-2.083308	1
H	1.103578	-1.011075	-1.650018	1
Es	-1.347143	-2.651257	-0.334915	99
Es	0.721221	-0.287915	-0.943847	99
Es	-0.122664	2.369868	0.051848	99
Es	0.295592	1.391881	-0.609595	99
Es	-0.886434	-2.472873	-0.628352	99
Es	-0.920487	-1.596989	0.438384	99
Es	0.355099	0.326004	-1.164938	99
Es	-0.327574	-1.088642	0.431975	99
Es	0.980809	-0.779826	-1.409695	99
Es	0.204081	1.237961	0.598796	99
Es	-1.179318	-1.992548	-0.225990	99
Es	0.734674	1.385497	-1.786245	99
Es	-1.366365	-1.542322	1.047610	99
Es	-0.887970	-2.312998	0.034517	99
Es	0.253636	-0.626945	0.444753	99
Es	-0.447157	0.838960	1.624903	99
Es	0.571223	1.025201	-1.170401	99
Es	0.493461	-0.501990	-0.246404	99
Es	0.768342	-0.901769	0.850253	99
Es	0.942763	0.430758	-0.949210	99
Es	0.017622	1.653253	0.001893	99
Es	-1.098939	-2.477928	-0.400063	99
Es	-0.179395	0.724615	0.953161	99
Es	-0.382453	1.135800	0.376932	99
Es	0.021528	0.021705	0.735934	99
38
Properties=species:S:1:pos:R:3:Z:I:1 energy=-305.61478997634646 field_type=dipole dipole="0.000000 0.000000 0.000000" charge=0
O	-1.098992	-2.478135	-0.400258	8
C	-0.920522	-1.597035	0.438402	6
C	0.253688	-0.626935	0.444752	6
C	-0.179402	0.724725	0.953102	6
C	0.017608	1.653185	0.001972	6
C	0.571238	1.025085	-1.170398	6
C	0.721228	-0.287805	-0.943928	6
H	-1.579892	-1.543735	1.322812	1
H	1.058238	-1.034875	1.063642	1
H	-0.571512	0.919165	1.940352	1
H	-0.191252	2.709765	0.082872	1
H	0.815998	1.547665	-2.083308	1
H	1.103578	-1.011075	-1.650018	1
Es	-0.885302	-2.471310	-0.626614	99
Es	-0.382378	1.135785	0.376962	99
Es	-0.122620	2.369896	0.051920	99
Es	0.571220	1.025202	-1.170402	99
Es	0.493259	-0.502046	-0.246359	99
Es	0.017625	1.653254	0.001893	99
Es	0.021380	0.021704	0.735974	99
Es	0.721221	-0.287911	-0.943845	99
Es	0.253635	-0.626944	0.444754	99
Es	-0.447029	0.839098	1.624944	99
Es	-0.179379	0.724603	0.953169	99
Es	0.295296	1.391872	-0.609737	99
Es	-1.366351	-1.542373	1.047617	99
Es	-0.888719	-2.312588	0.035002	99
Es	-1.098960	-2.477891	-0.399999	99
Es	0.734721	1.385484	-1.786226	99
Es	-1.346661	-2.653056	-0.336849	99
Es	0.355257	0.326066	-1.164924	99
Es	-0.920486	-1.596991	0.438386	99
Es	0.980697	-0.779817	-1.409699	99
Es	-1.180202	-1.992745	-0.226337	99
Es	-0.327474	-1.088646	0.432065	99
Es	0.768431	-0.901770	0.850145	99
Es	0.204058	1.237835	0.598676	99
Es	0.942913	0.430794	-0.949211	99
38
Properties=species:S:1:pos:R:3:Z:I:1 energy=-305.61478997634646 field_type=dipole dipole="0.000000 0.000000 0.000000" charge=0
O	-1.098992	-2.478135	-0.400258	8
C	-0.920522	-1.597035	0.438402	6
C	0.253688	-0.626935	0.444752	6
C	-0.179402	0.724725	0.953102	6
C	0.017608	1.653185	0.001972	6
C	0.571238	1.025085	-1.170398	6
C	0.721228	-0.287805	-0.943928	6
H	-1.579892	-1.543735	1.322812	1
H	1.058238	-1.034875	1.063642	1
H	-0.571512	0.919165	1.940352	1
H	-0.191252	2.709765	0.082872	1
H	0.815998	1.547665	-2.083308	1
H	1.103578	-1.011075	-1.650018	1
Es	0.253636	-0.626945	0.444754	99
Es	-0.179403	0.724604	0.953159	99
Es	-0.920485	-1.596990	0.438386	99
Es	0.017625	1.653254	0.001893	99
Es	0.942714	0.430746	-0.949269	99
Es	0.980762	-0.779788	-1.409759	99
Es	-0.382368	1.135825	0.376915	99
Es	-0.122581	2.369844	0.051967	99
Es	0.295182	1.391873	-0.609784	99
Es	-1.346608	-2.651733	-0.335940	99
Es	0.021711	0.021788	0.736007	99
Es	-0.447184	0.839074	1.624898	99
Es	0.355487	0.326124	-1.164795	99
Es	0.493280	-0.502122	-0.246300	99
Es	-1.098938	-2.477908	-0.400047	99
Es	0.734713	1.385428	-1.786324	99
Es	-1.179815	-1.992063	-0.226511	99
Es	-1.366401	-1.542329	1.047580	99
Es	0.571219	1.025199	-1.170402	99
Es	-0.888010	-2.313266	0.034957	99
Es	-0.886440	-2.472660	-0.627215	99
Es	0.204007	1.237867	0.598700	99
Es	0.721221	-0.287912	-0.943844	99
Es	-0.327550	-1.088637	0.432143	99
Es	0.768380	-0.901768	0.850134	99
38
Properties=species:S:1:pos:R:3:Z:I:1 energy=-305.61478997634646 field_type=dipole dipole="0.000000 0.000000 0.000000" charge=0
O	-1.098992	-2.478135	-0.400258	8
C	-0.920522	-1.597035	0.438402	6
C	0.253688	-0.626935	0.444752	6
C	-0.179402	0.724725	0.953102	6
C	0.017608	1.653185	0.001972	6
C	0.571238	1.025085	-1.170398	6
C	0.721228	-0.287805	-0.943928	6
H	-1.579892	-1.543735	1.322812	1
H	1.058238	-1.034875	1.063642	1
H	-0.571512	0.919165	1.940352	1
H	-0.191252	2.709765	0.082872	1
H	0.815998	1.547665	-2.083308	1
H	1.103578	-1.011075	-1.650018	1
Es	0.768387	-0.901737	0.850250	99
Es	-0.327384	-1.088678	0.432063	99
Es	-0.122693	2.369943	0.052002	99
Es	-0.179403	0.724604	0.953161	99
Es	0.203868	1.237795	0.598593	99
Es	0.721225	-0.287912	-0.943843	99
Es	0.021347	0.021540	0.735869	99
Es	-1.366431	-1.542372	1.047583	99
Es	0.295404	1.391842	-0.609702	99
Es	0.942420	0.430627	-0.949575	99
Es	-0.920485	-1.596989	0.438385	99
Es	-1.347452	-2.650397	-0.333920	99
Es	0.980842	-0.779775	-1.409778	99
Es	-0.886644	-2.474740	-0.628244	99
Es	0.017625	1.653254	0.001894	99
Es	-1.178619	-1.992121	-0.227004	99
Es	0.253636	-0.626944	0.444752	99
Es	-0.888203	-2.312497	0.034452	99
Es	-0.381990	1.135899	0.377075	99
Es	0.571219	1.025198	-1.170401	99
Es	-0.447171	0.839183	1.624879	99
Es	0.355223	0.326182	-1.164646	99
Es	0.734902	1.385459	-1.786288	99
Es	-1.098893	-2.477848	-0.400051	99
Es	0.493422	-0.502012	-0.246202	99
38
Properties=species:S:1:pos:R:3:Z:I:1 energy=-305.61478997634646 field_type=dipole dipole="0.000000 0.000000 0.000000" charge=0
O	-1.098992	-2.478135	-0.400258	8
C	-0.920522	-1.597035	0.438402	6
C	0.253688	-0.626935	0.444752	6
C	-0.179402	0.724725	0.953102	6
C	0.017608	1.653185	0.001972	6
C	0.571238	1.025085	-1.170398	6
C	0.721228	-0.287805	-0.943928	6
H	-1.579892	-1.543735	1.322812	1
H	1.058238	-1.034875	1.063642	1
H	-0.571512	0.919165	1.940352	1
H	-0.191252	2.709765	0.082872	1
H	0.815998	1.547665	-2.083308	1
H	1.103578	-1.011075	-1.650018	1
Es	0.021327	0.021480	0.735920	99
Es	0.203713	1.237809	0.598524	99
Es	0.980849	-0.779703	-1.409856	99
Es	-0.885064	-2.470922	-0.626419	99
Es	-0.327343	-1.088658	0.432041	99
Es	-0.179400	0.724612	0.953157	99
Es	-0.920484	-1.596990	0.438387	99
Es	-0.889144	-2.313328	0.035221	99
Es	-1.099022	-2.477892	-0.399938	99
Es	0.768405	-0.901748	0.850198	99
Es	-1.346479	-2.652865	-0.337797	99
Es	0.253634	-0.626944	0.444755	99
Es	-1.366457	-1.542381	1.047565	99
Es	0.295336	1.391833	-0.609745	99
Es	0.017625	1.653255	0.001893	99
Es	-0.381889	1.135875	0.377088	99
Es	0.493250	-0.502060	-0.246209	99
Es	-1.180081	-1.992646	-0.225765	99
Es	-0.122682	2.369955	0.052071	99
Es	-0.447184	0.839246	1.624863	99
Es	0.571219	1.025200	-1.170401	99
Es	0.942412	0.430677	-0.949387	99
Es	0.734803	1.385416	-1.786339	99
Es	0.355591	0.326199	-1.164678	99
Es	0.721217	-0.287915	-0.943846	99
38
Properties=species:S:1:pos:R:3:Z:I:1 energy=-305.61478997634646 field_type=dipole dipole="0.000000 0.000000 0.000000" charge=0
O	-1.098992	-2.478135	-0.400258	8
C	-0.920522	-1.597035	0.438402	6
C	0.253688	-0.626935	0.444752	6
C	-0.179402	0.724725	0.953102	6
C	0.017608	1.653185	0.001972	6
C	0.571238	1.025085	-1.170398	6
C	0.721228	-0.287805	-0.943928	6
H	-1.579892	-1.543735	1.322812	1
H	1.058238	-1.034875	1.063642	1
H	-0.571512	0.919165	1.940352	1
H	-0.191252	2.709765	0.082872	1
H	0.815998	1.547665	-2.083308	1
H	1.103578	-1.011075	-1.650018	1
Es	-1.098901	-2.477883	-0.400045	99
Es	-1.347194	-2.650855	-0.334261	99
Es	-0.887802	-2.312564	0.034395	99
Es	-0.447219	0.839303	1.624858	99
Es	0.734817	1.385419	-1.786349	99
Es	0.253640	-0.626944	0.444756	99
Es	0.021311	0.021463	0.735861	99
Es	-0.920485	-1.596991	0.438384	99
Es	0.017624	1.653253	0.001894	99
Es	0.571220	1.025198	-1.170401	99
Es	-0.122723	2.369994	0.052156	99
Es	-0.179402	0.724604	0.953160	99
Es	0.295338	1.391876	-0.609714	99
Es	-0.886979	-2.474094	-0.628073	99
Es	-1.366486	-1.542397	1.047567	99
Es	0.721221	-0.287911	-0.943845	99
Es	0.203717	1.237624	0.598420	99
Es	-0.381712	1.135972	0.377151	99
Es	0.768361	-0.901815	0.850225	99
Es	0.355484	0.326272	-1.164505	99
Es	0.942310	0.430604	-0.949678	99
Es	0.493379	-0.502113	-0.246064	99
Es	-1.178924	-1.992222	-0.226734	99
Es	0.980878	-0.779652	-1.409878	99
Es	-0.327320	-1.088637	0.432023	99
38
Properties=species:S:1:pos:R:3:Z:I:1 energy=-305.61478997634646 field_type=dipole dipole="0.000000 0.000000 0.000000" charge=0
O	-1.098992	-2.478135	-0.400258	8
C	-0.920522	-1.597035	0.438402	6
C	0.253688	-0.626935	0.444752	6
C	-0.179402	0.724725	0.953102	6
C	0.017608	1.653185	0.001972	6
C	0.571238	1.025085	-1.170398	6
C	0.721228	-0.287805	-0.943928	6
H	-1.579892	-1.543735	1.322812	1
H	1.058238	-1.034875	1.063642	1
H	-0.571512	0.919165	1.940352	1
H	-0.191252	2.709765	0.082872	1
H	0.815998	1.547665	-2.083308	1
H	1.103578	-1.011075	-1.650018	1
Es	-1.366475	-1.542432	1.047573	99
Es	-0.179408	0.724601	0.953156	99
Es	0.734812	1.385358	-1.786437	99
Es	0.980853	-0.779642	-1.409947	99
Es	-1.346661	-2.650163	-0.332948	99
Es	0.021279	0.021385	0.735875	99
Es	0.295329	1.391842	-0.609749	99
Es	0.768364	-0.901825	0.850237	99
Es	-0.122753	2.369986	0.052150	99
Es	-1.179250	-1.991962	-0.227273	99
Es	0.355868	0.326275	-1.164577	99
Es	-0.887202	-2.475367	-0.628551	99
Es	0.493264	-0.502116	-0.246035	99
Es	-0.447214	0.839395	1.624845	99
Es	-0.327238	-1.088634	0.432029	99
Es	0.017624	1.653253	0.001896	99
Es	0.942163	0.430668	-0.949457	99
Es	0.203529	1.237709	0.598411	99
Es	0.721211	-0.287915	-0.943846	99
Es	-1.098941	-2.478020	-0.400156	99
Es	-0.920484	-1.596990	0.438384	99
Es	0.571217	1.025199	-1.170403	99
Es	0.253638	-0.626944	0.444754	99
Es	-0.887781	-2.312084	0.034213	99
Es	-0.381590	1.135927	0.377160	99
38
Properties=species:S:1:pos:R:3:Z:I:1 energy=-305.61478997634646 field_type=dipole dipole="0.000000 0.000000 0.000000" charge=0
O	-1.098992	-2.478135	-0.400258	8
C	-0.920522	-1.597035	0.438402	6
C	0.253688	-0.626935	0.444752	6
C	-0.179402	0.724725	0.953102	6
C	0.017608	1.653185	0.001972	6
C	0.571238	1.025085	-1.170398	6
C	0.721228	-0.287805	-0.943928	6
H	-1.579892	-1.543735	1.322812	1
H	1.058238	-1.034875	1.063642	1
H	-0.571512	0.919165	1.940352	1
H	-0.191252	2.709765	0.082872	1
H	0.815998	1.547665	-2.083308	1
H	1.103578	-1.011075	-1.650018	1
Es	0.941970	0.430633	-0.949552	99
Es	0.017639	1.653255	0.001900	99
Es	0.734841	1.385311	-1.786487	99
Es	0.021310	0.021298	0.735804	99
Es	0.493144	-0.502113	-0.246044	99
Es	-1.366508	-1.542426	1.047514	99
Es	-0.888270	-2.312634	0.034821	99
Es	0.295348	1.391837	-0.609722	99
Es	-1.098970	-2.477915	-0.400019	99
Es	-0.381413	1.136005	0.377229	99
Es	0.571220	1.025200	-1.170401	99
Es	-0.886318	-2.472892	-0.627247	99
Es	-1.346649	-2.651782	-0.335635	99
Es	0.721235	-0.287900	-0.943842	99
Es	0.203421	1.237709	0.598392	99
Es	-0.447290	0.839400	1.624795	99
Es	-0.179402	0.724606	0.953158	99
Es	-0.327165	-1.088618	0.432123	99
Es	0.768401	-0.901803	0.850246	99
Es	0.253635	-0.626943	0.444754	99
Es	0.355981	0.326288	-1.164456	99
Es	-0.122772	2.370021	0.052180	99
Es	-0.920485	-1.596989	0.438387	99
Es	-1.179633	-1.992409	-0.226591	99
Es	0.980885	-0.779636	-1.410002	99
