42
Properties=species:S:1:pos:R:3:Z:I:1 energy=-343.8101813059484 field_type=dipole dipole="0.000000 0.000000 0.000000" charge=0
O	-0.567542	-1.821939	-1.491068	8
C	-0.396742	-1.420389	-0.140148	6
C	0.450438	-0.162149	-0.122338	6
C	-0.202112	1.114971	-0.729208	6
C	0.312938	1.864301	0.515472	6
O	0.462958	3.033001	0.799082	8
C	0.575228	0.540961	1.260002	6
H	-1.081292	-2.648489	-1.484688	1
H	0.100128	-2.228749	0.405072	1
H	-1.383982	-1.250099	0.301092	1
H	1.440738	-0.355839	-0.560698	1
H	-1.293962	1.106811	-0.795918	1
H	0.230008	1.453011	-1.673448	1
H	1.559028	0.471311	1.728802	1
H	-0.205832	0.303281	1.987992	1
Es	1.236234	0.497058	1.575816	99
Es	1.122072	-0.289397	-0.416704	99
Es	-0.516448	-1.690670	-0.971432	99
Es	-1.076771	-1.295282	0.174183	99
Es	0.096727	0.437543	-0.489934	99
Es	0.579030	3.067047	1.081275	99
Es	0.646004	2.600562	0.601667	99
Es	0.450392	-0.162098	-0.122291	99
Es	-0.288393	-1.893325	-1.593694	99
Es	-0.846637	-2.266395	-1.466978	99
Es	0.379570	3.217623	0.568700	99
Es	0.312941	1.864220	0.515458	99
Es	-0.743326	-1.607256	-1.622449	99
Es	0.174683	2.624628	0.792073	99
Es	-0.929123	1.108345	-0.751083	99
Es	-0.567630	-1.822116	-1.490801	99
Es	0.023059	-0.790414	-0.127713	99
Es	0.526385	0.119715	0.611035	99
Es	0.029148	1.556878	-0.151212	99
Es	-0.396759	-1.420442	-0.140367	99
Es	0.462919	3.032695	0.799010	99
Es	0.465260	1.230081	0.967263	99
Es	0.575208	0.540976	1.259955	99
Es	0.041158	0.388074	1.732987	99
Es	-0.202088	1.114966	-0.729148	99
Es	-0.054297	-1.975166	0.245325	99
Es	0.089064	1.347092	-1.358759	99
42
Properties=species:S:1:pos:R:3:Z:I:1 energy=-343.8101813059484 field_type=dipole dipole="0.000000 0.000000 0.000000" charge=0
O	-0.567542	-1.821939	-1.491068	8
C	-0.396742	-1.420389	-0.140148	6
C	0.450438	-0.162149	-0.122338	6
C	-0.202112	1.114971	-0.729208	6
C	0.312938	1.864301	0.515472	6
O	0.462958	3.033001	0.799082	8
C	0.575228	0.540961	1.260002	6
H	-1.081292	-2.648489	-1.484688	1
H	0.100128	-2.228749	0.405072	1
H	-1.383982	-1.250099	0.301092	1
H	1.440738	-0.355839	-0.560698	1
H	-1.293962	1.106811	-0.795918	1
H	0.230008	1.453011	-1.673448	1
H	1.559028	0.471311	1.728802	1
H	-0.205832	0.303281	1.987992	1
Es	0.575209	0.540976	1.259957	99
Es	-0.516785	-1.690190	-0.971537	99
Es	0.041099	0.388227	1.732858	99
Es	0.526498	0.119537	0.611138	99
Es	0.023150	-0.790284	-0.127679	99
Es	-0.929098	1.108462	-0.750937	99
Es	0.378885	3.218312	0.568967	99
Es	0.646307	2.600010	0.601407	99
Es	-0.742398	-1.607220	-1.623089	99
Es	0.029262	1.556954	-0.151448	99
Es	-0.396757	-1.420440	-0.140359	99
Es	0.462928	3.032738	0.799006	99
Es	-0.567670	-1.822104	-1.490830	99
Es	-0.202087	1.114966	-0.729148	99
Es	-0.847553	-2.265611	-1.466698	99
Es	0.450392	-0.162098	-0.122290	99
Es	-0.054364	-1.975218	0.245340	99
Es	0.465472	1.230111	0.967202	99
Es	-1.076702	-1.295359	0.174110	99
Es	0.175096	2.624892	0.793107	99
Es	0.312934	1.864218	0.515459	99
Es	0.096755	0.437438	-0.489978	99
Es	0.088851	1.347049	-1.358771	99
Es	1.121969	-0.289416	-0.416696	99
Es	0.578906	3.066587	1.080314	99
Es	1.236108	0.497010	1.576007	99
Es	-0.288023	-1.894604	-1.593232	99
42
Properties=species:S:1:pos:R:3:Z:I:1 energy=-343.8101813059484 field_type=dipole dipole="0.000000 0.000000 0.000000" charge=0
O	-0.567542	-1.821939	-1.491068	8
C	-0.396742	-1.420389	-0.140148	6
C	0.450438	-0.162149	-0.122338	6
C	-0.202112	1.114971	-0.729208	6
C	0.312938	1.864301	0.515472	6
O	0.462958	3.033001	0.799082	8
C	0.575228	0.540961	1.260002	6
H	-1.081292	-2.648489	-1.484688	1
H	0.100128	-2.228749	0.405072	1
H	-1.383982	-1.250099	0.301092	1
H	1.440738	-0.355839	-0.560698	1
H	-1.293962	1.106811	-0.795918	1
H	0.230008	1.453011	-1.673448	1
H	1.559028	0.471311	1.728802	1
H	-0.205832	0.303281	1.987992	1
Es	1.121855	-0.289351	-0.416845	99
Es	0.646787	2.600601	0.601206	99
Es	-0.567603	-1.822150	-1.490753	99
Es	0.378967	3.217593	0.569351	99
Es	0.088826	1.347054	-1.358765	99
Es	0.578360	3.067097	1.081303	99
Es	-0.516776	-1.690052	-0.971230	99
Es	-1.076659	-1.295429	0.174089	99
Es	-0.742596	-1.608130	-1.622094	99
Es	0.575208	0.540976	1.259953	99
Es	0.029201	1.556977	-0.151463	99
Es	0.450393	-0.162095	-0.122289	99
Es	-0.054426	-1.975189	0.245345	99
Es	0.023261	-0.790261	-0.127533	99
Es	0.465521	1.230145	0.967249	99
Es	-0.847243	-2.266136	-1.467211	99
Es	0.096564	0.437376	-0.489883	99
Es	0.526656	0.119388	0.611108	99
Es	0.041145	0.388313	1.732924	99
Es	-0.288200	-1.893286	-1.594139	99
Es	1.236025	0.497001	1.575973	99
Es	-0.396757	-1.420442	-0.140368	99
Es	0.462914	3.032684	0.799006	99
Es	-0.202086	1.114965	-0.729146	99
Es	-0.929032	1.108521	-0.750957	99
Es	0.312939	1.864219	0.515458	99
Es	0.175141	2.624550	0.791891	99
42
Properties=species:S:1:pos:R:3:Z:I:1 energy=-343.8101813059484 field_type=dipole dipole="0.000000 0.000000 0.000000" charge=0
O	-0.567542	-1.821939	-1.491068	8
C	-0.396742	-1.420389	-0.140148	6
C	0.450438	-0.162149	-0.122338	6
C	-0.202112	1.114971	-0.729208	6
C	0.312938	1.864301	0.515472	6
O	0.462958	3.033001	0.799082	8
C	0.575228	0.540961	1.260002	6
H	-1.081292	-2.648489	-1.484688	1
H	0.100128	-2.228749	0.405072	1
H	-1.383982	-1.250099	0.301092	1
H	1.440738	-0.355839	-0.560698	1
H	-1.293962	1.106811	-0.795918	1
H	0.230008	1.453011	-1.673448	1
H	1.559028	0.471311	1.728802	1
H	-0.205832	0.303281	1.987992	1
Es	-0.846471	-2.266691	-1.467393	99
Es	0.029110	1.556996	-0.151495	99
Es	-0.288815	-1.892288	-1.594862	99
Es	0.088730	1.347175	-1.358757	99
Es	0.096789	0.437077	-0.490113	99
Es	-0.567678	-1.822089	-1.490771	99
Es	0.646411	2.600763	0.600833	99
Es	0.174701	2.624709	0.791337	99
Es	0.578415	3.065494	1.081333	99
Es	0.462913	3.032671	0.798990	99
Es	-0.054414	-1.975148	0.245394	99
Es	-0.515912	-1.690621	-0.971094	99
Es	-1.076606	-1.295417	0.174089	99
Es	0.023186	-0.790237	-0.127632	99
Es	0.312938	1.864214	0.515456	99
Es	1.121852	-0.289414	-0.416680	99
Es	0.450391	-0.162090	-0.122293	99
Es	-0.928908	1.108603	-0.750917	99
Es	0.526547	0.119473	0.611141	99
Es	0.575209	0.540976	1.259955	99
Es	0.465538	1.230127	0.967382	99
Es	-0.396759	-1.420442	-0.140371	99
Es	-0.202087	1.114964	-0.729145	99
Es	0.379715	3.218887	0.570237	99
Es	0.041198	0.388312	1.732895	99
Es	1.235943	0.497046	1.576022	99
Es	-0.743550	-1.608109	-1.621359	99
42
Properties=species:S:1:pos:R:3:Z:I:1 energy=-343.8101813059484 field_type=dipole dipole="0.000000 0.000000 0.000000" charge=0
O	-0.567542	-1.821939	-1.491068	8
C	-0.396742	-1.420389	-0.140148	6
C	0.450438	-0.162149	-0.122338	6
C	-0.202112	1.114971	-0.729208	6
C	0.312938	1.864301	0.515472	6
O	0.462958	3.033001	0.799082	8
C	0.575228	0.540961	1.260002	6
H	-1.081292	-2.648489	-1.484688	1
H	0.100128	-2.228749	0.405072	1
H	-1.383982	-1.250099	0.301092	1
H	1.440738	-0.355839	-0.560698	1
H	-1.293962	1.106811	-0.795918	1
H	0.230008	1.453011	-1.673448	1
H	1.559028	0.471311	1.728802	1
H	-0.205832	0.303281	1.987992	1
Es	-0.845997	-2.266934	-1.467356	99
Es	0.646187	2.600642	0.601498	99
Es	0.450392	-0.162097	-0.122290	99
Es	0.023380	-0.790216	-0.127671	99
Es	0.312942	1.864219	0.515457	99
Es	0.096805	0.437156	-0.490315	99
Es	-0.288718	-1.891809	-1.595044	99
Es	-0.054501	-1.975128	0.245312	99
Es	0.526617	0.119350	0.611094	99
Es	1.235886	0.497065	1.576067	99
Es	0.465474	1.230150	0.967546	99
Es	-0.516324	-1.690168	-0.970960	99
Es	-1.076620	-1.295399	0.174148	99
Es	1.121766	-0.289465	-0.416648	99
Es	-0.743808	-1.608776	-1.621305	99
Es	0.379453	3.217890	0.569220	99
Es	-0.202086	1.114966	-0.729147	99
Es	0.174867	2.624493	0.792033	99
Es	0.088707	1.347208	-1.358604	99
Es	0.029162	1.557004	-0.151461	99
Es	0.575209	0.540976	1.259954	99
Es	-0.396756	-1.420439	-0.140362	99
Es	-0.928974	1.108587	-0.751011	99
Es	0.578745	3.066804	1.080961	99
Es	-0.567626	-1.822127	-1.490798	99
Es	0.041282	0.388309	1.732855	99
Es	0.462922	3.032682	0.799009	99
42
Properties=species:S:1:pos:R:3:Z:I:1 energy=-343.8101813059484 field_type=dipole dipole="0.000000 0.000000 0.000000" charge=0
O	-0.567542	-1.821939	-1.491068	8
C	-0.396742	-1.420389	-0.140148	6
C	0.450438	-0.162149	-0.122338	6
C	-0.202112	1.114971	-0.729208	6
C	0.312938	1.864301	0.515472	6
O	0.462958	3.033001	0.799082	8
C	0.575228	0.540961	1.260002	6
H	-1.081292	-2.648489	-1.484688	1
H	0.100128	-2.228749	0.405072	1
H	-1.383982	-1.250099	0.301092	1
H	1.440738	-0.355839	-0.560698	1
H	-1.293962	1.106811	-0.795918	1
H	0.230008	1.453011	-1.673448	1
H	1.559028	0.471311	1.728802	1
H	-0.205832	0.303281	1.987992	1
Es	0.575209	0.540977	1.259954	99
Es	0.450392	-0.162095	-0.122290	99
Es	-0.567658	-1.822109	-1.490793	99
Es	0.041268	0.388391	1.732867	99
Es	1.235833	0.497112	1.576098	99
Es	0.029093	1.557112	-0.151668	99
Es	-0.289692	-1.892010	-1.594202	99
Es	0.023398	-0.790111	-0.127701	99
Es	-1.076591	-1.295335	0.174075	99
Es	0.646136	2.600415	0.601030	99
Es	-0.743424	-1.608304	-1.622131	99
Es	-0.202086	1.114966	-0.729146	99
Es	0.378862	3.216466	0.569199	99
Es	0.312938	1.864218	0.515457	99
Es	0.462920	3.032711	0.799010	99
Es	-0.054607	-1.975167	0.245366	99
Es	0.096965	0.437071	-0.490149	99
Es	0.526683	0.119220	0.611179	99
Es	-0.845842	-2.267293	-1.467481	99
Es	-0.396757	-1.420441	-0.140365	99
Es	-0.515833	-1.690114	-0.970864	99
Es	-0.928962	1.108640	-0.751035	99
Es	0.579277	3.068236	1.080878	99
Es	1.121719	-0.289550	-0.416715	99
Es	0.174937	2.624666	0.792640	99
Es	0.465566	1.230118	0.967529	99
Es	0.088643	1.347153	-1.358560	99
42
Properties=species:S:1:pos:R:3:Z:I:1 energy=-343.8101813059484 field_type=dipole dipole="0.000000 0.000000 0.000000" charge=0
O	-0.567542	-1.821939	-1.491068	8
C	-0.396742	-1.420389	-0.140148	6
C	0.450438	-0.162149	-0.122338	6
C	-0.202112	1.114971	-0.729208	6
C	0.312938	1.864301	0.515472	6
O	0.462958	3.033001	0.799082	8
C	0.575228	0.540961	1.260002	6
H	-1.081292	-2.648489	-1.484688	1
H	0.100128	-2.228749	0.405072	1
H	-1.383982	-1.250099	0.301092	1
H	1.440738	-0.355839	-0.560698	1
H	-1.293962	1.106811	-0.795918	1
H	0.230008	1.453011	-1.673448	1
H	1.559028	0.471311	1.728802	1
H	-0.205832	0.303281	1.987992	1
Es	0.023369	-0.790096	-0.127696	99
Es	0.462944	3.032857	0.799072	99
Es	1.121613	-0.289521	-0.416590	99
Es	0.465554	1.230143	0.967626	99
Es	0.029119	1.557167	-0.151793	99
Es	0.577898	3.065737	1.081186	99
Es	0.646792	2.601043	0.601200	99
Es	-0.202086	1.114965	-0.729146	99
Es	1.235814	0.497079	1.576072	99
Es	0.450392	-0.162098	-0.122290	99
Es	0.096913	0.437171	-0.490249	99
Es	-0.054452	-1.975065	0.245360	99
Es	-0.289212	-1.891521	-1.595116	99
Es	-0.396758	-1.420441	-0.140368	99
Es	0.041326	0.388409	1.732884	99
Es	0.526685	0.119114	0.611132	99
Es	0.575208	0.540976	1.259956	99
Es	-0.928946	1.108668	-0.750927	99
Es	-0.743496	-1.609003	-1.621116	99
Es	0.379440	3.218546	0.570093	99
Es	-1.076564	-1.295489	0.174127	99
Es	-0.516030	-1.690068	-0.970780	99
Es	-0.567626	-1.822132	-1.490783	99
Es	0.088540	1.347123	-1.358607	99
Es	0.175104	2.624296	0.791204	99
Es	0.312941	1.864216	0.515456	99
Es	-0.846095	-2.267137	-1.467725	99
42
Properties=species:S:1:pos:R:3:Z:I:1 energy=-343.8101813059484 field_type=dipole dipole="0.000000 0.000000 0.000000" charge=0
O	-0.567542	-1.821939	-1.491068	8
C	-0.396742	-1.420389	-0.140148	6
C	0.450438	-0.162149	-0.122338	6
C	-0.202112	1.114971	-0.729208	6
C	0.312938	1.864301	0.515472	6
O	0.462958	3.033001	0.799082	8
C	0.575228	0.540961	1.260002	6
H	-1.081292	-2.648489	-1.484688	1
H	0.100128	-2.228749	0.405072	1
H	-1.383982	-1.250099	0.301092	1
H	1.440738	-0.355839	-0.560698	1
H	-1.293962	1.106811	-0.795918	1
H	0.230008	1.453011	-1.673448	1
H	1.559028	0.471311	1.728802	1
H	-0.205832	0.303281	1.987992	1
Es	0.450393	-0.162097	-0.122289	99
Es	0.088560	1.347101	-1.358532	99
Es	0.029188	1.557206	-0.151785	99
Es	0.379878	3.218993	0.570463	99
Es	0.096852	0.437029	-0.490332	99
Es	0.174750	2.624764	0.791301	99
Es	-0.396757	-1.420441	-0.140366	99
Es	-0.202094	1.114967	-0.729148	99
Es	0.646009	2.600707	0.600822	99
Es	0.462927	3.032713	0.799021	99
Es	0.041315	0.388521	1.732894	99
Es	0.526780	0.119012	0.611146	99
Es	0.465716	1.230134	0.967638	99
Es	-0.847576	-2.266207	-1.467631	99
Es	-0.516677	-1.689335	-0.970837	99
Es	-0.289417	-1.893952	-1.592937	99
Es	0.575209	0.540976	1.259958	99
Es	0.023402	-0.790117	-0.127702	99
Es	-0.567653	-1.822115	-1.490806	99
Es	-1.076505	-1.295474	0.174098	99
Es	1.235650	0.497089	1.576125	99
Es	0.312939	1.864220	0.515458	99
Es	-0.054530	-1.975091	0.245376	99
Es	1.121517	-0.289513	-0.416563	99
Es	-0.928885	1.108813	-0.751010	99
Es	-0.741156	-1.608247	-1.623344	99
Es	0.578549	3.065283	1.081163	99
42
Properties=species:S:1:pos:R:3:Z:I:1 energy=-343.8101813059484 field_type=dipole dipole="0.000000 0.000000 0.000000" charge=0
O	-0.567542	-1.821939	-1.491068	8
C	-0.396742	-1.420389	-0.140148	6
C	0.450438	-0.162149	-0.122338	6
C	-0.202112	1.114971	-0.729208	6
C	0.312938	1.864301	0.515472	6
O	0.462958	3.033001	0.799082	8
C	0.575228	0.540961	1.260002	6
H	-1.081292	-2.648489	-1.484688	1
H	0.100128	-2.228749	0.405072	1
H	-1.383982	-1.250099	0.301092	1
H	1.440738	-0.355839	-0.560698	1
H	-1.293962	1.106811	-0.795918	1
H	0.230008	1.453011	-1.673448	1
H	1.559028	0.471311	1.728802	1
H	-0.205832	0.303281	1.987992	1
Es	-0.202082	1.114966	-0.729141	99
Es	-1.076464	-1.295496	0.174107	99
Es	0.579229	3.068904	1.080474	99
Es	-0.567623	-1.822135	-1.490779	99
Es	0.465583	1.230118	0.967765	99
Es	0.526750	0.118966	0.611190	99
Es	0.096843	0.436889	-0.490454	99
Es	-0.290248	-1.893179	-1.592619	99
Es	1.121458	-0.289519	-0.416568	99
Es	1.235664	0.497200	1.576073	99
Es	0.450392	-0.162095	-0.122290	99
Es	-0.928781	1.108788	-0.751084	99
Es	0.646203	2.600435	0.601288	99
Es	0.575210	0.540977	1.259958	99
Es	0.028992	1.557177	-0.151729	99
Es	-0.054599	-1.975073	0.245358	99
Es	-0.741550	-1.608472	-1.623779	99
Es	0.312936	1.864221	0.515459	99
Es	0.462927	3.032661	0.799030	99
Es	-0.396757	-1.420441	-0.140365	99
Es	0.041472	0.388497	1.732935	99
Es	0.175067	2.624430	0.792946	99
Es	-0.516542	-1.689093	-0.970642	99
Es	0.378691	3.216012	0.569012	99
Es	0.088593	1.347254	-1.358513	99
Es	-0.846542	-2.267010	-1.467750	99
Es	0.023565	-0.790042	-0.127702	99
42
Properties=species:S:1:pos:R:3:Z:I:1 energy=-343.8101813059484 field_type=dipole dipole="0.000000 0.000000 0.000000" charge=0
O	-0.567542	-1.821939	-1.491068	8
C	-0.396742	-1.420389	-0.140148	6
C	0.450438	-0.162149	-0.122338	6
C	-0.202112	1.114971	-0.729208	6
C	0.312938	1.864301	0.515472	6
O	0.462958	3.033001	0.799082	8
C	0.575228	0.540961	1.260002	6
H	-1.081292	-2.648489	-1.484688	1
H	0.100128	-2.228749	0.405072	1
H	-1.383982	-1.250099	0.301092	1
H	1.440738	-0.355839	-0.560698	1
H	-1.293962	1.106811	-0.795918	1
H	0.230008	1.453011	-1.673448	1
H	1.559028	0.471311	1.728802	1
H	-0.205832	0.303281	1.987992	1
Es	-0.516046	-1.689271	-0.970547	99
Es	0.450392	-0.162096	-0.122290	99
Es	-1.076431	-1.295486	0.174101	99
Es	0.023639	-0.790052	-0.127694	99
Es	-0.054640	-1.975053	0.245367	99
Es	0.096881	0.436900	-0.490448	99
Es	-0.567665	-1.822108	-1.490765	99
Es	0.175112	2.624393	0.794368	99
Es	0.041442	0.388597	1.732939	99
Es	0.647617	2.599354	0.603932	99
Es	-0.846638	-2.266945	-1.467807	99
Es	0.465679	1.230084	0.967768	99
Es	1.235621	0.497217	1.576113	99
Es	0.312940	1.864220	0.515457	99
Es	0.526782	0.118812	0.611159	99
Es	0.575210	0.540977	1.259952	99
Es	0.577821	3.073102	1.079114	99
Es	1.121432	-0.289501	-0.416546	99
Es	0.462952	3.032593	0.799079	99
Es	-0.289769	-1.892115	-1.594723	99
Es	-0.396757	-1.420440	-0.140364	99
Es	-0.928824	1.108829	-0.751068	99
Es	-0.742401	-1.609479	-1.621750	99
Es	0.378582	3.212991	0.566281	99
Es	0.029025	1.557197	-0.151860	99
Es	0.088519	1.347256	-1.358441	99
Es	-0.202085	1.114966	-0.729146	99
42
Properties=species:S:1:pos:R:3:Z:I:1 energy=-343.8101813059484 field_type=dipole dipole="0.000000 0.000000 0.000000" charge=0
O	-0.567542	-1.821939	-1.491068	8
C	-0.396742	-1.420389	-0.140148	6
C	0.450438	-0.162149	-0.122338	6
C	-0.202112	1.114971	-0.729208	6
C	0.312938	1.864301	0.515472	6
O	0.462958	3.033001	0.799082	8
C	0.575228	0.540961	1.260002	6
H	-1.081292	-2.648489	-1.484688	1
H	0.100128	-2.228749	0.405072	1
H	-1.383982	-1.250099	0.301092	1
H	1.440738	-0.355839	-0.560698	1
H	-1.293962	1.106811	-0.795918	1
H	0.230008	1.453011	-1.673448	1
H	1.559028	0.471311	1.728802	1
H	-0.205832	0.303281	1.987992	1
Es	-0.289978	-1.893632	-1.590940	99
Es	0.023653	-0.790038	-0.127689	99
Es	0.526904	0.118768	0.611187	99
Es	0.450392	-0.162093	-0.122288	99
Es	-0.518096	-1.688573	-0.970415	99
Es	0.575209	0.540976	1.259952	99
Es	0.175186	2.624455	0.792300	99
Es	1.235548	0.497237	1.576151	99
Es	0.379280	3.217498	0.569202	99
Es	-0.846974	-2.266994	-1.468690	99
Es	-1.076386	-1.295481	0.174098	99
Es	0.465683	1.230122	0.967839	99
Es	0.462924	3.032674	0.799037	99
Es	-0.567926	-1.821984	-1.490735	99
Es	1.121331	-0.289528	-0.416565	99
Es	-0.202085	1.114965	-0.729146	99
Es	-0.054666	-1.975061	0.245378	99
Es	-0.396757	-1.420440	-0.140364	99
Es	0.578139	3.067449	1.080344	99
Es	-0.739572	-1.608737	-1.624833	99
Es	0.029002	1.557249	-0.151933	99
Es	0.312939	1.864216	0.515457	99
Es	-0.928771	1.108864	-0.751009	99
Es	0.088402	1.347266	-1.358448	99
Es	0.041482	0.388599	1.732915	99
Es	0.096946	0.436820	-0.490485	99
Es	0.646575	2.600344	0.601863	99
