45
Properties=species:S:1:pos:R:3:Z:I:1 energy=-344.96606714936564 field_type=dipole dipole="0.000000 0.000000 0.000000" charge=0
O	-1.627788	1.426456	-0.756835	8
C	-1.928578	0.050456	-0.568315	6
C	-0.996418	-0.547604	0.475045	6
C	0.421742	-0.651494	-0.068895	6
C	1.293702	0.613506	-0.066445	6
C	2.270932	-0.224664	0.748625	6
O	1.296982	-1.283014	0.908885	8
H	-2.292638	1.782397	-1.371845	1
H	-1.837318	-0.463414	-1.530565	1
H	-2.965398	-0.024504	-0.225125	1
H	-1.356638	-1.550204	0.732425	1
H	-1.009908	0.056886	1.389455	1
H	0.469112	-1.213704	-1.010825	1
H	0.884722	1.471266	0.474665	1
H	1.656733	0.930196	-1.047185	1
H	3.153892	-0.577244	0.207565	1
H	2.566862	0.204676	1.709375	1
Es	-2.648069	-0.008536	-0.334437	99
Es	-1.243024	-1.229387	0.639427	99
Es	-1.457511	-0.244022	-0.051719	99
Es	0.421865	-0.651561	-0.068728	99
Es	2.270768	-0.224814	0.748636	99
Es	2.480162	0.071745	1.408924	99
Es	-1.005559	-0.132677	1.090112	99
Es	1.297018	-1.282738	0.908670	99
Es	0.954215	-1.070551	0.537412	99
Es	2.880864	-0.462813	0.372053	99
Es	1.843170	0.262933	0.332286	99
Es	-0.296948	-0.593112	0.197658	99
Es	0.444936	-1.033832	-0.724352	99
Es	1.162856	-1.238276	1.182003	99
Es	1.543058	0.830734	-0.736832	99
Es	1.293716	0.613452	-0.066436	99
Es	-0.996434	-0.547597	0.474987	99
Es	-1.864631	-0.312844	-1.231555	99
Es	1.016245	1.188136	0.306395	99
Es	-1.928506	0.050673	-0.568335	99
Es	-1.356757	1.439009	-0.901609	99
Es	-1.757772	0.908776	-0.701985	99
Es	1.688911	-0.899495	0.864451	99
Es	-1.994719	1.599597	-1.091134	99
Es	-1.677156	1.562529	-0.486372	99
Es	-1.628041	1.426282	-0.756990	99
Es	0.798401	0.031637	-0.121855	99
Es	1.407322	-1.555386	0.802900	99
45
Properties=species:S:1:pos:R:3:Z:I:1 energy=-344.96606714936564 field_type=dipole dipole="0.000000 0.000000 0.000000" charge=0
O	-1.627788	1.426456	-0.756835	8
C	-1.928578	0.050456	-0.568315	6
C	-0.996418	-0.547604	0.475045	6
C	0.421742	-0.651494	-0.068895	6
C	1.293702	0.613506	-0.066445	6
C	2.270932	-0.224664	0.748625	6
O	1.296982	-1.283014	0.908885	8
H	-2.292638	1.782397	-1.371845	1
H	-1.837318	-0.463414	-1.530565	1
H	-2.965398	-0.024504	-0.225125	1
H	-1.356638	-1.550204	0.732425	1
H	-1.009908	0.056886	1.389455	1
H	0.469112	-1.213704	-1.010825	1
H	0.884722	1.471266	0.474665	1
H	1.656733	0.930196	-1.047185	1
H	3.153892	-0.577244	0.207565	1
H	2.566862	0.204676	1.709375	1
Es	-1.864738	-0.312831	-1.231517	99
Es	0.954380	-1.071112	0.536847	99
Es	2.480387	0.071633	1.408899	99
Es	-0.996432	-0.547597	0.474987	99
Es	1.016329	1.188063	0.306316	99
Es	-1.356892	1.439771	-0.900926	99
Es	-1.628016	1.426274	-0.757005	99
Es	-1.994816	1.599837	-1.091213	99
Es	-1.457498	-0.244067	-0.051633	99
Es	-1.928509	0.050679	-0.568331	99
Es	0.421865	-0.651563	-0.068728	99
Es	1.162889	-1.236450	1.181028	99
Es	-0.296959	-0.593115	0.197680	99
Es	1.406150	-1.556193	0.805026	99
Es	1.542999	0.830799	-0.736793	99
Es	-2.648004	-0.008478	-0.334523	99
Es	2.880677	-0.462778	0.372029	99
Es	1.293716	0.613451	-0.066436	99
Es	1.296997	-1.282702	0.908704	99
Es	0.798220	0.031506	-0.121808	99
Es	-1.243067	-1.229443	0.639452	99
Es	1.843221	0.263190	0.332303	99
Es	1.689984	-0.900070	0.863864	99
Es	-1.677510	1.562011	-0.486724	99
Es	2.270767	-0.224823	0.748636	99
Es	-1.005522	-0.132692	1.090061	99
Es	-1.757154	0.908334	-0.702258	99
Es	0.444918	-1.033770	-0.724365	99
45
Properties=species:S:1:pos:R:3:Z:I:1 energy=-344.96606714936564 field_type=dipole dipole="0.000000 0.000000 0.000000" charge=0
O	-1.627788	1.426456	-0.756835	8
C	-1.928578	0.050456	-0.568315	6
C	-0.996418	-0.547604	0.475045	6
C	0.421742	-0.651494	-0.068895	6
C	1.293702	0.613506	-0.066445	6
C	2.270932	-0.224664	0.748625	6
O	1.296982	-1.283014	0.908885	8
H	-2.292638	1.782397	-1.371845	1
H	-1.837318	-0.463414	-1.530565	1
H	-2.965398	-0.024504	-0.225125	1
H	-1.356638	-1.550204	0.732425	1
H	-1.009908	0.056886	1.389455	1
H	0.469112	-1.213704	-1.010825	1
H	0.884722	1.471266	0.474665	1
H	1.656733	0.930196	-1.047185	1
H	3.153892	-0.577244	0.207565	1
H	2.566862	0.204676	1.709375	1
Es	-0.996432	-0.547597	0.474986	99
Es	2.270775	-0.224807	0.748635	99
Es	-1.005565	-0.132745	1.090121	99
Es	-0.296875	-0.593240	0.197698	99
Es	-1.243057	-1.229348	0.639396	99
Es	-1.677609	1.562125	-0.487873	99
Es	0.953709	-1.070769	0.537200	99
Es	2.480203	0.071659	1.408847	99
Es	2.880812	-0.462762	0.372188	99
Es	1.293716	0.613452	-0.066436	99
Es	-1.928511	0.050670	-0.568331	99
Es	-1.627892	1.426408	-0.756853	99
Es	0.421864	-0.651562	-0.068731	99
Es	0.444840	-1.033732	-0.724256	99
Es	1.406084	-1.554229	0.803507	99
Es	-1.864704	-0.312904	-1.231582	99
Es	-1.758011	0.908679	-0.700955	99
Es	1.843297	0.263154	0.332272	99
Es	1.542995	0.830707	-0.736748	99
Es	-1.457625	-0.244018	-0.051643	99
Es	-2.647934	-0.008480	-0.334519	99
Es	0.798165	0.031662	-0.121878	99
Es	-1.994741	1.599805	-1.091272	99
Es	1.690259	-0.900188	0.864017	99
Es	1.163346	-1.238714	1.182047	99
Es	1.297025	-1.282746	0.908654	99
Es	1.016385	1.188134	0.306211	99
Es	-1.356138	1.439250	-0.901129	99
45
Properties=species:S:1:pos:R:3:Z:I:1 energy=-344.96606714936564 field_type=dipole dipole="0.000000 0.000000 0.000000" charge=0
O	-1.627788	1.426456	-0.756835	8
C	-1.928578	0.050456	-0.568315	6
C	-0.996418	-0.547604	0.475045	6
C	0.421742	-0.651494	-0.068895	6
C	1.293702	0.613506	-0.066445	6
C	2.270932	-0.224664	0.748625	6
O	1.296982	-1.283014	0.908885	8
H	-2.292638	1.782397	-1.371845	1
H	-1.837318	-0.463414	-1.530565	1
H	-2.965398	-0.024504	-0.225125	1
H	-1.356638	-1.550204	0.732425	1
H	-1.009908	0.056886	1.389455	1
H	0.469112	-1.213704	-1.010825	1
H	0.884722	1.471266	0.474665	1
H	1.656733	0.930196	-1.047185	1
H	3.153892	-0.577244	0.207565	1
H	2.566862	0.204676	1.709375	1
Es	1.690192	-0.899685	0.864424	99
Es	1.293716	0.613452	-0.066436	99
Es	-1.995398	1.600398	-1.090485	99
Es	1.016327	1.187996	0.306157	99
Es	1.163553	-1.239652	1.181824	99
Es	-1.864870	-0.312825	-1.231527	99
Es	-1.358264	1.438222	-0.902537	99
Es	-0.996432	-0.547597	0.474987	99
Es	0.444856	-1.033701	-0.724181	99
Es	-2.647939	-0.008436	-0.334463	99
Es	1.406362	-1.553555	0.803260	99
Es	1.542965	0.830834	-0.736713	99
Es	2.880793	-0.462756	0.372297	99
Es	2.270768	-0.224814	0.748635	99
Es	-1.457498	-0.244082	-0.051742	99
Es	0.798225	0.031559	-0.121967	99
Es	1.843404	0.263361	0.332268	99
Es	-1.757882	0.908397	-0.701057	99
Es	2.480230	0.071602	1.408776	99
Es	-1.928513	0.050672	-0.568331	99
Es	-1.005651	-0.132858	1.090202	99
Es	-1.242990	-1.229409	0.639252	99
Es	-1.674742	1.562982	-0.487005	99
Es	0.421866	-0.651561	-0.068729	99
Es	-0.296940	-0.593124	0.197761	99
Es	1.297018	-1.282751	0.908684	99
Es	-1.628035	1.426262	-0.757036	99
Es	0.953259	-1.071069	0.537254	99
45
Properties=species:S:1:pos:R:3:Z:I:1 energy=-344.96606714936564 field_type=dipole dipole="0.000000 0.000000 0.000000" charge=0
O	-1.627788	1.426456	-0.756835	8
C	-1.928578	0.050456	-0.568315	6
C	-0.996418	-0.547604	0.475045	6
C	0.421742	-0.651494	-0.068895	6
C	1.293702	0.613506	-0.066445	6
C	2.270932	-0.224664	0.748625	6
O	1.296982	-1.283014	0.908885	8
H	-2.292638	1.782397	-1.371845	1
H	-1.837318	-0.463414	-1.530565	1
H	-2.965398	-0.024504	-0.225125	1
H	-1.356638	-1.550204	0.732425	1
H	-1.009908	0.056886	1.389455	1
H	0.469112	-1.213704	-1.010825	1
H	0.884722	1.471266	0.474665	1
H	1.656733	0.930196	-1.047185	1
H	3.153892	-0.577244	0.207565	1
H	2.566862	0.204676	1.709375	1
Es	0.421866	-0.651561	-0.068730	99
Es	-1.994987	1.599939	-1.091213	99
Es	-1.756820	0.908069	-0.702103	99
Es	-1.457683	-0.244290	-0.051668	99
Es	2.270769	-0.224812	0.748636	99
Es	1.163640	-1.240214	1.181964	99
Es	1.406539	-1.552562	0.803567	99
Es	0.798127	0.031604	-0.122038	99
Es	1.293716	0.613452	-0.066436	99
Es	-0.296944	-0.593363	0.197510	99
Es	-1.677254	1.561966	-0.487082	99
Es	2.880750	-0.462728	0.372327	99
Es	2.480260	0.071633	1.408745	99
Es	-1.242963	-1.229291	0.639710	99
Es	-1.928511	0.050673	-0.568331	99
Es	-1.628102	1.426274	-0.756955	99
Es	1.542948	0.830826	-0.736623	99
Es	0.444887	-1.033658	-0.724145	99
Es	-2.647949	-0.008507	-0.334619	99
Es	1.297008	-1.282771	0.908697	99
Es	1.843430	0.263321	0.332195	99
Es	-1.357246	1.440053	-0.900780	99
Es	-1.864765	-0.312800	-1.231465	99
Es	1.690286	-0.899430	0.864397	99
Es	-0.996434	-0.547601	0.474988	99
Es	-1.005477	-0.132585	1.089924	99
Es	1.016343	1.188047	0.306166	99
Es	0.952948	-1.071817	0.536934	99
45
Properties=species:S:1:pos:R:3:Z:I:1 energy=-344.96606714936564 field_type=dipole dipole="0.000000 0.000000 0.000000" charge=0
O	-1.627788	1.426456	-0.756835	8
C	-1.928578	0.050456	-0.568315	6
C	-0.996418	-0.547604	0.475045	6
C	0.421742	-0.651494	-0.068895	6
C	1.293702	0.613506	-0.066445	6
C	2.270932	-0.224664	0.748625	6
O	1.296982	-1.283014	0.908885	8
H	-2.292638	1.782397	-1.371845	1
H	-1.837318	-0.463414	-1.530565	1
H	-2.965398	-0.024504	-0.225125	1
H	-1.356638	-1.550204	0.732425	1
H	-1.009908	0.056886	1.389455	1
H	0.469112	-1.213704	-1.010825	1
H	0.884722	1.471266	0.474665	1
H	1.656733	0.930196	-1.047185	1
H	3.153892	-0.577244	0.207565	1
H	2.566862	0.204676	1.709375	1
Es	-1.457559	-0.244154	-0.051661	99
Es	1.163728	-1.239809	1.181248	99
Es	0.421863	-0.651561	-0.068730	99
Es	1.690913	-0.899974	0.864723	99
Es	1.405751	-1.553082	0.803947	99
Es	-1.928511	0.050672	-0.568330	99
Es	1.297008	-1.282754	0.908700	99
Es	0.797982	0.031681	-0.122076	99
Es	-1.864856	-0.312733	-1.231443	99
Es	1.542896	0.830910	-0.736596	99
Es	2.480243	0.071533	1.408661	99
Es	0.952971	-1.071185	0.536991	99
Es	-1.628039	1.426324	-0.756958	99
Es	1.016440	1.187956	0.306123	99
Es	-0.996432	-0.547597	0.474986	99
Es	-1.005502	-0.132807	1.090075	99
Es	0.444931	-1.033652	-0.724103	99
Es	-2.647910	-0.008523	-0.334633	99
Es	-1.995004	1.600522	-1.090928	99
Es	-1.243019	-1.229301	0.639464	99
Es	-1.758953	0.908504	-0.699515	99
Es	-1.359073	1.436751	-0.903020	99
Es	2.270772	-0.224809	0.748634	99
Es	1.293716	0.613450	-0.066436	99
Es	2.880785	-0.462726	0.372392	99
Es	-0.296939	-0.593397	0.197528	99
Es	1.843535	0.263401	0.332242	99
Es	-1.673355	1.564226	-0.487712	99
45
Properties=species:S:1:pos:R:3:Z:I:1 energy=-344.96606714936564 field_type=dipole dipole="0.000000 0.000000 0.000000" charge=0
O	-1.627788	1.426456	-0.756835	8
C	-1.928578	0.050456	-0.568315	6
C	-0.996418	-0.547604	0.475045	6
C	0.421742	-0.651494	-0.068895	6
C	1.293702	0.613506	-0.066445	6
C	2.270932	-0.224664	0.748625	6
O	1.296982	-1.283014	0.908885	8
H	-2.292638	1.782397	-1.371845	1
H	-1.837318	-0.463414	-1.530565	1
H	-2.965398	-0.024504	-0.225125	1
H	-1.356638	-1.550204	0.732425	1
H	-1.009908	0.056886	1.389455	1
H	0.469112	-1.213704	-1.010825	1
H	0.884722	1.471266	0.474665	1
H	1.656733	0.930196	-1.047185	1
H	3.153892	-0.577244	0.207565	1
H	2.566862	0.204676	1.709375	1
Es	2.270770	-0.224810	0.748635	99
Es	-1.757699	0.907938	-0.701345	99
Es	1.163094	-1.239964	1.180349	99
Es	1.016406	1.187935	0.306052	99
Es	-1.005520	-0.132842	1.090071	99
Es	0.953330	-1.071915	0.535507	99
Es	0.444821	-1.033604	-0.724073	99
Es	-1.864805	-0.312759	-1.231421	99
Es	-1.928512	0.050668	-0.568330	99
Es	0.421867	-0.651563	-0.068729	99
Es	-1.628108	1.426274	-0.756959	99
Es	2.480312	0.071453	1.408616	99
Es	-1.243026	-1.229296	0.639452	99
Es	-1.457595	-0.244107	-0.051648	99
Es	-2.647902	-0.008570	-0.334638	99
Es	2.880727	-0.462712	0.372449	99
Es	-1.995139	1.600913	-1.090882	99
Es	-1.674955	1.562528	-0.487440	99
Es	1.691608	-0.900040	0.865709	99
Es	1.293716	0.613451	-0.066435	99
Es	0.798035	0.031624	-0.122189	99
Es	-0.296890	-0.593303	0.197585	99
Es	-1.358553	1.438718	-0.901517	99
Es	1.405350	-1.552273	0.805304	99
Es	1.542884	0.830933	-0.736514	99
Es	1.297002	-1.282742	0.908705	99
Es	1.843595	0.263524	0.332271	99
Es	-0.996433	-0.547598	0.474987	99
45
Properties=species:S:1:pos:R:3:Z:I:1 energy=-344.96606714936564 field_type=dipole dipole="0.000000 0.000000 0.000000" charge=0
O	-1.627788	1.426456	-0.756835	8
C	-1.928578	0.050456	-0.568315	6
C	-0.996418	-0.547604	0.475045	6
C	0.421742	-0.651494	-0.068895	6
C	1.293702	0.613506	-0.066445	6
C	2.270932	-0.224664	0.748625	6
O	1.296982	-1.283014	0.908885	8
H	-2.292638	1.782397	-1.371845	1
H	-1.837318	-0.463414	-1.530565	1
H	-2.965398	-0.024504	-0.225125	1
H	-1.356638	-1.550204	0.732425	1
H	-1.009908	0.056886	1.389455	1
H	0.469112	-1.213704	-1.010825	1
H	0.884722	1.471266	0.474665	1
H	1.656733	0.930196	-1.047185	1
H	3.153892	-0.577244	0.207565	1
H	2.566862	0.204676	1.709375	1
Es	-1.995082	1.600713	-1.091106	99
Es	1.542848	0.830923	-0.736489	99
Es	2.880668	-0.462652	0.372410	99
Es	-1.005539	-0.132889	1.090068	99
Es	-0.996432	-0.547597	0.474987	99
Es	1.405028	-1.552303	0.804674	99
Es	1.691689	-0.900485	0.864364	99
Es	1.293716	0.613451	-0.066436	99
Es	1.843629	0.263603	0.332319	99
Es	1.296988	-1.282765	0.908681	99
Es	-1.628065	1.426295	-0.756993	99
Es	0.797986	0.031685	-0.122256	99
Es	0.421863	-0.651560	-0.068731	99
Es	1.016423	1.187955	0.306057	99
Es	0.952555	-1.071522	0.536690	99
Es	1.164132	-1.239899	1.181195	99
Es	-1.864839	-0.312742	-1.231339	99
Es	-1.756442	0.907269	-0.702036	99
Es	0.444839	-1.033595	-0.723977	99
Es	-2.647922	-0.008567	-0.334656	99
Es	-1.676372	1.561839	-0.487636	99
Es	-1.242908	-1.229311	0.639464	99
Es	-0.296911	-0.593312	0.197542	99
Es	-1.928512	0.050671	-0.568330	99
Es	2.270770	-0.224811	0.748635	99
Es	-1.457649	-0.244158	-0.051689	99
Es	-1.358472	1.440269	-0.900434	99
Es	2.480393	0.071361	1.408594	99
45
Properties=species:S:1:pos:R:3:Z:I:1 energy=-344.96606714936564 field_type=dipole dipole="0.000000 0.000000 0.000000" charge=0
O	-1.627788	1.426456	-0.756835	8
C	-1.928578	0.050456	-0.568315	6
C	-0.996418	-0.547604	0.475045	6
C	0.421742	-0.651494	-0.068895	6
C	1.293702	0.613506	-0.066445	6
C	2.270932	-0.224664	0.748625	6
O	1.296982	-1.283014	0.908885	8
H	-2.292638	1.782397	-1.371845	1
H	-1.837318	-0.463414	-1.530565	1
H	-2.965398	-0.024504	-0.225125	1
H	-1.356638	-1.550204	0.732425	1
H	-1.009908	0.056886	1.389455	1
H	0.469112	-1.213704	-1.010825	1
H	0.884722	1.471266	0.474665	1
H	1.656733	0.930196	-1.047185	1
H	3.153892	-0.577244	0.207565	1
H	2.566862	0.204676	1.709375	1
Es	-2.647899	-0.008611	-0.334732	99
Es	-1.757457	0.907497	-0.701842	99
Es	1.297023	-1.282767	0.908668	99
Es	0.444847	-1.033529	-0.723953	99
Es	1.016436	1.187896	0.305970	99
Es	-1.628054	1.426278	-0.756992	99
Es	-1.995313	1.601591	-1.090453	99
Es	1.843673	0.263646	0.332340	99
Es	0.953350	-1.073074	0.534798	99
Es	-1.457577	-0.244202	-0.051747	99
Es	-1.005583	-0.132868	1.090025	99
Es	0.421865	-0.651561	-0.068731	99
Es	1.163570	-1.235161	1.178456	99
Es	1.293716	0.613451	-0.066435	99
Es	-1.242976	-1.229267	0.639496	99
Es	-1.674170	1.562279	-0.487297	99
Es	-1.864844	-0.312699	-1.231282	99
Es	-0.296895	-0.593387	0.197618	99
Es	-0.996432	-0.547597	0.474987	99
Es	2.880654	-0.462643	0.372435	99
Es	1.692706	-0.901063	0.863948	99
Es	-1.928512	0.050669	-0.568330	99
Es	0.797935	0.031646	-0.122287	99
Es	2.270770	-0.224812	0.748634	99
Es	-1.359466	1.438800	-0.901621	99
Es	1.542820	0.830970	-0.736429	99
Es	2.480404	0.071366	1.408569	99
Es	1.403790	-1.554983	0.809760	99
45
Properties=species:S:1:pos:R:3:Z:I:1 energy=-344.96606714936564 field_type=dipole dipole="0.000000 0.000000 0.000000" charge=0
O	-1.627788	1.426456	-0.756835	8
C	-1.928578	0.050456	-0.568315	6
C	-0.996418	-0.547604	0.475045	6
C	0.421742	-0.651494	-0.068895	6
C	1.293702	0.613506	-0.066445	6
C	2.270932	-0.224664	0.748625	6
O	1.296982	-1.283014	0.908885	8
H	-2.292638	1.782397	-1.371845	1
H	-1.837318	-0.463414	-1.530565	1
H	-2.965398	-0.024504	-0.225125	1
H	-1.356638	-1.550204	0.732425	1
H	-1.009908	0.056886	1.389455	1
H	0.469112	-1.213704	-1.010825	1
H	0.884722	1.471266	0.474665	1
H	1.656733	0.930196	-1.047185	1
H	3.153892	-0.577244	0.207565	1
H	2.566862	0.204676	1.709375	1
Es	-1.457568	-0.244208	-0.051676	99
Es	1.016501	1.187903	0.305911	99
Es	-2.647881	-0.008564	-0.334785	99
Es	-1.675844	1.561813	-0.488013	99
Es	1.405916	-1.550296	0.803896	99
Es	2.880719	-0.462691	0.372563	99
Es	-1.756934	0.907316	-0.701708	99
Es	1.542843	0.830971	-0.736349	99
Es	-1.995116	1.601120	-1.091077	99
Es	2.270770	-0.224811	0.748635	99
Es	0.797838	0.031721	-0.122385	99
Es	0.421864	-0.651560	-0.068732	99
Es	1.293716	0.613451	-0.066436	99
Es	1.164363	-1.242343	1.181249	99
Es	1.843751	0.263682	0.332341	99
Es	-1.005571	-0.132852	1.089988	99
Es	-1.628038	1.426280	-0.756971	99
Es	1.691274	-0.899344	0.865265	99
Es	-0.996432	-0.547598	0.474987	99
Es	0.444817	-1.033534	-0.723918	99
Es	0.951790	-1.072342	0.536540	99
Es	2.480346	0.071304	1.408494	99
Es	-0.296876	-0.593403	0.197612	99
Es	-1.864865	-0.312707	-1.231285	99
Es	1.297030	-1.282730	0.908681	99
Es	-1.242999	-1.229272	0.639532	99
Es	-1.358522	1.439890	-0.900456	99
Es	-1.928512	0.050666	-0.568330	99
45
Properties=species:S:1:pos:R:3:Z:I:1 energy=-344.96606714936564 field_type=dipole dipole="0.000000 0.000000 0.000000" charge=0
O	-1.627788	1.426456	-0.756835	8
C	-1.928578	0.050456	-0.568315	6
C	-0.996418	-0.547604	0.475045	6
C	0.421742	-0.651494	-0.068895	6
C	1.293702	0.613506	-0.066445	6
C	2.270932	-0.224664	0.748625	6
O	1.296982	-1.283014	0.908885	8
H	-2.292638	1.782397	-1.371845	1
H	-1.837318	-0.463414	-1.530565	1
H	-2.965398	-0.024504	-0.225125	1
H	-1.356638	-1.550204	0.732425	1
H	-1.009908	0.056886	1.389455	1
H	0.469112	-1.213704	-1.010825	1
H	0.884722	1.471266	0.474665	1
H	1.656733	0.930196	-1.047185	1
H	3.153892	-0.577244	0.207565	1
H	2.566862	0.204676	1.709375	1
Es	2.270768	-0.224811	0.748633	99
Es	0.952149	-1.071819	0.536427	99
Es	-1.758195	0.907706	-0.700953	99
Es	-0.996433	-0.547598	0.474987	99
Es	2.880627	-0.462648	0.372629	99
Es	0.797765	0.031729	-0.122361	99
Es	0.444839	-1.033505	-0.723877	99
Es	-2.647831	-0.008530	-0.334898	99
Es	1.297022	-1.282768	0.908621	99
Es	2.480402	0.071335	1.408486	99
Es	1.164269	-1.241017	1.180527	99
Es	-1.243001	-1.229217	0.639534	99
Es	-1.457654	-0.244200	-0.051604	99
Es	0.421864	-0.651559	-0.068732	99
Es	1.843885	0.263716	0.332230	99
Es	-1.360114	1.437475	-0.901091	99
Es	-1.994411	1.601593	-1.091748	99
Es	-0.296861	-0.593529	0.197587	99
Es	-1.628033	1.426249	-0.757022	99
Es	-1.928512	0.050670	-0.568331	99
Es	1.293717	0.613450	-0.066436	99
Es	1.542744	0.830986	-0.736332	99
Es	1.692287	-0.900300	0.865176	99
Es	1.404662	-1.551218	0.804936	99
Es	-1.005540	-0.132912	1.089993	99
Es	-1.673684	1.563418	-0.487433	99
Es	-1.864888	-0.312714	-1.231257	99
Es	1.016539	1.187880	0.305880	99
45
Properties=species:S:1:pos:R:3:Z:I:1 energy=-344.96606714936564 field_type=dipole dipole="0.000000 0.000000 0.000000" charge=0
O	-1.627788	1.426456	-0.756835	8
C	-1.928578	0.050456	-0.568315	6
C	-0.996418	-0.547604	0.475045	6
C	0.421742	-0.651494	-0.068895	6
C	1.293702	0.613506	-0.066445	6
C	2.270932	-0.224664	0.748625	6
O	1.296982	-1.283014	0.908885	8
H	-2.292638	1.782397	-1.371845	1
H	-1.837318	-0.463414	-1.530565	1
H	-2.965398	-0.024504	-0.225125	1
H	-1.356638	-1.550204	0.732425	1
H	-1.009908	0.056886	1.389455	1
H	0.469112	-1.213704	-1.010825	1
H	0.884722	1.471266	0.474665	1
H	1.656733	0.930196	-1.047185	1
H	3.153892	-0.577244	0.207565	1
H	2.566862	0.204676	1.709375	1
Es	1.542785	0.830992	-0.736274	99
Es	-1.928513	0.050666	-0.568329	99
Es	1.843867	0.263811	0.332369	99
Es	-1.627997	1.426295	-0.756942	99
Es	1.296995	-1.282719	0.908745	99
Es	-1.994284	1.600907	-1.092078	99
Es	2.480385	0.071289	1.408428	99
Es	0.444843	-1.033494	-0.723823	99
Es	-1.242933	-1.229277	0.639579	99
Es	-1.358061	1.439818	-0.899460	99
Es	1.016497	1.187857	0.305779	99
Es	-1.676784	1.562115	-0.488698	99
Es	1.692257	-0.900354	0.865024	99
Es	1.404617	-1.552666	0.806621	99
Es	1.164652	-1.239245	1.179193	99
Es	0.421863	-0.651559	-0.068732	99
Es	-0.296888	-0.593428	0.197564	99
Es	2.880650	-0.462596	0.372636	99
Es	1.293716	0.613451	-0.066435	99
Es	-1.005553	-0.132946	1.089930	99
Es	0.951929	-1.072192	0.536147	99
Es	2.270771	-0.224809	0.748634	99
Es	-1.757295	0.907331	-0.701082	99
Es	-0.996433	-0.547597	0.474987	99
Es	-2.647763	-0.008499	-0.334904	99
Es	-1.864961	-0.312728	-1.231262	99
Es	0.797741	0.031687	-0.122482	99
Es	-1.457721	-0.244247	-0.051562	99
45
Properties=species:S:1:pos:R:3:Z:I:1 energy=-344.96606714936564 field_type=dipole dipole="0.000000 0.000000 0.000000" charge=0
O	-1.627788	1.426456	-0.756835	8
C	-1.928578	0.050456	-0.568315	6
C	-0.996418	-0.547604	0.475045	6
C	0.421742	-0.651494	-0.068895	6
C	1.293702	0.613506	-0.066445	6
C	2.270932	-0.224664	0.748625	6
O	1.296982	-1.283014	0.908885	8
H	-2.292638	1.782397	-1.371845	1
H	-1.837318	-0.463414	-1.530565	1
H	-2.965398	-0.024504	-0.225125	1
H	-1.356638	-1.550204	0.732425	1
H	-1.009908	0.056886	1.389455	1
H	0.469112	-1.213704	-1.010825	1
H	0.884722	1.471266	0.474665	1
H	1.656733	0.930196	-1.047185	1
H	3.153892	-0.577244	0.207565	1
H	2.566862	0.204676	1.709375	1
Es	1.692715	-0.900697	0.864692	99
Es	-1.756953	0.907024	-0.701392	99
Es	-0.996433	-0.547596	0.474993	99
Es	-1.358034	1.440446	-0.899493	99
Es	0.797676	0.031692	-0.122340	99
Es	0.444832	-1.033433	-0.723827	99
Es	1.296974	-1.282714	0.908755	99
Es	0.421863	-0.651560	-0.068733	99
Es	1.844004	0.263926	0.332347	99
Es	1.293714	0.613453	-0.066435	99
Es	-1.864935	-0.312696	-1.231212	99
Es	1.164563	-1.237980	1.178586	99
Es	-1.243003	-1.229217	0.639569	99
Es	-0.296873	-0.593555	0.197516	99
Es	0.952115	-1.072680	0.535633	99
Es	2.880610	-0.462608	0.372731	99
Es	-1.928512	0.050669	-0.568330	99
Es	-2.647789	-0.008552	-0.334922	99
Es	2.480403	0.071286	1.408404	99
Es	2.270771	-0.224806	0.748633	99
Es	-1.994856	1.601442	-1.091382	99
Es	-1.627990	1.426331	-0.756950	99
Es	-1.457684	-0.244198	-0.051558	99
Es	-1.676626	1.561245	-0.489057	99
Es	-1.005482	-0.132958	1.089951	99
Es	1.404042	-1.553182	0.808050	99
Es	1.542720	0.830930	-0.736302	99
Es	1.016547	1.187854	0.305647	99
45
Properties=species:S:1:pos:R:3:Z:I:1 energy=-344.96606714936564 field_type=dipole dipole="0.000000 0.000000 0.000000" charge=0
O	-1.627788	1.426456	-0.756835	8
C	-1.928578	0.050456	-0.568315	6
C	-0.996418	-0.547604	0.475045	6
C	0.421742	-0.651494	-0.068895	6
C	1.293702	0.613506	-0.066445	6
C	2.270932	-0.224664	0.748625	6
O	1.296982	-1.283014	0.908885	8
H	-2.292638	1.782397	-1.371845	1
H	-1.837318	-0.463414	-1.530565	1
H	-2.965398	-0.024504	-0.225125	1
H	-1.356638	-1.550204	0.732425	1
H	-1.009908	0.056886	1.389455	1
H	0.469112	-1.213704	-1.010825	1
H	0.884722	1.471266	0.474665	1
H	1.656733	0.930196	-1.047185	1
H	3.153892	-0.577244	0.207565	1
H	2.566862	0.204676	1.709375	1
Es	2.880561	-0.462575	0.372678	99
Es	1.164777	-1.241080	1.179626	99
Es	0.444810	-1.033436	-0.723726	99
Es	2.270771	-0.224810	0.748635	99
Es	0.421864	-0.651558	-0.068733	99
Es	-1.675538	1.561653	-0.488758	99
Es	1.016498	1.187830	0.305704	99
Es	-2.647791	-0.008569	-0.334921	99
Es	-1.864982	-0.312636	-1.231181	99
Es	1.542739	0.831035	-0.736136	99
Es	1.843986	0.264027	0.332358	99
Es	-0.996433	-0.547598	0.474987	99
Es	-1.627966	1.426365	-0.756889	99
Es	-1.457635	-0.244281	-0.051641	99
Es	1.404609	-1.550708	0.805971	99
Es	-1.994992	1.601555	-1.091093	99
Es	2.480481	0.071218	1.408370	99
Es	1.293717	0.613448	-0.066436	99
Es	-1.005496	-0.132928	1.089939	99
Es	0.951443	-1.072489	0.535940	99
Es	1.297015	-1.282790	0.908695	99
Es	1.692571	-0.900236	0.865522	99
Es	-1.928513	0.050666	-0.568329	99
Es	-1.756738	0.906769	-0.701547	99
Es	-1.359228	1.440162	-0.899983	99
Es	-0.296904	-0.593543	0.197526	99
Es	0.797748	0.031561	-0.122608	99
Es	-1.242992	-1.229187	0.639604	99
