42
Properties=species:S:1:pos:R:3:Z:I:1 energy=-343.80841372855036 field_type=dipole dipole="0.000000 0.000000 0.000000" charge=0
O	-0.153927	-1.832183	0.755257	8
C	-0.810397	-1.209563	-0.336823	6
C	-0.439708	0.245587	-0.351383	6
C	-1.369697	1.217536	-0.355383	6
C	1.033163	0.566297	-0.408833	6
C	1.598083	0.720037	0.985047	6
O	2.311092	1.664817	1.317807	8
H	-0.471707	-2.751283	0.782027	1
H	-1.889597	-1.356183	-0.223273	1
H	-0.488287	-1.693173	-1.264733	1
H	-2.432077	0.994036	-0.325743	1
H	-1.091328	2.267986	-0.376783	1
H	1.206283	1.499286	-0.957923	1
H	1.586723	-0.224073	-0.926123	1
H	1.411383	-0.109123	1.686857	1
Es	1.459521	0.157647	1.452565	99
Es	0.303402	0.395370	-0.370580	99
Es	-1.369760	1.217598	-0.355390	99
Es	-0.154101	-1.832316	0.755067	99
Es	-0.902508	0.740702	-0.023412	99
Es	-1.555055	-1.306048	-0.265063	99
Es	2.255695	1.200639	1.116676	99
Es	1.843820	1.447387	1.273276	99
Es	-0.257897	-1.694388	1.008449	99
Es	1.598065	0.720066	0.985000	99
Es	-0.334207	-2.323300	0.752205	99
Es	-0.439594	0.245488	-0.351384	99
Es	1.402510	0.030389	-0.737837	99
Es	-0.624448	-0.478662	-0.339690	99
Es	2.350538	1.876159	1.087823	99
Es	0.145012	-1.840294	0.683510	99
Es	1.141575	1.191902	-0.773640	99
Es	-0.411413	-1.613005	0.335269	99
Es	-0.917727	0.721260	-0.680532	99
Es	-0.810267	-1.209631	-0.336642	99
Es	-1.184656	1.927703	-0.373861	99
Es	-0.588576	-1.532358	-0.978988	99
Es	-2.089422	1.067441	-0.334994	99
Es	1.294310	0.636666	0.281722	99
Es	2.310891	1.664579	1.317664	99
Es	2.410057	1.641898	1.614095	99
Es	1.033120	0.566257	-0.408782	99
42
Properties=species:S:1:pos:R:3:Z:I:1 energy=-343.80841372855036 field_type=dipole dipole="0.000000 0.000000 0.000000" charge=0
O	-0.153927	-1.832183	0.755257	8
C	-0.810397	-1.209563	-0.336823	6
C	-0.439708	0.245587	-0.351383	6
C	-1.369697	1.217536	-0.355383	6
C	1.033163	0.566297	-0.408833	6
C	1.598083	0.720037	0.985047	6
O	2.311092	1.664817	1.317807	8
H	-0.471707	-2.751283	0.782027	1
H	-1.889597	-1.356183	-0.223273	1
H	-0.488287	-1.693173	-1.264733	1
H	-2.432077	0.994036	-0.325743	1
H	-1.091328	2.267986	-0.376783	1
H	1.206283	1.499286	-0.957923	1
H	1.586723	-0.224073	-0.926123	1
H	1.411383	-0.109123	1.686857	1
Es	0.303456	0.395438	-0.370900	99
Es	2.350418	1.876377	1.087013	99
Es	-0.810268	-1.209631	-0.336643	99
Es	-1.184499	1.927732	-0.373758	99
Es	2.409612	1.642411	1.613850	99
Es	1.294252	0.636843	0.281664	99
Es	-0.902581	0.740684	-0.023455	99
Es	-0.439593	0.245487	-0.351396	99
Es	-0.624556	-0.478705	-0.339712	99
Es	-2.089485	1.067476	-0.335103	99
Es	0.145802	-1.839623	0.684569	99
Es	1.459505	0.157643	1.452675	99
Es	2.310942	1.664588	1.317715	99
Es	-1.369759	1.217598	-0.355391	99
Es	1.141534	1.191800	-0.773637	99
Es	1.598068	0.720066	0.985000	99
Es	1.844430	1.447017	1.273430	99
Es	-0.917763	0.721169	-0.680110	99
Es	-0.588602	-1.532310	-0.979019	99
Es	-0.333354	-2.322951	0.750749	99
Es	2.255667	1.200218	1.117462	99
Es	1.033119	0.566256	-0.408782	99
Es	-0.154128	-1.832332	0.755022	99
Es	1.402585	0.030347	-0.737855	99
Es	-0.411359	-1.612742	0.335313	99
Es	-0.259509	-1.695678	1.008883	99
Es	-1.555050	-1.306027	-0.265056	99
42
Properties=species:S:1:pos:R:3:Z:I:1 energy=-343.80841372855036 field_type=dipole dipole="0.000000 0.000000 0.000000" charge=0
O	-0.153927	-1.832183	0.755257	8
C	-0.810397	-1.209563	-0.336823	6
C	-0.439708	0.245587	-0.351383	6
C	-1.369697	1.217536	-0.355383	6
C	1.033163	0.566297	-0.408833	6
C	1.598083	0.720037	0.985047	6
O	2.311092	1.664817	1.317807	8
H	-0.471707	-2.751283	0.782027	1
H	-1.889597	-1.356183	-0.223273	1
H	-0.488287	-1.693173	-1.264733	1
H	-2.432077	0.994036	-0.325743	1
H	-1.091328	2.267986	-0.376783	1
H	1.206283	1.499286	-0.957923	1
H	1.586723	-0.224073	-0.926123	1
H	1.411383	-0.109123	1.686857	1
Es	2.310887	1.664560	1.317698	99
Es	1.598065	0.720065	0.984999	99
Es	-1.184471	1.927789	-0.373751	99
Es	-0.917697	0.721251	-0.679978	99
Es	-1.555049	-1.305943	-0.265054	99
Es	-0.902631	0.740598	-0.023798	99
Es	-0.154110	-1.832356	0.755058	99
Es	-0.588700	-1.532430	-0.978917	99
Es	-1.369758	1.217596	-0.355384	99
Es	1.844284	1.447586	1.275338	99
Es	1.459545	0.157648	1.452693	99
Es	-0.334641	-2.323212	0.753124	99
Es	-0.624539	-0.478756	-0.339953	99
Es	1.141547	1.191919	-0.773768	99
Es	2.254222	1.200136	1.117557	99
Es	-0.439594	0.245489	-0.351388	99
Es	-0.256144	-1.693922	1.008496	99
Es	-2.089489	1.067430	-0.335069	99
Es	0.303480	0.395308	-0.370629	99
Es	0.144219	-1.841085	0.682618	99
Es	2.411760	1.642739	1.612960	99
Es	2.349805	1.875644	1.085976	99
Es	1.294362	0.636727	0.281505	99
Es	1.402573	0.030481	-0.737670	99
Es	-0.411893	-1.612737	0.335290	99
Es	-0.810268	-1.209631	-0.336644	99
Es	1.033121	0.566257	-0.408783	99
42
Properties=species:S:1:pos:R:3:Z:I:1 energy=-343.80841372855036 field_type=dipole dipole="0.000000 0.000000 0.000000" charge=0
O	-0.153927	-1.832183	0.755257	8
C	-0.810397	-1.209563	-0.336823	6
C	-0.439708	0.245587	-0.351383	6
C	-1.369697	1.217536	-0.355383	6
C	1.033163	0.566297	-0.408833	6
C	1.598083	0.720037	0.985047	6
O	2.311092	1.664817	1.317807	8
H	-0.471707	-2.751283	0.782027	1
H	-1.889597	-1.356183	-0.223273	1
H	-0.488287	-1.693173	-1.264733	1
H	-2.432077	0.994036	-0.325743	1
H	-1.091328	2.267986	-0.376783	1
H	1.206283	1.499286	-0.957923	1
H	1.586723	-0.224073	-0.926123	1
H	1.411383	-0.109123	1.686857	1
Es	0.144248	-1.840691	0.684173	99
Es	-0.810269	-1.209630	-0.336644	99
Es	-0.917758	0.721211	-0.679967	99
Es	2.255050	1.201320	1.115191	99
Es	-1.555024	-1.305994	-0.265093	99
Es	1.294240	0.636684	0.281557	99
Es	-0.624689	-0.478777	-0.339747	99
Es	2.310927	1.664615	1.317744	99
Es	-1.369758	1.217595	-0.355378	99
Es	-0.439592	0.245488	-0.351380	99
Es	2.350384	1.876246	1.088932	99
Es	-0.154162	-1.832338	0.755021	99
Es	1.844309	1.447635	1.272591	99
Es	-0.334170	-2.323267	0.752640	99
Es	-0.411017	-1.612759	0.334464	99
Es	2.410381	1.640806	1.615002	99
Es	-0.588669	-1.532330	-0.978953	99
Es	1.459562	0.157627	1.452709	99
Es	0.303507	0.395515	-0.370671	99
Es	1.141612	1.191913	-0.773571	99
Es	-2.089523	1.067432	-0.334995	99
Es	-0.257435	-1.694304	1.008300	99
Es	-0.902566	0.740633	-0.024057	99
Es	1.598065	0.720065	0.985000	99
Es	1.402551	0.030416	-0.737857	99
Es	1.033120	0.566257	-0.408782	99
Es	-1.184436	1.927780	-0.373701	99
42
Properties=species:S:1:pos:R:3:Z:I:1 energy=-343.80841372855036 field_type=dipole dipole="0.000000 0.000000 0.000000" charge=0
O	-0.153927	-1.832183	0.755257	8
C	-0.810397	-1.209563	-0.336823	6
C	-0.439708	0.245587	-0.351383	6
C	-1.369697	1.217536	-0.355383	6
C	1.033163	0.566297	-0.408833	6
C	1.598083	0.720037	0.985047	6
O	2.311092	1.664817	1.317807	8
H	-0.471707	-2.751283	0.782027	1
H	-1.889597	-1.356183	-0.223273	1
H	-0.488287	-1.693173	-1.264733	1
H	-2.432077	0.994036	-0.325743	1
H	-1.091328	2.267986	-0.376783	1
H	1.206283	1.499286	-0.957923	1
H	1.586723	-0.224073	-0.926123	1
H	1.411383	-0.109123	1.686857	1
Es	1.402652	0.030429	-0.737824	99
Es	-1.555028	-1.305940	-0.265070	99
Es	-0.332955	-2.323899	0.751768	99
Es	2.255496	1.199796	1.118157	99
Es	2.310905	1.664583	1.317707	99
Es	0.303500	0.395499	-0.370684	99
Es	1.459555	0.157662	1.452738	99
Es	-0.154139	-1.832344	0.754985	99
Es	-0.917712	0.721219	-0.679781	99
Es	0.146563	-1.837794	0.686705	99
Es	-0.411479	-1.612693	0.334939	99
Es	1.033121	0.566257	-0.408783	99
Es	1.294198	0.636694	0.281455	99
Es	2.410958	1.644018	1.612955	99
Es	-0.439597	0.245492	-0.351379	99
Es	-0.588689	-1.532368	-0.978962	99
Es	-1.184465	1.927767	-0.373842	99
Es	1.598065	0.720064	0.985000	99
Es	1.141602	1.191920	-0.773541	99
Es	-2.089507	1.067434	-0.335103	99
Es	-0.260546	-1.696628	1.006200	99
Es	-1.369760	1.217602	-0.355389	99
Es	1.843811	1.447353	1.274530	99
Es	-0.902615	0.740596	-0.023870	99
Es	-0.810269	-1.209631	-0.336645	99
Es	-0.624645	-0.478798	-0.339892	99
Es	2.349864	1.874860	1.086152	99
42
Properties=species:S:1:pos:R:3:Z:I:1 energy=-343.80841372855036 field_type=dipole dipole="0.000000 0.000000 0.000000" charge=0
O	-0.153927	-1.832183	0.755257	8
C	-0.810397	-1.209563	-0.336823	6
C	-0.439708	0.245587	-0.351383	6
C	-1.369697	1.217536	-0.355383	6
C	1.033163	0.566297	-0.408833	6
C	1.598083	0.720037	0.985047	6
O	2.311092	1.664817	1.317807	8
H	-0.471707	-2.751283	0.782027	1
H	-1.889597	-1.356183	-0.223273	1
H	-0.488287	-1.693173	-1.264733	1
H	-2.432077	0.994036	-0.325743	1
H	-1.091328	2.267986	-0.376783	1
H	1.206283	1.499286	-0.957923	1
H	1.586723	-0.224073	-0.926123	1
H	1.411383	-0.109123	1.686857	1
Es	-0.439597	0.245490	-0.351373	99
Es	-0.588728	-1.532272	-0.978924	99
Es	-2.089530	1.067434	-0.335068	99
Es	1.459556	0.157666	1.452777	99
Es	-1.184514	1.927706	-0.373788	99
Es	2.310914	1.664600	1.317725	99
Es	2.411207	1.640715	1.613163	99
Es	-1.369753	1.217591	-0.355381	99
Es	2.255864	1.201589	1.114977	99
Es	1.402582	0.030320	-0.737902	99
Es	-0.154126	-1.832311	0.755074	99
Es	1.141602	1.191885	-0.773540	99
Es	-0.256999	-1.695614	1.007087	99
Es	1.033121	0.566257	-0.408783	99
Es	-0.412103	-1.611931	0.335414	99
Es	-0.334389	-2.323502	0.752895	99
Es	0.145119	-1.840080	0.684174	99
Es	-0.810269	-1.209630	-0.336645	99
Es	-0.902473	0.740662	-0.024091	99
Es	-0.624787	-0.478769	-0.339673	99
Es	1.598065	0.720064	0.984999	99
Es	2.349030	1.877465	1.088949	99
Es	-0.917775	0.721226	-0.679927	99
Es	0.303544	0.395632	-0.370505	99
Es	-1.554971	-1.305994	-0.265142	99
Es	1.844080	1.446193	1.274664	99
Es	1.294215	0.636758	0.281369	99
42
Properties=species:S:1:pos:R:3:Z:I:1 energy=-343.80841372855036 field_type=dipole dipole="0.000000 0.000000 0.000000" charge=0
O	-0.153927	-1.832183	0.755257	8
C	-0.810397	-1.209563	-0.336823	6
C	-0.439708	0.245587	-0.351383	6
C	-1.369697	1.217536	-0.355383	6
C	1.033163	0.566297	-0.408833	6
C	1.598083	0.720037	0.985047	6
O	2.311092	1.664817	1.317807	8
H	-0.471707	-2.751283	0.782027	1
H	-1.889597	-1.356183	-0.223273	1
H	-0.488287	-1.693173	-1.264733	1
H	-2.432077	0.994036	-0.325743	1
H	-1.091328	2.267986	-0.376783	1
H	1.206283	1.499286	-0.957923	1
H	1.586723	-0.224073	-0.926123	1
H	1.411383	-0.109123	1.686857	1
Es	2.410943	1.643150	1.613285	99
Es	2.255252	1.200157	1.117311	99
Es	-0.624831	-0.478877	-0.339693	99
Es	1.598070	0.720063	0.984998	99
Es	-0.810269	-1.209630	-0.336646	99
Es	-0.154171	-1.832326	0.755040	99
Es	-2.089564	1.067352	-0.335180	99
Es	1.141675	1.191883	-0.773739	99
Es	-0.917749	0.721198	-0.679458	99
Es	-1.369758	1.217596	-0.355386	99
Es	0.303599	0.395796	-0.370441	99
Es	1.459579	0.157650	1.452751	99
Es	-0.588730	-1.532264	-0.978987	99
Es	-0.333906	-2.323612	0.753041	99
Es	1.033122	0.566258	-0.408785	99
Es	1.294191	0.636875	0.281217	99
Es	-1.184431	1.927803	-0.373860	99
Es	-0.411655	-1.612301	0.334671	99
Es	1.402594	0.030224	-0.737669	99
Es	2.349959	1.875230	1.086986	99
Es	2.310913	1.664574	1.317747	99
Es	-0.257258	-1.695199	1.007259	99
Es	0.144494	-1.840013	0.684650	99
Es	-0.439596	0.245487	-0.351386	99
Es	-0.902591	0.740575	-0.024311	99
Es	1.843950	1.447460	1.274241	99
Es	-1.554947	-1.305958	-0.265131	99
42
Properties=species:S:1:pos:R:3:Z:I:1 energy=-343.80841372855036 field_type=dipole dipole="0.000000 0.000000 0.000000" charge=0
O	-0.153927	-1.832183	0.755257	8
C	-0.810397	-1.209563	-0.336823	6
C	-0.439708	0.245587	-0.351383	6
C	-1.369697	1.217536	-0.355383	6
C	1.033163	0.566297	-0.408833	6
C	1.598083	0.720037	0.985047	6
O	2.311092	1.664817	1.317807	8
H	-0.471707	-2.751283	0.782027	1
H	-1.889597	-1.356183	-0.223273	1
H	-0.488287	-1.693173	-1.264733	1
H	-2.432077	0.994036	-0.325743	1
H	-1.091328	2.267986	-0.376783	1
H	1.206283	1.499286	-0.957923	1
H	1.586723	-0.224073	-0.926123	1
H	1.411383	-0.109123	1.686857	1
Es	-2.089565	1.067360	-0.335343	99
Es	-0.258677	-1.695619	1.006637	99
Es	-0.439595	0.245489	-0.351376	99
Es	-0.810272	-1.209627	-0.336650	99
Es	1.402775	0.030374	-0.737827	99
Es	2.351718	1.875853	1.087683	99
Es	-1.369756	1.217594	-0.355394	99
Es	-0.588798	-1.532304	-0.978926	99
Es	2.310917	1.664611	1.317704	99
Es	0.145080	-1.839281	0.685877	99
Es	1.459588	0.157692	1.452831	99
Es	-0.624888	-0.478837	-0.339785	99
Es	1.294191	0.636891	0.281246	99
Es	-1.554913	-1.305926	-0.265142	99
Es	-0.333656	-2.323786	0.752721	99
Es	2.409596	1.641916	1.613331	99
Es	-0.411112	-1.612437	0.334463	99
Es	-0.154124	-1.832347	0.754998	99
Es	1.141560	1.191759	-0.773530	99
Es	1.598066	0.720065	0.984999	99
Es	1.033122	0.566258	-0.408784	99
Es	-0.917658	0.721287	-0.679413	99
Es	-0.902639	0.740529	-0.024314	99
Es	1.843629	1.447962	1.273257	99
Es	0.303531	0.395657	-0.370481	99
Es	2.255196	1.200222	1.117518	99
Es	-1.184432	1.927795	-0.373775	99
42
Properties=species:S:1:pos:R:3:Z:I:1 energy=-343.80841372855036 field_type=dipole dipole="0.000000 0.000000 0.000000" charge=0
O	-0.153927	-1.832183	0.755257	8
C	-0.810397	-1.209563	-0.336823	6
C	-0.439708	0.245587	-0.351383	6
C	-1.369697	1.217536	-0.355383	6
C	1.033163	0.566297	-0.408833	6
C	1.598083	0.720037	0.985047	6
O	2.311092	1.664817	1.317807	8
H	-0.471707	-2.751283	0.782027	1
H	-1.889597	-1.356183	-0.223273	1
H	-0.488287	-1.693173	-1.264733	1
H	-2.432077	0.994036	-0.325743	1
H	-1.091328	2.267986	-0.376783	1
H	1.206283	1.499286	-0.957923	1
H	1.586723	-0.224073	-0.926123	1
H	1.411383	-0.109123	1.686857	1
Es	-0.439595	0.245491	-0.351385	99
Es	-0.154147	-1.832333	0.755022	99
Es	1.598068	0.720063	0.984999	99
Es	1.033121	0.566257	-0.408783	99
Es	2.412186	1.643090	1.612498	99
Es	-1.184434	1.927812	-0.373843	99
Es	-0.334096	-2.323851	0.753604	99
Es	-0.257781	-1.695246	1.006168	99
Es	0.303631	0.395632	-0.370597	99
Es	-0.917722	0.721221	-0.679259	99
Es	-2.089567	1.067334	-0.335324	99
Es	-1.554932	-1.305949	-0.265193	99
Es	1.843963	1.447391	1.275605	99
Es	-0.411203	-1.612390	0.334280	99
Es	-0.588778	-1.532262	-0.978892	99
Es	-0.624962	-0.478830	-0.339684	99
Es	2.310905	1.664620	1.317734	99
Es	-0.810270	-1.209630	-0.336646	99
Es	1.141620	1.191786	-0.773661	99
Es	0.144736	-1.839667	0.685642	99
Es	1.459635	0.157675	1.452824	99
Es	-1.369757	1.217596	-0.355387	99
Es	1.294111	0.636931	0.281232	99
Es	2.254763	1.200235	1.116927	99
Es	-0.902590	0.740548	-0.024473	99
Es	1.402777	0.030395	-0.737644	99
Es	2.349204	1.875233	1.086764	99
42
Properties=species:S:1:pos:R:3:Z:I:1 energy=-343.80841372855036 field_type=dipole dipole="0.000000 0.000000 0.000000" charge=0
O	-0.153927	-1.832183	0.755257	8
C	-0.810397	-1.209563	-0.336823	6
C	-0.439708	0.245587	-0.351383	6
C	-1.369697	1.217536	-0.355383	6
C	1.033163	0.566297	-0.408833	6
C	1.598083	0.720037	0.985047	6
O	2.311092	1.664817	1.317807	8
H	-0.471707	-2.751283	0.782027	1
H	-1.889597	-1.356183	-0.223273	1
H	-0.488287	-1.693173	-1.264733	1
H	-2.432077	0.994036	-0.325743	1
H	-1.091328	2.267986	-0.376783	1
H	1.206283	1.499286	-0.957923	1
H	1.586723	-0.224073	-0.926123	1
H	1.411383	-0.109123	1.686857	1
Es	-0.154126	-1.832356	0.754974	99
Es	2.255541	1.200372	1.117078	99
Es	-0.810270	-1.209630	-0.336646	99
Es	1.598065	0.720064	0.985000	99
Es	-0.917779	0.721227	-0.679246	99
Es	1.402787	0.030414	-0.737865	99
Es	1.294143	0.636847	0.281175	99
Es	-2.089601	1.067310	-0.335145	99
Es	-0.439597	0.245490	-0.351386	99
Es	-1.554918	-1.305992	-0.265216	99
Es	1.843757	1.447340	1.273903	99
Es	-0.588783	-1.532238	-0.978864	99
Es	-0.411399	-1.612472	0.334130	99
Es	1.141545	1.191812	-0.773477	99
Es	1.033121	0.566257	-0.408784	99
Es	2.410346	1.642478	1.613039	99
Es	-0.333879	-2.323737	0.753702	99
Es	-1.184398	1.927825	-0.373795	99
Es	-0.902513	0.740549	-0.024794	99
Es	0.144889	-1.839488	0.685907	99
Es	-0.257953	-1.695444	1.006011	99
Es	2.350528	1.875797	1.087731	99
Es	2.310899	1.664550	1.317736	99
Es	-1.369757	1.217595	-0.355387	99
Es	0.303635	0.395726	-0.370435	99
Es	-0.625032	-0.478847	-0.339700	99
Es	1.459632	0.157704	1.452881	99
42
Properties=species:S:1:pos:R:3:Z:I:1 energy=-343.80841372855036 field_type=dipole dipole="0.000000 0.000000 0.000000" charge=0
O	-0.153927	-1.832183	0.755257	8
C	-0.810397	-1.209563	-0.336823	6
C	-0.439708	0.245587	-0.351383	6
C	-1.369697	1.217536	-0.355383	6
C	1.033163	0.566297	-0.408833	6
C	1.598083	0.720037	0.985047	6
O	2.311092	1.664817	1.317807	8
H	-0.471707	-2.751283	0.782027	1
H	-1.889597	-1.356183	-0.223273	1
H	-0.488287	-1.693173	-1.264733	1
H	-2.432077	0.994036	-0.325743	1
H	-1.091328	2.267986	-0.376783	1
H	1.206283	1.499286	-0.957923	1
H	1.586723	-0.224073	-0.926123	1
H	1.411383	-0.109123	1.686857	1
Es	1.402729	0.030368	-0.737807	99
Es	1.033121	0.566257	-0.408783	99
Es	-0.333161	-2.324146	0.753004	99
Es	1.598063	0.720063	0.984996	99
Es	-0.588897	-1.532213	-0.978861	99
Es	-0.258768	-1.696145	1.005881	99
Es	-1.554835	-1.305937	-0.265203	99
Es	-0.625051	-0.478875	-0.339808	99
Es	2.350503	1.875680	1.087854	99
Es	-0.810283	-1.209631	-0.336657	99
Es	1.843696	1.447377	1.273937	99
Es	1.294136	0.636921	0.281206	99
Es	-1.369757	1.217595	-0.355386	99
Es	-0.902602	0.740511	-0.024793	99
Es	2.410376	1.642508	1.612944	99
Es	-0.154143	-1.832344	0.755011	99
Es	-1.184449	1.927846	-0.373779	99
Es	-0.411155	-1.612260	0.334032	99
Es	2.310926	1.664609	1.317713	99
Es	0.303658	0.395894	-0.370493	99
Es	1.141629	1.191727	-0.773542	99
Es	-0.439597	0.245491	-0.351385	99
Es	1.459592	0.157717	1.452908	99
Es	0.144787	-1.838703	0.686814	99
Es	-0.917647	0.721273	-0.679050	99
Es	2.255609	1.200320	1.117046	99
Es	-2.089595	1.067245	-0.335271	99
42
Properties=species:S:1:pos:R:3:Z:I:1 energy=-343.80841372855036 field_type=dipole dipole="0.000000 0.000000 0.000000" charge=0
O	-0.153927	-1.832183	0.755257	8
C	-0.810397	-1.209563	-0.336823	6
C	-0.439708	0.245587	-0.351383	6
C	-1.369697	1.217536	-0.355383	6
C	1.033163	0.566297	-0.408833	6
C	1.598083	0.720037	0.985047	6
O	2.311092	1.664817	1.317807	8
H	-0.471707	-2.751283	0.782027	1
H	-1.889597	-1.356183	-0.223273	1
H	-0.488287	-1.693173	-1.264733	1
H	-2.432077	0.994036	-0.325743	1
H	-1.091328	2.267986	-0.376783	1
H	1.206283	1.499286	-0.957923	1
H	1.586723	-0.224073	-0.926123	1
H	1.411383	-0.109123	1.686857	1
Es	-0.439596	0.245490	-0.351386	99
Es	-1.369758	1.217596	-0.355387	99
Es	-0.411018	-1.612035	0.333928	99
Es	1.294095	0.636970	0.281141	99
Es	-0.810271	-1.209630	-0.336647	99
Es	1.141682	1.191768	-0.773633	99
Es	2.310914	1.664582	1.317721	99
Es	-0.902597	0.740516	-0.024821	99
Es	1.033122	0.566257	-0.408783	99
Es	0.303685	0.395843	-0.370522	99
Es	2.410503	1.640847	1.612118	99
Es	2.352170	1.875978	1.088680	99
Es	2.254864	1.200685	1.116714	99
Es	-0.154145	-1.832320	0.755031	99
Es	-2.089599	1.067311	-0.335276	99
Es	-0.625153	-0.478909	-0.339705	99
Es	-0.257547	-1.695518	1.006289	99
Es	1.598075	0.720065	0.984999	99
Es	-1.554835	-1.305927	-0.265203	99
Es	1.842551	1.448443	1.274317	99
Es	-0.588865	-1.532201	-0.978926	99
Es	1.402742	0.030365	-0.737667	99
Es	-0.333610	-2.324125	0.753442	99
Es	-0.917704	0.721211	-0.678991	99
Es	0.143898	-1.839576	0.686077	99
Es	-1.184394	1.927828	-0.373850	99
Es	1.459675	0.157636	1.452868	99
42
Properties=species:S:1:pos:R:3:Z:I:1 energy=-343.80841372855036 field_type=dipole dipole="0.000000 0.000000 0.000000" charge=0
O	-0.153927	-1.832183	0.755257	8
C	-0.810397	-1.209563	-0.336823	6
C	-0.439708	0.245587	-0.351383	6
C	-1.369697	1.217536	-0.355383	6
C	1.033163	0.566297	-0.408833	6
C	1.598083	0.720037	0.985047	6
O	2.311092	1.664817	1.317807	8
H	-0.471707	-2.751283	0.782027	1
H	-1.889597	-1.356183	-0.223273	1
H	-0.488287	-1.693173	-1.264733	1
H	-2.432077	0.994036	-0.325743	1
H	-1.091328	2.267986	-0.376783	1
H	1.206283	1.499286	-0.957923	1
H	1.586723	-0.224073	-0.926123	1
H	1.411383	-0.109123	1.686857	1
Es	1.598066	0.720065	0.984999	99
Es	-0.625203	-0.478944	-0.339783	99
Es	-0.154148	-1.832316	0.755069	99
Es	2.412029	1.643171	1.612295	99
Es	1.141721	1.191777	-0.773541	99
Es	-1.184379	1.927825	-0.373837	99
Es	-0.810273	-1.209629	-0.336652	99
Es	-1.369757	1.217595	-0.355387	99
Es	0.144683	-1.838912	0.686794	99
Es	2.310920	1.664569	1.317742	99
Es	-0.258338	-1.696147	1.005489	99
Es	-0.902573	0.740521	-0.024943	99
Es	1.459636	0.157756	1.452932	99
Es	1.402828	0.030359	-0.737682	99
Es	2.255408	1.200045	1.116050	99
Es	-1.554821	-1.305916	-0.265236	99
Es	-0.917671	0.721237	-0.678894	99
Es	2.348646	1.875435	1.087850	99
Es	0.303646	0.395888	-0.370540	99
Es	-0.411229	-1.612053	0.333983	99
Es	1.033122	0.566257	-0.408785	99
Es	1.293973	0.636908	0.281059	99
Es	-0.588870	-1.532214	-0.978896	99
Es	-2.089629	1.067291	-0.335243	99
Es	-0.333406	-2.324146	0.753474	99
Es	1.844101	1.447237	1.275594	99
Es	-0.439598	0.245492	-0.351385	99
42
Properties=species:S:1:pos:R:3:Z:I:1 energy=-343.80841372855036 field_type=dipole dipole="0.000000 0.000000 0.000000" charge=0
O	-0.153927	-1.832183	0.755257	8
C	-0.810397	-1.209563	-0.336823	6
C	-0.439708	0.245587	-0.351383	6
C	-1.369697	1.217536	-0.355383	6
C	1.033163	0.566297	-0.408833	6
C	1.598083	0.720037	0.985047	6
O	2.311092	1.664817	1.317807	8
H	-0.471707	-2.751283	0.782027	1
H	-1.889597	-1.356183	-0.223273	1
H	-0.488287	-1.693173	-1.264733	1
H	-2.432077	0.994036	-0.325743	1
H	-1.091328	2.267986	-0.376783	1
H	1.206283	1.499286	-0.957923	1
H	1.586723	-0.224073	-0.926123	1
H	1.411383	-0.109123	1.686857	1
Es	1.294034	0.636990	0.280970	99
Es	-0.917672	0.721234	-0.678770	99
Es	2.255948	1.200252	1.117275	99
Es	-2.089671	1.067306	-0.335306	99
Es	-1.554787	-1.305858	-0.265192	99
Es	1.843708	1.446996	1.274114	99
Es	0.144231	-1.839454	0.685879	99
Es	-0.810269	-1.209631	-0.336645	99
Es	-0.439597	0.245499	-0.351385	99
Es	-0.154121	-1.832381	0.755003	99
Es	1.033125	0.566258	-0.408786	99
Es	-0.256977	-1.695508	1.005404	99
Es	-0.588968	-1.532252	-0.978892	99
Es	1.141621	1.191783	-0.773554	99
Es	-0.625191	-0.478899	-0.339838	99
Es	-0.902606	0.740474	-0.024992	99
Es	-1.369757	1.217595	-0.355387	99
Es	-0.333830	-2.324062	0.754480	99
Es	1.598065	0.720065	0.984999	99
Es	2.410612	1.643301	1.612756	99
Es	1.402892	0.030405	-0.737682	99
Es	2.310952	1.664633	1.317733	99
Es	-1.184356	1.927788	-0.373880	99
Es	2.349911	1.875253	1.087622	99
Es	0.303711	0.395828	-0.370407	99
Es	-0.411722	-1.612203	0.334033	99
Es	1.459601	0.157739	1.452974	99
42
Properties=species:S:1:pos:R:3:Z:I:1 energy=-343.80841372855036 field_type=dipole dipole="0.000000 0.000000 0.000000" charge=0
O	-0.153927	-1.832183	0.755257	8
C	-0.810397	-1.209563	-0.336823	6
C	-0.439708	0.245587	-0.351383	6
C	-1.369697	1.217536	-0.355383	6
C	1.033163	0.566297	-0.408833	6
C	1.598083	0.720037	0.985047	6
O	2.311092	1.664817	1.317807	8
H	-0.471707	-2.751283	0.782027	1
H	-1.889597	-1.356183	-0.223273	1
H	-0.488287	-1.693173	-1.264733	1
H	-2.432077	0.994036	-0.325743	1
H	-1.091328	2.267986	-0.376783	1
H	1.206283	1.499286	-0.957923	1
H	1.586723	-0.224073	-0.926123	1
H	1.411383	-0.109123	1.686857	1
Es	1.402791	0.030302	-0.737603	99
Es	-2.089667	1.067165	-0.335319	99
Es	1.598066	0.720065	0.984999	99
Es	-0.154076	-1.832370	0.754981	99
Es	2.413754	1.646695	1.611941	99
Es	1.843927	1.446896	1.276560	99
Es	-0.411983	-1.611320	0.334437	99
Es	-0.810272	-1.209629	-0.336649	99
Es	-0.439598	0.245492	-0.351384	99
Es	2.347043	1.872669	1.085278	99
Es	1.459664	0.157738	1.452952	99
Es	-1.184403	1.927868	-0.373919	99
Es	-0.588888	-1.532147	-0.978864	99
Es	-1.369758	1.217598	-0.355391	99
Es	0.142209	-1.841544	0.683599	99
Es	-0.334856	-2.323876	0.754969	99
Es	1.141728	1.191712	-0.773669	99
Es	-0.902554	0.740520	-0.025177	99
Es	-0.917647	0.721246	-0.678557	99
Es	1.033119	0.566258	-0.408783	99
Es	-0.253688	-1.694502	1.006831	99
Es	1.294071	0.637038	0.280898	99
Es	2.255342	1.199516	1.118065	99
Es	0.303689	0.396005	-0.370379	99
Es	2.310998	1.664672	1.317728	99
Es	-0.625318	-0.478944	-0.339743	99
Es	-1.554806	-1.305971	-0.265275	99
42
Properties=species:S:1:pos:R:3:Z:I:1 energy=-343.80841372855036 field_type=dipole dipole="0.000000 0.000000 0.000000" charge=0
O	-0.153927	-1.832183	0.755257	8
C	-0.810397	-1.209563	-0.336823	6
C	-0.439708	0.245587	-0.351383	6
C	-1.369697	1.217536	-0.355383	6
C	1.033163	0.566297	-0.408833	6
C	1.598083	0.720037	0.985047	6
O	2.311092	1.664817	1.317807	8
H	-0.471707	-2.751283	0.782027	1
H	-1.889597	-1.356183	-0.223273	1
H	-0.488287	-1.693173	-1.264733	1
H	-2.432077	0.994036	-0.325743	1
H	-1.091328	2.267986	-0.376783	1
H	1.206283	1.499286	-0.957923	1
H	1.586723	-0.224073	-0.926123	1
H	1.411383	-0.109123	1.686857	1
Es	1.459631	0.157756	1.453016	99
Es	1.402844	0.030239	-0.737650	99
Es	2.255580	1.200487	1.116594	99
Es	1.141655	1.191648	-0.773649	99
Es	-0.917692	0.721195	-0.678437	99
Es	-1.554751	-1.305956	-0.265328	99
Es	-1.369757	1.217593	-0.355402	99
Es	-2.089654	1.067255	-0.335403	99
Es	-0.255543	-1.694683	1.006124	99
Es	0.142713	-1.840445	0.685149	99
Es	-0.333964	-2.324096	0.754960	99
Es	-0.588879	-1.532153	-0.978866	99
Es	2.410188	1.642003	1.612898	99
Es	-0.411521	-1.612097	0.333589	99
Es	1.598065	0.720066	0.984999	99
Es	-0.902652	0.740414	-0.025095	99
Es	-0.810270	-1.209630	-0.336647	99
Es	-0.154148	-1.832337	0.755016	99
Es	2.350851	1.875784	1.088673	99
Es	0.303794	0.396111	-0.370296	99
Es	-0.439602	0.245497	-0.351379	99
Es	-1.184350	1.927843	-0.373997	99
Es	1.294023	0.637154	0.280883	99
Es	-0.625310	-0.478885	-0.339791	99
Es	2.310923	1.664606	1.317714	99
Es	1.843587	1.447525	1.273641	99
Es	1.033126	0.566257	-0.408789	99
42
Properties=species:S:1:pos:R:3:Z:I:1 energy=-343.80841372855036 field_type=dipole dipole="0.000000 0.000000 0.000000" charge=0
O	-0.153927	-1.832183	0.755257	8
C	-0.810397	-1.209563	-0.336823	6
C	-0.439708	0.245587	-0.351383	6
C	-1.369697	1.217536	-0.355383	6
C	1.033163	0.566297	-0.408833	6
C	1.598083	0.720037	0.985047	6
O	2.311092	1.664817	1.317807	8
H	-0.471707	-2.751283	0.782027	1
H	-1.889597	-1.356183	-0.223273	1
H	-0.488287	-1.693173	-1.264733	1
H	-2.432077	0.994036	-0.325743	1
H	-1.091328	2.267986	-0.376783	1
H	1.206283	1.499286	-0.957923	1
H	1.586723	-0.224073	-0.926123	1
H	1.411383	-0.109123	1.686857	1
Es	1.403002	0.030318	-0.737472	99
Es	0.303757	0.395970	-0.370376	99
Es	0.141559	-1.841482	0.684263	99
Es	-0.334432	-2.324085	0.754895	99
Es	2.255558	1.200989	1.116177	99
Es	-0.411113	-1.611672	0.333650	99
Es	-0.625401	-0.478955	-0.339608	99
Es	-0.917772	0.721157	-0.678531	99
Es	-0.902572	0.740445	-0.025561	99
Es	-0.588909	-1.532085	-0.978832	99
Es	-2.089666	1.067233	-0.335235	99
Es	2.350916	1.876278	1.089115	99
Es	1.141706	1.191718	-0.773670	99
Es	-1.554780	-1.305964	-0.265331	99
Es	1.293859	0.637170	0.280803	99
Es	2.410401	1.641220	1.612621	99
Es	-0.154101	-1.832338	0.755066	99
Es	2.310926	1.664607	1.317719	99
Es	-1.184294	1.927891	-0.373878	99
Es	1.459630	0.157774	1.453038	99
Es	-0.254293	-1.694101	1.006984	99
Es	-1.369757	1.217600	-0.355383	99
Es	1.598066	0.720064	0.984998	99
Es	1.843345	1.447280	1.273895	99
Es	1.033121	0.566258	-0.408782	99
Es	-0.810272	-1.209629	-0.336650	99
Es	-0.439597	0.245491	-0.351390	99
42
Properties=species:S:1:pos:R:3:Z:I:1 energy=-343.80841372855036 field_type=dipole dipole="0.000000 0.000000 0.000000" charge=0
O	-0.153927	-1.832183	0.755257	8
C	-0.810397	-1.209563	-0.336823	6
C	-0.439708	0.245587	-0.351383	6
C	-1.369697	1.217536	-0.355383	6
C	1.033163	0.566297	-0.408833	6
C	1.598083	0.720037	0.985047	6
O	2.311092	1.664817	1.317807	8
H	-0.471707	-2.751283	0.782027	1
H	-1.889597	-1.356183	-0.223273	1
H	-0.488287	-1.693173	-1.264733	1
H	-2.432077	0.994036	-0.325743	1
H	-1.091328	2.267986	-0.376783	1
H	1.206283	1.499286	-0.957923	1
H	1.586723	-0.224073	-0.926123	1
H	1.411383	-0.109123	1.686857	1
Es	-2.089699	1.067191	-0.335315	99
Es	-0.154249	-1.832292	0.755076	99
Es	-0.810272	-1.209629	-0.336650	99
Es	1.033128	0.566255	-0.408786	99
Es	-0.589011	-1.532145	-0.978818	99
Es	-1.369753	1.217592	-0.355386	99
Es	1.141753	1.191860	-0.773459	99
Es	1.598064	0.720065	0.984999	99
Es	2.310888	1.664550	1.317712	99
Es	-1.554723	-1.305937	-0.265285	99
Es	-1.184314	1.927878	-0.373946	99
Es	2.411440	1.643232	1.612123	99
Es	-0.333544	-2.324295	0.754184	99
Es	-0.917694	0.721205	-0.678306	99
Es	-0.256070	-1.695653	1.005954	99
Es	1.459637	0.157807	1.453054	99
Es	1.293921	0.636877	0.280746	99
Es	0.142838	-1.839934	0.685981	99
Es	-0.902570	0.740460	-0.025539	99
Es	-0.411338	-1.611519	0.333657	99
Es	2.349423	1.875297	1.087980	99
Es	0.303786	0.396025	-0.370347	99
Es	-0.625471	-0.478903	-0.339747	99
Es	-0.439599	0.245494	-0.351381	99
Es	2.255923	1.200513	1.116800	99
Es	1.402895	0.030388	-0.737679	99
Es	1.843493	1.446769	1.274906	99
42
Properties=species:S:1:pos:R:3:Z:I:1 energy=-343.80841372855036 field_type=dipole dipole="0.000000 0.000000 0.000000" charge=0
O	-0.153927	-1.832183	0.755257	8
C	-0.810397	-1.209563	-0.336823	6
C	-0.439708	0.245587	-0.351383	6
C	-1.369697	1.217536	-0.355383	6
C	1.033163	0.566297	-0.408833	6
C	1.598083	0.720037	0.985047	6
O	2.311092	1.664817	1.317807	8
H	-0.471707	-2.751283	0.782027	1
H	-1.889597	-1.356183	-0.223273	1
H	-0.488287	-1.693173	-1.264733	1
H	-2.432077	0.994036	-0.325743	1
H	-1.091328	2.267986	-0.376783	1
H	1.206283	1.499286	-0.957923	1
H	1.586723	-0.224073	-0.926123	1
H	1.411383	-0.109123	1.686857	1
Es	-1.554729	-1.305883	-0.265290	99
Es	1.843553	1.447388	1.273125	99
Es	2.256459	1.200233	1.116381	99
Es	-0.258075	-1.696758	1.005114	99
Es	-0.625479	-0.479004	-0.339697	99
Es	-0.588987	-1.532117	-0.978868	99
Es	1.141663	1.191717	-0.773597	99
Es	1.403017	0.030318	-0.737565	99
Es	-1.369756	1.217594	-0.355388	99
Es	-0.902589	0.740442	-0.025654	99
Es	2.310907	1.664569	1.317751	99
Es	2.409484	1.642338	1.612838	99
Es	-0.411360	-1.611603	0.333545	99
Es	-2.089734	1.067194	-0.335316	99
Es	1.293850	0.637151	0.280743	99
Es	-1.184274	1.927871	-0.373934	99
Es	-0.810273	-1.209628	-0.336651	99
Es	2.350799	1.875793	1.089408	99
Es	-0.331737	-2.325326	0.753506	99
Es	-0.439597	0.245492	-0.351385	99
Es	-0.917714	0.721179	-0.678216	99
Es	-0.154143	-1.832338	0.755040	99
Es	1.033122	0.566257	-0.408785	99
Es	1.598065	0.720064	0.984998	99
Es	1.459623	0.157822	1.453084	99
Es	0.142963	-1.837674	0.687683	99
Es	0.303827	0.396059	-0.370346	99
