38
Properties=species:S:1:pos:R:3:Z:I:1 energy=-358.5536087066075 field_type=dipole dipole="0.000000 0.000000 0.000000" charge=0
C	1.453384	-0.132245	0.229547	6
O	0.621244	-1.305955	0.424577	8
C	-0.455756	-0.681815	-0.315063	6
C	-1.605146	-0.094445	0.510617	6
N	-1.532276	1.183615	0.707247	7
O	-0.335376	1.685715	0.084527	8
C	0.354804	0.578955	-0.557723	6
H	2.354014	-0.373165	-0.343573	1
H	1.731954	0.326685	1.182677	1
H	-0.752656	-1.252615	-1.196593	1
H	-2.424076	-0.730245	0.876377	1
H	0.589884	0.795515	-1.602613	1
Es	-0.165793	1.772784	0.317995	99
Es	0.951665	-0.873737	0.367260	99
Es	-0.455652	-0.681882	-0.314887	99
Es	0.541886	-1.333909	0.721155	99
Es	-0.335419	1.685340	0.084541	99
Es	-1.605119	-0.094474	0.510602	99
Es	-2.149089	-0.509318	0.754517	99
Es	-1.050552	-0.424762	0.114011	99
Es	0.517045	0.735427	-1.264269	99
Es	-1.418582	0.555122	0.862399	99
Es	0.954482	0.305027	-0.169645	99
Es	1.453224	-0.132423	0.229545	99
Es	0.354716	0.579088	-0.557586	99
Es	-0.845336	1.419295	0.341889	99
Es	-0.670470	-1.071825	-0.906412	99
Es	0.729906	-1.526801	0.245439	99
Es	-1.738693	1.439479	0.879616	99
Es	-1.531881	1.183202	0.706935	99
Es	-0.098455	-0.031212	-0.502401	99
Es	0.180161	-1.087749	0.154245	99
Es	0.621189	-1.305675	0.424379	99
Es	-0.082960	1.245109	-0.149939	99
Es	2.064386	-0.293556	-0.168445	99
Es	-1.713021	0.645009	0.366149	99
Es	1.641246	0.183477	0.872355	99
Es	-0.442159	1.864494	-0.137267	99
38
Properties=species:S:1:pos:R:3:Z:I:1 energy=-358.5536087066075 field_type=dipole dipole="0.000000 0.000000 0.000000" charge=0
C	1.453384	-0.132245	0.229547	6
O	0.621244	-1.305955	0.424577	8
C	-0.455756	-0.681815	-0.315063	6
C	-1.605146	-0.094445	0.510617	6
N	-1.532276	1.183615	0.707247	7
O	-0.335376	1.685715	0.084527	8
C	0.354804	0.578955	-0.557723	6
H	2.354014	-0.373165	-0.343573	1
H	1.731954	0.326685	1.182677	1
H	-0.752656	-1.252615	-1.196593	1
H	-2.424076	-0.730245	0.876377	1
H	0.589884	0.795515	-1.602613	1
Es	-0.166156	1.766732	0.319720	99
Es	1.641251	0.183456	0.872295	99
Es	0.541340	-1.330811	0.720716	99
Es	-0.846261	1.419518	0.340082	99
Es	-0.335481	1.685311	0.084492	99
Es	-1.418643	0.555123	0.862448	99
Es	0.517151	0.735471	-1.264116	99
Es	1.453225	-0.132422	0.229545	99
Es	0.180363	-1.087681	0.153794	99
Es	0.729158	-1.529208	0.247738	99
Es	0.954475	0.304930	-0.169538	99
Es	-0.098559	-0.031065	-0.502636	99
Es	-2.149157	-0.509351	0.754499	99
Es	0.952711	-0.874617	0.365953	99
Es	0.354712	0.579097	-0.557584	99
Es	-0.670424	-1.071818	-0.906374	99
Es	-0.455652	-0.681882	-0.314887	99
Es	-1.713006	0.644996	0.366388	99
Es	-1.738665	1.439263	0.879494	99
Es	-1.605129	-0.094476	0.510588	99
Es	2.064385	-0.293508	-0.168417	99
Es	0.621237	-1.305624	0.424346	99
Es	-1.531869	1.183208	0.706925	99
Es	-0.084286	1.245781	-0.151814	99
Es	-1.050565	-0.424790	0.113832	99
Es	-0.439430	1.869899	-0.135311	99
38
Properties=species:S:1:pos:R:3:Z:I:1 energy=-358.5536087066075 field_type=dipole dipole="0.000000 0.000000 0.000000" charge=0
C	1.453384	-0.132245	0.229547	6
O	0.621244	-1.305955	0.424577	8
C	-0.455756	-0.681815	-0.315063	6
C	-1.605146	-0.094445	0.510617	6
N	-1.532276	1.183615	0.707247	7
O	-0.335376	1.685715	0.084527	8
C	0.354804	0.578955	-0.557723	6
H	2.354014	-0.373165	-0.343573	1
H	1.731954	0.326685	1.182677	1
H	-0.752656	-1.252615	-1.196593	1
H	-2.424076	-0.730245	0.876377	1
H	0.589884	0.795515	-1.602613	1
Es	0.180100	-1.088074	0.153474	99
Es	-0.083278	1.245523	-0.150625	99
Es	1.453224	-0.132423	0.229544	99
Es	2.064407	-0.293504	-0.168355	99
Es	-2.149217	-0.509260	0.754469	99
Es	-1.050407	-0.424881	0.113989	99
Es	-1.738586	1.439153	0.879438	99
Es	1.641229	0.183441	0.872248	99
Es	0.517033	0.735454	-1.264072	99
Es	-1.531915	1.183172	0.706945	99
Es	0.540979	-1.329256	0.719033	99
Es	-1.713010	0.645045	0.366360	99
Es	-0.845924	1.419461	0.341008	99
Es	0.354711	0.579088	-0.557587	99
Es	-1.418809	0.555184	0.862449	99
Es	0.621202	-1.305719	0.424467	99
Es	-0.670489	-1.071751	-0.906336	99
Es	-1.605123	-0.094474	0.510595	99
Es	-0.455652	-0.681881	-0.314887	99
Es	0.954588	0.305158	-0.169728	99
Es	-0.441455	1.864241	-0.136331	99
Es	-0.098511	-0.031246	-0.502561	99
Es	0.952932	-0.874273	0.366651	99
Es	0.729600	-1.530729	0.248919	99
Es	-0.335449	1.685331	0.084493	99
Es	-0.165452	1.772755	0.318579	99
38
Properties=species:S:1:pos:R:3:Z:I:1 energy=-358.5536087066075 field_type=dipole dipole="0.000000 0.000000 0.000000" charge=0
C	1.453384	-0.132245	0.229547	6
O	0.621244	-1.305955	0.424577	8
C	-0.455756	-0.681815	-0.315063	6
C	-1.605146	-0.094445	0.510617	6
N	-1.532276	1.183615	0.707247	7
O	-0.335376	1.685715	0.084527	8
C	0.354804	0.578955	-0.557723	6
H	2.354014	-0.373165	-0.343573	1
H	1.731954	0.326685	1.182677	1
H	-0.752656	-1.252615	-1.196593	1
H	-2.424076	-0.730245	0.876377	1
H	0.589884	0.795515	-1.602613	1
Es	-1.712903	0.644962	0.366533	99
Es	0.179831	-1.088279	0.153415	99
Es	-2.149215	-0.509256	0.754538	99
Es	-1.050387	-0.424912	0.113847	99
Es	-0.670568	-1.071786	-0.906101	99
Es	-0.098563	-0.031114	-0.502872	99
Es	-0.165891	1.773064	0.318014	99
Es	0.953275	-0.874280	0.366576	99
Es	0.541165	-1.329477	0.718825	99
Es	-0.082780	1.245422	-0.150387	99
Es	-0.335425	1.685299	0.084555	99
Es	1.641306	0.183390	0.872221	99
Es	-0.846079	1.419870	0.341232	99
Es	1.453224	-0.132422	0.229545	99
Es	-1.418894	0.555210	0.862186	99
Es	2.064350	-0.293494	-0.168342	99
Es	-1.738734	1.438816	0.879499	99
Es	0.354713	0.579094	-0.557585	99
Es	-0.441263	1.863982	-0.136272	99
Es	-1.605122	-0.094472	0.510597	99
Es	0.729333	-1.530302	0.249278	99
Es	-0.455651	-0.681880	-0.314888	99
Es	0.517009	0.735469	-1.263969	99
Es	-1.531880	1.183216	0.706932	99
Es	0.954670	0.305182	-0.169681	99
Es	0.621208	-1.305772	0.424481	99
38
Properties=species:S:1:pos:R:3:Z:I:1 energy=-358.5536087066075 field_type=dipole dipole="0.000000 0.000000 0.000000" charge=0
C	1.453384	-0.132245	0.229547	6
O	0.621244	-1.305955	0.424577	8
C	-0.455756	-0.681815	-0.315063	6
C	-1.605146	-0.094445	0.510617	6
N	-1.532276	1.183615	0.707247	7
O	-0.335376	1.685715	0.084527	8
C	0.354804	0.578955	-0.557723	6
H	2.354014	-0.373165	-0.343573	1
H	1.731954	0.326685	1.182677	1
H	-0.752656	-1.252615	-1.196593	1
H	-2.424076	-0.730245	0.876377	1
H	0.589884	0.795515	-1.602613	1
Es	2.064386	-0.293441	-0.168336	99
Es	-1.531886	1.183188	0.706931	99
Es	-0.098600	-0.031187	-0.502812	99
Es	0.621211	-1.305650	0.424432	99
Es	0.517012	0.735482	-1.263922	99
Es	0.954671	0.305196	-0.169706	99
Es	-0.670452	-1.071700	-0.906167	99
Es	-1.050485	-0.425030	0.113847	99
Es	-0.082726	1.245593	-0.150949	99
Es	-2.149310	-0.509167	0.754562	99
Es	0.354713	0.579097	-0.557584	99
Es	0.179809	-1.088614	0.152832	99
Es	-1.605123	-0.094472	0.510596	99
Es	1.453226	-0.132420	0.229544	99
Es	-1.712957	0.645008	0.366627	99
Es	1.641267	0.183395	0.872139	99
Es	-1.738577	1.438678	0.879424	99
Es	0.953416	-0.874189	0.366962	99
Es	0.729577	-1.530962	0.250281	99
Es	-0.455650	-0.681882	-0.314887	99
Es	-0.335431	1.685395	0.084468	99
Es	0.540784	-1.328792	0.718110	99
Es	-1.418976	0.555243	0.862204	99
Es	-0.440158	1.866082	-0.135351	99
Es	-0.846428	1.419975	0.340686	99
Es	-0.166586	1.770707	0.318251	99
38
Properties=species:S:1:pos:R:3:Z:I:1 energy=-358.5536087066075 field_type=dipole dipole="0.000000 0.000000 0.000000" charge=0
C	1.453384	-0.132245	0.229547	6
O	0.621244	-1.305955	0.424577	8
C	-0.455756	-0.681815	-0.315063	6
C	-1.605146	-0.094445	0.510617	6
N	-1.532276	1.183615	0.707247	7
O	-0.335376	1.685715	0.084527	8
C	0.354804	0.578955	-0.557723	6
H	2.354014	-0.373165	-0.343573	1
H	1.731954	0.326685	1.182677	1
H	-0.752656	-1.252615	-1.196593	1
H	-2.424076	-0.730245	0.876377	1
H	0.589884	0.795515	-1.602613	1
Es	-1.531892	1.183186	0.706934	99
Es	0.541664	-1.330507	0.718059	99
Es	-0.335422	1.685309	0.084560	99
Es	-0.082547	1.245681	-0.150993	99
Es	0.179306	-1.088175	0.153832	99
Es	2.064316	-0.293438	-0.168307	99
Es	-1.713180	0.645039	0.366676	99
Es	0.729082	-1.529768	0.249124	99
Es	-0.846470	1.420197	0.341244	99
Es	-1.605122	-0.094473	0.510596	99
Es	-1.419085	0.555260	0.862256	99
Es	0.517079	0.735456	-1.263856	99
Es	0.354712	0.579099	-0.557584	99
Es	-0.166340	1.772252	0.317494	99
Es	0.953635	-0.874182	0.367147	99
Es	-0.670508	-1.071701	-0.906066	99
Es	1.641334	0.183380	0.872146	99
Es	-1.738399	1.438376	0.879309	99
Es	-2.149259	-0.509187	0.754635	99
Es	0.621160	-1.305619	0.424466	99
Es	-0.098638	-0.031191	-0.502942	99
Es	-0.440525	1.864618	-0.135251	99
Es	1.453226	-0.132419	0.229544	99
Es	-0.455652	-0.681876	-0.314891	99
Es	-1.050378	-0.425018	0.113778	99
Es	0.954630	0.305237	-0.169731	99
38
Properties=species:S:1:pos:R:3:Z:I:1 energy=-358.5536087066075 field_type=dipole dipole="0.000000 0.000000 0.000000" charge=0
C	1.453384	-0.132245	0.229547	6
O	0.621244	-1.305955	0.424577	8
C	-0.455756	-0.681815	-0.315063	6
C	-1.605146	-0.094445	0.510617	6
N	-1.532276	1.183615	0.707247	7
O	-0.335376	1.685715	0.084527	8
C	0.354804	0.578955	-0.557723	6
H	2.354014	-0.373165	-0.343573	1
H	1.731954	0.326685	1.182677	1
H	-0.752656	-1.252615	-1.196593	1
H	-2.424076	-0.730245	0.876377	1
H	0.589884	0.795515	-1.602613	1
Es	-0.440846	1.863288	-0.135142	99
Es	-1.531890	1.183190	0.706932	99
Es	-1.738487	1.438372	0.879365	99
Es	1.641303	0.183421	0.872089	99
Es	1.453226	-0.132417	0.229541	99
Es	0.954443	-0.874570	0.366459	99
Es	0.517040	0.735440	-1.263788	99
Es	-1.713038	0.645007	0.366794	99
Es	0.621198	-1.305623	0.424416	99
Es	-0.098662	-0.031172	-0.503018	99
Es	-2.149306	-0.509161	0.754632	99
Es	0.179279	-1.088652	0.153005	99
Es	-0.670551	-1.071698	-0.906000	99
Es	-0.846396	1.420233	0.341462	99
Es	0.540943	-1.326339	0.716392	99
Es	-0.455652	-0.681880	-0.314888	99
Es	-0.335400	1.685399	0.084525	99
Es	-1.419174	0.555325	0.862103	99
Es	-1.050362	-0.425059	0.113709	99
Es	-0.082783	1.245714	-0.151186	99
Es	2.064326	-0.293416	-0.168256	99
Es	0.954699	0.305243	-0.169821	99
Es	0.354714	0.579094	-0.557585	99
Es	-0.165784	1.773407	0.317419	99
Es	-1.605125	-0.094477	0.510599	99
Es	0.729013	-1.533137	0.252420	99
38
Properties=species:S:1:pos:R:3:Z:I:1 energy=-358.5536087066075 field_type=dipole dipole="0.000000 0.000000 0.000000" charge=0
C	1.453384	-0.132245	0.229547	6
O	0.621244	-1.305955	0.424577	8
C	-0.455756	-0.681815	-0.315063	6
C	-1.605146	-0.094445	0.510617	6
N	-1.532276	1.183615	0.707247	7
O	-0.335376	1.685715	0.084527	8
C	0.354804	0.578955	-0.557723	6
H	2.354014	-0.373165	-0.343573	1
H	1.731954	0.326685	1.182677	1
H	-0.752656	-1.252615	-1.196593	1
H	-2.424076	-0.730245	0.876377	1
H	0.589884	0.795515	-1.602613	1
Es	0.621176	-1.305722	0.424461	99
Es	-0.441430	1.861736	-0.135222	99
Es	-1.050217	-0.425012	0.113751	99
Es	-0.846234	1.420103	0.341561	99
Es	0.954722	0.305333	-0.169816	99
Es	-1.738511	1.438142	0.879349	99
Es	-0.166329	1.775431	0.316837	99
Es	-1.605127	-0.094470	0.510588	99
Es	-0.098704	-0.031207	-0.503114	99
Es	-0.670625	-1.071669	-0.905945	99
Es	-1.531889	1.183193	0.706933	99
Es	-1.712980	0.644978	0.366921	99
Es	0.179432	-1.089547	0.151649	99
Es	-0.455655	-0.681873	-0.314893	99
Es	-1.419307	0.555342	0.861972	99
Es	0.517027	0.735439	-1.263726	99
Es	0.954874	-0.874546	0.366294	99
Es	-0.081709	1.245732	-0.150642	99
Es	0.540261	-1.324800	0.715741	99
Es	1.453225	-0.132420	0.229544	99
Es	2.064307	-0.293402	-0.168223	99
Es	-0.335465	1.685286	0.084535	99
Es	0.354715	0.579091	-0.557586	99
Es	-2.149343	-0.509169	0.754640	99
Es	1.641345	0.183329	0.872078	99
Es	0.729168	-1.533766	0.254492	99
38
Properties=species:S:1:pos:R:3:Z:I:1 energy=-358.5536087066075 field_type=dipole dipole="0.000000 0.000000 0.000000" charge=0
C	1.453384	-0.132245	0.229547	6
O	0.621244	-1.305955	0.424577	8
C	-0.455756	-0.681815	-0.315063	6
C	-1.605146	-0.094445	0.510617	6
N	-1.532276	1.183615	0.707247	7
O	-0.335376	1.685715	0.084527	8
C	0.354804	0.578955	-0.557723	6
H	2.354014	-0.373165	-0.343573	1
H	1.731954	0.326685	1.182677	1
H	-0.752656	-1.252615	-1.196593	1
H	-2.424076	-0.730245	0.876377	1
H	0.589884	0.795515	-1.602613	1
Es	-0.670549	-1.071650	-0.905906	99
Es	-0.440157	1.864207	-0.134400	99
Es	-1.531880	1.183213	0.706932	99
Es	0.517065	0.735464	-1.263654	99
Es	0.540970	-1.327858	0.716056	99
Es	-0.081999	1.245776	-0.151300	99
Es	-0.846631	1.420511	0.341528	99
Es	0.954298	-0.874078	0.367496	99
Es	0.954730	0.305355	-0.169865	99
Es	-2.149402	-0.509120	0.754675	99
Es	-0.166830	1.772577	0.316699	99
Es	1.453224	-0.132421	0.229545	99
Es	-0.098757	-0.031176	-0.503175	99
Es	2.064317	-0.293392	-0.168181	99
Es	0.729411	-1.531691	0.252196	99
Es	-1.712870	0.644963	0.367093	99
Es	0.621174	-1.305635	0.424417	99
Es	-1.605123	-0.094472	0.510595	99
Es	0.179021	-1.089159	0.152533	99
Es	1.641334	0.183329	0.872026	99
Es	-1.738570	1.437990	0.879389	99
Es	-1.050258	-0.425134	0.113671	99
Es	-0.335439	1.685328	0.084520	99
Es	0.354715	0.579090	-0.557586	99
Es	-0.455653	-0.681876	-0.314892	99
Es	-1.419413	0.555392	0.861768	99
38
Properties=species:S:1:pos:R:3:Z:I:1 energy=-358.5536087066075 field_type=dipole dipole="0.000000 0.000000 0.000000" charge=0
C	1.453384	-0.132245	0.229547	6
O	0.621244	-1.305955	0.424577	8
C	-0.455756	-0.681815	-0.315063	6
C	-1.605146	-0.094445	0.510617	6
N	-1.532276	1.183615	0.707247	7
O	-0.335376	1.685715	0.084527	8
C	0.354804	0.578955	-0.557723	6
H	2.354014	-0.373165	-0.343573	1
H	1.731954	0.326685	1.182677	1
H	-0.752656	-1.252615	-1.196593	1
H	-2.424076	-0.730245	0.876377	1
H	0.589884	0.795515	-1.602613	1
Es	-2.149428	-0.509103	0.754673	99
Es	-1.050230	-0.425172	0.113623	99
Es	1.453226	-0.132418	0.229544	99
Es	2.064289	-0.293368	-0.168154	99
Es	0.517059	0.735458	-1.263586	99
Es	-0.081745	1.245798	-0.151262	99
Es	1.641356	0.183324	0.871994	99
Es	0.354714	0.579090	-0.557586	99
Es	-1.531887	1.183192	0.706932	99
Es	0.954775	0.305403	-0.169888	99
Es	-1.712978	0.644994	0.367080	99
Es	-0.846691	1.420658	0.341710	99
Es	-1.419464	0.555396	0.861973	99
Es	-0.335433	1.685370	0.084503	99
Es	-0.440130	1.863971	-0.134276	99
Es	0.728369	-1.529698	0.251680	99
Es	0.621210	-1.305666	0.424385	99
Es	0.954910	-0.874470	0.366704	99
Es	-1.738414	1.437830	0.879189	99
Es	-1.605122	-0.094472	0.510596	99
Es	-0.098795	-0.031181	-0.503246	99
Es	0.541595	-1.329536	0.717112	99
Es	-0.670561	-1.071614	-0.905840	99
Es	-0.455653	-0.681876	-0.314891	99
Es	0.178797	-1.089147	0.152845	99
Es	-0.167042	1.772769	0.316364	99
38
Properties=species:S:1:pos:R:3:Z:I:1 energy=-358.5536087066075 field_type=dipole dipole="0.000000 0.000000 0.000000" charge=0
C	1.453384	-0.132245	0.229547	6
O	0.621244	-1.305955	0.424577	8
C	-0.455756	-0.681815	-0.315063	6
C	-1.605146	-0.094445	0.510617	6
N	-1.532276	1.183615	0.707247	7
O	-0.335376	1.685715	0.084527	8
C	0.354804	0.578955	-0.557723	6
H	2.354014	-0.373165	-0.343573	1
H	1.731954	0.326685	1.182677	1
H	-0.752656	-1.252615	-1.196593	1
H	-2.424076	-0.730245	0.876377	1
H	0.589884	0.795515	-1.602613	1
Es	-1.050171	-0.425183	0.113615	99
Es	0.954879	0.305559	-0.170043	99
Es	0.541608	-1.329168	0.716611	99
Es	-1.419581	0.555447	0.861776	99
Es	-0.670570	-1.071610	-0.905798	99
Es	-0.081537	1.245793	-0.151229	99
Es	0.728443	-1.530048	0.252117	99
Es	-1.713037	0.645006	0.367083	99
Es	0.955024	-0.874627	0.366938	99
Es	-0.440723	1.862699	-0.134303	99
Es	-0.455651	-0.681877	-0.314890	99
Es	0.178595	-1.089080	0.152676	99
Es	-1.738348	1.437671	0.879302	99
Es	0.516969	0.735405	-1.263519	99
Es	0.621206	-1.305637	0.424425	99
Es	0.354714	0.579091	-0.557585	99
Es	1.641344	0.183332	0.871957	99
Es	-0.846381	1.420687	0.342509	99
Es	-1.605122	-0.094471	0.510596	99
Es	-0.335404	1.685468	0.084492	99
Es	1.453228	-0.132417	0.229544	99
Es	-0.167000	1.774034	0.315602	99
Es	-0.098729	-0.031288	-0.503247	99
Es	-1.531880	1.183209	0.706932	99
Es	2.064284	-0.293357	-0.168088	99
Es	-2.149433	-0.509105	0.754707	99
38
Properties=species:S:1:pos:R:3:Z:I:1 energy=-358.5536087066075 field_type=dipole dipole="0.000000 0.000000 0.000000" charge=0
C	1.453384	-0.132245	0.229547	6
O	0.621244	-1.305955	0.424577	8
C	-0.455756	-0.681815	-0.315063	6
C	-1.605146	-0.094445	0.510617	6
N	-1.532276	1.183615	0.707247	7
O	-0.335376	1.685715	0.084527	8
C	0.354804	0.578955	-0.557723	6
H	2.354014	-0.373165	-0.343573	1
H	1.731954	0.326685	1.182677	1
H	-0.752656	-1.252615	-1.196593	1
H	-2.424076	-0.730245	0.876377	1
H	0.589884	0.795515	-1.602613	1
Es	-1.531913	1.183183	0.706946	99
Es	-1.605121	-0.094468	0.510598	99
Es	-0.081389	1.245859	-0.151322	99
Es	-0.335452	1.685356	0.084483	99
Es	-0.439910	1.863358	-0.133774	99
Es	0.621237	-1.305835	0.424460	99
Es	0.517086	0.735506	-1.263411	99
Es	0.728090	-1.529428	0.252501	99
Es	0.178603	-1.089422	0.152452	99
Es	-0.670573	-1.071586	-0.905737	99
Es	-0.098849	-0.031187	-0.503468	99
Es	-0.167321	1.773327	0.315811	99
Es	1.641352	0.183328	0.871945	99
Es	-0.455653	-0.681875	-0.314892	99
Es	1.453226	-0.132419	0.229544	99
Es	-1.738324	1.437534	0.879057	99
Es	0.955396	-0.874684	0.366629	99
Es	2.064261	-0.293310	-0.168082	99
Es	0.954827	0.305446	-0.169964	99
Es	0.541595	-1.329269	0.716719	99
Es	-1.419618	0.555453	0.861969	99
Es	-1.712897	0.644969	0.367335	99
Es	0.354716	0.579085	-0.557586	99
Es	-0.846890	1.420906	0.341862	99
Es	-2.149558	-0.509026	0.754621	99
Es	-1.050194	-0.425266	0.113482	99
38
Properties=species:S:1:pos:R:3:Z:I:1 energy=-358.5536087066075 field_type=dipole dipole="0.000000 0.000000 0.000000" charge=0
C	1.453384	-0.132245	0.229547	6
O	0.621244	-1.305955	0.424577	8
C	-0.455756	-0.681815	-0.315063	6
C	-1.605146	-0.094445	0.510617	6
N	-1.532276	1.183615	0.707247	7
O	-0.335376	1.685715	0.084527	8
C	0.354804	0.578955	-0.557723	6
H	2.354014	-0.373165	-0.343573	1
H	1.731954	0.326685	1.182677	1
H	-0.752656	-1.252615	-1.196593	1
H	-2.424076	-0.730245	0.876377	1
H	0.589884	0.795515	-1.602613	1
Es	0.621211	-1.305693	0.424399	99
Es	0.541401	-1.326727	0.714973	99
Es	-0.847002	1.421031	0.341896	99
Es	-0.455653	-0.681875	-0.314892	99
Es	-1.605123	-0.094472	0.510594	99
Es	0.954822	0.305533	-0.169990	99
Es	-0.081230	1.245920	-0.151478	99
Es	-0.335429	1.685357	0.084516	99
Es	-0.439758	1.863341	-0.133486	99
Es	0.955753	-0.874681	0.366684	99
Es	2.064218	-0.293320	-0.168039	99
Es	0.178270	-1.089564	0.152470	99
Es	-0.167494	1.773279	0.315578	99
Es	-1.712991	0.645021	0.367280	99
Es	-0.098848	-0.031111	-0.503502	99
Es	-1.531890	1.183192	0.706934	99
Es	-1.419638	0.555473	0.861913	99
Es	-0.670599	-1.071573	-0.905658	99
Es	-1.738298	1.437403	0.879071	99
Es	-1.050189	-0.425294	0.113530	99
Es	-2.149506	-0.509073	0.754676	99
Es	1.453227	-0.132417	0.229544	99
Es	0.354715	0.579088	-0.557586	99
Es	1.641425	0.183251	0.871900	99
Es	0.728276	-1.532015	0.254265	99
Es	0.517057	0.735461	-1.263412	99
38
Properties=species:S:1:pos:R:3:Z:I:1 energy=-358.5536087066075 field_type=dipole dipole="0.000000 0.000000 0.000000" charge=0
C	1.453384	-0.132245	0.229547	6
O	0.621244	-1.305955	0.424577	8
C	-0.455756	-0.681815	-0.315063	6
C	-1.605146	-0.094445	0.510617	6
N	-1.532276	1.183615	0.707247	7
O	-0.335376	1.685715	0.084527	8
C	0.354804	0.578955	-0.557723	6
H	2.354014	-0.373165	-0.343573	1
H	1.731954	0.326685	1.182677	1
H	-0.752656	-1.252615	-1.196593	1
H	-2.424076	-0.730245	0.876377	1
H	0.589884	0.795515	-1.602613	1
Es	-0.455653	-0.681874	-0.314893	99
Es	-0.080694	1.245879	-0.151022	99
Es	1.641406	0.183273	0.871859	99
Es	-0.167592	1.775407	0.314584	99
Es	-1.738251	1.437221	0.879017	99
Es	-0.670591	-1.071548	-0.905620	99
Es	-0.098902	-0.031165	-0.503541	99
Es	-1.531885	1.183195	0.706931	99
Es	2.064233	-0.293320	-0.168022	99
Es	0.542102	-1.329499	0.715270	99
Es	0.621194	-1.305658	0.424431	99
Es	-1.605122	-0.094471	0.510596	99
Es	0.728068	-1.529803	0.252601	99
Es	0.955668	-0.874384	0.367408	99
Es	-0.335380	1.685249	0.084673	99
Es	-0.846872	1.421115	0.342361	99
Es	0.954874	0.305550	-0.170038	99
Es	0.354715	0.579086	-0.557587	99
Es	0.517049	0.735464	-1.263344	99
Es	1.453227	-0.132417	0.229544	99
Es	-1.419798	0.555518	0.861781	99
Es	-1.050100	-0.425335	0.113479	99
Es	0.177857	-1.089382	0.153125	99
Es	-0.440303	1.861446	-0.133570	99
Es	-1.712966	0.645000	0.367407	99
Es	-2.149558	-0.509014	0.754750	99
38
Properties=species:S:1:pos:R:3:Z:I:1 energy=-358.5536087066075 field_type=dipole dipole="0.000000 0.000000 0.000000" charge=0
C	1.453384	-0.132245	0.229547	6
O	0.621244	-1.305955	0.424577	8
C	-0.455756	-0.681815	-0.315063	6
C	-1.605146	-0.094445	0.510617	6
N	-1.532276	1.183615	0.707247	7
O	-0.335376	1.685715	0.084527	8
C	0.354804	0.578955	-0.557723	6
H	2.354014	-0.373165	-0.343573	1
H	1.731954	0.326685	1.182677	1
H	-0.752656	-1.252615	-1.196593	1
H	-2.424076	-0.730245	0.876377	1
H	0.589884	0.795515	-1.602613	1
Es	-0.335433	1.685368	0.084503	99
Es	1.641445	0.183235	0.871816	99
Es	0.956317	-0.874685	0.367047	99
Es	0.354715	0.579085	-0.557587	99
Es	0.954921	0.305622	-0.170067	99
Es	-0.439447	1.863326	-0.132916	99
Es	0.542226	-1.329566	0.715193	99
Es	-0.098973	-0.031185	-0.503628	99
Es	2.064187	-0.293271	-0.167976	99
Es	0.621198	-1.305680	0.424440	99
Es	-1.531886	1.183194	0.706933	99
Es	-0.080921	1.246033	-0.151735	99
Es	-1.712865	0.644977	0.367575	99
Es	-0.847181	1.421275	0.342002	99
Es	1.453228	-0.132417	0.229544	99
Es	-2.149593	-0.508965	0.754752	99
Es	-1.738300	1.437123	0.878864	99
Es	-1.419875	0.555537	0.861817	99
Es	-0.670606	-1.071498	-0.905568	99
Es	-1.605122	-0.094470	0.510596	99
Es	-0.167818	1.773192	0.315152	99
Es	-0.455653	-0.681873	-0.314893	99
Es	0.517042	0.735469	-1.263257	99
Es	0.177658	-1.089675	0.152852	99
Es	-1.050065	-0.425387	0.113412	99
Es	0.727528	-1.529234	0.253309	99
38
Properties=species:S:1:pos:R:3:Z:I:1 energy=-358.5536087066075 field_type=dipole dipole="0.000000 0.000000 0.000000" charge=0
C	1.453384	-0.132245	0.229547	6
O	0.621244	-1.305955	0.424577	8
C	-0.455756	-0.681815	-0.315063	6
C	-1.605146	-0.094445	0.510617	6
N	-1.532276	1.183615	0.707247	7
O	-0.335376	1.685715	0.084527	8
C	0.354804	0.578955	-0.557723	6
H	2.354014	-0.373165	-0.343573	1
H	1.731954	0.326685	1.182677	1
H	-0.752656	-1.252615	-1.196593	1
H	-2.424076	-0.730245	0.876377	1
H	0.589884	0.795515	-1.602613	1
Es	0.541945	-1.330117	0.714635	99
Es	-0.455653	-0.681873	-0.314893	99
Es	1.453228	-0.132416	0.229544	99
Es	-1.050026	-0.425455	0.113392	99
Es	-1.738200	1.436966	0.878931	99
Es	-0.098964	-0.031167	-0.503696	99
Es	-1.531892	1.183190	0.706935	99
Es	0.177721	-1.089751	0.152624	99
Es	-0.080615	1.246049	-0.151573	99
Es	-0.439484	1.862784	-0.132866	99
Es	-1.605122	-0.094470	0.510596	99
Es	-0.847231	1.421385	0.342085	99
Es	-1.419988	0.555580	0.861683	99
Es	0.955695	-0.874082	0.368347	99
Es	-1.712932	0.644993	0.367628	99
Es	0.354715	0.579084	-0.557587	99
Es	0.517052	0.735455	-1.263214	99
Es	-0.168001	1.773689	0.314866	99
Es	-2.149604	-0.508923	0.754770	99
Es	1.641387	0.183260	0.871767	99
Es	0.728319	-1.529192	0.252872	99
Es	0.954929	0.305601	-0.170038	99
Es	0.621190	-1.305669	0.424408	99
Es	2.064267	-0.293300	-0.168022	99
Es	-0.335414	1.685419	0.084485	99
Es	-0.670596	-1.071510	-0.905501	99
38
Properties=species:S:1:pos:R:3:Z:I:1 energy=-358.5536087066075 field_type=dipole dipole="0.000000 0.000000 0.000000" charge=0
C	1.453384	-0.132245	0.229547	6
O	0.621244	-1.305955	0.424577	8
C	-0.455756	-0.681815	-0.315063	6
C	-1.605146	-0.094445	0.510617	6
N	-1.532276	1.183615	0.707247	7
O	-0.335376	1.685715	0.084527	8
C	0.354804	0.578955	-0.557723	6
H	2.354014	-0.373165	-0.343573	1
H	1.731954	0.326685	1.182677	1
H	-0.752656	-1.252615	-1.196593	1
H	-2.424076	-0.730245	0.876377	1
H	0.589884	0.795515	-1.602613	1
Es	-1.531889	1.183195	0.706934	99
Es	2.064204	-0.293266	-0.167962	99
Es	-1.050000	-0.425440	0.113377	99
Es	0.621091	-1.305463	0.424579	99
Es	0.177152	-1.089424	0.153654	99
Es	-0.847213	1.421449	0.342269	99
Es	0.354715	0.579083	-0.557587	99
Es	0.727377	-1.527186	0.251796	99
Es	1.453228	-0.132415	0.229543	99
Es	-1.605121	-0.094470	0.510596	99
Es	0.956094	-0.874343	0.367826	99
Es	0.954945	0.305661	-0.170092	99
Es	-0.168313	1.772912	0.314580	99
Es	-0.080619	1.246124	-0.151854	99
Es	-0.098990	-0.031159	-0.503741	99
Es	0.517038	0.735463	-1.263165	99
Es	-0.455653	-0.681872	-0.314894	99
Es	-1.738173	1.436839	0.878879	99
Es	-2.149650	-0.508952	0.754803	99
Es	-0.670611	-1.071497	-0.905469	99
Es	-1.420030	0.555603	0.861628	99
Es	-1.712900	0.644996	0.367666	99
Es	-0.335478	1.685375	0.084416	99
Es	-0.439102	1.863569	-0.132402	99
Es	1.641437	0.183225	0.871757	99
Es	0.543189	-1.332473	0.715042	99
38
Properties=species:S:1:pos:R:3:Z:I:1 energy=-358.5536087066075 field_type=dipole dipole="0.000000 0.000000 0.000000" charge=0
C	1.453384	-0.132245	0.229547	6
O	0.621244	-1.305955	0.424577	8
C	-0.455756	-0.681815	-0.315063	6
C	-1.605146	-0.094445	0.510617	6
N	-1.532276	1.183615	0.707247	7
O	-0.335376	1.685715	0.084527	8
C	0.354804	0.578955	-0.557723	6
H	2.354014	-0.373165	-0.343573	1
H	1.731954	0.326685	1.182677	1
H	-0.752656	-1.252615	-1.196593	1
H	-2.424076	-0.730245	0.876377	1
H	0.589884	0.795515	-1.602613	1
Es	1.641462	0.183218	0.871735	99
Es	0.354716	0.579082	-0.557587	99
Es	-1.049982	-0.425481	0.113340	99
Es	-0.168333	1.772954	0.314589	99
Es	-0.847480	1.421892	0.342179	99
Es	-0.455653	-0.681871	-0.314894	99
Es	-1.420062	0.555608	0.861784	99
Es	0.727687	-1.530456	0.254645	99
Es	-0.335436	1.685364	0.084501	99
Es	1.453228	-0.132415	0.229543	99
Es	0.517031	0.735459	-1.263112	99
Es	-1.531892	1.183192	0.706935	99
Es	-1.605121	-0.094470	0.510595	99
Es	-2.149688	-0.508921	0.754812	99
Es	0.954984	0.305701	-0.170147	99
Es	-0.670616	-1.071472	-0.905418	99
Es	2.064173	-0.293265	-0.167919	99
Es	-1.738322	1.436554	0.878514	99
Es	0.956558	-0.874643	0.367300	99
Es	0.177426	-1.089978	0.152544	99
Es	0.621197	-1.305659	0.424422	99
Es	-0.099019	-0.031165	-0.503801	99
Es	-0.080540	1.246164	-0.152098	99
Es	-0.438944	1.863417	-0.132076	99
Es	0.542037	-1.328196	0.714002	99
Es	-1.712685	0.644919	0.367790	99
38
Properties=species:S:1:pos:R:3:Z:I:1 energy=-358.5536087066075 field_type=dipole dipole="0.000000 0.000000 0.000000" charge=0
C	1.453384	-0.132245	0.229547	6
O	0.621244	-1.305955	0.424577	8
C	-0.455756	-0.681815	-0.315063	6
C	-1.605146	-0.094445	0.510617	6
N	-1.532276	1.183615	0.707247	7
O	-0.335376	1.685715	0.084527	8
C	0.354804	0.578955	-0.557723	6
H	2.354014	-0.373165	-0.343573	1
H	1.731954	0.326685	1.182677	1
H	-0.752656	-1.252615	-1.196593	1
H	-2.424076	-0.730245	0.876377	1
H	0.589884	0.795515	-1.602613	1
Es	-0.847343	1.421675	0.342384	99
Es	-1.738234	1.436622	0.878555	99
Es	-0.455653	-0.681871	-0.314894	99
Es	2.064167	-0.293250	-0.167912	99
Es	0.354714	0.579085	-0.557588	99
Es	-0.335486	1.685340	0.084457	99
Es	0.727585	-1.529722	0.254240	99
Es	1.641468	0.183192	0.871698	99
Es	0.621214	-1.305648	0.424429	99
Es	0.517036	0.735466	-1.263053	99
Es	0.956648	-0.874489	0.367754	99
Es	0.542285	-1.329148	0.713738	99
Es	-0.099047	-0.031167	-0.503881	99
Es	-0.439065	1.863051	-0.131911	99
Es	-1.712709	0.644950	0.367954	99
Es	-0.168369	1.773370	0.314253	99
Es	-1.605121	-0.094468	0.510595	99
Es	0.177183	-1.089972	0.152778	99
Es	-2.149742	-0.508891	0.754791	99
Es	-0.080408	1.246227	-0.152178	99
Es	-1.531892	1.183195	0.706935	99
Es	-1.420138	0.555631	0.861737	99
Es	1.453230	-0.132412	0.229543	99
Es	-0.670627	-1.071459	-0.905367	99
Es	0.954991	0.305725	-0.170144	99
Es	-1.049961	-0.425501	0.113267	99
38
Properties=species:S:1:pos:R:3:Z:I:1 energy=-358.5536087066075 field_type=dipole dipole="0.000000 0.000000 0.000000" charge=0
C	1.453384	-0.132245	0.229547	6
O	0.621244	-1.305955	0.424577	8
C	-0.455756	-0.681815	-0.315063	6
C	-1.605146	-0.094445	0.510617	6
N	-1.532276	1.183615	0.707247	7
O	-0.335376	1.685715	0.084527	8
C	0.354804	0.578955	-0.557723	6
H	2.354014	-0.373165	-0.343573	1
H	1.731954	0.326685	1.182677	1
H	-0.752656	-1.252615	-1.196593	1
H	-2.424076	-0.730245	0.876377	1
H	0.589884	0.795515	-1.602613	1
Es	-0.080233	1.246154	-0.151963	99
Es	0.621194	-1.305654	0.424420	99
Es	-0.670601	-1.071450	-0.905332	99
Es	-1.605117	-0.094470	0.510595	99
Es	0.957031	-0.874822	0.367167	99
Es	-1.712976	0.644999	0.367928	99
Es	0.726706	-1.529075	0.253022	99
Es	0.354716	0.579080	-0.557589	99
Es	-0.168471	1.773640	0.314492	99
Es	0.176523	-1.089229	0.154489	99
Es	1.453227	-0.132415	0.229543	99
Es	0.517053	0.735475	-1.262997	99
Es	-1.738016	1.436447	0.878811	99
Es	0.955005	0.305725	-0.170148	99
Es	0.543480	-1.330236	0.713865	99
Es	-1.420293	0.555740	0.861379	99
Es	-1.531890	1.183194	0.706934	99
Es	-0.099109	-0.031119	-0.503949	99
Es	-1.049945	-0.425513	0.113176	99
Es	-0.438722	1.862448	-0.131756	99
Es	1.641458	0.183190	0.871673	99
Es	2.064171	-0.293222	-0.167878	99
Es	-0.455653	-0.681870	-0.314894	99
Es	-0.847750	1.421956	0.341732	99
Es	-0.335407	1.685510	0.084502	99
Es	-2.149653	-0.508951	0.754955	99
