39
Properties=species:S:1:pos:R:3:Z:I:1 energy=-338.70879409699927 field_type=dipole dipole="0.000000 0.000000 0.000000" charge=0
C	0.582457	-0.967683	0.958408	6
C	0.825507	-0.254383	-0.334402	6
C	0.538967	1.205247	-0.484792	6
O	-0.587523	1.571327	0.326808	8
N	-1.752913	0.817407	0.022358	7
C	-1.520583	-0.444253	-0.172032	6
N	-0.330433	-1.153283	-0.181072	7
H	1.159677	-1.854773	1.178428	1
H	0.151907	-0.448783	1.804538	1
H	1.577097	-0.627533	-1.014572	1
H	1.398247	1.794667	-0.151902	1
H	0.327487	1.462697	-1.528512	1
H	-2.369893	-1.100653	-0.423262	1
Es	0.582311	-0.967682	0.958159	99
Es	-1.677357	0.224718	0.224045	99
Es	-2.071628	1.007770	0.018172	99
Es	-0.179225	1.398245	-0.000484	99
Es	-0.068610	-1.123403	0.373978	99
Es	0.677154	0.461811	-0.402898	99
Es	-1.752319	0.817098	0.022373	99
Es	-0.654115	1.866622	0.255214	99
Es	-0.835777	-0.807331	-0.140030	99
Es	0.894233	-0.512873	0.405780	99
Es	0.098866	-0.725760	-0.366960	99
Es	1.338577	-0.504149	-0.791797	99
Es	-1.520457	-0.444319	-0.172053	99
Es	0.301062	-0.616431	1.524059	99
Es	-1.063785	1.208723	0.166004	99
Es	-0.330378	-1.152668	-0.180769	99
Es	0.974198	-1.564118	1.108546	99
Es	-0.587490	1.571060	0.326587	99
Es	0.825301	-0.254528	-0.334318	99
Es	0.538792	1.205238	-0.484646	99
Es	-0.515963	1.469893	0.607150	99
Es	0.397363	1.365214	-1.200755	99
Es	1.119482	1.597042	-0.256431	99
Es	-2.095033	-0.874728	-0.334447	99
Es	-0.336935	-1.463145	-0.352803	99
Es	-1.601002	0.335671	-0.350088	99
39
Properties=species:S:1:pos:R:3:Z:I:1 energy=-338.70879409699927 field_type=dipole dipole="0.000000 0.000000 0.000000" charge=0
C	0.582457	-0.967683	0.958408	6
C	0.825507	-0.254383	-0.334402	6
C	0.538967	1.205247	-0.484792	6
O	-0.587523	1.571327	0.326808	8
N	-1.752913	0.817407	0.022358	7
C	-1.520583	-0.444253	-0.172032	6
N	-0.330433	-1.153283	-0.181072	7
H	1.159677	-1.854773	1.178428	1
H	0.151907	-0.448783	1.804538	1
H	1.577097	-0.627533	-1.014572	1
H	1.398247	1.794667	-0.151902	1
H	0.327487	1.462697	-1.528512	1
H	-2.369893	-1.100653	-0.423262	1
Es	0.894494	-0.512808	0.405713	99
Es	0.677102	0.461768	-0.403116	99
Es	0.582309	-0.967686	0.958160	99
Es	0.825303	-0.254527	-0.334319	99
Es	-2.095073	-0.874687	-0.334530	99
Es	-2.071554	1.007559	0.017741	99
Es	0.099095	-0.725878	-0.367747	99
Es	-0.653994	1.866142	0.256529	99
Es	0.301207	-0.616388	1.523852	99
Es	-0.179236	1.399063	-0.001237	99
Es	-1.752336	0.817083	0.022362	99
Es	-0.835738	-0.807630	-0.140407	99
Es	-0.330373	-1.152702	-0.180788	99
Es	0.973877	-1.564253	1.108744	99
Es	0.538791	1.205238	-0.484645	99
Es	-0.515727	1.469129	0.606855	99
Es	-1.064237	1.209408	0.165633	99
Es	-0.336966	-1.462881	-0.352039	99
Es	-1.677462	0.224741	0.224223	99
Es	-0.068937	-1.123182	0.374470	99
Es	1.338603	-0.504137	-0.791635	99
Es	0.397434	1.365329	-1.200738	99
Es	-1.520456	-0.444319	-0.172054	99
Es	-0.587500	1.571137	0.326656	99
Es	1.119501	1.596934	-0.256366	99
Es	-1.600863	0.335517	-0.349731	99
39
Properties=species:S:1:pos:R:3:Z:I:1 energy=-338.70879409699927 field_type=dipole dipole="0.000000 0.000000 0.000000" charge=0
C	0.582457	-0.967683	0.958408	6
C	0.825507	-0.254383	-0.334402	6
C	0.538967	1.205247	-0.484792	6
O	-0.587523	1.571327	0.326808	8
N	-1.752913	0.817407	0.022358	7
C	-1.520583	-0.444253	-0.172032	6
N	-0.330433	-1.153283	-0.181072	7
H	1.159677	-1.854773	1.178428	1
H	0.151907	-0.448783	1.804538	1
H	1.577097	-0.627533	-1.014572	1
H	1.398247	1.794667	-0.151902	1
H	0.327487	1.462697	-1.528512	1
H	-2.369893	-1.100653	-0.423262	1
Es	-1.064402	1.208741	0.166608	99
Es	-1.601166	0.335667	-0.350007	99
Es	0.301172	-0.616519	1.523794	99
Es	0.973888	-1.564115	1.108782	99
Es	-0.068997	-1.123760	0.374489	99
Es	-0.178628	1.398064	-0.000150	99
Es	-2.071258	1.007316	0.018031	99
Es	-0.653813	1.865946	0.255192	99
Es	-0.516274	1.471090	0.606289	99
Es	-1.520457	-0.444321	-0.172060	99
Es	-0.330398	-1.152660	-0.180774	99
Es	-2.095127	-0.874683	-0.334515	99
Es	0.825319	-0.254516	-0.334315	99
Es	-1.752336	0.817093	0.022368	99
Es	-0.835839	-0.807934	-0.140465	99
Es	0.397396	1.365230	-1.200756	99
Es	1.119454	1.597008	-0.256447	99
Es	0.098929	-0.725674	-0.367727	99
Es	0.894740	-0.512688	0.405931	99
Es	1.338521	-0.504024	-0.791629	99
Es	-0.587514	1.571121	0.326623	99
Es	-0.336792	-1.462375	-0.352283	99
Es	0.538793	1.205240	-0.484641	99
Es	-1.677522	0.224696	0.224101	99
Es	0.677265	0.461717	-0.403020	99
Es	0.582313	-0.967688	0.958166	99
39
Properties=species:S:1:pos:R:3:Z:I:1 energy=-338.70879409699927 field_type=dipole dipole="0.000000 0.000000 0.000000" charge=0
C	0.582457	-0.967683	0.958408	6
C	0.825507	-0.254383	-0.334402	6
C	0.538967	1.205247	-0.484792	6
O	-0.587523	1.571327	0.326808	8
N	-1.752913	0.817407	0.022358	7
C	-1.520583	-0.444253	-0.172032	6
N	-0.330433	-1.153283	-0.181072	7
H	1.159677	-1.854773	1.178428	1
H	0.151907	-0.448783	1.804538	1
H	1.577097	-0.627533	-1.014572	1
H	1.398247	1.794667	-0.151902	1
H	0.327487	1.462697	-1.528512	1
H	-2.369893	-1.100653	-0.423262	1
Es	-1.064850	1.209294	0.166463	99
Es	-0.330379	-1.152680	-0.180776	99
Es	-2.095163	-0.874660	-0.334616	99
Es	-0.835637	-0.807954	-0.140466	99
Es	-0.337140	-1.461759	-0.352177	99
Es	-1.600926	0.335386	-0.349524	99
Es	1.338454	-0.503976	-0.791567	99
Es	-0.069138	-1.124332	0.374713	99
Es	-1.520458	-0.444320	-0.172046	99
Es	-1.677876	0.224811	0.224281	99
Es	0.973833	-1.564088	1.108875	99
Es	-0.178196	1.397310	0.000583	99
Es	0.677313	0.461757	-0.403057	99
Es	0.894889	-0.512785	0.405994	99
Es	-0.516957	1.473187	0.607873	99
Es	0.538796	1.205237	-0.484647	99
Es	0.825298	-0.254534	-0.334317	99
Es	-0.587525	1.571094	0.326393	99
Es	0.099121	-0.725668	-0.368202	99
Es	0.582309	-0.967686	0.958158	99
Es	-0.653114	1.864251	0.253366	99
Es	-2.071171	1.007249	0.017362	99
Es	1.119514	1.597004	-0.256472	99
Es	-1.752324	0.817095	0.022368	99
Es	0.301214	-0.616518	1.523700	99
Es	0.397380	1.365256	-1.200675	99
39
Properties=species:S:1:pos:R:3:Z:I:1 energy=-338.70879409699927 field_type=dipole dipole="0.000000 0.000000 0.000000" charge=0
C	0.582457	-0.967683	0.958408	6
C	0.825507	-0.254383	-0.334402	6
C	0.538967	1.205247	-0.484792	6
O	-0.587523	1.571327	0.326808	8
N	-1.752913	0.817407	0.022358	7
C	-1.520583	-0.444253	-0.172032	6
N	-0.330433	-1.153283	-0.181072	7
H	1.159677	-1.854773	1.178428	1
H	0.151907	-0.448783	1.804538	1
H	1.577097	-0.627533	-1.014572	1
H	1.398247	1.794667	-0.151902	1
H	0.327487	1.462697	-1.528512	1
H	-2.369893	-1.100653	-0.423262	1
Es	-1.520457	-0.444319	-0.172054	99
Es	0.397389	1.365142	-1.200748	99
Es	0.677373	0.461768	-0.402992	99
Es	0.973791	-1.564020	1.108832	99
Es	0.301303	-0.616627	1.523687	99
Es	0.099257	-0.725717	-0.368685	99
Es	-2.070703	1.006945	0.017991	99
Es	0.895154	-0.512546	0.405976	99
Es	-0.337525	-1.461230	-0.351898	99
Es	0.825303	-0.254527	-0.334318	99
Es	0.582301	-0.967685	0.958154	99
Es	-1.677842	0.224686	0.224187	99
Es	1.338411	-0.503910	-0.791587	99
Es	-0.330389	-1.152655	-0.180766	99
Es	-0.653844	1.867603	0.258971	99
Es	-1.752313	0.817110	0.022379	99
Es	-1.601536	0.335722	-0.350100	99
Es	-0.587495	1.571078	0.326569	99
Es	-0.178850	1.398970	-0.001065	99
Es	1.119474	1.597054	-0.256480	99
Es	-1.064588	1.209117	0.166493	99
Es	-2.095228	-0.874681	-0.334528	99
Es	-0.069226	-1.124868	0.374806	99
Es	-0.835507	-0.808102	-0.140202	99
Es	0.538798	1.205238	-0.484649	99
Es	-0.515786	1.468427	0.603617	99
39
Properties=species:S:1:pos:R:3:Z:I:1 energy=-338.70879409699927 field_type=dipole dipole="0.000000 0.000000 0.000000" charge=0
C	0.582457	-0.967683	0.958408	6
C	0.825507	-0.254383	-0.334402	6
C	0.538967	1.205247	-0.484792	6
O	-0.587523	1.571327	0.326808	8
N	-1.752913	0.817407	0.022358	7
C	-1.520583	-0.444253	-0.172032	6
N	-0.330433	-1.153283	-0.181072	7
H	1.159677	-1.854773	1.178428	1
H	0.151907	-0.448783	1.804538	1
H	1.577097	-0.627533	-1.014572	1
H	1.398247	1.794667	-0.151902	1
H	0.327487	1.462697	-1.528512	1
H	-2.369893	-1.100653	-0.423262	1
Es	-0.178290	1.398559	-0.000427	99
Es	0.677421	0.461675	-0.403003	99
Es	-0.587472	1.571033	0.326588	99
Es	-1.064997	1.209249	0.166736	99
Es	-0.653459	1.865264	0.256340	99
Es	-0.835487	-0.808322	-0.140524	99
Es	1.119433	1.596994	-0.256492	99
Es	0.825302	-0.254529	-0.334316	99
Es	-2.070862	1.006874	0.017430	99
Es	-0.337445	-1.460862	-0.351691	99
Es	-0.516361	1.471327	0.605532	99
Es	-1.601226	0.335466	-0.349474	99
Es	-1.520456	-0.444320	-0.172056	99
Es	-2.095260	-0.874638	-0.334657	99
Es	0.973765	-1.563934	1.108822	99
Es	0.301332	-0.616695	1.523680	99
Es	0.397439	1.365197	-1.200734	99
Es	0.582309	-0.967686	0.958157	99
Es	-1.752326	0.817094	0.022367	99
Es	1.338404	-0.503875	-0.791542	99
Es	0.099125	-0.725740	-0.369008	99
Es	0.895254	-0.512497	0.406062	99
Es	0.538795	1.205237	-0.484648	99
Es	-0.330366	-1.152698	-0.180783	99
Es	-0.069320	-1.124993	0.375152	99
Es	-1.677987	0.224792	0.224077	99
39
Properties=species:S:1:pos:R:3:Z:I:1 energy=-338.70879409699927 field_type=dipole dipole="0.000000 0.000000 0.000000" charge=0
C	0.582457	-0.967683	0.958408	6
C	0.825507	-0.254383	-0.334402	6
C	0.538967	1.205247	-0.484792	6
O	-0.587523	1.571327	0.326808	8
N	-1.752913	0.817407	0.022358	7
C	-1.520583	-0.444253	-0.172032	6
N	-0.330433	-1.153283	-0.181072	7
H	1.159677	-1.854773	1.178428	1
H	0.151907	-0.448783	1.804538	1
H	1.577097	-0.627533	-1.014572	1
H	1.398247	1.794667	-0.151902	1
H	0.327487	1.462697	-1.528512	1
H	-2.369893	-1.100653	-0.423262	1
Es	-0.587454	1.570993	0.326603	99
Es	-1.601065	0.335246	-0.349270	99
Es	-0.178536	1.399361	-0.001389	99
Es	0.895468	-0.512450	0.406077	99
Es	1.119420	1.597015	-0.256492	99
Es	-0.515795	1.470984	0.604875	99
Es	0.825304	-0.254529	-0.334313	99
Es	0.538791	1.205238	-0.484645	99
Es	0.397500	1.365216	-1.200660	99
Es	-0.653729	1.865093	0.257476	99
Es	-1.678487	0.224906	0.224519	99
Es	-1.065143	1.209141	0.167212	99
Es	0.973691	-1.563901	1.108885	99
Es	0.677486	0.461619	-0.403050	99
Es	0.099333	-0.725843	-0.369317	99
Es	-0.337628	-1.460279	-0.351518	99
Es	1.338338	-0.503811	-0.791493	99
Es	0.301340	-0.616710	1.523625	99
Es	-0.330379	-1.152671	-0.180773	99
Es	-2.070491	1.006802	0.016719	99
Es	-0.069463	-1.125533	0.375284	99
Es	-2.095304	-0.874627	-0.334644	99
Es	0.582311	-0.967684	0.958158	99
Es	-1.752331	0.817094	0.022369	99
Es	-0.835451	-0.808385	-0.140600	99
Es	-1.520458	-0.444314	-0.172053	99
39
Properties=species:S:1:pos:R:3:Z:I:1 energy=-338.70879409699927 field_type=dipole dipole="0.000000 0.000000 0.000000" charge=0
C	0.582457	-0.967683	0.958408	6
C	0.825507	-0.254383	-0.334402	6
C	0.538967	1.205247	-0.484792	6
O	-0.587523	1.571327	0.326808	8
N	-1.752913	0.817407	0.022358	7
C	-1.520583	-0.444253	-0.172032	6
N	-0.330433	-1.153283	-0.181072	7
H	1.159677	-1.854773	1.178428	1
H	0.151907	-0.448783	1.804538	1
H	1.577097	-0.627533	-1.014572	1
H	1.398247	1.794667	-0.151902	1
H	0.327487	1.462697	-1.528512	1
H	-2.369893	-1.100653	-0.423262	1
Es	-0.515885	1.470742	0.604801	99
Es	-2.095364	-0.874677	-0.334612	99
Es	-1.520459	-0.444318	-0.172053	99
Es	0.677463	0.461628	-0.403111	99
Es	-0.330381	-1.152676	-0.180776	99
Es	0.973675	-1.563783	1.108888	99
Es	-0.653253	1.864662	0.257815	99
Es	0.099364	-0.725761	-0.369913	99
Es	-0.178398	1.399447	-0.001306	99
Es	-1.065638	1.209794	0.166897	99
Es	1.338319	-0.503788	-0.791440	99
Es	-1.678457	0.224902	0.224272	99
Es	-0.069639	-1.125596	0.375492	99
Es	0.895506	-0.512503	0.406198	99
Es	-0.587475	1.571160	0.326670	99
Es	-1.752333	0.817088	0.022362	99
Es	-2.070410	1.006563	0.016726	99
Es	-0.835398	-0.808644	-0.140730	99
Es	0.825307	-0.254526	-0.334312	99
Es	0.538793	1.205237	-0.484647	99
Es	1.119492	1.596980	-0.256512	99
Es	0.301435	-0.616702	1.523605	99
Es	-0.337581	-1.460021	-0.351066	99
Es	0.397463	1.365197	-1.200660	99
Es	0.582308	-0.967687	0.958158	99
Es	-1.601187	0.335255	-0.349160	99
39
Properties=species:S:1:pos:R:3:Z:I:1 energy=-338.70879409699927 field_type=dipole dipole="0.000000 0.000000 0.000000" charge=0
C	0.582457	-0.967683	0.958408	6
C	0.825507	-0.254383	-0.334402	6
C	0.538967	1.205247	-0.484792	6
O	-0.587523	1.571327	0.326808	8
N	-1.752913	0.817407	0.022358	7
C	-1.520583	-0.444253	-0.172032	6
N	-0.330433	-1.153283	-0.181072	7
H	1.159677	-1.854773	1.178428	1
H	0.151907	-0.448783	1.804538	1
H	1.577097	-0.627533	-1.014572	1
H	1.398247	1.794667	-0.151902	1
H	0.327487	1.462697	-1.528512	1
H	-2.369893	-1.100653	-0.423262	1
Es	0.538795	1.205237	-0.484647	99
Es	0.895825	-0.512250	0.406148	99
Es	0.582309	-0.967684	0.958154	99
Es	-0.652971	1.865366	0.258729	99
Es	-1.520460	-0.444315	-0.172057	99
Es	0.301491	-0.616829	1.523608	99
Es	-1.678037	0.224600	0.223822	99
Es	0.099408	-0.726011	-0.369916	99
Es	0.973611	-1.563769	1.108834	99
Es	-0.330378	-1.152671	-0.180772	99
Es	-0.835389	-0.808860	-0.141280	99
Es	0.397498	1.365186	-1.200639	99
Es	-0.178050	1.399213	-0.000769	99
Es	1.119470	1.596998	-0.256514	99
Es	-0.587520	1.571103	0.326579	99
Es	-1.065700	1.209871	0.166592	99
Es	-0.069994	-1.125801	0.375957	99
Es	1.338222	-0.503738	-0.791444	99
Es	-2.070352	1.006393	0.017473	99
Es	0.677507	0.461591	-0.403157	99
Es	-0.516376	1.470224	0.603798	99
Es	-1.752326	0.817099	0.022370	99
Es	-0.337513	-1.459564	-0.350826	99
Es	-2.095420	-0.874611	-0.334553	99
Es	0.825301	-0.254530	-0.334315	99
Es	-1.601686	0.335723	-0.349588	99
39
Properties=species:S:1:pos:R:3:Z:I:1 energy=-338.70879409699927 field_type=dipole dipole="0.000000 0.000000 0.000000" charge=0
C	0.582457	-0.967683	0.958408	6
C	0.825507	-0.254383	-0.334402	6
C	0.538967	1.205247	-0.484792	6
O	-0.587523	1.571327	0.326808	8
N	-1.752913	0.817407	0.022358	7
C	-1.520583	-0.444253	-0.172032	6
N	-0.330433	-1.153283	-0.181072	7
H	1.159677	-1.854773	1.178428	1
H	0.151907	-0.448783	1.804538	1
H	1.577097	-0.627533	-1.014572	1
H	1.398247	1.794667	-0.151902	1
H	0.327487	1.462697	-1.528512	1
H	-2.369893	-1.100653	-0.423262	1
Es	-1.065906	1.210034	0.166798	99
Es	0.896075	-0.512239	0.406430	99
Es	-0.178093	1.399806	-0.001455	99
Es	-0.516077	1.469360	0.602715	99
Es	-0.069845	-1.126006	0.375522	99
Es	-0.337675	-1.459238	-0.350690	99
Es	-0.653071	1.865670	0.260334	99
Es	0.538794	1.205237	-0.484647	99
Es	1.119477	1.597027	-0.256535	99
Es	-2.070235	1.006204	0.017422	99
Es	-1.752320	0.817093	0.022369	99
Es	-2.095486	-0.874572	-0.334601	99
Es	-1.678142	0.224680	0.223760	99
Es	0.397503	1.365168	-1.200603	99
Es	-1.520455	-0.444312	-0.172071	99
Es	-0.835412	-0.809017	-0.140892	99
Es	0.099346	-0.725921	-0.370327	99
Es	0.973468	-1.563765	1.108954	99
Es	0.677599	0.461581	-0.403155	99
Es	0.582306	-0.967686	0.958153	99
Es	-1.601674	0.335632	-0.349480	99
Es	0.301455	-0.616909	1.523488	99
Es	-0.330381	-1.152678	-0.180778	99
Es	0.825305	-0.254527	-0.334317	99
Es	-0.587504	1.571076	0.326569	99
Es	1.338213	-0.503727	-0.791373	99
39
Properties=species:S:1:pos:R:3:Z:I:1 energy=-338.70879409699927 field_type=dipole dipole="0.000000 0.000000 0.000000" charge=0
C	0.582457	-0.967683	0.958408	6
C	0.825507	-0.254383	-0.334402	6
C	0.538967	1.205247	-0.484792	6
O	-0.587523	1.571327	0.326808	8
N	-1.752913	0.817407	0.022358	7
C	-1.520583	-0.444253	-0.172032	6
N	-0.330433	-1.153283	-0.181072	7
H	1.159677	-1.854773	1.178428	1
H	0.151907	-0.448783	1.804538	1
H	1.577097	-0.627533	-1.014572	1
H	1.398247	1.794667	-0.151902	1
H	0.327487	1.462697	-1.528512	1
H	-2.369893	-1.100653	-0.423262	1
Es	0.973508	-1.563682	1.108965	99
Es	-0.587492	1.571135	0.326640	99
Es	0.896106	-0.512192	0.406336	99
Es	1.119471	1.597012	-0.256539	99
Es	-1.752334	0.817127	0.022374	99
Es	-0.330359	-1.152714	-0.180787	99
Es	0.301494	-0.616922	1.523450	99
Es	-0.517044	1.472775	0.604382	99
Es	0.538797	1.205237	-0.484649	99
Es	0.099435	-0.725894	-0.370630	99
Es	-1.065938	1.209674	0.167283	99
Es	0.825301	-0.254531	-0.334313	99
Es	1.338202	-0.503635	-0.791366	99
Es	-1.678327	0.224748	0.223805	99
Es	-1.601665	0.335539	-0.349363	99
Es	-0.177339	1.398554	0.000013	99
Es	0.582307	-0.967688	0.958158	99
Es	0.397517	1.365165	-1.200601	99
Es	-0.835355	-0.809166	-0.140986	99
Es	-2.070086	1.006080	0.017167	99
Es	-0.652849	1.863913	0.256705	99
Es	-1.520457	-0.444318	-0.172053	99
Es	-2.095505	-0.874594	-0.334594	99
Es	0.677587	0.461552	-0.403126	99
Es	-0.337731	-1.458785	-0.350536	99
Es	-0.069978	-1.126417	0.375853	99
39
Properties=species:S:1:pos:R:3:Z:I:1 energy=-338.70879409699927 field_type=dipole dipole="0.000000 0.000000 0.000000" charge=0
C	0.582457	-0.967683	0.958408	6
C	0.825507	-0.254383	-0.334402	6
C	0.538967	1.205247	-0.484792	6
O	-0.587523	1.571327	0.326808	8
N	-1.752913	0.817407	0.022358	7
C	-1.520583	-0.444253	-0.172032	6
N	-0.330433	-1.153283	-0.181072	7
H	1.159677	-1.854773	1.178428	1
H	0.151907	-0.448783	1.804538	1
H	1.577097	-0.627533	-1.014572	1
H	1.398247	1.794667	-0.151902	1
H	0.327487	1.462697	-1.528512	1
H	-2.369893	-1.100653	-0.423262	1
Es	-2.095616	-0.874588	-0.334595	99
Es	-1.520452	-0.444323	-0.172052	99
Es	0.896256	-0.512170	0.406456	99
Es	1.338155	-0.503579	-0.791319	99
Es	-0.337878	-1.458483	-0.350211	99
Es	0.582307	-0.967687	0.958156	99
Es	-0.652913	1.865514	0.260098	99
Es	-0.177792	1.399576	-0.000960	99
Es	-1.752332	0.817092	0.022370	99
Es	-0.330374	-1.152678	-0.180775	99
Es	0.397557	1.365128	-1.200605	99
Es	-0.835315	-0.809275	-0.140963	99
Es	0.301483	-0.616951	1.523358	99
Es	-1.601665	0.335480	-0.349214	99
Es	0.973464	-1.563644	1.109055	99
Es	-1.066148	1.209793	0.167294	99
Es	1.119460	1.597002	-0.256548	99
Es	-2.069934	1.006017	0.017014	99
Es	0.825298	-0.254537	-0.334309	99
Es	0.677649	0.461534	-0.403122	99
Es	-0.587495	1.571056	0.326560	99
Es	-1.678435	0.224795	0.223736	99
Es	-0.516331	1.470213	0.602067	99
Es	-0.069842	-1.126564	0.375962	99
Es	0.538797	1.205237	-0.484649	99
Es	0.099362	-0.725985	-0.371216	99
39
Properties=species:S:1:pos:R:3:Z:I:1 energy=-338.70879409699927 field_type=dipole dipole="0.000000 0.000000 0.000000" charge=0
C	0.582457	-0.967683	0.958408	6
C	0.825507	-0.254383	-0.334402	6
C	0.538967	1.205247	-0.484792	6
O	-0.587523	1.571327	0.326808	8
N	-1.752913	0.817407	0.022358	7
C	-1.520583	-0.444253	-0.172032	6
N	-0.330433	-1.153283	-0.181072	7
H	1.159677	-1.854773	1.178428	1
H	0.151907	-0.448783	1.804538	1
H	1.577097	-0.627533	-1.014572	1
H	1.398247	1.794667	-0.151902	1
H	0.327487	1.462697	-1.528512	1
H	-2.369893	-1.100653	-0.423262	1
Es	-0.337820	-1.457985	-0.350218	99
Es	-2.095603	-0.874573	-0.334561	99
Es	-1.066626	1.210612	0.166719	99
Es	-1.752331	0.817101	0.022369	99
Es	0.582307	-0.967685	0.958153	99
Es	-0.330374	-1.152678	-0.180775	99
Es	1.119491	1.596991	-0.256575	99
Es	0.301537	-0.617042	1.523318	99
Es	-2.069839	1.005769	0.017329	99
Es	0.825300	-0.254534	-0.334311	99
Es	-0.517159	1.470710	0.602061	99
Es	-0.587500	1.571009	0.326530	99
Es	-0.070224	-1.127020	0.376035	99
Es	-1.601961	0.335678	-0.349377	99
Es	-0.835322	-0.809474	-0.141085	99
Es	0.677630	0.461461	-0.403194	99
Es	-0.177084	1.399108	-0.000392	99
Es	1.338120	-0.503542	-0.791304	99
Es	0.896424	-0.512035	0.406536	99
Es	0.397548	1.365152	-1.200554	99
Es	-1.520457	-0.444319	-0.172053	99
Es	0.538798	1.205237	-0.484650	99
Es	-0.652287	1.864887	0.260136	99
Es	0.973426	-1.563627	1.109044	99
Es	0.099564	-0.725889	-0.371155	99
Es	-1.678292	0.224658	0.223560	99
39
Properties=species:S:1:pos:R:3:Z:I:1 energy=-338.70879409699927 field_type=dipole dipole="0.000000 0.000000 0.000000" charge=0
C	0.582457	-0.967683	0.958408	6
C	0.825507	-0.254383	-0.334402	6
C	0.538967	1.205247	-0.484792	6
O	-0.587523	1.571327	0.326808	8
N	-1.752913	0.817407	0.022358	7
C	-1.520583	-0.444253	-0.172032	6
N	-0.330433	-1.153283	-0.181072	7
H	1.159677	-1.854773	1.178428	1
H	0.151907	-0.448783	1.804538	1
H	1.577097	-0.627533	-1.014572	1
H	1.398247	1.794667	-0.151902	1
H	0.327487	1.462697	-1.528512	1
H	-2.369893	-1.100653	-0.423262	1
Es	-0.069873	-1.126813	0.376137	99
Es	-0.587514	1.571107	0.326596	99
Es	0.896533	-0.512024	0.406560	99
Es	-2.069703	1.005725	0.016880	99
Es	0.582307	-0.967687	0.958155	99
Es	-1.601814	0.335491	-0.349083	99
Es	-0.517027	1.472617	0.603251	99
Es	0.301621	-0.617070	1.523330	99
Es	-1.752332	0.817104	0.022370	99
Es	-2.095645	-0.874546	-0.334617	99
Es	0.397563	1.365155	-1.200560	99
Es	1.119469	1.597017	-0.256545	99
Es	0.973385	-1.563525	1.109012	99
Es	-0.835383	-0.809889	-0.140862	99
Es	0.099090	-0.725796	-0.371886	99
Es	1.338060	-0.503526	-0.791263	99
Es	-0.652564	1.863656	0.258032	99
Es	-0.337740	-1.457916	-0.349814	99
Es	-1.520457	-0.444318	-0.172053	99
Es	0.538797	1.205237	-0.484649	99
Es	-1.066467	1.209992	0.167443	99
Es	0.825301	-0.254532	-0.334312	99
Es	-0.330399	-1.152704	-0.180786	99
Es	-1.678554	0.224762	0.223700	99
Es	0.677731	0.461455	-0.403215	99
Es	-0.177120	1.399000	-0.000233	99
39
Properties=species:S:1:pos:R:3:Z:I:1 energy=-338.70879409699927 field_type=dipole dipole="0.000000 0.000000 0.000000" charge=0
C	0.582457	-0.967683	0.958408	6
C	0.825507	-0.254383	-0.334402	6
C	0.538967	1.205247	-0.484792	6
O	-0.587523	1.571327	0.326808	8
N	-1.752913	0.817407	0.022358	7
C	-1.520583	-0.444253	-0.172032	6
N	-0.330433	-1.153283	-0.181072	7
H	1.159677	-1.854773	1.178428	1
H	0.151907	-0.448783	1.804538	1
H	1.577097	-0.627533	-1.014572	1
H	1.398247	1.794667	-0.151902	1
H	0.327487	1.462697	-1.528512	1
H	-2.369893	-1.100653	-0.423262	1
Es	-0.070498	-1.127509	0.376309	99
Es	0.677701	0.461460	-0.403229	99
Es	-1.520457	-0.444318	-0.172053	99
Es	0.538799	1.205237	-0.484650	99
Es	0.099650	-0.725927	-0.371613	99
Es	1.338066	-0.503470	-0.791240	99
Es	-2.095687	-0.874544	-0.334612	99
Es	-0.652220	1.860428	0.252083	99
Es	-0.587588	1.571166	0.326310	99
Es	-0.835159	-0.809720	-0.141211	99
Es	-1.752333	0.817096	0.022368	99
Es	0.973354	-1.563500	1.109056	99
Es	-0.330376	-1.152679	-0.180777	99
Es	0.825301	-0.254532	-0.334312	99
Es	0.896680	-0.511919	0.406561	99
Es	-1.066316	1.209347	0.168277	99
Es	-0.175996	1.396936	0.002073	99
Es	1.119480	1.597014	-0.256577	99
Es	0.397556	1.365141	-1.200536	99
Es	0.582308	-0.967685	0.958154	99
Es	-0.518596	1.478595	0.606483	99
Es	0.301611	-0.617115	1.523276	99
Es	-0.337949	-1.457387	-0.349929	99
Es	-1.601885	0.335476	-0.349075	99
Es	-1.678627	0.224776	0.223599	99
Es	-2.069553	1.005603	0.016853	99
39
Properties=species:S:1:pos:R:3:Z:I:1 energy=-338.70879409699927 field_type=dipole dipole="0.000000 0.000000 0.000000" charge=0
C	0.582457	-0.967683	0.958408	6
C	0.825507	-0.254383	-0.334402	6
C	0.538967	1.205247	-0.484792	6
O	-0.587523	1.571327	0.326808	8
N	-1.752913	0.817407	0.022358	7
C	-1.520583	-0.444253	-0.172032	6
N	-0.330433	-1.153283	-0.181072	7
H	1.159677	-1.854773	1.178428	1
H	0.151907	-0.448783	1.804538	1
H	1.577097	-0.627533	-1.014572	1
H	1.398247	1.794667	-0.151902	1
H	0.327487	1.462697	-1.528512	1
H	-2.369893	-1.100653	-0.423262	1
Es	-1.752345	0.817103	0.022370	99
Es	-0.176653	1.398997	-0.000003	99
Es	-2.095733	-0.874551	-0.334582	99
Es	0.301664	-0.617141	1.523200	99
Es	0.582308	-0.967684	0.958153	99
Es	-0.330377	-1.152677	-0.180776	99
Es	1.338088	-0.503402	-0.791204	99
Es	0.896729	-0.511865	0.406570	99
Es	-0.517436	1.473722	0.603479	99
Es	0.100024	-0.726009	-0.371991	99
Es	-0.587495	1.571104	0.326609	99
Es	-1.678297	0.224580	0.223298	99
Es	-0.338122	-1.456907	-0.349616	99
Es	-1.066749	1.210206	0.167635	99
Es	-1.602058	0.335714	-0.349079	99
Es	-1.520457	-0.444318	-0.172055	99
Es	-0.070835	-1.127941	0.376489	99
Es	-0.835083	-0.809764	-0.141298	99
Es	-0.652494	1.862688	0.257503	99
Es	1.119512	1.597015	-0.256573	99
Es	0.397582	1.365130	-1.200496	99
Es	0.677645	0.461406	-0.403261	99
Es	0.538794	1.205238	-0.484648	99
Es	0.973338	-1.563456	1.109095	99
Es	0.825301	-0.254534	-0.334307	99
Es	-2.069587	1.005319	0.017072	99
39
Properties=species:S:1:pos:R:3:Z:I:1 energy=-338.70879409699927 field_type=dipole dipole="0.000000 0.000000 0.000000" charge=0
C	0.582457	-0.967683	0.958408	6
C	0.825507	-0.254383	-0.334402	6
C	0.538967	1.205247	-0.484792	6
O	-0.587523	1.571327	0.326808	8
N	-1.752913	0.817407	0.022358	7
C	-1.520583	-0.444253	-0.172032	6
N	-0.330433	-1.153283	-0.181072	7
H	1.159677	-1.854773	1.178428	1
H	0.151907	-0.448783	1.804538	1
H	1.577097	-0.627533	-1.014572	1
H	1.398247	1.794667	-0.151902	1
H	0.327487	1.462697	-1.528512	1
H	-2.369893	-1.100653	-0.423262	1
Es	0.397598	1.365121	-1.200492	99
Es	-0.652315	1.863901	0.260509	99
Es	-1.602031	0.335498	-0.348961	99
Es	-0.177003	1.399769	-0.000793	99
Es	-0.516901	1.471481	0.601369	99
Es	-0.835070	-0.809969	-0.141319	99
Es	-1.752354	0.817160	0.022378	99
Es	-2.095773	-0.874517	-0.334616	99
Es	-0.070727	-1.127966	0.376495	99
Es	0.301658	-0.617204	1.523194	99
Es	0.582309	-0.967684	0.958157	99
Es	0.825300	-0.254532	-0.334312	99
Es	-0.587524	1.571109	0.326585	99
Es	1.338005	-0.503397	-0.791186	99
Es	1.119486	1.597012	-0.256595	99
Es	-0.338045	-1.456745	-0.349620	99
Es	0.099726	-0.725969	-0.372054	99
Es	0.896957	-0.511804	0.406665	99
Es	-0.330370	-1.152684	-0.180779	99
Es	0.538800	1.205237	-0.484651	99
Es	-2.069291	1.005258	0.016767	99
Es	0.973267	-1.563417	1.109088	99
Es	-1.678720	0.224783	0.223490	99
Es	-1.520457	-0.444318	-0.172053	99
Es	0.677740	0.461404	-0.403262	99
Es	-1.066998	1.210447	0.167583	99
39
Properties=species:S:1:pos:R:3:Z:I:1 energy=-338.70879409699927 field_type=dipole dipole="0.000000 0.000000 0.000000" charge=0
C	0.582457	-0.967683	0.958408	6
C	0.825507	-0.254383	-0.334402	6
C	0.538967	1.205247	-0.484792	6
O	-0.587523	1.571327	0.326808	8
N	-1.752913	0.817407	0.022358	7
C	-1.520583	-0.444253	-0.172032	6
N	-0.330433	-1.153283	-0.181072	7
H	1.159677	-1.854773	1.178428	1
H	0.151907	-0.448783	1.804538	1
H	1.577097	-0.627533	-1.014572	1
H	1.398247	1.794667	-0.151902	1
H	0.327487	1.462697	-1.528512	1
H	-2.369893	-1.100653	-0.423262	1
Es	-1.520457	-0.444318	-0.172053	99
Es	0.099769	-0.725815	-0.372368	99
Es	-2.095805	-0.874503	-0.334621	99
Es	-0.835203	-0.810338	-0.141286	99
Es	0.301699	-0.617256	1.523160	99
Es	0.897104	-0.511742	0.406730	99
Es	-0.652419	1.863117	0.258326	99
Es	-0.070884	-1.128018	0.376420	99
Es	0.397606	1.365120	-1.200482	99
Es	-1.752336	0.817098	0.022368	99
Es	-1.678893	0.224766	0.223527	99
Es	-2.069131	1.005261	0.016531	99
Es	1.119485	1.597009	-0.256597	99
Es	-0.176612	1.399042	0.000015	99
Es	-1.066867	1.209957	0.168171	99
Es	0.582308	-0.967684	0.958152	99
Es	-0.337897	-1.456513	-0.349281	99
Es	-0.330375	-1.152696	-0.180792	99
Es	1.337965	-0.503352	-0.791154	99
Es	0.677777	0.461369	-0.403281	99
Es	0.538804	1.205236	-0.484654	99
Es	-1.602041	0.335485	-0.348851	99
Es	0.825300	-0.254533	-0.334312	99
Es	0.973224	-1.563366	1.109104	99
Es	-0.517365	1.473604	0.602283	99
Es	-0.587493	1.571042	0.326531	99
39
Properties=species:S:1:pos:R:3:Z:I:1 energy=-338.70879409699927 field_type=dipole dipole="0.000000 0.000000 0.000000" charge=0
C	0.582457	-0.967683	0.958408	6
C	0.825507	-0.254383	-0.334402	6
C	0.538967	1.205247	-0.484792	6
O	-0.587523	1.571327	0.326808	8
N	-1.752913	0.817407	0.022358	7
C	-1.520583	-0.444253	-0.172032	6
N	-0.330433	-1.153283	-0.181072	7
H	1.159677	-1.854773	1.178428	1
H	0.151907	-0.448783	1.804538	1
H	1.577097	-0.627533	-1.014572	1
H	1.398247	1.794667	-0.151902	1
H	0.327487	1.462697	-1.528512	1
H	-2.369893	-1.100653	-0.423262	1
Es	-1.602131	0.335451	-0.348822	99
Es	-0.518090	1.476442	0.604016	99
Es	0.099946	-0.726171	-0.372274	99
Es	0.301741	-0.617280	1.523130	99
Es	-1.066997	1.209981	0.168337	99
Es	1.337915	-0.503326	-0.791154	99
Es	-0.652159	1.861246	0.255479	99
Es	-0.834816	-0.810128	-0.141721	99
Es	-1.520457	-0.444319	-0.172053	99
Es	-0.176059	1.398212	0.000960	99
Es	-0.587472	1.571001	0.326573	99
Es	-1.752334	0.817117	0.022372	99
Es	0.397614	1.365127	-1.200478	99
Es	-0.071297	-1.128063	0.376725	99
Es	-2.095839	-0.874470	-0.334626	99
Es	0.538801	1.205236	-0.484652	99
Es	0.582308	-0.967684	0.958152	99
Es	0.973189	-1.563353	1.109113	99
Es	-0.338130	-1.456447	-0.349203	99
Es	-1.678874	0.224808	0.223413	99
Es	-0.330381	-1.152689	-0.180787	99
Es	0.825300	-0.254533	-0.334311	99
Es	-2.069054	1.005088	0.016616	99
Es	0.677783	0.461337	-0.403324	99
Es	1.119459	1.597008	-0.256618	99
Es	0.897299	-0.511619	0.406727	99
39
Properties=species:S:1:pos:R:3:Z:I:1 energy=-338.70879409699927 field_type=dipole dipole="0.000000 0.000000 0.000000" charge=0
C	0.582457	-0.967683	0.958408	6
C	0.825507	-0.254383	-0.334402	6
C	0.538967	1.205247	-0.484792	6
O	-0.587523	1.571327	0.326808	8
N	-1.752913	0.817407	0.022358	7
C	-1.520583	-0.444253	-0.172032	6
N	-0.330433	-1.153283	-0.181072	7
H	1.159677	-1.854773	1.178428	1
H	0.151907	-0.448783	1.804538	1
H	1.577097	-0.627533	-1.014572	1
H	1.398247	1.794667	-0.151902	1
H	0.327487	1.462697	-1.528512	1
H	-2.369893	-1.100653	-0.423262	1
Es	-0.834947	-0.810277	-0.141619	99
Es	-0.652043	1.863273	0.260881	99
Es	-1.602109	0.335369	-0.348642	99
Es	-0.517063	1.471764	0.601062	99
Es	-1.067456	1.210915	0.167642	99
Es	-2.068890	1.005011	0.016397	99
Es	-1.520458	-0.444317	-0.172050	99
Es	0.538803	1.205235	-0.484651	99
Es	-0.338227	-1.455855	-0.348702	99
Es	-2.095895	-0.874465	-0.334652	99
Es	1.119465	1.596976	-0.256592	99
Es	0.099945	-0.726256	-0.373040	99
Es	1.337890	-0.503271	-0.791112	99
Es	0.397656	1.365153	-1.200461	99
Es	-1.679025	0.224861	0.223461	99
Es	0.677793	0.461348	-0.403323	99
Es	0.973151	-1.563312	1.109153	99
Es	0.301723	-0.617364	1.523057	99
Es	-0.176755	1.399933	-0.000845	99
Es	-0.071044	-1.128348	0.376717	99
Es	0.582308	-0.967684	0.958152	99
Es	-0.330393	-1.152717	-0.180823	99
Es	-1.752340	0.817090	0.022366	99
Es	0.825296	-0.254537	-0.334309	99
Es	-0.587486	1.571106	0.326612	99
Es	0.897368	-0.511657	0.406907	99
39
Properties=species:S:1:pos:R:3:Z:I:1 energy=-338.70879409699927 field_type=dipole dipole="0.000000 0.000000 0.000000" charge=0
C	0.582457	-0.967683	0.958408	6
C	0.825507	-0.254383	-0.334402	6
C	0.538967	1.205247	-0.484792	6
O	-0.587523	1.571327	0.326808	8
N	-1.752913	0.817407	0.022358	7
C	-1.520583	-0.444253	-0.172032	6
N	-0.330433	-1.153283	-0.181072	7
H	1.159677	-1.854773	1.178428	1
H	0.151907	-0.448783	1.804538	1
H	1.577097	-0.627533	-1.014572	1
H	1.398247	1.794667	-0.151902	1
H	0.327487	1.462697	-1.528512	1
H	-2.369893	-1.100653	-0.423262	1
Es	-0.652005	1.864339	0.263576	99
Es	-1.067693	1.211244	0.167509	99
Es	-1.752341	0.817090	0.022366	99
Es	-2.095907	-0.874459	-0.334640	99
Es	-0.330365	-1.152686	-0.180778	99
Es	0.825300	-0.254533	-0.334310	99
Es	-0.516745	1.469862	0.599222	99
Es	0.301749	-0.617390	1.523108	99
Es	1.337849	-0.503254	-0.791079	99
Es	-1.679139	0.224796	0.223533	99
Es	0.582308	-0.967684	0.958151	99
Es	-0.338189	-1.455750	-0.349083	99
Es	1.119485	1.597010	-0.256620	99
Es	-0.587491	1.571055	0.326588	99
Es	-2.068516	1.004766	0.016546	99
Es	-1.520457	-0.444319	-0.172053	99
Es	-0.834871	-0.810427	-0.141499	99
Es	0.897522	-0.511600	0.406874	99
Es	0.973080	-1.563242	1.109114	99
Es	0.397650	1.365105	-1.200431	99
Es	-1.602352	0.335503	-0.348942	99
Es	0.677833	0.461323	-0.403339	99
Es	0.099789	-0.726039	-0.372834	99
Es	-0.176916	1.400648	-0.001512	99
Es	0.538802	1.205236	-0.484652	99
Es	-0.071112	-1.128620	0.376774	99
39
Properties=species:S:1:pos:R:3:Z:I:1 energy=-338.70879409699927 field_type=dipole dipole="0.000000 0.000000 0.000000" charge=0
C	0.582457	-0.967683	0.958408	6
C	0.825507	-0.254383	-0.334402	6
C	0.538967	1.205247	-0.484792	6
O	-0.587523	1.571327	0.326808	8
N	-1.752913	0.817407	0.022358	7
C	-1.520583	-0.444253	-0.172032	6
N	-0.330433	-1.153283	-0.181072	7
H	1.159677	-1.854773	1.178428	1
H	0.151907	-0.448783	1.804538	1
H	1.577097	-0.627533	-1.014572	1
H	1.398247	1.794667	-0.151902	1
H	0.327487	1.462697	-1.528512	1
H	-2.369893	-1.100653	-0.423262	1
Es	0.100116	-0.726056	-0.372833	99
Es	-0.330402	-1.152749	-0.180814	99
Es	0.973057	-1.563181	1.109162	99
Es	-1.520457	-0.444318	-0.172054	99
Es	0.677838	0.461287	-0.403353	99
Es	-0.176792	1.401457	-0.001991	99
Es	0.825297	-0.254537	-0.334308	99
Es	-0.071508	-1.129172	0.376816	99
Es	-2.068565	1.004862	0.015965	99
Es	-1.602097	0.335238	-0.348392	99
Es	-0.516533	1.470904	0.599724	99
Es	-0.338315	-1.455244	-0.349042	99
Es	1.337821	-0.503220	-0.791064	99
Es	-0.834734	-0.810401	-0.141571	99
Es	1.119487	1.597016	-0.256635	99
Es	-0.652461	1.863138	0.263164	99
Es	0.301792	-0.617416	1.523034	99
Es	0.538802	1.205235	-0.484653	99
Es	0.397659	1.365088	-1.200414	99
Es	0.897665	-0.511530	0.406917	99
Es	-0.587553	1.571105	0.326455	99
Es	-1.679383	0.224962	0.223580	99
Es	-2.095969	-0.874434	-0.334687	99
Es	-1.067461	1.210524	0.168074	99
Es	-1.752337	0.817094	0.022367	99
Es	0.582299	-0.967681	0.958139	99
39
Properties=species:S:1:pos:R:3:Z:I:1 energy=-338.70879409699927 field_type=dipole dipole="0.000000 0.000000 0.000000" charge=0
C	0.582457	-0.967683	0.958408	6
C	0.825507	-0.254383	-0.334402	6
C	0.538967	1.205247	-0.484792	6
O	-0.587523	1.571327	0.326808	8
N	-1.752913	0.817407	0.022358	7
C	-1.520583	-0.444253	-0.172032	6
N	-0.330433	-1.153283	-0.181072	7
H	1.159677	-1.854773	1.178428	1
H	0.151907	-0.448783	1.804538	1
H	1.577097	-0.627533	-1.014572	1
H	1.398247	1.794667	-0.151902	1
H	0.327487	1.462697	-1.528512	1
H	-2.369893	-1.100653	-0.423262	1
Es	-0.070942	-1.129265	0.376907	99
Es	-2.096015	-0.874420	-0.334658	99
Es	-2.068557	1.004655	0.016308	99
Es	-1.679154	0.224878	0.223278	99
Es	0.301786	-0.617462	1.522983	99
Es	-1.520460	-0.444312	-0.172058	99
Es	-1.068032	1.211571	0.167499	99
Es	0.099551	-0.725975	-0.373326	99
Es	0.825297	-0.254536	-0.334307	99
Es	-0.177123	1.401519	-0.002271	99
Es	1.119486	1.597015	-0.256635	99
Es	-0.338223	-1.454890	-0.348948	99
Es	0.897747	-0.511491	0.407016	99
Es	-0.587502	1.571114	0.326637	99
Es	0.973037	-1.563182	1.109190	99
Es	-0.651838	1.864464	0.265649	99
Es	0.397678	1.365085	-1.200400	99
Es	0.582310	-0.967683	0.958153	99
Es	1.337795	-0.503189	-0.791039	99
Es	-0.516366	1.468602	0.597904	99
Es	0.538802	1.205236	-0.484652	99
Es	-0.834887	-0.810796	-0.141363	99
Es	0.677867	0.461263	-0.403367	99
Es	-1.752340	0.817090	0.022366	99
Es	-1.602268	0.335363	-0.348498	99
Es	-0.330380	-1.152684	-0.180781	99
