46
Properties=species:S:1:pos:R:3:Z:I:1 energy=-325.12520471582974 field_type=dipole dipole="0.000000 0.000000 0.000000" charge=0
C	-2.026965	-0.581465	0.836105	6
C	-0.535015	-0.574285	0.823065	6
C	0.215755	-1.237205	-0.297175	6
C	0.259015	0.271205	-0.153964	6
N	-0.478265	1.071775	-1.156775	7
C	1.548835	0.900165	0.352916	6
O	2.353144	1.274045	-0.764395	8
H	-2.403165	0.309385	1.348196	1
H	-2.389785	-1.461335	1.376765	1
H	-2.457495	-0.608495	-0.169835	1
H	-0.141365	-0.682045	1.828535	1
H	-0.355165	-1.673135	-1.109415	1
H	1.097685	-1.812735	-0.037205	1
H	-0.728205	0.507815	-1.966914	1
H	0.140835	1.803745	-1.517164	1
H	2.125825	0.216345	0.983965	1
H	1.328025	1.802115	0.932375	1
H	2.446315	0.474105	-1.309084	1
Es	1.931537	0.418898	0.789323	99
Es	1.396010	1.515401	0.744875	99
Es	-0.193386	0.005594	0.436154	99
Es	-2.313439	-0.603271	0.149599	99
Es	-0.097491	1.491660	-1.371404	99
Es	0.258901	0.271129	-0.154023	99
Es	2.633051	1.342569	-0.656671	99
Es	2.048389	1.112442	-0.349855	99
Es	0.896029	0.576838	0.101436	99
Es	-2.280460	0.022415	1.187125	99
Es	2.353010	1.273748	-0.764361	99
Es	0.215720	-1.237080	-0.297097	99
Es	0.822504	-1.623313	-0.121740	99
Es	-0.534929	-0.574296	0.822923	99
Es	-2.026930	-0.581473	0.836107	99
Es	-1.275438	-0.573624	0.808049	99
Es	-0.252287	-0.646949	1.504870	99
Es	-0.477790	1.071539	-1.156976	99
Es	-2.268131	-1.184037	1.206028	99
Es	2.391856	0.832172	-1.044658	99
Es	2.183786	1.471335	-0.929517	99
Es	-0.177362	-1.522783	-0.852874	99
Es	1.548932	0.900200	0.352707	99
Es	-0.608760	0.718470	-1.642483	99
Es	-0.140452	0.709446	-0.737292	99
Es	-0.762425	1.209522	-1.014041	99
Es	0.366088	-0.492534	-0.384199	99
Es	-0.206184	-1.077185	0.312047	99
46
Properties=species:S:1:pos:R:3:Z:I:1 energy=-325.12520471582974 field_type=dipole dipole="0.000000 0.000000 0.000000" charge=0
C	-2.026965	-0.581465	0.836105	6
C	-0.535015	-0.574285	0.823065	6
C	0.215755	-1.237205	-0.297175	6
C	0.259015	0.271205	-0.153964	6
N	-0.478265	1.071775	-1.156775	7
C	1.548835	0.900165	0.352916	6
O	2.353144	1.274045	-0.764395	8
H	-2.403165	0.309385	1.348196	1
H	-2.389785	-1.461335	1.376765	1
H	-2.457495	-0.608495	-0.169835	1
H	-0.141365	-0.682045	1.828535	1
H	-0.355165	-1.673135	-1.109415	1
H	1.097685	-1.812735	-0.037205	1
H	-0.728205	0.507815	-1.966914	1
H	0.140835	1.803745	-1.517164	1
H	2.125825	0.216345	0.983965	1
H	1.328025	1.802115	0.932375	1
H	2.446315	0.474105	-1.309084	1
Es	2.631593	1.348564	-0.658803	99
Es	-0.252348	-0.646885	1.504814	99
Es	2.180148	1.466766	-0.930198	99
Es	1.548932	0.900202	0.352706	99
Es	1.395959	1.515398	0.744954	99
Es	-0.206230	-1.077613	0.312349	99
Es	-0.477765	1.071526	-1.157008	99
Es	-0.762166	1.208435	-1.015177	99
Es	-2.026935	-0.581477	0.836110	99
Es	2.395663	0.831382	-1.043204	99
Es	-2.313391	-0.603251	0.149595	99
Es	0.822395	-1.623206	-0.121956	99
Es	0.366150	-0.492395	-0.384276	99
Es	-0.534928	-0.574294	0.822923	99
Es	0.258891	0.271131	-0.154012	99
Es	-1.275381	-0.573748	0.808136	99
Es	2.352916	1.273731	-0.764377	99
Es	-0.141011	0.709484	-0.736415	99
Es	0.896039	0.576794	0.101413	99
Es	1.931486	0.418866	0.789267	99
Es	-0.177302	-1.522805	-0.852774	99
Es	-0.097779	1.492751	-1.371062	99
Es	0.215719	-1.237078	-0.297099	99
Es	-2.280402	0.022456	1.187075	99
Es	-0.193263	0.005729	0.436044	99
Es	-0.608196	0.718481	-1.642517	99
Es	2.049806	1.111871	-0.348485	99
Es	-2.268251	-1.183983	1.206028	99
46
Properties=species:S:1:pos:R:3:Z:I:1 energy=-325.12520471582974 field_type=dipole dipole="0.000000 0.000000 0.000000" charge=0
C	-2.026965	-0.581465	0.836105	6
C	-0.535015	-0.574285	0.823065	6
C	0.215755	-1.237205	-0.297175	6
C	0.259015	0.271205	-0.153964	6
N	-0.478265	1.071775	-1.156775	7
C	1.548835	0.900165	0.352916	6
O	2.353144	1.274045	-0.764395	8
H	-2.403165	0.309385	1.348196	1
H	-2.389785	-1.461335	1.376765	1
H	-2.457495	-0.608495	-0.169835	1
H	-0.141365	-0.682045	1.828535	1
H	-0.355165	-1.673135	-1.109415	1
H	1.097685	-1.812735	-0.037205	1
H	-0.728205	0.507815	-1.966914	1
H	0.140835	1.803745	-1.517164	1
H	2.125825	0.216345	0.983965	1
H	1.328025	1.802115	0.932375	1
H	2.446315	0.474105	-1.309084	1
Es	-2.280571	0.022449	1.187247	99
Es	1.395903	1.515357	0.744915	99
Es	-2.313388	-0.603206	0.149754	99
Es	-0.193248	0.005584	0.436189	99
Es	0.215721	-1.237079	-0.297100	99
Es	-0.097733	1.492519	-1.371201	99
Es	-0.206282	-1.077547	0.312436	99
Es	2.394243	0.831923	-1.044527	99
Es	0.258899	0.271119	-0.154019	99
Es	-0.477780	1.071530	-1.156991	99
Es	-0.140787	0.709609	-0.736775	99
Es	-0.607876	0.718440	-1.642390	99
Es	0.822255	-1.623307	-0.121903	99
Es	0.896008	0.576811	0.101394	99
Es	-0.762781	1.208620	-1.014788	99
Es	-0.177309	-1.522834	-0.852625	99
Es	0.366510	-0.492232	-0.384637	99
Es	2.049630	1.111690	-0.348710	99
Es	-0.252431	-0.646896	1.504720	99
Es	-2.268104	-1.184150	1.205845	99
Es	-2.026932	-0.581471	0.836109	99
Es	2.631750	1.346233	-0.658235	99
Es	2.181574	1.468765	-0.929294	99
Es	-1.275365	-0.573574	0.808011	99
Es	2.353018	1.273703	-0.764334	99
Es	1.931419	0.418881	0.789329	99
Es	1.548930	0.900202	0.352710	99
Es	-0.534925	-0.574303	0.822920	99
46
Properties=species:S:1:pos:R:3:Z:I:1 energy=-325.12520471582974 field_type=dipole dipole="0.000000 0.000000 0.000000" charge=0
C	-2.026965	-0.581465	0.836105	6
C	-0.535015	-0.574285	0.823065	6
C	0.215755	-1.237205	-0.297175	6
C	0.259015	0.271205	-0.153964	6
N	-0.478265	1.071775	-1.156775	7
C	1.548835	0.900165	0.352916	6
O	2.353144	1.274045	-0.764395	8
H	-2.403165	0.309385	1.348196	1
H	-2.389785	-1.461335	1.376765	1
H	-2.457495	-0.608495	-0.169835	1
H	-0.141365	-0.682045	1.828535	1
H	-0.355165	-1.673135	-1.109415	1
H	1.097685	-1.812735	-0.037205	1
H	-0.728205	0.507815	-1.966914	1
H	0.140835	1.803745	-1.517164	1
H	2.125825	0.216345	0.983965	1
H	1.328025	1.802115	0.932375	1
H	2.446315	0.474105	-1.309084	1
Es	0.215720	-1.237071	-0.297098	99
Es	0.258897	0.271122	-0.154016	99
Es	-0.252476	-0.646905	1.504644	99
Es	1.931446	0.418964	0.789290	99
Es	2.353049	1.273826	-0.764365	99
Es	-0.762734	1.208324	-1.015091	99
Es	0.895929	0.576656	0.101344	99
Es	2.395257	0.831585	-1.043777	99
Es	-0.534927	-0.574297	0.822921	99
Es	0.822274	-1.623237	-0.122131	99
Es	2.180770	1.467701	-0.929894	99
Es	-2.026930	-0.581472	0.836107	99
Es	-0.607726	0.718525	-1.642403	99
Es	-0.193184	0.006027	0.436321	99
Es	-0.206369	-1.078014	0.312469	99
Es	-0.140693	0.709578	-0.736537	99
Es	-1.275230	-0.573544	0.808147	99
Es	1.395949	1.515329	0.744944	99
Es	-2.268172	-1.184029	1.205978	99
Es	2.631270	1.347362	-0.658769	99
Es	1.548931	0.900200	0.352707	99
Es	2.049852	1.111862	-0.348322	99
Es	-2.280548	0.022393	1.187084	99
Es	-0.177121	-1.522660	-0.852666	99
Es	-2.313436	-0.603282	0.149713	99
Es	0.366297	-0.492414	-0.384420	99
Es	-0.477770	1.071532	-1.157001	99
Es	-0.097977	1.492773	-1.371130	99
46
Properties=species:S:1:pos:R:3:Z:I:1 energy=-325.12520471582974 field_type=dipole dipole="0.000000 0.000000 0.000000" charge=0
C	-2.026965	-0.581465	0.836105	6
C	-0.535015	-0.574285	0.823065	6
C	0.215755	-1.237205	-0.297175	6
C	0.259015	0.271205	-0.153964	6
N	-0.478265	1.071775	-1.156775	7
C	1.548835	0.900165	0.352916	6
O	2.353144	1.274045	-0.764395	8
H	-2.403165	0.309385	1.348196	1
H	-2.389785	-1.461335	1.376765	1
H	-2.457495	-0.608495	-0.169835	1
H	-0.141365	-0.682045	1.828535	1
H	-0.355165	-1.673135	-1.109415	1
H	1.097685	-1.812735	-0.037205	1
H	-0.728205	0.507815	-1.966914	1
H	0.140835	1.803745	-1.517164	1
H	2.125825	0.216345	0.983965	1
H	1.328025	1.802115	0.932375	1
H	2.446315	0.474105	-1.309084	1
Es	-0.097798	1.492600	-1.371177	99
Es	-0.206355	-1.078125	0.312688	99
Es	1.548931	0.900202	0.352707	99
Es	-2.313483	-0.603389	0.149720	99
Es	1.931395	0.418895	0.789212	99
Es	-0.140849	0.709373	-0.736380	99
Es	-0.252539	-0.646864	1.504586	99
Es	-2.280546	0.022435	1.187042	99
Es	-0.608271	0.718676	-1.642424	99
Es	2.630876	1.345170	-0.658263	99
Es	0.822184	-1.623116	-0.122206	99
Es	2.049231	1.111980	-0.348414	99
Es	-0.534925	-0.574297	0.822920	99
Es	1.396043	1.515307	0.745024	99
Es	-1.275226	-0.573644	0.808109	99
Es	0.895803	0.576733	0.101372	99
Es	-0.762206	1.208579	-1.015193	99
Es	0.366435	-0.492371	-0.384605	99
Es	2.394541	0.831899	-1.044589	99
Es	-2.268117	-1.183972	1.206056	99
Es	-0.177047	-1.522764	-0.852564	99
Es	0.258907	0.271120	-0.154025	99
Es	-0.477774	1.071528	-1.156994	99
Es	0.215718	-1.237076	-0.297095	99
Es	2.353055	1.273839	-0.764363	99
Es	-2.026931	-0.581473	0.836107	99
Es	-0.193191	0.006145	0.436350	99
Es	2.182488	1.469442	-0.929548	99
46
Properties=species:S:1:pos:R:3:Z:I:1 energy=-325.12520471582974 field_type=dipole dipole="0.000000 0.000000 0.000000" charge=0
C	-2.026965	-0.581465	0.836105	6
C	-0.535015	-0.574285	0.823065	6
C	0.215755	-1.237205	-0.297175	6
C	0.259015	0.271205	-0.153964	6
N	-0.478265	1.071775	-1.156775	7
C	1.548835	0.900165	0.352916	6
O	2.353144	1.274045	-0.764395	8
H	-2.403165	0.309385	1.348196	1
H	-2.389785	-1.461335	1.376765	1
H	-2.457495	-0.608495	-0.169835	1
H	-0.141365	-0.682045	1.828535	1
H	-0.355165	-1.673135	-1.109415	1
H	1.097685	-1.812735	-0.037205	1
H	-0.728205	0.507815	-1.966914	1
H	0.140835	1.803745	-1.517164	1
H	2.125825	0.216345	0.983965	1
H	1.328025	1.802115	0.932375	1
H	2.446315	0.474105	-1.309084	1
Es	0.366526	-0.492266	-0.384746	99
Es	0.822100	-1.623099	-0.122277	99
Es	2.394844	0.831805	-1.044217	99
Es	-2.280538	0.022363	1.187073	99
Es	-0.534924	-0.574296	0.822918	99
Es	-0.097919	1.492578	-1.371121	99
Es	-0.140746	0.709455	-0.736365	99
Es	-0.762493	1.208554	-1.015220	99
Es	-0.206440	-1.078397	0.312803	99
Es	-2.268196	-1.184022	1.205977	99
Es	2.182043	1.469105	-0.929809	99
Es	1.931373	0.418952	0.789266	99
Es	-0.193158	0.006122	0.436407	99
Es	-2.026931	-0.581473	0.836108	99
Es	2.630570	1.345875	-0.658919	99
Es	-0.176964	-1.522757	-0.852478	99
Es	2.049605	1.111951	-0.348044	99
Es	0.895831	0.576655	0.101338	99
Es	-0.607948	0.718655	-1.642463	99
Es	-1.275197	-0.573546	0.808269	99
Es	-0.252594	-0.646791	1.504474	99
Es	1.395977	1.515285	0.744982	99
Es	1.548929	0.900202	0.352710	99
Es	0.258902	0.271120	-0.154021	99
Es	-0.477779	1.071531	-1.156994	99
Es	2.353186	1.273607	-0.764191	99
Es	0.215718	-1.237075	-0.297096	99
Es	-2.313432	-0.603260	0.149689	99
46
Properties=species:S:1:pos:R:3:Z:I:1 energy=-325.12520471582974 field_type=dipole dipole="0.000000 0.000000 0.000000" charge=0
C	-2.026965	-0.581465	0.836105	6
C	-0.535015	-0.574285	0.823065	6
C	0.215755	-1.237205	-0.297175	6
C	0.259015	0.271205	-0.153964	6
N	-0.478265	1.071775	-1.156775	7
C	1.548835	0.900165	0.352916	6
O	2.353144	1.274045	-0.764395	8
H	-2.403165	0.309385	1.348196	1
H	-2.389785	-1.461335	1.376765	1
H	-2.457495	-0.608495	-0.169835	1
H	-0.141365	-0.682045	1.828535	1
H	-0.355165	-1.673135	-1.109415	1
H	1.097685	-1.812735	-0.037205	1
H	-0.728205	0.507815	-1.966914	1
H	0.140835	1.803745	-1.517164	1
H	2.125825	0.216345	0.983965	1
H	1.328025	1.802115	0.932375	1
H	2.446315	0.474105	-1.309084	1
Es	-0.477791	1.071536	-1.156997	99
Es	2.353034	1.273756	-0.764363	99
Es	-2.280525	0.022369	1.187076	99
Es	-0.098070	1.492938	-1.371230	99
Es	-0.762568	1.208172	-1.015070	99
Es	2.049081	1.112077	-0.348121	99
Es	-0.206377	-1.078666	0.312772	99
Es	2.631191	1.345520	-0.658662	99
Es	-2.313430	-0.603240	0.149709	99
Es	1.395907	1.515248	0.744902	99
Es	-0.252595	-0.646692	1.504406	99
Es	-1.275184	-0.573511	0.808331	99
Es	-0.607897	0.718573	-1.642304	99
Es	0.822070	-1.623043	-0.122384	99
Es	0.895836	0.576503	0.101274	99
Es	2.182847	1.468874	-0.928947	99
Es	1.931415	0.419052	0.789346	99
Es	-2.026933	-0.581472	0.836108	99
Es	-0.176900	-1.522754	-0.852410	99
Es	-0.193183	0.006346	0.436561	99
Es	0.215716	-1.237069	-0.297092	99
Es	2.394106	0.832135	-1.045105	99
Es	-0.534913	-0.574293	0.822907	99
Es	-2.268212	-1.184038	1.205969	99
Es	1.548929	0.900203	0.352710	99
Es	0.258902	0.271120	-0.154021	99
Es	0.366429	-0.492386	-0.384741	99
Es	-0.140539	0.709574	-0.736573	99
46
Properties=species:S:1:pos:R:3:Z:I:1 energy=-325.12520471582974 field_type=dipole dipole="0.000000 0.000000 0.000000" charge=0
C	-2.026965	-0.581465	0.836105	6
C	-0.535015	-0.574285	0.823065	6
C	0.215755	-1.237205	-0.297175	6
C	0.259015	0.271205	-0.153964	6
N	-0.478265	1.071775	-1.156775	7
C	1.548835	0.900165	0.352916	6
O	2.353144	1.274045	-0.764395	8
H	-2.403165	0.309385	1.348196	1
H	-2.389785	-1.461335	1.376765	1
H	-2.457495	-0.608495	-0.169835	1
H	-0.141365	-0.682045	1.828535	1
H	-0.355165	-1.673135	-1.109415	1
H	1.097685	-1.812735	-0.037205	1
H	-0.728205	0.507815	-1.966914	1
H	0.140835	1.803745	-1.517164	1
H	2.125825	0.216345	0.983965	1
H	1.328025	1.802115	0.932375	1
H	2.446315	0.474105	-1.309084	1
Es	-0.206606	-1.078670	0.313002	99
Es	0.215717	-1.237072	-0.297094	99
Es	-0.140877	0.709481	-0.736010	99
Es	0.895719	0.576614	0.101280	99
Es	-0.534927	-0.574298	0.822925	99
Es	1.548929	0.900202	0.352711	99
Es	-0.608187	0.718643	-1.642430	99
Es	2.183291	1.468511	-0.928968	99
Es	-0.762175	1.208751	-1.015491	99
Es	0.821950	-1.622985	-0.122432	99
Es	-0.477770	1.071525	-1.157002	99
Es	-2.313405	-0.603125	0.149764	99
Es	2.394266	0.831957	-1.045104	99
Es	1.396021	1.515244	0.745016	99
Es	-2.268272	-1.184074	1.205830	99
Es	2.048762	1.112433	-0.347956	99
Es	-2.280551	0.022317	1.187155	99
Es	-0.193130	0.006303	0.436584	99
Es	-2.026934	-0.581476	0.836104	99
Es	-0.252637	-0.646801	1.504334	99
Es	2.630925	1.345769	-0.658895	99
Es	0.366708	-0.492278	-0.385014	99
Es	-0.176785	-1.522774	-0.852348	99
Es	0.258902	0.271117	-0.154020	99
Es	2.353044	1.273680	-0.764293	99
Es	-1.275080	-0.573538	0.808382	99
Es	1.931322	0.418963	0.789238	99
Es	-0.097871	1.492412	-1.371220	99
46
Properties=species:S:1:pos:R:3:Z:I:1 energy=-325.12520471582974 field_type=dipole dipole="0.000000 0.000000 0.000000" charge=0
C	-2.026965	-0.581465	0.836105	6
C	-0.535015	-0.574285	0.823065	6
C	0.215755	-1.237205	-0.297175	6
C	0.259015	0.271205	-0.153964	6
N	-0.478265	1.071775	-1.156775	7
C	1.548835	0.900165	0.352916	6
O	2.353144	1.274045	-0.764395	8
H	-2.403165	0.309385	1.348196	1
H	-2.389785	-1.461335	1.376765	1
H	-2.457495	-0.608495	-0.169835	1
H	-0.141365	-0.682045	1.828535	1
H	-0.355165	-1.673135	-1.109415	1
H	1.097685	-1.812735	-0.037205	1
H	-0.728205	0.507815	-1.966914	1
H	0.140835	1.803745	-1.517164	1
H	2.125825	0.216345	0.983965	1
H	1.328025	1.802115	0.932375	1
H	2.446315	0.474105	-1.309084	1
Es	2.048878	1.112309	-0.347812	99
Es	-0.477769	1.071539	-1.156983	99
Es	-0.608083	0.718671	-1.642447	99
Es	-2.280542	0.022323	1.187028	99
Es	-0.193103	0.006527	0.436913	99
Es	0.215718	-1.237070	-0.297094	99
Es	-0.252779	-0.646840	1.504295	99
Es	-0.097996	1.492590	-1.371164	99
Es	2.353010	1.273738	-0.764339	99
Es	-0.140804	0.709500	-0.736081	99
Es	-0.176800	-1.522757	-0.852263	99
Es	-0.534924	-0.574295	0.822919	99
Es	1.395974	1.515219	0.745005	99
Es	1.931315	0.418989	0.789258	99
Es	-2.026932	-0.581473	0.836108	99
Es	2.394557	0.832008	-1.045055	99
Es	-0.206486	-1.078739	0.312911	99
Es	0.895654	0.576527	0.101185	99
Es	-2.268271	-1.183996	1.205961	99
Es	2.630476	1.345289	-0.658867	99
Es	1.548929	0.900203	0.352712	99
Es	-1.274992	-0.573468	0.808360	99
Es	2.183389	1.469029	-0.929160	99
Es	0.366803	-0.492380	-0.385057	99
Es	-2.313445	-0.603232	0.149742	99
Es	-0.762240	1.208533	-1.015516	99
Es	0.821906	-1.623024	-0.122485	99
Es	0.258906	0.271112	-0.154023	99
46
Properties=species:S:1:pos:R:3:Z:I:1 energy=-325.12520471582974 field_type=dipole dipole="0.000000 0.000000 0.000000" charge=0
C	-2.026965	-0.581465	0.836105	6
C	-0.535015	-0.574285	0.823065	6
C	0.215755	-1.237205	-0.297175	6
C	0.259015	0.271205	-0.153964	6
N	-0.478265	1.071775	-1.156775	7
C	1.548835	0.900165	0.352916	6
O	2.353144	1.274045	-0.764395	8
H	-2.403165	0.309385	1.348196	1
H	-2.389785	-1.461335	1.376765	1
H	-2.457495	-0.608495	-0.169835	1
H	-0.141365	-0.682045	1.828535	1
H	-0.355165	-1.673135	-1.109415	1
H	1.097685	-1.812735	-0.037205	1
H	-0.728205	0.507815	-1.966914	1
H	0.140835	1.803745	-1.517164	1
H	2.125825	0.216345	0.983965	1
H	1.328025	1.802115	0.932375	1
H	2.446315	0.474105	-1.309084	1
Es	0.258898	0.271102	-0.154014	99
Es	2.352997	1.273727	-0.764328	99
Es	2.183299	1.468634	-0.928782	99
Es	-0.098176	1.492873	-1.370956	99
Es	0.215719	-1.237071	-0.297096	99
Es	-1.275035	-0.573562	0.808434	99
Es	2.049153	1.112376	-0.347532	99
Es	-2.268255	-1.184015	1.205972	99
Es	-2.280596	0.022331	1.186992	99
Es	1.931280	0.419031	0.789250	99
Es	2.630664	1.345596	-0.659300	99
Es	-0.607879	0.718752	-1.642570	99
Es	-2.026932	-0.581473	0.836107	99
Es	0.821781	-1.622935	-0.122605	99
Es	1.548928	0.900202	0.352712	99
Es	-0.193109	0.006203	0.436556	99
Es	2.394236	0.832042	-1.045314	99
Es	-2.313422	-0.603268	0.149773	99
Es	1.396039	1.515171	0.745013	99
Es	-0.252773	-0.646741	1.504164	99
Es	-0.762239	1.208230	-1.015673	99
Es	-0.206676	-1.079411	0.313284	99
Es	0.366967	-0.491539	-0.385169	99
Es	-0.140801	0.709453	-0.735896	99
Es	0.895578	0.576607	0.101319	99
Es	-0.477778	1.071533	-1.156994	99
Es	-0.534923	-0.574297	0.822918	99
Es	-0.176596	-1.522717	-0.852212	99
46
Properties=species:S:1:pos:R:3:Z:I:1 energy=-325.12520471582974 field_type=dipole dipole="0.000000 0.000000 0.000000" charge=0
C	-2.026965	-0.581465	0.836105	6
C	-0.535015	-0.574285	0.823065	6
C	0.215755	-1.237205	-0.297175	6
C	0.259015	0.271205	-0.153964	6
N	-0.478265	1.071775	-1.156775	7
C	1.548835	0.900165	0.352916	6
O	2.353144	1.274045	-0.764395	8
H	-2.403165	0.309385	1.348196	1
H	-2.389785	-1.461335	1.376765	1
H	-2.457495	-0.608495	-0.169835	1
H	-0.141365	-0.682045	1.828535	1
H	-0.355165	-1.673135	-1.109415	1
H	1.097685	-1.812735	-0.037205	1
H	-0.728205	0.507815	-1.966914	1
H	0.140835	1.803745	-1.517164	1
H	2.125825	0.216345	0.983965	1
H	1.328025	1.802115	0.932375	1
H	2.446315	0.474105	-1.309084	1
Es	-0.140790	0.709411	-0.735652	99
Es	-0.176615	-1.522740	-0.852119	99
Es	1.548928	0.900202	0.352713	99
Es	-0.534916	-0.574304	0.822910	99
Es	-0.607859	0.718813	-1.642476	99
Es	-2.026932	-0.581473	0.836107	99
Es	-2.313439	-0.603260	0.149757	99
Es	2.393305	0.832401	-1.046320	99
Es	-2.280602	0.022307	1.187018	99
Es	2.047540	1.112862	-0.348217	99
Es	1.931264	0.419007	0.789239	99
Es	0.821701	-1.622962	-0.122628	99
Es	0.895541	0.576574	0.101264	99
Es	-0.252845	-0.646697	1.504105	99
Es	-0.206584	-1.079151	0.313261	99
Es	2.352902	1.273738	-0.764388	99
Es	2.186472	1.471296	-0.928490	99
Es	0.215716	-1.237061	-0.297088	99
Es	-0.193183	0.006509	0.436884	99
Es	-2.268258	-1.183980	1.205937	99
Es	2.630130	1.342089	-0.657872	99
Es	0.367104	-0.492117	-0.385417	99
Es	1.396028	1.515159	0.745030	99
Es	-0.762189	1.208294	-1.015932	99
Es	-0.477792	1.071541	-1.156984	99
Es	-0.098208	1.492791	-1.371064	99
Es	-1.274974	-0.573525	0.808488	99
Es	0.258903	0.271107	-0.154017	99
