40
Properties=species:S:1:pos:R:3:Z:I:1 energy=-322.7852113677819 field_type=dipole dipole="0.000000 0.000000 0.000000" charge=0
C	-2.464969	-0.660366	-0.017585	6
C	-1.005019	-0.469336	-0.007145	6
C	-0.179789	0.627544	-0.001465	6
C	1.123901	0.083014	0.007835	6
C	2.419861	0.795124	0.017315	6
N	1.091681	-1.255486	0.007835	7
O	-0.248729	-1.598786	-0.001775	8
H	-2.987459	0.301244	-0.009925	1
H	-2.784279	-1.227526	0.861955	1
H	-2.774119	-1.208396	-0.912975	1
H	-0.472489	1.666513	-0.003625	1
H	2.274111	1.880264	0.004195	1
H	3.015381	0.524064	-0.860445	1
H	2.991921	0.542134	0.915805	1
Es	-2.661612	-1.036704	0.570083	99
Es	0.299273	-1.425741	0.017512	99
Es	2.419794	0.795104	0.017315	99
Es	-0.505388	0.154066	0.304339	99
Es	1.091261	-1.255063	0.007832	99
Es	-1.725117	-0.561008	-0.011639	99
Es	-0.371272	1.328710	-0.002701	99
Es	2.310467	1.528341	0.008389	99
Es	2.807591	0.609076	-0.570189	99
Es	-0.517792	-1.168962	0.089650	99
Es	-2.464890	-0.660346	-0.017584	99
Es	1.081258	-0.703148	-0.276664	99
Es	1.078346	-0.703090	0.290364	99
Es	-0.340635	-1.858841	0.131162	99
Es	-0.494228	0.155457	-0.313898	99
Es	-0.179788	0.627562	-0.001451	99
Es	2.791628	0.621158	0.618631	99
Es	-2.654590	-1.023849	-0.615644	99
Es	0.491270	0.413492	0.005089	99
Es	1.123944	0.082998	0.007839	99
Es	-0.248648	-1.598321	-0.001705	99
Es	-2.805429	-0.008689	-0.012456	99
Es	-0.298128	-1.492574	-0.243783	99
Es	1.761048	0.442004	0.012465	99
Es	1.341978	-1.537385	0.010165	99
Es	-1.004973	-0.469614	-0.007145	99
40
Properties=species:S:1:pos:R:3:Z:I:1 energy=-322.7852113677819 field_type=dipole dipole="0.000000 0.000000 0.000000" charge=0
C	-2.464969	-0.660366	-0.017585	6
C	-1.005019	-0.469336	-0.007145	6
C	-0.179789	0.627544	-0.001465	6
C	1.123901	0.083014	0.007835	6
C	2.419861	0.795124	0.017315	6
N	1.091681	-1.255486	0.007835	7
O	-0.248729	-1.598786	-0.001775	8
H	-2.987459	0.301244	-0.009925	1
H	-2.784279	-1.227526	0.861955	1
H	-2.774119	-1.208396	-0.912975	1
H	-0.472489	1.666513	-0.003625	1
H	2.274111	1.880264	0.004195	1
H	3.015381	0.524064	-0.860445	1
H	2.991921	0.542134	0.915805	1
Es	2.310482	1.528379	0.008373	99
Es	1.123945	0.083000	0.007835	99
Es	0.491248	0.413429	0.001612	99
Es	-2.805420	-0.008633	-0.012481	99
Es	-1.725260	-0.560894	-0.012782	99
Es	-0.248671	-1.598268	-0.001873	99
Es	-2.661550	-1.036678	0.570154	99
Es	-2.654598	-1.023907	-0.615615	99
Es	-0.498267	0.155446	0.306477	99
Es	-0.371265	1.328711	-0.003047	99
Es	-0.300629	-1.488231	0.236872	99
Es	2.791636	0.621162	0.618601	99
Es	-1.004971	-0.469616	-0.007138	99
Es	1.091212	-1.255051	0.007834	99
Es	-0.339652	-1.862101	-0.130383	99
Es	-0.179788	0.627564	-0.001472	99
Es	1.082211	-0.703652	-0.274976	99
Es	1.077238	-0.702394	0.291316	99
Es	2.807590	0.609074	-0.570136	99
Es	1.342277	-1.537268	0.009600	99
Es	-0.516806	-1.169786	-0.098830	99
Es	-2.464889	-0.660346	-0.017585	99
Es	2.419793	0.795103	0.017315	99
Es	1.761123	0.441998	0.012315	99
Es	0.299640	-1.426273	-0.014441	99
Es	-0.501261	0.153867	-0.311566	99
40
Properties=species:S:1:pos:R:3:Z:I:1 energy=-322.7852113677819 field_type=dipole dipole="0.000000 0.000000 0.000000" charge=0
C	-2.464969	-0.660366	-0.017585	6
C	-1.005019	-0.469336	-0.007145	6
C	-0.179789	0.627544	-0.001465	6
C	1.123901	0.083014	0.007835	6
C	2.419861	0.795124	0.017315	6
N	1.091681	-1.255486	0.007835	7
O	-0.248729	-1.598786	-0.001775	8
H	-2.987459	0.301244	-0.009925	1
H	-2.784279	-1.227526	0.861955	1
H	-2.774119	-1.208396	-0.912975	1
H	-0.472489	1.666513	-0.003625	1
H	2.274111	1.880264	0.004195	1
H	3.015381	0.524064	-0.860445	1
H	2.991921	0.542134	0.915805	1
Es	0.491130	0.413514	0.002047	99
Es	1.091202	-1.255056	0.007832	99
Es	-0.371290	1.328670	-0.002984	99
Es	-0.179789	0.627563	-0.001460	99
Es	1.077270	-0.702664	0.291266	99
Es	-2.464889	-0.660346	-0.017584	99
Es	2.419792	0.795103	0.017315	99
Es	-0.499941	0.154146	-0.311751	99
Es	-2.661534	-1.036720	0.570231	99
Es	1.761197	0.442055	0.012371	99
Es	1.082479	-0.703640	-0.275020	99
Es	-1.004973	-0.469614	-0.007146	99
Es	2.310488	1.528419	0.007960	99
Es	-0.248623	-1.598312	-0.001887	99
Es	-2.805401	-0.008710	-0.012466	99
Es	2.807602	0.608756	-0.569976	99
Es	-0.340349	-1.867913	-0.120951	99
Es	-2.654595	-1.023874	-0.615671	99
Es	-1.725381	-0.560730	-0.012823	99
Es	-0.514189	-1.173675	-0.107205	99
Es	2.791580	0.621402	0.618768	99
Es	0.299839	-1.426515	-0.014284	99
Es	-0.303213	-1.478103	0.235594	99
Es	1.342220	-1.537126	0.009724	99
Es	-0.499208	0.155012	0.306250	99
Es	1.123944	0.082993	0.007829	99
40
Properties=species:S:1:pos:R:3:Z:I:1 energy=-322.7852113677819 field_type=dipole dipole="0.000000 0.000000 0.000000" charge=0
C	-2.464969	-0.660366	-0.017585	6
C	-1.005019	-0.469336	-0.007145	6
C	-0.179789	0.627544	-0.001465	6
C	1.123901	0.083014	0.007835	6
C	2.419861	0.795124	0.017315	6
N	1.091681	-1.255486	0.007835	7
O	-0.248729	-1.598786	-0.001775	8
H	-2.987459	0.301244	-0.009925	1
H	-2.784279	-1.227526	0.861955	1
H	-2.774119	-1.208396	-0.912975	1
H	-0.472489	1.666513	-0.003625	1
H	2.274111	1.880264	0.004195	1
H	3.015381	0.524064	-0.860445	1
H	2.991921	0.542134	0.915805	1
Es	-1.725552	-0.560725	-0.011757	99
Es	-0.341362	-1.859732	0.128890	99
Es	-0.504213	0.153978	0.304516	99
Es	2.807449	0.609032	-0.570091	99
Es	2.419792	0.795103	0.017315	99
Es	-0.297216	-1.491933	-0.240839	99
Es	-0.495024	0.154734	-0.313533	99
Es	-0.179791	0.627559	-0.001462	99
Es	-1.004973	-0.469612	-0.007142	99
Es	-2.661545	-1.036652	0.570267	99
Es	2.310523	1.528387	0.008251	99
Es	1.078124	-0.702830	0.289889	99
Es	-0.248613	-1.598379	-0.001654	99
Es	1.342217	-1.536942	0.010395	99
Es	1.091250	-1.255057	0.007832	99
Es	1.081331	-0.702612	-0.276260	99
Es	-0.371342	1.328641	-0.002748	99
Es	-0.518750	-1.168736	0.088509	99
Es	1.761261	0.442067	0.012407	99
Es	1.123946	0.082996	0.007831	99
Es	0.299792	-1.426374	0.017817	99
Es	0.491136	0.413596	0.004676	99
Es	-2.654543	-1.023957	-0.615696	99
Es	2.791744	0.621112	0.618704	99
Es	-2.464890	-0.660346	-0.017584	99
Es	-2.805383	-0.008683	-0.012554	99
40
Properties=species:S:1:pos:R:3:Z:I:1 energy=-322.7852113677819 field_type=dipole dipole="0.000000 0.000000 0.000000" charge=0
C	-2.464969	-0.660366	-0.017585	6
C	-1.005019	-0.469336	-0.007145	6
C	-0.179789	0.627544	-0.001465	6
C	1.123901	0.083014	0.007835	6
C	2.419861	0.795124	0.017315	6
N	1.091681	-1.255486	0.007835	7
O	-0.248729	-1.598786	-0.001775	8
H	-2.987459	0.301244	-0.009925	1
H	-2.784279	-1.227526	0.861955	1
H	-2.774119	-1.208396	-0.912975	1
H	-0.472489	1.666513	-0.003625	1
H	2.274111	1.880264	0.004195	1
H	3.015381	0.524064	-0.860445	1
H	2.991921	0.542134	0.915805	1
Es	-1.725616	-0.560677	-0.011707	99
Es	-0.179787	0.627566	-0.001467	99
Es	1.081337	-0.702717	-0.276106	99
Es	-0.505566	0.153374	0.303883	99
Es	2.791674	0.621138	0.618598	99
Es	-0.248597	-1.598262	-0.001586	99
Es	1.761342	0.441998	0.012508	99
Es	-2.464892	-0.660346	-0.017585	99
Es	1.342219	-1.536794	0.010048	99
Es	2.807550	0.609061	-0.570189	99
Es	-1.004974	-0.469614	-0.007144	99
Es	2.419794	0.795104	0.017315	99
Es	0.299864	-1.427172	0.018691	99
Es	-2.661529	-1.036785	0.570202	99
Es	1.123945	0.082997	0.007838	99
Es	-2.654483	-1.023877	-0.615679	99
Es	-0.342251	-1.867922	0.114970	99
Es	-0.493301	0.155243	-0.313786	99
Es	2.310480	1.528375	0.008388	99
Es	1.078476	-0.703088	0.289730	99
Es	-0.301361	-1.476582	-0.241232	99
Es	-0.371360	1.328640	-0.002517	99
Es	1.091227	-1.255049	0.007832	99
Es	-2.805446	-0.008618	-0.012496	99
Es	-0.514393	-1.174993	0.102144	99
Es	0.491015	0.413635	0.005324	99
40
Properties=species:S:1:pos:R:3:Z:I:1 energy=-322.7852113677819 field_type=dipole dipole="0.000000 0.000000 0.000000" charge=0
C	-2.464969	-0.660366	-0.017585	6
C	-1.005019	-0.469336	-0.007145	6
C	-0.179789	0.627544	-0.001465	6
C	1.123901	0.083014	0.007835	6
C	2.419861	0.795124	0.017315	6
N	1.091681	-1.255486	0.007835	7
O	-0.248729	-1.598786	-0.001775	8
H	-2.987459	0.301244	-0.009925	1
H	-2.784279	-1.227526	0.861955	1
H	-2.774119	-1.208396	-0.912975	1
H	-0.472489	1.666513	-0.003625	1
H	2.274111	1.880264	0.004195	1
H	3.015381	0.524064	-0.860445	1
H	2.991921	0.542134	0.915805	1
Es	-0.305637	-1.475199	0.236014	99
Es	-2.661363	-1.036644	0.570268	99
Es	-2.464890	-0.660346	-0.017584	99
Es	2.310338	1.528385	0.008406	99
Es	-0.497718	0.155030	0.306466	99
Es	-2.654630	-1.024023	-0.615658	99
Es	2.807505	0.609081	-0.570271	99
Es	-0.248644	-1.598234	-0.001951	99
Es	1.077216	-0.702958	0.291487	99
Es	0.300450	-1.427501	-0.013551	99
Es	-0.179791	0.627558	-0.001467	99
Es	0.490981	0.413522	0.001107	99
Es	1.123946	0.082999	0.007835	99
Es	2.791728	0.621120	0.618631	99
Es	1.761539	0.441999	0.012337	99
Es	-0.340625	-1.868505	-0.118147	99
Es	2.419793	0.795103	0.017315	99
Es	1.082645	-0.702651	-0.273962	99
Es	-0.512580	-1.175582	-0.111124	99
Es	-1.725734	-0.560527	-0.012907	99
Es	1.342317	-1.536778	0.008707	99
Es	-0.501073	0.153372	-0.311139	99
Es	-2.805412	-0.008565	-0.012454	99
Es	-0.371228	1.328645	-0.003064	99
Es	-1.004971	-0.469613	-0.007147	99
Es	1.091206	-1.255056	0.007831	99
40
Properties=species:S:1:pos:R:3:Z:I:1 energy=-322.7852113677819 field_type=dipole dipole="0.000000 0.000000 0.000000" charge=0
C	-2.464969	-0.660366	-0.017585	6
C	-1.005019	-0.469336	-0.007145	6
C	-0.179789	0.627544	-0.001465	6
C	1.123901	0.083014	0.007835	6
C	2.419861	0.795124	0.017315	6
N	1.091681	-1.255486	0.007835	7
O	-0.248729	-1.598786	-0.001775	8
H	-2.987459	0.301244	-0.009925	1
H	-2.784279	-1.227526	0.861955	1
H	-2.774119	-1.208396	-0.912975	1
H	-0.472489	1.666513	-0.003625	1
H	2.274111	1.880264	0.004195	1
H	3.015381	0.524064	-0.860445	1
H	2.991921	0.542134	0.915805	1
Es	-0.302925	-1.473813	0.232820	99
Es	-0.248636	-1.598332	-0.001793	99
Es	0.300319	-1.427778	-0.015536	99
Es	1.082518	-0.702781	-0.274012	99
Es	-2.654589	-1.023961	-0.615750	99
Es	-0.514008	-1.174888	-0.109505	99
Es	-0.498347	0.154701	0.306449	99
Es	1.091201	-1.255064	0.007833	99
Es	1.077378	-0.702607	0.291420	99
Es	1.123947	0.083000	0.007836	99
Es	2.419795	0.795104	0.017314	99
Es	0.490915	0.413634	0.001475	99
Es	-1.725755	-0.560613	-0.012682	99
Es	-2.805384	-0.008570	-0.012399	99
Es	-0.179789	0.627562	-0.001466	99
Es	-0.371315	1.328602	-0.003084	99
Es	-2.661475	-1.036673	0.570153	99
Es	2.807550	0.609029	-0.570214	99
Es	-1.004971	-0.469614	-0.007148	99
Es	-2.464892	-0.660346	-0.017584	99
Es	1.342245	-1.536584	0.008732	99
Es	2.310442	1.528422	0.008408	99
Es	-0.341619	-1.870362	-0.114778	99
Es	-0.500441	0.153398	-0.311432	99
Es	2.791635	0.621062	0.618644	99
Es	1.761569	0.442103	0.012278	99
40
Properties=species:S:1:pos:R:3:Z:I:1 energy=-322.7852113677819 field_type=dipole dipole="0.000000 0.000000 0.000000" charge=0
C	-2.464969	-0.660366	-0.017585	6
C	-1.005019	-0.469336	-0.007145	6
C	-0.179789	0.627544	-0.001465	6
C	1.123901	0.083014	0.007835	6
C	2.419861	0.795124	0.017315	6
N	1.091681	-1.255486	0.007835	7
O	-0.248729	-1.598786	-0.001775	8
H	-2.987459	0.301244	-0.009925	1
H	-2.784279	-1.227526	0.861955	1
H	-2.774119	-1.208396	-0.912975	1
H	-0.472489	1.666513	-0.003625	1
H	2.274111	1.880264	0.004195	1
H	3.015381	0.524064	-0.860445	1
H	2.991921	0.542134	0.915805	1
Es	0.490824	0.413658	0.004362	99
Es	-0.496725	0.153589	-0.313020	99
Es	-2.464892	-0.660346	-0.017585	99
Es	1.091201	-1.255059	0.007835	99
Es	-1.725898	-0.560451	-0.011813	99
Es	-2.661503	-1.036791	0.570217	99
Es	-0.248619	-1.598322	-0.001706	99
Es	-0.342680	-1.871075	0.107989	99
Es	1.078635	-0.703048	0.289638	99
Es	1.123944	0.082994	0.007836	99
Es	-2.654439	-1.023901	-0.615769	99
Es	2.791655	0.621111	0.618631	99
Es	-0.179791	0.627557	-0.001466	99
Es	1.761594	0.442136	0.012486	99
Es	0.300335	-1.427906	0.018380	99
Es	2.310435	1.528417	0.008373	99
Es	-0.513634	-1.177082	0.106824	99
Es	1.342144	-1.536474	0.009899	99
Es	1.081541	-0.702414	-0.275782	99
Es	-0.371436	1.328610	-0.002870	99
Es	2.419798	0.795105	0.017311	99
Es	2.807543	0.608990	-0.570225	99
Es	-2.805429	-0.008589	-0.012472	99
Es	-1.004972	-0.469611	-0.007145	99
Es	-0.501712	0.154340	0.304483	99
Es	-0.302549	-1.470805	-0.238432	99
40
Properties=species:S:1:pos:R:3:Z:I:1 energy=-322.7852113677819 field_type=dipole dipole="0.000000 0.000000 0.000000" charge=0
C	-2.464969	-0.660366	-0.017585	6
C	-1.005019	-0.469336	-0.007145	6
C	-0.179789	0.627544	-0.001465	6
C	1.123901	0.083014	0.007835	6
C	2.419861	0.795124	0.017315	6
N	1.091681	-1.255486	0.007835	7
O	-0.248729	-1.598786	-0.001775	8
H	-2.987459	0.301244	-0.009925	1
H	-2.784279	-1.227526	0.861955	1
H	-2.774119	-1.208396	-0.912975	1
H	-0.472489	1.666513	-0.003625	1
H	2.274111	1.880264	0.004195	1
H	3.015381	0.524064	-0.860445	1
H	2.991921	0.542134	0.915805	1
Es	2.310438	1.528432	0.008451	99
Es	2.807612	0.608985	-0.570266	99
Es	0.300675	-1.428273	-0.014661	99
Es	0.490945	0.413699	0.002268	99
Es	-0.498635	0.153829	-0.311636	99
Es	1.123946	0.082999	0.007834	99
Es	-2.805356	-0.008580	-0.012444	99
Es	-0.179795	0.627555	-0.001457	99
Es	1.091211	-1.255062	0.007834	99
Es	1.761721	0.442151	0.012214	99
Es	-0.499989	0.153873	0.305768	99
Es	-0.248636	-1.598295	-0.001889	99
Es	-0.512914	-1.176403	-0.112879	99
Es	-0.304504	-1.470951	0.232445	99
Es	-2.464891	-0.660345	-0.017585	99
Es	1.082559	-0.703001	-0.274363	99
Es	1.077725	-0.702157	0.290916	99
Es	-2.661420	-1.036773	0.570340	99
Es	-1.004972	-0.469613	-0.007147	99
Es	2.419795	0.795104	0.017315	99
Es	-2.654507	-1.023928	-0.615795	99
Es	-0.371478	1.328486	-0.002762	99
Es	2.791562	0.621049	0.618637	99
Es	1.342058	-1.536362	0.009274	99
Es	-0.341720	-1.871404	-0.111746	99
Es	-1.726059	-0.560381	-0.012686	99
40
Properties=species:S:1:pos:R:3:Z:I:1 energy=-322.7852113677819 field_type=dipole dipole="0.000000 0.000000 0.000000" charge=0
C	-2.464969	-0.660366	-0.017585	6
C	-1.005019	-0.469336	-0.007145	6
C	-0.179789	0.627544	-0.001465	6
C	1.123901	0.083014	0.007835	6
C	2.419861	0.795124	0.017315	6
N	1.091681	-1.255486	0.007835	7
O	-0.248729	-1.598786	-0.001775	8
H	-2.987459	0.301244	-0.009925	1
H	-2.784279	-1.227526	0.861955	1
H	-2.774119	-1.208396	-0.912975	1
H	-0.472489	1.666513	-0.003625	1
H	2.274111	1.880264	0.004195	1
H	3.015381	0.524064	-0.860445	1
H	2.991921	0.542134	0.915805	1
Es	0.490592	0.413794	0.004753	99
Es	1.091213	-1.255052	0.007832	99
Es	-0.495047	0.153848	-0.313320	99
Es	-2.805411	-0.008570	-0.012334	99
Es	2.807550	0.608994	-0.570264	99
Es	1.761784	0.442093	0.012450	99
Es	2.419794	0.795105	0.017314	99
Es	-0.248618	-1.598340	-0.001753	99
Es	-0.343283	-1.872059	0.105044	99
Es	1.078621	-0.702802	0.289345	99
Es	-2.661457	-1.036916	0.570191	99
Es	-0.371379	1.328585	-0.002811	99
Es	-1.726137	-0.560282	-0.011772	99
Es	-1.004973	-0.469612	-0.007144	99
Es	1.342078	-1.536108	0.010245	99
Es	1.123943	0.083002	0.007838	99
Es	-0.513575	-1.177650	0.107914	99
Es	2.791670	0.621115	0.618718	99
Es	2.310417	1.528352	0.008348	99
Es	-2.464892	-0.660345	-0.017584	99
Es	-0.179790	0.627558	-0.001465	99
Es	-0.302469	-1.468840	-0.237338	99
Es	-0.503033	0.153528	0.304231	99
Es	0.300480	-1.428697	0.019058	99
Es	-2.654420	-1.023813	-0.615892	99
Es	1.081712	-0.702254	-0.275625	99
40
Properties=species:S:1:pos:R:3:Z:I:1 energy=-322.7852113677819 field_type=dipole dipole="0.000000 0.000000 0.000000" charge=0
C	-2.464969	-0.660366	-0.017585	6
C	-1.005019	-0.469336	-0.007145	6
C	-0.179789	0.627544	-0.001465	6
C	1.123901	0.083014	0.007835	6
C	2.419861	0.795124	0.017315	6
N	1.091681	-1.255486	0.007835	7
O	-0.248729	-1.598786	-0.001775	8
H	-2.987459	0.301244	-0.009925	1
H	-2.784279	-1.227526	0.861955	1
H	-2.774119	-1.208396	-0.912975	1
H	-0.472489	1.666513	-0.003625	1
H	2.274111	1.880264	0.004195	1
H	3.015381	0.524064	-0.860445	1
H	2.991921	0.542134	0.915805	1
Es	0.300815	-1.428779	-0.014710	99
Es	-0.497649	0.154343	0.306324	99
Es	-2.654416	-1.023992	-0.615799	99
Es	-0.341645	-1.871468	-0.110526	99
Es	0.490535	0.413728	0.001397	99
Es	-0.371357	1.328608	-0.003041	99
Es	-0.512123	-1.177704	-0.115140	99
Es	-0.500461	0.152822	-0.311149	99
Es	-2.464891	-0.660346	-0.017585	99
Es	-2.661335	-1.036797	0.570309	99
Es	2.310473	1.528521	0.008203	99
Es	1.077460	-0.702083	0.290532	99
Es	2.791621	0.621120	0.618692	99
Es	2.807520	0.608827	-0.570112	99
Es	-0.305855	-1.469531	0.233305	99
Es	1.123945	0.082997	0.007841	99
Es	-0.179791	0.627558	-0.001470	99
Es	-2.805467	-0.008533	-0.012441	99
Es	1.082819	-0.702729	-0.273864	99
Es	-1.004973	-0.469612	-0.007147	99
Es	-1.726251	-0.560170	-0.012703	99
Es	1.761875	0.442113	0.012322	99
Es	-0.248679	-1.598268	-0.001830	99
Es	1.091205	-1.255059	0.007830	99
Es	2.419791	0.795102	0.017315	99
Es	1.342201	-1.536033	0.009422	99
40
Properties=species:S:1:pos:R:3:Z:I:1 energy=-322.7852113677819 field_type=dipole dipole="0.000000 0.000000 0.000000" charge=0
C	-2.464969	-0.660366	-0.017585	6
C	-1.005019	-0.469336	-0.007145	6
C	-0.179789	0.627544	-0.001465	6
C	1.123901	0.083014	0.007835	6
C	2.419861	0.795124	0.017315	6
N	1.091681	-1.255486	0.007835	7
O	-0.248729	-1.598786	-0.001775	8
H	-2.987459	0.301244	-0.009925	1
H	-2.784279	-1.227526	0.861955	1
H	-2.774119	-1.208396	-0.912975	1
H	-0.472489	1.666513	-0.003625	1
H	2.274111	1.880264	0.004195	1
H	3.015381	0.524064	-0.860445	1
H	2.991921	0.542134	0.915805	1
Es	-0.371335	1.328534	-0.003000	99
Es	2.419796	0.795105	0.017317	99
Es	-0.304864	-1.465751	0.229734	99
Es	1.077752	-0.701447	0.290420	99
Es	1.761859	0.442172	0.012391	99
Es	-2.654510	-1.023963	-0.615870	99
Es	-2.464892	-0.660347	-0.017586	99
Es	2.791618	0.621016	0.618653	99
Es	0.300934	-1.429051	-0.015349	99
Es	1.342034	-1.535992	0.009865	99
Es	-0.512383	-1.178177	-0.116467	99
Es	-2.805327	-0.008569	-0.012410	99
Es	-0.248630	-1.598323	-0.001850	99
Es	-1.004971	-0.469606	-0.007145	99
Es	1.091206	-1.255075	0.007829	99
Es	-0.342502	-1.874337	-0.105015	99
Es	1.082729	-0.703309	-0.274349	99
Es	-0.179791	0.627558	-0.001470	99
Es	2.310493	1.528443	0.008404	99
Es	-0.498984	0.153838	0.306081	99
Es	0.490569	0.413764	0.001998	99
Es	-2.661382	-1.036758	0.570363	99
Es	-0.499231	0.153118	-0.311488	99
Es	1.123944	0.082987	0.007826	99
Es	-1.726307	-0.560159	-0.012667	99
Es	2.807544	0.608961	-0.570238	99
40
Properties=species:S:1:pos:R:3:Z:I:1 energy=-322.7852113677819 field_type=dipole dipole="0.000000 0.000000 0.000000" charge=0
C	-2.464969	-0.660366	-0.017585	6
C	-1.005019	-0.469336	-0.007145	6
C	-0.179789	0.627544	-0.001465	6
C	1.123901	0.083014	0.007835	6
C	2.419861	0.795124	0.017315	6
N	1.091681	-1.255486	0.007835	7
O	-0.248729	-1.598786	-0.001775	8
H	-2.987459	0.301244	-0.009925	1
H	-2.784279	-1.227526	0.861955	1
H	-2.774119	-1.208396	-0.912975	1
H	-0.472489	1.666513	-0.003625	1
H	2.274111	1.880264	0.004195	1
H	3.015381	0.524064	-0.860445	1
H	2.991921	0.542134	0.915805	1
Es	2.791665	0.620961	0.618616	99
Es	1.761973	0.442219	0.012382	99
Es	-2.464893	-0.660346	-0.017585	99
Es	2.419796	0.795105	0.017316	99
Es	-2.805434	-0.008517	-0.012452	99
Es	-0.342779	-1.874893	-0.103212	99
Es	1.082801	-0.702697	-0.273763	99
Es	-2.654447	-1.024049	-0.615812	99
Es	1.077749	-0.702008	0.290621	99
Es	-1.726419	-0.560131	-0.012618	99
Es	-0.511415	-1.179096	-0.118464	99
Es	1.342046	-1.535959	0.009081	99
Es	-1.004973	-0.469609	-0.007146	99
Es	2.310469	1.528461	0.008470	99
Es	-2.661297	-1.036748	0.570356	99
Es	-0.371447	1.328528	-0.002837	99
Es	-0.179801	0.627542	-0.001450	99
Es	1.091229	-1.255053	0.007833	99
Es	-0.248614	-1.598327	-0.001837	99
Es	-0.305992	-1.463765	0.229499	99
Es	1.123945	0.082996	0.007826	99
Es	0.490462	0.413843	0.001850	99
Es	2.807475	0.608952	-0.570341	99
Es	-0.498129	0.153443	-0.311495	99
Es	-0.499787	0.153316	0.305983	99
Es	0.301184	-1.429535	-0.014844	99
