46
Properties=species:S:1:pos:R:3:Z:I:1 energy=-325.1271964843307 field_type=dipole dipole="0.000000 0.000000 0.000000" charge=0
C	-2.444499	-0.295023	-0.372707	6
C	-0.939929	-0.153873	-0.475937	6
C	-0.275309	0.907767	0.424793	6
C	0.773101	-0.183273	0.740433	6
C	2.057662	-0.188303	-0.091247	6
O	2.893651	0.896087	0.302573	8
N	-0.225469	-1.192563	0.298233	7
H	-2.790169	-1.182943	-0.912767	1
H	-2.940218	0.575747	-0.814417	1
H	-2.779948	-0.378483	0.667013	1
H	-0.607419	-0.094563	-1.520777	1
H	-0.870209	1.208767	1.295703	1
H	0.083342	1.805597	-0.085357	1
H	1.007761	-0.262633	1.809153	1
H	1.864481	-0.101423	-1.165667	1
H	2.617131	-1.113773	0.079003	1
H	2.435411	1.721967	0.072203	1
H	0.140622	-1.969073	-0.250227	1
Es	-1.703941	-0.220749	-0.430192	99
Es	0.772993	-0.183346	0.740340	99
Es	2.559431	0.502115	0.143928	99
Es	-0.681305	1.104822	1.014828	99
Es	2.906411	0.886901	0.608522	99
Es	-2.674533	-0.901422	-0.743653	99
Es	3.142057	0.885169	0.125607	99
Es	-0.427554	-1.299562	0.567715	99
Es	0.306800	0.436940	0.612389	99
Es	1.406356	-0.180156	0.309462	99
Es	2.893297	0.896116	0.302427	99
Es	-0.020004	1.528104	0.072729	99
Es	-2.665411	-0.347371	0.334294	99
Es	-0.708821	-0.109924	-1.197966	99
Es	-0.660688	0.450159	-0.055595	99
Es	-0.225126	-1.192342	0.297780	99
Es	0.013562	-1.649656	-0.052043	99
Es	2.627347	1.328739	0.170077	99
Es	-2.444498	-0.295013	-0.372731	99
Es	-0.275279	0.907736	0.424770	99
Es	2.057776	-0.188116	-0.091175	99
Es	1.907805	-0.131051	-0.833398	99
Es	-0.939869	-0.153952	-0.475844	99
Es	-2.778242	0.303368	-0.678118	99
Es	0.258125	-0.807431	0.486524	99
Es	-0.541622	-0.790313	-0.088167	99
Es	2.431722	-0.823908	0.027402	99
Es	0.948097	-0.238562	1.471500	99
46
Properties=species:S:1:pos:R:3:Z:I:1 energy=-325.1271964843307 field_type=dipole dipole="0.000000 0.000000 0.000000" charge=0
C	-2.444499	-0.295023	-0.372707	6
C	-0.939929	-0.153873	-0.475937	6
C	-0.275309	0.907767	0.424793	6
C	0.773101	-0.183273	0.740433	6
C	2.057662	-0.188303	-0.091247	6
O	2.893651	0.896087	0.302573	8
N	-0.225469	-1.192563	0.298233	7
H	-2.790169	-1.182943	-0.912767	1
H	-2.940218	0.575747	-0.814417	1
H	-2.779948	-0.378483	0.667013	1
H	-0.607419	-0.094563	-1.520777	1
H	-0.870209	1.208767	1.295703	1
H	0.083342	1.805597	-0.085357	1
H	1.007761	-0.262633	1.809153	1
H	1.864481	-0.101423	-1.165667	1
H	2.617131	-1.113773	0.079003	1
H	2.435411	1.721967	0.072203	1
H	0.140622	-1.969073	-0.250227	1
Es	-0.542369	-0.790502	-0.088142	99
Es	2.057775	-0.188116	-0.091175	99
Es	-1.703932	-0.220729	-0.430160	99
Es	-0.681228	1.104826	1.014828	99
Es	0.306941	0.437056	0.612424	99
Es	-0.225116	-1.192332	0.297777	99
Es	2.906936	0.886625	0.608239	99
Es	-0.020150	1.528083	0.072722	99
Es	2.559760	0.502042	0.144184	99
Es	0.948098	-0.238631	1.471358	99
Es	0.258302	-0.807366	0.485691	99
Es	2.626845	1.329038	0.170334	99
Es	-0.939867	-0.153951	-0.475843	99
Es	-0.708893	-0.109986	-1.197913	99
Es	-0.660694	0.450252	-0.055595	99
Es	-0.275279	0.907736	0.424768	99
Es	-2.665396	-0.347403	0.334246	99
Es	1.907802	-0.131041	-0.833349	99
Es	3.141710	0.885238	0.125453	99
Es	-0.426833	-1.299541	0.568193	99
Es	2.893338	0.896115	0.302362	99
Es	0.013405	-1.649655	-0.051759	99
Es	-2.444499	-0.295013	-0.372731	99
Es	-2.674551	-0.901427	-0.743666	99
Es	1.406361	-0.180134	0.309547	99
Es	-2.778262	0.303392	-0.678073	99
Es	2.431689	-0.823935	0.027351	99
Es	0.772991	-0.183348	0.740341	99
46
Properties=species:S:1:pos:R:3:Z:I:1 energy=-325.1271964843307 field_type=dipole dipole="0.000000 0.000000 0.000000" charge=0
C	-2.444499	-0.295023	-0.372707	6
C	-0.939929	-0.153873	-0.475937	6
C	-0.275309	0.907767	0.424793	6
C	0.773101	-0.183273	0.740433	6
C	2.057662	-0.188303	-0.091247	6
O	2.893651	0.896087	0.302573	8
N	-0.225469	-1.192563	0.298233	7
H	-2.790169	-1.182943	-0.912767	1
H	-2.940218	0.575747	-0.814417	1
H	-2.779948	-0.378483	0.667013	1
H	-0.607419	-0.094563	-1.520777	1
H	-0.870209	1.208767	1.295703	1
H	0.083342	1.805597	-0.085357	1
H	1.007761	-0.262633	1.809153	1
H	1.864481	-0.101423	-1.165667	1
H	2.617131	-1.113773	0.079003	1
H	2.435411	1.721967	0.072203	1
H	0.140622	-1.969073	-0.250227	1
Es	-0.225130	-1.192342	0.297786	99
Es	1.406284	-0.180190	0.309499	99
Es	-2.778359	0.303440	-0.678254	99
Es	-0.709035	-0.109984	-1.197905	99
Es	0.306954	0.437197	0.612567	99
Es	2.431661	-0.823957	0.027368	99
Es	2.626221	1.329215	0.172234	99
Es	-0.660618	0.450331	-0.055768	99
Es	2.057776	-0.188116	-0.091175	99
Es	-2.444500	-0.295011	-0.372731	99
Es	-2.674337	-0.901379	-0.743582	99
Es	-0.681330	1.104837	1.014734	99
Es	-0.939868	-0.153951	-0.475844	99
Es	-0.427361	-1.299240	0.567499	99
Es	-0.541697	-0.790402	-0.088675	99
Es	2.559267	0.501899	0.144832	99
Es	0.013462	-1.649938	-0.051457	99
Es	-0.020100	1.528046	0.072866	99
Es	-1.703877	-0.220763	-0.430017	99
Es	-2.665483	-0.347488	0.334237	99
Es	2.908632	0.886101	0.607200	99
Es	0.258110	-0.807584	0.486605	99
Es	2.893399	0.896116	0.302448	99
Es	-0.275279	0.907735	0.424768	99
Es	1.907851	-0.131096	-0.833288	99
Es	0.772991	-0.183347	0.740340	99
Es	0.948158	-0.238621	1.471263	99
Es	3.141092	0.885784	0.123860	99
46
Properties=species:S:1:pos:R:3:Z:I:1 energy=-325.1271964843307 field_type=dipole dipole="0.000000 0.000000 0.000000" charge=0
C	-2.444499	-0.295023	-0.372707	6
C	-0.939929	-0.153873	-0.475937	6
C	-0.275309	0.907767	0.424793	6
C	0.773101	-0.183273	0.740433	6
C	2.057662	-0.188303	-0.091247	6
O	2.893651	0.896087	0.302573	8
N	-0.225469	-1.192563	0.298233	7
H	-2.790169	-1.182943	-0.912767	1
H	-2.940218	0.575747	-0.814417	1
H	-2.779948	-0.378483	0.667013	1
H	-0.607419	-0.094563	-1.520777	1
H	-0.870209	1.208767	1.295703	1
H	0.083342	1.805597	-0.085357	1
H	1.007761	-0.262633	1.809153	1
H	1.864481	-0.101423	-1.165667	1
H	2.617131	-1.113773	0.079003	1
H	2.435411	1.721967	0.072203	1
H	0.140622	-1.969073	-0.250227	1
Es	1.406294	-0.180150	0.309544	99
Es	3.144067	0.885039	0.129865	99
Es	2.627963	1.329079	0.167805	99
Es	2.893354	0.896104	0.302441	99
Es	-2.778306	0.303477	-0.678004	99
Es	-0.020260	1.528077	0.072885	99
Es	-2.444497	-0.295014	-0.372730	99
Es	0.948186	-0.238609	1.471190	99
Es	2.560640	0.500788	0.143096	99
Es	0.258356	-0.807421	0.486412	99
Es	0.307082	0.437148	0.612559	99
Es	-1.703900	-0.220724	-0.430251	99
Es	2.431635	-0.823921	0.027310	99
Es	-0.542603	-0.790644	-0.088201	99
Es	2.902631	0.888094	0.607377	99
Es	2.057772	-0.188122	-0.091177	99
Es	1.907829	-0.131085	-0.833289	99
Es	-2.674598	-0.901356	-0.743665	99
Es	-0.275279	0.907735	0.424768	99
Es	-0.681125	1.104810	1.014720	99
Es	0.013322	-1.649746	-0.051694	99
Es	0.772990	-0.183348	0.740339	99
Es	-0.708939	-0.109932	-1.197746	99
Es	-0.225136	-1.192357	0.297791	99
Es	-2.665371	-0.347500	0.334170	99
Es	-0.660751	0.450313	-0.055687	99
Es	-0.939868	-0.153949	-0.475843	99
Es	-0.426602	-1.299494	0.567425	99
46
Properties=species:S:1:pos:R:3:Z:I:1 energy=-325.1271964843307 field_type=dipole dipole="0.000000 0.000000 0.000000" charge=0
C	-2.444499	-0.295023	-0.372707	6
C	-0.939929	-0.153873	-0.475937	6
C	-0.275309	0.907767	0.424793	6
C	0.773101	-0.183273	0.740433	6
C	2.057662	-0.188303	-0.091247	6
O	2.893651	0.896087	0.302573	8
N	-0.225469	-1.192563	0.298233	7
H	-2.790169	-1.182943	-0.912767	1
H	-2.940218	0.575747	-0.814417	1
H	-2.779948	-0.378483	0.667013	1
H	-0.607419	-0.094563	-1.520777	1
H	-0.870209	1.208767	1.295703	1
H	0.083342	1.805597	-0.085357	1
H	1.007761	-0.262633	1.809153	1
H	1.864481	-0.101423	-1.165667	1
H	2.617131	-1.113773	0.079003	1
H	2.435411	1.721967	0.072203	1
H	0.140622	-1.969073	-0.250227	1
Es	-2.674583	-0.901408	-0.743655	99
Es	-2.665386	-0.347450	0.334161	99
Es	1.406274	-0.180287	0.309697	99
Es	-0.660828	0.450468	-0.055911	99
Es	0.013199	-1.650044	-0.051330	99
Es	-0.225126	-1.192341	0.297776	99
Es	-0.542490	-0.790483	-0.088392	99
Es	2.626924	1.329666	0.171068	99
Es	-2.778341	0.303378	-0.677992	99
Es	-2.444499	-0.295013	-0.372732	99
Es	-0.939868	-0.153950	-0.475843	99
Es	-0.275279	0.907735	0.424768	99
Es	-0.681131	1.104800	1.014657	99
Es	3.141565	0.885526	0.126076	99
Es	0.258405	-0.807646	0.486574	99
Es	2.431744	-0.823880	0.027178	99
Es	2.893316	0.896117	0.302479	99
Es	0.948191	-0.238596	1.471147	99
Es	-0.426519	-1.299185	0.567162	99
Es	2.559771	0.501773	0.143637	99
Es	2.057774	-0.188119	-0.091176	99
Es	2.907018	0.886115	0.607315	99
Es	0.307107	0.437251	0.612602	99
Es	1.907767	-0.131071	-0.833211	99
Es	-1.703803	-0.220742	-0.430277	99
Es	-0.709034	-0.110038	-1.197714	99
Es	0.772991	-0.183347	0.740341	99
Es	-0.020278	1.528064	0.073005	99
46
Properties=species:S:1:pos:R:3:Z:I:1 energy=-325.1271964843307 field_type=dipole dipole="0.000000 0.000000 0.000000" charge=0
C	-2.444499	-0.295023	-0.372707	6
C	-0.939929	-0.153873	-0.475937	6
C	-0.275309	0.907767	0.424793	6
C	0.773101	-0.183273	0.740433	6
C	2.057662	-0.188303	-0.091247	6
O	2.893651	0.896087	0.302573	8
N	-0.225469	-1.192563	0.298233	7
H	-2.790169	-1.182943	-0.912767	1
H	-2.940218	0.575747	-0.814417	1
H	-2.779948	-0.378483	0.667013	1
H	-0.607419	-0.094563	-1.520777	1
H	-0.870209	1.208767	1.295703	1
H	0.083342	1.805597	-0.085357	1
H	1.007761	-0.262633	1.809153	1
H	1.864481	-0.101423	-1.165667	1
H	2.617131	-1.113773	0.079003	1
H	2.435411	1.721967	0.072203	1
H	0.140622	-1.969073	-0.250227	1
Es	1.406267	-0.180230	0.309714	99
Es	-0.709113	-0.110047	-1.197736	99
Es	-2.674607	-0.901365	-0.743583	99
Es	-0.939868	-0.153950	-0.475843	99
Es	2.893206	0.896124	0.302554	99
Es	-0.225152	-1.192355	0.297819	99
Es	-2.444498	-0.295013	-0.372731	99
Es	-0.542834	-0.790506	-0.088364	99
Es	-0.275279	0.907734	0.424767	99
Es	-0.020352	1.527945	0.073018	99
Es	0.948121	-0.238568	1.471093	99
Es	-0.681096	1.104916	1.014602	99
Es	0.772989	-0.183348	0.740341	99
Es	-0.426203	-1.299326	0.566598	99
Es	2.431633	-0.823883	0.027233	99
Es	1.907851	-0.131137	-0.833205	99
Es	0.258412	-0.807628	0.487041	99
Es	2.906436	0.886700	0.607841	99
Es	-2.778338	0.303422	-0.678049	99
Es	2.627734	1.329622	0.169734	99
Es	2.057776	-0.188117	-0.091175	99
Es	0.307271	0.437332	0.612667	99
Es	-2.665380	-0.347443	0.334164	99
Es	3.141233	0.885426	0.127508	99
Es	-1.703691	-0.220834	-0.430286	99
Es	-0.660915	0.450484	-0.055933	99
Es	0.013198	-1.649951	-0.051294	99
Es	2.560087	0.501288	0.142914	99
46
Properties=species:S:1:pos:R:3:Z:I:1 energy=-325.1271964843307 field_type=dipole dipole="0.000000 0.000000 0.000000" charge=0
C	-2.444499	-0.295023	-0.372707	6
C	-0.939929	-0.153873	-0.475937	6
C	-0.275309	0.907767	0.424793	6
C	0.773101	-0.183273	0.740433	6
C	2.057662	-0.188303	-0.091247	6
O	2.893651	0.896087	0.302573	8
N	-0.225469	-1.192563	0.298233	7
H	-2.790169	-1.182943	-0.912767	1
H	-2.940218	0.575747	-0.814417	1
H	-2.779948	-0.378483	0.667013	1
H	-0.607419	-0.094563	-1.520777	1
H	-0.870209	1.208767	1.295703	1
H	0.083342	1.805597	-0.085357	1
H	1.007761	-0.262633	1.809153	1
H	1.864481	-0.101423	-1.165667	1
H	2.617131	-1.113773	0.079003	1
H	2.435411	1.721967	0.072203	1
H	0.140622	-1.969073	-0.250227	1
Es	2.909618	0.886967	0.607660	99
Es	-1.703733	-0.220863	-0.430370	99
Es	-0.426204	-1.299270	0.566242	99
Es	-0.709092	-0.110014	-1.197623	99
Es	-0.939868	-0.153950	-0.475843	99
Es	0.772992	-0.183345	0.740342	99
Es	2.431606	-0.823902	0.027236	99
Es	-0.275278	0.907735	0.424768	99
Es	1.406260	-0.180220	0.309705	99
Es	-0.020363	1.527965	0.073023	99
Es	-0.681133	1.104922	1.014479	99
Es	-2.674635	-0.901431	-0.743570	99
Es	-0.542830	-0.790646	-0.088457	99
Es	-0.225144	-1.192341	0.297785	99
Es	1.907858	-0.131147	-0.833188	99
Es	0.948158	-0.238609	1.470986	99
Es	2.893367	0.896117	0.302433	99
Es	-2.444503	-0.295013	-0.372731	99
Es	3.139413	0.885859	0.124742	99
Es	0.307251	0.437400	0.612849	99
Es	2.626845	1.329294	0.170989	99
Es	0.258574	-0.807617	0.487337	99
Es	2.559460	0.500965	0.144764	99
Es	-2.665384	-0.347352	0.334157	99
Es	-0.660892	0.450515	-0.055898	99
Es	2.057774	-0.188120	-0.091176	99
Es	0.013058	-1.650005	-0.051155	99
Es	-2.778289	0.303398	-0.678073	99
46
Properties=species:S:1:pos:R:3:Z:I:1 energy=-325.1271964843307 field_type=dipole dipole="0.000000 0.000000 0.000000" charge=0
C	-2.444499	-0.295023	-0.372707	6
C	-0.939929	-0.153873	-0.475937	6
C	-0.275309	0.907767	0.424793	6
C	0.773101	-0.183273	0.740433	6
C	2.057662	-0.188303	-0.091247	6
O	2.893651	0.896087	0.302573	8
N	-0.225469	-1.192563	0.298233	7
H	-2.790169	-1.182943	-0.912767	1
H	-2.940218	0.575747	-0.814417	1
H	-2.779948	-0.378483	0.667013	1
H	-0.607419	-0.094563	-1.520777	1
H	-0.870209	1.208767	1.295703	1
H	0.083342	1.805597	-0.085357	1
H	1.007761	-0.262633	1.809153	1
H	1.864481	-0.101423	-1.165667	1
H	2.617131	-1.113773	0.079003	1
H	2.435411	1.721967	0.072203	1
H	0.140622	-1.969073	-0.250227	1
Es	0.772991	-0.183347	0.740341	99
Es	-2.674694	-0.901329	-0.743667	99
Es	2.431571	-0.823887	0.027255	99
Es	-0.020361	1.527871	0.073149	99
Es	-0.661008	0.450652	-0.055999	99
Es	-0.275278	0.907734	0.424766	99
Es	1.406236	-0.180362	0.309723	99
Es	2.627829	1.329674	0.169610	99
Es	-0.681030	1.104982	1.014489	99
Es	2.559864	0.500981	0.143559	99
Es	-0.709139	-0.110011	-1.197555	99
Es	-0.939868	-0.153949	-0.475843	99
Es	-2.665396	-0.347469	0.334148	99
Es	-0.225135	-1.192334	0.297792	99
Es	-2.778300	0.303382	-0.677923	99
Es	2.905494	0.887239	0.606964	99
Es	-2.444500	-0.295013	-0.372731	99
Es	-0.543575	-0.790562	-0.088217	99
Es	2.893363	0.896109	0.302355	99
Es	1.907850	-0.131186	-0.833189	99
Es	-1.703645	-0.220790	-0.430444	99
Es	2.057775	-0.188119	-0.091176	99
Es	0.013150	-1.649549	-0.051388	99
Es	0.307372	0.437439	0.612743	99
Es	0.948192	-0.238632	1.470982	99
Es	-0.425598	-1.299831	0.566004	99
Es	0.258551	-0.807637	0.487559	99
Es	3.142177	0.885240	0.128105	99
46
Properties=species:S:1:pos:R:3:Z:I:1 energy=-325.1271964843307 field_type=dipole dipole="0.000000 0.000000 0.000000" charge=0
C	-2.444499	-0.295023	-0.372707	6
C	-0.939929	-0.153873	-0.475937	6
C	-0.275309	0.907767	0.424793	6
C	0.773101	-0.183273	0.740433	6
C	2.057662	-0.188303	-0.091247	6
O	2.893651	0.896087	0.302573	8
N	-0.225469	-1.192563	0.298233	7
H	-2.790169	-1.182943	-0.912767	1
H	-2.940218	0.575747	-0.814417	1
H	-2.779948	-0.378483	0.667013	1
H	-0.607419	-0.094563	-1.520777	1
H	-0.870209	1.208767	1.295703	1
H	0.083342	1.805597	-0.085357	1
H	1.007761	-0.262633	1.809153	1
H	1.864481	-0.101423	-1.165667	1
H	2.617131	-1.113773	0.079003	1
H	2.435411	1.721967	0.072203	1
H	0.140622	-1.969073	-0.250227	1
Es	-2.674732	-0.901373	-0.743576	99
Es	2.893324	0.896119	0.302324	99
Es	2.560331	0.500972	0.142324	99
Es	1.406233	-0.180280	0.309749	99
Es	-0.661048	0.450487	-0.056126	99
Es	0.258538	-0.807836	0.487368	99
Es	2.902741	0.887228	0.606591	99
Es	2.431532	-0.823833	0.027301	99
Es	-0.543023	-0.790618	-0.088535	99
Es	-0.020451	1.527877	0.073217	99
Es	-0.225137	-1.192341	0.297791	99
Es	2.628310	1.329751	0.168990	99
Es	-2.778328	0.303352	-0.677954	99
Es	-0.709108	-0.109955	-1.197505	99
Es	3.144044	0.885206	0.130335	99
Es	0.948193	-0.238631	1.470797	99
Es	-0.681007	1.104964	1.014410	99
Es	0.013009	-1.650082	-0.051007	99
Es	0.307384	0.437637	0.612965	99
Es	-0.939869	-0.153949	-0.475844	99
Es	2.057774	-0.188119	-0.091177	99
Es	-2.665338	-0.347389	0.334148	99
Es	-1.703669	-0.220782	-0.430544	99
Es	0.772990	-0.183346	0.740341	99
Es	-0.275277	0.907729	0.424765	99
Es	-0.425942	-1.299198	0.566184	99
Es	1.907912	-0.131287	-0.833191	99
Es	-2.444502	-0.295010	-0.372733	99
46
Properties=species:S:1:pos:R:3:Z:I:1 energy=-325.1271964843307 field_type=dipole dipole="0.000000 0.000000 0.000000" charge=0
C	-2.444499	-0.295023	-0.372707	6
C	-0.939929	-0.153873	-0.475937	6
C	-0.275309	0.907767	0.424793	6
C	0.773101	-0.183273	0.740433	6
C	2.057662	-0.188303	-0.091247	6
O	2.893651	0.896087	0.302573	8
N	-0.225469	-1.192563	0.298233	7
H	-2.790169	-1.182943	-0.912767	1
H	-2.940218	0.575747	-0.814417	1
H	-2.779948	-0.378483	0.667013	1
H	-0.607419	-0.094563	-1.520777	1
H	-0.870209	1.208767	1.295703	1
H	0.083342	1.805597	-0.085357	1
H	1.007761	-0.262633	1.809153	1
H	1.864481	-0.101423	-1.165667	1
H	2.617131	-1.113773	0.079003	1
H	2.435411	1.721967	0.072203	1
H	0.140622	-1.969073	-0.250227	1
Es	3.142727	0.885331	0.129373	99
Es	-0.425910	-1.299258	0.565981	99
Es	-2.444499	-0.295013	-0.372732	99
Es	2.431542	-0.823872	0.027222	99
Es	0.307516	0.437688	0.612995	99
Es	-0.660867	0.450632	-0.056153	99
Es	-0.681056	1.105032	1.014399	99
Es	-0.020574	1.527789	0.073150	99
Es	-2.674715	-0.901315	-0.743648	99
Es	-2.778263	0.303412	-0.677954	99
Es	2.628156	1.329878	0.169317	99
Es	-0.709307	-0.110114	-1.197450	99
Es	-0.939877	-0.153949	-0.475845	99
Es	0.258694	-0.807892	0.487530	99
Es	2.893347	0.896120	0.302423	99
Es	0.948254	-0.238603	1.470789	99
Es	-0.275279	0.907735	0.424769	99
Es	-0.225135	-1.192344	0.297790	99
Es	-1.703651	-0.220866	-0.430437	99
Es	1.907852	-0.131199	-0.833172	99
Es	0.772985	-0.183344	0.740341	99
Es	2.904389	0.887260	0.606616	99
Es	-2.665387	-0.347450	0.334179	99
Es	1.406212	-0.180257	0.309780	99
Es	-0.543070	-0.790660	-0.088631	99
Es	0.012889	-1.649996	-0.050919	99
Es	2.057772	-0.188120	-0.091176	99
Es	2.560144	0.500667	0.142875	99
46
Properties=species:S:1:pos:R:3:Z:I:1 energy=-325.1271964843307 field_type=dipole dipole="0.000000 0.000000 0.000000" charge=0
C	-2.444499	-0.295023	-0.372707	6
C	-0.939929	-0.153873	-0.475937	6
C	-0.275309	0.907767	0.424793	6
C	0.773101	-0.183273	0.740433	6
C	2.057662	-0.188303	-0.091247	6
O	2.893651	0.896087	0.302573	8
N	-0.225469	-1.192563	0.298233	7
H	-2.790169	-1.182943	-0.912767	1
H	-2.940218	0.575747	-0.814417	1
H	-2.779948	-0.378483	0.667013	1
H	-0.607419	-0.094563	-1.520777	1
H	-0.870209	1.208767	1.295703	1
H	0.083342	1.805597	-0.085357	1
H	1.007761	-0.262633	1.809153	1
H	1.864481	-0.101423	-1.165667	1
H	2.617131	-1.113773	0.079003	1
H	2.435411	1.721967	0.072203	1
H	0.140622	-1.969073	-0.250227	1
Es	0.012862	-1.650006	-0.050899	99
Es	-0.680933	1.105067	1.014346	99
Es	2.627853	1.330303	0.170364	99
Es	3.139902	0.885462	0.127274	99
Es	-0.020540	1.527761	0.073259	99
Es	-0.939869	-0.153949	-0.475844	99
Es	0.772991	-0.183347	0.740340	99
Es	-0.225163	-1.192361	0.297834	99
Es	-2.778400	0.303354	-0.677991	99
Es	-2.674644	-0.901328	-0.743554	99
Es	2.559680	0.500699	0.143639	99
Es	-0.709223	-0.110009	-1.197352	99
Es	1.907863	-0.131240	-0.833101	99
Es	1.406213	-0.180291	0.309871	99
Es	0.948203	-0.238607	1.470719	99
Es	2.057774	-0.188121	-0.091177	99
Es	-0.661120	0.450722	-0.056132	99
Es	-0.543415	-0.790758	-0.088560	99
Es	2.907985	0.886772	0.606895	99
Es	-2.665387	-0.347462	0.334127	99
Es	-2.444501	-0.295012	-0.372730	99
Es	0.307529	0.437637	0.613006	99
Es	-0.275277	0.907728	0.424765	99
Es	2.431538	-0.823850	0.027167	99
Es	-0.425561	-1.299251	0.565887	99
Es	0.258749	-0.807900	0.487445	99
Es	2.893371	0.896073	0.302406	99
Es	-1.703596	-0.220792	-0.430593	99
46
Properties=species:S:1:pos:R:3:Z:I:1 energy=-325.1271964843307 field_type=dipole dipole="0.000000 0.000000 0.000000" charge=0
C	-2.444499	-0.295023	-0.372707	6
C	-0.939929	-0.153873	-0.475937	6
C	-0.275309	0.907767	0.424793	6
C	0.773101	-0.183273	0.740433	6
C	2.057662	-0.188303	-0.091247	6
O	2.893651	0.896087	0.302573	8
N	-0.225469	-1.192563	0.298233	7
H	-2.790169	-1.182943	-0.912767	1
H	-2.940218	0.575747	-0.814417	1
H	-2.779948	-0.378483	0.667013	1
H	-0.607419	-0.094563	-1.520777	1
H	-0.870209	1.208767	1.295703	1
H	0.083342	1.805597	-0.085357	1
H	1.007761	-0.262633	1.809153	1
H	1.864481	-0.101423	-1.165667	1
H	2.617131	-1.113773	0.079003	1
H	2.435411	1.721967	0.072203	1
H	0.140622	-1.969073	-0.250227	1
Es	2.905990	0.886991	0.606377	99
Es	-0.680913	1.105140	1.014259	99
Es	2.893307	0.896150	0.302433	99
Es	2.431544	-0.823846	0.027127	99
Es	-0.709221	-0.110019	-1.197331	99
Es	0.307555	0.437600	0.613109	99
Es	2.559950	0.500558	0.143246	99
Es	-2.444500	-0.295013	-0.372733	99
Es	-0.225154	-1.192355	0.297809	99
Es	-0.543497	-0.790750	-0.088506	99
Es	-2.674713	-0.901326	-0.743568	99
Es	2.627801	1.329975	0.170207	99
Es	-2.778322	0.303392	-0.677983	99
Es	-0.425683	-1.299915	0.565023	99
Es	-0.275278	0.907734	0.424767	99
Es	0.013185	-1.649451	-0.051143	99
Es	-2.665414	-0.347427	0.334096	99
Es	-0.939870	-0.153949	-0.475843	99
Es	-0.020516	1.527706	0.073296	99
Es	3.141748	0.885645	0.128331	99
Es	1.406179	-0.180312	0.309881	99
Es	0.772994	-0.183345	0.740342	99
Es	1.907866	-0.131225	-0.833075	99
Es	2.057768	-0.188128	-0.091179	99
Es	0.258608	-0.807868	0.488581	99
Es	-0.661210	0.450803	-0.056177	99
Es	-1.703556	-0.220862	-0.430593	99
Es	0.948238	-0.238612	1.470657	99
46
Properties=species:S:1:pos:R:3:Z:I:1 energy=-325.1271964843307 field_type=dipole dipole="0.000000 0.000000 0.000000" charge=0
C	-2.444499	-0.295023	-0.372707	6
C	-0.939929	-0.153873	-0.475937	6
C	-0.275309	0.907767	0.424793	6
C	0.773101	-0.183273	0.740433	6
C	2.057662	-0.188303	-0.091247	6
O	2.893651	0.896087	0.302573	8
N	-0.225469	-1.192563	0.298233	7
H	-2.790169	-1.182943	-0.912767	1
H	-2.940218	0.575747	-0.814417	1
H	-2.779948	-0.378483	0.667013	1
H	-0.607419	-0.094563	-1.520777	1
H	-0.870209	1.208767	1.295703	1
H	0.083342	1.805597	-0.085357	1
H	1.007761	-0.262633	1.809153	1
H	1.864481	-0.101423	-1.165667	1
H	2.617131	-1.113773	0.079003	1
H	2.435411	1.721967	0.072203	1
H	0.140622	-1.969073	-0.250227	1
Es	-0.543312	-0.790771	-0.088874	99
Es	0.012656	-1.650264	-0.050509	99
Es	-2.665430	-0.347335	0.334090	99
Es	0.258883	-0.808051	0.487925	99
Es	-0.275277	0.907734	0.424766	99
Es	-0.425594	-1.298968	0.565356	99
Es	-2.444500	-0.295013	-0.372732	99
Es	-0.661150	0.450866	-0.056280	99
Es	-0.939870	-0.153947	-0.475843	99
Es	-2.778346	0.303337	-0.678075	99
Es	2.906878	0.886451	0.606701	99
Es	0.948246	-0.238615	1.470588	99
Es	-2.674694	-0.901372	-0.743469	99
Es	2.560451	0.500338	0.142541	99
Es	3.140852	0.886564	0.127866	99
Es	2.431522	-0.823864	0.027146	99
Es	2.057773	-0.188124	-0.091178	99
Es	1.907900	-0.131262	-0.833040	99
Es	-0.020576	1.527723	0.073417	99
Es	2.627299	1.329840	0.171039	99
Es	0.772991	-0.183345	0.740342	99
Es	2.893329	0.896151	0.302440	99
Es	-0.225132	-1.192343	0.297797	99
Es	1.406144	-0.180288	0.309879	99
Es	-1.703567	-0.220874	-0.430594	99
Es	-0.709279	-0.110046	-1.197255	99
Es	-0.680903	1.105075	1.014239	99
Es	0.307593	0.437695	0.613126	99
