39
Properties=species:S:1:pos:R:3:Z:I:1 energy=-338.750601713586 field_type=dipole dipole="0.000000 0.000000 0.000000" charge=0
C	-1.744174	0.164542	0.093009	6
C	-0.268504	0.222962	0.080479	6
C	0.628886	1.263972	-0.037561	6
C	1.899746	0.649132	-0.036451	6
N	1.811285	-0.684918	0.058689	7
N	0.502226	-0.888668	0.195139	7
O	0.039226	-2.180038	0.265539	8
H	-2.177034	1.168062	0.103129	1
H	-2.104144	-0.372058	0.975419	1
H	-2.108864	-0.354888	-0.798861	1
H	0.400876	2.319652	-0.129211	1
H	2.878626	1.111102	-0.118531	1
H	0.241846	-2.418858	-0.650791	1
Es	-0.993910	0.191255	0.091099	99
Es	0.141791	-2.308634	-0.221093	99
Es	2.045834	-0.974336	0.059498	99
Es	-0.270366	-2.154439	0.299448	99
Es	0.315888	0.831502	0.301980	99
Es	-1.974088	-0.185689	-0.507619	99
Es	1.829854	-0.103254	0.288119	99
Es	1.285398	1.014209	-0.031554	99
Es	-1.973087	-0.194428	0.683161	99
Es	0.039342	-2.179850	0.265249	99
Es	0.502190	-0.888783	0.195043	99
Es	2.556029	0.970240	-0.093728	99
Es	1.123417	-0.805394	0.122921	99
Es	0.231816	-2.324490	0.451752	99
Es	0.475293	1.976255	-0.098343	99
Es	1.787369	-0.142638	-0.255482	99
Es	1.899766	0.649054	-0.036448	99
Es	0.628877	1.263990	-0.037557	99
Es	-2.025087	0.843180	0.098022	99
Es	0.320822	0.780612	-0.286633	99
Es	0.251390	-1.586117	0.227236	99
Es	0.353981	-0.549057	0.448140	99
Es	-0.268495	0.222738	0.080520	99
Es	-1.744087	0.164548	0.093001	99
Es	0.255873	-0.537556	-0.099772	99
Es	1.810801	-0.684518	0.058692	99
39
Properties=species:S:1:pos:R:3:Z:I:1 energy=-338.750601713586 field_type=dipole dipole="0.000000 0.000000 0.000000" charge=0
C	-1.744174	0.164542	0.093009	6
C	-0.268504	0.222962	0.080479	6
C	0.628886	1.263972	-0.037561	6
C	1.899746	0.649132	-0.036451	6
N	1.811285	-0.684918	0.058689	7
N	0.502226	-0.888668	0.195139	7
O	0.039226	-2.180038	0.265539	8
H	-2.177034	1.168062	0.103129	1
H	-2.104144	-0.372058	0.975419	1
H	-2.108864	-0.354888	-0.798861	1
H	0.400876	2.319652	-0.129211	1
H	2.878626	1.111102	-0.118531	1
H	0.241846	-2.418858	-0.650791	1
Es	-1.974073	-0.185739	-0.507760	99
Es	0.252420	-0.535415	-0.098497	99
Es	-0.268497	0.222733	0.080524	99
Es	-2.024987	0.843140	0.098010	99
Es	2.556015	0.970213	-0.093641	99
Es	1.810795	-0.684512	0.058687	99
Es	1.787574	-0.142433	-0.255761	99
Es	-0.994118	0.191303	0.091201	99
Es	0.251935	-1.586244	0.227286	99
Es	0.039296	-2.179882	0.265286	99
Es	-1.744087	0.164547	0.093001	99
Es	0.142536	-2.309119	-0.220872	99
Es	0.316679	0.831386	0.302419	99
Es	1.829907	-0.102969	0.287996	99
Es	1.285301	1.014279	-0.032112	99
Es	0.357877	-0.551354	0.447805	99
Es	0.628875	1.263988	-0.037554	99
Es	0.230160	-2.324974	0.453283	99
Es	2.045767	-0.974132	0.059905	99
Es	0.319844	0.780275	-0.286218	99
Es	-0.269969	-2.153353	0.297525	99
Es	-1.973136	-0.194360	0.683199	99
Es	0.502199	-0.888796	0.194948	99
Es	1.123286	-0.805512	0.121958	99
Es	0.475247	1.976274	-0.098512	99
Es	1.899766	0.649054	-0.036450	99
39
Properties=species:S:1:pos:R:3:Z:I:1 energy=-338.750601713586 field_type=dipole dipole="0.000000 0.000000 0.000000" charge=0
C	-1.744174	0.164542	0.093009	6
C	-0.268504	0.222962	0.080479	6
C	0.628886	1.263972	-0.037561	6
C	1.899746	0.649132	-0.036451	6
N	1.811285	-0.684918	0.058689	7
N	0.502226	-0.888668	0.195139	7
O	0.039226	-2.180038	0.265539	8
H	-2.177034	1.168062	0.103129	1
H	-2.104144	-0.372058	0.975419	1
H	-2.108864	-0.354888	-0.798861	1
H	0.400876	2.319652	-0.129211	1
H	2.878626	1.111102	-0.118531	1
H	0.241846	-2.418858	-0.650791	1
Es	0.039367	-2.179849	0.265251	99
Es	0.628875	1.263978	-0.037604	99
Es	1.829980	-0.102725	0.287835	99
Es	1.123283	-0.805499	0.122153	99
Es	0.502185	-0.888775	0.194887	99
Es	1.899766	0.649053	-0.036443	99
Es	1.810797	-0.684521	0.058696	99
Es	-1.744088	0.164546	0.093002	99
Es	2.556170	0.970140	-0.093790	99
Es	0.322329	0.780265	-0.287091	99
Es	0.357078	-0.551077	0.447609	99
Es	0.314542	0.830749	0.301511	99
Es	0.251425	-1.585832	0.227321	99
Es	-1.974067	-0.185715	-0.507725	99
Es	-1.973039	-0.194452	0.683145	99
Es	1.285215	1.014522	-0.030536	99
Es	-0.994274	0.191427	0.091154	99
Es	-2.025088	0.843182	0.098089	99
Es	-0.268495	0.222736	0.080527	99
Es	2.045945	-0.974164	0.059545	99
Es	-0.269098	-2.154180	0.299578	99
Es	0.253112	-0.535738	-0.098513	99
Es	0.475164	1.976336	-0.098180	99
Es	0.140599	-2.308762	-0.221423	99
Es	0.231604	-2.325020	0.451914	99
Es	1.787324	-0.142226	-0.255261	99
39
Properties=species:S:1:pos:R:3:Z:I:1 energy=-338.750601713586 field_type=dipole dipole="0.000000 0.000000 0.000000" charge=0
C	-1.744174	0.164542	0.093009	6
C	-0.268504	0.222962	0.080479	6
C	0.628886	1.263972	-0.037561	6
C	1.899746	0.649132	-0.036451	6
N	1.811285	-0.684918	0.058689	7
N	0.502226	-0.888668	0.195139	7
O	0.039226	-2.180038	0.265539	8
H	-2.177034	1.168062	0.103129	1
H	-2.104144	-0.372058	0.975419	1
H	-2.108864	-0.354888	-0.798861	1
H	0.400876	2.319652	-0.129211	1
H	2.878626	1.111102	-0.118531	1
H	0.241846	-2.418858	-0.650791	1
Es	-2.025016	0.843160	0.097941	99
Es	0.628870	1.263979	-0.037583	99
Es	-1.744088	0.164547	0.093001	99
Es	-1.974040	-0.185818	-0.507737	99
Es	-1.973115	-0.194324	0.683236	99
Es	-0.994409	0.191486	0.091205	99
Es	1.285200	1.014612	-0.032243	99
Es	1.899766	0.649053	-0.036444	99
Es	0.253807	-0.536241	-0.098637	99
Es	0.474989	1.976274	-0.098338	99
Es	0.316358	0.830705	0.302312	99
Es	1.123331	-0.805800	0.122380	99
Es	0.356405	-0.550679	0.447406	99
Es	0.141826	-2.309162	-0.221087	99
Es	0.230603	-2.324760	0.452467	99
Es	1.830024	-0.102599	0.287815	99
Es	0.251497	-1.585866	0.227560	99
Es	0.320678	0.779941	-0.286188	99
Es	1.787279	-0.141952	-0.255101	99
Es	2.046121	-0.973860	0.059425	99
Es	0.039371	-2.179839	0.265222	99
Es	2.556178	0.970096	-0.093781	99
Es	0.502153	-0.888721	0.195001	99
Es	-0.269469	-2.154054	0.298586	99
Es	1.810786	-0.684514	0.058711	99
Es	-0.268496	0.222736	0.080522	99
39
Properties=species:S:1:pos:R:3:Z:I:1 energy=-338.750601713586 field_type=dipole dipole="0.000000 0.000000 0.000000" charge=0
C	-1.744174	0.164542	0.093009	6
C	-0.268504	0.222962	0.080479	6
C	0.628886	1.263972	-0.037561	6
C	1.899746	0.649132	-0.036451	6
N	1.811285	-0.684918	0.058689	7
N	0.502226	-0.888668	0.195139	7
O	0.039226	-2.180038	0.265539	8
H	-2.177034	1.168062	0.103129	1
H	-2.104144	-0.372058	0.975419	1
H	-2.108864	-0.354888	-0.798861	1
H	0.400876	2.319652	-0.129211	1
H	2.878626	1.111102	-0.118531	1
H	0.241846	-2.418858	-0.650791	1
Es	-0.994510	0.191433	0.091209	99
Es	0.230481	-2.324654	0.452176	99
Es	2.046133	-0.973877	0.059638	99
Es	-0.268927	-2.154349	0.298831	99
Es	0.255120	-0.536968	-0.098752	99
Es	-1.974046	-0.185747	-0.507735	99
Es	1.810783	-0.684511	0.058685	99
Es	2.556263	0.970053	-0.093710	99
Es	1.787373	-0.141763	-0.255248	99
Es	-1.744088	0.164547	0.093001	99
Es	-1.973169	-0.194367	0.683220	99
Es	1.123303	-0.805581	0.122796	99
Es	1.285148	1.014724	-0.030766	99
Es	-0.268499	0.222734	0.080520	99
Es	0.141540	-2.309354	-0.221223	99
Es	0.314753	0.830432	0.301758	99
Es	1.830086	-0.102447	0.287341	99
Es	-2.024963	0.843201	0.097961	99
Es	0.502198	-0.888798	0.194976	99
Es	0.322277	0.779766	-0.286744	99
Es	0.251350	-1.585563	0.227754	99
Es	0.039387	-2.179824	0.265259	99
Es	0.475096	1.976286	-0.098465	99
Es	1.899766	0.649055	-0.036444	99
Es	0.628874	1.263980	-0.037596	99
Es	0.354881	-0.550003	0.447213	99
39
Properties=species:S:1:pos:R:3:Z:I:1 energy=-338.750601713586 field_type=dipole dipole="0.000000 0.000000 0.000000" charge=0
C	-1.744174	0.164542	0.093009	6
C	-0.268504	0.222962	0.080479	6
C	0.628886	1.263972	-0.037561	6
C	1.899746	0.649132	-0.036451	6
N	1.811285	-0.684918	0.058689	7
N	0.502226	-0.888668	0.195139	7
O	0.039226	-2.180038	0.265539	8
H	-2.177034	1.168062	0.103129	1
H	-2.104144	-0.372058	0.975419	1
H	-2.108864	-0.354888	-0.798861	1
H	0.400876	2.319652	-0.129211	1
H	2.878626	1.111102	-0.118531	1
H	0.241846	-2.418858	-0.650791	1
Es	-1.973073	-0.194383	0.683281	99
Es	-0.268913	-2.154438	0.298597	99
Es	0.502202	-0.888808	0.195000	99
Es	-2.024976	0.843260	0.097951	99
Es	-0.268491	0.222746	0.080515	99
Es	1.899767	0.649055	-0.036439	99
Es	1.810807	-0.684510	0.058694	99
Es	0.251110	-1.585450	0.227602	99
Es	1.284989	1.014809	-0.030400	99
Es	1.123328	-0.805735	0.122591	99
Es	0.324073	0.779975	-0.286808	99
Es	0.039409	-2.179842	0.265246	99
Es	1.787468	-0.141764	-0.255255	99
Es	-1.744088	0.164547	0.093001	99
Es	0.474983	1.976279	-0.098409	99
Es	2.556268	0.970113	-0.093726	99
Es	0.313371	0.829983	0.301647	99
Es	0.355803	-0.550658	0.446865	99
Es	1.830155	-0.102286	0.287404	99
Es	2.045988	-0.973751	0.059588	99
Es	0.230126	-2.324318	0.452397	99
Es	0.254198	-0.536310	-0.098502	99
Es	0.141987	-2.309748	-0.221040	99
Es	0.628875	1.263985	-0.037572	99
Es	-1.974021	-0.185809	-0.507743	99
Es	-0.994734	0.191458	0.091168	99
39
Properties=species:S:1:pos:R:3:Z:I:1 energy=-338.750601713586 field_type=dipole dipole="0.000000 0.000000 0.000000" charge=0
C	-1.744174	0.164542	0.093009	6
C	-0.268504	0.222962	0.080479	6
C	0.628886	1.263972	-0.037561	6
C	1.899746	0.649132	-0.036451	6
N	1.811285	-0.684918	0.058689	7
N	0.502226	-0.888668	0.195139	7
O	0.039226	-2.180038	0.265539	8
H	-2.177034	1.168062	0.103129	1
H	-2.104144	-0.372058	0.975419	1
H	-2.108864	-0.354888	-0.798861	1
H	0.400876	2.319652	-0.129211	1
H	2.878626	1.111102	-0.118531	1
H	0.241846	-2.418858	-0.650791	1
Es	-0.994774	0.191505	0.091224	99
Es	-1.744090	0.164548	0.093001	99
Es	2.046052	-0.973641	0.058944	99
Es	0.319726	0.778942	-0.286155	99
Es	1.787823	-0.140910	-0.254721	99
Es	0.251459	-1.585447	0.228060	99
Es	0.252848	-0.535608	-0.097753	99
Es	0.141808	-2.309643	-0.221121	99
Es	-2.024947	0.843260	0.097870	99
Es	0.357571	-0.551583	0.446797	99
Es	-0.268721	-2.154259	0.298411	99
Es	0.502197	-0.888798	0.195028	99
Es	0.475057	1.976279	-0.098506	99
Es	-1.974037	-0.185836	-0.507687	99
Es	0.628874	1.263984	-0.037548	99
Es	1.829928	-0.102173	0.287935	99
Es	0.317271	0.830466	0.302253	99
Es	1.899767	0.649055	-0.036446	99
Es	2.556305	0.970061	-0.093773	99
Es	-1.973152	-0.194309	0.683274	99
Es	1.123239	-0.805924	0.121760	99
Es	-0.268496	0.222736	0.080522	99
Es	0.229785	-2.324638	0.452300	99
Es	1.284964	1.014695	-0.031963	99
Es	1.810798	-0.684517	0.058695	99
Es	0.039359	-2.179846	0.265250	99
39
Properties=species:S:1:pos:R:3:Z:I:1 energy=-338.750601713586 field_type=dipole dipole="0.000000 0.000000 0.000000" charge=0
C	-1.744174	0.164542	0.093009	6
C	-0.268504	0.222962	0.080479	6
C	0.628886	1.263972	-0.037561	6
C	1.899746	0.649132	-0.036451	6
N	1.811285	-0.684918	0.058689	7
N	0.502226	-0.888668	0.195139	7
O	0.039226	-2.180038	0.265539	8
H	-2.177034	1.168062	0.103129	1
H	-2.104144	-0.372058	0.975419	1
H	-2.108864	-0.354888	-0.798861	1
H	0.400876	2.319652	-0.129211	1
H	2.878626	1.111102	-0.118531	1
H	0.241846	-2.418858	-0.650791	1
Es	1.810801	-0.684516	0.058691	99
Es	-0.994895	0.191658	0.091174	99
Es	0.251363	-1.585429	0.227688	99
Es	0.475111	1.976319	-0.098223	99
Es	0.502208	-0.888814	0.194985	99
Es	2.556369	0.970031	-0.093672	99
Es	0.356473	-0.551407	0.446240	99
Es	1.830605	-0.101587	0.286778	99
Es	0.628877	1.263988	-0.037564	99
Es	1.899765	0.649053	-0.036436	99
Es	0.328176	0.780298	-0.287558	99
Es	-1.974016	-0.185698	-0.507755	99
Es	0.309109	0.828733	0.300811	99
Es	1.284860	1.014980	-0.028769	99
Es	-0.268560	-2.154383	0.299079	99
Es	2.046144	-0.973425	0.059673	99
Es	0.229863	-2.324084	0.452080	99
Es	1.787197	-0.141552	-0.255237	99
Es	-1.744090	0.164546	0.093000	99
Es	0.039366	-2.179846	0.265240	99
Es	-1.973024	-0.194540	0.683185	99
Es	0.141625	-2.310130	-0.221220	99
Es	-0.268498	0.222734	0.080517	99
Es	0.253645	-0.535880	-0.098014	99
Es	1.123216	-0.805888	0.122859	99
Es	-2.025078	0.843242	0.098100	99
39
Properties=species:S:1:pos:R:3:Z:I:1 energy=-338.750601713586 field_type=dipole dipole="0.000000 0.000000 0.000000" charge=0
C	-1.744174	0.164542	0.093009	6
C	-0.268504	0.222962	0.080479	6
C	0.628886	1.263972	-0.037561	6
C	1.899746	0.649132	-0.036451	6
N	1.811285	-0.684918	0.058689	7
N	0.502226	-0.888668	0.195139	7
O	0.039226	-2.180038	0.265539	8
H	-2.177034	1.168062	0.103129	1
H	-2.104144	-0.372058	0.975419	1
H	-2.108864	-0.354888	-0.798861	1
H	0.400876	2.319652	-0.129211	1
H	2.878626	1.111102	-0.118531	1
H	0.241846	-2.418858	-0.650791	1
Es	1.830286	-0.101712	0.287328	99
Es	2.556357	0.970042	-0.093725	99
Es	0.039415	-2.179867	0.265259	99
Es	-2.025049	0.843206	0.098008	99
Es	0.474945	1.976301	-0.098364	99
Es	0.313590	0.829358	0.301572	99
Es	-1.972939	-0.194386	0.683300	99
Es	1.284816	1.014959	-0.030534	99
Es	0.358253	-0.552366	0.446137	99
Es	1.787681	-0.141041	-0.254808	99
Es	0.140235	-2.309414	-0.221649	99
Es	-0.268496	0.222737	0.080525	99
Es	0.323951	0.779321	-0.286666	99
Es	-1.744088	0.164547	0.093001	99
Es	-1.974100	-0.185881	-0.507743	99
Es	0.502201	-0.888804	0.194991	99
Es	0.628874	1.263983	-0.037572	99
Es	0.251950	-0.534871	-0.097373	99
Es	0.250816	-1.585050	0.228081	99
Es	2.046110	-0.973448	0.059268	99
Es	1.123159	-0.805959	0.121996	99
Es	0.231784	-2.323486	0.449273	99
Es	1.810800	-0.684517	0.058697	99
Es	-0.268661	-2.156100	0.301972	99
Es	-0.995046	0.191792	0.091120	99
Es	1.899767	0.649055	-0.036443	99
39
Properties=species:S:1:pos:R:3:Z:I:1 energy=-338.750601713586 field_type=dipole dipole="0.000000 0.000000 0.000000" charge=0
C	-1.744174	0.164542	0.093009	6
C	-0.268504	0.222962	0.080479	6
C	0.628886	1.263972	-0.037561	6
C	1.899746	0.649132	-0.036451	6
N	1.811285	-0.684918	0.058689	7
N	0.502226	-0.888668	0.195139	7
O	0.039226	-2.180038	0.265539	8
H	-2.177034	1.168062	0.103129	1
H	-2.104144	-0.372058	0.975419	1
H	-2.108864	-0.354888	-0.798861	1
H	0.400876	2.319652	-0.129211	1
H	2.878626	1.111102	-0.118531	1
H	0.241846	-2.418858	-0.650791	1
Es	-0.995167	0.191791	0.091332	99
Es	-1.973990	-0.185854	-0.507859	99
Es	0.628878	1.263993	-0.037559	99
Es	-0.268491	0.222738	0.080521	99
Es	2.556457	0.969984	-0.093765	99
Es	0.358914	-0.552873	0.445794	99
Es	0.474940	1.976239	-0.098486	99
Es	-1.973064	-0.194384	0.683211	99
Es	0.229423	-2.324590	0.451782	99
Es	0.141316	-2.309863	-0.221337	99
Es	-1.744089	0.164548	0.093003	99
Es	0.039346	-2.179837	0.265243	99
Es	1.810798	-0.684520	0.058697	99
Es	0.251566	-1.585229	0.228451	99
Es	-2.025012	0.843225	0.098017	99
Es	0.323679	0.778932	-0.286800	99
Es	-0.268112	-2.154415	0.298839	99
Es	1.899766	0.649055	-0.036449	99
Es	2.046107	-0.973307	0.059383	99
Es	1.284762	1.015111	-0.030410	99
Es	0.313384	0.829124	0.301826	99
Es	0.502202	-0.888809	0.195030	99
Es	1.787530	-0.140692	-0.254892	99
Es	1.123198	-0.806056	0.122005	99
Es	1.830462	-0.101172	0.287149	99
Es	0.251808	-0.534737	-0.097068	99
39
Properties=species:S:1:pos:R:3:Z:I:1 energy=-338.750601713586 field_type=dipole dipole="0.000000 0.000000 0.000000" charge=0
C	-1.744174	0.164542	0.093009	6
C	-0.268504	0.222962	0.080479	6
C	0.628886	1.263972	-0.037561	6
C	1.899746	0.649132	-0.036451	6
N	1.811285	-0.684918	0.058689	7
N	0.502226	-0.888668	0.195139	7
O	0.039226	-2.180038	0.265539	8
H	-2.177034	1.168062	0.103129	1
H	-2.104144	-0.372058	0.975419	1
H	-2.108864	-0.354888	-0.798861	1
H	0.400876	2.319652	-0.129211	1
H	2.878626	1.111102	-0.118531	1
H	0.241846	-2.418858	-0.650791	1
Es	0.359899	-0.553716	0.445437	99
Es	1.284705	1.015251	-0.028148	99
Es	0.230815	-2.323141	0.449787	99
Es	1.899767	0.649055	-0.036445	99
Es	-0.995294	0.191852	0.091304	99
Es	1.810800	-0.684522	0.058696	99
Es	-0.268497	0.222737	0.080524	99
Es	1.830392	-0.101129	0.286775	99
Es	2.046248	-0.973252	0.059395	99
Es	1.787511	-0.140769	-0.254794	99
Es	1.123078	-0.806057	0.121756	99
Es	2.556507	0.969947	-0.093672	99
Es	-1.973958	-0.185859	-0.507809	99
Es	0.307615	0.827874	0.300440	99
Es	0.628870	1.263980	-0.037550	99
Es	0.250519	-1.584742	0.228260	99
Es	0.250591	-0.533857	-0.096608	99
Es	0.502197	-0.888798	0.194987	99
Es	-1.744089	0.164547	0.093001	99
Es	-1.973063	-0.194402	0.683292	99
Es	0.039361	-2.179835	0.265265	99
Es	0.329897	0.779943	-0.287673	99
Es	0.141222	-2.310034	-0.221371	99
Es	-0.268428	-2.156241	0.301026	99
Es	0.474965	1.976334	-0.098164	99
Es	-2.025017	0.843235	0.097946	99
39
Properties=species:S:1:pos:R:3:Z:I:1 energy=-338.750601713586 field_type=dipole dipole="0.000000 0.000000 0.000000" charge=0
C	-1.744174	0.164542	0.093009	6
C	-0.268504	0.222962	0.080479	6
C	0.628886	1.263972	-0.037561	6
C	1.899746	0.649132	-0.036451	6
N	1.811285	-0.684918	0.058689	7
N	0.502226	-0.888668	0.195139	7
O	0.039226	-2.180038	0.265539	8
H	-2.177034	1.168062	0.103129	1
H	-2.104144	-0.372058	0.975419	1
H	-2.108864	-0.354888	-0.798861	1
H	0.400876	2.319652	-0.129211	1
H	2.878626	1.111102	-0.118531	1
H	0.241846	-2.418858	-0.650791	1
Es	1.810801	-0.684506	0.058705	99
Es	-0.267440	-2.153633	0.296387	99
Es	1.899768	0.649057	-0.036441	99
Es	-1.973932	-0.185844	-0.507799	99
Es	0.628875	1.263984	-0.037561	99
Es	0.252017	-0.534779	-0.097104	99
Es	-2.025037	0.843228	0.097930	99
Es	0.227229	-2.324949	0.453530	99
Es	0.039354	-2.179840	0.265244	99
Es	2.046290	-0.973001	0.058691	99
Es	1.830240	-0.101190	0.287209	99
Es	0.142618	-2.310562	-0.220991	99
Es	0.310393	0.828146	0.301272	99
Es	0.251703	-1.585029	0.228973	99
Es	0.358474	-0.552885	0.445383	99
Es	-1.973094	-0.194430	0.683283	99
Es	1.787726	-0.140195	-0.254277	99
Es	0.474924	1.976327	-0.098245	99
Es	1.123120	-0.806362	0.122212	99
Es	0.327061	0.779395	-0.286918	99
Es	1.284678	1.015179	-0.029958	99
Es	-0.268495	0.222742	0.080526	99
Es	-0.995323	0.191885	0.091305	99
Es	0.502192	-0.888790	0.194976	99
Es	-1.744089	0.164546	0.093002	99
Es	2.556557	0.969905	-0.093680	99
39
Properties=species:S:1:pos:R:3:Z:I:1 energy=-338.750601713586 field_type=dipole dipole="0.000000 0.000000 0.000000" charge=0
C	-1.744174	0.164542	0.093009	6
C	-0.268504	0.222962	0.080479	6
C	0.628886	1.263972	-0.037561	6
C	1.899746	0.649132	-0.036451	6
N	1.811285	-0.684918	0.058689	7
N	0.502226	-0.888668	0.195139	7
O	0.039226	-2.180038	0.265539	8
H	-2.177034	1.168062	0.103129	1
H	-2.104144	-0.372058	0.975419	1
H	-2.108864	-0.354888	-0.798861	1
H	0.400876	2.319652	-0.129211	1
H	2.878626	1.111102	-0.118531	1
H	0.241846	-2.418858	-0.650791	1
Es	0.474822	1.976330	-0.098460	99
Es	-0.268496	0.222736	0.080521	99
Es	0.361885	-0.554738	0.445238	99
Es	1.284473	1.015265	-0.031412	99
Es	0.251097	-1.584746	0.228540	99
Es	2.046396	-0.973170	0.059000	99
Es	0.249076	-0.533088	-0.095609	99
Es	1.122965	-0.806231	0.120581	99
Es	0.315187	0.828820	0.302070	99
Es	0.140736	-2.310155	-0.221436	99
Es	0.322247	0.778183	-0.286300	99
Es	0.039341	-2.179769	0.265195	99
Es	-1.744091	0.164547	0.093002	99
Es	2.556616	0.969842	-0.093635	99
Es	-0.267665	-2.155522	0.300390	99
Es	1.829926	-0.100843	0.287082	99
Es	1.788099	-0.139843	-0.253992	99
Es	-0.995510	0.191932	0.091260	99
Es	0.628874	1.263984	-0.037553	99
Es	-1.973975	-0.185903	-0.507788	99
Es	0.229868	-2.323840	0.450402	99
Es	1.899766	0.649056	-0.036445	99
Es	-2.024972	0.843245	0.097875	99
Es	-1.973049	-0.194372	0.683389	99
Es	1.810795	-0.684520	0.058695	99
Es	0.502201	-0.888798	0.195043	99
39
Properties=species:S:1:pos:R:3:Z:I:1 energy=-338.750601713586 field_type=dipole dipole="0.000000 0.000000 0.000000" charge=0
C	-1.744174	0.164542	0.093009	6
C	-0.268504	0.222962	0.080479	6
C	0.628886	1.263972	-0.037561	6
C	1.899746	0.649132	-0.036451	6
N	1.811285	-0.684918	0.058689	7
N	0.502226	-0.888668	0.195139	7
O	0.039226	-2.180038	0.265539	8
H	-2.177034	1.168062	0.103129	1
H	-2.104144	-0.372058	0.975419	1
H	-2.108864	-0.354888	-0.798861	1
H	0.400876	2.319652	-0.129211	1
H	2.878626	1.111102	-0.118531	1
H	0.241846	-2.418858	-0.650791	1
Es	-0.267379	-2.154197	0.298441	99
Es	-0.995604	0.192004	0.091313	99
Es	0.249310	-0.533125	-0.095809	99
Es	0.322871	0.778107	-0.286267	99
Es	0.361367	-0.554698	0.444679	99
Es	-2.025034	0.843287	0.097962	99
Es	1.284411	1.015269	-0.031073	99
Es	0.039350	-2.179847	0.265242	99
Es	1.899766	0.649052	-0.036444	99
Es	2.556626	0.969868	-0.093785	99
Es	0.628869	1.263978	-0.037572	99
Es	1.123049	-0.806264	0.121498	99
Es	-0.268498	0.222739	0.080526	99
Es	0.251714	-1.585022	0.228647	99
Es	0.502224	-0.888860	0.195090	99
Es	2.046247	-0.972922	0.058738	99
Es	-1.973899	-0.185838	-0.507831	99
Es	-1.744091	0.164546	0.093000	99
Es	1.830413	-0.100723	0.287078	99
Es	0.474823	1.976333	-0.098470	99
Es	0.141301	-2.310519	-0.221286	99
Es	0.228403	-2.324502	0.452059	99
Es	1.787859	-0.139839	-0.254055	99
Es	0.314746	0.828619	0.301967	99
Es	1.810818	-0.684558	0.058713	99
Es	-1.973051	-0.194486	0.683293	99
39
Properties=species:S:1:pos:R:3:Z:I:1 energy=-338.750601713586 field_type=dipole dipole="0.000000 0.000000 0.000000" charge=0
C	-1.744174	0.164542	0.093009	6
C	-0.268504	0.222962	0.080479	6
C	0.628886	1.263972	-0.037561	6
C	1.899746	0.649132	-0.036451	6
N	1.811285	-0.684918	0.058689	7
N	0.502226	-0.888668	0.195139	7
O	0.039226	-2.180038	0.265539	8
H	-2.177034	1.168062	0.103129	1
H	-2.104144	-0.372058	0.975419	1
H	-2.108864	-0.354888	-0.798861	1
H	0.400876	2.319652	-0.129211	1
H	2.878626	1.111102	-0.118531	1
H	0.241846	-2.418858	-0.650791	1
Es	-0.268500	0.222738	0.080523	99
Es	0.628869	1.263978	-0.037554	99
Es	-0.995830	0.192093	0.091335	99
Es	-1.972988	-0.194459	0.683390	99
Es	0.251052	-1.584559	0.228977	99
Es	0.474760	1.976332	-0.098378	99
Es	0.355341	-0.551178	0.445054	99
Es	1.284422	1.015413	-0.029685	99
Es	1.830245	-0.100946	0.286665	99
Es	0.039411	-2.179829	0.265219	99
Es	-1.973901	-0.185918	-0.507902	99
Es	0.141026	-2.310715	-0.221504	99
Es	1.123107	-0.806362	0.122854	99
Es	0.326595	0.778560	-0.286891	99
Es	1.899763	0.649051	-0.036449	99
Es	-0.267447	-2.155707	0.300540	99
Es	-1.744091	0.164547	0.093001	99
Es	2.046229	-0.972782	0.059154	99
Es	0.502200	-0.888798	0.195048	99
Es	0.229326	-2.323282	0.450165	99
Es	0.311452	0.827900	0.301143	99
Es	1.788103	-0.139855	-0.254476	99
Es	0.254950	-0.536470	-0.097648	99
Es	-2.024987	0.843278	0.097945	99
Es	1.810809	-0.684519	0.058692	99
Es	2.556696	0.969892	-0.093566	99
39
Properties=species:S:1:pos:R:3:Z:I:1 energy=-338.750601713586 field_type=dipole dipole="0.000000 0.000000 0.000000" charge=0
C	-1.744174	0.164542	0.093009	6
C	-0.268504	0.222962	0.080479	6
C	0.628886	1.263972	-0.037561	6
C	1.899746	0.649132	-0.036451	6
N	1.811285	-0.684918	0.058689	7
N	0.502226	-0.888668	0.195139	7
O	0.039226	-2.180038	0.265539	8
H	-2.177034	1.168062	0.103129	1
H	-2.104144	-0.372058	0.975419	1
H	-2.108864	-0.354888	-0.798861	1
H	0.400876	2.319652	-0.129211	1
H	2.878626	1.111102	-0.118531	1
H	0.241846	-2.418858	-0.650791	1
Es	1.810805	-0.684523	0.058698	99
Es	0.142126	-2.311244	-0.221163	99
Es	0.502209	-0.888822	0.195032	99
Es	2.046202	-0.972865	0.059166	99
Es	0.360762	-0.554585	0.444417	99
Es	0.251500	-1.584713	0.228904	99
Es	1.830415	-0.100325	0.286722	99
Es	-2.025041	0.843285	0.098004	99
Es	-1.744090	0.164546	0.093002	99
Es	2.556716	0.969818	-0.093732	99
Es	0.039287	-2.179861	0.265245	99
Es	1.123029	-0.806261	0.121571	99
Es	0.474764	1.976328	-0.098251	99
Es	0.628872	1.263981	-0.037557	99
Es	-1.972941	-0.194509	0.683353	99
Es	1.899766	0.649056	-0.036443	99
Es	0.327906	0.778654	-0.287018	99
Es	-0.268501	0.222737	0.080524	99
Es	-0.266320	-2.153673	0.296618	99
Es	-1.973915	-0.185888	-0.507892	99
Es	0.226685	-2.324644	0.453550	99
Es	0.309894	0.827394	0.301060	99
Es	1.788009	-0.139790	-0.254295	99
Es	0.249931	-0.533335	-0.095789	99
Es	1.284387	1.015524	-0.029352	99
Es	-0.995846	0.192115	0.091279	99
39
Properties=species:S:1:pos:R:3:Z:I:1 energy=-338.750601713586 field_type=dipole dipole="0.000000 0.000000 0.000000" charge=0
C	-1.744174	0.164542	0.093009	6
C	-0.268504	0.222962	0.080479	6
C	0.628886	1.263972	-0.037561	6
C	1.899746	0.649132	-0.036451	6
N	1.811285	-0.684918	0.058689	7
N	0.502226	-0.888668	0.195139	7
O	0.039226	-2.180038	0.265539	8
H	-2.177034	1.168062	0.103129	1
H	-2.104144	-0.372058	0.975419	1
H	-2.108864	-0.354888	-0.798861	1
H	0.400876	2.319652	-0.129211	1
H	2.878626	1.111102	-0.118531	1
H	0.241846	-2.418858	-0.650791	1
Es	2.046266	-0.972588	0.058896	99
Es	0.628871	1.263979	-0.037556	99
Es	-1.744094	0.164550	0.093000	99
Es	-2.025008	0.843244	0.098007	99
Es	-1.973854	-0.185809	-0.507939	99
Es	2.556750	0.969778	-0.093792	99
Es	0.141223	-2.310918	-0.221380	99
Es	0.474723	1.976327	-0.098444	99
Es	1.122914	-0.806487	0.121105	99
Es	1.787931	-0.139406	-0.254018	99
Es	0.363030	-0.555754	0.444062	99
Es	0.251148	-1.584576	0.228929	99
Es	0.502200	-0.888800	0.195016	99
Es	1.810799	-0.684527	0.058696	99
Es	1.830553	-0.100068	0.286863	99
Es	-0.268497	0.222738	0.080524	99
Es	0.315341	0.828238	0.302082	99
Es	-1.973005	-0.194592	0.683397	99
Es	0.039336	-2.179866	0.265261	99
Es	-0.995968	0.192176	0.091354	99
Es	0.248222	-0.532375	-0.095002	99
Es	0.228557	-2.323706	0.451066	99
Es	1.899766	0.649056	-0.036445	99
Es	-0.267007	-2.155120	0.299390	99
Es	1.284360	1.015427	-0.031405	99
Es	0.322057	0.777479	-0.286014	99
39
Properties=species:S:1:pos:R:3:Z:I:1 energy=-338.750601713586 field_type=dipole dipole="0.000000 0.000000 0.000000" charge=0
C	-1.744174	0.164542	0.093009	6
C	-0.268504	0.222962	0.080479	6
C	0.628886	1.263972	-0.037561	6
C	1.899746	0.649132	-0.036451	6
N	1.811285	-0.684918	0.058689	7
N	0.502226	-0.888668	0.195139	7
O	0.039226	-2.180038	0.265539	8
H	-2.177034	1.168062	0.103129	1
H	-2.104144	-0.372058	0.975419	1
H	-2.108864	-0.354888	-0.798861	1
H	0.400876	2.319652	-0.129211	1
H	2.878626	1.111102	-0.118531	1
H	0.241846	-2.418858	-0.650791	1
Es	0.248687	-0.532446	-0.095304	99
Es	0.474715	1.976381	-0.098207	99
Es	1.284212	1.015663	-0.028621	99
Es	-0.266981	-2.154910	0.298482	99
Es	-0.268498	0.222737	0.080524	99
Es	-1.973008	-0.194519	0.683330	99
Es	0.330602	0.778765	-0.287161	99
Es	2.556809	0.969770	-0.093742	99
Es	0.307551	0.826541	0.300620	99
Es	0.251228	-1.584480	0.228987	99
Es	1.830524	-0.100139	0.286577	99
Es	1.899766	0.649055	-0.036446	99
Es	0.227648	-2.323631	0.451587	99
Es	2.046291	-0.972533	0.058749	99
Es	-0.996028	0.192224	0.091332	99
Es	1.123024	-0.806519	0.121825	99
Es	0.039373	-2.179881	0.265296	99
Es	0.361867	-0.555699	0.443729	99
Es	0.628872	1.263981	-0.037540	99
Es	0.141985	-2.311290	-0.221137	99
Es	0.502194	-0.888792	0.194985	99
Es	1.787954	-0.139337	-0.253969	99
Es	-1.973871	-0.185867	-0.507924	99
Es	-2.025023	0.843286	0.097993	99
Es	-1.744091	0.164546	0.093001	99
Es	1.810810	-0.684505	0.058685	99
39
Properties=species:S:1:pos:R:3:Z:I:1 energy=-338.750601713586 field_type=dipole dipole="0.000000 0.000000 0.000000" charge=0
C	-1.744174	0.164542	0.093009	6
C	-0.268504	0.222962	0.080479	6
C	0.628886	1.263972	-0.037561	6
C	1.899746	0.649132	-0.036451	6
N	1.811285	-0.684918	0.058689	7
N	0.502226	-0.888668	0.195139	7
O	0.039226	-2.180038	0.265539	8
H	-2.177034	1.168062	0.103129	1
H	-2.104144	-0.372058	0.975419	1
H	-2.108864	-0.354888	-0.798861	1
H	0.400876	2.319652	-0.129211	1
H	2.878626	1.111102	-0.118531	1
H	0.241846	-2.418858	-0.650791	1
Es	0.628866	1.263975	-0.037554	99
Es	0.359567	-0.554225	0.443783	99
Es	-2.024998	0.843319	0.097940	99
Es	0.250872	-1.584308	0.228659	99
Es	-0.996164	0.192261	0.091272	99
Es	1.810797	-0.684525	0.058696	99
Es	1.830813	-0.099989	0.286570	99
Es	1.123019	-0.806580	0.122672	99
Es	-1.973876	-0.185938	-0.507910	99
Es	0.251283	-0.533984	-0.096062	99
Es	2.556855	0.969739	-0.093682	99
Es	-1.744091	0.164547	0.093001	99
Es	1.284225	1.015722	-0.029183	99
Es	0.474634	1.976349	-0.098270	99
Es	0.502201	-0.888803	0.195018	99
Es	0.139800	-2.311069	-0.221705	99
Es	0.230005	-2.322698	0.448896	99
Es	-0.266851	-2.156265	0.302236	99
Es	1.899766	0.649056	-0.036447	99
Es	-1.972954	-0.194482	0.683414	99
Es	2.046263	-0.972463	0.058410	99
Es	0.309093	0.826706	0.300935	99
Es	0.039327	-2.179867	0.265257	99
Es	1.787796	-0.139086	-0.253872	99
Es	0.328862	0.778270	-0.286943	99
Es	-0.268497	0.222738	0.080523	99
39
Properties=species:S:1:pos:R:3:Z:I:1 energy=-338.750601713586 field_type=dipole dipole="0.000000 0.000000 0.000000" charge=0
C	-1.744174	0.164542	0.093009	6
C	-0.268504	0.222962	0.080479	6
C	0.628886	1.263972	-0.037561	6
C	1.899746	0.649132	-0.036451	6
N	1.811285	-0.684918	0.058689	7
N	0.502226	-0.888668	0.195139	7
O	0.039226	-2.180038	0.265539	8
H	-2.177034	1.168062	0.103129	1
H	-2.104144	-0.372058	0.975419	1
H	-2.108864	-0.354888	-0.798861	1
H	0.400876	2.319652	-0.129211	1
H	2.878626	1.111102	-0.118531	1
H	0.241846	-2.418858	-0.650791	1
Es	2.046247	-0.972358	0.059306	99
Es	0.227891	-2.322690	0.450703	99
Es	2.556914	0.969648	-0.093703	99
Es	-1.973725	-0.185856	-0.508022	99
Es	0.474586	1.976347	-0.098586	99
Es	0.312300	0.827342	0.301343	99
Es	-1.973052	-0.194601	0.683322	99
Es	1.787876	-0.139422	-0.254066	99
Es	0.502198	-0.888797	0.194965	99
Es	1.810799	-0.684523	0.058695	99
Es	0.251337	-0.534133	-0.095937	99
Es	0.359380	-0.554085	0.443778	99
Es	0.142135	-2.311740	-0.221136	99
Es	-0.268499	0.222739	0.080525	99
Es	0.628864	1.263964	-0.037597	99
Es	-1.744090	0.164546	0.093000	99
Es	1.284080	1.015867	-0.029390	99
Es	0.325931	0.777393	-0.286692	99
Es	0.250649	-1.584097	0.229145	99
Es	0.039362	-2.179854	0.265245	99
Es	-0.996250	0.192274	0.091482	99
Es	1.122907	-0.806515	0.122150	99
Es	-0.266884	-2.155847	0.299483	99
Es	1.899766	0.649054	-0.036448	99
Es	-2.025023	0.843328	0.097993	99
Es	1.830914	-0.099585	0.286093	99
39
Properties=species:S:1:pos:R:3:Z:I:1 energy=-338.750601713586 field_type=dipole dipole="0.000000 0.000000 0.000000" charge=0
C	-1.744174	0.164542	0.093009	6
C	-0.268504	0.222962	0.080479	6
C	0.628886	1.263972	-0.037561	6
C	1.899746	0.649132	-0.036451	6
N	1.811285	-0.684918	0.058689	7
N	0.502226	-0.888668	0.195139	7
O	0.039226	-2.180038	0.265539	8
H	-2.177034	1.168062	0.103129	1
H	-2.104144	-0.372058	0.975419	1
H	-2.108864	-0.354888	-0.798861	1
H	0.400876	2.319652	-0.129211	1
H	2.878626	1.111102	-0.118531	1
H	0.241846	-2.418858	-0.650791	1
Es	0.250924	-1.584156	0.229086	99
Es	0.328866	0.777996	-0.286568	99
Es	0.367393	-0.559081	0.442643	99
Es	-0.266130	-2.155290	0.299298	99
Es	1.810797	-0.684523	0.058696	99
Es	2.046513	-0.972310	0.059077	99
Es	-0.996408	0.192342	0.091461	99
Es	1.787854	-0.138938	-0.253738	99
Es	0.039321	-2.179872	0.265259	99
Es	0.141256	-2.311642	-0.221394	99
Es	-0.268499	0.222739	0.080521	99
Es	-1.744093	0.164547	0.093002	99
Es	2.556957	0.969672	-0.093536	99
Es	1.284112	1.015854	-0.029676	99
Es	-2.024985	0.843368	0.097873	99
Es	0.308974	0.826225	0.301176	99
Es	1.122844	-0.806715	0.120061	99
Es	0.474491	1.976393	-0.098226	99
Es	1.830541	-0.099119	0.286145	99
Es	1.899765	0.649055	-0.036447	99
Es	0.628866	1.263968	-0.037580	99
Es	0.502176	-0.888753	0.194888	99
Es	0.227631	-2.323323	0.450964	99
Es	-1.972985	-0.194470	0.683432	99
Es	-1.973765	-0.186009	-0.507965	99
Es	0.244197	-0.529557	-0.092799	99
39
Properties=species:S:1:pos:R:3:Z:I:1 energy=-338.750601713586 field_type=dipole dipole="0.000000 0.000000 0.000000" charge=0
C	-1.744174	0.164542	0.093009	6
C	-0.268504	0.222962	0.080479	6
C	0.628886	1.263972	-0.037561	6
C	1.899746	0.649132	-0.036451	6
N	1.811285	-0.684918	0.058689	7
N	0.502226	-0.888668	0.195139	7
O	0.039226	-2.180038	0.265539	8
H	-2.177034	1.168062	0.103129	1
H	-2.104144	-0.372058	0.975419	1
H	-2.108864	-0.354888	-0.798861	1
H	0.400876	2.319652	-0.129211	1
H	2.878626	1.111102	-0.118531	1
H	0.241846	-2.418858	-0.650791	1
Es	0.250167	-0.533194	-0.095569	99
Es	0.628867	1.263975	-0.037550	99
Es	-0.268499	0.222737	0.080521	99
Es	-1.972923	-0.194396	0.683543	99
Es	0.332792	0.778409	-0.287292	99
Es	0.360552	-0.555180	0.442893	99
Es	1.284088	1.015962	-0.027776	99
Es	0.140655	-2.310962	-0.221482	99
Es	2.046317	-0.972194	0.058153	99
Es	-0.996470	0.192393	0.091359	99
Es	1.122967	-0.806738	0.122858	99
Es	0.474541	1.976381	-0.098244	99
Es	1.831126	-0.099528	0.286213	99
Es	-0.266380	-2.155851	0.300191	99
Es	1.787615	-0.138825	-0.253681	99
Es	0.039437	-2.179861	0.265245	99
Es	0.502202	-0.888801	0.194987	99
Es	-2.024968	0.843343	0.097797	99
Es	-1.744094	0.164549	0.093003	99
Es	0.305581	0.825648	0.300155	99
Es	0.250773	-1.584083	0.229552	99
Es	0.228558	-2.323508	0.450062	99
Es	1.810802	-0.684519	0.058693	99
Es	2.556963	0.969676	-0.093614	99
Es	1.899763	0.649058	-0.036438	99
Es	-1.973820	-0.186091	-0.507924	99
