43
Properties=species:S:1:pos:R:3:Z:I:1 energy=-323.94466886056654 field_type=dipole dipole="0.000000 0.000000 0.000000" charge=0
C	-2.230843	-0.603204	0.441898	6
C	-0.766393	-0.755604	0.211908	6
C	-0.188363	-0.581774	-1.171012	6
N	0.013737	0.430826	-0.133142	7
C	1.359077	0.414316	0.455458	6
C	2.107367	1.616216	-0.069992	6
O	3.281327	1.578996	-0.435132	8
H	-2.418093	-0.261254	1.464648	1
H	-2.734003	-1.565974	0.308158	1
H	-2.687303	0.116506	-0.246122	1
H	-0.322703	-1.495954	0.867748	1
H	-0.851593	-0.299114	-1.980732	1
H	0.644357	-1.208784	-1.466842	1
H	1.937397	-0.489164	0.232278	1
H	1.289017	0.525536	1.542628	1
H	1.567017	2.578436	-0.021752	1
Es	-2.533662	-0.117053	-0.028226	99
Es	1.358958	0.414378	0.455399	99
Es	-0.766275	-0.755426	0.211795	99
Es	-2.564257	-1.261137	0.351129	99
Es	3.394123	1.858999	-0.519979	99
Es	2.928404	1.633119	-0.068484	99
Es	1.726225	2.264537	-0.036597	99
Es	1.743230	-0.203406	0.301338	99
Es	0.013978	0.430253	-0.133120	99
Es	0.385435	-0.999845	-1.366699	99
Es	2.107376	1.616189	-0.070000	99
Es	1.316196	0.502843	1.184091	99
Es	0.027691	0.061522	-0.671906	99
Es	-0.638113	-0.390000	-1.720430	99
Es	-0.564346	-0.861047	-0.550237	99
Es	3.399877	1.288470	-0.421330	99
Es	-0.188348	-0.581637	-1.170803	99
Es	3.281026	1.579029	-0.435035	99
Es	-0.150094	0.746808	-0.160642	99
Es	2.775155	1.549299	-0.541809	99
Es	-0.449687	-1.253878	0.660331	99
Es	-2.352863	-0.372721	1.138382	99
Es	1.728763	1.011673	0.183111	99
Es	-1.497316	-0.667826	0.321048	99
Es	-2.230820	-0.603217	0.441901	99
Es	0.607799	0.390737	0.117869	99
Es	-0.323708	-0.039608	0.156616	99
43
Properties=species:S:1:pos:R:3:Z:I:1 energy=-323.94466886056654 field_type=dipole dipole="0.000000 0.000000 0.000000" charge=0
C	-2.230843	-0.603204	0.441898	6
C	-0.766393	-0.755604	0.211908	6
C	-0.188363	-0.581774	-1.171012	6
N	0.013737	0.430826	-0.133142	7
C	1.359077	0.414316	0.455458	6
C	2.107367	1.616216	-0.069992	6
O	3.281327	1.578996	-0.435132	8
H	-2.418093	-0.261254	1.464648	1
H	-2.734003	-1.565974	0.308158	1
H	-2.687303	0.116506	-0.246122	1
H	-0.322703	-1.495954	0.867748	1
H	-0.851593	-0.299114	-1.980732	1
H	0.644357	-1.208784	-1.466842	1
H	1.937397	-0.489164	0.232278	1
H	1.289017	0.525536	1.542628	1
H	1.567017	2.578436	-0.021752	1
Es	3.399527	1.288405	-0.423802	99
Es	0.027579	0.061279	-0.672368	99
Es	-0.564324	-0.861285	-0.550167	99
Es	0.607924	0.391519	0.117988	99
Es	-0.638059	-0.390039	-1.720476	99
Es	3.394168	1.859092	-0.518635	99
Es	-1.497274	-0.667892	0.321063	99
Es	2.107376	1.616188	-0.069996	99
Es	0.385353	-0.999708	-1.366668	99
Es	3.281031	1.578981	-0.435038	99
Es	2.929201	1.631486	-0.067571	99
Es	-2.230819	-0.603217	0.441900	99
Es	1.743221	-0.203400	0.301360	99
Es	-2.352859	-0.372778	1.138304	99
Es	-0.449729	-1.253780	0.660334	99
Es	-2.564295	-1.261122	0.351149	99
Es	0.013985	0.430240	-0.133117	99
Es	-0.324057	-0.038975	0.157195	99
Es	-2.533689	-0.116987	-0.028199	99
Es	1.358958	0.414378	0.455397	99
Es	-0.188348	-0.581636	-1.170799	99
Es	1.316214	0.502856	1.184066	99
Es	2.774663	1.551023	-0.541591	99
Es	-0.766269	-0.755416	0.211800	99
Es	1.728761	1.011600	0.183085	99
Es	-0.149733	0.745726	-0.160939	99
Es	1.726240	2.264519	-0.036565	99
43
Properties=species:S:1:pos:R:3:Z:I:1 energy=-323.94466886056654 field_type=dipole dipole="0.000000 0.000000 0.000000" charge=0
C	-2.230843	-0.603204	0.441898	6
C	-0.766393	-0.755604	0.211908	6
C	-0.188363	-0.581774	-1.171012	6
N	0.013737	0.430826	-0.133142	7
C	1.359077	0.414316	0.455458	6
C	2.107367	1.616216	-0.069992	6
O	3.281327	1.578996	-0.435132	8
H	-2.418093	-0.261254	1.464648	1
H	-2.734003	-1.565974	0.308158	1
H	-2.687303	0.116506	-0.246122	1
H	-0.322703	-1.495954	0.867748	1
H	-0.851593	-0.299114	-1.980732	1
H	0.644357	-1.208784	-1.466842	1
H	1.937397	-0.489164	0.232278	1
H	1.289017	0.525536	1.542628	1
H	1.567017	2.578436	-0.021752	1
Es	-0.323801	-0.039039	0.157126	99
Es	0.027445	0.061607	-0.672650	99
Es	2.107374	1.616188	-0.070009	99
Es	-2.352942	-0.372589	1.138288	99
Es	2.774917	1.550745	-0.541832	99
Es	-0.449740	-1.253682	0.660266	99
Es	1.743192	-0.203319	0.301371	99
Es	0.607749	0.391218	0.117779	99
Es	-0.188344	-0.581635	-1.170806	99
Es	1.728828	1.011437	0.183049	99
Es	3.399821	1.288624	-0.423416	99
Es	-1.497245	-0.667861	0.321222	99
Es	1.726201	2.264602	-0.036584	99
Es	0.014003	0.430204	-0.133115	99
Es	2.928790	1.631559	-0.067771	99
Es	-2.564202	-1.261181	0.351258	99
Es	-0.766272	-0.755426	0.211793	99
Es	3.281036	1.579010	-0.435041	99
Es	-0.638008	-0.390127	-1.720542	99
Es	0.385297	-0.999535	-1.366604	99
Es	3.394033	1.859056	-0.518501	99
Es	-2.230819	-0.603217	0.441900	99
Es	1.358959	0.414378	0.455398	99
Es	-0.149717	0.745946	-0.160415	99
Es	1.316295	0.502845	1.184100	99
Es	-2.533690	-0.117175	-0.028337	99
Es	-0.564411	-0.861578	-0.550214	99
43
Properties=species:S:1:pos:R:3:Z:I:1 energy=-323.94466886056654 field_type=dipole dipole="0.000000 0.000000 0.000000" charge=0
C	-2.230843	-0.603204	0.441898	6
C	-0.766393	-0.755604	0.211908	6
C	-0.188363	-0.581774	-1.171012	6
N	0.013737	0.430826	-0.133142	7
C	1.359077	0.414316	0.455458	6
C	2.107367	1.616216	-0.069992	6
O	3.281327	1.578996	-0.435132	8
H	-2.418093	-0.261254	1.464648	1
H	-2.734003	-1.565974	0.308158	1
H	-2.687303	0.116506	-0.246122	1
H	-0.322703	-1.495954	0.867748	1
H	-0.851593	-0.299114	-1.980732	1
H	0.644357	-1.208784	-1.466842	1
H	1.937397	-0.489164	0.232278	1
H	1.289017	0.525536	1.542628	1
H	1.567017	2.578436	-0.021752	1
Es	1.316323	0.502884	1.184140	99
Es	0.027620	0.061730	-0.672468	99
Es	-1.497186	-0.667943	0.321160	99
Es	1.358962	0.414379	0.455393	99
Es	3.399293	1.288442	-0.423409	99
Es	0.385252	-0.999561	-1.366733	99
Es	2.929484	1.632126	-0.067479	99
Es	2.107378	1.616190	-0.070000	99
Es	-2.230818	-0.603217	0.441900	99
Es	2.774399	1.551066	-0.541629	99
Es	-2.533689	-0.117030	-0.028220	99
Es	-2.352890	-0.372741	1.138298	99
Es	0.013993	0.430231	-0.133115	99
Es	1.728763	1.011447	0.182913	99
Es	-0.149277	0.745515	-0.160940	99
Es	-0.637856	-0.390114	-1.720362	99
Es	-0.766274	-0.755426	0.211792	99
Es	-0.564602	-0.861845	-0.550260	99
Es	1.743181	-0.203260	0.301416	99
Es	-0.188349	-0.581638	-1.170796	99
Es	1.726217	2.264585	-0.036608	99
Es	3.280978	1.578980	-0.435018	99
Es	-0.449807	-1.253643	0.660254	99
Es	-0.324302	-0.038759	0.157449	99
Es	0.607772	0.391407	0.117839	99
Es	-2.564285	-1.261114	0.351165	99
Es	3.394466	1.858365	-0.518970	99
43
Properties=species:S:1:pos:R:3:Z:I:1 energy=-323.94466886056654 field_type=dipole dipole="0.000000 0.000000 0.000000" charge=0
C	-2.230843	-0.603204	0.441898	6
C	-0.766393	-0.755604	0.211908	6
C	-0.188363	-0.581774	-1.171012	6
N	0.013737	0.430826	-0.133142	7
C	1.359077	0.414316	0.455458	6
C	2.107367	1.616216	-0.069992	6
O	3.281327	1.578996	-0.435132	8
H	-2.418093	-0.261254	1.464648	1
H	-2.734003	-1.565974	0.308158	1
H	-2.687303	0.116506	-0.246122	1
H	-0.322703	-1.495954	0.867748	1
H	-0.851593	-0.299114	-1.980732	1
H	0.644357	-1.208784	-1.466842	1
H	1.937397	-0.489164	0.232278	1
H	1.289017	0.525536	1.542628	1
H	1.567017	2.578436	-0.021752	1
Es	-0.564671	-0.862130	-0.550429	99
Es	0.027546	0.061760	-0.673027	99
Es	2.928794	1.631518	-0.067595	99
Es	1.726246	2.264622	-0.036589	99
Es	1.743120	-0.203177	0.301361	99
Es	1.358965	0.414378	0.455401	99
Es	3.393413	1.858968	-0.518345	99
Es	3.280972	1.578976	-0.435016	99
Es	0.385137	-0.999417	-1.366742	99
Es	-0.188349	-0.581637	-1.170799	99
Es	-0.324128	-0.038471	0.157510	99
Es	-2.352889	-0.372748	1.138335	99
Es	-2.564343	-1.261132	0.351066	99
Es	-0.149270	0.745263	-0.160419	99
Es	-1.497140	-0.668022	0.321262	99
Es	2.774881	1.550466	-0.542052	99
Es	2.107378	1.616191	-0.069992	99
Es	-0.449828	-1.253540	0.660193	99
Es	3.400536	1.289076	-0.423552	99
Es	0.013989	0.430259	-0.133114	99
Es	0.607598	0.391477	0.117891	99
Es	-2.230819	-0.603216	0.441900	99
Es	1.728855	1.011337	0.183066	99
Es	-0.637758	-0.390095	-1.720377	99
Es	-0.766271	-0.755422	0.211795	99
Es	1.316380	0.502768	1.184146	99
Es	-2.533595	-0.116995	-0.028166	99
43
Properties=species:S:1:pos:R:3:Z:I:1 energy=-323.94466886056654 field_type=dipole dipole="0.000000 0.000000 0.000000" charge=0
C	-2.230843	-0.603204	0.441898	6
C	-0.766393	-0.755604	0.211908	6
C	-0.188363	-0.581774	-1.171012	6
N	0.013737	0.430826	-0.133142	7
C	1.359077	0.414316	0.455458	6
C	2.107367	1.616216	-0.069992	6
O	3.281327	1.578996	-0.435132	8
H	-2.418093	-0.261254	1.464648	1
H	-2.734003	-1.565974	0.308158	1
H	-2.687303	0.116506	-0.246122	1
H	-0.322703	-1.495954	0.867748	1
H	-0.851593	-0.299114	-1.980732	1
H	0.644357	-1.208784	-1.466842	1
H	1.937397	-0.489164	0.232278	1
H	1.289017	0.525536	1.542628	1
H	1.567017	2.578436	-0.021752	1
Es	2.929239	1.631830	-0.067461	99
Es	3.393460	1.858564	-0.518527	99
Es	-0.188347	-0.581634	-1.170797	99
Es	-1.497122	-0.668014	0.321358	99
Es	2.774596	1.550877	-0.541744	99
Es	1.358963	0.414379	0.455399	99
Es	-0.637671	-0.390126	-1.720363	99
Es	-2.533663	-0.116989	-0.028176	99
Es	3.281123	1.578998	-0.435066	99
Es	1.743208	-0.203188	0.301318	99
Es	-0.148784	0.744782	-0.160750	99
Es	-2.352835	-0.372743	1.138281	99
Es	0.385125	-0.999378	-1.366729	99
Es	-2.564342	-1.261146	0.351153	99
Es	1.316394	0.502808	1.184161	99
Es	2.107372	1.616188	-0.070005	99
Es	3.400185	1.288735	-0.423730	99
Es	-0.564810	-0.862247	-0.550431	99
Es	-0.449815	-1.253453	0.660157	99
Es	-2.230820	-0.603217	0.441900	99
Es	1.726233	2.264638	-0.036605	99
Es	0.607721	0.391774	0.117617	99
Es	0.014002	0.430218	-0.133113	99
Es	1.728778	1.011283	0.183111	99
Es	-0.766268	-0.755416	0.211801	99
Es	0.027448	0.061952	-0.673077	99
Es	-0.324623	-0.038421	0.158031	99
43
Properties=species:S:1:pos:R:3:Z:I:1 energy=-323.94466886056654 field_type=dipole dipole="0.000000 0.000000 0.000000" charge=0
C	-2.230843	-0.603204	0.441898	6
C	-0.766393	-0.755604	0.211908	6
C	-0.188363	-0.581774	-1.171012	6
N	0.013737	0.430826	-0.133142	7
C	1.359077	0.414316	0.455458	6
C	2.107367	1.616216	-0.069992	6
O	3.281327	1.578996	-0.435132	8
H	-2.418093	-0.261254	1.464648	1
H	-2.734003	-1.565974	0.308158	1
H	-2.687303	0.116506	-0.246122	1
H	-0.322703	-1.495954	0.867748	1
H	-0.851593	-0.299114	-1.980732	1
H	0.644357	-1.208784	-1.466842	1
H	1.937397	-0.489164	0.232278	1
H	1.289017	0.525536	1.542628	1
H	1.567017	2.578436	-0.021752	1
Es	2.928772	1.632154	-0.067702	99
Es	-0.188348	-0.581635	-1.170800	99
Es	-2.230820	-0.603216	0.441900	99
Es	1.316383	0.502816	1.184176	99
Es	0.385000	-0.999236	-1.366756	99
Es	0.027656	0.062366	-0.673228	99
Es	-0.766274	-0.755428	0.211792	99
Es	-2.533654	-0.117058	-0.028230	99
Es	0.014001	0.430225	-0.133112	99
Es	-1.497102	-0.668084	0.321237	99
Es	3.393705	1.858527	-0.518735	99
Es	1.358961	0.414378	0.455399	99
Es	-0.637631	-0.390166	-1.720345	99
Es	1.743209	-0.203166	0.301347	99
Es	3.400132	1.288806	-0.423085	99
Es	-0.148582	0.744444	-0.160684	99
Es	2.107376	1.616191	-0.069996	99
Es	-0.449955	-1.253333	0.660190	99
Es	-0.324873	-0.038376	0.158043	99
Es	0.607692	0.391861	0.117710	99
Es	3.281070	1.579009	-0.435050	99
Es	-0.564703	-0.862620	-0.550387	99
Es	1.728781	1.011226	0.183185	99
Es	1.726283	2.264636	-0.036577	99
Es	-2.564277	-1.261066	0.351124	99
Es	-2.352943	-0.372729	1.138341	99
Es	2.774889	1.550532	-0.542044	99
43
Properties=species:S:1:pos:R:3:Z:I:1 energy=-323.94466886056654 field_type=dipole dipole="0.000000 0.000000 0.000000" charge=0
C	-2.230843	-0.603204	0.441898	6
C	-0.766393	-0.755604	0.211908	6
C	-0.188363	-0.581774	-1.171012	6
N	0.013737	0.430826	-0.133142	7
C	1.359077	0.414316	0.455458	6
C	2.107367	1.616216	-0.069992	6
O	3.281327	1.578996	-0.435132	8
H	-2.418093	-0.261254	1.464648	1
H	-2.734003	-1.565974	0.308158	1
H	-2.687303	0.116506	-0.246122	1
H	-0.322703	-1.495954	0.867748	1
H	-0.851593	-0.299114	-1.980732	1
H	0.644357	-1.208784	-1.466842	1
H	1.937397	-0.489164	0.232278	1
H	1.289017	0.525536	1.542628	1
H	1.567017	2.578436	-0.021752	1
Es	2.107379	1.616191	-0.070002	99
Es	3.281024	1.579003	-0.435035	99
Es	-0.564867	-0.862838	-0.550491	99
Es	1.728769	1.011155	0.183174	99
Es	-0.766272	-0.755428	0.211787	99
Es	3.400583	1.288955	-0.422870	99
Es	-2.533635	-0.117017	-0.028181	99
Es	-2.230821	-0.603216	0.441900	99
Es	0.013991	0.430234	-0.133115	99
Es	-0.148574	0.743881	-0.160766	99
Es	-0.324924	-0.038341	0.158235	99
Es	0.607645	0.392394	0.117793	99
Es	1.316452	0.502855	1.184118	99
Es	3.393090	1.858421	-0.519666	99
Es	0.027675	0.062434	-0.673361	99
Es	-2.564291	-1.261116	0.351072	99
Es	-2.352927	-0.372763	1.138333	99
Es	1.743213	-0.203187	0.301361	99
Es	-0.637520	-0.390165	-1.720301	99
Es	-0.188347	-0.581634	-1.170797	99
Es	0.385010	-0.999150	-1.366788	99
Es	2.775205	1.549862	-0.541503	99
Es	-0.449960	-1.253278	0.660174	99
Es	1.358961	0.414378	0.455399	99
Es	-1.497065	-0.668041	0.321340	99
Es	2.928693	1.632807	-0.067429	99
Es	1.726260	2.264658	-0.036667	99
43
Properties=species:S:1:pos:R:3:Z:I:1 energy=-323.94466886056654 field_type=dipole dipole="0.000000 0.000000 0.000000" charge=0
C	-2.230843	-0.603204	0.441898	6
C	-0.766393	-0.755604	0.211908	6
C	-0.188363	-0.581774	-1.171012	6
N	0.013737	0.430826	-0.133142	7
C	1.359077	0.414316	0.455458	6
C	2.107367	1.616216	-0.069992	6
O	3.281327	1.578996	-0.435132	8
H	-2.418093	-0.261254	1.464648	1
H	-2.734003	-1.565974	0.308158	1
H	-2.687303	0.116506	-0.246122	1
H	-0.322703	-1.495954	0.867748	1
H	-0.851593	-0.299114	-1.980732	1
H	0.644357	-1.208784	-1.466842	1
H	1.937397	-0.489164	0.232278	1
H	1.289017	0.525536	1.542628	1
H	1.567017	2.578436	-0.021752	1
Es	-2.352892	-0.372799	1.138375	99
Es	-0.324972	-0.038182	0.158419	99
Es	-2.533643	-0.116989	-0.028148	99
Es	1.316506	0.502877	1.184122	99
Es	1.726257	2.264727	-0.036677	99
Es	1.728751	1.011107	0.183148	99
Es	0.027680	0.062514	-0.673426	99
Es	3.281025	1.578966	-0.435031	99
Es	-1.497129	-0.668109	0.321307	99
Es	2.107378	1.616190	-0.069998	99
Es	3.399620	1.288914	-0.423466	99
Es	3.394220	1.858182	-0.518525	99
Es	-0.637415	-0.390171	-1.720312	99
Es	-0.188347	-0.581633	-1.170797	99
Es	-0.148489	0.743548	-0.160759	99
Es	-0.450000	-1.253241	0.660055	99
Es	2.774609	1.550996	-0.541982	99
Es	-0.564894	-0.863008	-0.550605	99
Es	1.358966	0.414378	0.455403	99
Es	-2.564295	-1.261100	0.351037	99
Es	2.929120	1.631925	-0.067465	99
Es	1.743222	-0.203169	0.301356	99
Es	0.384956	-0.999076	-1.366768	99
Es	0.607595	0.392584	0.117869	99
Es	0.014003	0.430263	-0.133106	99
Es	-0.766267	-0.755421	0.211786	99
Es	-2.230818	-0.603216	0.441901	99
