39
Properties=species:S:1:pos:R:3:Z:I:1 energy=-338.86183507797693 field_type=dipole dipole="0.000000 0.000000 0.000000" charge=0
C	-1.968951	-0.219748	0.478218	6
C	-0.677111	-0.106758	0.165878	6
C	0.159109	1.147302	0.092298	6
N	1.437439	0.616592	-0.307802	7
C	1.408639	-0.760618	-0.448532	6
O	2.343719	-1.469198	-0.770692	8
N	0.121169	-1.167938	-0.155512	7
H	-2.468731	-1.182688	0.495958	1
H	-2.562881	0.654852	0.723448	1
H	0.269109	1.637842	1.062868	1
H	-0.190661	1.845252	-0.672352	1
H	2.282849	1.142912	-0.471382	1
H	-0.153701	-2.137808	-0.192402	1
Es	-0.676836	-0.106828	0.165800	99
Es	-1.968993	-0.219752	0.478237	99
Es	-0.249463	-0.719338	-0.039611	99
Es	-0.091269	1.615875	-0.416665	99
Es	2.595894	-1.299024	-0.819785	99
Es	-0.050164	-1.733037	-0.187491	99
Es	-2.302688	-0.874499	0.488962	99
Es	1.437225	0.616439	-0.308397	99
Es	1.918395	0.937924	-0.424867	99
Es	0.670036	-1.003960	-0.318442	99
Es	-1.454749	-0.124776	0.017470	99
Es	0.217284	1.476700	0.747995	99
Es	2.258558	-1.765654	-0.779856	99
Es	-2.370112	0.372057	0.644175	99
Es	1.408446	-0.760491	-0.448476	99
Es	0.159243	1.147165	0.092246	99
Es	1.495112	0.383924	-0.095094	99
Es	-1.294159	-0.195721	0.654148	99
Es	2.101829	-1.265583	-0.426576	99
Es	0.180630	-1.092624	-0.080963	99
Es	0.121043	-1.167435	-0.156656	99
Es	0.897239	0.873033	-0.157275	99
Es	-0.270746	0.526453	0.132617	99
Es	1.382544	0.138387	-0.551130	99
Es	2.343458	-1.469003	-0.770603	99
Es	1.974328	-1.214696	-0.903563	99
39
Properties=species:S:1:pos:R:3:Z:I:1 energy=-338.86183507797693 field_type=dipole dipole="0.000000 0.000000 0.000000" charge=0
C	-1.968951	-0.219748	0.478218	6
C	-0.677111	-0.106758	0.165878	6
C	0.159109	1.147302	0.092298	6
N	1.437439	0.616592	-0.307802	7
C	1.408639	-0.760618	-0.448532	6
O	2.343719	-1.469198	-0.770692	8
N	0.121169	-1.167938	-0.155512	7
H	-2.468731	-1.182688	0.495958	1
H	-2.562881	0.654852	0.723448	1
H	0.269109	1.637842	1.062868	1
H	-0.190661	1.845252	-0.672352	1
H	2.282849	1.142912	-0.471382	1
H	-0.153701	-2.137808	-0.192402	1
Es	-2.302672	-0.874494	0.488944	99
Es	0.190480	-1.094370	-0.051731	99
Es	-0.250664	-0.720028	-0.050419	99
Es	2.343441	-1.468989	-0.770599	99
Es	2.262661	-1.766761	-0.780947	99
Es	1.932024	0.931702	-0.372760	99
Es	-0.676838	-0.106828	0.165799	99
Es	1.373458	0.449583	-0.556883	99
Es	-1.294162	-0.195799	0.654091	99
Es	0.216937	1.476618	0.747842	99
Es	-0.051043	-1.731828	-0.191047	99
Es	-1.454722	-0.124714	0.017565	99
Es	-2.370117	0.372054	0.644229	99
Es	-0.091026	1.615999	-0.416881	99
Es	0.159243	1.147166	0.092248	99
Es	1.408447	-0.760489	-0.448467	99
Es	0.662033	-1.003218	-0.333048	99
Es	0.121177	-1.167053	-0.156837	99
Es	-0.270764	0.526502	0.132527	99
Es	2.098290	-1.266899	-0.427418	99
Es	0.908118	0.868038	-0.115582	99
Es	1.479724	0.084004	-0.183375	99
Es	2.594279	-1.295413	-0.816826	99
Es	1.437536	0.616315	-0.307247	99
Es	-1.968991	-0.219748	0.478211	99
Es	1.975234	-1.215812	-0.905187	99
39
Properties=species:S:1:pos:R:3:Z:I:1 energy=-338.86183507797693 field_type=dipole dipole="0.000000 0.000000 0.000000" charge=0
C	-1.968951	-0.219748	0.478218	6
C	-0.677111	-0.106758	0.165878	6
C	0.159109	1.147302	0.092298	6
N	1.437439	0.616592	-0.307802	7
C	1.408639	-0.760618	-0.448532	6
O	2.343719	-1.469198	-0.770692	8
N	0.121169	-1.167938	-0.155512	7
H	-2.468731	-1.182688	0.495958	1
H	-2.562881	0.654852	0.723448	1
H	0.269109	1.637842	1.062868	1
H	-0.190661	1.845252	-0.672352	1
H	2.282849	1.142912	-0.471382	1
H	-0.153701	-2.137808	-0.192402	1
Es	1.494545	0.388654	-0.097196	99
Es	2.257152	-1.764728	-0.780957	99
Es	0.897025	0.873008	-0.157860	99
Es	-0.091233	1.615882	-0.416569	99
Es	1.918046	0.937903	-0.425697	99
Es	-1.454641	-0.124759	0.017703	99
Es	-2.370120	0.372037	0.644205	99
Es	2.103396	-1.266770	-0.425642	99
Es	-1.968994	-0.219751	0.478231	99
Es	1.437403	0.616554	-0.307740	99
Es	0.654059	-1.002654	-0.345665	99
Es	1.383603	0.133589	-0.548392	99
Es	-1.294180	-0.195858	0.654092	99
Es	0.159242	1.147166	0.092247	99
Es	1.973796	-1.212947	-0.902680	99
Es	-0.051879	-1.730438	-0.194962	99
Es	-0.676838	-0.106828	0.165802	99
Es	-0.251207	-0.721249	-0.059641	99
Es	2.343517	-1.469055	-0.770629	99
Es	0.217248	1.476675	0.747955	99
Es	-0.270905	0.526625	0.132437	99
Es	2.596238	-1.300442	-0.820340	99
Es	1.408447	-0.760490	-0.448469	99
Es	0.199928	-1.094952	-0.026074	99
Es	-2.302690	-0.874483	0.488889	99
Es	0.121128	-1.167152	-0.156848	99
39
Properties=species:S:1:pos:R:3:Z:I:1 energy=-338.86183507797693 field_type=dipole dipole="0.000000 0.000000 0.000000" charge=0
C	-1.968951	-0.219748	0.478218	6
C	-0.677111	-0.106758	0.165878	6
C	0.159109	1.147302	0.092298	6
N	1.437439	0.616592	-0.307802	7
C	1.408639	-0.760618	-0.448532	6
O	2.343719	-1.469198	-0.770692	8
N	0.121169	-1.167938	-0.155512	7
H	-2.468731	-1.182688	0.495958	1
H	-2.562881	0.654852	0.723448	1
H	0.269109	1.637842	1.062868	1
H	-0.190661	1.845252	-0.672352	1
H	2.282849	1.142912	-0.471382	1
H	-0.153701	-2.137808	-0.192402	1
Es	-0.051786	-1.730473	-0.195517	99
Es	1.494451	0.394304	-0.096886	99
Es	-0.091247	1.615880	-0.416511	99
Es	0.121121	-1.167166	-0.156827	99
Es	-2.302748	-0.874468	0.488915	99
Es	1.974448	-1.213882	-0.903631	99
Es	0.896826	0.873100	-0.160009	99
Es	0.159241	1.147167	0.092246	99
Es	-0.270942	0.526686	0.132517	99
Es	-1.968996	-0.219751	0.478230	99
Es	2.258990	-1.765362	-0.781145	99
Es	0.198302	-1.094971	-0.027883	99
Es	-0.676835	-0.106829	0.165801	99
Es	2.343436	-1.469022	-0.770598	99
Es	2.595477	-1.299081	-0.818991	99
Es	1.917294	0.937632	-0.427646	99
Es	1.437321	0.616547	-0.308046	99
Es	0.655609	-1.002641	-0.343029	99
Es	-1.294165	-0.195876	0.654036	99
Es	-2.370062	0.371997	0.644186	99
Es	-1.454634	-0.124748	0.017708	99
Es	0.217236	1.476676	0.747898	99
Es	1.384811	0.128123	-0.544393	99
Es	2.101750	-1.266580	-0.425836	99
Es	-0.251263	-0.721235	-0.059920	99
Es	1.408447	-0.760489	-0.448467	99
39
Properties=species:S:1:pos:R:3:Z:I:1 energy=-338.86183507797693 field_type=dipole dipole="0.000000 0.000000 0.000000" charge=0
C	-1.968951	-0.219748	0.478218	6
C	-0.677111	-0.106758	0.165878	6
C	0.159109	1.147302	0.092298	6
N	1.437439	0.616592	-0.307802	7
C	1.408639	-0.760618	-0.448532	6
O	2.343719	-1.469198	-0.770692	8
N	0.121169	-1.167938	-0.155512	7
H	-2.468731	-1.182688	0.495958	1
H	-2.562881	0.654852	0.723448	1
H	0.269109	1.637842	1.062868	1
H	-0.190661	1.845252	-0.672352	1
H	2.282849	1.142912	-0.471382	1
H	-0.153701	-2.137808	-0.192402	1
Es	-0.676839	-0.106828	0.165805	99
Es	2.098238	-1.267171	-0.426384	99
Es	0.130793	-1.067216	-0.281461	99
Es	-1.455083	-0.125233	0.017211	99
Es	1.499164	0.356321	-0.085312	99
Es	2.263111	-1.766402	-0.782501	99
Es	0.217217	1.476711	0.747809	99
Es	1.437291	0.616494	-0.308150	99
Es	2.593691	-1.295840	-0.815687	99
Es	-0.227083	-0.731429	0.032711	99
Es	-1.293954	-0.195406	0.653438	99
Es	1.975535	-1.215557	-0.905433	99
Es	1.377872	0.165710	-0.565883	99
Es	2.343439	-1.468921	-0.770589	99
Es	-0.091317	1.615835	-0.416557	99
Es	-0.041438	-1.734931	-0.154982	99
Es	-2.302654	-0.874426	0.489156	99
Es	1.917933	0.937931	-0.422496	99
Es	1.408446	-0.760489	-0.448466	99
Es	0.121974	-1.167233	-0.153971	99
Es	0.159239	1.147171	0.092248	99
Es	-2.370068	0.371983	0.644338	99
Es	0.687791	-1.015804	-0.225089	99
Es	-0.270757	0.526639	0.133231	99
Es	-1.968991	-0.219751	0.478237	99
Es	0.898530	0.873379	-0.155019	99
39
Properties=species:S:1:pos:R:3:Z:I:1 energy=-338.86183507797693 field_type=dipole dipole="0.000000 0.000000 0.000000" charge=0
C	-1.968951	-0.219748	0.478218	6
C	-0.677111	-0.106758	0.165878	6
C	0.159109	1.147302	0.092298	6
N	1.437439	0.616592	-0.307802	7
C	1.408639	-0.760618	-0.448532	6
O	2.343719	-1.469198	-0.770692	8
N	0.121169	-1.167938	-0.155512	7
H	-2.468731	-1.182688	0.495958	1
H	-2.562881	0.654852	0.723448	1
H	0.269109	1.637842	1.062868	1
H	-0.190661	1.845252	-0.672352	1
H	2.282849	1.142912	-0.471382	1
H	-0.153701	-2.137808	-0.192402	1
Es	1.933725	0.934589	-0.397292	99
Es	-1.294116	-0.195992	0.653992	99
Es	0.121100	-1.167378	-0.156586	99
Es	-1.454622	-0.124780	0.017807	99
Es	-2.302709	-0.874389	0.488932	99
Es	2.103950	-1.266904	-0.424999	99
Es	0.159241	1.147168	0.092247	99
Es	1.408446	-0.760489	-0.448467	99
Es	1.437664	0.580557	-0.303355	99
Es	2.343449	-1.468937	-0.770588	99
Es	2.595577	-1.300242	-0.821268	99
Es	-0.676832	-0.106828	0.165823	99
Es	1.973181	-1.212921	-0.902795	99
Es	-0.251453	-0.722825	-0.069708	99
Es	-1.968992	-0.219752	0.478230	99
Es	1.424325	0.547748	-0.350457	99
Es	0.217098	1.476624	0.747818	99
Es	0.647275	-1.002479	-0.353774	99
Es	-0.052528	-1.728936	-0.198761	99
Es	-2.370116	0.371940	0.644146	99
Es	-0.271013	0.526903	0.132470	99
Es	-0.091019	1.616012	-0.416640	99
Es	1.437997	0.017021	-0.354047	99
Es	0.207379	-1.094959	-0.004411	99
Es	2.257788	-1.764798	-0.780915	99
Es	0.897287	0.869584	-0.131200	99
39
Properties=species:S:1:pos:R:3:Z:I:1 energy=-338.86183507797693 field_type=dipole dipole="0.000000 0.000000 0.000000" charge=0
C	-1.968951	-0.219748	0.478218	6
C	-0.677111	-0.106758	0.165878	6
C	0.159109	1.147302	0.092298	6
N	1.437439	0.616592	-0.307802	7
C	1.408639	-0.760618	-0.448532	6
O	2.343719	-1.469198	-0.770692	8
N	0.121169	-1.167938	-0.155512	7
H	-2.468731	-1.182688	0.495958	1
H	-2.562881	0.654852	0.723448	1
H	0.269109	1.637842	1.062868	1
H	-0.190661	1.845252	-0.672352	1
H	2.282849	1.142912	-0.471382	1
H	-0.153701	-2.137808	-0.192402	1
Es	0.159243	1.147167	0.092249	99
Es	0.127611	-1.062805	-0.301583	99
Es	2.597262	-1.300465	-0.815547	99
Es	2.257462	-1.764276	-0.783178	99
Es	0.909056	0.868356	-0.115292	99
Es	-0.676833	-0.106826	0.165804	99
Es	-1.968985	-0.219750	0.478220	99
Es	-1.293976	-0.195412	0.653378	99
Es	2.343434	-1.468977	-0.770598	99
Es	1.408445	-0.760489	-0.448471	99
Es	1.930989	0.931704	-0.373286	99
Es	-0.091179	1.615881	-0.416763	99
Es	-0.270644	0.526798	0.133140	99
Es	1.977401	-1.212332	-0.905667	99
Es	1.369972	0.434291	-0.571162	99
Es	-0.223700	-0.734154	0.038914	99
Es	-2.302626	-0.874367	0.489120	99
Es	1.483591	0.098993	-0.168827	99
Es	0.121721	-1.167525	-0.154373	99
Es	2.098262	-1.267716	-0.426301	99
Es	1.437513	0.616311	-0.307312	99
Es	-0.040423	-1.734389	-0.151544	99
Es	-1.455024	-0.125354	0.017296	99
Es	0.686731	-1.017768	-0.214137	99
Es	0.216886	1.476661	0.747756	99
Es	-2.370106	0.371982	0.644366	99
39
Properties=species:S:1:pos:R:3:Z:I:1 energy=-338.86183507797693 field_type=dipole dipole="0.000000 0.000000 0.000000" charge=0
C	-1.968951	-0.219748	0.478218	6
C	-0.677111	-0.106758	0.165878	6
C	0.159109	1.147302	0.092298	6
N	1.437439	0.616592	-0.307802	7
C	1.408639	-0.760618	-0.448532	6
O	2.343719	-1.469198	-0.770692	8
N	0.121169	-1.167938	-0.155512	7
H	-2.468731	-1.182688	0.495958	1
H	-2.562881	0.654852	0.723448	1
H	0.269109	1.637842	1.062868	1
H	-0.190661	1.845252	-0.672352	1
H	2.282849	1.142912	-0.471382	1
H	-0.153701	-2.137808	-0.192402	1
Es	-2.370097	0.371913	0.644379	99
Es	2.098375	-1.264569	-0.426932	99
Es	1.483859	0.100529	-0.167498	99
Es	2.343458	-1.468964	-0.770598	99
Es	0.216838	1.476675	0.747644	99
Es	-0.221836	-0.735815	0.042239	99
Es	-0.039608	-1.733995	-0.149623	99
Es	0.685511	-1.019022	-0.206875	99
Es	1.369650	0.432891	-0.573306	99
Es	0.909360	0.868344	-0.115065	99
Es	-0.091106	1.615889	-0.416736	99
Es	0.121558	-1.167695	-0.154610	99
Es	1.976712	-1.214888	-0.908047	99
Es	-2.302630	-0.874372	0.489109	99
Es	1.437494	0.616372	-0.307397	99
Es	-1.455003	-0.125382	0.017304	99
Es	-0.270830	0.526904	0.133237	99
Es	1.408444	-0.760487	-0.448467	99
Es	0.126388	-1.060103	-0.313772	99
Es	1.930866	0.931475	-0.372549	99
Es	-1.968992	-0.219751	0.478233	99
Es	-1.293975	-0.195401	0.653271	99
Es	0.159241	1.147167	0.092248	99
Es	2.258633	-1.764328	-0.778997	99
Es	-0.676844	-0.106827	0.165803	99
Es	2.596618	-1.301021	-0.816793	99
39
Properties=species:S:1:pos:R:3:Z:I:1 energy=-338.86183507797693 field_type=dipole dipole="0.000000 0.000000 0.000000" charge=0
C	-1.968951	-0.219748	0.478218	6
C	-0.677111	-0.106758	0.165878	6
C	0.159109	1.147302	0.092298	6
N	1.437439	0.616592	-0.307802	7
C	1.408639	-0.760618	-0.448532	6
O	2.343719	-1.469198	-0.770692	8
N	0.121169	-1.167938	-0.155512	7
H	-2.468731	-1.182688	0.495958	1
H	-2.562881	0.654852	0.723448	1
H	0.269109	1.637842	1.062868	1
H	-0.190661	1.845252	-0.672352	1
H	2.282849	1.142912	-0.471382	1
H	-0.153701	-2.137808	-0.192402	1
Es	-2.370109	0.371903	0.644162	99
Es	-1.294186	-0.195740	0.653843	99
Es	0.143573	-1.128717	-0.142807	99
Es	-1.968990	-0.219751	0.478225	99
Es	2.595210	-1.298888	-0.817538	99
Es	-0.270816	0.527008	0.132888	99
Es	0.216848	1.476643	0.747614	99
Es	-2.302722	-0.874336	0.488932	99
Es	1.930834	0.931349	-0.372336	99
Es	0.682679	-1.007356	-0.282986	99
Es	1.974870	-1.213477	-0.905222	99
Es	0.136427	-1.124796	-0.171611	99
Es	1.483792	0.101244	-0.167243	99
Es	2.259903	-1.765269	-0.781412	99
Es	2.100385	-1.267160	-0.426377	99
Es	1.369459	0.432483	-0.574161	99
Es	-1.454457	-0.125098	0.017545	99
Es	-0.243886	-0.720628	-0.010790	99
Es	1.437500	0.616379	-0.307369	99
Es	0.159241	1.147168	0.092248	99
Es	-0.091087	1.615923	-0.416684	99
Es	1.408444	-0.760489	-0.448469	99
Es	-0.676842	-0.106828	0.165804	99
Es	-0.047081	-1.735370	-0.174801	99
Es	0.909632	0.868310	-0.114653	99
Es	2.343463	-1.468967	-0.770600	99
39
Properties=species:S:1:pos:R:3:Z:I:1 energy=-338.86183507797693 field_type=dipole dipole="0.000000 0.000000 0.000000" charge=0
C	-1.968951	-0.219748	0.478218	6
C	-0.677111	-0.106758	0.165878	6
C	0.159109	1.147302	0.092298	6
N	1.437439	0.616592	-0.307802	7
C	1.408639	-0.760618	-0.448532	6
O	2.343719	-1.469198	-0.770692	8
N	0.121169	-1.167938	-0.155512	7
H	-2.468731	-1.182688	0.495958	1
H	-2.562881	0.654852	0.723448	1
H	0.269109	1.637842	1.062868	1
H	-0.190661	1.845252	-0.672352	1
H	2.282849	1.142912	-0.471382	1
H	-0.153701	-2.137808	-0.192402	1
Es	-0.047140	-1.735324	-0.175507	99
Es	-0.091048	1.615891	-0.416598	99
Es	0.217090	1.476743	0.747787	99
Es	1.408446	-0.760490	-0.448467	99
Es	-1.454699	-0.125150	0.017538	99
Es	1.429762	0.567093	-0.331763	99
Es	1.434709	0.017834	-0.366988	99
Es	0.136657	-1.125847	-0.169740	99
Es	1.974202	-1.212888	-0.904868	99
Es	-1.293950	-0.195740	0.653728	99
Es	-2.370111	0.371897	0.644179	99
Es	2.256117	-1.763020	-0.780176	99
Es	1.437561	0.559675	-0.301808	99
Es	1.932932	0.934804	-0.401018	99
Es	2.596896	-1.302923	-0.820842	99
Es	-0.676840	-0.106828	0.165802	99
Es	-1.968980	-0.219752	0.478239	99
Es	-0.270848	0.527162	0.132806	99
Es	-2.302701	-0.874308	0.489007	99
Es	0.681788	-1.006840	-0.285158	99
Es	2.103179	-1.265911	-0.424194	99
Es	-0.244510	-0.720473	-0.012727	99
Es	0.144800	-1.128403	-0.139811	99
Es	0.159240	1.147168	0.092248	99
Es	2.343448	-1.469023	-0.770603	99
Es	0.896083	0.870190	-0.134866	99
39
Properties=species:S:1:pos:R:3:Z:I:1 energy=-338.86183507797693 field_type=dipole dipole="0.000000 0.000000 0.000000" charge=0
C	-1.968951	-0.219748	0.478218	6
C	-0.677111	-0.106758	0.165878	6
C	0.159109	1.147302	0.092298	6
N	1.437439	0.616592	-0.307802	7
C	1.408639	-0.760618	-0.448532	6
O	2.343719	-1.469198	-0.770692	8
N	0.121169	-1.167938	-0.155512	7
H	-2.468731	-1.182688	0.495958	1
H	-2.562881	0.654852	0.723448	1
H	0.269109	1.637842	1.062868	1
H	-0.190661	1.845252	-0.672352	1
H	2.282849	1.142912	-0.471382	1
H	-0.153701	-2.137808	-0.192402	1
Es	-0.676835	-0.106826	0.165805	99
Es	-1.968986	-0.219748	0.478227	99
Es	0.159241	1.147168	0.092247	99
Es	0.137440	-1.122854	-0.171140	99
Es	2.258467	-1.764536	-0.781648	99
Es	-2.302738	-0.874317	0.488930	99
Es	-0.047085	-1.735376	-0.174842	99
Es	1.929848	0.932061	-0.374668	99
Es	1.367804	0.415711	-0.582854	99
Es	2.099158	-1.266323	-0.425723	99
Es	1.408447	-0.760489	-0.448468	99
Es	2.343453	-1.468996	-0.770599	99
Es	-2.370086	0.371883	0.644202	99
Es	2.595835	-1.301082	-0.816326	99
Es	-0.091049	1.615879	-0.416593	99
Es	1.486884	0.116603	-0.153795	99
Es	1.437441	0.616455	-0.307586	99
Es	0.682218	-1.007164	-0.284676	99
Es	0.143274	-1.130973	-0.140291	99
Es	-1.454726	-0.125098	0.017696	99
Es	1.976929	-1.212808	-0.906841	99
Es	-0.244249	-0.720567	-0.012082	99
Es	-0.270851	0.527095	0.132882	99
Es	-1.293877	-0.195801	0.653629	99
Es	0.909303	0.868969	-0.116902	99
Es	0.216825	1.476671	0.747616	99
39
Properties=species:S:1:pos:R:3:Z:I:1 energy=-338.86183507797693 field_type=dipole dipole="0.000000 0.000000 0.000000" charge=0
C	-1.968951	-0.219748	0.478218	6
C	-0.677111	-0.106758	0.165878	6
C	0.159109	1.147302	0.092298	6
N	1.437439	0.616592	-0.307802	7
C	1.408639	-0.760618	-0.448532	6
O	2.343719	-1.469198	-0.770692	8
N	0.121169	-1.167938	-0.155512	7
H	-2.468731	-1.182688	0.495958	1
H	-2.562881	0.654852	0.723448	1
H	0.269109	1.637842	1.062868	1
H	-0.190661	1.845252	-0.672352	1
H	2.282849	1.142912	-0.471382	1
H	-0.153701	-2.137808	-0.192402	1
Es	2.595569	-1.300856	-0.817475	99
Es	-2.369997	0.371852	0.644348	99
Es	2.099874	-1.265119	-0.425498	99
Es	0.896071	0.870245	-0.134868	99
Es	1.429297	0.563500	-0.333364	99
Es	0.217081	1.476719	0.747657	99
Es	-0.676838	-0.106823	0.165800	99
Es	-0.091253	1.615875	-0.416624	99
Es	0.684078	-1.019814	-0.201840	99
Es	-0.220309	-0.737362	0.044696	99
Es	2.343472	-1.468992	-0.770605	99
Es	0.124679	-1.059344	-0.324044	99
Es	-1.454898	-0.125499	0.017423	99
Es	0.122167	-1.166872	-0.153966	99
Es	-2.302739	-0.874280	0.489148	99
Es	-1.968981	-0.219744	0.478228	99
Es	2.259117	-1.764473	-0.780052	99
Es	1.932995	0.934760	-0.400728	99
Es	-0.038788	-1.733423	-0.147441	99
Es	1.434912	0.017885	-0.366873	99
Es	0.159240	1.147168	0.092247	99
Es	-1.293978	-0.195533	0.653117	99
Es	1.975728	-1.214284	-0.907341	99
Es	1.408446	-0.760490	-0.448467	99
Es	-0.270843	0.527223	0.133430	99
Es	1.437983	0.563217	-0.300706	99
