46
Properties=species:S:1:pos:R:3:Z:I:1 energy=-325.11612394923935 field_type=dipole dipole="0.000000 0.000000 0.000000" charge=0
C	-1.676239	-0.418260	0.791557	6
C	-0.187629	-0.465209	0.839777	6
C	0.647231	-1.184720	-0.189763	6
O	-0.020749	-1.777830	-1.314233	8
C	0.709131	0.335410	-0.093213	6
C	0.126922	1.168630	-1.209763	6
N	1.915881	0.940720	0.514437	7
H	-2.044069	0.342731	1.486997	1
H	-2.087718	-1.383290	1.103677	1
H	-2.081928	-0.185879	-0.195023	1
H	0.134971	-0.585739	1.870737	1
H	1.512611	-1.731239	0.176137	1
H	-0.898889	-1.404130	-1.485023	1
H	-0.737988	0.711990	-1.697193	1
H	0.882921	1.337310	-1.985093	1
H	-0.188838	2.144930	-0.825513	1
H	2.316521	0.338500	1.231947	1
H	1.677851	1.816071	0.979547	1
Es	0.402507	0.741436	-0.646630	99
Es	0.636171	1.280001	-1.728605	99
Es	1.748196	1.456391	0.807606	99
Es	1.381795	0.671179	0.279470	99
Es	2.158348	1.005246	0.267718	99
Es	-0.465519	0.847415	-1.529087	99
Es	0.126914	1.168603	-1.209722	99
Es	-1.943960	-0.263709	0.108807	99
Es	-0.187570	-0.465224	0.839657	99
Es	-0.020878	-1.777547	-1.314096	99
Es	-1.921561	0.100557	1.261566	99
Es	0.178865	0.092685	0.461475	99
Es	0.647036	-1.184672	-0.189909	99
Es	0.709182	0.335352	-0.093093	99
Es	-0.930777	-0.442961	0.783583	99
Es	2.131045	0.569217	0.957605	99
Es	-1.676214	-0.418257	0.791542	99
Es	0.201867	-1.523049	-0.884748	99
Es	-0.070623	-2.060625	-1.227305	99
Es	-1.953861	-1.073372	1.003291	99
Es	1.231422	-1.559096	0.053193	99
Es	0.046443	-0.539776	1.539998	99
Es	0.148577	-1.712466	-1.558842	99
Es	0.815338	-0.413407	-0.281975	99
Es	-0.485579	-1.554266	-1.375719	99
Es	1.915440	0.940611	0.514895	99
Es	0.155837	-0.984886	0.390289	99
Es	-0.087768	1.831297	-0.940571	99
46
Properties=species:S:1:pos:R:3:Z:I:1 energy=-325.11612394923935 field_type=dipole dipole="0.000000 0.000000 0.000000" charge=0
C	-1.676239	-0.418260	0.791557	6
C	-0.187629	-0.465209	0.839777	6
C	0.647231	-1.184720	-0.189763	6
O	-0.020749	-1.777830	-1.314233	8
C	0.709131	0.335410	-0.093213	6
C	0.126922	1.168630	-1.209763	6
N	1.915881	0.940720	0.514437	7
H	-2.044069	0.342731	1.486997	1
H	-2.087718	-1.383290	1.103677	1
H	-2.081928	-0.185879	-0.195023	1
H	0.134971	-0.585739	1.870737	1
H	1.512611	-1.731239	0.176137	1
H	-0.898889	-1.404130	-1.485023	1
H	-0.737988	0.711990	-1.697193	1
H	0.882921	1.337310	-1.985093	1
H	-0.188838	2.144930	-0.825513	1
H	2.316521	0.338500	1.231947	1
H	1.677851	1.816071	0.979547	1
Es	0.155703	-0.985089	0.390411	99
Es	-1.676214	-0.418258	0.791542	99
Es	1.748456	1.456728	0.807401	99
Es	-1.953976	-1.073415	1.003354	99
Es	1.915469	0.940612	0.514855	99
Es	0.402643	0.741453	-0.646601	99
Es	0.046395	-0.539787	1.539937	99
Es	-0.930798	-0.442764	0.783647	99
Es	1.231333	-1.559076	0.053183	99
Es	-0.087750	1.831329	-0.940603	99
Es	-0.465531	0.847381	-1.529153	99
Es	0.815412	-0.413269	-0.282071	99
Es	0.126914	1.168602	-1.209721	99
Es	0.201911	-1.524220	-0.884068	99
Es	-0.484775	-1.553808	-1.374715	99
Es	-1.921504	0.100599	1.261459	99
Es	0.636140	1.279989	-1.728523	99
Es	0.145254	-1.705296	-1.555146	99
Es	-0.020855	-1.777545	-1.313958	99
Es	-0.068184	-2.067103	-1.232827	99
Es	2.131321	0.569217	0.957591	99
Es	0.709179	0.335342	-0.093091	99
Es	-0.187566	-0.465223	0.839652	99
Es	1.381688	0.671049	0.279526	99
Es	2.157907	1.004971	0.267930	99
Es	0.647036	-1.184669	-0.189907	99
Es	-1.943889	-0.263693	0.108816	99
Es	0.178953	0.092615	0.461473	99
46
Properties=species:S:1:pos:R:3:Z:I:1 energy=-325.11612394923935 field_type=dipole dipole="0.000000 0.000000 0.000000" charge=0
C	-1.676239	-0.418260	0.791557	6
C	-0.187629	-0.465209	0.839777	6
C	0.647231	-1.184720	-0.189763	6
O	-0.020749	-1.777830	-1.314233	8
C	0.709131	0.335410	-0.093213	6
C	0.126922	1.168630	-1.209763	6
N	1.915881	0.940720	0.514437	7
H	-2.044069	0.342731	1.486997	1
H	-2.087718	-1.383290	1.103677	1
H	-2.081928	-0.185879	-0.195023	1
H	0.134971	-0.585739	1.870737	1
H	1.512611	-1.731239	0.176137	1
H	-0.898889	-1.404130	-1.485023	1
H	-0.737988	0.711990	-1.697193	1
H	0.882921	1.337310	-1.985093	1
H	-0.188838	2.144930	-0.825513	1
H	2.316521	0.338500	1.231947	1
H	1.677851	1.816071	0.979547	1
Es	0.636147	1.280013	-1.728612	99
Es	0.201796	-1.523963	-0.884046	99
Es	1.748406	1.456665	0.807454	99
Es	-0.187568	-0.465224	0.839655	99
Es	1.381752	0.671052	0.278967	99
Es	1.915476	0.940607	0.514838	99
Es	-0.484564	-1.552995	-1.376510	99
Es	-0.087785	1.831290	-0.940595	99
Es	-1.676214	-0.418257	0.791542	99
Es	-0.020839	-1.777693	-1.314142	99
Es	-1.953979	-1.073439	1.003298	99
Es	0.155653	-0.985261	0.390547	99
Es	1.231272	-1.559003	0.053134	99
Es	-1.943936	-0.263652	0.108904	99
Es	-0.465498	0.847418	-1.529085	99
Es	0.148554	-1.711576	-1.557658	99
Es	-0.930699	-0.442748	0.783667	99
Es	0.402636	0.741423	-0.646536	99
Es	2.131273	0.569161	0.957592	99
Es	-0.071570	-2.061774	-1.228400	99
Es	0.647035	-1.184655	-0.189894	99
Es	0.126914	1.168602	-1.209720	99
Es	0.179000	0.092710	0.461474	99
Es	0.709187	0.335346	-0.093097	99
Es	-1.921523	0.100546	1.261481	99
Es	0.815482	-0.413234	-0.282128	99
Es	2.157925	1.005118	0.268443	99
Es	0.046339	-0.539802	1.539818	99
46
Properties=species:S:1:pos:R:3:Z:I:1 energy=-325.11612394923935 field_type=dipole dipole="0.000000 0.000000 0.000000" charge=0
C	-1.676239	-0.418260	0.791557	6
C	-0.187629	-0.465209	0.839777	6
C	0.647231	-1.184720	-0.189763	6
O	-0.020749	-1.777830	-1.314233	8
C	0.709131	0.335410	-0.093213	6
C	0.126922	1.168630	-1.209763	6
N	1.915881	0.940720	0.514437	7
H	-2.044069	0.342731	1.486997	1
H	-2.087718	-1.383290	1.103677	1
H	-2.081928	-0.185879	-0.195023	1
H	0.134971	-0.585739	1.870737	1
H	1.512611	-1.731239	0.176137	1
H	-0.898889	-1.404130	-1.485023	1
H	-0.737988	0.711990	-1.697193	1
H	0.882921	1.337310	-1.985093	1
H	-0.188838	2.144930	-0.825513	1
H	2.316521	0.338500	1.231947	1
H	1.677851	1.816071	0.979547	1
Es	1.915517	0.940621	0.514797	99
Es	-1.953987	-1.073324	1.003337	99
Es	-1.676214	-0.418257	0.791541	99
Es	-0.930617	-0.442938	0.783616	99
Es	0.155740	-0.985404	0.390650	99
Es	-0.187565	-0.465226	0.839651	99
Es	0.815606	-0.413258	-0.282126	99
Es	-0.484122	-1.552570	-1.377334	99
Es	1.231198	-1.558970	0.053080	99
Es	0.709184	0.335343	-0.093094	99
Es	0.126914	1.168602	-1.209721	99
Es	2.157840	1.005067	0.267751	99
Es	2.131462	0.569299	0.957543	99
Es	-0.087795	1.831297	-0.940616	99
Es	0.148629	-1.712687	-1.557315	99
Es	0.647036	-1.184668	-0.189906	99
Es	0.201842	-1.523353	-0.884100	99
Es	0.636112	1.280012	-1.728626	99
Es	-0.020882	-1.777503	-1.314059	99
Es	-1.944026	-0.263700	0.108916	99
Es	0.178856	0.092868	0.461532	99
Es	-1.921479	0.100571	1.261496	99
Es	0.402748	0.741384	-0.646550	99
Es	1.748539	1.456570	0.807425	99
Es	1.381427	0.671107	0.279706	99
Es	-0.465515	0.847351	-1.529045	99
Es	0.046295	-0.539673	1.539784	99
Es	-0.072071	-2.061887	-1.227942	99
46
Properties=species:S:1:pos:R:3:Z:I:1 energy=-325.11612394923935 field_type=dipole dipole="0.000000 0.000000 0.000000" charge=0
C	-1.676239	-0.418260	0.791557	6
C	-0.187629	-0.465209	0.839777	6
C	0.647231	-1.184720	-0.189763	6
O	-0.020749	-1.777830	-1.314233	8
C	0.709131	0.335410	-0.093213	6
C	0.126922	1.168630	-1.209763	6
N	1.915881	0.940720	0.514437	7
H	-2.044069	0.342731	1.486997	1
H	-2.087718	-1.383290	1.103677	1
H	-2.081928	-0.185879	-0.195023	1
H	0.134971	-0.585739	1.870737	1
H	1.512611	-1.731239	0.176137	1
H	-0.898889	-1.404130	-1.485023	1
H	-0.737988	0.711990	-1.697193	1
H	0.882921	1.337310	-1.985093	1
H	-0.188838	2.144930	-0.825513	1
H	2.316521	0.338500	1.231947	1
H	1.677851	1.816071	0.979547	1
Es	0.178924	0.092853	0.461705	99
Es	0.709182	0.335344	-0.093092	99
Es	1.231108	-1.558934	0.053066	99
Es	0.046340	-0.539860	1.539699	99
Es	0.126914	1.168603	-1.209721	99
Es	-0.465558	0.847402	-1.529040	99
Es	2.131237	0.569246	0.957467	99
Es	-0.187562	-0.465220	0.839649	99
Es	-1.954049	-1.073453	1.003270	99
Es	-0.020906	-1.777556	-1.314093	99
Es	0.201917	-1.524202	-0.883430	99
Es	0.155678	-0.985407	0.390473	99
Es	-0.484669	-1.553049	-1.376777	99
Es	-1.943753	-0.263744	0.108929	99
Es	0.402691	0.741421	-0.646457	99
Es	0.815629	-0.413297	-0.282272	99
Es	-1.921656	0.100648	1.261377	99
Es	1.915489	0.940619	0.514834	99
Es	1.381537	0.671123	0.279358	99
Es	0.647035	-1.184667	-0.189904	99
Es	1.748551	1.456556	0.807570	99
Es	0.147200	-1.709365	-1.555614	99
Es	0.636090	1.280023	-1.728646	99
Es	2.158044	1.005081	0.268016	99
Es	-0.070131	-2.063856	-1.230845	99
Es	-0.087740	1.831281	-0.940573	99
Es	-0.930656	-0.442657	0.783905	99
Es	-1.676215	-0.418257	0.791541	99
46
Properties=species:S:1:pos:R:3:Z:I:1 energy=-325.11612394923935 field_type=dipole dipole="0.000000 0.000000 0.000000" charge=0
C	-1.676239	-0.418260	0.791557	6
C	-0.187629	-0.465209	0.839777	6
C	0.647231	-1.184720	-0.189763	6
O	-0.020749	-1.777830	-1.314233	8
C	0.709131	0.335410	-0.093213	6
C	0.126922	1.168630	-1.209763	6
N	1.915881	0.940720	0.514437	7
H	-2.044069	0.342731	1.486997	1
H	-2.087718	-1.383290	1.103677	1
H	-2.081928	-0.185879	-0.195023	1
H	0.134971	-0.585739	1.870737	1
H	1.512611	-1.731239	0.176137	1
H	-0.898889	-1.404130	-1.485023	1
H	-0.737988	0.711990	-1.697193	1
H	0.882921	1.337310	-1.985093	1
H	-0.188838	2.144930	-0.825513	1
H	2.316521	0.338500	1.231947	1
H	1.677851	1.816071	0.979547	1
Es	-0.069068	-2.061917	-1.229674	99
Es	-0.020858	-1.777586	-1.314078	99
Es	-0.087781	1.831278	-0.940609	99
Es	2.131220	0.569388	0.957565	99
Es	2.158062	1.004972	0.268117	99
Es	0.126916	1.168603	-1.209723	99
Es	-1.943916	-0.263730	0.108929	99
Es	0.402795	0.741391	-0.646453	99
Es	0.815764	-0.413303	-0.282301	99
Es	0.636063	1.280052	-1.728597	99
Es	0.647041	-1.184664	-0.189912	99
Es	1.748598	1.456628	0.807410	99
Es	-0.930616	-0.442924	0.783735	99
Es	0.178866	0.093068	0.461702	99
Es	0.201400	-1.523292	-0.883631	99
Es	1.915483	0.940622	0.514838	99
Es	0.155763	-0.985384	0.390644	99
Es	1.381498	0.671014	0.279297	99
Es	-1.921550	0.100618	1.261444	99
Es	-1.676215	-0.418257	0.791542	99
Es	0.147925	-1.710651	-1.556078	99
Es	-0.465528	0.847360	-1.529078	99
Es	0.709181	0.335346	-0.093093	99
Es	-0.485988	-1.554597	-1.377301	99
Es	-1.954009	-1.073387	1.003315	99
Es	1.230985	-1.558946	0.053083	99
Es	0.046212	-0.539817	1.539636	99
Es	-0.187572	-0.465211	0.839662	99
46
Properties=species:S:1:pos:R:3:Z:I:1 energy=-325.11612394923935 field_type=dipole dipole="0.000000 0.000000 0.000000" charge=0
C	-1.676239	-0.418260	0.791557	6
C	-0.187629	-0.465209	0.839777	6
C	0.647231	-1.184720	-0.189763	6
O	-0.020749	-1.777830	-1.314233	8
C	0.709131	0.335410	-0.093213	6
C	0.126922	1.168630	-1.209763	6
N	1.915881	0.940720	0.514437	7
H	-2.044069	0.342731	1.486997	1
H	-2.087718	-1.383290	1.103677	1
H	-2.081928	-0.185879	-0.195023	1
H	0.134971	-0.585739	1.870737	1
H	1.512611	-1.731239	0.176137	1
H	-0.898889	-1.404130	-1.485023	1
H	-0.737988	0.711990	-1.697193	1
H	0.882921	1.337310	-1.985093	1
H	-0.188838	2.144930	-0.825513	1
H	2.316521	0.338500	1.231947	1
H	1.677851	1.816071	0.979547	1
Es	0.636090	1.280035	-1.728417	99
Es	-0.087879	1.831361	-0.940677	99
Es	0.046216	-0.539804	1.539582	99
Es	-1.943934	-0.263796	0.108977	99
Es	0.126914	1.168603	-1.209722	99
Es	1.381466	0.671067	0.279202	99
Es	0.647026	-1.184677	-0.189897	99
Es	-1.676212	-0.418257	0.791543	99
Es	0.201957	-1.523583	-0.883684	99
Es	1.230964	-1.558849	0.052999	99
Es	2.131502	0.569183	0.957353	99
Es	-0.187562	-0.465224	0.839649	99
Es	0.402716	0.741433	-0.646317	99
Es	1.748710	1.456712	0.807543	99
Es	0.155697	-0.985625	0.390736	99
Es	-0.465397	0.847325	-1.529261	99
Es	0.147679	-1.710956	-1.556179	99
Es	-0.020882	-1.777513	-1.314052	99
Es	2.157684	1.005028	0.268354	99
Es	-0.484940	-1.553417	-1.377207	99
Es	0.815757	-0.413200	-0.282376	99
Es	-0.930520	-0.442922	0.783784	99
Es	0.178941	0.093008	0.461647	99
Es	-1.921479	0.100692	1.261320	99
Es	-0.070379	-2.062592	-1.229664	99
Es	0.709179	0.335346	-0.093089	99
Es	-1.954131	-1.073317	1.003426	99
Es	1.915491	0.940615	0.514820	99
46
Properties=species:S:1:pos:R:3:Z:I:1 energy=-325.11612394923935 field_type=dipole dipole="0.000000 0.000000 0.000000" charge=0
C	-1.676239	-0.418260	0.791557	6
C	-0.187629	-0.465209	0.839777	6
C	0.647231	-1.184720	-0.189763	6
O	-0.020749	-1.777830	-1.314233	8
C	0.709131	0.335410	-0.093213	6
C	0.126922	1.168630	-1.209763	6
N	1.915881	0.940720	0.514437	7
H	-2.044069	0.342731	1.486997	1
H	-2.087718	-1.383290	1.103677	1
H	-2.081928	-0.185879	-0.195023	1
H	0.134971	-0.585739	1.870737	1
H	1.512611	-1.731239	0.176137	1
H	-0.898889	-1.404130	-1.485023	1
H	-0.737988	0.711990	-1.697193	1
H	0.882921	1.337310	-1.985093	1
H	-0.188838	2.144930	-0.825513	1
H	2.316521	0.338500	1.231947	1
H	1.677851	1.816071	0.979547	1
Es	-1.676215	-0.418257	0.791542	99
Es	-0.067796	-2.064610	-1.232464	99
Es	0.046129	-0.539780	1.539490	99
Es	0.126914	1.168601	-1.209723	99
Es	-0.020899	-1.777602	-1.313997	99
Es	1.915473	0.940609	0.514851	99
Es	0.155760	-0.985849	0.390866	99
Es	2.131512	0.569232	0.957393	99
Es	-1.954019	-1.073392	1.003296	99
Es	-0.187557	-0.465219	0.839646	99
Es	-1.943896	-0.263777	0.109011	99
Es	1.748423	1.456590	0.807591	99
Es	-0.087837	1.831236	-0.940607	99
Es	2.157760	1.005332	0.269079	99
Es	0.178907	0.093053	0.461700	99
Es	0.647041	-1.184666	-0.189906	99
Es	0.636102	1.280105	-1.728593	99
Es	-0.485760	-1.554896	-1.375492	99
Es	1.230859	-1.558758	0.052954	99
Es	0.815881	-0.413035	-0.282361	99
Es	0.145307	-1.707229	-1.555292	99
Es	-0.465467	0.847411	-1.529118	99
Es	0.202591	-1.523798	-0.883537	99
Es	0.709180	0.335343	-0.093092	99
Es	-1.921618	0.100636	1.261407	99
Es	-0.930522	-0.442826	0.783808	99
Es	0.402769	0.741309	-0.646406	99
Es	1.381652	0.670912	0.278348	99
46
Properties=species:S:1:pos:R:3:Z:I:1 energy=-325.11612394923935 field_type=dipole dipole="0.000000 0.000000 0.000000" charge=0
C	-1.676239	-0.418260	0.791557	6
C	-0.187629	-0.465209	0.839777	6
C	0.647231	-1.184720	-0.189763	6
O	-0.020749	-1.777830	-1.314233	8
C	0.709131	0.335410	-0.093213	6
C	0.126922	1.168630	-1.209763	6
N	1.915881	0.940720	0.514437	7
H	-2.044069	0.342731	1.486997	1
H	-2.087718	-1.383290	1.103677	1
H	-2.081928	-0.185879	-0.195023	1
H	0.134971	-0.585739	1.870737	1
H	1.512611	-1.731239	0.176137	1
H	-0.898889	-1.404130	-1.485023	1
H	-0.737988	0.711990	-1.697193	1
H	0.882921	1.337310	-1.985093	1
H	-0.188838	2.144930	-0.825513	1
H	2.316521	0.338500	1.231947	1
H	1.677851	1.816071	0.979547	1
Es	0.202250	-1.524401	-0.882931	99
Es	0.046091	-0.539758	1.539465	99
Es	-1.943986	-0.263598	0.109022	99
Es	2.131552	0.569401	0.957329	99
Es	1.915465	0.940607	0.514849	99
Es	0.709179	0.335340	-0.093091	99
Es	0.146633	-1.708778	-1.555293	99
Es	1.381404	0.670934	0.279013	99
Es	-1.954029	-1.073430	1.003230	99
Es	-1.676215	-0.418257	0.791541	99
Es	1.748546	1.456565	0.807578	99
Es	0.178905	0.093070	0.461635	99
Es	-0.187564	-0.465229	0.839649	99
Es	-1.921489	0.100532	1.261528	99
Es	0.402835	0.741337	-0.646122	99
Es	2.157822	1.005222	0.268514	99
Es	1.230919	-1.558758	0.052939	99
Es	-0.069172	-2.063521	-1.231957	99
Es	-0.020934	-1.777557	-1.314023	99
Es	0.636069	1.280053	-1.728590	99
Es	0.647035	-1.184665	-0.189902	99
Es	0.155617	-0.985778	0.390999	99
Es	-0.485291	-1.553847	-1.376581	99
Es	-0.930533	-0.442892	0.783738	99
Es	0.126914	1.168603	-1.209722	99
Es	0.815948	-0.413154	-0.282494	99
Es	-0.465541	0.847434	-1.529107	99
Es	-0.087756	1.831198	-0.940825	99
46
Properties=species:S:1:pos:R:3:Z:I:1 energy=-325.11612394923935 field_type=dipole dipole="0.000000 0.000000 0.000000" charge=0
C	-1.676239	-0.418260	0.791557	6
C	-0.187629	-0.465209	0.839777	6
C	0.647231	-1.184720	-0.189763	6
O	-0.020749	-1.777830	-1.314233	8
C	0.709131	0.335410	-0.093213	6
C	0.126922	1.168630	-1.209763	6
N	1.915881	0.940720	0.514437	7
H	-2.044069	0.342731	1.486997	1
H	-2.087718	-1.383290	1.103677	1
H	-2.081928	-0.185879	-0.195023	1
H	0.134971	-0.585739	1.870737	1
H	1.512611	-1.731239	0.176137	1
H	-0.898889	-1.404130	-1.485023	1
H	-0.737988	0.711990	-1.697193	1
H	0.882921	1.337310	-1.985093	1
H	-0.188838	2.144930	-0.825513	1
H	2.316521	0.338500	1.231947	1
H	1.677851	1.816071	0.979547	1
Es	0.709180	0.335340	-0.093093	99
Es	1.230739	-1.558720	0.052903	99
Es	2.130887	0.569476	0.957700	99
Es	-1.676221	-0.418256	0.791536	99
Es	1.748764	1.456775	0.807232	99
Es	2.158240	1.004806	0.268912	99
Es	-1.921609	0.100574	1.261417	99
Es	-0.087834	1.831320	-0.940718	99
Es	-0.930430	-0.442839	0.783878	99
Es	-1.943930	-0.263725	0.109039	99
Es	-0.187570	-0.465218	0.839659	99
Es	0.126913	1.168604	-1.209721	99
Es	0.178846	0.093198	0.461773	99
Es	1.915458	0.940599	0.514863	99
Es	0.203335	-1.522740	-0.884455	99
Es	0.816060	-0.413147	-0.282426	99
Es	-0.484781	-1.552640	-1.378093	99
Es	0.647035	-1.184659	-0.189899	99
Es	-1.954038	-1.073385	1.003259	99
Es	-0.020886	-1.777575	-1.313978	99
Es	0.155757	-0.985995	0.390995	99
Es	0.636010	1.279988	-1.728681	99
Es	0.147752	-1.714645	-1.556741	99
Es	-0.465428	0.847424	-1.529002	99
Es	-0.071942	-2.060527	-1.227540	99
Es	0.046044	-0.539676	1.539354	99
Es	0.402853	0.741266	-0.646310	99
Es	1.381468	0.671054	0.278532	99
46
Properties=species:S:1:pos:R:3:Z:I:1 energy=-325.11612394923935 field_type=dipole dipole="0.000000 0.000000 0.000000" charge=0
C	-1.676239	-0.418260	0.791557	6
C	-0.187629	-0.465209	0.839777	6
C	0.647231	-1.184720	-0.189763	6
O	-0.020749	-1.777830	-1.314233	8
C	0.709131	0.335410	-0.093213	6
C	0.126922	1.168630	-1.209763	6
N	1.915881	0.940720	0.514437	7
H	-2.044069	0.342731	1.486997	1
H	-2.087718	-1.383290	1.103677	1
H	-2.081928	-0.185879	-0.195023	1
H	0.134971	-0.585739	1.870737	1
H	1.512611	-1.731239	0.176137	1
H	-0.898889	-1.404130	-1.485023	1
H	-0.737988	0.711990	-1.697193	1
H	0.882921	1.337310	-1.985093	1
H	-0.188838	2.144930	-0.825513	1
H	2.316521	0.338500	1.231947	1
H	1.677851	1.816071	0.979547	1
Es	1.748954	1.457033	0.806922	99
Es	-0.066965	-2.063335	-1.232721	99
Es	2.130649	0.569609	0.957917	99
Es	0.155661	-0.986106	0.391148	99
Es	1.230697	-1.558640	0.052861	99
Es	0.202873	-1.523694	-0.883219	99
Es	0.816164	-0.413051	-0.282470	99
Es	0.145235	-1.707892	-1.554874	99
Es	0.126915	1.168603	-1.209723	99
Es	1.915479	0.940613	0.514848	99
Es	-0.020889	-1.777563	-1.314036	99
Es	0.709173	0.335330	-0.093090	99
Es	0.402880	0.741217	-0.646287	99
Es	-0.930380	-0.442904	0.783959	99
Es	1.381376	0.671125	0.278629	99
Es	2.158318	1.004392	0.268962	99
Es	-0.486748	-1.555676	-1.375969	99
Es	0.647032	-1.184636	-0.189882	99
Es	-0.187565	-0.465224	0.839652	99
Es	-1.676216	-0.418257	0.791542	99
Es	0.178831	0.093267	0.461705	99
Es	-1.954053	-1.073340	1.003283	99
Es	-0.087812	1.831310	-0.940766	99
Es	0.046004	-0.539732	1.539306	99
Es	0.636054	1.279965	-1.728653	99
Es	-0.465448	0.847435	-1.529026	99
Es	-1.943874	-0.263820	0.109016	99
Es	-1.921672	0.100645	1.261360	99
46
Properties=species:S:1:pos:R:3:Z:I:1 energy=-325.11612394923935 field_type=dipole dipole="0.000000 0.000000 0.000000" charge=0
C	-1.676239	-0.418260	0.791557	6
C	-0.187629	-0.465209	0.839777	6
C	0.647231	-1.184720	-0.189763	6
O	-0.020749	-1.777830	-1.314233	8
C	0.709131	0.335410	-0.093213	6
C	0.126922	1.168630	-1.209763	6
N	1.915881	0.940720	0.514437	7
H	-2.044069	0.342731	1.486997	1
H	-2.087718	-1.383290	1.103677	1
H	-2.081928	-0.185879	-0.195023	1
H	0.134971	-0.585739	1.870737	1
H	1.512611	-1.731239	0.176137	1
H	-0.898889	-1.404130	-1.485023	1
H	-0.737988	0.711990	-1.697193	1
H	0.882921	1.337310	-1.985093	1
H	-0.188838	2.144930	-0.825513	1
H	2.316521	0.338500	1.231947	1
H	1.677851	1.816071	0.979547	1
Es	0.816248	-0.413058	-0.282585	99
Es	2.157832	1.005339	0.268568	99
Es	1.381301	0.670994	0.278920	99
Es	0.145388	-1.707226	-1.554856	99
Es	-0.930295	-0.442930	0.783876	99
Es	0.402830	0.741243	-0.646208	99
Es	-0.067593	-2.064068	-1.233199	99
Es	0.636005	1.279989	-1.728657	99
Es	0.709177	0.335338	-0.093091	99
Es	-1.676216	-0.418258	0.791542	99
Es	2.131582	0.569384	0.957347	99
Es	-0.187561	-0.465226	0.839647	99
Es	0.045923	-0.539822	1.539282	99
Es	0.202615	-1.524275	-0.882891	99
Es	1.230600	-1.558653	0.052848	99
Es	0.647032	-1.184641	-0.189886	99
Es	1.915475	0.940617	0.514839	99
Es	-1.943911	-0.263773	0.109087	99
Es	0.178915	0.093286	0.461839	99
Es	-0.465386	0.847454	-1.529037	99
Es	-0.486045	-1.555004	-1.375844	99
Es	-1.954077	-1.073324	1.003216	99
Es	-0.087855	1.831331	-0.940734	99
Es	0.126915	1.168603	-1.209718	99
Es	1.748620	1.456399	0.807589	99
Es	-1.921670	0.100604	1.261401	99
Es	0.155713	-0.986080	0.391135	99
Es	-0.020889	-1.777568	-1.314038	99
46
Properties=species:S:1:pos:R:3:Z:I:1 energy=-325.11612394923935 field_type=dipole dipole="0.000000 0.000000 0.000000" charge=0
C	-1.676239	-0.418260	0.791557	6
C	-0.187629	-0.465209	0.839777	6
C	0.647231	-1.184720	-0.189763	6
O	-0.020749	-1.777830	-1.314233	8
C	0.709131	0.335410	-0.093213	6
C	0.126922	1.168630	-1.209763	6
N	1.915881	0.940720	0.514437	7
H	-2.044069	0.342731	1.486997	1
H	-2.087718	-1.383290	1.103677	1
H	-2.081928	-0.185879	-0.195023	1
H	0.134971	-0.585739	1.870737	1
H	1.512611	-1.731239	0.176137	1
H	-0.898889	-1.404130	-1.485023	1
H	-0.737988	0.711990	-1.697193	1
H	0.882921	1.337310	-1.985093	1
H	-0.188838	2.144930	-0.825513	1
H	2.316521	0.338500	1.231947	1
H	1.677851	1.816071	0.979547	1
Es	-0.465429	0.847498	-1.529044	99
Es	0.202711	-1.523553	-0.883354	99
Es	1.915486	0.940617	0.514844	99
Es	0.155712	-0.986297	0.391233	99
Es	-1.954087	-1.073294	1.003326	99
Es	-0.068314	-2.063209	-1.231796	99
Es	-0.187552	-0.465225	0.839636	99
Es	-0.485840	-1.554828	-1.376357	99
Es	-1.943917	-0.263844	0.109043	99
Es	-0.020948	-1.777607	-1.313934	99
Es	2.131139	0.569530	0.957513	99
Es	0.145896	-1.708946	-1.555406	99
Es	0.647034	-1.184651	-0.189890	99
Es	1.381198	0.671039	0.278926	99
Es	0.178995	0.093385	0.461771	99
Es	2.158101	1.004903	0.268613	99
Es	0.816200	-0.412989	-0.282458	99
Es	-1.676217	-0.418259	0.791540	99
Es	0.126914	1.168603	-1.209721	99
Es	0.635995	1.280053	-1.728672	99
Es	0.045976	-0.539807	1.539151	99
Es	1.230580	-1.558608	0.052790	99
Es	-0.930404	-0.442938	0.783985	99
Es	0.402876	0.741216	-0.646206	99
Es	1.748845	1.456645	0.807369	99
Es	0.709175	0.335331	-0.093092	99
Es	-1.921628	0.100661	1.261331	99
Es	-0.087826	1.831250	-0.940748	99
46
Properties=species:S:1:pos:R:3:Z:I:1 energy=-325.11612394923935 field_type=dipole dipole="0.000000 0.000000 0.000000" charge=0
C	-1.676239	-0.418260	0.791557	6
C	-0.187629	-0.465209	0.839777	6
C	0.647231	-1.184720	-0.189763	6
O	-0.020749	-1.777830	-1.314233	8
C	0.709131	0.335410	-0.093213	6
C	0.126922	1.168630	-1.209763	6
N	1.915881	0.940720	0.514437	7
H	-2.044069	0.342731	1.486997	1
H	-2.087718	-1.383290	1.103677	1
H	-2.081928	-0.185879	-0.195023	1
H	0.134971	-0.585739	1.870737	1
H	1.512611	-1.731239	0.176137	1
H	-0.898889	-1.404130	-1.485023	1
H	-0.737988	0.711990	-1.697193	1
H	0.882921	1.337310	-1.985093	1
H	-0.188838	2.144930	-0.825513	1
H	2.316521	0.338500	1.231947	1
H	1.677851	1.816071	0.979547	1
Es	-1.921648	0.100591	1.261417	99
Es	0.155788	-0.986651	0.391215	99
Es	-1.676215	-0.418258	0.791542	99
Es	-1.943919	-0.263740	0.109121	99
Es	-0.485822	-1.554623	-1.376542	99
Es	0.178829	0.093567	0.461830	99
Es	0.146117	-1.710052	-1.555752	99
Es	-0.187561	-0.465227	0.839646	99
Es	1.381134	0.671065	0.278808	99
Es	-0.069061	-2.062071	-1.231441	99
Es	0.203149	-1.523874	-0.883063	99
Es	0.709177	0.335332	-0.093091	99
Es	1.230587	-1.558417	0.052643	99
Es	0.635961	1.280024	-1.728717	99
Es	0.647036	-1.184650	-0.189897	99
Es	-1.954063	-1.073383	1.003210	99
Es	0.126914	1.168603	-1.209723	99
Es	2.157646	1.004884	0.268921	99
Es	-0.930307	-0.442834	0.784027	99
Es	1.748959	1.456794	0.807297	99
Es	0.402965	0.741112	-0.646237	99
Es	2.131504	0.569456	0.957430	99
Es	0.816153	-0.413010	-0.282428	99
Es	-0.087796	1.831275	-0.940703	99
Es	-0.465448	0.847513	-1.528994	99
Es	0.045941	-0.539783	1.539093	99
Es	1.915491	0.940614	0.514844	99
Es	-0.020841	-1.777584	-1.314063	99
46
Properties=species:S:1:pos:R:3:Z:I:1 energy=-325.11612394923935 field_type=dipole dipole="0.000000 0.000000 0.000000" charge=0
C	-1.676239	-0.418260	0.791557	6
C	-0.187629	-0.465209	0.839777	6
C	0.647231	-1.184720	-0.189763	6
O	-0.020749	-1.777830	-1.314233	8
C	0.709131	0.335410	-0.093213	6
C	0.126922	1.168630	-1.209763	6
N	1.915881	0.940720	0.514437	7
H	-2.044069	0.342731	1.486997	1
H	-2.087718	-1.383290	1.103677	1
H	-2.081928	-0.185879	-0.195023	1
H	0.134971	-0.585739	1.870737	1
H	1.512611	-1.731239	0.176137	1
H	-0.898889	-1.404130	-1.485023	1
H	-0.737988	0.711990	-1.697193	1
H	0.882921	1.337310	-1.985093	1
H	-0.188838	2.144930	-0.825513	1
H	2.316521	0.338500	1.231947	1
H	1.677851	1.816071	0.979547	1
Es	1.381165	0.671012	0.278743	99
Es	-1.921701	0.100613	1.261371	99
Es	2.157684	1.004920	0.268931	99
Es	0.816351	-0.412955	-0.282634	99
Es	0.402920	0.741157	-0.646103	99
Es	-0.187560	-0.465226	0.839645	99
Es	-0.087846	1.831257	-0.940761	99
Es	0.203391	-1.523580	-0.883204	99
Es	0.126914	1.168604	-1.209723	99
Es	-1.954080	-1.073345	1.003214	99
Es	1.748958	1.456758	0.807321	99
Es	1.915478	0.940611	0.514845	99
Es	1.230444	-1.558498	0.052726	99
Es	-0.930227	-0.442894	0.784009	99
Es	0.155698	-0.986525	0.391362	99
Es	0.045871	-0.539727	1.539071	99
Es	-0.067938	-2.063135	-1.232446	99
Es	-1.943910	-0.263798	0.109145	99
Es	0.145121	-1.708902	-1.554796	99
Es	-0.465404	0.847496	-1.529033	99
Es	-0.486105	-1.554952	-1.376423	99
Es	0.635994	1.280044	-1.728681	99
Es	0.178878	0.093475	0.461829	99
Es	2.131506	0.569475	0.957415	99
Es	-0.020925	-1.777632	-1.313989	99
Es	0.709175	0.335334	-0.093091	99
Es	0.647035	-1.184654	-0.189894	99
Es	-1.676216	-0.418258	0.791542	99
46
Properties=species:S:1:pos:R:3:Z:I:1 energy=-325.11612394923935 field_type=dipole dipole="0.000000 0.000000 0.000000" charge=0
C	-1.676239	-0.418260	0.791557	6
C	-0.187629	-0.465209	0.839777	6
C	0.647231	-1.184720	-0.189763	6
O	-0.020749	-1.777830	-1.314233	8
C	0.709131	0.335410	-0.093213	6
C	0.126922	1.168630	-1.209763	6
N	1.915881	0.940720	0.514437	7
H	-2.044069	0.342731	1.486997	1
H	-2.087718	-1.383290	1.103677	1
H	-2.081928	-0.185879	-0.195023	1
H	0.134971	-0.585739	1.870737	1
H	1.512611	-1.731239	0.176137	1
H	-0.898889	-1.404130	-1.485023	1
H	-0.737988	0.711990	-1.697193	1
H	0.882921	1.337310	-1.985093	1
H	-0.188838	2.144930	-0.825513	1
H	2.316521	0.338500	1.231947	1
H	1.677851	1.816071	0.979547	1
Es	1.230343	-1.558509	0.052743	99
Es	-0.020880	-1.777525	-1.314075	99
Es	2.131659	0.569516	0.957256	99
Es	2.157707	1.005180	0.268763	99
Es	-1.954093	-1.073269	1.003240	99
Es	0.709178	0.335340	-0.093091	99
Es	0.647033	-1.184664	-0.189903	99
Es	0.402925	0.741134	-0.646015	99
Es	0.178810	0.093571	0.461968	99
Es	-1.943923	-0.263868	0.109146	99
Es	0.635986	1.280104	-1.728648	99
Es	0.816438	-0.413058	-0.282728	99
Es	-0.465377	0.847521	-1.529090	99
Es	-0.187558	-0.465229	0.839643	99
Es	0.045847	-0.539724	1.539016	99
Es	-1.676217	-0.418258	0.791543	99
Es	1.915478	0.940631	0.514860	99
Es	-0.087875	1.831219	-0.940767	99
Es	-0.068870	-2.062285	-1.231809	99
Es	1.381206	0.670879	0.278796	99
Es	-0.485842	-1.554509	-1.376868	99
Es	0.203392	-1.523775	-0.882967	99
Es	-0.930176	-0.442975	0.784030	99
Es	-1.921713	0.100661	1.261349	99
Es	0.155749	-0.986453	0.391322	99
Es	0.145749	-1.710113	-1.555141	99
Es	0.126913	1.168603	-1.209723	99
Es	1.748783	1.456530	0.807544	99
46
Properties=species:S:1:pos:R:3:Z:I:1 energy=-325.11612394923935 field_type=dipole dipole="0.000000 0.000000 0.000000" charge=0
C	-1.676239	-0.418260	0.791557	6
C	-0.187629	-0.465209	0.839777	6
C	0.647231	-1.184720	-0.189763	6
O	-0.020749	-1.777830	-1.314233	8
C	0.709131	0.335410	-0.093213	6
C	0.126922	1.168630	-1.209763	6
N	1.915881	0.940720	0.514437	7
H	-2.044069	0.342731	1.486997	1
H	-2.087718	-1.383290	1.103677	1
H	-2.081928	-0.185879	-0.195023	1
H	0.134971	-0.585739	1.870737	1
H	1.512611	-1.731239	0.176137	1
H	-0.898889	-1.404130	-1.485023	1
H	-0.737988	0.711990	-1.697193	1
H	0.882921	1.337310	-1.985093	1
H	-0.188838	2.144930	-0.825513	1
H	2.316521	0.338500	1.231947	1
H	1.677851	1.816071	0.979547	1
Es	-0.087843	1.831305	-0.940794	99
Es	-0.187547	-0.465224	0.839630	99
Es	0.203316	-1.524075	-0.882655	99
Es	2.131390	0.569435	0.957349	99
Es	-0.068631	-2.062681	-1.232515	99
Es	1.749248	1.456974	0.807289	99
Es	-0.485826	-1.554421	-1.377070	99
Es	0.145588	-1.709567	-1.554567	99
Es	-1.676214	-0.418258	0.791543	99
Es	0.402942	0.741072	-0.646074	99
Es	0.045832	-0.539738	1.538976	99
Es	-1.954174	-1.073323	1.003226	99
Es	0.709168	0.335332	-0.093088	99
Es	1.915521	0.940624	0.514814	99
Es	2.157591	1.004629	0.269140	99
Es	-1.943901	-0.263793	0.109196	99
Es	-1.921671	0.100632	1.261315	99
Es	-0.465369	0.847547	-1.528971	99
Es	0.178924	0.093449	0.461790	99
Es	1.230361	-1.558395	0.052649	99
Es	-0.930153	-0.442911	0.784059	99
Es	0.155581	-0.986678	0.391583	99
Es	0.635952	1.279982	-1.728736	99
Es	1.380987	0.671186	0.278688	99
Es	-0.020879	-1.777500	-1.314060	99
Es	0.126913	1.168604	-1.209723	99
Es	0.647037	-1.184650	-0.189896	99
Es	0.816526	-0.412885	-0.282705	99
46
Properties=species:S:1:pos:R:3:Z:I:1 energy=-325.11612394923935 field_type=dipole dipole="0.000000 0.000000 0.000000" charge=0
C	-1.676239	-0.418260	0.791557	6
C	-0.187629	-0.465209	0.839777	6
C	0.647231	-1.184720	-0.189763	6
O	-0.020749	-1.777830	-1.314233	8
C	0.709131	0.335410	-0.093213	6
C	0.126922	1.168630	-1.209763	6
N	1.915881	0.940720	0.514437	7
H	-2.044069	0.342731	1.486997	1
H	-2.087718	-1.383290	1.103677	1
H	-2.081928	-0.185879	-0.195023	1
H	0.134971	-0.585739	1.870737	1
H	1.512611	-1.731239	0.176137	1
H	-0.898889	-1.404130	-1.485023	1
H	-0.737988	0.711990	-1.697193	1
H	0.882921	1.337310	-1.985093	1
H	-0.188838	2.144930	-0.825513	1
H	2.316521	0.338500	1.231947	1
H	1.677851	1.816071	0.979547	1
Es	-0.930175	-0.442907	0.784085	99
Es	0.155694	-0.986756	0.391598	99
Es	-0.465392	0.847540	-1.529031	99
Es	-1.676215	-0.418258	0.791541	99
Es	1.381070	0.671003	0.278585	99
Es	-0.020859	-1.777620	-1.314097	99
Es	-0.187556	-0.465229	0.839643	99
Es	2.157483	1.004887	0.269178	99
Es	0.709173	0.335330	-0.093090	99
Es	0.144712	-1.708484	-1.554562	99
Es	-0.087850	1.831228	-0.940754	99
Es	0.635955	1.280079	-1.728699	99
Es	0.045787	-0.539703	1.538918	99
Es	1.230271	-1.558346	0.052605	99
Es	0.402968	0.741083	-0.646022	99
Es	-1.954094	-1.073370	1.003169	99
Es	0.647032	-1.184652	-0.189894	99
Es	-1.943907	-0.263757	0.109181	99
Es	-0.486322	-1.555230	-1.376259	99
Es	0.178858	0.093547	0.461917	99
Es	0.203696	-1.523932	-0.882823	99
Es	1.749096	1.456802	0.807301	99
Es	-0.067640	-2.062994	-1.233115	99
Es	1.915498	0.940620	0.514838	99
Es	0.816547	-0.412880	-0.282809	99
Es	0.126912	1.168607	-1.209724	99
Es	2.131645	0.569488	0.957337	99
Es	-1.921717	0.100577	1.261376	99
46
Properties=species:S:1:pos:R:3:Z:I:1 energy=-325.11612394923935 field_type=dipole dipole="0.000000 0.000000 0.000000" charge=0
C	-1.676239	-0.418260	0.791557	6
C	-0.187629	-0.465209	0.839777	6
C	0.647231	-1.184720	-0.189763	6
O	-0.020749	-1.777830	-1.314233	8
C	0.709131	0.335410	-0.093213	6
C	0.126922	1.168630	-1.209763	6
N	1.915881	0.940720	0.514437	7
H	-2.044069	0.342731	1.486997	1
H	-2.087718	-1.383290	1.103677	1
H	-2.081928	-0.185879	-0.195023	1
H	0.134971	-0.585739	1.870737	1
H	1.512611	-1.731239	0.176137	1
H	-0.898889	-1.404130	-1.485023	1
H	-0.737988	0.711990	-1.697193	1
H	0.882921	1.337310	-1.985093	1
H	-0.188838	2.144930	-0.825513	1
H	2.316521	0.338500	1.231947	1
H	1.677851	1.816071	0.979547	1
Es	-0.930135	-0.442917	0.784127	99
Es	1.381011	0.671039	0.278672	99
Es	0.647036	-1.184654	-0.189893	99
Es	-1.943894	-0.263854	0.109190	99
Es	0.178874	0.093604	0.461951	99
Es	1.230191	-1.558323	0.052603	99
Es	2.131729	0.569490	0.957291	99
Es	0.145067	-1.709211	-1.554554	99
Es	0.402966	0.740996	-0.646029	99
Es	-0.465359	0.847551	-1.529049	99
Es	0.045738	-0.539656	1.538833	99
Es	-1.921770	0.100631	1.261348	99
Es	-0.187558	-0.465226	0.839644	99
Es	-1.954093	-1.073300	1.003184	99
Es	-0.486092	-1.554877	-1.376753	99
Es	-1.676212	-0.418258	0.791541	99
Es	0.155711	-0.986862	0.391668	99
Es	0.126913	1.168605	-1.209725	99
Es	0.816621	-0.412860	-0.282759	99
Es	0.203653	-1.523888	-0.882759	99
Es	1.749224	1.456948	0.807251	99
Es	-0.087871	1.831245	-0.940792	99
Es	-0.068118	-2.062696	-1.232820	99
Es	-0.020921	-1.777609	-1.313995	99
Es	0.635959	1.280065	-1.728683	99
Es	0.709171	0.335328	-0.093090	99
Es	1.915468	0.940605	0.514858	99
Es	2.157362	1.004759	0.269131	99
46
Properties=species:S:1:pos:R:3:Z:I:1 energy=-325.11612394923935 field_type=dipole dipole="0.000000 0.000000 0.000000" charge=0
C	-1.676239	-0.418260	0.791557	6
C	-0.187629	-0.465209	0.839777	6
C	0.647231	-1.184720	-0.189763	6
O	-0.020749	-1.777830	-1.314233	8
C	0.709131	0.335410	-0.093213	6
C	0.126922	1.168630	-1.209763	6
N	1.915881	0.940720	0.514437	7
H	-2.044069	0.342731	1.486997	1
H	-2.087718	-1.383290	1.103677	1
H	-2.081928	-0.185879	-0.195023	1
H	0.134971	-0.585739	1.870737	1
H	1.512611	-1.731239	0.176137	1
H	-0.898889	-1.404130	-1.485023	1
H	-0.737988	0.711990	-1.697193	1
H	0.882921	1.337310	-1.985093	1
H	-0.188838	2.144930	-0.825513	1
H	2.316521	0.338500	1.231947	1
H	1.677851	1.816071	0.979547	1
Es	0.203643	-1.524258	-0.882383	99
Es	0.403031	0.741056	-0.645949	99
Es	0.155718	-0.986991	0.391647	99
Es	-1.921760	0.100629	1.261332	99
Es	-0.087865	1.831268	-0.940816	99
Es	2.131528	0.569547	0.957378	99
Es	-0.020931	-1.777636	-1.313959	99
Es	0.145032	-1.709047	-1.553833	99
Es	0.709173	0.335330	-0.093090	99
Es	0.045709	-0.539686	1.538795	99
Es	1.749126	1.456776	0.807277	99
Es	0.635926	1.280042	-1.728691	99
Es	0.647034	-1.184650	-0.189891	99
Es	1.381031	0.671010	0.278503	99
Es	-0.465356	0.847532	-1.529025	99
Es	-0.068228	-2.062901	-1.233472	99
Es	-0.930065	-0.442928	0.784103	99
Es	1.230176	-1.558303	0.052598	99
Es	-1.943888	-0.263817	0.109276	99
Es	-0.485897	-1.554436	-1.377257	99
Es	0.126914	1.168604	-1.209722	99
Es	-1.954140	-1.073350	1.003158	99
Es	-1.676215	-0.418259	0.791542	99
Es	0.816600	-0.412790	-0.282801	99
Es	0.178837	0.093673	0.461929	99
Es	1.915470	0.940606	0.514868	99
Es	2.157628	1.004884	0.269233	99
Es	-0.187559	-0.465230	0.839643	99
46
Properties=species:S:1:pos:R:3:Z:I:1 energy=-325.11612394923935 field_type=dipole dipole="0.000000 0.000000 0.000000" charge=0
C	-1.676239	-0.418260	0.791557	6
C	-0.187629	-0.465209	0.839777	6
C	0.647231	-1.184720	-0.189763	6
O	-0.020749	-1.777830	-1.314233	8
C	0.709131	0.335410	-0.093213	6
C	0.126922	1.168630	-1.209763	6
N	1.915881	0.940720	0.514437	7
H	-2.044069	0.342731	1.486997	1
H	-2.087718	-1.383290	1.103677	1
H	-2.081928	-0.185879	-0.195023	1
H	0.134971	-0.585739	1.870737	1
H	1.512611	-1.731239	0.176137	1
H	-0.898889	-1.404130	-1.485023	1
H	-0.737988	0.711990	-1.697193	1
H	0.882921	1.337310	-1.985093	1
H	-0.188838	2.144930	-0.825513	1
H	2.316521	0.338500	1.231947	1
H	1.677851	1.816071	0.979547	1
Es	-0.187564	-0.465232	0.839647	99
Es	-0.087944	1.831285	-0.940822	99
Es	1.381025	0.670981	0.278408	99
Es	0.144379	-1.707215	-1.553550	99
Es	-0.465291	0.847481	-1.529049	99
Es	-1.921880	0.100671	1.261331	99
Es	-1.943839	-0.263906	0.109306	99
Es	1.749040	1.456675	0.807301	99
Es	2.157707	1.004972	0.269274	99
Es	0.816645	-0.412756	-0.282811	99
Es	1.230097	-1.558295	0.052578	99
Es	0.635964	1.280045	-1.728661	99
Es	-0.486762	-1.555994	-1.376611	99
Es	-0.930011	-0.442927	0.784157	99
Es	0.709174	0.335334	-0.093099	99
Es	0.155702	-0.987188	0.391730	99
Es	1.915489	0.940620	0.514843	99
Es	0.647032	-1.184645	-0.189888	99
Es	-1.954104	-1.073322	1.003108	99
Es	0.126913	1.168605	-1.209724	99
Es	0.203357	-1.524126	-0.882044	99
Es	-0.020968	-1.777628	-1.313928	99
Es	0.178831	0.093806	0.461899	99
Es	-0.066346	-2.063310	-1.234741	99
Es	0.403042	0.741018	-0.645933	99
Es	0.045679	-0.539623	1.538736	99
Es	2.131517	0.569608	0.957393	99
Es	-1.676213	-0.418259	0.791542	99
