49
Properties=species:S:1:pos:R:3:Z:I:1 energy=-273.3240543007222 field_type=dipole dipole="0.000000 0.000000 0.000000" charge=0
C	-0.731187	-2.050539	-1.595163	6
C	-0.408267	-1.660809	-0.160333	6
C	0.303633	-0.311809	-0.059583	6
C	-0.535587	0.879911	-0.514113	6
C	0.208143	2.075471	0.065487	6
C	0.837043	1.578121	1.365617	6
C	0.648213	0.062061	1.382097	6
H	-1.182627	-3.047489	-1.621643	1
H	0.174463	-2.072249	-2.209283	1
H	-1.439947	-1.351259	-2.048543	1
H	0.229043	-2.437119	0.280407	1
H	-1.337197	-1.646009	0.422867	1
H	1.230423	-0.344859	-0.648603	1
H	-1.548317	0.828571	-0.095533	1
H	-0.619737	0.946721	-1.603133	1
H	0.997343	2.395651	-0.625173	1
H	-0.454807	2.930551	0.228017	1
H	1.900013	1.842011	1.398247	1
H	0.360223	2.034761	2.239587	1
H	1.544053	-0.456139	1.738737	1
H	-0.174917	-0.195549	2.060046	1
Es	-1.039865	-2.732657	-1.612971	99
Es	0.520448	1.841925	0.722751	99
Es	0.837032	1.578108	1.365599	99
Es	-0.408264	-1.660806	-0.160373	99
Es	-1.047615	-1.643552	0.240598	99
Es	0.481770	-0.145829	0.670331	99
Es	0.648215	0.062084	1.382091	99
Es	0.751904	2.291470	-0.411110	99
Es	-0.056883	-0.986975	-0.115233	99
Es	0.942466	-0.331447	-0.466928	99
Es	-0.176787	1.491663	-0.237068	99
Es	-0.731183	-2.050537	-1.595150	99
Es	0.208144	2.075450	0.065496	99
Es	-0.535575	0.879919	-0.514102	99
Es	-0.133000	0.269748	-0.309663	99
Es	-0.595767	0.924971	-1.262260	99
Es	1.263517	-0.296155	1.627431	99
Es	-1.230402	0.838477	-0.219473	99
Es	0.032526	-2.194105	0.142054	99
Es	0.754161	0.820059	1.388576	99
Es	-1.214244	-1.570075	-1.903068	99
Es	-0.569889	-1.852482	-0.886727	99
Es	0.076168	-0.116477	1.841776	99
Es	0.508416	1.891876	1.966364	99
Es	0.303613	-0.311811	-0.059569	99
Es	-0.247465	2.663639	0.176914	99
Es	-0.109196	-2.062858	-2.013439	99
Es	1.568271	1.758745	1.386402	99
49
Properties=species:S:1:pos:R:3:Z:I:1 energy=-273.3240543007222 field_type=dipole dipole="0.000000 0.000000 0.000000" charge=0
C	-0.731187	-2.050539	-1.595163	6
C	-0.408267	-1.660809	-0.160333	6
C	0.303633	-0.311809	-0.059583	6
C	-0.535587	0.879911	-0.514113	6
C	0.208143	2.075471	0.065487	6
C	0.837043	1.578121	1.365617	6
C	0.648213	0.062061	1.382097	6
H	-1.182627	-3.047489	-1.621643	1
H	0.174463	-2.072249	-2.209283	1
H	-1.439947	-1.351259	-2.048543	1
H	0.229043	-2.437119	0.280407	1
H	-1.337197	-1.646009	0.422867	1
H	1.230423	-0.344859	-0.648603	1
H	-1.548317	0.828571	-0.095533	1
H	-0.619737	0.946721	-1.603133	1
H	0.997343	2.395651	-0.625173	1
H	-0.454807	2.930551	0.228017	1
H	1.900013	1.842011	1.398247	1
H	0.360223	2.034761	2.239587	1
H	1.544053	-0.456139	1.738737	1
H	-0.174917	-0.195549	2.060046	1
Es	-1.047489	-1.643609	0.240716	99
Es	0.520534	1.842100	0.722883	99
Es	0.032687	-2.194188	0.141914	99
Es	-0.133002	0.269580	-0.309837	99
Es	0.754254	0.819962	1.388432	99
Es	0.942457	-0.331512	-0.466915	99
Es	-0.247367	2.663591	0.176812	99
Es	0.648215	0.062084	1.382091	99
Es	0.508402	1.891766	1.966264	99
Es	-1.230372	0.838416	-0.219610	99
Es	-0.408266	-1.660808	-0.160371	99
Es	-0.731183	-2.050537	-1.595148	99
Es	0.303612	-0.311810	-0.059570	99
Es	0.837032	1.578108	1.365600	99
Es	-0.535575	0.879920	-0.514102	99
Es	0.076238	-0.116423	1.841859	99
Es	0.751780	2.291516	-0.411021	99
Es	-0.109337	-2.062736	-2.013457	99
Es	-0.176872	1.491703	-0.237101	99
Es	-0.056940	-0.986998	-0.115094	99
Es	-0.569984	-1.852294	-0.886684	99
Es	-1.214303	-1.570133	-1.903046	99
Es	1.568213	1.758893	1.386524	99
Es	0.481665	-0.145813	0.670413	99
Es	1.263509	-0.296136	1.627398	99
Es	0.208144	2.075450	0.065496	99
Es	-1.039753	-2.732735	-1.613047	99
Es	-0.595785	0.925012	-1.262149	99
49
Properties=species:S:1:pos:R:3:Z:I:1 energy=-273.3240543007222 field_type=dipole dipole="0.000000 0.000000 0.000000" charge=0
C	-0.731187	-2.050539	-1.595163	6
C	-0.408267	-1.660809	-0.160333	6
C	0.303633	-0.311809	-0.059583	6
C	-0.535587	0.879911	-0.514113	6
C	0.208143	2.075471	0.065487	6
C	0.837043	1.578121	1.365617	6
C	0.648213	0.062061	1.382097	6
H	-1.182627	-3.047489	-1.621643	1
H	0.174463	-2.072249	-2.209283	1
H	-1.439947	-1.351259	-2.048543	1
H	0.229043	-2.437119	0.280407	1
H	-1.337197	-1.646009	0.422867	1
H	1.230423	-0.344859	-0.648603	1
H	-1.548317	0.828571	-0.095533	1
H	-0.619737	0.946721	-1.603133	1
H	0.997343	2.395651	-0.625173	1
H	-0.454807	2.930551	0.228017	1
H	1.900013	1.842011	1.398247	1
H	0.360223	2.034761	2.239587	1
H	1.544053	-0.456139	1.738737	1
H	-0.174917	-0.195549	2.060046	1
Es	-0.109303	-2.062815	-2.013481	99
Es	-0.133076	0.269589	-0.309659	99
Es	-0.247324	2.663640	0.176967	99
Es	0.520597	1.841981	0.722719	99
Es	-0.731182	-2.050539	-1.595148	99
Es	-0.177000	1.491818	-0.236945	99
Es	0.508508	1.891860	1.966354	99
Es	-0.570093	-1.852232	-0.886620	99
Es	-0.535575	0.879920	-0.514101	99
Es	0.648215	0.062084	1.382091	99
Es	0.942351	-0.331483	-0.466944	99
Es	0.481858	-0.145902	0.670261	99
Es	0.751753	2.291480	-0.411141	99
Es	-0.408264	-1.660806	-0.160373	99
Es	0.076330	-0.116543	1.841773	99
Es	-0.056942	-0.986956	-0.115064	99
Es	-1.230390	0.838461	-0.219791	99
Es	0.754170	0.820026	1.388647	99
Es	0.208144	2.075451	0.065497	99
Es	1.263449	-0.296048	1.627461	99
Es	0.303613	-0.311810	-0.059569	99
Es	-1.047405	-1.643653	0.240663	99
Es	0.032601	-2.194173	0.141948	99
Es	-0.595651	0.925025	-1.262155	99
Es	-1.214177	-1.570250	-1.903124	99
Es	-1.039833	-2.732651	-1.613058	99
Es	0.837033	1.578108	1.365600	99
Es	1.568106	1.758786	1.386440	99
49
Properties=species:S:1:pos:R:3:Z:I:1 energy=-273.3240543007222 field_type=dipole dipole="0.000000 0.000000 0.000000" charge=0
C	-0.731187	-2.050539	-1.595163	6
C	-0.408267	-1.660809	-0.160333	6
C	0.303633	-0.311809	-0.059583	6
C	-0.535587	0.879911	-0.514113	6
C	0.208143	2.075471	0.065487	6
C	0.837043	1.578121	1.365617	6
C	0.648213	0.062061	1.382097	6
H	-1.182627	-3.047489	-1.621643	1
H	0.174463	-2.072249	-2.209283	1
H	-1.439947	-1.351259	-2.048543	1
H	0.229043	-2.437119	0.280407	1
H	-1.337197	-1.646009	0.422867	1
H	1.230423	-0.344859	-0.648603	1
H	-1.548317	0.828571	-0.095533	1
H	-0.619737	0.946721	-1.603133	1
H	0.997343	2.395651	-0.625173	1
H	-0.454807	2.930551	0.228017	1
H	1.900013	1.842011	1.398247	1
H	0.360223	2.034761	2.239587	1
H	1.544053	-0.456139	1.738737	1
H	-0.174917	-0.195549	2.060046	1
Es	-1.047354	-1.643656	0.240682	99
Es	-0.247332	2.663540	0.176903	99
Es	-1.230388	0.838464	-0.219713	99
Es	-0.731184	-2.050537	-1.595148	99
Es	1.568051	1.758787	1.386534	99
Es	0.837032	1.578108	1.365600	99
Es	-1.214220	-1.570277	-1.903130	99
Es	-0.570121	-1.852292	-0.886579	99
Es	0.754237	0.820020	1.388698	99
Es	0.032628	-2.194139	0.141976	99
Es	0.481822	-0.145870	0.670330	99
Es	-0.408263	-1.660804	-0.160374	99
Es	0.303613	-0.311811	-0.059569	99
Es	-0.109315	-2.062842	-2.013519	99
Es	-0.056969	-0.986949	-0.115071	99
Es	-1.039792	-2.732582	-1.613075	99
Es	0.520687	1.842054	0.722731	99
Es	0.751642	2.291617	-0.411027	99
Es	0.942328	-0.331496	-0.466946	99
Es	0.076348	-0.116534	1.841832	99
Es	0.648214	0.062084	1.382090	99
Es	-0.535575	0.879920	-0.514102	99
Es	0.508538	1.891876	1.966267	99
Es	-0.133001	0.269463	-0.309840	99
Es	-0.595797	0.925003	-1.261985	99
Es	1.263402	-0.296056	1.627406	99
Es	-0.176859	1.491825	-0.237217	99
Es	0.208144	2.075451	0.065496	99
49
Properties=species:S:1:pos:R:3:Z:I:1 energy=-273.3240543007222 field_type=dipole dipole="0.000000 0.000000 0.000000" charge=0
C	-0.731187	-2.050539	-1.595163	6
C	-0.408267	-1.660809	-0.160333	6
C	0.303633	-0.311809	-0.059583	6
C	-0.535587	0.879911	-0.514113	6
C	0.208143	2.075471	0.065487	6
C	0.837043	1.578121	1.365617	6
C	0.648213	0.062061	1.382097	6
H	-1.182627	-3.047489	-1.621643	1
H	0.174463	-2.072249	-2.209283	1
H	-1.439947	-1.351259	-2.048543	1
H	0.229043	-2.437119	0.280407	1
H	-1.337197	-1.646009	0.422867	1
H	1.230423	-0.344859	-0.648603	1
H	-1.548317	0.828571	-0.095533	1
H	-0.619737	0.946721	-1.603133	1
H	0.997343	2.395651	-0.625173	1
H	-0.454807	2.930551	0.228017	1
H	1.900013	1.842011	1.398247	1
H	0.360223	2.034761	2.239587	1
H	1.544053	-0.456139	1.738737	1
H	-0.174917	-0.195549	2.060046	1
Es	1.263301	-0.296113	1.627455	99
Es	-1.230308	0.838412	-0.219747	99
Es	-0.408263	-1.660806	-0.160374	99
Es	-0.056878	-0.986946	-0.115016	99
Es	0.303613	-0.311809	-0.059569	99
Es	-0.176934	1.491867	-0.237164	99
Es	-0.731184	-2.050538	-1.595148	99
Es	0.520576	1.842112	0.722798	99
Es	0.076382	-0.116480	1.841783	99
Es	-0.109365	-2.062824	-2.013481	99
Es	-0.570108	-1.852324	-0.886592	99
Es	-1.047319	-1.643709	0.240700	99
Es	-1.039822	-2.732629	-1.613129	99
Es	0.481864	-0.145935	0.670314	99
Es	-0.595845	0.925049	-1.262005	99
Es	0.032536	-2.194073	0.141947	99
Es	0.508675	1.891918	1.966225	99
Es	0.754170	0.820065	1.388764	99
Es	0.942268	-0.331478	-0.466929	99
Es	0.648215	0.062084	1.382091	99
Es	0.837032	1.578108	1.365600	99
Es	-0.535576	0.879921	-0.514101	99
Es	-1.214151	-1.570269	-1.903150	99
Es	-0.247275	2.663480	0.176899	99
Es	-0.133029	0.269454	-0.309875	99
Es	0.751691	2.291667	-0.411018	99
Es	1.568106	1.758711	1.386477	99
Es	0.208143	2.075451	0.065493	99
49
Properties=species:S:1:pos:R:3:Z:I:1 energy=-273.3240543007222 field_type=dipole dipole="0.000000 0.000000 0.000000" charge=0
C	-0.731187	-2.050539	-1.595163	6
C	-0.408267	-1.660809	-0.160333	6
C	0.303633	-0.311809	-0.059583	6
C	-0.535587	0.879911	-0.514113	6
C	0.208143	2.075471	0.065487	6
C	0.837043	1.578121	1.365617	6
C	0.648213	0.062061	1.382097	6
H	-1.182627	-3.047489	-1.621643	1
H	0.174463	-2.072249	-2.209283	1
H	-1.439947	-1.351259	-2.048543	1
H	0.229043	-2.437119	0.280407	1
H	-1.337197	-1.646009	0.422867	1
H	1.230423	-0.344859	-0.648603	1
H	-1.548317	0.828571	-0.095533	1
H	-0.619737	0.946721	-1.603133	1
H	0.997343	2.395651	-0.625173	1
H	-0.454807	2.930551	0.228017	1
H	1.900013	1.842011	1.398247	1
H	0.360223	2.034761	2.239587	1
H	1.544053	-0.456139	1.738737	1
H	-0.174917	-0.195549	2.060046	1
Es	1.263267	-0.296093	1.627442	99
Es	0.481875	-0.145976	0.670349	99
Es	0.837032	1.578109	1.365600	99
Es	-1.214109	-1.570306	-1.902964	99
Es	0.208144	2.075450	0.065496	99
Es	0.303613	-0.311810	-0.059569	99
Es	-0.595904	0.924975	-1.261865	99
Es	0.751588	2.291553	-0.411021	99
Es	-1.047278	-1.643705	0.240647	99
Es	0.754236	0.820032	1.388858	99
Es	0.032497	-2.194066	0.142007	99
Es	-1.039943	-2.732529	-1.613152	99
Es	0.508633	1.891851	1.966126	99
Es	-1.230303	0.838425	-0.219787	99
Es	-0.570133	-1.852423	-0.886645	99
Es	-0.133013	0.269386	-0.309942	99
Es	-0.109254	-2.062811	-2.013648	99
Es	-0.535575	0.879920	-0.514101	99
Es	0.942188	-0.331499	-0.466943	99
Es	0.648215	0.062084	1.382091	99
Es	-0.731184	-2.050537	-1.595148	99
Es	0.520670	1.842184	0.722890	99
Es	1.568029	1.758879	1.386572	99
Es	-0.056932	-0.986911	-0.115029	99
Es	-0.408264	-1.660806	-0.160373	99
Es	0.076508	-0.116543	1.841752	99
Es	-0.176881	1.491991	-0.237173	99
Es	-0.247207	2.663544	0.176778	99
49
Properties=species:S:1:pos:R:3:Z:I:1 energy=-273.3240543007222 field_type=dipole dipole="0.000000 0.000000 0.000000" charge=0
C	-0.731187	-2.050539	-1.595163	6
C	-0.408267	-1.660809	-0.160333	6
C	0.303633	-0.311809	-0.059583	6
C	-0.535587	0.879911	-0.514113	6
C	0.208143	2.075471	0.065487	6
C	0.837043	1.578121	1.365617	6
C	0.648213	0.062061	1.382097	6
H	-1.182627	-3.047489	-1.621643	1
H	0.174463	-2.072249	-2.209283	1
H	-1.439947	-1.351259	-2.048543	1
H	0.229043	-2.437119	0.280407	1
H	-1.337197	-1.646009	0.422867	1
H	1.230423	-0.344859	-0.648603	1
H	-1.548317	0.828571	-0.095533	1
H	-0.619737	0.946721	-1.603133	1
H	0.997343	2.395651	-0.625173	1
H	-0.454807	2.930551	0.228017	1
H	1.900013	1.842011	1.398247	1
H	0.360223	2.034761	2.239587	1
H	1.544053	-0.456139	1.738737	1
H	-0.174917	-0.195549	2.060046	1
Es	-0.731194	-2.050541	-1.595159	99
Es	0.942195	-0.331491	-0.466869	99
Es	-1.230274	0.838395	-0.219853	99
Es	-1.039814	-2.732569	-1.613066	99
Es	0.837033	1.578108	1.365600	99
Es	-0.408263	-1.660807	-0.160372	99
Es	0.648215	0.062084	1.382091	99
Es	0.303613	-0.311812	-0.059569	99
Es	-0.056776	-0.986911	-0.115015	99
Es	1.567951	1.758812	1.386662	99
Es	-0.535575	0.879921	-0.514102	99
Es	-0.133038	0.269393	-0.309963	99
Es	-0.109382	-2.062851	-2.013587	99
Es	-1.047254	-1.643702	0.240652	99
Es	0.520669	1.842339	0.722810	99
Es	-0.247129	2.663468	0.176759	99
Es	-0.595881	0.925008	-1.261886	99
Es	0.032448	-2.194068	0.141996	99
Es	0.481881	-0.145997	0.670304	99
Es	0.751586	2.291640	-0.410960	99
Es	-0.570093	-1.852320	-0.886594	99
Es	0.754315	0.820045	1.388870	99
Es	1.263177	-0.296091	1.627452	99
Es	0.208144	2.075449	0.065496	99
Es	-1.214170	-1.570365	-1.903121	99
Es	-0.177046	1.491930	-0.237223	99
Es	0.508677	1.891825	1.966132	99
Es	0.076499	-0.116525	1.841762	99
49
Properties=species:S:1:pos:R:3:Z:I:1 energy=-273.3240543007222 field_type=dipole dipole="0.000000 0.000000 0.000000" charge=0
C	-0.731187	-2.050539	-1.595163	6
C	-0.408267	-1.660809	-0.160333	6
C	0.303633	-0.311809	-0.059583	6
C	-0.535587	0.879911	-0.514113	6
C	0.208143	2.075471	0.065487	6
C	0.837043	1.578121	1.365617	6
C	0.648213	0.062061	1.382097	6
H	-1.182627	-3.047489	-1.621643	1
H	0.174463	-2.072249	-2.209283	1
H	-1.439947	-1.351259	-2.048543	1
H	0.229043	-2.437119	0.280407	1
H	-1.337197	-1.646009	0.422867	1
H	1.230423	-0.344859	-0.648603	1
H	-1.548317	0.828571	-0.095533	1
H	-0.619737	0.946721	-1.603133	1
H	0.997343	2.395651	-0.625173	1
H	-0.454807	2.930551	0.228017	1
H	1.900013	1.842011	1.398247	1
H	0.360223	2.034761	2.239587	1
H	1.544053	-0.456139	1.738737	1
H	-0.174917	-0.195549	2.060046	1
Es	-1.047199	-1.643733	0.240671	99
Es	0.481921	-0.146038	0.670259	99
Es	-0.408264	-1.660807	-0.160372	99
Es	1.263156	-0.296044	1.627462	99
Es	0.837032	1.578109	1.365600	99
Es	0.520700	1.842331	0.722827	99
Es	-1.230245	0.838423	-0.219910	99
Es	0.303613	-0.311811	-0.059568	99
Es	-1.039792	-2.732567	-1.613198	99
Es	-0.595888	0.925000	-1.261858	99
Es	0.754299	0.820036	1.388938	99
Es	0.942149	-0.331532	-0.466852	99
Es	-0.109468	-2.062839	-2.013540	99
Es	1.567906	1.758838	1.386648	99
Es	-0.247067	2.663488	0.176757	99
Es	-0.177087	1.491991	-0.237246	99
Es	-0.056807	-0.986891	-0.114978	99
Es	-0.535574	0.879921	-0.514101	99
Es	-0.731184	-2.050537	-1.595148	99
Es	-0.570117	-1.852353	-0.886498	99
Es	0.076558	-0.116566	1.841752	99
Es	-0.133029	0.269369	-0.309961	99
Es	0.508727	1.891832	1.966119	99
Es	-1.214124	-1.570382	-1.903185	99
Es	0.032422	-2.194030	0.141986	99
Es	0.208144	2.075450	0.065496	99
Es	0.751516	2.291626	-0.410943	99
Es	0.648215	0.062084	1.382091	99
