38
Properties=species:S:1:pos:R:3:Z:I:1 energy=-358.69455610767653 field_type=dipole dipole="0.000000 0.000000 0.000000" charge=0
C	-1.814144	-0.092142	0.285140	6
C	-0.499224	-0.003852	0.085210	6
C	0.384506	1.196318	0.141750	6
O	1.696186	0.684528	-0.173960	8
C	1.598696	-0.664562	-0.382590	6
O	2.531096	-1.395852	-0.666000	8
N	0.298726	-1.051342	-0.224360	7
H	-2.341894	-1.037452	0.211050	1
H	-2.402464	0.787277	0.528770	1
H	0.417126	1.641538	1.140060	1
H	0.114686	1.947577	-0.605500	1
H	0.016706	-2.012033	-0.339570	1
Es	0.327460	-1.011603	-0.205188	99
Es	-1.151713	-0.098471	0.515818	99
Es	1.625443	0.170350	-0.245200	99
Es	1.598528	-0.664313	-0.382516	99
Es	2.417651	-1.679264	-0.694291	99
Es	0.322401	-1.006610	-0.234819	99
Es	2.530821	-1.395601	-0.665911	99
Es	2.262567	-1.189252	-0.327728	99
Es	-1.257827	0.010301	-0.128131	99
Es	-2.209357	0.502410	0.449814	99
Es	1.863847	0.689375	0.058577	99
Es	1.771457	0.766031	-0.437331	99
Es	0.384705	1.196158	0.141688	99
Es	-1.814171	-0.092144	0.285148	99
Es	0.865702	-0.891425	-0.296049	99
Es	2.794481	-1.250056	-0.684423	99
Es	0.127929	-1.611504	-0.290553	99
Es	1.695882	0.684317	-0.173936	99
Es	0.396533	1.488882	0.811674	99
Es	-2.164512	-0.733883	0.233770	99
Es	-0.074190	0.600113	0.117055	99
Es	-0.498953	-0.003940	0.085161	99
Es	2.183004	-1.108265	-0.817212	99
Es	1.195344	0.854309	-0.057486	99
Es	0.193896	1.694054	-0.358579	99
Es	-0.068938	-0.611358	-0.089450	99
38
Properties=species:S:1:pos:R:3:Z:I:1 energy=-358.69455610767653 field_type=dipole dipole="0.000000 0.000000 0.000000" charge=0
C	-1.814144	-0.092142	0.285140	6
C	-0.499224	-0.003852	0.085210	6
C	0.384506	1.196318	0.141750	6
O	1.696186	0.684528	-0.173960	8
C	1.598696	-0.664562	-0.382590	6
O	2.531096	-1.395852	-0.666000	8
N	0.298726	-1.051342	-0.224360	7
H	-2.341894	-1.037452	0.211050	1
H	-2.402464	0.787277	0.528770	1
H	0.417126	1.641538	1.140060	1
H	0.114686	1.947577	-0.605500	1
H	0.016706	-2.012033	-0.339570	1
Es	-0.498959	-0.003938	0.085150	99
Es	1.598528	-0.664315	-0.382521	99
Es	-1.257508	0.010440	-0.127618	99
Es	0.125092	-1.605551	-0.309073	99
Es	2.180925	-1.106838	-0.814670	99
Es	-1.151923	-0.098911	0.516199	99
Es	2.530840	-1.395623	-0.665919	99
Es	2.417546	-1.678964	-0.695525	99
Es	-0.071687	-0.610127	-0.136698	99
Es	1.784410	0.776691	-0.431378	99
Es	0.299276	-1.049736	-0.225925	99
Es	0.384703	1.196159	0.141688	99
Es	2.265155	-1.191423	-0.326654	99
Es	1.194925	0.855284	-0.060125	99
Es	0.385523	-0.984977	-0.074759	99
Es	1.852985	0.676333	0.063598	99
Es	-2.209372	0.502379	0.449619	99
Es	-2.164588	-0.733798	0.233412	99
Es	-0.074408	0.600257	0.116625	99
Es	1.623887	0.171809	-0.253509	99
Es	0.836404	-0.881953	-0.369884	99
Es	1.695853	0.684275	-0.173966	99
Es	0.194002	1.694137	-0.358468	99
Es	0.396456	1.488796	0.811658	99
Es	-1.814181	-0.092142	0.285145	99
Es	2.794104	-1.249654	-0.686502	99
38
Properties=species:S:1:pos:R:3:Z:I:1 energy=-358.69455610767653 field_type=dipole dipole="0.000000 0.000000 0.000000" charge=0
C	-1.814144	-0.092142	0.285140	6
C	-0.499224	-0.003852	0.085210	6
C	0.384506	1.196318	0.141750	6
O	1.696186	0.684528	-0.173960	8
C	1.598696	-0.664562	-0.382590	6
O	2.531096	-1.395852	-0.666000	8
N	0.298726	-1.051342	-0.224360	7
H	-2.341894	-1.037452	0.211050	1
H	-2.402464	0.787277	0.528770	1
H	0.417126	1.641538	1.140060	1
H	0.114686	1.947577	-0.605500	1
H	0.016706	-2.012033	-0.339570	1
Es	2.180319	-1.107301	-0.815133	99
Es	1.765714	0.760447	-0.438323	99
Es	2.417258	-1.678300	-0.694401	99
Es	2.794320	-1.250398	-0.687596	99
Es	1.868778	0.695590	0.055776	99
Es	-1.814178	-0.092142	0.285141	99
Es	-0.498956	-0.003939	0.085151	99
Es	-2.164570	-0.733786	0.233498	99
Es	2.265818	-1.190855	-0.326261	99
Es	-0.074377	0.600400	0.116540	99
Es	-2.209420	0.502403	0.449381	99
Es	0.384703	1.196159	0.141687	99
Es	-1.152182	-0.098807	0.516342	99
Es	0.298734	-1.051054	-0.224968	99
Es	0.382529	-0.983047	-0.081609	99
Es	0.839822	-0.882652	-0.364361	99
Es	-1.257182	0.010262	-0.127542	99
Es	1.626286	0.169390	-0.242018	99
Es	0.193993	1.694137	-0.358445	99
Es	1.695888	0.684289	-0.173920	99
Es	0.125308	-1.605858	-0.308649	99
Es	1.598531	-0.664319	-0.382528	99
Es	1.195458	0.854630	-0.056914	99
Es	2.530839	-1.395641	-0.665913	99
Es	0.396435	1.488783	0.811653	99
Es	-0.071877	-0.609780	-0.136689	99
38
Properties=species:S:1:pos:R:3:Z:I:1 energy=-358.69455610767653 field_type=dipole dipole="0.000000 0.000000 0.000000" charge=0
C	-1.814144	-0.092142	0.285140	6
C	-0.499224	-0.003852	0.085210	6
C	0.384506	1.196318	0.141750	6
O	1.696186	0.684528	-0.173960	8
C	1.598696	-0.664562	-0.382590	6
O	2.531096	-1.395852	-0.666000	8
N	0.298726	-1.051342	-0.224360	7
H	-2.341894	-1.037452	0.211050	1
H	-2.402464	0.787277	0.528770	1
H	0.417126	1.641538	1.140060	1
H	0.114686	1.947577	-0.605500	1
H	0.016706	-2.012033	-0.339570	1
Es	-0.074228	0.600364	0.117422	99
Es	2.792108	-1.245596	-0.684188	99
Es	0.396409	1.488872	0.811623	99
Es	-1.151527	-0.098311	0.515428	99
Es	-1.258079	0.009856	-0.128251	99
Es	2.530867	-1.395684	-0.665937	99
Es	-2.164551	-0.733764	0.233914	99
Es	-1.814178	-0.092142	0.285149	99
Es	0.384701	1.196160	0.141689	99
Es	0.337556	-0.931204	-0.378941	99
Es	1.195505	0.855327	-0.056975	99
Es	2.423274	-1.679789	-0.694116	99
Es	1.625177	0.170273	-0.245201	99
Es	1.863194	0.688175	0.057787	99
Es	1.695957	0.684323	-0.173957	99
Es	-0.054313	-0.627989	-0.039922	99
Es	0.193932	1.694022	-0.358481	99
Es	0.131989	-1.611718	-0.268741	99
Es	1.772386	0.766255	-0.436965	99
Es	0.860220	-0.910506	-0.204901	99
Es	2.261450	-1.190289	-0.327402	99
Es	1.598531	-0.664322	-0.382522	99
Es	-2.209314	0.502376	0.449798	99
Es	0.299143	-1.051081	-0.223351	99
Es	-0.498955	-0.003941	0.085158	99
Es	2.180737	-1.111060	-0.818219	99
38
Properties=species:S:1:pos:R:3:Z:I:1 energy=-358.69455610767653 field_type=dipole dipole="0.000000 0.000000 0.000000" charge=0
C	-1.814144	-0.092142	0.285140	6
C	-0.499224	-0.003852	0.085210	6
C	0.384506	1.196318	0.141750	6
O	1.696186	0.684528	-0.173960	8
C	1.598696	-0.664562	-0.382590	6
O	2.531096	-1.395852	-0.666000	8
N	0.298726	-1.051342	-0.224360	7
H	-2.341894	-1.037452	0.211050	1
H	-2.402464	0.787277	0.528770	1
H	0.417126	1.641538	1.140060	1
H	0.114686	1.947577	-0.605500	1
H	0.016706	-2.012033	-0.339570	1
Es	-2.209349	0.502383	0.449597	99
Es	1.864681	0.691229	0.056564	99
Es	-1.257479	0.010327	-0.127661	99
Es	1.598527	-0.664312	-0.382523	99
Es	1.626391	0.169448	-0.244215	99
Es	-1.151916	-0.098896	0.516037	99
Es	2.265389	-1.191658	-0.325884	99
Es	1.695928	0.684354	-0.173945	99
Es	2.180068	-1.107268	-0.815529	99
Es	0.298764	-1.050882	-0.225225	99
Es	2.419477	-1.678881	-0.695266	99
Es	0.396385	1.488833	0.811656	99
Es	0.384698	1.196161	0.141689	99
Es	0.124922	-1.603958	-0.312967	99
Es	0.830587	-0.881089	-0.377872	99
Es	2.530806	-1.395684	-0.665923	99
Es	-2.164594	-0.733703	0.233658	99
Es	0.391706	-0.985539	-0.057609	99
Es	-0.074288	0.600502	0.116592	99
Es	0.193948	1.694040	-0.358426	99
Es	2.792784	-1.249019	-0.686664	99
Es	-0.071575	-0.611028	-0.142652	99
Es	-0.498959	-0.003933	0.085152	99
Es	1.195144	0.855123	-0.057137	99
Es	1.770121	0.764202	-0.436693	99
Es	-1.814177	-0.092141	0.285145	99
38
Properties=species:S:1:pos:R:3:Z:I:1 energy=-358.69455610767653 field_type=dipole dipole="0.000000 0.000000 0.000000" charge=0
C	-1.814144	-0.092142	0.285140	6
C	-0.499224	-0.003852	0.085210	6
C	0.384506	1.196318	0.141750	6
O	1.696186	0.684528	-0.173960	8
C	1.598696	-0.664562	-0.382590	6
O	2.531096	-1.395852	-0.666000	8
N	0.298726	-1.051342	-0.224360	7
H	-2.341894	-1.037452	0.211050	1
H	-2.402464	0.787277	0.528770	1
H	0.417126	1.641538	1.140060	1
H	0.114686	1.947577	-0.605500	1
H	0.016706	-2.012033	-0.339570	1
Es	-2.164528	-0.733707	0.233674	99
Es	1.598529	-0.664317	-0.382520	99
Es	-1.814176	-0.092142	0.285146	99
Es	0.298858	-1.050680	-0.225365	99
Es	-1.257421	0.010289	-0.127654	99
Es	-0.071355	-0.611085	-0.143522	99
Es	0.384702	1.196159	0.141689	99
Es	1.775013	0.767744	-0.435665	99
Es	2.423478	-1.679570	-0.693961	99
Es	2.791180	-1.246177	-0.686123	99
Es	1.195071	0.855857	-0.057492	99
Es	0.396364	1.488811	0.811632	99
Es	2.530846	-1.395549	-0.665888	99
Es	-1.151955	-0.098883	0.515973	99
Es	-2.209408	0.502320	0.449616	99
Es	0.830364	-0.881293	-0.378499	99
Es	1.625765	0.169823	-0.245723	99
Es	2.178351	-1.109320	-0.817020	99
Es	-0.498960	-0.003938	0.085152	99
Es	-0.074328	0.600628	0.116570	99
Es	0.193949	1.694056	-0.358371	99
Es	2.264675	-1.191894	-0.326277	99
Es	0.391825	-0.985502	-0.056401	99
Es	0.124699	-1.603950	-0.312541	99
Es	1.860620	0.686678	0.057421	99
Es	1.695830	0.684251	-0.173952	99
38
Properties=species:S:1:pos:R:3:Z:I:1 energy=-358.69455610767653 field_type=dipole dipole="0.000000 0.000000 0.000000" charge=0
C	-1.814144	-0.092142	0.285140	6
C	-0.499224	-0.003852	0.085210	6
C	0.384506	1.196318	0.141750	6
O	1.696186	0.684528	-0.173960	8
C	1.598696	-0.664562	-0.382590	6
O	2.531096	-1.395852	-0.666000	8
N	0.298726	-1.051342	-0.224360	7
H	-2.341894	-1.037452	0.211050	1
H	-2.402464	0.787277	0.528770	1
H	0.417126	1.641538	1.140060	1
H	0.114686	1.947577	-0.605500	1
H	0.016706	-2.012033	-0.339570	1
Es	-1.257554	0.010095	-0.127947	99
Es	2.795555	-1.252881	-0.687666	99
Es	0.339914	-0.996405	-0.192498	99
Es	0.312853	-1.024518	-0.230847	99
Es	2.414971	-1.677220	-0.693909	99
Es	1.865624	0.690889	0.055709	99
Es	1.626016	0.169810	-0.244279	99
Es	0.384702	1.196159	0.141689	99
Es	1.598529	-0.664317	-0.382518	99
Es	-0.074204	0.600640	0.116973	99
Es	2.530831	-1.395656	-0.665921	99
Es	-0.069932	-0.610683	-0.095024	99
Es	-2.209410	0.502311	0.449608	99
Es	0.127433	-1.610986	-0.293332	99
Es	2.265669	-1.189766	-0.326187	99
Es	1.769632	0.763560	-0.436729	99
Es	-0.498964	-0.003936	0.085155	99
Es	0.864007	-0.890094	-0.304445	99
Es	-2.164512	-0.733738	0.233774	99
Es	1.195210	0.855813	-0.056118	99
Es	0.396363	1.488829	0.811570	99
Es	-1.814175	-0.092142	0.285147	99
Es	-1.151786	-0.098604	0.515849	99
Es	2.181429	-1.106899	-0.815796	99
Es	0.193935	1.694041	-0.358382	99
Es	1.695858	0.684307	-0.173976	99
38
Properties=species:S:1:pos:R:3:Z:I:1 energy=-358.69455610767653 field_type=dipole dipole="0.000000 0.000000 0.000000" charge=0
C	-1.814144	-0.092142	0.285140	6
C	-0.499224	-0.003852	0.085210	6
C	0.384506	1.196318	0.141750	6
O	1.696186	0.684528	-0.173960	8
C	1.598696	-0.664562	-0.382590	6
O	2.531096	-1.395852	-0.666000	8
N	0.298726	-1.051342	-0.224360	7
H	-2.341894	-1.037452	0.211050	1
H	-2.402464	0.787277	0.528770	1
H	0.417126	1.641538	1.140060	1
H	0.114686	1.947577	-0.605500	1
H	0.016706	-2.012033	-0.339570	1
Es	-1.257561	0.010034	-0.128030	99
Es	0.193894	1.694033	-0.358372	99
Es	1.695838	0.684262	-0.173866	99
Es	2.179149	-1.109911	-0.817109	99
Es	-0.074190	0.600697	0.117078	99
Es	2.265430	-1.189212	-0.326254	99
Es	2.530844	-1.395641	-0.665924	99
Es	-0.068735	-0.611801	-0.087006	99
Es	1.855669	0.678587	0.060123	99
Es	1.781163	0.774473	-0.430986	99
Es	2.421067	-1.679583	-0.692429	99
Es	0.866066	-0.891996	-0.293305	99
Es	0.324305	-1.002209	-0.237284	99
Es	1.194857	0.856127	-0.057700	99
Es	-2.164524	-0.733696	0.233845	99
Es	0.384701	1.196159	0.141689	99
Es	0.324353	-1.014958	-0.209204	99
Es	0.128259	-1.611806	-0.289306	99
Es	-0.498960	-0.003938	0.085153	99
Es	-1.151757	-0.098554	0.515845	99
Es	-1.814174	-0.092142	0.285146	99
Es	0.396381	1.488843	0.811541	99
Es	2.791946	-1.248050	-0.687804	99
Es	1.624840	0.170932	-0.252991	99
Es	-2.209400	0.502274	0.449571	99
Es	1.598529	-0.664317	-0.382520	99
38
Properties=species:S:1:pos:R:3:Z:I:1 energy=-358.69455610767653 field_type=dipole dipole="0.000000 0.000000 0.000000" charge=0
C	-1.814144	-0.092142	0.285140	6
C	-0.499224	-0.003852	0.085210	6
C	0.384506	1.196318	0.141750	6
O	1.696186	0.684528	-0.173960	8
C	1.598696	-0.664562	-0.382590	6
O	2.531096	-1.395852	-0.666000	8
N	0.298726	-1.051342	-0.224360	7
H	-2.341894	-1.037452	0.211050	1
H	-2.402464	0.787277	0.528770	1
H	0.417126	1.641538	1.140060	1
H	0.114686	1.947577	-0.605500	1
H	0.016706	-2.012033	-0.339570	1
Es	1.695796	0.684285	-0.174062	99
Es	2.419258	-1.678213	-0.695587	99
Es	1.194699	0.856539	-0.057998	99
Es	-0.498960	-0.003936	0.085150	99
Es	0.193941	1.694031	-0.358278	99
Es	-2.209409	0.502261	0.449570	99
Es	0.299063	-1.050201	-0.225644	99
Es	-1.814175	-0.092142	0.285146	99
Es	0.391700	-0.986392	-0.053755	99
Es	-0.074401	0.600819	0.116614	99
Es	0.830172	-0.881481	-0.378378	99
Es	1.598529	-0.664317	-0.382520	99
Es	-0.071171	-0.611115	-0.144732	99
Es	2.180568	-1.107322	-0.815839	99
Es	-1.257383	0.010223	-0.127608	99
Es	1.776721	0.768956	-0.433197	99
Es	1.859667	0.684326	0.058289	99
Es	0.396327	1.488825	0.811567	99
Es	2.264582	-1.191858	-0.325759	99
Es	0.384700	1.196160	0.141689	99
Es	2.530794	-1.395603	-0.665920	99
Es	1.625590	0.170230	-0.248440	99
Es	-2.164544	-0.733631	0.233669	99
Es	0.124568	-1.603387	-0.313856	99
Es	-1.151925	-0.098945	0.515961	99
Es	2.793286	-1.249500	-0.686184	99
38
Properties=species:S:1:pos:R:3:Z:I:1 energy=-358.69455610767653 field_type=dipole dipole="0.000000 0.000000 0.000000" charge=0
C	-1.814144	-0.092142	0.285140	6
C	-0.499224	-0.003852	0.085210	6
C	0.384506	1.196318	0.141750	6
O	1.696186	0.684528	-0.173960	8
C	1.598696	-0.664562	-0.382590	6
O	2.531096	-1.395852	-0.666000	8
N	0.298726	-1.051342	-0.224360	7
H	-2.341894	-1.037452	0.211050	1
H	-2.402464	0.787277	0.528770	1
H	0.417126	1.641538	1.140060	1
H	0.114686	1.947577	-0.605500	1
H	0.016706	-2.012033	-0.339570	1
Es	1.626078	0.169469	-0.241759	99
Es	2.790706	-1.246966	-0.686088	99
Es	-2.209376	0.502228	0.449724	99
Es	-2.164534	-0.733655	0.233803	99
Es	2.530757	-1.395671	-0.665913	99
Es	2.422880	-1.680059	-0.694150	99
Es	1.598530	-0.664317	-0.382516	99
Es	0.396288	1.488830	0.811503	99
Es	0.865800	-0.891787	-0.295276	99
Es	1.764996	0.758754	-0.437657	99
Es	1.695810	0.684288	-0.173974	99
Es	0.326616	-1.012540	-0.206090	99
Es	2.180058	-1.109647	-0.817502	99
Es	-1.151600	-0.098651	0.515632	99
Es	0.127776	-1.611364	-0.291526	99
Es	1.870078	0.695024	0.052719	99
Es	0.323030	-1.005659	-0.234399	99
Es	-1.814176	-0.092143	0.285151	99
Es	-0.074153	0.600808	0.117119	99
Es	0.193887	1.694004	-0.358323	99
Es	1.195541	0.856888	-0.054736	99
Es	0.384698	1.196161	0.141690	99
Es	-0.498959	-0.003939	0.085153	99
Es	2.264014	-1.190036	-0.325882	99
Es	-0.069065	-0.611505	-0.088781	99
Es	-1.257687	0.010097	-0.128023	99
38
Properties=species:S:1:pos:R:3:Z:I:1 energy=-358.69455610767653 field_type=dipole dipole="0.000000 0.000000 0.000000" charge=0
C	-1.814144	-0.092142	0.285140	6
C	-0.499224	-0.003852	0.085210	6
C	0.384506	1.196318	0.141750	6
O	1.696186	0.684528	-0.173960	8
C	1.598696	-0.664562	-0.382590	6
O	2.531096	-1.395852	-0.666000	8
N	0.298726	-1.051342	-0.224360	7
H	-2.341894	-1.037452	0.211050	1
H	-2.402464	0.787277	0.528770	1
H	0.417126	1.641538	1.140060	1
H	0.114686	1.947577	-0.605500	1
H	0.016706	-2.012033	-0.339570	1
Es	-0.074445	0.600966	0.116651	99
Es	-2.209363	0.502273	0.449516	99
Es	0.396315	1.488756	0.811492	99
Es	0.298834	-1.050729	-0.225324	99
Es	0.124462	-1.602302	-0.315540	99
Es	2.181691	-1.106155	-0.816203	99
Es	-1.257274	0.010126	-0.127498	99
Es	1.626022	0.169861	-0.245326	99
Es	1.695847	0.684300	-0.173942	99
Es	1.862522	0.688047	0.056439	99
Es	1.773412	0.765247	-0.435048	99
Es	1.598533	-0.664324	-0.382509	99
Es	2.266556	-1.189417	-0.325275	99
Es	1.194805	0.856892	-0.057595	99
Es	2.794772	-1.254437	-0.688169	99
Es	0.193861	1.694073	-0.358227	99
Es	2.530821	-1.395624	-0.665914	99
Es	0.384688	1.196164	0.141691	99
Es	-1.814172	-0.092140	0.285145	99
Es	0.823893	-0.881091	-0.386434	99
Es	-1.151974	-0.099045	0.515961	99
Es	-0.070461	-0.612286	-0.151711	99
Es	-2.164613	-0.733552	0.233625	99
Es	0.397591	-0.986195	-0.037387	99
Es	-0.498960	-0.003939	0.085161	99
Es	2.414628	-1.676859	-0.693679	99
38
Properties=species:S:1:pos:R:3:Z:I:1 energy=-358.69455610767653 field_type=dipole dipole="0.000000 0.000000 0.000000" charge=0
C	-1.814144	-0.092142	0.285140	6
C	-0.499224	-0.003852	0.085210	6
C	0.384506	1.196318	0.141750	6
O	1.696186	0.684528	-0.173960	8
C	1.598696	-0.664562	-0.382590	6
O	2.531096	-1.395852	-0.666000	8
N	0.298726	-1.051342	-0.224360	7
H	-2.341894	-1.037452	0.211050	1
H	-2.402464	0.787277	0.528770	1
H	0.417126	1.641538	1.140060	1
H	0.114686	1.947577	-0.605500	1
H	0.016706	-2.012033	-0.339570	1
Es	-0.070797	-0.612202	-0.149612	99
Es	-0.498959	-0.003937	0.085152	99
Es	-1.814172	-0.092140	0.285141	99
Es	1.695859	0.684310	-0.173957	99
Es	2.418990	-1.678184	-0.694352	99
Es	0.384702	1.196159	0.141688	99
Es	-2.164599	-0.733525	0.233677	99
Es	0.299237	-1.050060	-0.225518	99
Es	1.598528	-0.664316	-0.382521	99
Es	0.824072	-0.880951	-0.386232	99
Es	-1.257316	0.010199	-0.127580	99
Es	2.530833	-1.395653	-0.665921	99
Es	0.397230	-0.987233	-0.039245	99
Es	-0.074396	0.600984	0.116788	99
Es	1.857476	0.681044	0.059002	99
Es	1.779499	0.771012	-0.431635	99
Es	0.124447	-1.602216	-0.315804	99
Es	2.265626	-1.190603	-0.325189	99
Es	1.194709	0.857325	-0.058227	99
Es	1.625129	0.170634	-0.250616	99
Es	2.180432	-1.107411	-0.816604	99
Es	-1.151924	-0.098995	0.515965	99
Es	0.396303	1.488869	0.811362	99
Es	-2.209375	0.502164	0.449500	99
Es	0.193867	1.693992	-0.358232	99
Es	2.792591	-1.250656	-0.687131	99
