38
Properties=species:S:1:pos:R:3:Z:I:1 energy=-358.57416307529076 field_type=dipole dipole="0.000000 0.000000 0.000000" charge=0
C	-1.920621	-0.166057	0.175408	6
C	-0.597511	-0.120157	-0.020852	6
C	0.207359	1.135493	-0.112532	6
O	1.384319	0.957602	0.674088	8
N	2.163669	-0.138147	0.237218	7
C	1.477689	-1.185437	-0.088842	6
O	0.122079	-1.321647	-0.142302	8
H	-2.513241	0.736602	0.280358	1
H	-2.439241	-1.117607	0.238768	1
H	-0.335531	1.999013	0.284278	1
H	0.490109	1.351423	-1.149092	1
H	1.960919	-2.131078	-0.376502	1
Es	-0.197711	0.490551	-0.075537	99
Es	-2.313465	0.443097	0.243508	99
Es	1.477397	-1.185463	-0.088890	99
Es	1.557398	1.209556	0.628321	99
Es	-2.271274	-0.801549	0.216259	99
Es	-1.233615	-0.136936	0.409235	99
Es	-0.112124	-0.851485	-0.087871	99
Es	0.939630	0.991244	0.351110	99
Es	-0.597203	-0.120386	-0.020903	99
Es	-0.164282	1.705592	0.156807	99
Es	1.384178	0.957432	0.673872	99
Es	1.282929	0.858310	0.943385	99
Es	0.083334	-1.470846	0.089885	99
Es	2.162990	-0.138204	0.237203	99
Es	0.076322	-1.410321	-0.405881	99
Es	1.866808	-0.668667	0.370909	99
Es	0.207511	1.135378	-0.112399	99
Es	0.635605	-1.218356	-0.120100	99
Es	0.391606	1.265635	-0.818698	99
Es	2.526606	-0.099384	0.249090	99
Es	-1.920669	-0.166050	0.175404	99
Es	0.122297	-1.321266	-0.142307	99
Es	1.685224	0.459212	0.446888	99
Es	1.802084	-1.808186	-0.280832	99
Es	-1.324615	-0.127857	-0.251637	99
Es	1.861452	-0.473056	-0.189211	99
38
Properties=species:S:1:pos:R:3:Z:I:1 energy=-358.57416307529076 field_type=dipole dipole="0.000000 0.000000 0.000000" charge=0
C	-1.920621	-0.166057	0.175408	6
C	-0.597511	-0.120157	-0.020852	6
C	0.207359	1.135493	-0.112532	6
O	1.384319	0.957602	0.674088	8
N	2.163669	-0.138147	0.237218	7
C	1.477689	-1.185437	-0.088842	6
O	0.122079	-1.321647	-0.142302	8
H	-2.513241	0.736602	0.280358	1
H	-2.439241	-1.117607	0.238768	1
H	-0.335531	1.999013	0.284278	1
H	0.490109	1.351423	-1.149092	1
H	1.960919	-2.131078	-0.376502	1
Es	1.867211	-0.668748	0.371236	99
Es	0.207513	1.135378	-0.112400	99
Es	2.162996	-0.138225	0.237192	99
Es	1.861332	-0.473206	-0.189024	99
Es	0.940425	0.991711	0.350467	99
Es	-0.164310	1.705603	0.156800	99
Es	0.391593	1.265614	-0.818690	99
Es	0.084812	-1.468635	0.091858	99
Es	-0.597206	-0.120385	-0.020903	99
Es	-0.197717	0.490696	-0.075515	99
Es	1.477401	-1.185461	-0.088876	99
Es	2.526274	-0.099318	0.248563	99
Es	-1.920673	-0.166050	0.175399	99
Es	0.635559	-1.218266	-0.122114	99
Es	1.685561	0.458991	0.447284	99
Es	1.802122	-1.808159	-0.280844	99
Es	1.384222	0.957416	0.673791	99
Es	-0.111762	-0.851345	-0.089105	99
Es	-1.324623	-0.127844	-0.251548	99
Es	-1.233586	-0.137039	0.409111	99
Es	0.122291	-1.321218	-0.142191	99
Es	1.557102	1.209164	0.628699	99
Es	1.282091	0.858665	0.943421	99
Es	0.074529	-1.412863	-0.404781	99
Es	-2.271219	-0.801542	0.216217	99
Es	-2.313522	0.443063	0.243560	99
38
Properties=species:S:1:pos:R:3:Z:I:1 energy=-358.57416307529076 field_type=dipole dipole="0.000000 0.000000 0.000000" charge=0
C	-1.920621	-0.166057	0.175408	6
C	-0.597511	-0.120157	-0.020852	6
C	0.207359	1.135493	-0.112532	6
O	1.384319	0.957602	0.674088	8
N	2.163669	-0.138147	0.237218	7
C	1.477689	-1.185437	-0.088842	6
O	0.122079	-1.321647	-0.142302	8
H	-2.513241	0.736602	0.280358	1
H	-2.439241	-1.117607	0.238768	1
H	-0.335531	1.999013	0.284278	1
H	0.490109	1.351423	-1.149092	1
H	1.960919	-2.131078	-0.376502	1
Es	-0.164337	1.705599	0.156809	99
Es	2.525840	-0.099431	0.249049	99
Es	2.163016	-0.138242	0.237184	99
Es	-1.920675	-0.166050	0.175399	99
Es	-2.271209	-0.801515	0.216275	99
Es	-2.313546	0.443014	0.243447	99
Es	0.079043	-1.477567	0.086663	99
Es	1.861842	-0.473039	-0.189389	99
Es	1.282888	0.858710	0.943473	99
Es	-1.233633	-0.136868	0.409164	99
Es	0.391542	1.265587	-0.818696	99
Es	-0.112374	-0.851699	-0.086597	99
Es	1.685861	0.459356	0.446763	99
Es	1.384181	0.957408	0.673854	99
Es	1.867097	-0.668805	0.371035	99
Es	-0.197695	0.490699	-0.075551	99
Es	0.080825	-1.403101	-0.406504	99
Es	1.802185	-1.808230	-0.280777	99
Es	1.477398	-1.185465	-0.088872	99
Es	-1.324547	-0.127912	-0.251540	99
Es	0.939832	0.991795	0.350930	99
Es	1.556631	1.208798	0.628653	99
Es	0.207505	1.135379	-0.112405	99
Es	-0.597208	-0.120381	-0.020893	99
Es	0.635677	-1.218768	-0.117690	99
Es	0.122274	-1.321275	-0.142174	99
38
Properties=species:S:1:pos:R:3:Z:I:1 energy=-358.57416307529076 field_type=dipole dipole="0.000000 0.000000 0.000000" charge=0
C	-1.920621	-0.166057	0.175408	6
C	-0.597511	-0.120157	-0.020852	6
C	0.207359	1.135493	-0.112532	6
O	1.384319	0.957602	0.674088	8
N	2.163669	-0.138147	0.237218	7
C	1.477689	-1.185437	-0.088842	6
O	0.122079	-1.321647	-0.142302	8
H	-2.513241	0.736602	0.280358	1
H	-2.439241	-1.117607	0.238768	1
H	-0.335531	1.999013	0.284278	1
H	0.490109	1.351423	-1.149092	1
H	1.960919	-2.131078	-0.376502	1
Es	-2.271214	-0.801535	0.216349	99
Es	1.862032	-0.472967	-0.189235	99
Es	0.940446	0.992724	0.350149	99
Es	0.072282	-1.417699	-0.402360	99
Es	1.866856	-0.668823	0.370724	99
Es	1.802187	-1.808195	-0.280884	99
Es	0.635566	-1.217823	-0.124462	99
Es	-1.920663	-0.166049	0.175399	99
Es	-2.313520	0.443065	0.243493	99
Es	1.384193	0.957419	0.673836	99
Es	-0.112585	-0.851096	-0.091042	99
Es	-1.233511	-0.137032	0.408908	99
Es	0.391535	1.265598	-0.818677	99
Es	2.162995	-0.138206	0.237205	99
Es	1.281278	0.856695	0.940560	99
Es	2.525884	-0.099733	0.249136	99
Es	-1.324689	-0.127874	-0.251455	99
Es	1.557362	1.209883	0.632518	99
Es	0.207507	1.135381	-0.112405	99
Es	0.087809	-1.464525	0.093960	99
Es	-0.597210	-0.120382	-0.020905	99
Es	-0.197764	0.490833	-0.075517	99
Es	1.686219	0.459477	0.446758	99
Es	0.122316	-1.321258	-0.142326	99
Es	-0.164295	1.705579	0.156756	99
Es	1.477398	-1.185464	-0.088873	99
38
Properties=species:S:1:pos:R:3:Z:I:1 energy=-358.57416307529076 field_type=dipole dipole="0.000000 0.000000 0.000000" charge=0
C	-1.920621	-0.166057	0.175408	6
C	-0.597511	-0.120157	-0.020852	6
C	0.207359	1.135493	-0.112532	6
O	1.384319	0.957602	0.674088	8
N	2.163669	-0.138147	0.237218	7
C	1.477689	-1.185437	-0.088842	6
O	0.122079	-1.321647	-0.142302	8
H	-2.513241	0.736602	0.280358	1
H	-2.439241	-1.117607	0.238768	1
H	-0.335531	1.999013	0.284278	1
H	0.490109	1.351423	-1.149092	1
H	1.960919	-2.131078	-0.376502	1
Es	1.866790	-0.668743	0.370572	99
Es	0.122295	-1.321284	-0.142282	99
Es	1.384190	0.957393	0.673743	99
Es	0.207512	1.135380	-0.112406	99
Es	-0.197773	0.490900	-0.075627	99
Es	1.686667	0.459661	0.446840	99
Es	-2.313529	0.443068	0.243402	99
Es	1.862276	-0.472949	-0.189425	99
Es	-0.597210	-0.120382	-0.020900	99
Es	0.071152	-1.418566	-0.402636	99
Es	1.477401	-1.185461	-0.088876	99
Es	2.525508	-0.099943	0.249374	99
Es	0.391464	1.265716	-0.818703	99
Es	-1.920672	-0.166050	0.175398	99
Es	-0.164344	1.705498	0.156902	99
Es	0.088912	-1.463447	0.093157	99
Es	-1.324515	-0.127956	-0.251285	99
Es	0.635838	-1.217873	-0.124703	99
Es	-0.112771	-0.851292	-0.089825	99
Es	2.162998	-0.138228	0.237187	99
Es	1.802296	-1.808229	-0.280802	99
Es	-2.271230	-0.801554	0.216245	99
Es	1.556574	1.209849	0.630847	99
Es	-1.233627	-0.136964	0.408993	99
Es	1.282876	0.857887	0.941092	99
Es	0.939335	0.991566	0.351326	99
38
Properties=species:S:1:pos:R:3:Z:I:1 energy=-358.57416307529076 field_type=dipole dipole="0.000000 0.000000 0.000000" charge=0
C	-1.920621	-0.166057	0.175408	6
C	-0.597511	-0.120157	-0.020852	6
C	0.207359	1.135493	-0.112532	6
O	1.384319	0.957602	0.674088	8
N	2.163669	-0.138147	0.237218	7
C	1.477689	-1.185437	-0.088842	6
O	0.122079	-1.321647	-0.142302	8
H	-2.513241	0.736602	0.280358	1
H	-2.439241	-1.117607	0.238768	1
H	-0.335531	1.999013	0.284278	1
H	0.490109	1.351423	-1.149092	1
H	1.960919	-2.131078	-0.376502	1
Es	-1.233611	-0.136964	0.408828	99
Es	0.939078	0.991837	0.351536	99
Es	0.207510	1.135379	-0.112403	99
Es	1.477402	-1.185460	-0.088876	99
Es	1.686713	0.459778	0.446592	99
Es	1.283608	0.858688	0.942096	99
Es	-2.271177	-0.801516	0.216304	99
Es	1.384170	0.957347	0.673758	99
Es	0.071726	-1.487550	0.079048	99
Es	-2.313570	0.443010	0.243459	99
Es	0.122288	-1.321262	-0.142270	99
Es	-0.597211	-0.120381	-0.020900	99
Es	0.635721	-1.220261	-0.111281	99
Es	1.802322	-1.808263	-0.280750	99
Es	1.867253	-0.668758	0.370729	99
Es	2.162996	-0.138215	0.237192	99
Es	-0.164380	1.705572	0.156782	99
Es	-0.197746	0.490990	-0.075547	99
Es	2.525403	-0.099869	0.248851	99
Es	1.556047	1.208864	0.629957	99
Es	0.088189	-1.391344	-0.408819	99
Es	-0.112493	-0.852070	-0.082930	99
Es	1.861934	-0.473104	-0.189118	99
Es	-1.324572	-0.127982	-0.251357	99
Es	0.391487	1.265580	-0.818673	99
Es	-1.920671	-0.166050	0.175402	99
38
Properties=species:S:1:pos:R:3:Z:I:1 energy=-358.57416307529076 field_type=dipole dipole="0.000000 0.000000 0.000000" charge=0
C	-1.920621	-0.166057	0.175408	6
C	-0.597511	-0.120157	-0.020852	6
C	0.207359	1.135493	-0.112532	6
O	1.384319	0.957602	0.674088	8
N	2.163669	-0.138147	0.237218	7
C	1.477689	-1.185437	-0.088842	6
O	0.122079	-1.321647	-0.142302	8
H	-2.513241	0.736602	0.280358	1
H	-2.439241	-1.117607	0.238768	1
H	-0.335531	1.999013	0.284278	1
H	0.490109	1.351423	-1.149092	1
H	1.960919	-2.131078	-0.376502	1
Es	1.555910	1.208137	0.627829	99
Es	-0.597206	-0.120384	-0.020904	99
Es	-2.271165	-0.801497	0.216218	99
Es	0.076442	-1.411640	-0.404204	99
Es	-1.233613	-0.137056	0.408774	99
Es	1.686303	0.458925	0.447478	99
Es	-1.920671	-0.166050	0.175398	99
Es	-0.197757	0.491029	-0.075635	99
Es	1.384168	0.957379	0.673811	99
Es	0.635881	-1.218500	-0.120422	99
Es	0.122279	-1.321309	-0.142250	99
Es	0.084145	-1.469786	0.089362	99
Es	1.284632	0.860612	0.942822	99
Es	1.802371	-1.808239	-0.280827	99
Es	-0.164394	1.705488	0.156827	99
Es	0.938611	0.991516	0.352062	99
Es	-1.324520	-0.127991	-0.251198	99
Es	1.477407	-1.185461	-0.088865	99
Es	2.525173	-0.099812	0.248719	99
Es	-0.113374	-0.851291	-0.088733	99
Es	2.163006	-0.138239	0.237186	99
Es	1.867454	-0.668753	0.370808	99
Es	-2.313591	0.443085	0.243483	99
Es	1.861961	-0.473223	-0.189056	99
Es	0.391450	1.265680	-0.818673	99
Es	0.207511	1.135378	-0.112402	99
38
Properties=species:S:1:pos:R:3:Z:I:1 energy=-358.57416307529076 field_type=dipole dipole="0.000000 0.000000 0.000000" charge=0
C	-1.920621	-0.166057	0.175408	6
C	-0.597511	-0.120157	-0.020852	6
C	0.207359	1.135493	-0.112532	6
O	1.384319	0.957602	0.674088	8
N	2.163669	-0.138147	0.237218	7
C	1.477689	-1.185437	-0.088842	6
O	0.122079	-1.321647	-0.142302	8
H	-2.513241	0.736602	0.280358	1
H	-2.439241	-1.117607	0.238768	1
H	-0.335531	1.999013	0.284278	1
H	0.490109	1.351423	-1.149092	1
H	1.960919	-2.131078	-0.376502	1
Es	1.686601	0.458895	0.447668	99
Es	-0.113549	-0.851216	-0.089142	99
Es	-0.597211	-0.120382	-0.020899	99
Es	2.525401	-0.100006	0.248392	99
Es	-0.164401	1.705520	0.156774	99
Es	0.122293	-1.321300	-0.142273	99
Es	-1.233612	-0.136979	0.408761	99
Es	1.861554	-0.473443	-0.188570	99
Es	-2.313543	0.443016	0.243438	99
Es	0.073465	-1.415948	-0.403083	99
Es	1.802441	-1.808254	-0.280849	99
Es	-1.920671	-0.166050	0.175399	99
Es	-2.271214	-0.801500	0.216277	99
Es	-0.197742	0.491129	-0.075562	99
Es	-1.324497	-0.127966	-0.251237	99
Es	1.556525	1.208485	0.631020	99
Es	0.207509	1.135379	-0.112403	99
Es	1.867483	-0.668484	0.370667	99
Es	1.384188	0.957393	0.673795	99
Es	0.939361	0.992754	0.350921	99
Es	0.391409	1.265571	-0.818697	99
Es	1.283100	0.859193	0.940632	99
Es	2.162995	-0.138210	0.237189	99
Es	0.635947	-1.218327	-0.122646	99
Es	1.477403	-1.185460	-0.088875	99
Es	0.087180	-1.465814	0.090913	99
38
Properties=species:S:1:pos:R:3:Z:I:1 energy=-358.57416307529076 field_type=dipole dipole="0.000000 0.000000 0.000000" charge=0
C	-1.920621	-0.166057	0.175408	6
C	-0.597511	-0.120157	-0.020852	6
C	0.207359	1.135493	-0.112532	6
O	1.384319	0.957602	0.674088	8
N	2.163669	-0.138147	0.237218	7
C	1.477689	-1.185437	-0.088842	6
O	0.122079	-1.321647	-0.142302	8
H	-2.513241	0.736602	0.280358	1
H	-2.439241	-1.117607	0.238768	1
H	-0.335531	1.999013	0.284278	1
H	0.490109	1.351423	-1.149092	1
H	1.960919	-2.131078	-0.376502	1
Es	-0.597213	-0.120379	-0.020900	99
Es	1.556069	1.208698	0.631211	99
Es	-0.164355	1.705612	0.156697	99
Es	-1.324479	-0.127991	-0.251171	99
Es	2.524777	-0.100208	0.249388	99
Es	1.867048	-0.668721	0.370336	99
Es	-2.271156	-0.801481	0.216273	99
Es	-1.233622	-0.137052	0.408630	99
Es	0.207512	1.135378	-0.112402	99
Es	1.384201	0.957450	0.673878	99
Es	0.070909	-1.419124	-0.400941	99
Es	1.802506	-1.808244	-0.280797	99
Es	-2.313602	0.443041	0.243438	99
Es	-0.113463	-0.850857	-0.090087	99
Es	1.862668	-0.473030	-0.189277	99
Es	2.163003	-0.138234	0.237189	99
Es	-1.920672	-0.166049	0.175393	99
Es	-0.197824	0.491231	-0.075434	99
Es	1.283218	0.858832	0.940499	99
Es	0.636371	-1.218732	-0.125150	99
Es	0.122354	-1.321236	-0.142380	99
Es	0.391384	1.265462	-0.818670	99
Es	0.939209	0.992430	0.351208	99
Es	0.089174	-1.462724	0.092308	99
Es	1.477393	-1.185458	-0.088891	99
Es	1.687004	0.459384	0.447263	99
38
Properties=species:S:1:pos:R:3:Z:I:1 energy=-358.57416307529076 field_type=dipole dipole="0.000000 0.000000 0.000000" charge=0
C	-1.920621	-0.166057	0.175408	6
C	-0.597511	-0.120157	-0.020852	6
C	0.207359	1.135493	-0.112532	6
O	1.384319	0.957602	0.674088	8
N	2.163669	-0.138147	0.237218	7
C	1.477689	-1.185437	-0.088842	6
O	0.122079	-1.321647	-0.142302	8
H	-2.513241	0.736602	0.280358	1
H	-2.439241	-1.117607	0.238768	1
H	-0.335531	1.999013	0.284278	1
H	0.490109	1.351423	-1.149092	1
H	1.960919	-2.131078	-0.376502	1
Es	1.384187	0.957408	0.673823	99
Es	-0.597213	-0.120380	-0.020900	99
Es	-0.164425	1.705539	0.156764	99
Es	1.555876	1.208512	0.631892	99
Es	-0.197759	0.491256	-0.075548	99
Es	-0.114097	-0.851231	-0.088815	99
Es	1.862111	-0.473269	-0.188733	99
Es	1.283147	0.858795	0.940085	99
Es	-2.271159	-0.801540	0.216283	99
Es	-1.324455	-0.127957	-0.251100	99
Es	0.939225	0.992741	0.351076	99
Es	-1.920670	-0.166050	0.175398	99
Es	0.636178	-1.218674	-0.120740	99
Es	1.802517	-1.808283	-0.280815	99
Es	0.391371	1.265544	-0.818673	99
Es	1.687391	0.459477	0.447297	99
Es	0.207508	1.135380	-0.112404	99
Es	-2.313600	0.442965	0.243390	99
Es	0.122271	-1.321287	-0.142205	99
Es	1.477402	-1.185462	-0.088873	99
Es	2.162998	-0.138216	0.237193	99
Es	0.085337	-1.468094	0.088901	99
Es	-1.233624	-0.136946	0.408628	99
Es	0.075629	-1.413383	-0.403380	99
Es	2.524782	-0.100150	0.248500	99
Es	1.867485	-0.668698	0.370566	99
38
Properties=species:S:1:pos:R:3:Z:I:1 energy=-358.57416307529076 field_type=dipole dipole="0.000000 0.000000 0.000000" charge=0
C	-1.920621	-0.166057	0.175408	6
C	-0.597511	-0.120157	-0.020852	6
C	0.207359	1.135493	-0.112532	6
O	1.384319	0.957602	0.674088	8
N	2.163669	-0.138147	0.237218	7
C	1.477689	-1.185437	-0.088842	6
O	0.122079	-1.321647	-0.142302	8
H	-2.513241	0.736602	0.280358	1
H	-2.439241	-1.117607	0.238768	1
H	-0.335531	1.999013	0.284278	1
H	0.490109	1.351423	-1.149092	1
H	1.960919	-2.131078	-0.376502	1
Es	-2.271147	-0.801515	0.216271	99
Es	0.391334	1.265654	-0.818665	99
Es	1.477402	-1.185463	-0.088868	99
Es	2.162999	-0.138218	0.237194	99
Es	1.802536	-1.808258	-0.280857	99
Es	0.122273	-1.321271	-0.142238	99
Es	-1.233686	-0.136966	0.408540	99
Es	0.939076	0.992978	0.350937	99
Es	-1.920670	-0.166051	0.175398	99
Es	-0.164485	1.705451	0.156845	99
Es	-0.197703	0.491244	-0.075628	99
Es	1.384201	0.957458	0.673900	99
Es	-2.313611	0.443027	0.243404	99
Es	0.636114	-1.218462	-0.123538	99
Es	-0.114109	-0.850958	-0.090247	99
Es	1.283111	0.858714	0.939102	99
Es	-0.597208	-0.120377	-0.020905	99
Es	0.087584	-1.465340	0.091288	99
Es	0.073428	-1.416673	-0.401471	99
Es	1.555954	1.208515	0.632674	99
Es	1.867768	-0.668773	0.370732	99
Es	-1.324392	-0.128021	-0.251029	99
Es	1.862124	-0.473318	-0.188747	99
Es	2.524385	-0.100215	0.248277	99
Es	0.207509	1.135379	-0.112402	99
Es	1.687625	0.459455	0.447643	99
38
Properties=species:S:1:pos:R:3:Z:I:1 energy=-358.57416307529076 field_type=dipole dipole="0.000000 0.000000 0.000000" charge=0
C	-1.920621	-0.166057	0.175408	6
C	-0.597511	-0.120157	-0.020852	6
C	0.207359	1.135493	-0.112532	6
O	1.384319	0.957602	0.674088	8
N	2.163669	-0.138147	0.237218	7
C	1.477689	-1.185437	-0.088842	6
O	0.122079	-1.321647	-0.142302	8
H	-2.513241	0.736602	0.280358	1
H	-2.439241	-1.117607	0.238768	1
H	-0.335531	1.999013	0.284278	1
H	0.490109	1.351423	-1.149092	1
H	1.960919	-2.131078	-0.376502	1
Es	1.861852	-0.473512	-0.188507	99
Es	0.066651	-1.426797	-0.398726	99
Es	-2.271181	-0.801484	0.216248	99
Es	2.163008	-0.138228	0.237191	99
Es	1.282145	0.857598	0.937770	99
Es	-2.313587	0.442950	0.243408	99
Es	0.391341	1.265677	-0.818668	99
Es	-0.597211	-0.120381	-0.020901	99
Es	-0.197748	0.491393	-0.075679	99
Es	1.477402	-1.185462	-0.088873	99
Es	2.524300	-0.100197	0.247942	99
Es	-1.324404	-0.128003	-0.251029	99
Es	1.555822	1.209092	0.634849	99
Es	0.122297	-1.321298	-0.142272	99
Es	-0.114102	-0.850949	-0.091750	99
Es	-1.920667	-0.166052	0.175397	99
Es	1.688335	0.459832	0.447387	99
Es	-1.233637	-0.137018	0.408533	99
Es	1.384149	0.957385	0.673804	99
Es	0.636095	-1.217818	-0.128550	99
Es	-0.164500	1.705418	0.156842	99
Es	0.094355	-1.455878	0.095107	99
Es	0.207506	1.135381	-0.112406	99
Es	1.802597	-1.808246	-0.280911	99
Es	0.939569	0.993253	0.350541	99
Es	1.868026	-0.668659	0.370860	99
38
Properties=species:S:1:pos:R:3:Z:I:1 energy=-358.57416307529076 field_type=dipole dipole="0.000000 0.000000 0.000000" charge=0
C	-1.920621	-0.166057	0.175408	6
C	-0.597511	-0.120157	-0.020852	6
C	0.207359	1.135493	-0.112532	6
O	1.384319	0.957602	0.674088	8
N	2.163669	-0.138147	0.237218	7
C	1.477689	-1.185437	-0.088842	6
O	0.122079	-1.321647	-0.142302	8
H	-2.513241	0.736602	0.280358	1
H	-2.439241	-1.117607	0.238768	1
H	-0.335531	1.999013	0.284278	1
H	0.490109	1.351423	-1.149092	1
H	1.960919	-2.131078	-0.376502	1
Es	0.391317	1.265507	-0.818680	99
Es	2.523990	-0.100416	0.248395	99
Es	-2.313646	0.442936	0.243406	99
Es	-1.324441	-0.127867	-0.251020	99
Es	-0.114280	-0.851195	-0.089452	99
Es	0.207505	1.135382	-0.112407	99
Es	0.636143	-1.218400	-0.123225	99
Es	-2.271115	-0.801573	0.216212	99
Es	0.072592	-1.417959	-0.401922	99
Es	1.477404	-1.185460	-0.088866	99
Es	-0.197736	0.491394	-0.075465	99
Es	1.384224	0.957423	0.673741	99
Es	-0.164477	1.705519	0.156761	99
Es	0.088511	-1.464013	0.090792	99
Es	0.122309	-1.321250	-0.142346	99
Es	0.938452	0.992554	0.351649	99
Es	1.862343	-0.473303	-0.188826	99
Es	1.802633	-1.808294	-0.280818	99
Es	-1.233608	-0.136944	0.408412	99
Es	1.688075	0.459378	0.447869	99
Es	1.284410	0.860407	0.940189	99
Es	-0.597215	-0.120379	-0.020899	99
Es	1.867732	-0.668736	0.370600	99
Es	2.163000	-0.138216	0.237193	99
Es	1.554961	1.207552	0.630919	99
Es	-1.920668	-0.166049	0.175398	99
38
Properties=species:S:1:pos:R:3:Z:I:1 energy=-358.57416307529076 field_type=dipole dipole="0.000000 0.000000 0.000000" charge=0
C	-1.920621	-0.166057	0.175408	6
C	-0.597511	-0.120157	-0.020852	6
C	0.207359	1.135493	-0.112532	6
O	1.384319	0.957602	0.674088	8
N	2.163669	-0.138147	0.237218	7
C	1.477689	-1.185437	-0.088842	6
O	0.122079	-1.321647	-0.142302	8
H	-2.513241	0.736602	0.280358	1
H	-2.439241	-1.117607	0.238768	1
H	-0.335531	1.999013	0.284278	1
H	0.490109	1.351423	-1.149092	1
H	1.960919	-2.131078	-0.376502	1
Es	-2.313606	0.442919	0.243520	99
Es	0.939516	0.993972	0.350313	99
Es	2.523874	-0.100438	0.248197	99
Es	-1.324482	-0.127962	-0.251096	99
Es	1.555399	1.207962	0.634664	99
Es	-1.920670	-0.166049	0.175401	99
Es	1.477400	-1.185462	-0.088876	99
Es	0.073115	-1.417569	-0.401789	99
Es	2.163003	-0.138214	0.237194	99
Es	1.867885	-0.668717	0.370570	99
Es	1.862268	-0.473349	-0.188683	99
Es	0.088308	-1.464379	0.090326	99
Es	1.384209	0.957442	0.673857	99
Es	-0.597213	-0.120380	-0.020898	99
Es	-0.197746	0.491474	-0.075622	99
Es	-0.164522	1.705480	0.156795	99
Es	-0.114583	-0.851070	-0.089456	99
Es	-2.271137	-0.801475	0.216314	99
Es	0.391274	1.265544	-0.818669	99
Es	0.207506	1.135381	-0.112407	99
Es	1.688560	0.459860	0.447489	99
Es	1.802680	-1.808300	-0.280809	99
Es	0.122305	-1.321291	-0.142310	99
Es	-1.233562	-0.137039	0.408381	99
Es	0.636148	-1.218499	-0.122910	99
Es	1.282486	0.858154	0.938114	99
38
Properties=species:S:1:pos:R:3:Z:I:1 energy=-358.57416307529076 field_type=dipole dipole="0.000000 0.000000 0.000000" charge=0
C	-1.920621	-0.166057	0.175408	6
C	-0.597511	-0.120157	-0.020852	6
C	0.207359	1.135493	-0.112532	6
O	1.384319	0.957602	0.674088	8
N	2.163669	-0.138147	0.237218	7
C	1.477689	-1.185437	-0.088842	6
O	0.122079	-1.321647	-0.142302	8
H	-2.513241	0.736602	0.280358	1
H	-2.439241	-1.117607	0.238768	1
H	-0.335531	1.999013	0.284278	1
H	0.490109	1.351423	-1.149092	1
H	1.960919	-2.131078	-0.376502	1
Es	1.687766	0.459009	0.448284	99
Es	1.802737	-1.808286	-0.280873	99
Es	-2.271209	-0.801456	0.216277	99
Es	-0.164561	1.705471	0.156769	99
Es	-1.233627	-0.137065	0.408316	99
Es	-0.115144	-0.851026	-0.090923	99
Es	0.636062	-1.217838	-0.126780	99
Es	1.384220	0.957510	0.673947	99
Es	-2.313558	0.442988	0.243391	99
Es	1.554887	1.207394	0.629484	99
Es	1.868124	-0.668712	0.370723	99
Es	0.092941	-1.458603	0.093098	99
Es	0.391261	1.265519	-0.818667	99
Es	1.477402	-1.185462	-0.088873	99
Es	-1.324368	-0.128052	-0.250906	99
Es	-0.597216	-0.120378	-0.020900	99
Es	-1.920667	-0.166050	0.175398	99
Es	0.207508	1.135380	-0.112405	99
Es	0.937645	0.992033	0.352625	99
Es	2.523823	-0.100336	0.247717	99
Es	2.163017	-0.138204	0.237195	99
Es	0.069100	-1.424050	-0.399324	99
Es	1.862123	-0.473547	-0.188229	99
Es	0.122255	-1.321328	-0.142266	99
Es	1.285589	0.861508	0.940107	99
Es	-0.197696	0.491578	-0.075577	99
38
Properties=species:S:1:pos:R:3:Z:I:1 energy=-358.57416307529076 field_type=dipole dipole="0.000000 0.000000 0.000000" charge=0
C	-1.920621	-0.166057	0.175408	6
C	-0.597511	-0.120157	-0.020852	6
C	0.207359	1.135493	-0.112532	6
O	1.384319	0.957602	0.674088	8
N	2.163669	-0.138147	0.237218	7
C	1.477689	-1.185437	-0.088842	6
O	0.122079	-1.321647	-0.142302	8
H	-2.513241	0.736602	0.280358	1
H	-2.439241	-1.117607	0.238768	1
H	-0.335531	1.999013	0.284278	1
H	0.490109	1.351423	-1.149092	1
H	1.960919	-2.131078	-0.376502	1
Es	1.477411	-1.185465	-0.088866	99
Es	1.862705	-0.473229	-0.188802	99
Es	0.207506	1.135381	-0.112406	99
Es	-0.197743	0.491638	-0.075580	99
Es	1.688509	0.459461	0.448112	99
Es	-2.313566	0.442979	0.243381	99
Es	-0.115565	-0.851286	-0.087980	99
Es	0.938820	0.993421	0.351015	99
Es	2.163007	-0.138231	0.237187	99
Es	0.636372	-1.218395	-0.123657	99
Es	1.555270	1.208056	0.633949	99
Es	0.391248	1.265520	-0.818664	99
Es	2.523612	-0.100669	0.248626	99
Es	-0.164537	1.705476	0.156769	99
Es	1.283388	0.859166	0.937719	99
Es	-1.324366	-0.128088	-0.250854	99
Es	0.073590	-1.415842	-0.401279	99
Es	1.867682	-0.668675	0.370187	99
Es	1.384186	0.957385	0.673787	99
Es	-0.597225	-0.120372	-0.020896	99
Es	1.802743	-1.808324	-0.280798	99
Es	-1.233624	-0.137037	0.408213	99
Es	0.122267	-1.321322	-0.142228	99
Es	-1.920664	-0.166049	0.175404	99
Es	0.088582	-1.466026	0.088977	99
Es	-2.271196	-0.801475	0.216295	99
