43
Properties=species:S:1:pos:R:3:Z:I:1 energy=-323.9637354834463 field_type=dipole dipole="0.000000 0.000000 0.000000" charge=0
C	-2.088337	-0.888400	-0.002485	6
C	-0.668307	-0.558470	0.306305	6
N	0.400143	-1.411990	-0.192125	7
C	0.257883	-0.064080	-0.779535	6
C	1.428763	0.824330	-0.545145	6
C	1.580183	1.454270	0.809865	6
O	2.206303	1.054290	-1.466485	8
H	-2.711597	0.003110	0.113905	1
H	-2.456937	-1.653090	0.687965	1
H	-2.216627	-1.260410	-1.023875	1
H	-0.548727	-0.202370	1.322175	1
H	0.062263	-2.112550	-0.854485	1
H	-0.122617	-0.033860	-1.795335	1
H	0.674883	2.010180	1.065045	1
H	2.421813	2.152910	0.793905	1
H	1.780913	0.686130	1.560305	1
Es	0.964410	1.816437	0.970309	99
Es	1.428743	0.824317	-0.545117	99
Es	1.702316	0.934376	1.299341	99
Es	2.124375	0.905694	-1.732724	99
Es	-2.505366	-0.282645	0.078806	99
Es	-2.330673	-1.406630	0.466938	99
Es	-0.579882	-0.312759	0.994446	99
Es	0.685319	-1.474674	0.014760	99
Es	0.257892	-0.064296	-0.779376	99
Es	-0.115204	-1.159531	0.098475	99
Es	1.580153	1.454237	0.809835	99
Es	-0.004486	-0.040596	-1.461385	99
Es	-2.164062	-1.142039	-0.699339	99
Es	-1.372662	-0.726830	0.133686	99
Es	0.821082	0.387240	-0.639432	99
Es	-2.088310	-0.888393	-0.002482	99
Es	2.142397	1.921094	0.800133	99
Es	2.444628	1.245463	-1.384387	99
Es	0.177952	-1.816711	-0.592833	99
Es	2.060331	0.772960	-1.065620	99
Es	0.437183	-0.833385	-0.542062	99
Es	-0.668139	-0.558567	0.306154	99
Es	2.206089	1.054222	-1.466250	99
Es	-0.291424	-0.089321	-0.239220	99
Es	1.786752	1.173323	-1.204855	99
Es	0.399650	-1.411771	-0.192459	99
Es	1.500508	1.133180	0.144887	99
43
Properties=species:S:1:pos:R:3:Z:I:1 energy=-323.9637354834463 field_type=dipole dipole="0.000000 0.000000 0.000000" charge=0
C	-2.088337	-0.888400	-0.002485	6
C	-0.668307	-0.558470	0.306305	6
N	0.400143	-1.411990	-0.192125	7
C	0.257883	-0.064080	-0.779535	6
C	1.428763	0.824330	-0.545145	6
C	1.580183	1.454270	0.809865	6
O	2.206303	1.054290	-1.466485	8
H	-2.711597	0.003110	0.113905	1
H	-2.456937	-1.653090	0.687965	1
H	-2.216627	-1.260410	-1.023875	1
H	-0.548727	-0.202370	1.322175	1
H	0.062263	-2.112550	-0.854485	1
H	-0.122617	-0.033860	-1.795335	1
H	0.674883	2.010180	1.065045	1
H	2.421813	2.152910	0.793905	1
H	1.780913	0.686130	1.560305	1
Es	2.062772	0.772795	-1.066178	99
Es	0.685320	-1.474563	0.013926	99
Es	2.442077	1.246494	-1.383540	99
Es	-0.291571	-0.088860	-0.239399	99
Es	0.436901	-0.833237	-0.542162	99
Es	-2.088311	-0.888393	-0.002483	99
Es	1.702321	0.934314	1.299334	99
Es	2.206120	1.054240	-1.466257	99
Es	-0.114930	-1.160083	0.099338	99
Es	1.786728	1.171483	-1.202726	99
Es	2.124595	0.906492	-1.735068	99
Es	1.500558	1.133336	0.144884	99
Es	-0.004303	-0.040647	-1.461283	99
Es	0.964378	1.816393	0.970266	99
Es	1.580153	1.454238	0.809835	99
Es	-2.505306	-0.282576	0.078884	99
Es	-0.579934	-0.312845	0.994362	99
Es	-0.668140	-0.558568	0.306156	99
Es	-2.330642	-1.406620	0.466951	99
Es	-1.372595	-0.726954	0.133634	99
Es	2.142386	1.921142	0.800147	99
Es	1.428743	0.824315	-0.545115	99
Es	0.177997	-1.816692	-0.592609	99
Es	-2.164183	-1.142022	-0.699319	99
Es	0.399637	-1.411767	-0.192466	99
Es	0.257893	-0.064301	-0.779377	99
Es	0.820909	0.387284	-0.639512	99
43
Properties=species:S:1:pos:R:3:Z:I:1 energy=-323.9637354834463 field_type=dipole dipole="0.000000 0.000000 0.000000" charge=0
C	-2.088337	-0.888400	-0.002485	6
C	-0.668307	-0.558470	0.306305	6
N	0.400143	-1.411990	-0.192125	7
C	0.257883	-0.064080	-0.779535	6
C	1.428763	0.824330	-0.545145	6
C	1.580183	1.454270	0.809865	6
O	2.206303	1.054290	-1.466485	8
H	-2.711597	0.003110	0.113905	1
H	-2.456937	-1.653090	0.687965	1
H	-2.216627	-1.260410	-1.023875	1
H	-0.548727	-0.202370	1.322175	1
H	0.062263	-2.112550	-0.854485	1
H	-0.122617	-0.033860	-1.795335	1
H	0.674883	2.010180	1.065045	1
H	2.421813	2.152910	0.793905	1
H	1.780913	0.686130	1.560305	1
Es	-2.505353	-0.282654	0.078851	99
Es	2.142368	1.921149	0.800118	99
Es	-0.004399	-0.040567	-1.461186	99
Es	2.441694	1.245109	-1.381292	99
Es	-2.164135	-1.142079	-0.699368	99
Es	1.500526	1.133386	0.144941	99
Es	-1.372640	-0.726825	0.133765	99
Es	-0.291441	-0.088628	-0.239447	99
Es	0.820812	0.387257	-0.639656	99
Es	1.786984	1.172262	-1.203195	99
Es	2.061268	0.772735	-1.066583	99
Es	-0.579926	-0.312853	0.994264	99
Es	-2.330631	-1.406576	0.466945	99
Es	2.126166	0.907170	-1.736530	99
Es	-0.668132	-0.558572	0.306156	99
Es	1.428738	0.824319	-0.545113	99
Es	-0.114748	-1.160750	0.099604	99
Es	0.178307	-1.816921	-0.592485	99
Es	1.580153	1.454238	0.809836	99
Es	2.206119	1.054255	-1.466210	99
Es	0.964380	1.816376	0.970366	99
Es	1.702395	0.934274	1.299277	99
Es	0.399665	-1.411755	-0.192444	99
Es	0.437121	-0.832877	-0.542204	99
Es	-2.088310	-0.888392	-0.002483	99
Es	0.684697	-1.474383	0.013674	99
Es	0.257893	-0.064300	-0.779377	99
43
Properties=species:S:1:pos:R:3:Z:I:1 energy=-323.9637354834463 field_type=dipole dipole="0.000000 0.000000 0.000000" charge=0
C	-2.088337	-0.888400	-0.002485	6
C	-0.668307	-0.558470	0.306305	6
N	0.400143	-1.411990	-0.192125	7
C	0.257883	-0.064080	-0.779535	6
C	1.428763	0.824330	-0.545145	6
C	1.580183	1.454270	0.809865	6
O	2.206303	1.054290	-1.466485	8
H	-2.711597	0.003110	0.113905	1
H	-2.456937	-1.653090	0.687965	1
H	-2.216627	-1.260410	-1.023875	1
H	-0.548727	-0.202370	1.322175	1
H	0.062263	-2.112550	-0.854485	1
H	-0.122617	-0.033860	-1.795335	1
H	0.674883	2.010180	1.065045	1
H	2.421813	2.152910	0.793905	1
H	1.780913	0.686130	1.560305	1
Es	2.062661	0.773159	-1.065534	99
Es	0.684087	-1.474516	0.013790	99
Es	0.820763	0.387118	-0.639700	99
Es	0.964365	1.816450	0.970256	99
Es	-0.291544	-0.088119	-0.239515	99
Es	2.142443	1.921095	0.800136	99
Es	0.178695	-1.816818	-0.592597	99
Es	1.580153	1.454237	0.809835	99
Es	1.702284	0.934313	1.299316	99
Es	-2.164119	-1.142041	-0.699367	99
Es	-0.668137	-0.558568	0.306154	99
Es	0.257898	-0.064308	-0.779378	99
Es	1.500513	1.133417	0.144954	99
Es	0.399655	-1.411767	-0.192454	99
Es	-1.372651	-0.726831	0.133796	99
Es	2.206115	1.054238	-1.466265	99
Es	-2.505381	-0.282675	0.078868	99
Es	1.786843	1.172222	-1.203063	99
Es	2.123285	0.905551	-1.733193	99
Es	-0.004264	-0.040530	-1.461132	99
Es	-0.114953	-1.160952	0.099406	99
Es	2.443405	1.246265	-1.385701	99
Es	0.437582	-0.832882	-0.541943	99
Es	-0.579929	-0.312989	0.994248	99
Es	-2.330618	-1.406614	0.466916	99
Es	-2.088311	-0.888393	-0.002482	99
Es	1.428733	0.824334	-0.545125	99
43
Properties=species:S:1:pos:R:3:Z:I:1 energy=-323.9637354834463 field_type=dipole dipole="0.000000 0.000000 0.000000" charge=0
C	-2.088337	-0.888400	-0.002485	6
C	-0.668307	-0.558470	0.306305	6
N	0.400143	-1.411990	-0.192125	7
C	0.257883	-0.064080	-0.779535	6
C	1.428763	0.824330	-0.545145	6
C	1.580183	1.454270	0.809865	6
O	2.206303	1.054290	-1.466485	8
H	-2.711597	0.003110	0.113905	1
H	-2.456937	-1.653090	0.687965	1
H	-2.216627	-1.260410	-1.023875	1
H	-0.548727	-0.202370	1.322175	1
H	0.062263	-2.112550	-0.854485	1
H	-0.122617	-0.033860	-1.795335	1
H	0.674883	2.010180	1.065045	1
H	2.421813	2.152910	0.793905	1
H	1.780913	0.686130	1.560305	1
Es	1.580153	1.454238	0.809836	99
Es	0.964388	1.816380	0.970274	99
Es	2.442886	1.246132	-1.384835	99
Es	0.437385	-0.833019	-0.542266	99
Es	-0.004253	-0.040509	-1.461070	99
Es	0.257892	-0.064304	-0.779374	99
Es	-2.164003	-1.142170	-0.699286	99
Es	-2.088311	-0.888392	-0.002482	99
Es	2.142488	1.921164	0.800155	99
Es	-1.372595	-0.726811	0.133866	99
Es	-0.291461	-0.088047	-0.239648	99
Es	1.786783	1.172164	-1.203356	99
Es	1.702261	0.934257	1.299268	99
Es	0.683911	-1.473846	0.013084	99
Es	1.500567	1.133460	0.145024	99
Es	2.206100	1.054237	-1.466224	99
Es	2.124142	0.905678	-1.733826	99
Es	0.399637	-1.411771	-0.192471	99
Es	-0.579995	-0.312894	0.994206	99
Es	-0.114898	-1.161182	0.100215	99
Es	-2.330673	-1.406532	0.466913	99
Es	1.428745	0.824316	-0.545120	99
Es	0.820740	0.387032	-0.639757	99
Es	2.062280	0.773332	-1.065564	99
Es	0.178968	-1.817374	-0.592208	99
Es	-2.505428	-0.282572	0.078721	99
Es	-0.668138	-0.558569	0.306152	99
43
Properties=species:S:1:pos:R:3:Z:I:1 energy=-323.9637354834463 field_type=dipole dipole="0.000000 0.000000 0.000000" charge=0
C	-2.088337	-0.888400	-0.002485	6
C	-0.668307	-0.558470	0.306305	6
N	0.400143	-1.411990	-0.192125	7
C	0.257883	-0.064080	-0.779535	6
C	1.428763	0.824330	-0.545145	6
C	1.580183	1.454270	0.809865	6
O	2.206303	1.054290	-1.466485	8
H	-2.711597	0.003110	0.113905	1
H	-2.456937	-1.653090	0.687965	1
H	-2.216627	-1.260410	-1.023875	1
H	-0.548727	-0.202370	1.322175	1
H	0.062263	-2.112550	-0.854485	1
H	-0.122617	-0.033860	-1.795335	1
H	0.674883	2.010180	1.065045	1
H	2.421813	2.152910	0.793905	1
H	1.780913	0.686130	1.560305	1
Es	-2.330676	-1.406589	0.466887	99
Es	0.964256	1.816366	0.970147	99
Es	0.820590	0.386947	-0.639839	99
Es	2.127085	0.906638	-1.735423	99
Es	0.399660	-1.411776	-0.192451	99
Es	2.441205	1.246549	-1.381808	99
Es	2.061564	0.772813	-1.065764	99
Es	2.142291	1.921210	0.800087	99
Es	0.257893	-0.064311	-0.779373	99
Es	-2.164045	-1.142091	-0.699279	99
Es	-2.505434	-0.282639	0.078756	99
Es	-0.004263	-0.040354	-1.460990	99
Es	-0.291514	-0.087728	-0.239567	99
Es	-0.668134	-0.558568	0.306151	99
Es	1.428742	0.824315	-0.545115	99
Es	-0.580009	-0.313018	0.994096	99
Es	-2.088311	-0.888393	-0.002483	99
Es	-0.114733	-1.161463	0.100557	99
Es	0.179047	-1.817414	-0.591915	99
Es	-1.372552	-0.726806	0.133928	99
Es	0.437918	-0.832839	-0.542631	99
Es	1.786255	1.171323	-1.204557	99
Es	0.683310	-1.473896	0.012710	99
Es	1.580155	1.454236	0.809836	99
Es	1.500763	1.133339	0.145107	99
Es	1.702412	0.934317	1.299406	99
Es	2.206095	1.054231	-1.466248	99
43
Properties=species:S:1:pos:R:3:Z:I:1 energy=-323.9637354834463 field_type=dipole dipole="0.000000 0.000000 0.000000" charge=0
C	-2.088337	-0.888400	-0.002485	6
C	-0.668307	-0.558470	0.306305	6
N	0.400143	-1.411990	-0.192125	7
C	0.257883	-0.064080	-0.779535	6
C	1.428763	0.824330	-0.545145	6
C	1.580183	1.454270	0.809865	6
O	2.206303	1.054290	-1.466485	8
H	-2.711597	0.003110	0.113905	1
H	-2.456937	-1.653090	0.687965	1
H	-2.216627	-1.260410	-1.023875	1
H	-0.548727	-0.202370	1.322175	1
H	0.062263	-2.112550	-0.854485	1
H	-0.122617	-0.033860	-1.795335	1
H	0.674883	2.010180	1.065045	1
H	2.421813	2.152910	0.793905	1
H	1.780913	0.686130	1.560305	1
Es	-0.291590	-0.087525	-0.239709	99
Es	-2.164113	-1.142031	-0.699283	99
Es	1.428743	0.824323	-0.545124	99
Es	-2.505324	-0.282620	0.078776	99
Es	1.580153	1.454237	0.809835	99
Es	2.062249	0.772828	-1.065422	99
Es	-0.668138	-0.558564	0.306151	99
Es	2.206074	1.054242	-1.466193	99
Es	-2.330729	-1.406614	0.466930	99
Es	0.437521	-0.832499	-0.542448	99
Es	0.179080	-1.817264	-0.591990	99
Es	1.500677	1.133512	0.145140	99
Es	0.683342	-1.473853	0.011987	99
Es	-1.372516	-0.726873	0.133870	99
Es	-0.580071	-0.312984	0.994038	99
Es	1.702327	0.934182	1.299419	99
Es	-0.114324	-1.162246	0.101282	99
Es	0.257888	-0.064304	-0.779372	99
Es	0.964357	1.816457	0.970138	99
Es	-0.004181	-0.040385	-1.460868	99
Es	1.786339	1.171866	-1.204093	99
Es	2.125634	0.906227	-1.734180	99
Es	2.441890	1.246341	-1.383929	99
Es	0.399681	-1.411796	-0.192440	99
Es	2.142352	1.921115	0.800096	99
Es	0.820559	0.387016	-0.639904	99
Es	-2.088311	-0.888393	-0.002482	99
43
Properties=species:S:1:pos:R:3:Z:I:1 energy=-323.9637354834463 field_type=dipole dipole="0.000000 0.000000 0.000000" charge=0
C	-2.088337	-0.888400	-0.002485	6
C	-0.668307	-0.558470	0.306305	6
N	0.400143	-1.411990	-0.192125	7
C	0.257883	-0.064080	-0.779535	6
C	1.428763	0.824330	-0.545145	6
C	1.580183	1.454270	0.809865	6
O	2.206303	1.054290	-1.466485	8
H	-2.711597	0.003110	0.113905	1
H	-2.456937	-1.653090	0.687965	1
H	-2.216627	-1.260410	-1.023875	1
H	-0.548727	-0.202370	1.322175	1
H	0.062263	-2.112550	-0.854485	1
H	-0.122617	-0.033860	-1.795335	1
H	0.674883	2.010180	1.065045	1
H	2.421813	2.152910	0.793905	1
H	1.780913	0.686130	1.560305	1
Es	2.125858	0.907536	-1.734779	99
Es	1.428739	0.824320	-0.545115	99
Es	-0.114420	-1.161799	0.101535	99
Es	1.702298	0.934256	1.299310	99
Es	1.786382	1.171246	-1.203604	99
Es	2.061955	0.772004	-1.066480	99
Es	-2.088311	-0.888393	-0.002483	99
Es	-2.164066	-1.142048	-0.699312	99
Es	-0.580002	-0.313029	0.993929	99
Es	0.257891	-0.064297	-0.779376	99
Es	2.441891	1.246463	-1.382672	99
Es	0.399663	-1.411778	-0.192448	99
Es	-2.330664	-1.406617	0.466876	99
Es	0.820384	0.387113	-0.639940	99
Es	-1.372587	-0.726829	0.134049	99
Es	-0.291569	-0.087594	-0.239689	99
Es	0.438667	-0.832680	-0.542736	99
Es	-0.004242	-0.040327	-1.460836	99
Es	0.682777	-1.474266	0.011795	99
Es	0.178780	-1.817154	-0.591824	99
Es	1.580152	1.454239	0.809836	99
Es	1.500602	1.133468	0.145178	99
Es	2.142474	1.921092	0.800084	99
Es	0.964340	1.816473	0.970237	99
Es	-2.505414	-0.282656	0.078806	99
Es	-0.668131	-0.558568	0.306149	99
Es	2.206124	1.054219	-1.466264	99
43
Properties=species:S:1:pos:R:3:Z:I:1 energy=-323.9637354834463 field_type=dipole dipole="0.000000 0.000000 0.000000" charge=0
C	-2.088337	-0.888400	-0.002485	6
C	-0.668307	-0.558470	0.306305	6
N	0.400143	-1.411990	-0.192125	7
C	0.257883	-0.064080	-0.779535	6
C	1.428763	0.824330	-0.545145	6
C	1.580183	1.454270	0.809865	6
O	2.206303	1.054290	-1.466485	8
H	-2.711597	0.003110	0.113905	1
H	-2.456937	-1.653090	0.687965	1
H	-2.216627	-1.260410	-1.023875	1
H	-0.548727	-0.202370	1.322175	1
H	0.062263	-2.112550	-0.854485	1
H	-0.122617	-0.033860	-1.795335	1
H	0.674883	2.010180	1.065045	1
H	2.421813	2.152910	0.793905	1
H	1.780913	0.686130	1.560305	1
Es	-2.088311	-0.888393	-0.002483	99
Es	0.964324	1.816442	0.970198	99
Es	-0.004195	-0.040280	-1.460735	99
Es	1.786774	1.171729	-1.203410	99
Es	1.428740	0.824320	-0.545117	99
Es	-0.291553	-0.087310	-0.239721	99
Es	1.702303	0.934197	1.299315	99
Es	0.257891	-0.064302	-0.779375	99
Es	1.500696	1.133556	0.145159	99
Es	-0.580108	-0.313079	0.993928	99
Es	2.061713	0.771909	-1.066443	99
Es	2.442076	1.245905	-1.382806	99
Es	-2.505412	-0.282637	0.078793	99
Es	0.682086	-1.473741	0.012204	99
Es	-1.372481	-0.726833	0.134041	99
Es	2.142418	1.921117	0.800148	99
Es	-0.668134	-0.558570	0.306152	99
Es	2.206138	1.054233	-1.466303	99
Es	0.179682	-1.817620	-0.591781	99
Es	1.580153	1.454238	0.809837	99
Es	0.438967	-0.832674	-0.542749	99
Es	-0.114877	-1.162122	0.101166	99
Es	0.399654	-1.411752	-0.192450	99
Es	0.820313	0.386975	-0.640022	99
Es	2.125466	0.907733	-1.734853	99
Es	-2.164039	-1.142021	-0.699296	99
Es	-2.330714	-1.406623	0.466829	99
43
Properties=species:S:1:pos:R:3:Z:I:1 energy=-323.9637354834463 field_type=dipole dipole="0.000000 0.000000 0.000000" charge=0
C	-2.088337	-0.888400	-0.002485	6
C	-0.668307	-0.558470	0.306305	6
N	0.400143	-1.411990	-0.192125	7
C	0.257883	-0.064080	-0.779535	6
C	1.428763	0.824330	-0.545145	6
C	1.580183	1.454270	0.809865	6
O	2.206303	1.054290	-1.466485	8
H	-2.711597	0.003110	0.113905	1
H	-2.456937	-1.653090	0.687965	1
H	-2.216627	-1.260410	-1.023875	1
H	-0.548727	-0.202370	1.322175	1
H	0.062263	-2.112550	-0.854485	1
H	-0.122617	-0.033860	-1.795335	1
H	0.674883	2.010180	1.065045	1
H	2.421813	2.152910	0.793905	1
H	1.780913	0.686130	1.560305	1
Es	0.820240	0.386908	-0.640120	99
Es	0.257886	-0.064306	-0.779368	99
Es	0.439654	-0.833008	-0.543074	99
Es	-0.668132	-0.558564	0.306147	99
Es	-1.372510	-0.726826	0.134100	99
Es	1.702255	0.934114	1.299231	99
Es	2.142496	1.921092	0.800182	99
Es	-0.580076	-0.313130	0.993849	99
Es	1.580153	1.454238	0.809835	99
Es	0.399666	-1.411767	-0.192445	99
Es	1.787146	1.172648	-1.202784	99
Es	1.500669	1.133667	0.145197	99
Es	2.206122	1.054234	-1.466281	99
Es	-2.164032	-1.142085	-0.699266	99
Es	2.122520	0.904859	-1.732543	99
Es	-2.330666	-1.406593	0.466835	99
Es	-2.505461	-0.282608	0.078774	99
Es	2.443216	1.245929	-1.387355	99
Es	-0.291744	-0.087014	-0.239664	99
Es	-0.114767	-1.161850	0.101317	99
Es	0.681304	-1.473433	0.011896	99
Es	-0.004135	-0.040233	-1.460631	99
Es	0.179831	-1.818085	-0.591409	99
Es	1.428745	0.824311	-0.545115	99
Es	0.964328	1.816458	0.970230	99
Es	-2.088311	-0.888393	-0.002482	99
Es	2.063173	0.773833	-1.064831	99
