43
Properties=species:S:1:pos:R:3:Z:I:1 energy=-323.94039024089403 field_type=dipole dipole="0.000000 0.000000 0.000000" charge=0
C	-1.332564	0.454949	1.195875	6
C	0.145116	0.252249	0.883065	6
N	0.442286	-1.130661	0.451755	7
C	0.458026	-1.170131	-1.021015	6
C	0.846336	0.212119	-1.415515	6
O	-0.201204	1.188069	-1.422205	8
C	0.626206	1.099789	-0.253565	6
H	-1.528884	1.499899	1.458875	1
H	-1.642004	-0.171871	2.039005	1
H	-1.971804	0.206329	0.341255	1
H	0.733446	0.466909	1.781815	1
H	-0.255854	-1.779041	0.809125	1
H	1.180436	-1.912921	-1.370355	1
H	-0.532804	-1.424171	-1.413305	1
H	1.709956	0.322619	-2.048555	1
H	1.323316	1.885859	-0.016255	1
Es	0.764351	-1.215790	0.565801	99
Es	0.145105	0.252139	0.882994	99
Es	-1.332542	0.454948	1.195885	99
Es	0.641853	-0.485122	-1.255305	99
Es	0.415492	-1.144290	-0.191735	99
Es	-1.459938	1.166876	1.377794	99
Es	0.002339	-1.515010	0.662576	99
Es	1.083045	1.651716	-0.094219	99
Es	0.926216	0.584953	-0.744825	99
Es	-1.759005	0.278971	0.617091	99
Es	0.953634	-1.673849	-1.266280	99
Es	0.357569	0.708662	0.319490	99
Es	1.420827	0.292460	-1.865590	99
Es	0.458032	-1.170100	-1.020882	99
Es	0.441720	-1.130501	0.451547	99
Es	-0.601526	0.355078	1.034212	99
Es	0.165064	0.784523	-1.528276	99
Es	0.047482	1.239147	-0.924972	99
Es	0.846083	0.212318	-1.415539	99
Es	-0.468679	1.042515	-1.365437	99
Es	0.625995	1.099815	-0.253812	99
Es	-0.200932	1.187914	-1.422035	99
Es	-1.536561	0.021659	1.773010	99
Es	-0.114536	1.432312	-1.588323	99
Es	-0.219044	-1.343131	-1.294546	99
Es	0.548142	0.410724	1.496964	99
Es	0.280221	-0.536048	0.626515	99
43
Properties=species:S:1:pos:R:3:Z:I:1 energy=-323.94039024089403 field_type=dipole dipole="0.000000 0.000000 0.000000" charge=0
C	-1.332564	0.454949	1.195875	6
C	0.145116	0.252249	0.883065	6
N	0.442286	-1.130661	0.451755	7
C	0.458026	-1.170131	-1.021015	6
C	0.846336	0.212119	-1.415515	6
O	-0.201204	1.188069	-1.422205	8
C	0.626206	1.099789	-0.253565	6
H	-1.528884	1.499899	1.458875	1
H	-1.642004	-0.171871	2.039005	1
H	-1.971804	0.206329	0.341255	1
H	0.733446	0.466909	1.781815	1
H	-0.255854	-1.779041	0.809125	1
H	1.180436	-1.912921	-1.370355	1
H	-0.532804	-1.424171	-1.413305	1
H	1.709956	0.322619	-2.048555	1
H	1.323316	1.885859	-0.016255	1
Es	0.846084	0.212319	-1.415538	99
Es	0.953677	-1.673806	-1.266201	99
Es	1.420712	0.292434	-1.865586	99
Es	0.548087	0.410665	1.496851	99
Es	0.458032	-1.170101	-1.020882	99
Es	-1.459998	1.166888	1.377728	99
Es	0.279728	-0.536092	0.626395	99
Es	0.357581	0.708883	0.319507	99
Es	0.164723	0.784052	-1.529205	99
Es	0.641860	-0.485187	-1.255372	99
Es	1.082989	1.651671	-0.094234	99
Es	0.926431	0.584855	-0.744751	99
Es	-1.758991	0.278910	0.617156	99
Es	0.441753	-1.130522	0.451520	99
Es	0.415298	-1.144184	-0.191512	99
Es	0.625995	1.099817	-0.253810	99
Es	0.047870	1.239234	-0.924916	99
Es	0.145106	0.252136	0.882993	99
Es	-0.601441	0.355120	1.034311	99
Es	-0.468740	1.043449	-1.365290	99
Es	-1.332541	0.454948	1.195886	99
Es	-1.536555	0.021698	1.773035	99
Es	-0.114530	1.431855	-1.587617	99
Es	-0.219046	-1.343205	-1.294605	99
Es	-0.200993	1.187892	-1.422029	99
Es	0.002386	-1.514803	0.662139	99
Es	0.764931	-1.216038	0.566132	99
43
Properties=species:S:1:pos:R:3:Z:I:1 energy=-323.94039024089403 field_type=dipole dipole="0.000000 0.000000 0.000000" charge=0
C	-1.332564	0.454949	1.195875	6
C	0.145116	0.252249	0.883065	6
N	0.442286	-1.130661	0.451755	7
C	0.458026	-1.170131	-1.021015	6
C	0.846336	0.212119	-1.415515	6
O	-0.201204	1.188069	-1.422205	8
C	0.626206	1.099789	-0.253565	6
H	-1.528884	1.499899	1.458875	1
H	-1.642004	-0.171871	2.039005	1
H	-1.971804	0.206329	0.341255	1
H	0.733446	0.466909	1.781815	1
H	-0.255854	-1.779041	0.809125	1
H	1.180436	-1.912921	-1.370355	1
H	-0.532804	-1.424171	-1.413305	1
H	1.709956	0.322619	-2.048555	1
H	1.323316	1.885859	-0.016255	1
Es	0.441706	-1.130493	0.451522	99
Es	-0.200988	1.187872	-1.422013	99
Es	1.082783	1.651641	-0.094198	99
Es	-0.219005	-1.343276	-1.294565	99
Es	0.279669	-0.536177	0.626387	99
Es	0.415889	-1.144329	-0.191665	99
Es	0.641689	-0.485156	-1.255528	99
Es	0.764437	-1.215717	0.566282	99
Es	0.625994	1.099819	-0.253808	99
Es	-0.467760	1.042979	-1.365365	99
Es	-1.759110	0.278943	0.617140	99
Es	0.458031	-1.170101	-1.020879	99
Es	-1.459931	1.166884	1.377854	99
Es	0.953703	-1.673682	-1.266322	99
Es	-0.601423	0.355062	1.034274	99
Es	0.926735	0.584763	-0.744596	99
Es	-1.332542	0.454948	1.195885	99
Es	-0.115624	1.431457	-1.587914	99
Es	0.548053	0.410663	1.496861	99
Es	0.165539	0.783936	-1.529163	99
Es	1.420642	0.292403	-1.865549	99
Es	-1.536522	0.021756	1.772930	99
Es	0.002497	-1.514992	0.662224	99
Es	0.846084	0.212318	-1.415538	99
Es	0.047162	1.240251	-0.924688	99
Es	0.357592	0.708976	0.319541	99
Es	0.145106	0.252138	0.882994	99
43
Properties=species:S:1:pos:R:3:Z:I:1 energy=-323.94039024089403 field_type=dipole dipole="0.000000 0.000000 0.000000" charge=0
C	-1.332564	0.454949	1.195875	6
C	0.145116	0.252249	0.883065	6
N	0.442286	-1.130661	0.451755	7
C	0.458026	-1.170131	-1.021015	6
C	0.846336	0.212119	-1.415515	6
O	-0.201204	1.188069	-1.422205	8
C	0.626206	1.099789	-0.253565	6
H	-1.528884	1.499899	1.458875	1
H	-1.642004	-0.171871	2.039005	1
H	-1.971804	0.206329	0.341255	1
H	0.733446	0.466909	1.781815	1
H	-0.255854	-1.779041	0.809125	1
H	1.180436	-1.912921	-1.370355	1
H	-0.532804	-1.424171	-1.413305	1
H	1.709956	0.322619	-2.048555	1
H	1.323316	1.885859	-0.016255	1
Es	1.420419	0.292336	-1.865545	99
Es	-0.467768	1.042976	-1.365882	99
Es	0.458031	-1.170100	-1.020882	99
Es	0.626010	1.099810	-0.253797	99
Es	0.763699	-1.215317	0.566291	99
Es	-0.200950	1.187922	-1.422033	99
Es	-1.460061	1.166819	1.377811	99
Es	-1.536632	0.021762	1.772894	99
Es	0.165968	0.784163	-1.529290	99
Es	-1.758978	0.278922	0.617069	99
Es	0.548060	0.410673	1.496816	99
Es	0.002605	-1.515223	0.662413	99
Es	-0.218931	-1.343118	-1.294580	99
Es	0.846085	0.212319	-1.415537	99
Es	-0.115689	1.431061	-1.587445	99
Es	-0.601339	0.355129	1.034464	99
Es	0.145106	0.252138	0.882995	99
Es	0.046654	1.240671	-0.924352	99
Es	0.927072	0.584703	-0.744697	99
Es	0.416352	-1.144565	-0.191886	99
Es	0.641841	-0.485124	-1.255635	99
Es	0.441761	-1.130528	0.451541	99
Es	-1.332542	0.454948	1.195885	99
Es	1.082745	1.651540	-0.094199	99
Es	0.953535	-1.673801	-1.266324	99
Es	0.357601	0.708915	0.319580	99
Es	0.279754	-0.536144	0.626430	99
43
Properties=species:S:1:pos:R:3:Z:I:1 energy=-323.94039024089403 field_type=dipole dipole="0.000000 0.000000 0.000000" charge=0
C	-1.332564	0.454949	1.195875	6
C	0.145116	0.252249	0.883065	6
N	0.442286	-1.130661	0.451755	7
C	0.458026	-1.170131	-1.021015	6
C	0.846336	0.212119	-1.415515	6
O	-0.201204	1.188069	-1.422205	8
C	0.626206	1.099789	-0.253565	6
H	-1.528884	1.499899	1.458875	1
H	-1.642004	-0.171871	2.039005	1
H	-1.971804	0.206329	0.341255	1
H	0.733446	0.466909	1.781815	1
H	-0.255854	-1.779041	0.809125	1
H	1.180436	-1.912921	-1.370355	1
H	-0.532804	-1.424171	-1.413305	1
H	1.709956	0.322619	-2.048555	1
H	1.323316	1.885859	-0.016255	1
Es	-1.759045	0.279020	0.617172	99
Es	0.002273	-1.514747	0.662037	99
Es	0.625998	1.099814	-0.253810	99
Es	-1.536629	0.021720	1.772878	99
Es	-0.116739	1.430788	-1.588193	99
Es	0.953512	-1.673726	-1.266304	99
Es	-0.218909	-1.343169	-1.294623	99
Es	-0.466815	1.043320	-1.364717	99
Es	0.145105	0.252139	0.882995	99
Es	0.927351	0.584587	-0.744504	99
Es	-0.601347	0.355134	1.034358	99
Es	0.763132	-1.216163	0.566255	99
Es	0.165126	0.783443	-1.529730	99
Es	-0.200940	1.187898	-1.422022	99
Es	0.047525	1.241282	-0.924384	99
Es	0.280499	-0.535833	0.626916	99
Es	1.082626	1.651529	-0.094182	99
Es	0.357556	0.708991	0.319585	99
Es	0.846087	0.212319	-1.415532	99
Es	0.416543	-1.144580	-0.191898	99
Es	0.641875	-0.485081	-1.255733	99
Es	0.458031	-1.170101	-1.020884	99
Es	-1.460018	1.166817	1.377863	99
Es	0.548108	0.410752	1.496735	99
Es	0.441754	-1.130512	0.451547	99
Es	1.420288	0.292299	-1.865606	99
Es	-1.332542	0.454948	1.195885	99
43
Properties=species:S:1:pos:R:3:Z:I:1 energy=-323.94039024089403 field_type=dipole dipole="0.000000 0.000000 0.000000" charge=0
C	-1.332564	0.454949	1.195875	6
C	0.145116	0.252249	0.883065	6
N	0.442286	-1.130661	0.451755	7
C	0.458026	-1.170131	-1.021015	6
C	0.846336	0.212119	-1.415515	6
O	-0.201204	1.188069	-1.422205	8
C	0.626206	1.099789	-0.253565	6
H	-1.528884	1.499899	1.458875	1
H	-1.642004	-0.171871	2.039005	1
H	-1.971804	0.206329	0.341255	1
H	0.733446	0.466909	1.781815	1
H	-0.255854	-1.779041	0.809125	1
H	1.180436	-1.912921	-1.370355	1
H	-0.532804	-1.424171	-1.413305	1
H	1.709956	0.322619	-2.048555	1
H	1.323316	1.885859	-0.016255	1
Es	0.641823	-0.485123	-1.255803	99
Es	-1.460048	1.166794	1.377822	99
Es	0.416756	-1.144572	-0.191936	99
Es	-0.466416	1.043871	-1.366747	99
Es	0.045920	1.240473	-0.923080	99
Es	1.420161	0.292284	-1.865551	99
Es	0.458031	-1.170101	-1.020882	99
Es	-1.332542	0.454948	1.195885	99
Es	0.953558	-1.673778	-1.266368	99
Es	-1.759030	0.279012	0.617199	99
Es	0.548082	0.410723	1.496724	99
Es	0.927578	0.584528	-0.744365	99
Es	0.846089	0.212321	-1.415527	99
Es	-0.116357	1.430759	-1.586308	99
Es	0.279973	-0.536068	0.626675	99
Es	0.357548	0.709149	0.319650	99
Es	-0.601319	0.355185	1.034349	99
Es	0.441765	-1.130509	0.451566	99
Es	0.145105	0.252138	0.882995	99
Es	0.763383	-1.215998	0.566740	99
Es	-0.200914	1.187949	-1.422067	99
Es	0.165923	0.783690	-1.530947	99
Es	0.002302	-1.514690	0.661806	99
Es	-0.218861	-1.343105	-1.294603	99
Es	-1.536646	0.021729	1.772904	99
Es	1.082546	1.651464	-0.094214	99
Es	0.625996	1.099815	-0.253813	99
43
Properties=species:S:1:pos:R:3:Z:I:1 energy=-323.94039024089403 field_type=dipole dipole="0.000000 0.000000 0.000000" charge=0
C	-1.332564	0.454949	1.195875	6
C	0.145116	0.252249	0.883065	6
N	0.442286	-1.130661	0.451755	7
C	0.458026	-1.170131	-1.021015	6
C	0.846336	0.212119	-1.415515	6
O	-0.201204	1.188069	-1.422205	8
C	0.626206	1.099789	-0.253565	6
H	-1.528884	1.499899	1.458875	1
H	-1.642004	-0.171871	2.039005	1
H	-1.971804	0.206329	0.341255	1
H	0.733446	0.466909	1.781815	1
H	-0.255854	-1.779041	0.809125	1
H	1.180436	-1.912921	-1.370355	1
H	-0.532804	-1.424171	-1.413305	1
H	1.709956	0.322619	-2.048555	1
H	1.323316	1.885859	-0.016255	1
Es	-1.332542	0.454948	1.195885	99
Es	-0.601317	0.355211	1.034370	99
Es	-1.536682	0.021735	1.772928	99
Es	1.082487	1.651460	-0.094228	99
Es	0.641869	-0.485141	-1.255852	99
Es	0.625998	1.099813	-0.253811	99
Es	0.416571	-1.144709	-0.191950	99
Es	0.458031	-1.170101	-1.020883	99
Es	0.002538	-1.514880	0.662224	99
Es	-0.201017	1.187966	-1.422079	99
Es	0.357607	0.709185	0.319686	99
Es	0.846084	0.212319	-1.415537	99
Es	1.420185	0.292304	-1.865472	99
Es	0.927632	0.584464	-0.744233	99
Es	-1.759028	0.279036	0.617208	99
Es	0.953529	-1.673676	-1.266367	99
Es	0.762677	-1.216056	0.566024	99
Es	0.280648	-0.535783	0.627087	99
Es	-0.218848	-1.343133	-1.294682	99
Es	0.145106	0.252140	0.882995	99
Es	0.441772	-1.130511	0.451548	99
Es	-1.460025	1.166780	1.377796	99
Es	0.164248	0.782715	-1.530414	99
Es	-0.112629	1.430140	-1.585613	99
Es	0.046243	1.239549	-0.923271	99
Es	-0.468780	1.046377	-1.367903	99
Es	0.548048	0.410737	1.496652	99
43
Properties=species:S:1:pos:R:3:Z:I:1 energy=-323.94039024089403 field_type=dipole dipole="0.000000 0.000000 0.000000" charge=0
C	-1.332564	0.454949	1.195875	6
C	0.145116	0.252249	0.883065	6
N	0.442286	-1.130661	0.451755	7
C	0.458026	-1.170131	-1.021015	6
C	0.846336	0.212119	-1.415515	6
O	-0.201204	1.188069	-1.422205	8
C	0.626206	1.099789	-0.253565	6
H	-1.528884	1.499899	1.458875	1
H	-1.642004	-0.171871	2.039005	1
H	-1.971804	0.206329	0.341255	1
H	0.733446	0.466909	1.781815	1
H	-0.255854	-1.779041	0.809125	1
H	1.180436	-1.912921	-1.370355	1
H	-0.532804	-1.424171	-1.413305	1
H	1.709956	0.322619	-2.048555	1
H	1.323316	1.885859	-0.016255	1
Es	0.145106	0.252139	0.882995	99
Es	-1.536725	0.021733	1.772857	99
Es	-0.601276	0.355173	1.034430	99
Es	-0.115764	1.429805	-1.586839	99
Es	-1.332543	0.454950	1.195886	99
Es	-1.460059	1.166787	1.377828	99
Es	1.420035	0.292280	-1.865507	99
Es	0.416584	-1.144693	-0.191996	99
Es	0.458031	-1.170101	-1.020884	99
Es	-0.200995	1.187966	-1.422080	99
Es	-0.466665	1.044609	-1.366623	99
Es	-1.758989	0.279047	0.617196	99
Es	0.165321	0.782943	-1.530417	99
Es	0.548047	0.410782	1.496635	99
Es	0.002770	-1.515045	0.662358	99
Es	0.625998	1.099813	-0.253812	99
Es	1.082317	1.651406	-0.094187	99
Es	0.641893	-0.485122	-1.255996	99
Es	0.357564	0.709209	0.319674	99
Es	0.280334	-0.535953	0.626954	99
Es	0.953487	-1.673713	-1.266341	99
Es	0.046094	1.241539	-0.923169	99
Es	0.846083	0.212323	-1.415533	99
Es	-0.218773	-1.343167	-1.294633	99
Es	0.441735	-1.130502	0.451540	99
Es	0.927980	0.584381	-0.744348	99
Es	0.762815	-1.215702	0.566115	99
43
Properties=species:S:1:pos:R:3:Z:I:1 energy=-323.94039024089403 field_type=dipole dipole="0.000000 0.000000 0.000000" charge=0
C	-1.332564	0.454949	1.195875	6
C	0.145116	0.252249	0.883065	6
N	0.442286	-1.130661	0.451755	7
C	0.458026	-1.170131	-1.021015	6
C	0.846336	0.212119	-1.415515	6
O	-0.201204	1.188069	-1.422205	8
C	0.626206	1.099789	-0.253565	6
H	-1.528884	1.499899	1.458875	1
H	-1.642004	-0.171871	2.039005	1
H	-1.971804	0.206329	0.341255	1
H	0.733446	0.466909	1.781815	1
H	-0.255854	-1.779041	0.809125	1
H	1.180436	-1.912921	-1.370355	1
H	-0.532804	-1.424171	-1.413305	1
H	1.709956	0.322619	-2.048555	1
H	1.323316	1.885859	-0.016255	1
Es	0.641938	-0.485152	-1.256057	99
Es	-1.536702	0.021760	1.772888	99
Es	0.145105	0.252140	0.882996	99
Es	-1.759009	0.279019	0.617322	99
Es	0.625999	1.099806	-0.253822	99
Es	-0.117663	1.430148	-1.586493	99
Es	1.082302	1.651345	-0.094236	99
Es	0.416584	-1.144804	-0.191926	99
Es	0.928095	0.584356	-0.744161	99
Es	0.548004	0.410746	1.496609	99
Es	-0.601266	0.355166	1.034332	99
Es	0.441749	-1.130506	0.451547	99
Es	0.166115	0.783892	-1.531583	99
Es	0.458031	-1.170101	-1.020884	99
Es	-0.200963	1.187897	-1.422026	99
Es	0.953442	-1.673681	-1.266407	99
Es	-1.332543	0.454948	1.195886	99
Es	-0.218773	-1.343095	-1.294678	99
Es	0.046136	1.241547	-0.922962	99
Es	0.280521	-0.535792	0.627114	99
Es	1.419958	0.292271	-1.865384	99
Es	0.846098	0.212316	-1.415519	99
Es	0.357653	0.709314	0.319700	99
Es	0.762614	-1.215877	0.565989	99
Es	-1.460088	1.166821	1.377776	99
Es	0.002787	-1.514986	0.662321	99
Es	-0.465718	1.043389	-1.366237	99
43
Properties=species:S:1:pos:R:3:Z:I:1 energy=-323.94039024089403 field_type=dipole dipole="0.000000 0.000000 0.000000" charge=0
C	-1.332564	0.454949	1.195875	6
C	0.145116	0.252249	0.883065	6
N	0.442286	-1.130661	0.451755	7
C	0.458026	-1.170131	-1.021015	6
C	0.846336	0.212119	-1.415515	6
O	-0.201204	1.188069	-1.422205	8
C	0.626206	1.099789	-0.253565	6
H	-1.528884	1.499899	1.458875	1
H	-1.642004	-0.171871	2.039005	1
H	-1.971804	0.206329	0.341255	1
H	0.733446	0.466909	1.781815	1
H	-0.255854	-1.779041	0.809125	1
H	1.180436	-1.912921	-1.370355	1
H	-0.532804	-1.424171	-1.413305	1
H	1.709956	0.322619	-2.048555	1
H	1.323316	1.885859	-0.016255	1
Es	0.145105	0.252141	0.882995	99
Es	0.641874	-0.485107	-1.256166	99
Es	0.548036	0.410785	1.496539	99
Es	-1.759032	0.279015	0.617299	99
Es	0.046343	1.241828	-0.923107	99
Es	-0.601264	0.355232	1.034391	99
Es	-0.201036	1.187961	-1.422092	99
Es	0.002906	-1.515003	0.662357	99
Es	0.357570	0.709387	0.319775	99
Es	-0.218686	-1.343103	-1.294667	99
Es	1.419885	0.292228	-1.865437	99
Es	0.441733	-1.130501	0.451541	99
Es	-0.116156	1.429290	-1.586369	99
Es	-1.332543	0.454948	1.195886	99
Es	0.953419	-1.673679	-1.266422	99
Es	0.846084	0.212321	-1.415533	99
Es	0.165196	0.782890	-1.531221	99
Es	1.082177	1.651309	-0.094230	99
Es	0.762392	-1.215855	0.565941	99
Es	0.928376	0.584186	-0.744030	99
Es	-1.536686	0.021777	1.772828	99
Es	-1.460123	1.166788	1.377832	99
Es	-0.466437	1.044988	-1.366536	99
Es	0.458031	-1.170101	-1.020885	99
Es	0.416651	-1.144905	-0.191938	99
Es	0.625999	1.099811	-0.253813	99
Es	0.280594	-0.535744	0.627165	99
43
Properties=species:S:1:pos:R:3:Z:I:1 energy=-323.94039024089403 field_type=dipole dipole="0.000000 0.000000 0.000000" charge=0
C	-1.332564	0.454949	1.195875	6
C	0.145116	0.252249	0.883065	6
N	0.442286	-1.130661	0.451755	7
C	0.458026	-1.170131	-1.021015	6
C	0.846336	0.212119	-1.415515	6
O	-0.201204	1.188069	-1.422205	8
C	0.626206	1.099789	-0.253565	6
H	-1.528884	1.499899	1.458875	1
H	-1.642004	-0.171871	2.039005	1
H	-1.971804	0.206329	0.341255	1
H	0.733446	0.466909	1.781815	1
H	-0.255854	-1.779041	0.809125	1
H	1.180436	-1.912921	-1.370355	1
H	-0.532804	-1.424171	-1.413305	1
H	1.709956	0.322619	-2.048555	1
H	1.323316	1.885859	-0.016255	1
Es	-0.218659	-1.343105	-1.294698	99
Es	0.953403	-1.673665	-1.266408	99
Es	0.280779	-0.535713	0.627275	99
Es	0.047844	1.241740	-0.923123	99
Es	1.419769	0.292170	-1.865448	99
Es	1.082055	1.651289	-0.094234	99
Es	0.928606	0.584233	-0.743855	99
Es	0.441727	-1.130514	0.451533	99
Es	0.002960	-1.515029	0.662471	99
Es	0.163468	0.782032	-1.532030	99
Es	0.626001	1.099810	-0.253811	99
Es	-0.467282	1.046779	-1.366240	99
Es	-0.200969	1.187919	-1.422049	99
Es	0.641910	-0.485088	-1.256180	99
Es	0.846087	0.212319	-1.415533	99
Es	0.145105	0.252141	0.882996	99
Es	0.762171	-1.215845	0.565800	99
Es	-0.601222	0.355260	1.034365	99
Es	-1.536760	0.021779	1.772880	99
Es	-1.759003	0.279057	0.617309	99
Es	-0.115158	1.428387	-1.586050	99
Es	-1.332543	0.454948	1.195885	99
Es	0.548028	0.410799	1.496550	99
Es	-1.460109	1.166747	1.377772	99
Es	0.458031	-1.170101	-1.020886	99
Es	0.416620	-1.144928	-0.191994	99
Es	0.357548	0.709466	0.319807	99
43
Properties=species:S:1:pos:R:3:Z:I:1 energy=-323.94039024089403 field_type=dipole dipole="0.000000 0.000000 0.000000" charge=0
C	-1.332564	0.454949	1.195875	6
C	0.145116	0.252249	0.883065	6
N	0.442286	-1.130661	0.451755	7
C	0.458026	-1.170131	-1.021015	6
C	0.846336	0.212119	-1.415515	6
O	-0.201204	1.188069	-1.422205	8
C	0.626206	1.099789	-0.253565	6
H	-1.528884	1.499899	1.458875	1
H	-1.642004	-0.171871	2.039005	1
H	-1.971804	0.206329	0.341255	1
H	0.733446	0.466909	1.781815	1
H	-0.255854	-1.779041	0.809125	1
H	1.180436	-1.912921	-1.370355	1
H	-0.532804	-1.424171	-1.413305	1
H	1.709956	0.322619	-2.048555	1
H	1.323316	1.885859	-0.016255	1
Es	-1.460225	1.166737	1.377917	99
Es	0.626000	1.099808	-0.253816	99
Es	0.165749	0.783252	-1.532385	99
Es	0.928766	0.584102	-0.743788	99
Es	-0.200932	1.187889	-1.422012	99
Es	0.003136	-1.515094	0.662392	99
Es	0.761994	-1.215741	0.565862	99
Es	0.458031	-1.170101	-1.020886	99
Es	0.641875	-0.485098	-1.256305	99
Es	0.846083	0.212322	-1.415531	99
Es	-0.601204	0.355305	1.034379	99
Es	-1.332547	0.454950	1.195888	99
Es	1.419760	0.292203	-1.865364	99
Es	-0.118133	1.429042	-1.586149	99
Es	0.548040	0.410840	1.496470	99
Es	0.145105	0.252143	0.882996	99
Es	-0.218620	-1.343083	-1.294682	99
Es	-1.758980	0.279105	0.617342	99
Es	0.441721	-1.130521	0.451546	99
Es	0.280645	-0.535685	0.627433	99
Es	0.953396	-1.673661	-1.266460	99
Es	0.046003	1.242381	-0.922446	99
Es	-0.464853	1.044370	-1.366520	99
Es	1.081964	1.651238	-0.094238	99
Es	-1.536745	0.021693	1.772719	99
Es	0.357565	0.709492	0.319785	99
Es	0.416808	-1.145000	-0.192041	99
43
Properties=species:S:1:pos:R:3:Z:I:1 energy=-323.94039024089403 field_type=dipole dipole="0.000000 0.000000 0.000000" charge=0
C	-1.332564	0.454949	1.195875	6
C	0.145116	0.252249	0.883065	6
N	0.442286	-1.130661	0.451755	7
C	0.458026	-1.170131	-1.021015	6
C	0.846336	0.212119	-1.415515	6
O	-0.201204	1.188069	-1.422205	8
C	0.626206	1.099789	-0.253565	6
H	-1.528884	1.499899	1.458875	1
H	-1.642004	-0.171871	2.039005	1
H	-1.971804	0.206329	0.341255	1
H	0.733446	0.466909	1.781815	1
H	-0.255854	-1.779041	0.809125	1
H	1.180436	-1.912921	-1.370355	1
H	-0.532804	-1.424171	-1.413305	1
H	1.709956	0.322619	-2.048555	1
H	1.323316	1.885859	-0.016255	1
Es	-1.332544	0.454948	1.195886	99
Es	0.145105	0.252142	0.882996	99
Es	0.953362	-1.673650	-1.266458	99
Es	-1.759028	0.279037	0.617358	99
Es	-0.200709	1.188055	-1.422094	99
Es	0.357557	0.709558	0.319854	99
Es	0.441751	-1.130532	0.451567	99
Es	0.281023	-0.535597	0.627494	99
Es	1.419623	0.292170	-1.865386	99
Es	0.548027	0.410822	1.496432	99
Es	-1.460169	1.166768	1.377838	99
Es	-0.116153	1.428144	-1.585732	99
Es	0.641886	-0.485096	-1.256407	99
Es	0.045875	1.242376	-0.922337	99
Es	0.846085	0.212322	-1.415531	99
Es	0.003067	-1.515078	0.662481	99
Es	0.761475	-1.215779	0.565710	99
Es	-0.465927	1.046437	-1.367328	99
Es	0.417012	-1.145084	-0.192087	99
Es	0.626000	1.099809	-0.253814	99
Es	1.081904	1.651199	-0.094243	99
Es	0.458031	-1.170101	-1.020886	99
Es	-1.536725	0.021789	1.772792	99
Es	0.164702	0.782049	-1.531922	99
Es	-0.218585	-1.343083	-1.294694	99
Es	0.928995	0.583985	-0.743791	99
Es	-0.601235	0.355279	1.034405	99
43
Properties=species:S:1:pos:R:3:Z:I:1 energy=-323.94039024089403 field_type=dipole dipole="0.000000 0.000000 0.000000" charge=0
C	-1.332564	0.454949	1.195875	6
C	0.145116	0.252249	0.883065	6
N	0.442286	-1.130661	0.451755	7
C	0.458026	-1.170131	-1.021015	6
C	0.846336	0.212119	-1.415515	6
O	-0.201204	1.188069	-1.422205	8
C	0.626206	1.099789	-0.253565	6
H	-1.528884	1.499899	1.458875	1
H	-1.642004	-0.171871	2.039005	1
H	-1.971804	0.206329	0.341255	1
H	0.733446	0.466909	1.781815	1
H	-0.255854	-1.779041	0.809125	1
H	1.180436	-1.912921	-1.370355	1
H	-0.532804	-1.424171	-1.413305	1
H	1.709956	0.322619	-2.048555	1
H	1.323316	1.885859	-0.016255	1
Es	0.357556	0.709613	0.319875	99
Es	-0.200975	1.187886	-1.422022	99
Es	0.045864	1.242805	-0.922269	99
Es	-1.332544	0.454948	1.195886	99
Es	0.280949	-0.535621	0.627457	99
Es	0.145105	0.252142	0.882996	99
Es	-0.601287	0.355366	1.034343	99
Es	0.548034	0.410822	1.496404	99
Es	-1.536661	0.021702	1.772789	99
Es	-1.460197	1.166775	1.377885	99
Es	0.165178	0.782420	-1.532331	99
Es	0.953397	-1.673619	-1.266495	99
Es	-0.218566	-1.343072	-1.294714	99
Es	0.928974	0.583863	-0.743732	99
Es	1.081954	1.651162	-0.094259	99
Es	0.641823	-0.485068	-1.256410	99
Es	-0.117421	1.428443	-1.586022	99
Es	0.003087	-1.515006	0.662440	99
Es	-0.464893	1.045561	-1.366764	99
Es	0.416883	-1.145070	-0.192064	99
Es	1.419645	0.292147	-1.865397	99
Es	0.761606	-1.215877	0.565786	99
Es	-1.759026	0.279057	0.617391	99
Es	0.626001	1.099809	-0.253815	99
Es	0.458031	-1.170101	-1.020886	99
Es	0.846085	0.212322	-1.415530	99
Es	0.441805	-1.130520	0.451564	99
43
Properties=species:S:1:pos:R:3:Z:I:1 energy=-323.94039024089403 field_type=dipole dipole="0.000000 0.000000 0.000000" charge=0
C	-1.332564	0.454949	1.195875	6
C	0.145116	0.252249	0.883065	6
N	0.442286	-1.130661	0.451755	7
C	0.458026	-1.170131	-1.021015	6
C	0.846336	0.212119	-1.415515	6
O	-0.201204	1.188069	-1.422205	8
C	0.626206	1.099789	-0.253565	6
H	-1.528884	1.499899	1.458875	1
H	-1.642004	-0.171871	2.039005	1
H	-1.971804	0.206329	0.341255	1
H	0.733446	0.466909	1.781815	1
H	-0.255854	-1.779041	0.809125	1
H	1.180436	-1.912921	-1.370355	1
H	-0.532804	-1.424171	-1.413305	1
H	1.709956	0.322619	-2.048555	1
H	1.323316	1.885859	-0.016255	1
Es	-1.536765	0.021821	1.772768	99
Es	0.953329	-1.673593	-1.266519	99
Es	-0.463503	1.044874	-1.366687	99
Es	0.357560	0.709591	0.319882	99
Es	-1.460193	1.166760	1.377822	99
Es	1.419414	0.292106	-1.865376	99
Es	0.145105	0.252142	0.882996	99
Es	0.625996	1.099808	-0.253820	99
Es	1.081704	1.651140	-0.094228	99
Es	-0.118316	1.429149	-1.586639	99
Es	-1.332544	0.454948	1.195885	99
Es	0.165264	0.782645	-1.532139	99
Es	0.929508	0.583832	-0.743720	99
Es	0.441739	-1.130494	0.451540	99
Es	0.641863	-0.485098	-1.256496	99
Es	0.002981	-1.514898	0.662295	99
Es	0.548054	0.410865	1.496339	99
Es	0.458032	-1.170101	-1.020888	99
Es	0.761347	-1.215919	0.566091	99
Es	0.280930	-0.535632	0.627464	99
Es	0.846082	0.212330	-1.415527	99
Es	0.045249	1.242581	-0.921887	99
Es	0.417341	-1.145240	-0.192123	99
Es	-1.759019	0.279039	0.617400	99
Es	-0.201008	1.187961	-1.422053	99
Es	-0.601207	0.355334	1.034446	99
Es	-0.218536	-1.343062	-1.294722	99
43
Properties=species:S:1:pos:R:3:Z:I:1 energy=-323.94039024089403 field_type=dipole dipole="0.000000 0.000000 0.000000" charge=0
C	-1.332564	0.454949	1.195875	6
C	0.145116	0.252249	0.883065	6
N	0.442286	-1.130661	0.451755	7
C	0.458026	-1.170131	-1.021015	6
C	0.846336	0.212119	-1.415515	6
O	-0.201204	1.188069	-1.422205	8
C	0.626206	1.099789	-0.253565	6
H	-1.528884	1.499899	1.458875	1
H	-1.642004	-0.171871	2.039005	1
H	-1.971804	0.206329	0.341255	1
H	0.733446	0.466909	1.781815	1
H	-0.255854	-1.779041	0.809125	1
H	1.180436	-1.912921	-1.370355	1
H	-0.532804	-1.424171	-1.413305	1
H	1.709956	0.322619	-2.048555	1
H	1.323316	1.885859	-0.016255	1
Es	-1.759040	0.279038	0.617456	99
Es	-1.460200	1.166779	1.377830	99
Es	0.929542	0.583749	-0.743541	99
Es	-1.536745	0.021825	1.772752	99
Es	-0.218513	-1.343086	-1.294710	99
Es	0.281269	-0.535583	0.627697	99
Es	0.458031	-1.170101	-1.020887	99
Es	0.145105	0.252143	0.882996	99
Es	0.164581	0.782524	-1.533780	99
Es	0.641870	-0.485104	-1.256624	99
Es	0.626001	1.099806	-0.253813	99
Es	0.416795	-1.145060	-0.192044	99
Es	0.953295	-1.673577	-1.266515	99
Es	-0.601202	0.355307	1.034407	99
Es	0.003140	-1.514942	0.662492	99
Es	0.846086	0.212322	-1.415528	99
Es	-0.200959	1.187907	-1.422035	99
Es	0.046712	1.242751	-0.922042	99
Es	0.357525	0.709735	0.319886	99
Es	1.081721	1.651112	-0.094234	99
Es	0.548036	0.410866	1.496314	99
Es	0.761427	-1.216057	0.565587	99
Es	-0.463297	1.045287	-1.365571	99
Es	1.419373	0.292103	-1.865328	99
Es	-1.332546	0.454947	1.195887	99
Es	-0.119374	1.428705	-1.586105	99
Es	0.441773	-1.130506	0.451555	99
43
Properties=species:S:1:pos:R:3:Z:I:1 energy=-323.94039024089403 field_type=dipole dipole="0.000000 0.000000 0.000000" charge=0
C	-1.332564	0.454949	1.195875	6
C	0.145116	0.252249	0.883065	6
N	0.442286	-1.130661	0.451755	7
C	0.458026	-1.170131	-1.021015	6
C	0.846336	0.212119	-1.415515	6
O	-0.201204	1.188069	-1.422205	8
C	0.626206	1.099789	-0.253565	6
H	-1.528884	1.499899	1.458875	1
H	-1.642004	-0.171871	2.039005	1
H	-1.971804	0.206329	0.341255	1
H	0.733446	0.466909	1.781815	1
H	-0.255854	-1.779041	0.809125	1
H	1.180436	-1.912921	-1.370355	1
H	-0.532804	-1.424171	-1.413305	1
H	1.709956	0.322619	-2.048555	1
H	1.323316	1.885859	-0.016255	1
Es	0.641899	-0.485103	-1.256663	99
Es	0.145104	0.252146	0.882999	99
Es	0.165130	0.782288	-1.532942	99
Es	0.281295	-0.535467	0.627713	99
Es	0.045971	1.243728	-0.922071	99
Es	-0.601222	0.355268	1.034423	99
Es	0.548004	0.410850	1.496324	99
Es	0.625999	1.099807	-0.253819	99
Es	-1.759016	0.279042	0.617439	99
Es	0.003271	-1.515036	0.662523	99
Es	0.441733	-1.130501	0.451540	99
Es	1.081580	1.651052	-0.094260	99
Es	-1.332544	0.454949	1.195885	99
Es	0.760967	-1.215906	0.565638	99
Es	0.929767	0.583718	-0.743515	99
Es	-1.460168	1.166776	1.377773	99
Es	0.458032	-1.170100	-1.020888	99
Es	-0.119101	1.428033	-1.586370	99
Es	1.419289	0.292111	-1.865384	99
Es	0.357569	0.709776	0.319982	99
Es	-1.536808	0.021861	1.772788	99
Es	0.417130	-1.145228	-0.192167	99
Es	0.953300	-1.673626	-1.266508	99
Es	0.846085	0.212324	-1.415527	99
Es	-0.463365	1.045209	-1.366001	99
Es	-0.201021	1.187956	-1.422081	99
Es	-0.218474	-1.343040	-1.294726	99
43
Properties=species:S:1:pos:R:3:Z:I:1 energy=-323.94039024089403 field_type=dipole dipole="0.000000 0.000000 0.000000" charge=0
C	-1.332564	0.454949	1.195875	6
C	0.145116	0.252249	0.883065	6
N	0.442286	-1.130661	0.451755	7
C	0.458026	-1.170131	-1.021015	6
C	0.846336	0.212119	-1.415515	6
O	-0.201204	1.188069	-1.422205	8
C	0.626206	1.099789	-0.253565	6
H	-1.528884	1.499899	1.458875	1
H	-1.642004	-0.171871	2.039005	1
H	-1.971804	0.206329	0.341255	1
H	0.733446	0.466909	1.781815	1
H	-0.255854	-1.779041	0.809125	1
H	1.180436	-1.912921	-1.370355	1
H	-0.532804	-1.424171	-1.413305	1
H	1.709956	0.322619	-2.048555	1
H	1.323316	1.885859	-0.016255	1
Es	-0.601197	0.355362	1.034395	99
Es	-0.200959	1.187916	-1.422039	99
Es	-0.462964	1.044877	-1.365208	99
Es	0.626002	1.099803	-0.253818	99
Es	0.953273	-1.673575	-1.266503	99
Es	0.846088	0.212322	-1.415525	99
Es	0.761205	-1.215922	0.565782	99
Es	0.281122	-0.535557	0.627647	99
Es	0.417034	-1.145247	-0.192094	99
Es	-1.536779	0.021827	1.772740	99
Es	0.003295	-1.514955	0.662447	99
Es	-1.759040	0.279074	0.617455	99
Es	0.930018	0.583618	-0.743499	99
Es	-0.218409	-1.343083	-1.294743	99
Es	1.419147	0.292084	-1.865297	99
Es	1.081519	1.650983	-0.094266	99
Es	0.458030	-1.170100	-1.020887	99
Es	-1.460219	1.166725	1.377838	99
Es	0.046444	1.244929	-0.922359	99
Es	0.441722	-1.130497	0.451536	99
Es	-1.332545	0.454949	1.195886	99
Es	0.145105	0.252142	0.882996	99
Es	0.165104	0.782168	-1.532710	99
Es	0.357522	0.709763	0.320015	99
Es	-0.120030	1.427476	-1.587143	99
Es	0.641878	-0.485086	-1.256832	99
Es	0.548038	0.410894	1.496289	99
