40
Properties=species:S:1:pos:R:3:Z:I:1 energy=-322.847986545218 field_type=dipole dipole="0.000000 0.000000 0.000000" charge=0
C	-1.515161	0.084679	-0.946682	6
C	-0.012361	0.039319	-0.727182	6
N	0.385669	-1.118301	0.015888	7
C	1.047109	-0.808921	1.176558	6
O	1.527069	-1.585671	1.977008	8
C	1.083439	0.654889	1.274568	6
C	0.479079	1.123909	0.175888	6
H	-1.842841	-0.774201	-1.542612	1
H	-1.805461	0.997939	-1.476842	1
H	-2.065451	0.053209	0.000798	1
H	0.525359	0.045579	-1.680902	1
H	0.296919	-2.077351	-0.289802	1
H	1.535059	1.189879	2.089578	1
H	0.361569	2.175049	-0.046262	1
Es	-1.877867	0.065655	-0.302758	99
Es	0.514277	0.874464	0.902766	99
Es	-0.012337	0.039210	-0.727059	99
Es	1.150262	-1.329299	1.833443	99
Es	-0.756996	0.070506	-0.828236	99
Es	1.383833	1.011384	1.819763	99
Es	1.078199	-0.064317	1.254357	99
Es	0.797725	-1.012713	0.327302	99
Es	1.484584	-1.887021	1.889694	99
Es	0.341515	-1.676154	-0.185825	99
Es	0.218247	-0.643101	-0.330808	99
Es	0.261856	-1.070695	0.337255	99
Es	1.578411	-1.317754	1.583562	99
Es	0.389635	1.830745	0.011151	99
Es	-1.727239	-0.500648	-1.353556	99
Es	1.660970	-1.436657	2.211978	99
Es	1.526932	-1.585487	1.976780	99
Es	0.385964	-1.118235	0.015810	99
Es	1.073064	0.877253	0.599914	99
Es	1.047017	-0.808914	1.176410	99
Es	-1.703641	0.708339	-1.309085	99
Es	1.083460	0.654827	1.274608	99
Es	-1.515118	0.084684	-0.946691	99
Es	0.479017	1.123935	0.175776	99
Es	0.350692	0.056742	-1.369318	99
Es	0.224267	0.606881	-0.291426	99
40
Properties=species:S:1:pos:R:3:Z:I:1 energy=-322.847986545218 field_type=dipole dipole="0.000000 0.000000 0.000000" charge=0
C	-1.515161	0.084679	-0.946682	6
C	-0.012361	0.039319	-0.727182	6
N	0.385669	-1.118301	0.015888	7
C	1.047109	-0.808921	1.176558	6
O	1.527069	-1.585671	1.977008	8
C	1.083439	0.654889	1.274568	6
C	0.479079	1.123909	0.175888	6
H	-1.842841	-0.774201	-1.542612	1
H	-1.805461	0.997939	-1.476842	1
H	-2.065451	0.053209	0.000798	1
H	0.525359	0.045579	-1.680902	1
H	0.296919	-2.077351	-0.289802	1
H	1.535059	1.189879	2.089578	1
H	0.361569	2.175049	-0.046262	1
Es	1.657230	-1.434970	2.213306	99
Es	1.148654	-1.332382	1.830656	99
Es	-1.703670	0.708238	-1.309113	99
Es	0.216839	-0.643234	-0.330500	99
Es	0.339777	-1.676084	-0.184992	99
Es	1.083453	0.654830	1.274608	99
Es	-0.757085	0.070614	-0.828335	99
Es	1.078172	-0.064383	1.254510	99
Es	0.389649	1.830766	0.011188	99
Es	0.263974	-1.068732	0.349143	99
Es	1.526941	-1.585485	1.976794	99
Es	-1.727233	-0.500661	-1.353523	99
Es	1.047019	-0.808914	1.176409	99
Es	-1.877875	0.065708	-0.302704	99
Es	0.385963	-1.118239	0.015792	99
Es	1.073001	0.877226	0.599935	99
Es	1.488352	-1.886461	1.890520	99
Es	-1.515120	0.084684	-0.946691	99
Es	-0.012336	0.039213	-0.727061	99
Es	1.580070	-1.316940	1.584133	99
Es	0.224272	0.606744	-0.291508	99
Es	0.350714	0.056764	-1.369245	99
Es	0.798818	-1.014541	0.314322	99
Es	0.479023	1.123935	0.175776	99
Es	1.383734	1.011496	1.819750	99
Es	0.514394	0.874440	0.902634	99
40
Properties=species:S:1:pos:R:3:Z:I:1 energy=-322.847986545218 field_type=dipole dipole="0.000000 0.000000 0.000000" charge=0
C	-1.515161	0.084679	-0.946682	6
C	-0.012361	0.039319	-0.727182	6
N	0.385669	-1.118301	0.015888	7
C	1.047109	-0.808921	1.176558	6
O	1.527069	-1.585671	1.977008	8
C	1.083439	0.654889	1.274568	6
C	0.479079	1.123909	0.175888	6
H	-1.842841	-0.774201	-1.542612	1
H	-1.805461	0.997939	-1.476842	1
H	-2.065451	0.053209	0.000798	1
H	0.525359	0.045579	-1.680902	1
H	0.296919	-2.077351	-0.289802	1
H	1.535059	1.189879	2.089578	1
H	0.361569	2.175049	-0.046262	1
Es	-1.515120	0.084685	-0.946691	99
Es	1.072874	0.877265	0.599989	99
Es	1.526937	-1.585462	1.976774	99
Es	-1.727293	-0.500726	-1.353392	99
Es	0.261763	-1.069808	0.343569	99
Es	1.580378	-1.319073	1.583249	99
Es	0.218306	-0.643246	-0.330897	99
Es	1.149444	-1.329152	1.831857	99
Es	-1.877934	0.065900	-0.302781	99
Es	1.047018	-0.808914	1.176409	99
Es	0.350765	0.056844	-1.369185	99
Es	1.660065	-1.436745	2.212601	99
Es	0.479023	1.123935	0.175779	99
Es	0.514414	0.874456	0.902663	99
Es	0.389671	1.830836	0.011275	99
Es	-0.757112	0.070567	-0.828302	99
Es	-0.012336	0.039214	-0.727062	99
Es	1.083456	0.654825	1.274609	99
Es	0.224350	0.606646	-0.291570	99
Es	0.386088	-1.118217	0.015801	99
Es	-1.703594	0.708167	-1.309253	99
Es	0.798052	-1.013734	0.320936	99
Es	1.383873	1.011363	1.819748	99
Es	0.341207	-1.675934	-0.185704	99
Es	1.078031	-0.064301	1.254447	99
Es	1.484401	-1.885765	1.890936	99
40
Properties=species:S:1:pos:R:3:Z:I:1 energy=-322.847986545218 field_type=dipole dipole="0.000000 0.000000 0.000000" charge=0
C	-1.515161	0.084679	-0.946682	6
C	-0.012361	0.039319	-0.727182	6
N	0.385669	-1.118301	0.015888	7
C	1.047109	-0.808921	1.176558	6
O	1.527069	-1.585671	1.977008	8
C	1.083439	0.654889	1.274568	6
C	0.479079	1.123909	0.175888	6
H	-1.842841	-0.774201	-1.542612	1
H	-1.805461	0.997939	-1.476842	1
H	-2.065451	0.053209	0.000798	1
H	0.525359	0.045579	-1.680902	1
H	0.296919	-2.077351	-0.289802	1
H	1.535059	1.189879	2.089578	1
H	0.361569	2.175049	-0.046262	1
Es	0.342112	-1.675878	-0.186052	99
Es	0.479021	1.123938	0.175782	99
Es	-1.727389	-0.500640	-1.353478	99
Es	1.656889	-1.435331	2.212932	99
Es	-0.757106	0.070548	-0.828625	99
Es	0.386036	-1.118223	0.015805	99
Es	1.047019	-0.808913	1.176407	99
Es	1.150740	-1.328879	1.829186	99
Es	1.083461	0.654825	1.274612	99
Es	-1.515120	0.084684	-0.946691	99
Es	-0.012337	0.039213	-0.727061	99
Es	0.350862	0.056894	-1.369088	99
Es	0.218963	-0.643202	-0.331129	99
Es	1.583079	-1.319769	1.583171	99
Es	1.077948	-0.064226	1.254540	99
Es	1.383722	1.011382	1.819840	99
Es	1.483642	-1.886798	1.893295	99
Es	1.526933	-1.585445	1.976782	99
Es	-1.703719	0.708210	-1.309049	99
Es	0.224257	0.606494	-0.291541	99
Es	-1.877779	0.065755	-0.302707	99
Es	0.389628	1.830801	0.011303	99
Es	1.073011	0.877222	0.599970	99
Es	0.514556	0.874546	0.902539	99
Es	0.797532	-1.013105	0.325151	99
Es	0.260767	-1.070477	0.339909	99
40
Properties=species:S:1:pos:R:3:Z:I:1 energy=-322.847986545218 field_type=dipole dipole="0.000000 0.000000 0.000000" charge=0
C	-1.515161	0.084679	-0.946682	6
C	-0.012361	0.039319	-0.727182	6
N	0.385669	-1.118301	0.015888	7
C	1.047109	-0.808921	1.176558	6
O	1.527069	-1.585671	1.977008	8
C	1.083439	0.654889	1.274568	6
C	0.479079	1.123909	0.175888	6
H	-1.842841	-0.774201	-1.542612	1
H	-1.805461	0.997939	-1.476842	1
H	-2.065451	0.053209	0.000798	1
H	0.525359	0.045579	-1.680902	1
H	0.296919	-2.077351	-0.289802	1
H	1.535059	1.189879	2.089578	1
H	0.361569	2.175049	-0.046262	1
Es	1.047017	-0.808914	1.176410	99
Es	1.072390	0.877725	0.600094	99
Es	1.482589	-1.885102	1.890801	99
Es	1.526945	-1.585430	1.976803	99
Es	0.797713	-1.013493	0.323294	99
Es	1.383886	1.011481	1.819730	99
Es	-1.727292	-0.500584	-1.353533	99
Es	-1.703737	0.708200	-1.309032	99
Es	-1.877893	0.065666	-0.302769	99
Es	0.479023	1.123935	0.175772	99
Es	-0.757121	0.070649	-0.828500	99
Es	1.149824	-1.327984	1.832742	99
Es	0.260722	-1.070198	0.341786	99
Es	0.389804	1.830863	0.011337	99
Es	1.580604	-1.319623	1.582595	99
Es	1.661213	-1.438091	2.212462	99
Es	0.341949	-1.675744	-0.185920	99
Es	0.219084	-0.643266	-0.331229	99
Es	-1.515120	0.084683	-0.946691	99
Es	0.224293	0.606442	-0.291701	99
Es	-0.012337	0.039215	-0.727062	99
Es	1.078367	-0.064262	1.254330	99
Es	0.350831	0.056877	-1.369083	99
Es	0.386004	-1.118219	0.015810	99
Es	1.083453	0.654827	1.274608	99
Es	0.514518	0.873977	0.902749	99
40
Properties=species:S:1:pos:R:3:Z:I:1 energy=-322.847986545218 field_type=dipole dipole="0.000000 0.000000 0.000000" charge=0
C	-1.515161	0.084679	-0.946682	6
C	-0.012361	0.039319	-0.727182	6
N	0.385669	-1.118301	0.015888	7
C	1.047109	-0.808921	1.176558	6
O	1.527069	-1.585671	1.977008	8
C	1.083439	0.654889	1.274568	6
C	0.479079	1.123909	0.175888	6
H	-1.842841	-0.774201	-1.542612	1
H	-1.805461	0.997939	-1.476842	1
H	-2.065451	0.053209	0.000798	1
H	0.525359	0.045579	-1.680902	1
H	0.296919	-2.077351	-0.289802	1
H	1.535059	1.189879	2.089578	1
H	0.361569	2.175049	-0.046262	1
Es	1.526954	-1.585503	1.976819	99
Es	0.389751	1.830901	0.011429	99
Es	1.047018	-0.808914	1.176410	99
Es	0.385839	-1.118250	0.015835	99
Es	1.072503	0.877359	0.600132	99
Es	0.797925	-1.013690	0.320651	99
Es	-1.703738	0.708143	-1.309074	99
Es	1.580191	-1.318931	1.582666	99
Es	0.341881	-1.675772	-0.185943	99
Es	1.383822	1.011535	1.819717	99
Es	0.218360	-0.643203	-0.330949	99
Es	1.148765	-1.330419	1.831850	99
Es	-1.515119	0.084684	-0.946691	99
Es	1.083455	0.654827	1.274607	99
Es	0.514677	0.874322	0.902501	99
Es	1.659462	-1.435896	2.212311	99
Es	-0.757096	0.070683	-0.828521	99
Es	0.224365	0.606355	-0.291773	99
Es	1.485746	-1.885510	1.891764	99
Es	-0.012336	0.039214	-0.727062	99
Es	1.078188	-0.064249	1.254522	99
Es	-1.877877	0.065754	-0.302773	99
Es	0.479019	1.123935	0.175777	99
Es	0.261528	-1.069990	0.344133	99
Es	0.350805	0.056840	-1.369076	99
Es	-1.727360	-0.500597	-1.353458	99
40
Properties=species:S:1:pos:R:3:Z:I:1 energy=-322.847986545218 field_type=dipole dipole="0.000000 0.000000 0.000000" charge=0
C	-1.515161	0.084679	-0.946682	6
C	-0.012361	0.039319	-0.727182	6
N	0.385669	-1.118301	0.015888	7
C	1.047109	-0.808921	1.176558	6
O	1.527069	-1.585671	1.977008	8
C	1.083439	0.654889	1.274568	6
C	0.479079	1.123909	0.175888	6
H	-1.842841	-0.774201	-1.542612	1
H	-1.805461	0.997939	-1.476842	1
H	-2.065451	0.053209	0.000798	1
H	0.525359	0.045579	-1.680902	1
H	0.296919	-2.077351	-0.289802	1
H	1.535059	1.189879	2.089578	1
H	0.361569	2.175049	-0.046262	1
Es	0.220740	-0.643296	-0.331895	99
Es	-1.515116	0.084684	-0.946691	99
Es	-1.727385	-0.500510	-1.353505	99
Es	0.796548	-1.012493	0.330952	99
Es	-1.703727	0.708147	-1.309016	99
Es	1.072634	0.877218	0.600115	99
Es	-1.877898	0.065701	-0.302742	99
Es	-0.012336	0.039213	-0.727061	99
Es	1.148214	-1.331336	1.832595	99
Es	1.659816	-1.434832	2.211362	99
Es	-0.757152	0.070650	-0.828536	99
Es	1.526885	-1.585510	1.976693	99
Es	0.224330	0.606240	-0.291809	99
Es	0.258446	-1.071441	0.335341	99
Es	1.047019	-0.808914	1.176408	99
Es	0.389770	1.830915	0.011459	99
Es	1.078171	-0.064146	1.254559	99
Es	1.578952	-1.318731	1.582293	99
Es	1.083455	0.654827	1.274606	99
Es	1.383787	1.011475	1.819725	99
Es	0.514714	0.874465	0.902473	99
Es	1.487212	-1.885865	1.892448	99
Es	0.386054	-1.118223	0.015798	99
Es	0.479020	1.123935	0.175777	99
Es	0.343804	-1.675492	-0.186515	99
Es	0.350774	0.056948	-1.369029	99
40
Properties=species:S:1:pos:R:3:Z:I:1 energy=-322.847986545218 field_type=dipole dipole="0.000000 0.000000 0.000000" charge=0
C	-1.515161	0.084679	-0.946682	6
C	-0.012361	0.039319	-0.727182	6
N	0.385669	-1.118301	0.015888	7
C	1.047109	-0.808921	1.176558	6
O	1.527069	-1.585671	1.977008	8
C	1.083439	0.654889	1.274568	6
C	0.479079	1.123909	0.175888	6
H	-1.842841	-0.774201	-1.542612	1
H	-1.805461	0.997939	-1.476842	1
H	-2.065451	0.053209	0.000798	1
H	0.525359	0.045579	-1.680902	1
H	0.296919	-2.077351	-0.289802	1
H	1.535059	1.189879	2.089578	1
H	0.361569	2.175049	-0.046262	1
Es	1.078105	-0.064118	1.254640	99
Es	-1.877912	0.065741	-0.302817	99
Es	-1.515120	0.084684	-0.946691	99
Es	-0.012338	0.039219	-0.727063	99
Es	0.386013	-1.118228	0.015813	99
Es	-1.703762	0.708116	-1.309054	99
Es	1.656020	-1.429807	2.209523	99
Es	-1.727376	-0.500554	-1.353458	99
Es	1.148446	-1.331652	1.828788	99
Es	1.488359	-1.887771	1.898750	99
Es	1.072483	0.877286	0.600139	99
Es	-0.757123	0.070701	-0.828519	99
Es	1.581382	-1.321650	1.581497	99
Es	0.350792	0.056903	-1.369009	99
Es	0.261584	-1.069592	0.345745	99
Es	1.047015	-0.808913	1.176406	99
Es	1.383822	1.011510	1.819718	99
Es	0.479020	1.123932	0.175776	99
Es	0.798197	-1.014048	0.318913	99
Es	1.526928	-1.585428	1.976777	99
Es	0.218445	-0.643342	-0.331122	99
Es	0.514759	0.874375	0.902433	99
Es	1.083453	0.654826	1.274604	99
Es	0.224351	0.606220	-0.291884	99
Es	0.341396	-1.675714	-0.185631	99
Es	0.389791	1.830933	0.011529	99
40
Properties=species:S:1:pos:R:3:Z:I:1 energy=-322.847986545218 field_type=dipole dipole="0.000000 0.000000 0.000000" charge=0
C	-1.515161	0.084679	-0.946682	6
C	-0.012361	0.039319	-0.727182	6
N	0.385669	-1.118301	0.015888	7
C	1.047109	-0.808921	1.176558	6
O	1.527069	-1.585671	1.977008	8
C	1.083439	0.654889	1.274568	6
C	0.479079	1.123909	0.175888	6
H	-1.842841	-0.774201	-1.542612	1
H	-1.805461	0.997939	-1.476842	1
H	-2.065451	0.053209	0.000798	1
H	0.525359	0.045579	-1.680902	1
H	0.296919	-2.077351	-0.289802	1
H	1.535059	1.189879	2.089578	1
H	0.361569	2.175049	-0.046262	1
Es	0.514766	0.874287	0.902379	99
Es	1.383817	1.011562	1.819697	99
Es	0.386009	-1.118230	0.015801	99
Es	0.260834	-1.069326	0.348402	99
Es	1.658228	-1.434145	2.211370	99
Es	0.350811	0.056982	-1.368907	99
Es	0.218979	-0.643515	-0.331390	99
Es	0.389818	1.831003	0.011550	99
Es	1.486630	-1.886603	1.893643	99
Es	1.078175	-0.064090	1.254681	99
Es	-1.703784	0.708117	-1.309056	99
Es	1.072370	0.877243	0.600151	99
Es	-1.877873	0.065753	-0.302811	99
Es	-1.515120	0.084684	-0.946691	99
Es	0.224347	0.606170	-0.291812	99
Es	-0.012339	0.039219	-0.727063	99
Es	0.341808	-1.675453	-0.185814	99
Es	1.083453	0.654830	1.274605	99
Es	-0.757145	0.070657	-0.828651	99
Es	1.148253	-1.329773	1.829863	99
Es	0.798052	-1.014430	0.316643	99
Es	0.479021	1.123936	0.175778	99
Es	1.047016	-0.808914	1.176412	99
Es	-1.727415	-0.500547	-1.353423	99
Es	1.526935	-1.585462	1.976783	99
Es	1.581084	-1.320327	1.583666	99
40
Properties=species:S:1:pos:R:3:Z:I:1 energy=-322.847986545218 field_type=dipole dipole="0.000000 0.000000 0.000000" charge=0
C	-1.515161	0.084679	-0.946682	6
C	-0.012361	0.039319	-0.727182	6
N	0.385669	-1.118301	0.015888	7
C	1.047109	-0.808921	1.176558	6
O	1.527069	-1.585671	1.977008	8
C	1.083439	0.654889	1.274568	6
C	0.479079	1.123909	0.175888	6
H	-1.842841	-0.774201	-1.542612	1
H	-1.805461	0.997939	-1.476842	1
H	-2.065451	0.053209	0.000798	1
H	0.525359	0.045579	-1.680902	1
H	0.296919	-2.077351	-0.289802	1
H	1.535059	1.189879	2.089578	1
H	0.361569	2.175049	-0.046262	1
Es	0.344060	-1.675364	-0.186532	99
Es	1.659864	-1.436235	2.211532	99
Es	-1.703879	0.708050	-1.309003	99
Es	0.386108	-1.118211	0.015813	99
Es	0.514901	0.874428	0.902280	99
Es	-1.877831	0.065735	-0.302785	99
Es	1.083454	0.654827	1.274605	99
Es	-1.515120	0.084684	-0.946691	99
Es	0.220871	-0.643282	-0.332046	99
Es	0.224362	0.606076	-0.291953	99
Es	1.383784	1.011529	1.819722	99
Es	-0.012336	0.039216	-0.727063	99
Es	0.389823	1.831016	0.011651	99
Es	1.526931	-1.585468	1.976777	99
Es	0.796458	-1.012816	0.329650	99
Es	1.580740	-1.319873	1.582292	99
Es	-1.727461	-0.500510	-1.353401	99
Es	1.072364	0.877181	0.600207	99
Es	1.148914	-1.329165	1.832015	99
Es	1.078110	-0.064032	1.254663	99
Es	1.047017	-0.808913	1.176409	99
Es	0.350797	0.056943	-1.368946	99
Es	0.479019	1.123934	0.175778	99
Es	1.484650	-1.885515	1.892716	99
Es	0.258213	-1.071380	0.336813	99
Es	-0.757085	0.070773	-0.828697	99
40
Properties=species:S:1:pos:R:3:Z:I:1 energy=-322.847986545218 field_type=dipole dipole="0.000000 0.000000 0.000000" charge=0
C	-1.515161	0.084679	-0.946682	6
C	-0.012361	0.039319	-0.727182	6
N	0.385669	-1.118301	0.015888	7
C	1.047109	-0.808921	1.176558	6
O	1.527069	-1.585671	1.977008	8
C	1.083439	0.654889	1.274568	6
C	0.479079	1.123909	0.175888	6
H	-1.842841	-0.774201	-1.542612	1
H	-1.805461	0.997939	-1.476842	1
H	-2.065451	0.053209	0.000798	1
H	0.525359	0.045579	-1.680902	1
H	0.296919	-2.077351	-0.289802	1
H	1.535059	1.189879	2.089578	1
H	0.361569	2.175049	-0.046262	1
Es	-0.012339	0.039219	-0.727063	99
Es	1.078125	-0.064063	1.254696	99
Es	1.047018	-0.808913	1.176409	99
Es	-1.727462	-0.500506	-1.353435	99
Es	0.218077	-0.643606	-0.331054	99
Es	-1.877884	0.065753	-0.302820	99
Es	0.798641	-1.015458	0.310115	99
Es	0.224281	0.606000	-0.291930	99
Es	-1.703797	0.708077	-1.309011	99
Es	0.340664	-1.675373	-0.185429	99
Es	0.514955	0.874317	0.902268	99
Es	1.658712	-1.436185	2.212016	99
Es	0.479018	1.123933	0.175778	99
Es	1.526952	-1.585497	1.976795	99
Es	1.072265	0.877252	0.600192	99
Es	1.148246	-1.329859	1.831065	99
Es	0.350833	0.057034	-1.368873	99
Es	-1.515121	0.084684	-0.946690	99
Es	1.083452	0.654826	1.274600	99
Es	0.389889	1.831043	0.011648	99
Es	1.485784	-1.885247	1.892482	99
Es	-0.757102	0.070805	-0.828704	99
Es	1.383776	1.011558	1.819730	99
Es	0.262324	-1.068392	0.354220	99
Es	0.386032	-1.118218	0.015844	99
Es	1.581391	-1.319554	1.582958	99
