38
Properties=species:S:1:pos:R:3:Z:I:1 energy=-358.6647816331287 field_type=dipole dipole="0.000000 0.000000 0.000000" charge=0
C	-1.745087	-0.432389	-0.002670	6
C	-0.287037	-0.248049	-0.000010	6
C	0.563733	0.828591	-0.000290	6
O	0.176303	2.105441	-0.003450	8
N	1.864163	0.430361	0.002990	7
C	1.765323	-0.881419	0.005100	6
O	0.493553	-1.374499	0.003440	8
H	-2.266337	0.529611	0.006170	1
H	-2.061797	-0.998079	0.878910	1
H	-2.060377	-0.981199	-0.895340	1
H	0.994053	2.632611	-0.002820	1
H	2.563503	-1.610979	0.007970	1
Es	-1.005653	-0.337977	-0.001102	99
Es	0.199354	-0.958391	0.026087	99
Es	2.154502	0.652406	0.003803	99
Es	1.294211	0.625860	0.002602	99
Es	1.863702	0.430029	0.002988	99
Es	0.493706	-1.374104	0.003430	99
Es	2.297341	-1.369920	0.007798	99
Es	1.791665	-0.085377	-0.273660	99
Es	0.037458	2.133342	-0.260084	99
Es	0.134836	0.249841	-0.336258	99
Es	1.792734	-0.087352	0.278723	99
Es	-2.083791	0.214871	0.003218	99
Es	0.615327	2.369996	-0.004404	99
Es	0.131809	0.251330	0.334556	99
Es	-0.286924	-0.248323	-0.000007	99
Es	0.407082	-1.649785	0.103886	99
Es	-1.945289	-0.802219	-0.603767	99
Es	0.045369	2.130812	0.254653	99
Es	0.624774	-1.296603	-0.234525	99
Es	0.563811	0.828865	-0.000287	99
Es	0.352809	1.615365	-0.002991	99
Es	-1.745008	-0.432376	-0.002668	99
Es	-1.946231	-0.813594	0.590961	99
Es	1.765080	-0.881494	0.005104	99
Es	0.176537	2.105301	-0.003379	99
Es	0.942679	-1.191917	0.119436	99
38
Properties=species:S:1:pos:R:3:Z:I:1 energy=-358.6647816331287 field_type=dipole dipole="0.000000 0.000000 0.000000" charge=0
C	-1.745087	-0.432389	-0.002670	6
C	-0.287037	-0.248049	-0.000010	6
C	0.563733	0.828591	-0.000290	6
O	0.176303	2.105441	-0.003450	8
N	1.864163	0.430361	0.002990	7
C	1.765323	-0.881419	0.005100	6
O	0.493553	-1.374499	0.003440	8
H	-2.266337	0.529611	0.006170	1
H	-2.061797	-0.998079	0.878910	1
H	-2.060377	-0.981199	-0.895340	1
H	0.994053	2.632611	-0.002820	1
H	2.563503	-1.610979	0.007970	1
Es	0.048134	2.129080	0.255644	99
Es	-1.945264	-0.802269	-0.603726	99
Es	0.176629	2.105285	-0.003444	99
Es	1.294240	0.625783	0.000445	99
Es	2.154218	0.652444	0.002810	99
Es	1.790968	-0.085155	0.281117	99
Es	-1.005752	-0.337939	-0.001479	99
Es	1.863703	0.430035	0.002989	99
Es	0.615284	2.370535	-0.005335	99
Es	0.493788	-1.374076	0.003399	99
Es	0.034438	2.134362	-0.258894	99
Es	0.950603	-1.189428	-0.097530	99
Es	0.563809	0.828864	-0.000296	99
Es	-2.083800	0.214923	0.003162	99
Es	-0.286923	-0.248319	0.000013	99
Es	0.199370	-0.958111	-0.022495	99
Es	-1.946192	-0.813578	0.591015	99
Es	-1.745009	-0.432377	-0.002670	99
Es	0.133543	0.250478	-0.334358	99
Es	2.297411	-1.370021	0.006297	99
Es	1.765079	-0.881495	0.005095	99
Es	0.134041	0.251243	0.336054	99
Es	0.352944	1.615561	-0.004219	99
Es	0.412173	-1.644426	-0.109351	99
Es	0.610610	-1.304776	0.241495	99
Es	1.793843	-0.088038	-0.271629	99
38
Properties=species:S:1:pos:R:3:Z:I:1 energy=-358.6647816331287 field_type=dipole dipole="0.000000 0.000000 0.000000" charge=0
C	-1.745087	-0.432389	-0.002670	6
C	-0.287037	-0.248049	-0.000010	6
C	0.563733	0.828591	-0.000290	6
O	0.176303	2.105441	-0.003450	8
N	1.864163	0.430361	0.002990	7
C	1.765323	-0.881419	0.005100	6
O	0.493553	-1.374499	0.003440	8
H	-2.266337	0.529611	0.006170	1
H	-2.061797	-0.998079	0.878910	1
H	-2.060377	-0.981199	-0.895340	1
H	0.994053	2.632611	-0.002820	1
H	2.563503	-1.610979	0.007970	1
Es	0.352472	1.615080	-0.000117	99
Es	0.942975	-1.192500	-0.112518	99
Es	1.793615	-0.087995	-0.271461	99
Es	-1.946141	-0.813560	0.591000	99
Es	0.615451	2.370207	-0.002851	99
Es	0.041225	2.133204	0.252206	99
Es	0.493735	-1.374029	0.003268	99
Es	0.408022	-1.650841	-0.093574	99
Es	0.176658	2.105302	-0.003403	99
Es	1.294468	0.626297	0.000472	99
Es	1.765079	-0.881490	0.005098	99
Es	2.297485	-1.369906	0.006289	99
Es	-1.945297	-0.802298	-0.603813	99
Es	0.041592	2.131042	-0.262057	99
Es	0.198578	-0.959501	-0.023438	99
Es	0.624291	-1.294063	0.241576	99
Es	-0.286923	-0.248322	-0.000003	99
Es	0.563811	0.828871	-0.000290	99
Es	-2.083773	0.214925	0.003236	99
Es	1.790551	-0.084859	0.280975	99
Es	0.132939	0.250597	-0.334097	99
Es	-1.005867	-0.337863	-0.001561	99
Es	1.863701	0.430030	0.002991	99
Es	-1.745009	-0.432377	-0.002670	99
Es	0.133850	0.250704	0.335969	99
Es	2.154400	0.651926	0.002886	99
38
Properties=species:S:1:pos:R:3:Z:I:1 energy=-358.6647816331287 field_type=dipole dipole="0.000000 0.000000 0.000000" charge=0
C	-1.745087	-0.432389	-0.002670	6
C	-0.287037	-0.248049	-0.000010	6
C	0.563733	0.828591	-0.000290	6
O	0.176303	2.105441	-0.003450	8
N	1.864163	0.430361	0.002990	7
C	1.765323	-0.881419	0.005100	6
O	0.493553	-1.374499	0.003440	8
H	-2.266337	0.529611	0.006170	1
H	-2.061797	-0.998079	0.878910	1
H	-2.060377	-0.981199	-0.895340	1
H	0.994053	2.632611	-0.002820	1
H	2.563503	-1.610979	0.007970	1
Es	0.045733	2.129522	-0.262606	99
Es	0.176623	2.105298	-0.003464	99
Es	0.134961	0.250267	-0.335748	99
Es	0.132078	0.251248	0.333955	99
Es	1.791947	-0.086130	-0.273250	99
Es	-2.083721	0.214899	0.003110	99
Es	-1.005970	-0.337835	-0.001140	99
Es	-1.945231	-0.802292	-0.603801	99
Es	0.198657	-0.958936	0.027528	99
Es	-1.946219	-0.813560	0.591122	99
Es	0.615317	2.370543	-0.001582	99
Es	1.863696	0.430027	0.002983	99
Es	0.408044	-1.649795	0.103040	99
Es	1.765079	-0.881494	0.005102	99
Es	0.622936	-1.296352	-0.233706	99
Es	1.792885	-0.086823	0.279276	99
Es	0.944105	-1.191847	0.118041	99
Es	2.153973	0.652233	0.003068	99
Es	0.563810	0.828868	-0.000288	99
Es	-0.286925	-0.248322	-0.000001	99
Es	2.297501	-1.369900	0.007684	99
Es	-1.745009	-0.432377	-0.002669	99
Es	0.352774	1.615435	-0.000380	99
Es	0.493738	-1.374054	0.003549	99
Es	1.294187	0.625887	0.002443	99
Es	0.036921	2.134076	0.251845	99
38
Properties=species:S:1:pos:R:3:Z:I:1 energy=-358.6647816331287 field_type=dipole dipole="0.000000 0.000000 0.000000" charge=0
C	-1.745087	-0.432389	-0.002670	6
C	-0.287037	-0.248049	-0.000010	6
C	0.563733	0.828591	-0.000290	6
O	0.176303	2.105441	-0.003450	8
N	1.864163	0.430361	0.002990	7
C	1.765323	-0.881419	0.005100	6
O	0.493553	-1.374499	0.003440	8
H	-2.266337	0.529611	0.006170	1
H	-2.061797	-0.998079	0.878910	1
H	-2.060377	-0.981199	-0.895340	1
H	0.994053	2.632611	-0.002820	1
H	2.563503	-1.610979	0.007970	1
Es	-1.945193	-0.802252	-0.603730	99
Es	-0.286924	-0.248323	-0.000016	99
Es	0.493707	-1.374084	0.003489	99
Es	0.409539	-1.648208	0.106916	99
Es	0.614885	2.370709	-0.003575	99
Es	0.135046	0.250548	-0.335535	99
Es	2.297575	-1.369910	0.007690	99
Es	-2.083792	0.214945	0.003105	99
Es	0.617000	-1.298610	-0.233597	99
Es	-1.005985	-0.337787	-0.001234	99
Es	0.132351	0.251213	0.333930	99
Es	0.353492	1.615868	-0.003949	99
Es	1.863701	0.430038	0.002991	99
Es	0.042088	2.131392	-0.260267	99
Es	0.199145	-0.958990	0.029501	99
Es	1.791941	-0.086193	-0.273585	99
Es	0.947666	-1.191089	0.112101	99
Es	1.765078	-0.881495	0.005106	99
Es	0.176692	2.105259	-0.003458	99
Es	-1.946193	-0.813635	0.591102	99
Es	0.040171	2.131660	0.255022	99
Es	-1.745009	-0.432377	-0.002670	99
Es	1.294464	0.626214	0.002383	99
Es	0.563810	0.828866	-0.000291	99
Es	2.154045	0.651946	0.003546	99
Es	1.792591	-0.087122	0.279139	99
38
Properties=species:S:1:pos:R:3:Z:I:1 energy=-358.6647816331287 field_type=dipole dipole="0.000000 0.000000 0.000000" charge=0
C	-1.745087	-0.432389	-0.002670	6
C	-0.287037	-0.248049	-0.000010	6
C	0.563733	0.828591	-0.000290	6
O	0.176303	2.105441	-0.003450	8
N	1.864163	0.430361	0.002990	7
C	1.765323	-0.881419	0.005100	6
O	0.493553	-1.374499	0.003440	8
H	-2.266337	0.529611	0.006170	1
H	-2.061797	-0.998079	0.878910	1
H	-2.060377	-0.981199	-0.895340	1
H	0.994053	2.632611	-0.002820	1
H	2.563503	-1.610979	0.007970	1
Es	1.863703	0.430034	0.002990	99
Es	0.176698	2.105256	-0.003342	99
Es	0.406519	-1.652634	-0.086664	99
Es	0.938590	-1.194605	-0.120007	99
Es	-2.083777	0.214948	0.003329	99
Es	0.352740	1.615216	-0.002513	99
Es	1.793771	-0.087993	-0.271522	99
Es	0.198019	-0.959750	-0.023545	99
Es	-0.286924	-0.248319	-0.000011	99
Es	0.563809	0.828864	-0.000291	99
Es	0.631270	-1.289981	0.242177	99
Es	0.133010	0.250401	-0.333757	99
Es	1.294497	0.626336	0.000366	99
Es	0.615292	2.371073	-0.003105	99
Es	2.153901	0.651811	0.003007	99
Es	1.765078	-0.881495	0.005098	99
Es	2.297657	-1.369851	0.006407	99
Es	-1.945247	-0.802150	-0.603874	99
Es	-1.006067	-0.337724	-0.001445	99
Es	0.493711	-1.374107	0.003303	99
Es	0.133720	0.250976	0.335494	99
Es	0.041392	2.131750	0.253098	99
Es	1.790542	-0.084966	0.280996	99
Es	-1.745011	-0.432377	-0.002670	99
Es	0.041135	2.131602	-0.260391	99
Es	-1.946139	-0.813734	0.590985	99
38
Properties=species:S:1:pos:R:3:Z:I:1 energy=-358.6647816331287 field_type=dipole dipole="0.000000 0.000000 0.000000" charge=0
C	-1.745087	-0.432389	-0.002670	6
C	-0.287037	-0.248049	-0.000010	6
C	0.563733	0.828591	-0.000290	6
O	0.176303	2.105441	-0.003450	8
N	1.864163	0.430361	0.002990	7
C	1.765323	-0.881419	0.005100	6
O	0.493553	-1.374499	0.003440	8
H	-2.266337	0.529611	0.006170	1
H	-2.061797	-0.998079	0.878910	1
H	-2.060377	-0.981199	-0.895340	1
H	0.994053	2.632611	-0.002820	1
H	2.563503	-1.610979	0.007970	1
Es	0.631288	-1.290894	0.241893	99
Es	0.352592	1.615131	0.000434	99
Es	-2.083731	0.214963	0.003217	99
Es	-1.745016	-0.432377	-0.002670	99
Es	0.036317	2.135312	0.251624	99
Es	0.133155	0.250087	-0.333714	99
Es	0.938736	-1.194269	-0.119769	99
Es	-1.946091	-0.813615	0.591115	99
Es	0.176669	2.105276	-0.003436	99
Es	1.294624	0.626460	0.000728	99
Es	0.046299	2.127991	-0.261364	99
Es	0.615369	2.371209	-0.003492	99
Es	1.765078	-0.881495	0.005103	99
Es	1.863699	0.430030	0.002982	99
Es	-1.945278	-0.802278	-0.603825	99
Es	2.153731	0.651650	0.002897	99
Es	2.297686	-1.369854	0.006401	99
Es	-0.286923	-0.248328	-0.000022	99
Es	0.563809	0.828861	-0.000291	99
Es	0.197724	-0.959663	-0.022452	99
Es	1.790701	-0.085003	0.281036	99
Es	-1.006167	-0.337678	-0.001452	99
Es	1.793606	-0.087985	-0.271762	99
Es	0.133568	0.251348	0.335247	99
Es	0.493723	-1.374087	0.003390	99
Es	0.406720	-1.652208	-0.087706	99
38
Properties=species:S:1:pos:R:3:Z:I:1 energy=-358.6647816331287 field_type=dipole dipole="0.000000 0.000000 0.000000" charge=0
C	-1.745087	-0.432389	-0.002670	6
C	-0.287037	-0.248049	-0.000010	6
C	0.563733	0.828591	-0.000290	6
O	0.176303	2.105441	-0.003450	8
N	1.864163	0.430361	0.002990	7
C	1.765323	-0.881419	0.005100	6
O	0.493553	-1.374499	0.003440	8
H	-2.266337	0.529611	0.006170	1
H	-2.061797	-0.998079	0.878910	1
H	-2.060377	-0.981199	-0.895340	1
H	0.994053	2.632611	-0.002820	1
H	2.563503	-1.610979	0.007970	1
Es	0.615234	2.371434	-0.002650	99
Es	1.765077	-0.881497	0.005099	99
Es	-0.286922	-0.248318	-0.000005	99
Es	0.176688	2.105252	-0.003570	99
Es	0.045762	2.128591	-0.261454	99
Es	1.790206	-0.084114	0.281392	99
Es	-2.083726	0.215008	0.003217	99
Es	0.352763	1.615167	0.000055	99
Es	1.863708	0.430016	0.002994	99
Es	0.634844	-1.287878	0.240461	99
Es	-1.945224	-0.802314	-0.603881	99
Es	2.297760	-1.369845	0.006399	99
Es	-1.745010	-0.432377	-0.002670	99
Es	0.133005	0.250361	-0.333505	99
Es	1.294611	0.626429	0.000059	99
Es	-1.946085	-0.813614	0.591111	99
Es	-1.006288	-0.337654	-0.001471	99
Es	0.405743	-1.653894	-0.082505	99
Es	0.936902	-1.195418	-0.123561	99
Es	2.153864	0.651649	0.002325	99
Es	0.197280	-0.959882	-0.022429	99
Es	0.563808	0.828863	-0.000288	99
Es	0.036755	2.134489	0.251388	99
Es	1.793840	-0.088836	-0.270906	99
Es	0.133591	0.251043	0.335177	99
Es	0.493705	-1.374076	0.003331	99
38
Properties=species:S:1:pos:R:3:Z:I:1 energy=-358.6647816331287 field_type=dipole dipole="0.000000 0.000000 0.000000" charge=0
C	-1.745087	-0.432389	-0.002670	6
C	-0.287037	-0.248049	-0.000010	6
C	0.563733	0.828591	-0.000290	6
O	0.176303	2.105441	-0.003450	8
N	1.864163	0.430361	0.002990	7
C	1.765323	-0.881419	0.005100	6
O	0.493553	-1.374499	0.003440	8
H	-2.266337	0.529611	0.006170	1
H	-2.061797	-0.998079	0.878910	1
H	-2.060377	-0.981199	-0.895340	1
H	0.994053	2.632611	-0.002820	1
H	2.563503	-1.610979	0.007970	1
Es	0.615595	2.371099	-0.002354	99
Es	0.563808	0.828857	-0.000301	99
Es	1.863705	0.430031	0.002991	99
Es	-1.946059	-0.813673	0.591081	99
Es	0.352079	1.614791	-0.001695	99
Es	0.176636	2.105294	-0.003495	99
Es	0.406150	-1.652575	0.092522	99
Es	-1.745010	-0.432377	-0.002669	99
Es	-1.945084	-0.802342	-0.603860	99
Es	0.937661	-1.194671	0.129068	99
Es	1.765078	-0.881495	0.005109	99
Es	-1.006365	-0.337503	-0.001083	99
Es	0.632929	-1.290035	-0.234928	99
Es	2.297797	-1.369840	0.007627	99
Es	-2.083872	0.214984	0.003180	99
Es	-0.286914	-0.248308	0.000027	99
Es	0.135000	0.250096	-0.335053	99
Es	0.493805	-1.374010	0.003543	99
Es	1.792398	-0.087094	0.279019	99
Es	1.791870	-0.086209	-0.273615	99
Es	1.294665	0.626445	0.002411	99
Es	0.131937	0.251622	0.333307	99
Es	0.043345	2.130887	-0.260632	99
Es	2.153614	0.651647	0.003633	99
Es	0.197637	-0.959888	0.028316	99
Es	0.039484	2.132853	0.251964	99
38
Properties=species:S:1:pos:R:3:Z:I:1 energy=-358.6647816331287 field_type=dipole dipole="0.000000 0.000000 0.000000" charge=0
C	-1.745087	-0.432389	-0.002670	6
C	-0.287037	-0.248049	-0.000010	6
C	0.563733	0.828591	-0.000290	6
O	0.176303	2.105441	-0.003450	8
N	1.864163	0.430361	0.002990	7
C	1.765323	-0.881419	0.005100	6
O	0.493553	-1.374499	0.003440	8
H	-2.266337	0.529611	0.006170	1
H	-2.061797	-0.998079	0.878910	1
H	-2.060377	-0.981199	-0.895340	1
H	0.994053	2.632611	-0.002820	1
H	2.563503	-1.610979	0.007970	1
Es	1.792519	-0.087151	0.279025	99
Es	1.863703	0.430036	0.002990	99
Es	2.297844	-1.369825	0.007567	99
Es	0.352706	1.615060	-0.003370	99
Es	-1.946049	-0.813666	0.591088	99
Es	1.765079	-0.881493	0.005105	99
Es	0.131896	0.251621	0.333077	99
Es	0.615208	2.371697	-0.002733	99
Es	-1.945163	-0.802312	-0.603903	99
Es	0.135023	0.250018	-0.334946	99
Es	-0.286923	-0.248318	-0.000009	99
Es	0.493684	-1.374103	0.003465	99
Es	0.405958	-1.653110	0.090947	99
Es	1.791694	-0.086114	-0.273558	99
Es	0.938184	-1.194851	0.129327	99
Es	0.633188	-1.289202	-0.233180	99
Es	0.563809	0.828863	-0.000291	99
Es	1.294706	0.626660	0.002618	99
Es	0.197275	-0.959930	0.028023	99
Es	0.041009	2.131974	-0.259657	99
Es	0.176655	2.105257	-0.003425	99
Es	-2.083750	0.215086	0.003243	99
Es	-1.745011	-0.432377	-0.002670	99
Es	0.041528	2.130970	0.252962	99
Es	-1.006465	-0.337585	-0.001039	99
Es	2.153582	0.651378	0.003456	99
38
Properties=species:S:1:pos:R:3:Z:I:1 energy=-358.6647816331287 field_type=dipole dipole="0.000000 0.000000 0.000000" charge=0
C	-1.745087	-0.432389	-0.002670	6
C	-0.287037	-0.248049	-0.000010	6
C	0.563733	0.828591	-0.000290	6
O	0.176303	2.105441	-0.003450	8
N	1.864163	0.430361	0.002990	7
C	1.765323	-0.881419	0.005100	6
O	0.493553	-1.374499	0.003440	8
H	-2.266337	0.529611	0.006170	1
H	-2.061797	-0.998079	0.878910	1
H	-2.060377	-0.981199	-0.895340	1
H	0.994053	2.632611	-0.002820	1
H	2.563503	-1.610979	0.007970	1
Es	0.133188	0.250472	-0.333020	99
Es	0.563808	0.828863	-0.000290	99
Es	0.406507	-1.653816	-0.082756	99
Es	-0.286923	-0.248311	-0.000024	99
Es	-1.946053	-0.813582	0.591192	99
Es	0.046935	2.128537	-0.261250	99
Es	0.197144	-0.960050	-0.024080	99
Es	2.297895	-1.369811	0.006519	99
Es	0.493700	-1.374080	0.003464	99
Es	0.939684	-1.195214	-0.120204	99
Es	0.615320	2.371669	-0.002050	99
Es	0.176670	2.105271	-0.003504	99
Es	0.352446	1.614974	-0.000415	99
Es	0.133859	0.251352	0.334825	99
Es	1.294746	0.626521	0.000453	99
Es	1.765087	-0.881489	0.005090	99
Es	1.790588	-0.085493	0.280877	99
Es	-1.006536	-0.337525	-0.001443	99
Es	-1.745010	-0.432377	-0.002669	99
Es	-1.945121	-0.802418	-0.603871	99
Es	0.631170	-1.288069	0.238779	99
Es	1.793720	-0.087988	-0.271883	99
Es	0.035710	2.134521	0.250985	99
Es	1.863704	0.430035	0.002990	99
Es	2.153392	0.651505	0.003289	99
Es	-2.083739	0.215087	0.003108	99
38
Properties=species:S:1:pos:R:3:Z:I:1 energy=-358.6647816331287 field_type=dipole dipole="0.000000 0.000000 0.000000" charge=0
C	-1.745087	-0.432389	-0.002670	6
C	-0.287037	-0.248049	-0.000010	6
C	0.563733	0.828591	-0.000290	6
O	0.176303	2.105441	-0.003450	8
N	1.864163	0.430361	0.002990	7
C	1.765323	-0.881419	0.005100	6
O	0.493553	-1.374499	0.003440	8
H	-2.266337	0.529611	0.006170	1
H	-2.061797	-0.998079	0.878910	1
H	-2.060377	-0.981199	-0.895340	1
H	0.994053	2.632611	-0.002820	1
H	2.563503	-1.610979	0.007970	1
Es	0.631680	-1.288119	0.240148	99
Es	0.133752	0.251605	0.334536	99
Es	-0.286926	-0.248320	-0.000009	99
Es	0.042999	2.130167	0.253083	99
Es	-2.083746	0.215097	0.003225	99
Es	-1.745010	-0.432378	-0.002669	99
Es	0.406662	-1.653339	-0.082698	99
Es	-1.945996	-0.813702	0.591168	99
Es	0.493687	-1.374054	0.003368	99
Es	0.197090	-0.960449	-0.024456	99
Es	0.563807	0.828859	-0.000293	99
Es	0.939165	-1.195310	-0.121108	99
Es	-1.006653	-0.337480	-0.001513	99
Es	1.793190	-0.087234	-0.272228	99
Es	1.791077	-0.086231	0.280719	99
Es	1.765080	-0.881494	0.005101	99
Es	1.294876	0.626971	0.001071	99
Es	0.133384	0.250225	-0.332922	99
Es	0.352389	1.614926	-0.004008	99
Es	0.615341	2.371791	-0.002808	99
Es	-1.945131	-0.802324	-0.603925	99
Es	0.176645	2.105289	-0.003441	99
Es	0.039636	2.132814	-0.259100	99
Es	2.297939	-1.369813	0.006539	99
Es	1.863729	0.430054	0.002981	99
Es	2.153223	0.651031	0.003348	99
38
Properties=species:S:1:pos:R:3:Z:I:1 energy=-358.6647816331287 field_type=dipole dipole="0.000000 0.000000 0.000000" charge=0
C	-1.745087	-0.432389	-0.002670	6
C	-0.287037	-0.248049	-0.000010	6
C	0.563733	0.828591	-0.000290	6
O	0.176303	2.105441	-0.003450	8
N	1.864163	0.430361	0.002990	7
C	1.765323	-0.881419	0.005100	6
O	0.493553	-1.374499	0.003440	8
H	-2.266337	0.529611	0.006170	1
H	-2.061797	-0.998079	0.878910	1
H	-2.060377	-0.981199	-0.895340	1
H	0.994053	2.632611	-0.002820	1
H	2.563503	-1.610979	0.007970	1
Es	0.934669	-1.196506	0.135168	99
Es	0.039758	2.132451	-0.258827	99
Es	1.792549	-0.087260	0.278879	99
Es	0.352654	1.614981	-0.004032	99
Es	0.042884	2.130082	0.253151	99
Es	1.294744	0.626830	0.002881	99
Es	-1.006632	-0.337449	-0.001024	99
Es	1.791524	-0.086161	-0.273415	99
Es	1.765077	-0.881495	0.005111	99
Es	0.405144	-1.654598	0.084830	99
Es	-1.946133	-0.813737	0.591137	99
Es	1.863711	0.430031	0.002992	99
Es	-0.286925	-0.248320	0.000003	99
Es	0.615167	2.372184	-0.003084	99
Es	-2.083792	0.215049	0.003140	99
Es	0.493715	-1.374079	0.003502	99
Es	0.131499	0.252153	0.332617	99
Es	2.298008	-1.369775	0.007474	99
Es	0.196635	-0.960467	0.028494	99
Es	0.176565	2.105312	-0.003445	99
Es	2.153422	0.651108	0.003349	99
Es	-1.745011	-0.432377	-0.002670	99
Es	0.135253	0.249639	-0.334613	99
Es	0.638586	-1.285582	-0.233293	99
Es	0.563807	0.828862	-0.000288	99
Es	-1.944988	-0.802289	-0.603929	99
38
Properties=species:S:1:pos:R:3:Z:I:1 energy=-358.6647816331287 field_type=dipole dipole="0.000000 0.000000 0.000000" charge=0
C	-1.745087	-0.432389	-0.002670	6
C	-0.287037	-0.248049	-0.000010	6
C	0.563733	0.828591	-0.000290	6
O	0.176303	2.105441	-0.003450	8
N	1.864163	0.430361	0.002990	7
C	1.765323	-0.881419	0.005100	6
O	0.493553	-1.374499	0.003440	8
H	-2.266337	0.529611	0.006170	1
H	-2.061797	-0.998079	0.878910	1
H	-2.060377	-0.981199	-0.895340	1
H	0.994053	2.632611	-0.002820	1
H	2.563503	-1.610979	0.007970	1
Es	0.493698	-1.374083	0.003392	99
Es	2.153213	0.650953	0.002485	99
Es	1.294905	0.626998	0.000076	99
Es	0.037983	2.132311	-0.257621	99
Es	-2.083735	0.215090	0.003306	99
Es	1.863713	0.430035	0.002990	99
Es	0.406523	-1.653203	-0.082027	99
Es	0.938461	-1.195958	-0.122188	99
Es	1.790450	-0.085026	0.281444	99
Es	0.176632	2.105278	-0.003486	99
Es	-1.745011	-0.432377	-0.002669	99
Es	0.196958	-0.960149	-0.024496	99
Es	1.765078	-0.881495	0.005098	99
Es	2.298031	-1.369793	0.006547	99
Es	0.615306	2.372305	-0.005120	99
Es	-1.945928	-0.813675	0.591151	99
Es	0.632687	-1.287943	0.240435	99
Es	0.133200	0.250772	-0.332512	99
Es	0.352394	1.614890	-0.003908	99
Es	0.563807	0.828860	-0.000293	99
Es	0.044637	2.130243	0.253808	99
Es	-0.286920	-0.248309	-0.000013	99
Es	-1.945169	-0.802360	-0.604007	99
Es	0.134074	0.251310	0.334455	99
Es	1.793657	-0.088706	-0.271307	99
Es	-1.006753	-0.337384	-0.001428	99
38
Properties=species:S:1:pos:R:3:Z:I:1 energy=-358.6647816331287 field_type=dipole dipole="0.000000 0.000000 0.000000" charge=0
C	-1.745087	-0.432389	-0.002670	6
C	-0.287037	-0.248049	-0.000010	6
C	0.563733	0.828591	-0.000290	6
O	0.176303	2.105441	-0.003450	8
N	1.864163	0.430361	0.002990	7
C	1.765323	-0.881419	0.005100	6
O	0.493553	-1.374499	0.003440	8
H	-2.266337	0.529611	0.006170	1
H	-2.061797	-0.998079	0.878910	1
H	-2.060377	-0.981199	-0.895340	1
H	0.994053	2.632611	-0.002820	1
H	2.563503	-1.610979	0.007970	1
Es	-1.945142	-0.802394	-0.603945	99
Es	0.563807	0.828861	-0.000292	99
Es	-0.286928	-0.248323	-0.000009	99
Es	0.196578	-0.960834	-0.025822	99
Es	0.493791	-1.374038	0.003322	99
Es	-1.745013	-0.432377	-0.002672	99
Es	0.937156	-1.196869	-0.124844	99
Es	0.133118	0.250684	-0.332390	99
Es	-1.945957	-0.813641	0.591223	99
Es	2.298057	-1.369737	0.006519	99
Es	1.765079	-0.881495	0.005099	99
Es	0.176725	2.105211	-0.003697	99
Es	2.153059	0.650888	0.002924	99
Es	1.294980	0.627015	0.000399	99
Es	0.134019	0.251335	0.334247	99
Es	0.615267	2.372260	-0.003577	99
Es	0.406088	-1.654725	-0.077497	99
Es	-1.006857	-0.337388	-0.001498	99
Es	0.039084	2.132268	-0.258485	99
Es	1.790592	-0.085381	0.281236	99
Es	0.634892	-1.284862	0.239837	99
Es	1.863701	0.430026	0.002992	99
Es	0.352407	1.614785	-0.003213	99
Es	1.793631	-0.088337	-0.271632	99
Es	-2.083695	0.215158	0.003201	99
Es	0.043452	2.130493	0.252683	99
38
Properties=species:S:1:pos:R:3:Z:I:1 energy=-358.6647816331287 field_type=dipole dipole="0.000000 0.000000 0.000000" charge=0
C	-1.745087	-0.432389	-0.002670	6
C	-0.287037	-0.248049	-0.000010	6
C	0.563733	0.828591	-0.000290	6
O	0.176303	2.105441	-0.003450	8
N	1.864163	0.430361	0.002990	7
C	1.765323	-0.881419	0.005100	6
O	0.493553	-1.374499	0.003440	8
H	-2.266337	0.529611	0.006170	1
H	-2.061797	-0.998079	0.878910	1
H	-2.060377	-0.981199	-0.895340	1
H	0.994053	2.632611	-0.002820	1
H	2.563503	-1.610979	0.007970	1
Es	-0.286923	-0.248318	-0.000005	99
Es	1.791650	-0.087725	0.280378	99
Es	1.863704	0.430045	0.002990	99
Es	0.563807	0.828860	-0.000290	99
Es	1.294931	0.627208	0.001113	99
Es	0.136002	0.251708	-0.333095	99
Es	-1.945080	-0.802285	-0.604024	99
Es	-2.083655	0.215212	0.003267	99
Es	0.352507	1.614846	-0.002345	99
Es	-1.946042	-0.813727	0.591132	99
Es	2.298123	-1.370075	0.007056	99
Es	2.153361	0.650722	0.003757	99
Es	0.554052	-1.307775	0.016097	99
Es	0.986463	-1.190888	-0.002804	99
Es	-1.006985	-0.337520	-0.001175	99
Es	-1.745012	-0.432377	-0.002669	99
Es	0.403983	-1.680991	-0.009958	99
Es	0.176696	2.105257	-0.003309	99
Es	0.191929	-0.954127	-0.000103	99
Es	0.041946	2.130609	-0.259173	99
Es	1.793506	-0.088793	-0.273141	99
Es	0.040518	2.131532	0.251591	99
Es	0.134935	0.252749	0.333181	99
Es	0.615223	2.372810	-0.003003	99
Es	1.765079	-0.881495	0.005092	99
Es	0.527171	-1.336878	0.013552	99
38
Properties=species:S:1:pos:R:3:Z:I:1 energy=-358.6647816331287 field_type=dipole dipole="0.000000 0.000000 0.000000" charge=0
C	-1.745087	-0.432389	-0.002670	6
C	-0.287037	-0.248049	-0.000010	6
C	0.563733	0.828591	-0.000290	6
O	0.176303	2.105441	-0.003450	8
N	1.864163	0.430361	0.002990	7
C	1.765323	-0.881419	0.005100	6
O	0.493553	-1.374499	0.003440	8
H	-2.266337	0.529611	0.006170	1
H	-2.061797	-0.998079	0.878910	1
H	-2.060377	-0.981199	-0.895340	1
H	0.994053	2.632611	-0.002820	1
H	2.563503	-1.610979	0.007970	1
Es	0.352469	1.614826	-0.002773	99
Es	0.563804	0.828863	-0.000290	99
Es	0.406338	-1.654127	-0.078151	99
Es	1.765079	-0.881494	0.005098	99
Es	0.176681	2.105267	-0.003506	99
Es	0.039068	2.131953	0.251810	99
Es	-0.286924	-0.248315	-0.000013	99
Es	1.790059	-0.084594	0.281462	99
Es	0.635742	-1.285519	0.240533	99
Es	0.043426	2.130320	-0.259099	99
Es	2.298202	-1.369743	0.006569	99
Es	1.863710	0.430030	0.002992	99
Es	1.294965	0.627199	-0.000186	99
Es	-1.745009	-0.432376	-0.002673	99
Es	2.153102	0.650664	0.002469	99
Es	0.134136	0.251219	0.334174	99
Es	0.615234	2.372687	-0.002708	99
Es	0.196337	-0.960921	-0.025302	99
Es	-1.945919	-0.813630	0.591242	99
Es	0.936528	-1.196674	-0.125616	99
Es	1.793858	-0.089274	-0.270968	99
Es	-1.945075	-0.802463	-0.603860	99
Es	-2.083789	0.215186	0.003117	99
Es	0.133104	0.250953	-0.332085	99
Es	0.493696	-1.374138	0.003413	99
Es	-1.006932	-0.337315	-0.001538	99
