38
Properties=species:S:1:pos:R:3:Z:I:1 energy=-358.607847576585 field_type=dipole dipole="0.000000 0.000000 0.000000" charge=0
C	-1.757904	-0.613068	-0.000609	6
C	-0.297744	-0.430808	-0.001539	6
C	0.540746	0.650022	0.002391	6
O	0.140516	1.930732	0.008831	8
C	1.834936	0.109132	-0.001809	6
N	1.806886	-1.226638	-0.008029	7
O	0.458406	-1.566898	-0.007899	8
H	-2.277724	0.349672	0.011771	1
H	-2.072844	-1.179998	0.880711	1
H	-2.076374	-1.159248	-0.893689	1
H	0.908786	2.528252	0.010591	1
H	2.792316	0.608852	-0.000719	1
Es	-1.952041	-0.990761	0.589003	99
Es	-0.003306	1.959038	0.264344	99
Es	1.795049	-0.637566	-0.286716	99
Es	1.806401	-1.226181	-0.008027	99
Es	0.373305	-1.816997	0.141842	99
Es	-2.094439	0.034662	0.007722	99
Es	0.186397	-1.127563	0.061450	99
Es	0.458486	-1.566463	-0.007855	99
Es	0.206412	0.130856	-0.320385	99
Es	0.565924	2.225035	0.011417	99
Es	2.055952	-1.506682	-0.009170	99
Es	1.014128	-1.391380	0.012834	99
Es	-1.757814	-0.613052	-0.000609	99
Es	1.214790	0.449298	0.002371	99
Es	-1.014658	-0.515976	-0.000544	99
Es	0.202093	0.128085	0.318767	99
Es	-0.297662	-0.431062	-0.001520	99
Es	-1.954303	-0.976711	-0.598248	99
Es	0.009426	1.955617	-0.250751	99
Es	0.140882	1.930597	0.008890	99
Es	1.796972	-0.641025	0.274617	99
Es	1.834955	0.109113	-0.001813	99
Es	2.467655	0.461592	-0.000905	99
Es	0.540711	0.650302	0.002394	99
Es	0.331326	1.442412	0.009228	99
Es	0.445430	-1.488830	-0.244701	99
38
Properties=species:S:1:pos:R:3:Z:I:1 energy=-358.607847576585 field_type=dipole dipole="0.000000 0.000000 0.000000" charge=0
C	-1.757904	-0.613068	-0.000609	6
C	-0.297744	-0.430808	-0.001539	6
C	0.540746	0.650022	0.002391	6
O	0.140516	1.930732	0.008831	8
C	1.834936	0.109132	-0.001809	6
N	1.806886	-1.226638	-0.008029	7
O	0.458406	-1.566898	-0.007899	8
H	-2.277724	0.349672	0.011771	1
H	-2.072844	-1.179998	0.880711	1
H	-2.076374	-1.159248	-0.893689	1
H	0.908786	2.528252	0.010591	1
H	2.792316	0.608852	-0.000719	1
Es	0.458487	-1.566482	-0.007891	99
Es	-0.297664	-0.431067	-0.001544	99
Es	1.795810	-0.639912	0.276159	99
Es	1.834956	0.109114	-0.001812	99
Es	0.202013	0.130815	-0.318102	99
Es	1.014018	-1.390633	-0.027055	99
Es	0.004413	1.954930	0.267635	99
Es	2.467681	0.461525	-0.001132	99
Es	-1.952062	-0.990702	0.589061	99
Es	-2.094417	0.034771	0.007604	99
Es	-1.757815	-0.613052	-0.000609	99
Es	1.214695	0.449390	-0.000914	99
Es	0.331520	1.442489	0.004540	99
Es	1.806394	-1.226234	-0.008027	99
Es	0.443975	-1.506719	0.235546	99
Es	0.140879	1.930583	0.008900	99
Es	0.185548	-1.124964	-0.065100	99
Es	1.796118	-0.637979	-0.285064	99
Es	-1.014813	-0.516018	-0.001309	99
Es	0.206572	0.127783	0.320869	99
Es	0.540711	0.650298	0.002392	99
Es	0.001589	1.959399	-0.247485	99
Es	-1.954278	-0.976772	-0.598140	99
Es	0.376009	-1.802890	-0.174116	99
Es	0.565816	2.225311	0.009457	99
Es	2.055917	-1.506625	-0.010227	99
38
Properties=species:S:1:pos:R:3:Z:I:1 energy=-358.607847576585 field_type=dipole dipole="0.000000 0.000000 0.000000" charge=0
C	-1.757904	-0.613068	-0.000609	6
C	-0.297744	-0.430808	-0.001539	6
C	0.540746	0.650022	0.002391	6
O	0.140516	1.930732	0.008831	8
C	1.834936	0.109132	-0.001809	6
N	1.806886	-1.226638	-0.008029	7
O	0.458406	-1.566898	-0.007899	8
H	-2.277724	0.349672	0.011771	1
H	-2.072844	-1.179998	0.880711	1
H	-2.076374	-1.159248	-0.893689	1
H	0.908786	2.528252	0.010591	1
H	2.792316	0.608852	-0.000719	1
Es	0.003538	1.955935	0.266552	99
Es	0.443095	-1.513726	0.236734	99
Es	0.458527	-1.566382	-0.008026	99
Es	-1.951936	-0.990718	0.589124	99
Es	-1.014930	-0.515923	-0.001338	99
Es	0.184715	-1.124050	-0.061700	99
Es	2.055764	-1.506504	-0.009927	99
Es	-1.954246	-0.976832	-0.598207	99
Es	1.795854	-0.639590	0.275752	99
Es	1.834956	0.109114	-0.001821	99
Es	-0.297664	-0.431070	-0.001539	99
Es	0.565897	2.225445	0.009603	99
Es	0.377518	-1.797401	-0.179618	99
Es	-1.757816	-0.613052	-0.000609	99
Es	0.331366	1.442353	0.006218	99
Es	1.214685	0.449221	-0.000344	99
Es	0.002622	1.958430	-0.248192	99
Es	0.140807	1.930614	0.008828	99
Es	0.202009	0.130856	-0.318169	99
Es	1.795926	-0.638144	-0.285373	99
Es	1.806394	-1.226193	-0.008022	99
Es	-2.094477	0.034722	0.007634	99
Es	1.014078	-1.390448	-0.026048	99
Es	2.467880	0.461615	-0.000924	99
Es	0.540708	0.650292	0.002387	99
Es	0.206805	0.127794	0.320658	99
38
Properties=species:S:1:pos:R:3:Z:I:1 energy=-358.607847576585 field_type=dipole dipole="0.000000 0.000000 0.000000" charge=0
C	-1.757904	-0.613068	-0.000609	6
C	-0.297744	-0.430808	-0.001539	6
C	0.540746	0.650022	0.002391	6
O	0.140516	1.930732	0.008831	8
C	1.834936	0.109132	-0.001809	6
N	1.806886	-1.226638	-0.008029	7
O	0.458406	-1.566898	-0.007899	8
H	-2.277724	0.349672	0.011771	1
H	-2.072844	-1.179998	0.880711	1
H	-2.076374	-1.159248	-0.893689	1
H	0.908786	2.528252	0.010591	1
H	2.792316	0.608852	-0.000719	1
Es	1.806395	-1.226189	-0.008030	99
Es	0.566159	2.225082	0.011059	99
Es	1.014533	-1.391617	-0.028117	99
Es	0.373267	-1.812456	-0.162262	99
Es	-1.757816	-0.613052	-0.000609	99
Es	0.140930	1.930571	0.008729	99
Es	0.207649	0.127662	0.320832	99
Es	-2.094528	0.034762	0.007631	99
Es	1.795828	-0.639813	0.275766	99
Es	1.214621	0.449355	-0.001150	99
Es	0.446228	-1.495458	0.228801	99
Es	0.330776	1.441875	0.003554	99
Es	-1.951959	-0.990763	0.589067	99
Es	2.467871	0.461492	-0.001072	99
Es	1.834954	0.109113	-0.001818	99
Es	0.458544	-1.566474	-0.007779	99
Es	1.796078	-0.638072	-0.284863	99
Es	2.055961	-1.506315	-0.010174	99
Es	0.185123	-1.126034	-0.069308	99
Es	0.004131	1.954545	0.266843	99
Es	0.201287	0.130808	-0.317574	99
Es	0.540710	0.650298	0.002390	99
Es	-1.015039	-0.515770	-0.001344	99
Es	0.002188	1.960702	-0.247176	99
Es	-1.954155	-0.976829	-0.598221	99
Es	-0.297665	-0.431066	-0.001541	99
38
Properties=species:S:1:pos:R:3:Z:I:1 energy=-358.607847576585 field_type=dipole dipole="0.000000 0.000000 0.000000" charge=0
C	-1.757904	-0.613068	-0.000609	6
C	-0.297744	-0.430808	-0.001539	6
C	0.540746	0.650022	0.002391	6
O	0.140516	1.930732	0.008831	8
C	1.834936	0.109132	-0.001809	6
N	1.806886	-1.226638	-0.008029	7
O	0.458406	-1.566898	-0.007899	8
H	-2.277724	0.349672	0.011771	1
H	-2.072844	-1.179998	0.880711	1
H	-2.076374	-1.159248	-0.893689	1
H	0.908786	2.528252	0.010591	1
H	2.792316	0.608852	-0.000719	1
Es	0.202704	0.130577	-0.317790	99
Es	-0.001981	1.960664	-0.246287	99
Es	-0.297665	-0.431067	-0.001542	99
Es	2.055960	-1.506163	-0.010264	99
Es	0.008454	1.954348	0.267595	99
Es	0.458517	-1.566391	-0.008020	99
Es	-1.757817	-0.613052	-0.000609	99
Es	0.371230	-1.817161	-0.157436	99
Es	-1.951745	-0.990733	0.589086	99
Es	0.566015	2.225306	0.008306	99
Es	1.806410	-1.226185	-0.008025	99
Es	1.796071	-0.637995	-0.284760	99
Es	0.206243	0.127684	0.320347	99
Es	0.330870	1.441871	0.004602	99
Es	0.140792	1.930611	0.008837	99
Es	1.014758	-1.391834	-0.028703	99
Es	-1.015156	-0.515713	-0.001461	99
Es	0.540710	0.650299	0.002381	99
Es	-2.094552	0.034817	0.007743	99
Es	0.449352	-1.491475	0.222195	99
Es	1.795809	-0.639711	0.275789	99
Es	1.214650	0.449319	-0.000592	99
Es	1.834955	0.109112	-0.001811	99
Es	0.183887	-1.125394	-0.066680	99
Es	-1.954319	-0.976887	-0.598167	99
Es	2.467918	0.461510	-0.001100	99
38
Properties=species:S:1:pos:R:3:Z:I:1 energy=-358.607847576585 field_type=dipole dipole="0.000000 0.000000 0.000000" charge=0
C	-1.757904	-0.613068	-0.000609	6
C	-0.297744	-0.430808	-0.001539	6
C	0.540746	0.650022	0.002391	6
O	0.140516	1.930732	0.008831	8
C	1.834936	0.109132	-0.001809	6
N	1.806886	-1.226638	-0.008029	7
O	0.458406	-1.566898	-0.007899	8
H	-2.277724	0.349672	0.011771	1
H	-2.072844	-1.179998	0.880711	1
H	-2.076374	-1.159248	-0.893689	1
H	0.908786	2.528252	0.010591	1
H	2.792316	0.608852	-0.000719	1
Es	2.056013	-1.506193	-0.008951	99
Es	0.140913	1.930560	0.008708	99
Es	0.005174	1.956909	-0.247918	99
Es	1.214570	0.449321	0.002172	99
Es	-1.757815	-0.613052	-0.000609	99
Es	0.000980	1.957331	0.264980	99
Es	-1.015159	-0.515557	-0.000656	99
Es	1.796798	-0.640572	0.273917	99
Es	0.565925	2.226135	0.009670	99
Es	2.467991	0.461475	-0.000840	99
Es	1.806450	-1.226179	-0.008026	99
Es	0.185946	-1.128109	0.062559	99
Es	1.014703	-1.392339	0.013612	99
Es	1.834953	0.109110	-0.001807	99
Es	0.372085	-1.819491	0.136677	99
Es	0.540707	0.650290	0.002366	99
Es	0.331157	1.441891	0.007644	99
Es	0.446197	-1.485904	-0.241664	99
Es	0.203301	0.127688	0.318424	99
Es	-0.297664	-0.431069	-0.001542	99
Es	-1.951970	-0.990774	0.589091	99
Es	0.205927	0.130573	-0.319563	99
Es	-1.954107	-0.976840	-0.598249	99
Es	0.458533	-1.566409	-0.007749	99
Es	-2.094556	0.034710	0.007594	99
Es	1.795021	-0.637146	-0.286206	99
38
Properties=species:S:1:pos:R:3:Z:I:1 energy=-358.607847576585 field_type=dipole dipole="0.000000 0.000000 0.000000" charge=0
C	-1.757904	-0.613068	-0.000609	6
C	-0.297744	-0.430808	-0.001539	6
C	0.540746	0.650022	0.002391	6
O	0.140516	1.930732	0.008831	8
C	1.834936	0.109132	-0.001809	6
N	1.806886	-1.226638	-0.008029	7
O	0.458406	-1.566898	-0.007899	8
H	-2.277724	0.349672	0.011771	1
H	-2.072844	-1.179998	0.880711	1
H	-2.076374	-1.159248	-0.893689	1
H	0.908786	2.528252	0.010591	1
H	2.792316	0.608852	-0.000719	1
Es	0.205969	0.130527	-0.319523	99
Es	1.834955	0.109115	-0.001812	99
Es	0.140871	1.930603	0.008831	99
Es	0.371598	-1.821821	0.133119	99
Es	0.186481	-1.129058	0.065351	99
Es	0.003903	1.955991	0.265270	99
Es	2.056063	-1.505751	-0.009764	99
Es	1.214558	0.449372	0.002039	99
Es	1.015153	-1.393026	0.012939	99
Es	0.458481	-1.566391	-0.007815	99
Es	1.795160	-0.636756	-0.285627	99
Es	-1.757818	-0.613053	-0.000607	99
Es	0.002351	1.958474	-0.248011	99
Es	0.445587	-1.482421	-0.240217	99
Es	0.566015	2.225885	0.010001	99
Es	0.203525	0.127593	0.318252	99
Es	-0.297666	-0.431065	-0.001540	99
Es	0.540709	0.650295	0.002396	99
Es	-2.094449	0.034796	0.007585	99
Es	1.796579	-0.640892	0.274452	99
Es	1.806379	-1.226186	-0.008040	99
Es	2.468074	0.461416	-0.000884	99
Es	-1.015298	-0.515607	-0.000667	99
Es	0.331003	1.441911	0.006988	99
Es	-1.954191	-0.976885	-0.598248	99
Es	-1.951920	-0.990707	0.589169	99
38
Properties=species:S:1:pos:R:3:Z:I:1 energy=-358.607847576585 field_type=dipole dipole="0.000000 0.000000 0.000000" charge=0
C	-1.757904	-0.613068	-0.000609	6
C	-0.297744	-0.430808	-0.001539	6
C	0.540746	0.650022	0.002391	6
O	0.140516	1.930732	0.008831	8
C	1.834936	0.109132	-0.001809	6
N	1.806886	-1.226638	-0.008029	7
O	0.458406	-1.566898	-0.007899	8
H	-2.277724	0.349672	0.011771	1
H	-2.072844	-1.179998	0.880711	1
H	-2.076374	-1.159248	-0.893689	1
H	0.908786	2.528252	0.010591	1
H	2.792316	0.608852	-0.000719	1
Es	0.371509	-1.821559	-0.148432	99
Es	-1.954256	-0.976883	-0.598246	99
Es	0.565889	2.226339	0.009899	99
Es	0.002768	1.956032	0.265344	99
Es	0.208327	0.127413	0.320506	99
Es	1.015315	-1.392865	-0.027842	99
Es	-2.094437	0.034828	0.007662	99
Es	1.214490	0.449271	-0.001658	99
Es	0.187203	-1.129675	-0.080529	99
Es	0.003470	1.957920	-0.247486	99
Es	0.201464	0.130667	-0.316816	99
Es	1.795864	-0.639875	0.275709	99
Es	2.468057	0.461487	-0.001177	99
Es	0.140828	1.930579	0.008779	99
Es	-1.757817	-0.613051	-0.000610	99
Es	1.796314	-0.637986	-0.284372	99
Es	0.444321	-1.482064	0.226081	99
Es	-1.015394	-0.515543	-0.001458	99
Es	0.540710	0.650296	0.002387	99
Es	-0.297663	-0.431062	-0.001556	99
Es	2.055893	-1.505835	-0.010337	99
Es	1.806395	-1.226219	-0.008019	99
Es	0.331186	1.442019	0.006520	99
Es	0.458523	-1.566271	-0.008078	99
Es	-1.951842	-0.990721	0.589182	99
Es	1.834956	0.109115	-0.001818	99
38
Properties=species:S:1:pos:R:3:Z:I:1 energy=-358.607847576585 field_type=dipole dipole="0.000000 0.000000 0.000000" charge=0
C	-1.757904	-0.613068	-0.000609	6
C	-0.297744	-0.430808	-0.001539	6
C	0.540746	0.650022	0.002391	6
O	0.140516	1.930732	0.008831	8
C	1.834936	0.109132	-0.001809	6
N	1.806886	-1.226638	-0.008029	7
O	0.458406	-1.566898	-0.007899	8
H	-2.277724	0.349672	0.011771	1
H	-2.072844	-1.179998	0.880711	1
H	-2.076374	-1.159248	-0.893689	1
H	0.908786	2.528252	0.010591	1
H	2.792316	0.608852	-0.000719	1
Es	0.540709	0.650293	0.002394	99
Es	-1.015511	-0.515471	-0.000651	99
Es	1.834955	0.109111	-0.001807	99
Es	-1.954172	-0.976859	-0.598343	99
Es	0.006320	1.956394	-0.248191	99
Es	1.796913	-0.640704	0.274120	99
Es	2.468120	0.461472	-0.000895	99
Es	-1.951828	-0.990794	0.589093	99
Es	1.015129	-1.393502	0.015119	99
Es	-0.000012	1.957973	0.263411	99
Es	0.566044	2.226436	0.010184	99
Es	0.330799	1.441544	0.008626	99
Es	0.449585	-1.476485	-0.232474	99
Es	1.214432	0.449279	0.002066	99
Es	1.806399	-1.226192	-0.008024	99
Es	1.795233	-0.636773	-0.285843	99
Es	2.055864	-1.505582	-0.009442	99
Es	0.140943	1.930557	0.009093	99
Es	0.206739	0.130353	-0.319306	99
Es	-0.297664	-0.431066	-0.001540	99
Es	-1.757817	-0.613052	-0.000609	99
Es	0.458546	-1.566427	-0.007796	99
Es	0.202779	0.127427	0.317989	99
Es	0.369037	-1.827776	0.124580	99
Es	0.185024	-1.128639	0.064150	99
Es	-2.094494	0.034840	0.007731	99
38
Properties=species:S:1:pos:R:3:Z:I:1 energy=-358.607847576585 field_type=dipole dipole="0.000000 0.000000 0.000000" charge=0
C	-1.757904	-0.613068	-0.000609	6
C	-0.297744	-0.430808	-0.001539	6
C	0.540746	0.650022	0.002391	6
O	0.140516	1.930732	0.008831	8
C	1.834936	0.109132	-0.001809	6
N	1.806886	-1.226638	-0.008029	7
O	0.458406	-1.566898	-0.007899	8
H	-2.277724	0.349672	0.011771	1
H	-2.072844	-1.179998	0.880711	1
H	-2.076374	-1.159248	-0.893689	1
H	0.908786	2.528252	0.010591	1
H	2.792316	0.608852	-0.000719	1
Es	1.214375	0.449169	-0.001053	99
Es	0.369264	-1.827284	-0.139911	99
Es	0.447761	-1.475492	0.220845	99
Es	1.834956	0.109116	-0.001811	99
Es	0.002370	1.956797	0.264558	99
Es	0.140881	1.930593	0.008892	99
Es	0.458498	-1.566441	-0.007960	99
Es	-1.951839	-0.990815	0.589218	99
Es	1.795705	-0.639634	0.275485	99
Es	0.207931	0.127380	0.320116	99
Es	-1.015589	-0.515446	-0.001398	99
Es	0.565905	2.226760	0.009308	99
Es	1.015108	-1.393637	-0.030915	99
Es	2.468103	0.461562	-0.001067	99
Es	0.201904	0.130467	-0.316964	99
Es	1.806401	-1.226188	-0.008025	99
Es	2.055910	-1.505402	-0.010085	99
Es	0.331057	1.441684	0.007497	99
Es	0.186373	-1.130129	-0.081115	99
Es	-0.297660	-0.431064	-0.001545	99
Es	-2.094474	0.034875	0.007627	99
Es	0.540708	0.650285	0.002389	99
Es	-1.954138	-0.976851	-0.598254	99
Es	0.003935	1.957117	-0.247248	99
Es	1.796446	-0.638012	-0.284342	99
Es	-1.757817	-0.613052	-0.000609	99
38
Properties=species:S:1:pos:R:3:Z:I:1 energy=-358.607847576585 field_type=dipole dipole="0.000000 0.000000 0.000000" charge=0
C	-1.757904	-0.613068	-0.000609	6
C	-0.297744	-0.430808	-0.001539	6
C	0.540746	0.650022	0.002391	6
O	0.140516	1.930732	0.008831	8
C	1.834936	0.109132	-0.001809	6
N	1.806886	-1.226638	-0.008029	7
O	0.458406	-1.566898	-0.007899	8
H	-2.277724	0.349672	0.011771	1
H	-2.072844	-1.179998	0.880711	1
H	-2.076374	-1.159248	-0.893689	1
H	0.908786	2.528252	0.010591	1
H	2.792316	0.608852	-0.000719	1
Es	-0.000509	1.960013	-0.244810	99
Es	1.796292	-0.637987	-0.284302	99
Es	-2.094444	0.034768	0.007579	99
Es	0.140898	1.930577	0.008740	99
Es	0.540708	0.650295	0.002403	99
Es	-1.951867	-0.990712	0.589272	99
Es	-1.954144	-0.976937	-0.598320	99
Es	-1.015665	-0.515249	-0.001309	99
Es	-1.757821	-0.613053	-0.000610	99
Es	0.203177	0.130325	-0.316892	99
Es	2.055822	-1.505434	-0.010368	99
Es	0.368714	-1.830133	-0.135230	99
Es	1.834955	0.109112	-0.001810	99
Es	1.795879	-0.639720	0.275540	99
Es	-0.297664	-0.431063	-0.001540	99
Es	0.206907	0.127418	0.319723	99
Es	0.330895	1.441673	0.003712	99
Es	0.458502	-1.566348	-0.008039	99
Es	1.806423	-1.226185	-0.008028	99
Es	1.214399	0.449256	-0.000686	99
Es	0.565940	2.226738	0.008593	99
Es	0.187446	-1.131305	-0.085089	99
Es	2.468213	0.461445	-0.001144	99
Es	0.446454	-1.470983	0.218903	99
Es	1.015705	-1.394112	-0.029464	99
Es	0.006854	1.953957	0.266808	99
38
Properties=species:S:1:pos:R:3:Z:I:1 energy=-358.607847576585 field_type=dipole dipole="0.000000 0.000000 0.000000" charge=0
C	-1.757904	-0.613068	-0.000609	6
C	-0.297744	-0.430808	-0.001539	6
C	0.540746	0.650022	0.002391	6
O	0.140516	1.930732	0.008831	8
C	1.834936	0.109132	-0.001809	6
N	1.806886	-1.226638	-0.008029	7
O	0.458406	-1.566898	-0.007899	8
H	-2.277724	0.349672	0.011771	1
H	-2.072844	-1.179998	0.880711	1
H	-2.076374	-1.159248	-0.893689	1
H	0.908786	2.528252	0.010591	1
H	2.792316	0.608852	-0.000719	1
Es	1.214323	0.449241	-0.001080	99
Es	-2.094475	0.034871	0.007639	99
Es	0.371109	-1.823854	-0.142437	99
Es	-1.951801	-0.990789	0.589234	99
Es	-1.757818	-0.613052	-0.000609	99
Es	1.796356	-0.637984	-0.284169	99
Es	1.834955	0.109112	-0.001810	99
Es	-1.954095	-0.976917	-0.598343	99
Es	1.806410	-1.226185	-0.008026	99
Es	0.189623	-1.132810	-0.088371	99
Es	0.001864	1.958413	-0.246257	99
Es	-1.015755	-0.515237	-0.001309	99
Es	0.331020	1.441709	0.005857	99
Es	0.565865	2.227047	0.009353	99
Es	2.055847	-1.505218	-0.010228	99
Es	1.795871	-0.639603	0.275390	99
Es	0.540708	0.650292	0.002391	99
Es	0.004459	1.955205	0.265270	99
Es	0.441837	-1.476059	0.229546	99
Es	2.468218	0.461467	-0.001159	99
Es	0.458524	-1.566399	-0.008109	99
Es	-0.297665	-0.431065	-0.001541	99
Es	0.202558	0.130385	-0.316607	99
Es	1.015324	-1.394128	-0.029638	99
Es	0.207966	0.127311	0.319824	99
Es	0.140844	1.930604	0.008823	99
38
Properties=species:S:1:pos:R:3:Z:I:1 energy=-358.607847576585 field_type=dipole dipole="0.000000 0.000000 0.000000" charge=0
C	-1.757904	-0.613068	-0.000609	6
C	-0.297744	-0.430808	-0.001539	6
C	0.540746	0.650022	0.002391	6
O	0.140516	1.930732	0.008831	8
C	1.834936	0.109132	-0.001809	6
N	1.806886	-1.226638	-0.008029	7
O	0.458406	-1.566898	-0.007899	8
H	-2.277724	0.349672	0.011771	1
H	-2.072844	-1.179998	0.880711	1
H	-2.076374	-1.159248	-0.893689	1
H	0.908786	2.528252	0.010591	1
H	2.792316	0.608852	-0.000719	1
Es	2.468273	0.461437	-0.000814	99
Es	1.797235	-0.640626	0.273486	99
Es	0.005731	1.957424	-0.247859	99
Es	0.203668	0.127297	0.317444	99
Es	1.795061	-0.637066	-0.285915	99
Es	1.015627	-1.395040	0.015836	99
Es	-1.951840	-0.990830	0.589226	99
Es	0.140879	1.930572	0.008900	99
Es	0.206760	0.130269	-0.318899	99
Es	0.000552	1.956245	0.263439	99
Es	1.834955	0.109112	-0.001810	99
Es	0.540709	0.650299	0.002393	99
Es	2.055789	-1.505099	-0.009125	99
Es	0.331008	1.441693	0.007018	99
Es	0.188639	-1.134068	0.078730	99
Es	-2.094445	0.034888	0.007634	99
Es	0.458528	-1.566386	-0.007705	99
Es	-0.297665	-0.431066	-0.001540	99
Es	1.806460	-1.226201	-0.008027	99
Es	-1.954076	-0.976870	-0.598370	99
Es	1.214270	0.449253	0.002329	99
Es	0.565874	2.227067	0.011565	99
Es	-1.015843	-0.515239	-0.000696	99
Es	0.368301	-1.834014	0.110985	99
Es	0.445440	-1.463643	-0.233984	99
Es	-1.757819	-0.613052	-0.000608	99
38
Properties=species:S:1:pos:R:3:Z:I:1 energy=-358.607847576585 field_type=dipole dipole="0.000000 0.000000 0.000000" charge=0
C	-1.757904	-0.613068	-0.000609	6
C	-0.297744	-0.430808	-0.001539	6
C	0.540746	0.650022	0.002391	6
O	0.140516	1.930732	0.008831	8
C	1.834936	0.109132	-0.001809	6
N	1.806886	-1.226638	-0.008029	7
O	0.458406	-1.566898	-0.007899	8
H	-2.277724	0.349672	0.011771	1
H	-2.072844	-1.179998	0.880711	1
H	-2.076374	-1.159248	-0.893689	1
H	0.908786	2.528252	0.010591	1
H	2.792316	0.608852	-0.000719	1
Es	-1.757819	-0.613052	-0.000608	99
Es	0.002161	1.958269	-0.246170	99
Es	0.540708	0.650291	0.002395	99
Es	1.797071	-0.640528	0.273475	99
Es	-1.015934	-0.515142	-0.000704	99
Es	0.207617	0.129979	-0.318913	99
Es	-1.954061	-0.976809	-0.598439	99
Es	0.331098	1.441802	0.005794	99
Es	1.834953	0.109113	-0.001813	99
Es	0.565801	2.227085	0.009194	99
Es	-1.951798	-0.990917	0.589158	99
Es	0.448088	-1.464283	-0.230567	99
Es	1.214268	0.449132	0.002545	99
Es	0.186998	-1.132850	0.075676	99
Es	1.795177	-0.636699	-0.285825	99
Es	2.468282	0.461472	-0.000805	99
Es	0.202540	0.127307	0.317145	99
Es	-2.094487	0.034876	0.007750	99
Es	1.015608	-1.395353	0.016762	99
Es	1.806411	-1.226177	-0.008020	99
Es	0.004286	1.955259	0.265447	99
Es	-0.297666	-0.431058	-0.001535	99
Es	0.140737	1.930627	0.008830	99
Es	2.055848	-1.504907	-0.009164	99
Es	0.367663	-1.834724	0.109762	99
Es	0.458521	-1.566354	-0.007733	99
38
Properties=species:S:1:pos:R:3:Z:I:1 energy=-358.607847576585 field_type=dipole dipole="0.000000 0.000000 0.000000" charge=0
C	-1.757904	-0.613068	-0.000609	6
C	-0.297744	-0.430808	-0.001539	6
C	0.540746	0.650022	0.002391	6
O	0.140516	1.930732	0.008831	8
C	1.834936	0.109132	-0.001809	6
N	1.806886	-1.226638	-0.008029	7
O	0.458406	-1.566898	-0.007899	8
H	-2.277724	0.349672	0.011771	1
H	-2.072844	-1.179998	0.880711	1
H	-2.076374	-1.159248	-0.893689	1
H	0.908786	2.528252	0.010591	1
H	2.792316	0.608852	-0.000719	1
Es	-2.094627	0.034855	0.007697	99
Es	-0.003161	1.960457	-0.244244	99
Es	1.214238	0.449227	-0.001177	99
Es	1.015467	-1.394878	-0.032671	99
Es	2.468362	0.461409	-0.001201	99
Es	0.458524	-1.566274	-0.008107	99
Es	0.540709	0.650299	0.002388	99
Es	0.202566	0.130036	-0.316356	99
Es	0.331218	1.441694	0.003815	99
Es	1.795920	-0.639380	0.275255	99
Es	1.834955	0.109111	-0.001812	99
Es	0.565621	2.227547	0.008263	99
Es	-1.951672	-0.990882	0.589209	99
Es	0.450171	-1.468055	0.213838	99
Es	-0.297666	-0.431063	-0.001539	99
Es	1.796418	-0.637706	-0.283971	99
Es	0.009403	1.952801	0.266284	99
Es	0.185708	-1.131086	-0.083451	99
Es	-1.016027	-0.514938	-0.001255	99
Es	0.207684	0.127038	0.319545	99
Es	2.055741	-1.504904	-0.010189	99
Es	0.140915	1.930545	0.008951	99
Es	-1.757820	-0.613052	-0.000606	99
Es	0.366998	-1.833318	-0.128626	99
Es	-1.953995	-0.976944	-0.598380	99
Es	1.806420	-1.226182	-0.008026	99
38
Properties=species:S:1:pos:R:3:Z:I:1 energy=-358.607847576585 field_type=dipole dipole="0.000000 0.000000 0.000000" charge=0
C	-1.757904	-0.613068	-0.000609	6
C	-0.297744	-0.430808	-0.001539	6
C	0.540746	0.650022	0.002391	6
O	0.140516	1.930732	0.008831	8
C	1.834936	0.109132	-0.001809	6
N	1.806886	-1.226638	-0.008029	7
O	0.458406	-1.566898	-0.007899	8
H	-2.277724	0.349672	0.011771	1
H	-2.072844	-1.179998	0.880711	1
H	-2.076374	-1.159248	-0.893689	1
H	0.908786	2.528252	0.010591	1
H	2.792316	0.608852	-0.000719	1
Es	1.795055	-0.636801	-0.285906	99
Es	2.055828	-1.504744	-0.008719	99
Es	2.468367	0.461465	-0.000732	99
Es	1.214173	0.449193	0.002649	99
Es	0.367871	-1.832769	0.112553	99
Es	0.186805	-1.132365	0.073873	99
Es	0.458558	-1.566253	-0.007679	99
Es	1.797192	-0.640082	0.273043	99
Es	1.015493	-1.395432	0.017112	99
Es	-0.297665	-0.431064	-0.001540	99
Es	1.834951	0.109110	-0.001806	99
Es	0.330884	1.441550	0.005723	99
Es	0.140860	1.930595	0.008850	99
Es	0.207399	0.129875	-0.318759	99
Es	-1.954022	-0.976919	-0.598406	99
Es	0.540709	0.650294	0.002390	99
Es	-2.094486	0.034908	0.007633	99
Es	0.004647	1.954924	0.264826	99
Es	-1.016128	-0.514993	-0.000702	99
Es	-1.951741	-0.990856	0.589287	99
Es	1.806396	-1.226192	-0.008021	99
Es	0.203092	0.127096	0.316986	99
Es	-1.757819	-0.613051	-0.000609	99
Es	0.565848	2.227369	0.009636	99
Es	0.001734	1.958612	-0.245939	99
Es	0.448072	-1.467113	-0.232108	99
38
Properties=species:S:1:pos:R:3:Z:I:1 energy=-358.607847576585 field_type=dipole dipole="0.000000 0.000000 0.000000" charge=0
C	-1.757904	-0.613068	-0.000609	6
C	-0.297744	-0.430808	-0.001539	6
C	0.540746	0.650022	0.002391	6
O	0.140516	1.930732	0.008831	8
C	1.834936	0.109132	-0.001809	6
N	1.806886	-1.226638	-0.008029	7
O	0.458406	-1.566898	-0.007899	8
H	-2.277724	0.349672	0.011771	1
H	-2.072844	-1.179998	0.880711	1
H	-2.076374	-1.159248	-0.893689	1
H	0.908786	2.528252	0.010591	1
H	2.792316	0.608852	-0.000719	1
Es	0.458523	-1.566397	-0.007760	99
Es	-1.016221	-0.514960	-0.000724	99
Es	-1.757819	-0.613052	-0.000609	99
Es	0.140865	1.930592	0.008862	99
Es	0.005367	1.954790	0.265001	99
Es	0.330439	1.441265	0.005059	99
Es	-0.297666	-0.431061	-0.001542	99
Es	0.187118	-1.132754	0.075114	99
Es	0.566048	2.227227	0.009377	99
Es	0.207929	0.129819	-0.318715	99
Es	0.368179	-1.832755	0.112414	99
Es	0.540707	0.650290	0.002401	99
Es	-1.951765	-0.990802	0.589425	99
Es	1.794725	-0.636618	-0.285429	99
Es	1.214128	0.449109	0.002955	99
Es	1.806415	-1.226181	-0.008026	99
Es	1.797150	-0.640117	0.272780	99
Es	2.056087	-1.504746	-0.009146	99
Es	1.834955	0.109111	-0.001804	99
Es	1.015856	-1.395507	0.016249	99
Es	0.202774	0.127121	0.316727	99
Es	0.001210	1.959220	-0.245248	99
Es	-1.953998	-0.976971	-0.598340	99
Es	0.447063	-1.466656	-0.232068	99
Es	-2.094444	0.034919	0.007486	99
Es	2.468449	0.461472	-0.000804	99
38
Properties=species:S:1:pos:R:3:Z:I:1 energy=-358.607847576585 field_type=dipole dipole="0.000000 0.000000 0.000000" charge=0
C	-1.757904	-0.613068	-0.000609	6
C	-0.297744	-0.430808	-0.001539	6
C	0.540746	0.650022	0.002391	6
O	0.140516	1.930732	0.008831	8
C	1.834936	0.109132	-0.001809	6
N	1.806886	-1.226638	-0.008029	7
O	0.458406	-1.566898	-0.007899	8
H	-2.277724	0.349672	0.011771	1
H	-2.072844	-1.179998	0.880711	1
H	-2.076374	-1.159248	-0.893689	1
H	0.908786	2.528252	0.010591	1
H	2.792316	0.608852	-0.000719	1
Es	0.458525	-1.566413	-0.007746	99
Es	0.448234	-1.462588	-0.228517	99
Es	0.540708	0.650292	0.002385	99
Es	1.797102	-0.640098	0.272820	99
Es	-1.951726	-0.990811	0.589362	99
Es	-1.953982	-0.976994	-0.598417	99
Es	-2.094466	0.034937	0.007559	99
Es	0.207068	0.129850	-0.318330	99
Es	0.005079	1.956012	-0.246471	99
Es	1.834955	0.109111	-0.001806	99
Es	2.468469	0.461427	-0.000719	99
Es	0.001196	1.956729	0.263381	99
Es	1.015821	-1.395973	0.016931	99
Es	1.806406	-1.226191	-0.008021	99
Es	1.214149	0.449140	0.002337	99
Es	-0.297665	-0.431063	-0.001541	99
Es	0.140870	1.930604	0.008826	99
Es	-1.016320	-0.514882	-0.000772	99
Es	2.055795	-1.504551	-0.008549	99
Es	-1.757818	-0.613052	-0.000609	99
Es	0.331109	1.441608	0.007973	99
Es	0.203671	0.126954	0.316862	99
Es	1.795196	-0.636806	-0.285861	99
Es	0.565685	2.228161	0.009411	99
Es	0.366992	-1.835857	0.106735	99
Es	0.187019	-1.133189	0.076413	99
38
Properties=species:S:1:pos:R:3:Z:I:1 energy=-358.607847576585 field_type=dipole dipole="0.000000 0.000000 0.000000" charge=0
C	-1.757904	-0.613068	-0.000609	6
C	-0.297744	-0.430808	-0.001539	6
C	0.540746	0.650022	0.002391	6
O	0.140516	1.930732	0.008831	8
C	1.834936	0.109132	-0.001809	6
N	1.806886	-1.226638	-0.008029	7
O	0.458406	-1.566898	-0.007899	8
H	-2.277724	0.349672	0.011771	1
H	-2.072844	-1.179998	0.880711	1
H	-2.076374	-1.159248	-0.893689	1
H	0.908786	2.528252	0.010591	1
H	2.792316	0.608852	-0.000719	1
Es	0.446302	-1.460825	0.218048	99
Es	0.140783	1.930605	0.008850	99
Es	0.188952	-1.135204	-0.094090	99
Es	0.201798	0.129994	-0.315597	99
Es	0.540707	0.650288	0.002391	99
Es	1.795733	-0.639426	0.275203	99
Es	2.055833	-1.504476	-0.010666	99
Es	1.015578	-1.396090	-0.033445	99
Es	0.458518	-1.566364	-0.008040	99
Es	-0.297662	-0.431064	-0.001549	99
Es	1.796566	-0.637570	-0.283247	99
Es	0.003557	1.957865	-0.245870	99
Es	2.468509	0.461386	-0.001174	99
Es	1.806408	-1.226188	-0.008028	99
Es	1.214073	0.449214	-0.001696	99
Es	0.367093	-1.835522	-0.121829	99
Es	0.209107	0.126743	0.319461	99
Es	0.002966	1.955196	0.264114	99
Es	0.565641	2.227948	0.010127	99
Es	-1.953977	-0.976960	-0.598494	99
Es	0.330983	1.441508	0.005814	99
Es	-1.757820	-0.613052	-0.000611	99
Es	-1.951651	-0.990887	0.589356	99
Es	-1.016424	-0.514845	-0.001279	99
Es	1.834953	0.109103	-0.001801	99
Es	-2.094454	0.034979	0.007686	99
38
Properties=species:S:1:pos:R:3:Z:I:1 energy=-358.607847576585 field_type=dipole dipole="0.000000 0.000000 0.000000" charge=0
C	-1.757904	-0.613068	-0.000609	6
C	-0.297744	-0.430808	-0.001539	6
C	0.540746	0.650022	0.002391	6
O	0.140516	1.930732	0.008831	8
C	1.834936	0.109132	-0.001809	6
N	1.806886	-1.226638	-0.008029	7
O	0.458406	-1.566898	-0.007899	8
H	-2.277724	0.349672	0.011771	1
H	-2.072844	-1.179998	0.880711	1
H	-2.076374	-1.159248	-0.893689	1
H	0.908786	2.528252	0.010591	1
H	2.792316	0.608852	-0.000719	1
Es	1.834954	0.109110	-0.001807	99
Es	0.458521	-1.566331	-0.008120	99
Es	2.468541	0.461411	-0.001143	99
Es	-0.297665	-0.431063	-0.001540	99
Es	-1.016428	-0.514783	-0.001221	99
Es	0.367113	-1.834266	-0.123982	99
Es	0.002480	1.956187	0.263156	99
Es	0.447390	-1.463646	0.217332	99
Es	0.201991	0.129898	-0.315542	99
Es	2.055747	-1.504277	-0.009838	99
Es	1.806404	-1.226190	-0.008027	99
Es	0.140755	1.930644	0.008825	99
Es	-2.094462	0.034965	0.007581	99
Es	1.214140	0.449132	-0.001608	99
Es	0.540707	0.650292	0.002390	99
Es	0.565391	2.228938	0.008832	99
Es	1.015613	-1.396217	-0.033565	99
Es	0.187878	-1.133960	-0.090909	99
Es	0.208967	0.126683	0.319176	99
Es	1.796408	-0.637725	-0.283736	99
Es	0.003927	1.955853	-0.245755	99
Es	-1.953962	-0.977015	-0.598438	99
Es	1.795847	-0.638936	0.274769	99
Es	-1.951701	-0.990811	0.589378	99
Es	-1.757820	-0.613053	-0.000607	99
Es	0.331336	1.441517	0.008035	99
38
Properties=species:S:1:pos:R:3:Z:I:1 energy=-358.607847576585 field_type=dipole dipole="0.000000 0.000000 0.000000" charge=0
C	-1.757904	-0.613068	-0.000609	6
C	-0.297744	-0.430808	-0.001539	6
C	0.540746	0.650022	0.002391	6
O	0.140516	1.930732	0.008831	8
C	1.834936	0.109132	-0.001809	6
N	1.806886	-1.226638	-0.008029	7
O	0.458406	-1.566898	-0.007899	8
H	-2.277724	0.349672	0.011771	1
H	-2.072844	-1.179998	0.880711	1
H	-2.076374	-1.159248	-0.893689	1
H	0.908786	2.528252	0.010591	1
H	2.792316	0.608852	-0.000719	1
Es	0.330875	1.441350	0.007421	99
Es	-1.016511	-0.514734	-0.001255	99
Es	0.140828	1.930579	0.008837	99
Es	-1.757820	-0.613053	-0.000606	99
Es	0.188064	-1.135502	-0.094203	99
Es	0.004388	1.955868	0.263825	99
Es	1.796358	-0.637740	-0.283286	99
Es	-1.951646	-0.990876	0.589419	99
Es	-1.953978	-0.976972	-0.598416	99
Es	0.447667	-1.458484	0.214732	99
Es	1.015661	-1.396452	-0.034397	99
Es	0.458528	-1.566395	-0.008043	99
Es	-2.094463	0.034986	0.007609	99
Es	0.366522	-1.837613	-0.117491	99
Es	1.834955	0.109110	-0.001808	99
Es	0.540705	0.650287	0.002389	99
Es	0.002080	1.956986	-0.245344	99
Es	2.468569	0.461412	-0.001182	99
Es	1.214091	0.449120	-0.001271	99
Es	0.202679	0.129839	-0.315611	99
Es	1.806434	-1.226173	-0.008029	99
Es	2.055764	-1.504112	-0.010465	99
Es	0.565698	2.228374	0.008328	99
Es	0.208386	0.126705	0.318993	99
Es	1.795908	-0.639094	0.275024	99
Es	-0.297669	-0.431059	-0.001538	99
