40
Properties=species:S:1:pos:R:3:Z:I:1 energy=-322.76085573831665 field_type=dipole dipole="0.000000 0.000000 0.000000" charge=0
C	-0.811640	-2.334751	-0.531069	6
C	-0.886180	-0.997341	-0.552809	6
C	-0.126080	-0.087211	0.303131	6
C	1.270320	0.270429	-0.059499	6
N	0.195170	1.202339	-0.239709	7
C	0.108530	2.329889	0.561961	6
O	0.397979	2.417019	1.747681	8
H	-1.418330	-2.936971	-1.199919	1
H	-0.147940	-2.853451	0.153541	1
H	-1.577650	-0.538641	-1.258099	1
H	-0.401500	-0.088491	1.353701	1
H	1.696410	-0.077651	-0.990049	1
H	1.970280	0.508819	0.731231	1
H	-0.269370	3.186009	-0.020089	1
Es	0.173434	1.665100	0.144113	99
Es	-1.219080	-2.746408	-0.979386	99
Es	0.091093	1.253453	-0.578522	99
Es	-1.348778	-0.678099	-1.023855	99
Es	-0.886165	-0.997226	-0.552791	99
Es	0.057584	2.322924	1.387345	99
Es	-0.362511	-2.691130	-0.068933	99
Es	0.734065	0.937968	-0.169699	99
Es	-0.149030	2.912824	0.166047	99
Es	-0.506745	-0.534021	-0.127865	99
Es	0.108553	2.329766	0.561899	99
Es	-0.309112	-0.093025	1.001762	99
Es	0.195377	1.202182	-0.239060	99
Es	-0.070922	0.731212	0.034717	99
Es	-0.609113	-1.661676	-0.764338	99
Es	1.741241	0.427931	0.470979	99
Es	-0.811633	-2.334840	-0.531057	99
Es	0.637285	-0.121151	0.179626	99
Es	0.353706	2.698578	1.863090	99
Es	1.270075	0.270585	-0.059511	99
Es	-1.081964	-1.679629	-0.314293	99
Es	0.531775	2.448719	1.262601	99
Es	-0.125985	-0.086977	0.302989	99
Es	0.500127	2.141928	1.858359	99
Es	0.397919	2.416980	1.747415	99
Es	1.557524	0.030991	-0.684844	99
40
Properties=species:S:1:pos:R:3:Z:I:1 energy=-322.76085573831665 field_type=dipole dipole="0.000000 0.000000 0.000000" charge=0
C	-0.811640	-2.334751	-0.531069	6
C	-0.886180	-0.997341	-0.552809	6
C	-0.126080	-0.087211	0.303131	6
C	1.270320	0.270429	-0.059499	6
N	0.195170	1.202339	-0.239709	7
C	0.108530	2.329889	0.561961	6
O	0.397979	2.417019	1.747681	8
H	-1.418330	-2.936971	-1.199919	1
H	-0.147940	-2.853451	0.153541	1
H	-1.577650	-0.538641	-1.258099	1
H	-0.401500	-0.088491	1.353701	1
H	1.696410	-0.077651	-0.990049	1
H	1.970280	0.508819	0.731231	1
H	-0.269370	3.186009	-0.020089	1
Es	-0.609291	-1.661654	-0.764102	99
Es	-1.081957	-1.679644	-0.314401	99
Es	0.108549	2.329766	0.561902	99
Es	0.637493	-0.121225	0.179780	99
Es	1.270074	0.270584	-0.059511	99
Es	0.734259	0.938117	-0.169997	99
Es	-1.219075	-2.746414	-0.979441	99
Es	0.057402	2.323386	1.387432	99
Es	-0.811631	-2.334845	-0.531058	99
Es	0.173353	1.665233	0.143780	99
Es	-0.309145	-0.093007	1.001687	99
Es	0.091084	1.253298	-0.578035	99
Es	0.532412	2.448016	1.262379	99
Es	-0.125991	-0.086994	0.302990	99
Es	1.741260	0.428038	0.470865	99
Es	-0.886168	-0.997227	-0.552789	99
Es	-0.362435	-2.691112	-0.068931	99
Es	0.195383	1.202158	-0.239056	99
Es	0.499241	2.142189	1.859002	99
Es	0.397890	2.417011	1.747340	99
Es	-0.071230	0.731132	0.034778	99
Es	0.354176	2.698495	1.862635	99
Es	-0.506619	-0.534095	-0.127756	99
Es	1.557503	0.030969	-0.684791	99
Es	-0.149076	2.912872	0.166074	99
Es	-1.348741	-0.678090	-1.023985	99
40
Properties=species:S:1:pos:R:3:Z:I:1 energy=-322.76085573831665 field_type=dipole dipole="0.000000 0.000000 0.000000" charge=0
C	-0.811640	-2.334751	-0.531069	6
C	-0.886180	-0.997341	-0.552809	6
C	-0.126080	-0.087211	0.303131	6
C	1.270320	0.270429	-0.059499	6
N	0.195170	1.202339	-0.239709	7
C	0.108530	2.329889	0.561961	6
O	0.397979	2.417019	1.747681	8
H	-1.418330	-2.936971	-1.199919	1
H	-0.147940	-2.853451	0.153541	1
H	-1.577650	-0.538641	-1.258099	1
H	-0.401500	-0.088491	1.353701	1
H	1.696410	-0.077651	-0.990049	1
H	1.970280	0.508819	0.731231	1
H	-0.269370	3.186009	-0.020089	1
Es	-0.309128	-0.093048	1.001613	99
Es	-1.348778	-0.678283	-1.023984	99
Es	-0.125975	-0.086992	0.302988	99
Es	0.173282	1.665252	0.143592	99
Es	-0.811633	-2.334840	-0.531058	99
Es	-1.081920	-1.679648	-0.314338	99
Es	-0.148871	2.912953	0.166047	99
Es	-0.071566	0.731107	0.034796	99
Es	0.637764	-0.121544	0.179793	99
Es	1.741212	0.428037	0.470733	99
Es	0.499609	2.142284	1.857893	99
Es	-1.219090	-2.746398	-0.979420	99
Es	1.557526	0.031023	-0.684719	99
Es	0.531192	2.447229	1.261960	99
Es	0.734367	0.938302	-0.170298	99
Es	0.355664	2.699008	1.863217	99
Es	-0.609185	-1.661644	-0.764113	99
Es	0.091129	1.253261	-0.577525	99
Es	-0.506737	-0.533794	-0.127715	99
Es	0.195376	1.202167	-0.239072	99
Es	-0.886165	-0.997231	-0.552790	99
Es	0.108547	2.329765	0.561900	99
Es	-0.362458	-2.691133	-0.068948	99
Es	1.270073	0.270583	-0.059510	99
Es	0.397900	2.417000	1.747357	99
Es	0.056583	2.323541	1.388389	99
40
Properties=species:S:1:pos:R:3:Z:I:1 energy=-322.76085573831665 field_type=dipole dipole="0.000000 0.000000 0.000000" charge=0
C	-0.811640	-2.334751	-0.531069	6
C	-0.886180	-0.997341	-0.552809	6
C	-0.126080	-0.087211	0.303131	6
C	1.270320	0.270429	-0.059499	6
N	0.195170	1.202339	-0.239709	7
C	0.108530	2.329889	0.561961	6
O	0.397979	2.417019	1.747681	8
H	-1.418330	-2.936971	-1.199919	1
H	-0.147940	-2.853451	0.153541	1
H	-1.577650	-0.538641	-1.258099	1
H	-0.401500	-0.088491	1.353701	1
H	1.696410	-0.077651	-0.990049	1
H	1.970280	0.508819	0.731231	1
H	-0.269370	3.186009	-0.020089	1
Es	-0.148923	2.912932	0.166053	99
Es	0.091330	1.253373	-0.577403	99
Es	1.557533	0.031014	-0.684630	99
Es	-0.362435	-2.691124	-0.068915	99
Es	0.734521	0.938586	-0.170390	99
Es	-0.609336	-1.661654	-0.764034	99
Es	0.397876	2.417050	1.747322	99
Es	-1.219087	-2.746400	-0.979433	99
Es	0.499302	2.141969	1.856951	99
Es	-1.081853	-1.679638	-0.314458	99
Es	-0.125985	-0.086988	0.302987	99
Es	0.108547	2.329765	0.561900	99
Es	0.355882	2.698435	1.864287	99
Es	0.531232	2.447720	1.261473	99
Es	0.195370	1.202168	-0.239098	99
Es	-0.886167	-0.997227	-0.552790	99
Es	0.056650	2.323950	1.388760	99
Es	-1.348816	-0.678154	-1.024028	99
Es	0.637524	-0.121729	0.179955	99
Es	-0.811632	-2.334840	-0.531057	99
Es	0.173496	1.665199	0.143499	99
Es	1.270074	0.270584	-0.059510	99
Es	-0.309179	-0.093027	1.001513	99
Es	-0.071764	0.731000	0.034750	99
Es	-0.506601	-0.533949	-0.127601	99
Es	1.741159	0.427943	0.470687	99
40
Properties=species:S:1:pos:R:3:Z:I:1 energy=-322.76085573831665 field_type=dipole dipole="0.000000 0.000000 0.000000" charge=0
C	-0.811640	-2.334751	-0.531069	6
C	-0.886180	-0.997341	-0.552809	6
C	-0.126080	-0.087211	0.303131	6
C	1.270320	0.270429	-0.059499	6
N	0.195170	1.202339	-0.239709	7
C	0.108530	2.329889	0.561961	6
O	0.397979	2.417019	1.747681	8
H	-1.418330	-2.936971	-1.199919	1
H	-0.147940	-2.853451	0.153541	1
H	-1.577650	-0.538641	-1.258099	1
H	-0.401500	-0.088491	1.353701	1
H	1.696410	-0.077651	-0.990049	1
H	1.970280	0.508819	0.731231	1
H	-0.269370	3.186009	-0.020089	1
Es	1.557532	0.031048	-0.684535	99
Es	0.397895	2.416984	1.747342	99
Es	-0.125987	-0.086988	0.302987	99
Es	0.173252	1.665063	0.143325	99
Es	-0.072297	0.731087	0.034505	99
Es	0.195330	1.202160	-0.239163	99
Es	-1.348844	-0.678171	-1.023991	99
Es	-1.219103	-2.746386	-0.979410	99
Es	1.270068	0.270584	-0.059509	99
Es	0.532569	2.449438	1.262516	99
Es	1.741144	0.427963	0.470586	99
Es	0.735059	0.938631	-0.170772	99
Es	-0.609339	-1.661672	-0.764092	99
Es	-1.081802	-1.679623	-0.314481	99
Es	0.353353	2.697527	1.863615	99
Es	-0.886168	-0.997228	-0.552791	99
Es	0.108543	2.329763	0.561900	99
Es	0.499634	2.142072	1.858206	99
Es	0.637639	-0.121988	0.180028	99
Es	-0.149032	2.912945	0.166084	99
Es	-0.506611	-0.533886	-0.127490	99
Es	-0.811632	-2.334840	-0.531056	99
Es	-0.309189	-0.093022	1.001425	99
Es	-0.362441	-2.691139	-0.068923	99
Es	0.091493	1.253502	-0.576571	99
Es	0.057652	2.323131	1.387054	99
40
Properties=species:S:1:pos:R:3:Z:I:1 energy=-322.76085573831665 field_type=dipole dipole="0.000000 0.000000 0.000000" charge=0
C	-0.811640	-2.334751	-0.531069	6
C	-0.886180	-0.997341	-0.552809	6
C	-0.126080	-0.087211	0.303131	6
C	1.270320	0.270429	-0.059499	6
N	0.195170	1.202339	-0.239709	7
C	0.108530	2.329889	0.561961	6
O	0.397979	2.417019	1.747681	8
H	-1.418330	-2.936971	-1.199919	1
H	-0.147940	-2.853451	0.153541	1
H	-1.577650	-0.538641	-1.258099	1
H	-0.401500	-0.088491	1.353701	1
H	1.696410	-0.077651	-0.990049	1
H	1.970280	0.508819	0.731231	1
H	-0.269370	3.186009	-0.020089	1
Es	-0.072493	0.730903	0.034429	99
Es	0.397897	2.416978	1.747340	99
Es	1.270073	0.270586	-0.059511	99
Es	-0.149060	2.912996	0.166129	99
Es	-0.362437	-2.691197	-0.068939	99
Es	-1.219135	-2.746323	-0.979514	99
Es	0.352818	2.698645	1.861512	99
Es	-0.609435	-1.661667	-0.763903	99
Es	0.533195	2.447939	1.263011	99
Es	-0.886163	-0.997229	-0.552793	99
Es	-0.125978	-0.086998	0.302990	99
Es	0.499350	2.143340	1.860356	99
Es	-1.348990	-0.678169	-1.024025	99
Es	0.057891	2.322220	1.386492	99
Es	-0.506572	-0.533858	-0.127385	99
Es	0.637683	-0.122317	0.180188	99
Es	0.173165	1.665227	0.143013	99
Es	0.108543	2.329763	0.561898	99
Es	0.734904	0.938969	-0.170660	99
Es	-1.081592	-1.679602	-0.314549	99
Es	0.195370	1.202164	-0.239101	99
Es	1.741094	0.427969	0.470519	99
Es	-0.309244	-0.092997	1.001303	99
Es	1.557565	0.031071	-0.684475	99
Es	0.091901	1.253383	-0.576477	99
Es	-0.811633	-2.334839	-0.531055	99
40
Properties=species:S:1:pos:R:3:Z:I:1 energy=-322.76085573831665 field_type=dipole dipole="0.000000 0.000000 0.000000" charge=0
C	-0.811640	-2.334751	-0.531069	6
C	-0.886180	-0.997341	-0.552809	6
C	-0.126080	-0.087211	0.303131	6
C	1.270320	0.270429	-0.059499	6
N	0.195170	1.202339	-0.239709	7
C	0.108530	2.329889	0.561961	6
O	0.397979	2.417019	1.747681	8
H	-1.418330	-2.936971	-1.199919	1
H	-0.147940	-2.853451	0.153541	1
H	-1.577650	-0.538641	-1.258099	1
H	-0.401500	-0.088491	1.353701	1
H	1.696410	-0.077651	-0.990049	1
H	1.970280	0.508819	0.731231	1
H	-0.269370	3.186009	-0.020089	1
Es	-0.609501	-1.661658	-0.763899	99
Es	0.532366	2.448624	1.262195	99
Es	1.741039	0.427906	0.470412	99
Es	0.173371	1.665026	0.142821	99
Es	-0.148920	2.912990	0.166077	99
Es	-0.811633	-2.334840	-0.531056	99
Es	-1.348884	-0.678184	-1.024099	99
Es	-1.219110	-2.746398	-0.979442	99
Es	-0.886164	-0.997229	-0.552792	99
Es	-0.125980	-0.086985	0.302985	99
Es	1.557567	0.031104	-0.684420	99
Es	-0.506473	-0.533793	-0.127381	99
Es	0.195368	1.202163	-0.239098	99
Es	1.270080	0.270586	-0.059512	99
Es	-0.309254	-0.093058	1.001246	99
Es	0.108553	2.329770	0.561900	99
Es	0.353556	2.698066	1.862962	99
Es	0.057164	2.322326	1.387598	99
Es	-0.072749	0.731230	0.034775	99
Es	0.637818	-0.122430	0.180211	99
Es	0.735271	0.938946	-0.170879	99
Es	0.091497	1.253413	-0.576350	99
Es	-1.081719	-1.679629	-0.314547	99
Es	0.397905	2.416982	1.747353	99
Es	0.499960	2.143144	1.858623	99
Es	-0.362407	-2.691118	-0.068891	99
40
Properties=species:S:1:pos:R:3:Z:I:1 energy=-322.76085573831665 field_type=dipole dipole="0.000000 0.000000 0.000000" charge=0
C	-0.811640	-2.334751	-0.531069	6
C	-0.886180	-0.997341	-0.552809	6
C	-0.126080	-0.087211	0.303131	6
C	1.270320	0.270429	-0.059499	6
N	0.195170	1.202339	-0.239709	7
C	0.108530	2.329889	0.561961	6
O	0.397979	2.417019	1.747681	8
H	-1.418330	-2.936971	-1.199919	1
H	-0.147940	-2.853451	0.153541	1
H	-1.577650	-0.538641	-1.258099	1
H	-0.401500	-0.088491	1.353701	1
H	1.696410	-0.077651	-0.990049	1
H	1.970280	0.508819	0.731231	1
H	-0.269370	3.186009	-0.020089	1
Es	0.092156	1.253470	-0.575970	99
Es	-0.073302	0.731452	0.034294	99
Es	-0.811632	-2.334838	-0.531057	99
Es	1.557535	0.031140	-0.684343	99
Es	-0.609535	-1.661662	-0.763853	99
Es	1.741062	0.427910	0.470333	99
Es	0.532217	2.447664	1.261976	99
Es	-0.309287	-0.093041	1.001160	99
Es	0.500602	2.144350	1.860800	99
Es	-0.149004	2.913021	0.166111	99
Es	0.057304	2.321299	1.387948	99
Es	-0.125982	-0.086986	0.302986	99
Es	0.352986	2.698832	1.860611	99
Es	0.173286	1.665131	0.142645	99
Es	-0.506457	-0.533830	-0.127309	99
Es	0.735364	0.938737	-0.170720	99
Es	0.108547	2.329765	0.561899	99
Es	0.637770	-0.122680	0.180376	99
Es	-0.362420	-2.691110	-0.068868	99
Es	0.195375	1.202161	-0.239079	99
Es	-1.348902	-0.678172	-1.024131	99
Es	-0.886167	-0.997229	-0.552790	99
Es	1.270069	0.270588	-0.059510	99
Es	0.397910	2.417006	1.747369	99
Es	-1.219099	-2.746404	-0.979454	99
Es	-1.081676	-1.679618	-0.314635	99
40
Properties=species:S:1:pos:R:3:Z:I:1 energy=-322.76085573831665 field_type=dipole dipole="0.000000 0.000000 0.000000" charge=0
C	-0.811640	-2.334751	-0.531069	6
C	-0.886180	-0.997341	-0.552809	6
C	-0.126080	-0.087211	0.303131	6
C	1.270320	0.270429	-0.059499	6
N	0.195170	1.202339	-0.239709	7
C	0.108530	2.329889	0.561961	6
O	0.397979	2.417019	1.747681	8
H	-1.418330	-2.936971	-1.199919	1
H	-0.147940	-2.853451	0.153541	1
H	-1.577650	-0.538641	-1.258099	1
H	-0.401500	-0.088491	1.353701	1
H	1.696410	-0.077651	-0.990049	1
H	1.970280	0.508819	0.731231	1
H	-0.269370	3.186009	-0.020089	1
Es	0.735541	0.939068	-0.171083	99
Es	0.532804	2.448552	1.262499	99
Es	1.270075	0.270582	-0.059510	99
Es	-0.073453	0.731296	0.034468	99
Es	0.195373	1.202173	-0.239084	99
Es	0.057248	2.323570	1.387056	99
Es	-0.506461	-0.533806	-0.127177	99
Es	-0.125979	-0.086983	0.302986	99
Es	-0.609649	-1.661656	-0.763775	99
Es	1.741020	0.427916	0.470276	99
Es	0.354345	2.697638	1.863725	99
Es	-0.886169	-0.997229	-0.552788	99
Es	-0.362360	-2.691071	-0.068847	99
Es	0.108549	2.329765	0.561899	99
Es	0.091850	1.253612	-0.575735	99
Es	-1.081611	-1.679622	-0.314720	99
Es	-1.219138	-2.746433	-0.979428	99
Es	0.397892	2.417014	1.747320	99
Es	0.498808	2.142417	1.858056	99
Es	-1.348906	-0.678193	-1.024190	99
Es	-0.309152	-0.093081	1.001127	99
Es	-0.149064	2.913030	0.166127	99
Es	1.557564	0.031169	-0.684272	99
Es	-0.811632	-2.334837	-0.531058	99
Es	0.173306	1.664850	0.142620	99
Es	0.637919	-0.122785	0.180297	99
