45
Properties=species:S:1:pos:R:3:Z:I:1 energy=-288.10608638040776 field_type=dipole dipole="0.000000 0.000000 0.000000" charge=0
C	-1.329823	-0.000656	0.837092	6
C	-0.723273	-1.024636	-0.150248	6
C	0.773127	-1.269526	0.076092	6
C	1.575377	-0.000186	-0.227218	6
C	0.773977	1.268814	0.079642	6
C	-0.722653	1.025494	-0.147258	6
N	-0.959193	0.001774	-1.224988	7
H	-0.943743	-0.002146	1.859782	1
H	-2.426363	-0.000496	0.873562	1
H	-1.297963	-1.949396	-0.261308	1
H	0.941917	-1.582826	1.113112	1
H	1.128077	-2.085056	-0.564418	1
H	1.820597	0.001284	-1.298288	1
H	2.534457	-0.001166	0.302012	1
H	1.129427	2.086024	-0.558498	1
H	0.942747	1.579014	1.117532	1
H	-1.296763	1.950954	-0.256068	1
H	-1.919933	0.002734	-1.570528	1
Es	-0.722659	1.025366	-0.147344	99
Es	-1.039572	-0.579669	0.425965	99
Es	0.773100	-1.269490	0.076085	99
Es	1.575328	-0.000186	-0.227181	99
Es	0.879317	1.479475	0.794370	99
Es	-1.329807	-0.000656	0.837058	99
Es	-1.113771	-1.668060	-0.232069	99
Es	-0.723274	0.002092	-1.515743	99
Es	1.168896	-0.634284	-0.062501	99
Es	1.741798	0.000812	-0.954849	99
Es	0.024249	1.142586	-0.037093	99
Es	2.230534	-0.000878	0.143580	99
Es	0.773949	1.268778	0.079637	99
Es	1.169446	0.633753	-0.060712	99
Es	-1.112804	1.669311	-0.227457	99
Es	-1.062877	-0.001775	1.551510	99
Es	-0.872528	0.490047	-0.800753	99
Es	1.012660	-1.826914	-0.362818	99
Es	-0.959556	0.001775	-1.224540	99
Es	1.013869	1.827375	-0.357650	99
Es	0.878498	-1.482316	0.790256	99
Es	-2.080475	-0.000366	0.847033	99
Es	0.023528	-1.142462	-0.040246	99
Es	-0.872383	-0.487096	-0.802229	99
Es	-1.553493	0.001819	-1.391442	99
Es	-0.723280	-1.024507	-0.150333	99
Es	-1.039088	0.579143	0.427749	99
45
Properties=species:S:1:pos:R:3:Z:I:1 energy=-288.10608638040776 field_type=dipole dipole="0.000000 0.000000 0.000000" charge=0
C	-1.329823	-0.000656	0.837092	6
C	-0.723273	-1.024636	-0.150248	6
C	0.773127	-1.269526	0.076092	6
C	1.575377	-0.000186	-0.227218	6
C	0.773977	1.268814	0.079642	6
C	-0.722653	1.025494	-0.147258	6
N	-0.959193	0.001774	-1.224988	7
H	-0.943743	-0.002146	1.859782	1
H	-2.426363	-0.000496	0.873562	1
H	-1.297963	-1.949396	-0.261308	1
H	0.941917	-1.582826	1.113112	1
H	1.128077	-2.085056	-0.564418	1
H	1.820597	0.001284	-1.298288	1
H	2.534457	-0.001166	0.302012	1
H	1.129427	2.086024	-0.558498	1
H	0.942747	1.579014	1.117532	1
H	-1.296763	1.950954	-0.256068	1
H	-1.919933	0.002734	-1.570528	1
Es	0.879186	1.479484	0.794254	99
Es	1.169506	0.633811	-0.060582	99
Es	-1.553463	0.002404	-1.391389	99
Es	2.230521	-0.000874	0.143500	99
Es	1.741802	0.000785	-0.954779	99
Es	-0.723281	-1.024507	-0.150334	99
Es	-1.113678	-1.667960	-0.232103	99
Es	0.023463	-1.142535	-0.040294	99
Es	-0.723468	0.002136	-1.515774	99
Es	-0.959581	0.001770	-1.224495	99
Es	0.878459	-1.482333	0.790155	99
Es	-1.112725	1.669242	-0.227478	99
Es	0.024146	1.142646	-0.037193	99
Es	-0.722662	1.025365	-0.147342	99
Es	-1.039622	-0.579747	0.426085	99
Es	-2.080493	-0.000478	0.847182	99
Es	1.169039	-0.634318	-0.062442	99
Es	0.773101	-1.269493	0.076089	99
Es	0.773948	1.268778	0.079639	99
Es	-1.062851	-0.001697	1.551355	99
Es	1.575330	-0.000187	-0.227182	99
Es	1.013966	1.827380	-0.357534	99
Es	-1.329811	-0.000656	0.837065	99
Es	-0.872082	0.489804	-0.800699	99
Es	1.012703	-1.826896	-0.362734	99
Es	-0.872646	-0.487517	-0.802442	99
Es	-1.039204	0.579266	0.427759	99
45
Properties=species:S:1:pos:R:3:Z:I:1 energy=-288.10608638040776 field_type=dipole dipole="0.000000 0.000000 0.000000" charge=0
C	-1.329823	-0.000656	0.837092	6
C	-0.723273	-1.024636	-0.150248	6
C	0.773127	-1.269526	0.076092	6
C	1.575377	-0.000186	-0.227218	6
C	0.773977	1.268814	0.079642	6
C	-0.722653	1.025494	-0.147258	6
N	-0.959193	0.001774	-1.224988	7
H	-0.943743	-0.002146	1.859782	1
H	-2.426363	-0.000496	0.873562	1
H	-1.297963	-1.949396	-0.261308	1
H	0.941917	-1.582826	1.113112	1
H	1.128077	-2.085056	-0.564418	1
H	1.820597	0.001284	-1.298288	1
H	2.534457	-0.001166	0.302012	1
H	1.129427	2.086024	-0.558498	1
H	0.942747	1.579014	1.117532	1
H	-1.296763	1.950954	-0.256068	1
H	-1.919933	0.002734	-1.570528	1
Es	-1.113660	-1.667864	-0.232028	99
Es	-2.080461	-0.000517	0.847209	99
Es	2.230465	-0.000871	0.143482	99
Es	0.773099	-1.269490	0.076088	99
Es	1.169003	-0.634398	-0.062479	99
Es	0.773949	1.268778	0.079640	99
Es	0.024179	1.142737	-0.037103	99
Es	1.013841	1.827365	-0.357538	99
Es	1.741865	0.000852	-0.954752	99
Es	-0.872317	-0.487864	-0.802535	99
Es	-0.872311	0.489880	-0.800847	99
Es	-1.039537	-0.579790	0.426179	99
Es	-1.112663	1.669180	-0.227465	99
Es	-0.722660	1.025366	-0.147344	99
Es	-1.039221	0.579383	0.427817	99
Es	-0.959572	0.001775	-1.224553	99
Es	0.023345	-1.142654	-0.040286	99
Es	-0.723720	0.002456	-1.515358	99
Es	0.879252	1.479528	0.794252	99
Es	-1.062927	-0.001691	1.551294	99
Es	-1.329809	-0.000656	0.837063	99
Es	0.878485	-1.482313	0.790120	99
Es	1.169576	0.633729	-0.060671	99
Es	1.012708	-1.826905	-0.362703	99
Es	-0.723280	-1.024510	-0.150331	99
Es	1.575328	-0.000189	-0.227182	99
Es	-1.553351	0.002356	-1.391684	99
45
Properties=species:S:1:pos:R:3:Z:I:1 energy=-288.10608638040776 field_type=dipole dipole="0.000000 0.000000 0.000000" charge=0
C	-1.329823	-0.000656	0.837092	6
C	-0.723273	-1.024636	-0.150248	6
C	0.773127	-1.269526	0.076092	6
C	1.575377	-0.000186	-0.227218	6
C	0.773977	1.268814	0.079642	6
C	-0.722653	1.025494	-0.147258	6
N	-0.959193	0.001774	-1.224988	7
H	-0.943743	-0.002146	1.859782	1
H	-2.426363	-0.000496	0.873562	1
H	-1.297963	-1.949396	-0.261308	1
H	0.941917	-1.582826	1.113112	1
H	1.128077	-2.085056	-0.564418	1
H	1.820597	0.001284	-1.298288	1
H	2.534457	-0.001166	0.302012	1
H	1.129427	2.086024	-0.558498	1
H	0.942747	1.579014	1.117532	1
H	-1.296763	1.950954	-0.256068	1
H	-1.919933	0.002734	-1.570528	1
Es	-0.872457	-0.487798	-0.802397	99
Es	-1.112678	1.669150	-0.227417	99
Es	1.013821	1.827329	-0.357525	99
Es	1.012596	-1.826878	-0.362652	99
Es	0.773950	1.268780	0.079637	99
Es	0.879316	1.479548	0.794207	99
Es	1.575332	-0.000185	-0.227184	99
Es	-2.080412	-0.000465	0.847244	99
Es	-1.063004	-0.001709	1.551233	99
Es	-1.039541	-0.579960	0.426268	99
Es	-0.723984	0.002125	-1.515019	99
Es	0.773100	-1.269491	0.076088	99
Es	-0.959553	0.001783	-1.224549	99
Es	-0.723283	-1.024505	-0.150332	99
Es	1.169516	0.633754	-0.060628	99
Es	-1.113611	-1.667783	-0.232023	99
Es	1.169194	-0.634328	-0.062542	99
Es	-1.553255	0.002254	-1.391957	99
Es	1.741824	0.000852	-0.954719	99
Es	-1.329808	-0.000656	0.837063	99
Es	-0.872107	0.490296	-0.801095	99
Es	0.024119	1.142805	-0.037008	99
Es	0.878441	-1.482401	0.790090	99
Es	-1.039179	0.579417	0.427801	99
Es	0.023442	-1.142739	-0.040373	99
Es	-0.722659	1.025368	-0.147340	99
Es	2.230487	-0.000894	0.143412	99
45
Properties=species:S:1:pos:R:3:Z:I:1 energy=-288.10608638040776 field_type=dipole dipole="0.000000 0.000000 0.000000" charge=0
C	-1.329823	-0.000656	0.837092	6
C	-0.723273	-1.024636	-0.150248	6
C	0.773127	-1.269526	0.076092	6
C	1.575377	-0.000186	-0.227218	6
C	0.773977	1.268814	0.079642	6
C	-0.722653	1.025494	-0.147258	6
N	-0.959193	0.001774	-1.224988	7
H	-0.943743	-0.002146	1.859782	1
H	-2.426363	-0.000496	0.873562	1
H	-1.297963	-1.949396	-0.261308	1
H	0.941917	-1.582826	1.113112	1
H	1.128077	-2.085056	-0.564418	1
H	1.820597	0.001284	-1.298288	1
H	2.534457	-0.001166	0.302012	1
H	1.129427	2.086024	-0.558498	1
H	0.942747	1.579014	1.117532	1
H	-1.296763	1.950954	-0.256068	1
H	-1.919933	0.002734	-1.570528	1
Es	-1.113628	-1.667710	-0.232019	99
Es	-1.063024	-0.001775	1.551195	99
Es	0.024103	1.142856	-0.037063	99
Es	1.741890	0.000813	-0.954652	99
Es	-1.329808	-0.000656	0.837063	99
Es	-0.872859	-0.487595	-0.801988	99
Es	1.169603	0.633816	-0.060666	99
Es	1.013831	1.827334	-0.357462	99
Es	1.575330	-0.000186	-0.227182	99
Es	-0.871118	0.491314	-0.801873	99
Es	0.878379	-1.482327	0.790063	99
Es	2.230435	-0.000891	0.143370	99
Es	-1.553091	0.002336	-1.392454	99
Es	-1.039365	-0.579881	0.426149	99
Es	0.879247	1.479556	0.794188	99
Es	-0.722662	1.025365	-0.147341	99
Es	-0.723283	-1.024507	-0.150331	99
Es	-1.112529	1.669055	-0.227476	99
Es	1.169180	-0.634372	-0.062515	99
Es	-0.724687	0.000829	-1.514310	99
Es	0.773100	-1.269491	0.076088	99
Es	0.023405	-1.142839	-0.040356	99
Es	-2.080377	-0.000647	0.847281	99
Es	-1.039479	0.579670	0.428040	99
Es	1.012639	-1.826947	-0.362591	99
Es	-0.959578	0.001772	-1.224511	99
Es	0.773950	1.268779	0.079638	99
45
Properties=species:S:1:pos:R:3:Z:I:1 energy=-288.10608638040776 field_type=dipole dipole="0.000000 0.000000 0.000000" charge=0
C	-1.329823	-0.000656	0.837092	6
C	-0.723273	-1.024636	-0.150248	6
C	0.773127	-1.269526	0.076092	6
C	1.575377	-0.000186	-0.227218	6
C	0.773977	1.268814	0.079642	6
C	-0.722653	1.025494	-0.147258	6
N	-0.959193	0.001774	-1.224988	7
H	-0.943743	-0.002146	1.859782	1
H	-2.426363	-0.000496	0.873562	1
H	-1.297963	-1.949396	-0.261308	1
H	0.941917	-1.582826	1.113112	1
H	1.128077	-2.085056	-0.564418	1
H	1.820597	0.001284	-1.298288	1
H	2.534457	-0.001166	0.302012	1
H	1.129427	2.086024	-0.558498	1
H	0.942747	1.579014	1.117532	1
H	-1.296763	1.950954	-0.256068	1
H	-1.919933	0.002734	-1.570528	1
Es	-1.039630	-0.580021	0.426372	99
Es	1.169224	-0.634386	-0.062456	99
Es	-1.113508	-1.667655	-0.232002	99
Es	1.741894	0.000802	-0.954622	99
Es	-0.722661	1.025367	-0.147340	99
Es	0.023372	-1.142860	-0.040338	99
Es	0.773101	-1.269493	0.076090	99
Es	-1.329808	-0.000656	0.837063	99
Es	-1.063139	-0.001693	1.551141	99
Es	1.012615	-1.826878	-0.362590	99
Es	-1.039231	0.579714	0.427961	99
Es	-1.112504	1.669011	-0.227458	99
Es	1.169648	0.633794	-0.060687	99
Es	-0.959538	0.001775	-1.224544	99
Es	1.013806	1.827337	-0.357425	99
Es	0.773951	1.268777	0.079638	99
Es	-0.724623	0.002147	-1.514575	99
Es	0.024072	1.142937	-0.037059	99
Es	0.879263	1.479567	0.794117	99
Es	-0.723282	-1.024507	-0.150331	99
Es	2.230416	-0.000867	0.143317	99
Es	-0.872164	-0.488268	-0.802699	99
Es	-0.871935	0.490560	-0.801215	99
Es	0.878388	-1.482409	0.790031	99
Es	-1.553128	0.002277	-1.392203	99
Es	1.575331	-0.000186	-0.227184	99
Es	-2.080328	-0.000517	0.847280	99
45
Properties=species:S:1:pos:R:3:Z:I:1 energy=-288.10608638040776 field_type=dipole dipole="0.000000 0.000000 0.000000" charge=0
C	-1.329823	-0.000656	0.837092	6
C	-0.723273	-1.024636	-0.150248	6
C	0.773127	-1.269526	0.076092	6
C	1.575377	-0.000186	-0.227218	6
C	0.773977	1.268814	0.079642	6
C	-0.722653	1.025494	-0.147258	6
N	-0.959193	0.001774	-1.224988	7
H	-0.943743	-0.002146	1.859782	1
H	-2.426363	-0.000496	0.873562	1
H	-1.297963	-1.949396	-0.261308	1
H	0.941917	-1.582826	1.113112	1
H	1.128077	-2.085056	-0.564418	1
H	1.820597	0.001284	-1.298288	1
H	2.534457	-0.001166	0.302012	1
H	1.129427	2.086024	-0.558498	1
H	0.942747	1.579014	1.117532	1
H	-1.296763	1.950954	-0.256068	1
H	-1.919933	0.002734	-1.570528	1
Es	-2.080229	-0.000558	0.847328	99
Es	2.230385	-0.000874	0.143293	99
Es	-0.871874	0.490779	-0.801347	99
Es	-1.039318	0.579847	0.428021	99
Es	1.169652	0.633809	-0.060675	99
Es	-0.872192	-0.488280	-0.802710	99
Es	-0.724800	0.002081	-1.514164	99
Es	-0.959569	0.001774	-1.224527	99
Es	1.169300	-0.634412	-0.062480	99
Es	0.773950	1.268779	0.079637	99
Es	0.024044	1.143015	-0.037091	99
Es	-1.039611	-0.580235	0.426422	99
Es	1.012606	-1.826905	-0.362535	99
Es	1.741935	0.000800	-0.954579	99
Es	0.773100	-1.269491	0.076088	99
Es	-1.329806	-0.000656	0.837061	99
Es	0.879240	1.479593	0.794100	99
Es	1.013817	1.827312	-0.357395	99
Es	0.023332	-1.142872	-0.040342	99
Es	-1.113435	-1.667617	-0.232032	99
Es	-1.112431	1.668934	-0.227456	99
Es	0.878358	-1.482398	0.789985	99
Es	-0.722662	1.025364	-0.147342	99
Es	-0.723282	-1.024507	-0.150331	99
Es	1.575331	-0.000186	-0.227183	99
Es	-1.063197	-0.001686	1.551105	99
Es	-1.553038	0.002261	-1.392568	99
45
Properties=species:S:1:pos:R:3:Z:I:1 energy=-288.10608638040776 field_type=dipole dipole="0.000000 0.000000 0.000000" charge=0
C	-1.329823	-0.000656	0.837092	6
C	-0.723273	-1.024636	-0.150248	6
C	0.773127	-1.269526	0.076092	6
C	1.575377	-0.000186	-0.227218	6
C	0.773977	1.268814	0.079642	6
C	-0.722653	1.025494	-0.147258	6
N	-0.959193	0.001774	-1.224988	7
H	-0.943743	-0.002146	1.859782	1
H	-2.426363	-0.000496	0.873562	1
H	-1.297963	-1.949396	-0.261308	1
H	0.941917	-1.582826	1.113112	1
H	1.128077	-2.085056	-0.564418	1
H	1.820597	0.001284	-1.298288	1
H	2.534457	-0.001166	0.302012	1
H	1.129427	2.086024	-0.558498	1
H	0.942747	1.579014	1.117532	1
H	-1.296763	1.950954	-0.256068	1
H	-1.919933	0.002734	-1.570528	1
Es	-1.552979	0.002215	-1.392759	99
Es	0.878383	-1.482421	0.789922	99
Es	-0.722663	1.025365	-0.147341	99
Es	0.773950	1.268779	0.079638	99
Es	-1.063208	-0.001630	1.551044	99
Es	-0.725123	0.002087	-1.513846	99
Es	-1.329803	-0.000656	0.837059	99
Es	0.024037	1.143075	-0.037053	99
Es	-1.039598	-0.580357	0.426417	99
Es	1.169307	-0.634414	-0.062515	99
Es	1.013795	1.827322	-0.357348	99
Es	-1.112381	1.668884	-0.227454	99
Es	1.575330	-0.000186	-0.227183	99
Es	2.230376	-0.000909	0.143200	99
Es	-2.080238	-0.000483	0.847372	99
Es	1.169733	0.633818	-0.060620	99
Es	1.741932	0.000839	-0.954510	99
Es	-1.039366	0.579850	0.428080	99
Es	-0.723283	-1.024507	-0.150330	99
Es	0.023341	-1.142986	-0.040279	99
Es	-0.959532	0.001772	-1.224551	99
Es	-0.871813	0.490957	-0.801410	99
Es	-1.113415	-1.667546	-0.232036	99
Es	1.012585	-1.826892	-0.362516	99
Es	0.773100	-1.269491	0.076089	99
Es	-0.872081	-0.488421	-0.802806	99
Es	0.879219	1.479607	0.794022	99
45
Properties=species:S:1:pos:R:3:Z:I:1 energy=-288.10608638040776 field_type=dipole dipole="0.000000 0.000000 0.000000" charge=0
C	-1.329823	-0.000656	0.837092	6
C	-0.723273	-1.024636	-0.150248	6
C	0.773127	-1.269526	0.076092	6
C	1.575377	-0.000186	-0.227218	6
C	0.773977	1.268814	0.079642	6
C	-0.722653	1.025494	-0.147258	6
N	-0.959193	0.001774	-1.224988	7
H	-0.943743	-0.002146	1.859782	1
H	-2.426363	-0.000496	0.873562	1
H	-1.297963	-1.949396	-0.261308	1
H	0.941917	-1.582826	1.113112	1
H	1.128077	-2.085056	-0.564418	1
H	1.820597	0.001284	-1.298288	1
H	2.534457	-0.001166	0.302012	1
H	1.129427	2.086024	-0.558498	1
H	0.942747	1.579014	1.117532	1
H	-1.296763	1.950954	-0.256068	1
H	-1.919933	0.002734	-1.570528	1
Es	0.023981	1.143094	-0.037093	99
Es	1.169758	0.633848	-0.060682	99
Es	1.013796	1.827299	-0.357308	99
Es	-0.959567	0.001771	-1.224536	99
Es	-0.722663	1.025365	-0.147340	99
Es	-0.725192	0.001136	-1.514544	99
Es	1.012612	-1.826893	-0.362485	99
Es	-1.112296	1.668846	-0.227449	99
Es	0.773100	-1.269492	0.076088	99
Es	-1.039671	-0.580462	0.426495	99
Es	-1.552804	0.002370	-1.392089	99
Es	-0.872733	-0.488014	-0.802313	99
Es	-1.039366	0.579986	0.428107	99
Es	1.741973	0.000811	-0.954503	99
Es	0.023286	-1.143020	-0.040305	99
Es	0.773951	1.268779	0.079638	99
Es	-2.080148	-0.000504	0.847377	99
Es	-1.113327	-1.667489	-0.232036	99
Es	1.169337	-0.634413	-0.062434	99
Es	-0.871319	0.491355	-0.801992	99
Es	0.878354	-1.482428	0.789858	99
Es	-1.329807	-0.000656	0.837062	99
Es	2.230338	-0.000876	0.143195	99
Es	-1.063260	-0.001658	1.551056	99
Es	1.575328	-0.000187	-0.227182	99
Es	0.879226	1.479611	0.794030	99
Es	-0.723283	-1.024506	-0.150332	99
45
Properties=species:S:1:pos:R:3:Z:I:1 energy=-288.10608638040776 field_type=dipole dipole="0.000000 0.000000 0.000000" charge=0
C	-1.329823	-0.000656	0.837092	6
C	-0.723273	-1.024636	-0.150248	6
C	0.773127	-1.269526	0.076092	6
C	1.575377	-0.000186	-0.227218	6
C	0.773977	1.268814	0.079642	6
C	-0.722653	1.025494	-0.147258	6
N	-0.959193	0.001774	-1.224988	7
H	-0.943743	-0.002146	1.859782	1
H	-2.426363	-0.000496	0.873562	1
H	-1.297963	-1.949396	-0.261308	1
H	0.941917	-1.582826	1.113112	1
H	1.128077	-2.085056	-0.564418	1
H	1.820597	0.001284	-1.298288	1
H	2.534457	-0.001166	0.302012	1
H	1.129427	2.086024	-0.558498	1
H	0.942747	1.579014	1.117532	1
H	-1.296763	1.950954	-0.256068	1
H	-1.919933	0.002734	-1.570528	1
Es	-0.722663	1.025365	-0.147340	99
Es	-2.080094	-0.000500	0.847408	99
Es	1.169805	0.633854	-0.060678	99
Es	-1.329807	-0.000656	0.837063	99
Es	0.878343	-1.482459	0.789841	99
Es	0.023982	1.143191	-0.037095	99
Es	-1.063310	-0.001690	1.551014	99
Es	-0.725521	0.002066	-1.513465	99
Es	1.169389	-0.634424	-0.062466	99
Es	-1.039709	-0.580509	0.426530	99
Es	1.012583	-1.826868	-0.362438	99
Es	-1.552839	0.002266	-1.393017	99
Es	2.230326	-0.000886	0.143147	99
Es	-0.959562	0.001765	-1.224530	99
Es	1.013787	1.827309	-0.357253	99
Es	-0.871656	0.491190	-0.801584	99
Es	-1.039377	0.580074	0.428143	99
Es	-1.112286	1.668766	-0.227459	99
Es	-1.113306	-1.667430	-0.232035	99
Es	0.879202	1.479605	0.793990	99
Es	0.023265	-1.143100	-0.040325	99
Es	0.773101	-1.269491	0.076088	99
Es	0.773950	1.268779	0.079638	99
Es	1.575330	-0.000186	-0.227184	99
Es	1.741980	0.000822	-0.954454	99
Es	-0.872027	-0.488674	-0.802927	99
Es	-0.723283	-1.024507	-0.150329	99
45
Properties=species:S:1:pos:R:3:Z:I:1 energy=-288.10608638040776 field_type=dipole dipole="0.000000 0.000000 0.000000" charge=0
C	-1.329823	-0.000656	0.837092	6
C	-0.723273	-1.024636	-0.150248	6
C	0.773127	-1.269526	0.076092	6
C	1.575377	-0.000186	-0.227218	6
C	0.773977	1.268814	0.079642	6
C	-0.722653	1.025494	-0.147258	6
N	-0.959193	0.001774	-1.224988	7
H	-0.943743	-0.002146	1.859782	1
H	-2.426363	-0.000496	0.873562	1
H	-1.297963	-1.949396	-0.261308	1
H	0.941917	-1.582826	1.113112	1
H	1.128077	-2.085056	-0.564418	1
H	1.820597	0.001284	-1.298288	1
H	2.534457	-0.001166	0.302012	1
H	1.129427	2.086024	-0.558498	1
H	0.942747	1.579014	1.117532	1
H	-1.296763	1.950954	-0.256068	1
H	-1.919933	0.002734	-1.570528	1
Es	1.169379	-0.634423	-0.062401	99
Es	-1.113277	-1.667378	-0.232035	99
Es	1.169860	0.633881	-0.060709	99
Es	0.879202	1.479636	0.793942	99
Es	-0.723283	-1.024506	-0.150329	99
Es	-1.552829	0.002298	-1.393242	99
Es	0.023254	-1.143153	-0.040286	99
Es	-0.722665	1.025362	-0.147340	99
Es	-2.080033	-0.000516	0.847411	99
Es	-1.039398	0.580139	0.428144	99
Es	2.230283	-0.000880	0.143120	99
Es	-1.329806	-0.000656	0.837061	99
Es	0.773951	1.268780	0.079639	99
Es	-0.959559	0.001766	-1.224542	99
Es	-1.112255	1.668724	-0.227437	99
Es	-0.871975	-0.488769	-0.802965	99
Es	0.878347	-1.482515	0.789764	99
Es	1.012575	-1.826849	-0.362471	99
Es	1.013770	1.827292	-0.357234	99
Es	1.575330	-0.000186	-0.227184	99
Es	1.742037	0.000809	-0.954391	99
Es	0.773100	-1.269491	0.076088	99
Es	-1.039712	-0.580596	0.426586	99
Es	-0.725907	0.001902	-1.513065	99
Es	-0.871364	0.491443	-0.801779	99
Es	0.023955	1.143238	-0.037058	99
Es	-1.063375	-0.001683	1.550995	99
45
Properties=species:S:1:pos:R:3:Z:I:1 energy=-288.10608638040776 field_type=dipole dipole="0.000000 0.000000 0.000000" charge=0
C	-1.329823	-0.000656	0.837092	6
C	-0.723273	-1.024636	-0.150248	6
C	0.773127	-1.269526	0.076092	6
C	1.575377	-0.000186	-0.227218	6
C	0.773977	1.268814	0.079642	6
C	-0.722653	1.025494	-0.147258	6
N	-0.959193	0.001774	-1.224988	7
H	-0.943743	-0.002146	1.859782	1
H	-2.426363	-0.000496	0.873562	1
H	-1.297963	-1.949396	-0.261308	1
H	0.941917	-1.582826	1.113112	1
H	1.128077	-2.085056	-0.564418	1
H	1.820597	0.001284	-1.298288	1
H	2.534457	-0.001166	0.302012	1
H	1.129427	2.086024	-0.558498	1
H	0.942747	1.579014	1.117532	1
H	-1.296763	1.950954	-0.256068	1
H	-1.919933	0.002734	-1.570528	1
Es	-0.726014	0.002116	-1.513076	99
Es	0.023919	1.143318	-0.037098	99
Es	-0.871551	0.491407	-0.801676	99
Es	-2.080016	-0.000498	0.847494	99
Es	-0.871848	-0.488954	-0.803126	99
Es	0.773952	1.268784	0.079636	99
Es	-1.063370	-0.001692	1.550921	99
Es	-1.039374	0.580224	0.428216	99
Es	-1.112241	1.668642	-0.227444	99
Es	-0.722665	1.025363	-0.147338	99
Es	0.773101	-1.269491	0.076087	99
Es	1.012537	-1.826897	-0.362365	99
Es	-1.039775	-0.580675	0.426611	99
Es	-0.959540	0.001772	-1.224530	99
Es	-1.552732	0.002263	-1.393235	99
Es	1.169499	-0.634492	-0.062483	99
Es	1.742068	0.000813	-0.954334	99
Es	-0.723285	-1.024506	-0.150328	99
Es	0.023233	-1.143156	-0.040311	99
Es	1.013740	1.827287	-0.357186	99
Es	0.878298	-1.482473	0.789748	99
Es	0.879221	1.479634	0.793914	99
Es	-1.329804	-0.000656	0.837059	99
Es	-1.113210	-1.667320	-0.232041	99
Es	2.230269	-0.000869	0.143105	99
Es	1.169864	0.633914	-0.060751	99
Es	1.575330	-0.000185	-0.227184	99
45
Properties=species:S:1:pos:R:3:Z:I:1 energy=-288.10608638040776 field_type=dipole dipole="0.000000 0.000000 0.000000" charge=0
C	-1.329823	-0.000656	0.837092	6
C	-0.723273	-1.024636	-0.150248	6
C	0.773127	-1.269526	0.076092	6
C	1.575377	-0.000186	-0.227218	6
C	0.773977	1.268814	0.079642	6
C	-0.722653	1.025494	-0.147258	6
N	-0.959193	0.001774	-1.224988	7
H	-0.943743	-0.002146	1.859782	1
H	-2.426363	-0.000496	0.873562	1
H	-1.297963	-1.949396	-0.261308	1
H	0.941917	-1.582826	1.113112	1
H	1.128077	-2.085056	-0.564418	1
H	1.820597	0.001284	-1.298288	1
H	2.534457	-0.001166	0.302012	1
H	1.129427	2.086024	-0.558498	1
H	0.942747	1.579014	1.117532	1
H	-1.296763	1.950954	-0.256068	1
H	-1.919933	0.002734	-1.570528	1
Es	0.773951	1.268780	0.079638	99
Es	1.742067	0.000809	-0.954340	99
Es	0.023207	-1.143315	-0.040358	99
Es	1.575330	-0.000186	-0.227184	99
Es	-1.552518	0.002264	-1.393606	99
Es	0.023912	1.143361	-0.037107	99
Es	1.012573	-1.826862	-0.362290	99
Es	-1.329804	-0.000656	0.837060	99
Es	0.879185	1.479648	0.793873	99
Es	-0.723284	-1.024507	-0.150329	99
Es	-1.112125	1.668574	-0.227468	99
Es	-0.872249	0.491014	-0.801344	99
Es	-0.871839	-0.489207	-0.803308	99
Es	0.773101	-1.269492	0.076088	99
Es	-1.113185	-1.667267	-0.232032	99
Es	1.169898	0.633893	-0.060702	99
Es	-1.039433	0.580394	0.428318	99
Es	-2.079956	-0.000512	0.847474	99
Es	-0.959529	0.001745	-1.224524	99
Es	0.878287	-1.482468	0.789746	99
Es	-0.725615	0.002768	-1.512935	99
Es	1.169504	-0.634435	-0.062493	99
Es	2.230246	-0.000863	0.143060	99
Es	1.013761	1.827287	-0.357163	99
Es	-0.722667	1.025361	-0.147340	99
Es	-1.063466	-0.001712	1.550901	99
Es	-1.039750	-0.580743	0.426645	99
45
Properties=species:S:1:pos:R:3:Z:I:1 energy=-288.10608638040776 field_type=dipole dipole="0.000000 0.000000 0.000000" charge=0
C	-1.329823	-0.000656	0.837092	6
C	-0.723273	-1.024636	-0.150248	6
C	0.773127	-1.269526	0.076092	6
C	1.575377	-0.000186	-0.227218	6
C	0.773977	1.268814	0.079642	6
C	-0.722653	1.025494	-0.147258	6
N	-0.959193	0.001774	-1.224988	7
H	-0.943743	-0.002146	1.859782	1
H	-2.426363	-0.000496	0.873562	1
H	-1.297963	-1.949396	-0.261308	1
H	0.941917	-1.582826	1.113112	1
H	1.128077	-2.085056	-0.564418	1
H	1.820597	0.001284	-1.298288	1
H	2.534457	-0.001166	0.302012	1
H	1.129427	2.086024	-0.558498	1
H	0.942747	1.579014	1.117532	1
H	-1.296763	1.950954	-0.256068	1
H	-1.919933	0.002734	-1.570528	1
Es	1.742098	0.000797	-0.954329	99
Es	1.169534	-0.634437	-0.062462	99
Es	0.023193	-1.143313	-0.040294	99
Es	-1.112073	1.668536	-0.227461	99
Es	-0.722665	1.025364	-0.147338	99
Es	2.230210	-0.000887	0.143040	99
Es	0.878302	-1.482502	0.789698	99
Es	-0.723284	-1.024508	-0.150327	99
Es	-0.726560	0.002066	-1.512501	99
Es	0.023872	1.143418	-0.037132	99
Es	-1.063486	-0.001699	1.550883	99
Es	1.012560	-1.826845	-0.362305	99
Es	-1.039452	0.580404	0.428353	99
Es	0.879180	1.479669	0.793833	99
Es	-0.959393	0.001774	-1.224640	99
Es	-1.552589	0.002262	-1.393534	99
Es	-1.039775	-0.580836	0.426648	99
Es	-0.871798	-0.489168	-0.803242	99
Es	-2.079922	-0.000516	0.847490	99
Es	1.013748	1.827271	-0.357130	99
Es	0.773951	1.268779	0.079639	99
Es	-0.871462	0.491702	-0.801878	99
Es	1.575330	-0.000188	-0.227184	99
Es	-1.113149	-1.667221	-0.232001	99
Es	1.169934	0.633896	-0.060689	99
Es	-1.329804	-0.000656	0.837061	99
Es	0.773101	-1.269492	0.076088	99
45
Properties=species:S:1:pos:R:3:Z:I:1 energy=-288.10608638040776 field_type=dipole dipole="0.000000 0.000000 0.000000" charge=0
C	-1.329823	-0.000656	0.837092	6
C	-0.723273	-1.024636	-0.150248	6
C	0.773127	-1.269526	0.076092	6
C	1.575377	-0.000186	-0.227218	6
C	0.773977	1.268814	0.079642	6
C	-0.722653	1.025494	-0.147258	6
N	-0.959193	0.001774	-1.224988	7
H	-0.943743	-0.002146	1.859782	1
H	-2.426363	-0.000496	0.873562	1
H	-1.297963	-1.949396	-0.261308	1
H	0.941917	-1.582826	1.113112	1
H	1.128077	-2.085056	-0.564418	1
H	1.820597	0.001284	-1.298288	1
H	2.534457	-0.001166	0.302012	1
H	1.129427	2.086024	-0.558498	1
H	0.942747	1.579014	1.117532	1
H	-1.296763	1.950954	-0.256068	1
H	-1.919933	0.002734	-1.570528	1
Es	2.230179	-0.000873	0.142954	99
Es	-1.063536	-0.001690	1.550853	99
Es	-0.871571	0.491616	-0.801922	99
Es	0.023139	-1.143404	-0.040354	99
Es	-0.726312	0.002021	-1.512354	99
Es	0.023900	1.143532	-0.037073	99
Es	-1.112041	1.668477	-0.227456	99
Es	-1.552458	0.002350	-1.393801	99
Es	-0.871975	-0.489167	-0.803156	99
Es	1.013621	1.827257	-0.356976	99
Es	1.170149	0.633821	-0.060777	99
Es	-1.329805	-0.000656	0.837061	99
Es	1.012534	-1.826789	-0.362258	99
Es	-2.079862	-0.000497	0.847518	99
Es	0.773101	-1.269492	0.076089	99
Es	-0.959516	0.001782	-1.224626	99
Es	-0.723285	-1.024506	-0.150328	99
Es	0.879126	1.479731	0.793745	99
Es	1.575330	-0.000186	-0.227185	99
Es	0.878303	-1.482558	0.789671	99
Es	-1.039493	0.580512	0.428354	99
Es	0.773951	1.268780	0.079638	99
Es	1.742116	0.000812	-0.954256	99
Es	-1.113065	-1.667141	-0.232040	99
Es	-0.722665	1.025365	-0.147338	99
Es	-1.039820	-0.580929	0.426745	99
Es	1.169560	-0.634496	-0.062446	99
45
Properties=species:S:1:pos:R:3:Z:I:1 energy=-288.10608638040776 field_type=dipole dipole="0.000000 0.000000 0.000000" charge=0
C	-1.329823	-0.000656	0.837092	6
C	-0.723273	-1.024636	-0.150248	6
C	0.773127	-1.269526	0.076092	6
C	1.575377	-0.000186	-0.227218	6
C	0.773977	1.268814	0.079642	6
C	-0.722653	1.025494	-0.147258	6
N	-0.959193	0.001774	-1.224988	7
H	-0.943743	-0.002146	1.859782	1
H	-2.426363	-0.000496	0.873562	1
H	-1.297963	-1.949396	-0.261308	1
H	0.941917	-1.582826	1.113112	1
H	1.128077	-2.085056	-0.564418	1
H	1.820597	0.001284	-1.298288	1
H	2.534457	-0.001166	0.302012	1
H	1.129427	2.086024	-0.558498	1
H	0.942747	1.579014	1.117532	1
H	-1.296763	1.950954	-0.256068	1
H	-1.919933	0.002734	-1.570528	1
Es	1.013733	1.827269	-0.357062	99
Es	-0.723284	-1.024507	-0.150327	99
Es	0.878257	-1.482546	0.789628	99
Es	1.575330	-0.000185	-0.227185	99
Es	-1.552493	0.002215	-1.393334	99
Es	1.012550	-1.826821	-0.362238	99
Es	1.742142	0.000820	-0.954243	99
Es	-1.329802	-0.000656	0.837062	99
Es	0.773102	-1.269492	0.076090	99
Es	-0.727304	0.002104	-1.512414	99
Es	0.023141	-1.143453	-0.040364	99
Es	-2.079843	-0.000484	0.847461	99
Es	-1.113052	-1.667093	-0.232024	99
Es	-0.959540	0.001774	-1.224580	99
Es	-1.112024	1.668440	-0.227453	99
Es	1.169603	-0.634475	-0.062454	99
Es	0.879146	1.479687	0.793773	99
Es	0.773951	1.268779	0.079638	99
Es	2.230165	-0.000881	0.142967	99
Es	-1.039441	0.580557	0.428434	99
Es	-0.871108	0.492038	-0.802038	99
Es	1.170010	0.633906	-0.060690	99
Es	-0.871389	-0.489510	-0.803545	99
Es	-0.722665	1.025365	-0.147338	99
Es	-1.039773	-0.580989	0.426787	99
Es	-1.063663	-0.001712	1.550828	99
Es	0.023857	1.143524	-0.037096	99
45
Properties=species:S:1:pos:R:3:Z:I:1 energy=-288.10608638040776 field_type=dipole dipole="0.000000 0.000000 0.000000" charge=0
C	-1.329823	-0.000656	0.837092	6
C	-0.723273	-1.024636	-0.150248	6
C	0.773127	-1.269526	0.076092	6
C	1.575377	-0.000186	-0.227218	6
C	0.773977	1.268814	0.079642	6
C	-0.722653	1.025494	-0.147258	6
N	-0.959193	0.001774	-1.224988	7
H	-0.943743	-0.002146	1.859782	1
H	-2.426363	-0.000496	0.873562	1
H	-1.297963	-1.949396	-0.261308	1
H	0.941917	-1.582826	1.113112	1
H	1.128077	-2.085056	-0.564418	1
H	1.820597	0.001284	-1.298288	1
H	2.534457	-0.001166	0.302012	1
H	1.129427	2.086024	-0.558498	1
H	0.942747	1.579014	1.117532	1
H	-1.296763	1.950954	-0.256068	1
H	-1.919933	0.002734	-1.570528	1
Es	1.742168	0.000804	-0.954208	99
Es	-1.329803	-0.000656	0.837060	99
Es	-2.079840	-0.000499	0.847560	99
Es	0.773951	1.268779	0.079638	99
Es	-0.726794	0.002071	-1.511818	99
Es	-0.871746	-0.489438	-0.803382	99
Es	0.879147	1.479709	0.793738	99
Es	2.230155	-0.000879	0.142978	99
Es	1.170035	0.633901	-0.060726	99
Es	-1.112992	-1.667051	-0.232031	99
Es	0.878277	-1.482541	0.789596	99
Es	0.023120	-1.143492	-0.040332	99
Es	1.575330	-0.000186	-0.227185	99
Es	-1.552396	0.002262	-1.394208	99
Es	-1.039485	0.580636	0.428441	99
Es	-0.722665	1.025365	-0.147337	99
Es	-0.723285	-1.024507	-0.150327	99
Es	1.013722	1.827251	-0.357036	99
Es	-0.871415	0.491937	-0.802014	99
Es	-1.111972	1.668386	-0.227455	99
Es	1.169614	-0.634461	-0.062490	99
Es	1.012533	-1.826821	-0.362202	99
Es	0.773101	-1.269491	0.076089	99
Es	0.023835	1.143576	-0.037087	99
Es	-1.039817	-0.581070	0.426824	99
Es	-1.063621	-0.001690	1.550745	99
Es	-0.959553	0.001775	-1.224546	99
45
Properties=species:S:1:pos:R:3:Z:I:1 energy=-288.10608638040776 field_type=dipole dipole="0.000000 0.000000 0.000000" charge=0
C	-1.329823	-0.000656	0.837092	6
C	-0.723273	-1.024636	-0.150248	6
C	0.773127	-1.269526	0.076092	6
C	1.575377	-0.000186	-0.227218	6
C	0.773977	1.268814	0.079642	6
C	-0.722653	1.025494	-0.147258	6
N	-0.959193	0.001774	-1.224988	7
H	-0.943743	-0.002146	1.859782	1
H	-2.426363	-0.000496	0.873562	1
H	-1.297963	-1.949396	-0.261308	1
H	0.941917	-1.582826	1.113112	1
H	1.128077	-2.085056	-0.564418	1
H	1.820597	0.001284	-1.298288	1
H	2.534457	-0.001166	0.302012	1
H	1.129427	2.086024	-0.558498	1
H	0.942747	1.579014	1.117532	1
H	-1.296763	1.950954	-0.256068	1
H	-1.919933	0.002734	-1.570528	1
Es	0.023841	1.143584	-0.037122	99
Es	-0.723282	-1.024505	-0.150330	99
Es	1.013706	1.827221	-0.357014	99
Es	0.879143	1.479733	0.793753	99
Es	-1.039527	0.580646	0.428484	99
Es	-1.063652	-0.001670	1.550721	99
Es	-1.329801	-0.000656	0.837058	99
Es	0.023088	-1.143536	-0.040331	99
Es	-1.552313	0.002290	-1.394404	99
Es	1.575333	-0.000181	-0.227186	99
Es	2.230189	-0.000878	0.142974	99
Es	1.169632	-0.634445	-0.062499	99
Es	-0.871340	0.492064	-0.802083	99
Es	-1.111970	1.668396	-0.227488	99
Es	0.773955	1.268779	0.079639	99
Es	-0.726818	0.001927	-1.511650	99
Es	1.170050	0.633880	-0.060747	99
Es	-2.079819	-0.000483	0.847573	99
Es	-0.959554	0.001769	-1.224523	99
Es	0.878267	-1.482553	0.789580	99
Es	-0.722665	1.025366	-0.147337	99
Es	1.012523	-1.826815	-0.362182	99
Es	-1.112931	-1.666994	-0.232015	99
Es	-0.871872	-0.489440	-0.803331	99
Es	-1.039814	-0.581144	0.426850	99
Es	0.773098	-1.269490	0.076089	99
Es	1.742139	0.000808	-0.954193	99
45
Properties=species:S:1:pos:R:3:Z:I:1 energy=-288.10608638040776 field_type=dipole dipole="0.000000 0.000000 0.000000" charge=0
C	-1.329823	-0.000656	0.837092	6
C	-0.723273	-1.024636	-0.150248	6
C	0.773127	-1.269526	0.076092	6
C	1.575377	-0.000186	-0.227218	6
C	0.773977	1.268814	0.079642	6
C	-0.722653	1.025494	-0.147258	6
N	-0.959193	0.001774	-1.224988	7
H	-0.943743	-0.002146	1.859782	1
H	-2.426363	-0.000496	0.873562	1
H	-1.297963	-1.949396	-0.261308	1
H	0.941917	-1.582826	1.113112	1
H	1.128077	-2.085056	-0.564418	1
H	1.820597	0.001284	-1.298288	1
H	2.534457	-0.001166	0.302012	1
H	1.129427	2.086024	-0.558498	1
H	0.942747	1.579014	1.117532	1
H	-1.296763	1.950954	-0.256068	1
H	-1.919933	0.002734	-1.570528	1
Es	0.023069	-1.143563	-0.040332	99
Es	2.230051	-0.000872	0.142901	99
Es	0.878243	-1.482557	0.789540	99
Es	-1.063739	-0.001697	1.550686	99
Es	-1.112917	-1.667004	-0.232038	99
Es	1.013698	1.827243	-0.356979	99
Es	1.170103	0.633956	-0.060748	99
Es	-1.039853	-0.581271	0.426881	99
Es	0.879131	1.479723	0.793692	99
Es	-0.959552	0.001759	-1.224529	99
Es	0.773951	1.268779	0.079638	99
Es	0.773101	-1.269492	0.076089	99
Es	-1.552299	0.002256	-1.394453	99
Es	-1.329803	-0.000656	0.837062	99
Es	-0.723285	-1.024506	-0.150326	99
Es	-2.079678	-0.000513	0.847613	99
Es	-1.039574	0.580851	0.428515	99
Es	-0.871685	-0.489566	-0.803471	99
Es	1.575330	-0.000186	-0.227185	99
Es	0.023810	1.143650	-0.037096	99
Es	-1.111866	1.668294	-0.227474	99
Es	-0.871333	0.492128	-0.802131	99
Es	1.012511	-1.826820	-0.362136	99
Es	-0.727084	0.002068	-1.511472	99
Es	1.169670	-0.634505	-0.062500	99
Es	1.742270	0.000807	-0.954127	99
Es	-0.722665	1.025365	-0.147337	99
45
Properties=species:S:1:pos:R:3:Z:I:1 energy=-288.10608638040776 field_type=dipole dipole="0.000000 0.000000 0.000000" charge=0
C	-1.329823	-0.000656	0.837092	6
C	-0.723273	-1.024636	-0.150248	6
C	0.773127	-1.269526	0.076092	6
C	1.575377	-0.000186	-0.227218	6
C	0.773977	1.268814	0.079642	6
C	-0.722653	1.025494	-0.147258	6
N	-0.959193	0.001774	-1.224988	7
H	-0.943743	-0.002146	1.859782	1
H	-2.426363	-0.000496	0.873562	1
H	-1.297963	-1.949396	-0.261308	1
H	0.941917	-1.582826	1.113112	1
H	1.128077	-2.085056	-0.564418	1
H	1.820597	0.001284	-1.298288	1
H	2.534457	-0.001166	0.302012	1
H	1.129427	2.086024	-0.558498	1
H	0.942747	1.579014	1.117532	1
H	-1.296763	1.950954	-0.256068	1
H	-1.919933	0.002734	-1.570528	1
Es	-1.063790	-0.001696	1.550669	99
Es	-1.111854	1.668259	-0.227459	99
Es	-0.871617	0.492143	-0.802123	99
Es	0.023054	-1.143629	-0.040310	99
Es	1.169731	-0.634502	-0.062429	99
Es	-1.329800	-0.000656	0.837058	99
Es	2.230153	-0.000873	0.142785	99
Es	-0.871881	-0.489569	-0.803403	99
Es	-0.959551	0.001771	-1.224534	99
Es	1.012506	-1.826806	-0.362130	99
Es	0.878253	-1.482577	0.789499	99
Es	1.742119	0.000791	-0.954102	99
Es	-1.039841	-0.581293	0.426954	99
Es	0.773957	1.268780	0.079639	99
Es	-2.079739	-0.000492	0.847553	99
Es	1.170146	0.633957	-0.060677	99
Es	-0.722665	1.025365	-0.147336	99
Es	0.879133	1.479740	0.793633	99
Es	-0.726840	0.002061	-1.511160	99
Es	-1.552141	0.002215	-1.394908	99
Es	-0.723285	-1.024507	-0.150326	99
Es	-1.112872	-1.666900	-0.232019	99
Es	0.773101	-1.269491	0.076088	99
Es	0.023770	1.143697	-0.037101	99
Es	1.575331	-0.000184	-0.227186	99
Es	1.013702	1.827227	-0.356960	99
Es	-1.039475	0.580842	0.428568	99
45
Properties=species:S:1:pos:R:3:Z:I:1 energy=-288.10608638040776 field_type=dipole dipole="0.000000 0.000000 0.000000" charge=0
C	-1.329823	-0.000656	0.837092	6
C	-0.723273	-1.024636	-0.150248	6
C	0.773127	-1.269526	0.076092	6
C	1.575377	-0.000186	-0.227218	6
C	0.773977	1.268814	0.079642	6
C	-0.722653	1.025494	-0.147258	6
N	-0.959193	0.001774	-1.224988	7
H	-0.943743	-0.002146	1.859782	1
H	-2.426363	-0.000496	0.873562	1
H	-1.297963	-1.949396	-0.261308	1
H	0.941917	-1.582826	1.113112	1
H	1.128077	-2.085056	-0.564418	1
H	1.820597	0.001284	-1.298288	1
H	2.534457	-0.001166	0.302012	1
H	1.129427	2.086024	-0.558498	1
H	0.942747	1.579014	1.117532	1
H	-1.296763	1.950954	-0.256068	1
H	-1.919933	0.002734	-1.570528	1
Es	-1.552222	0.002314	-1.394794	99
Es	1.012491	-1.826786	-0.362106	99
Es	1.742218	0.000807	-0.954075	99
Es	0.878250	-1.482601	0.789477	99
Es	-0.871680	-0.489755	-0.803571	99
Es	2.230080	-0.000878	0.142813	99
Es	0.773952	1.268779	0.079639	99
Es	-1.112836	-1.666853	-0.232034	99
Es	0.773102	-1.269491	0.076089	99
Es	1.170161	0.633950	-0.060705	99
Es	-0.727337	0.002064	-1.510991	99
Es	0.879111	1.479748	0.793616	99
Es	0.023768	1.143770	-0.037097	99
Es	0.023055	-1.143673	-0.040332	99
Es	-0.722665	1.025365	-0.147336	99
Es	1.013697	1.827227	-0.356918	99
Es	-1.039899	-0.581382	0.426951	99
Es	-0.723285	-1.024506	-0.150325	99
Es	1.575331	-0.000186	-0.227186	99
Es	-1.329802	-0.000656	0.837059	99
Es	-0.959536	0.001774	-1.224580	99
Es	1.169747	-0.634521	-0.062474	99
Es	-1.063786	-0.001689	1.550644	99
Es	-1.111820	1.668193	-0.227470	99
Es	-0.871270	0.492220	-0.802217	99
Es	-1.039579	0.580941	0.428573	99
Es	-2.079641	-0.000502	0.847631	99
