39
Properties=species:S:1:pos:R:3:Z:I:1 energy=-338.7311309461088 field_type=dipole dipole="0.000000 0.000000 0.000000" charge=0
C	-1.371590	-1.138441	-0.146697	6
C	0.142600	-0.997681	-0.146277	6
C	0.579000	0.419838	-0.155727	6
N	0.766420	1.084439	-1.299757	7
O	1.165310	2.362009	-0.912307	8
N	1.220550	2.470768	0.476953	7
C	0.858010	1.269499	0.921043	6
H	-1.654950	-2.195632	-0.135987	1
H	-1.812530	-0.676971	-1.037277	1
H	-1.813930	-0.658611	0.733263	1
H	0.554590	-1.520391	-1.018627	1
H	0.550190	-1.499671	0.738663	1
H	0.816330	1.080849	1.982733	1
Es	0.420975	-1.323667	0.459927	99
Es	1.430514	2.378645	-0.987286	99
Es	0.826291	1.130290	1.625166	99
Es	0.742178	1.018378	-1.663240	99
Es	0.957203	0.731191	-0.755361	99
Es	1.165048	2.361666	-0.911968	99
Es	0.423420	0.891076	-0.750202	99
Es	0.858021	1.269551	0.921049	99
Es	1.306763	1.802809	0.652104	99
Es	-1.371533	-1.138436	-0.146685	99
Es	1.180349	2.367541	-0.309330	99
Es	-1.664739	-0.809184	0.456039	99
Es	-1.663228	-0.824963	-0.749410	99
Es	1.220373	2.470213	0.476659	99
Es	0.142594	-0.997586	-0.146259	99
Es	0.420993	-1.338568	-0.733966	99
Es	0.578996	0.419845	-0.155770	99
Es	1.324634	2.798537	0.616057	99
Es	0.703070	0.804212	0.422547	99
Es	-0.600887	-1.046298	-0.144863	99
Es	0.766474	1.084608	-1.299139	99
Es	0.993458	1.802612	-1.038396	99
Es	-1.555977	-1.857546	-0.137703	99
Es	0.779666	1.967723	0.661623	99
Es	0.365939	-0.268397	-0.144631	99
Es	0.938079	2.497968	-0.952122	99
39
Properties=species:S:1:pos:R:3:Z:I:1 energy=-338.7311309461088 field_type=dipole dipole="0.000000 0.000000 0.000000" charge=0
C	-1.371590	-1.138441	-0.146697	6
C	0.142600	-0.997681	-0.146277	6
C	0.579000	0.419838	-0.155727	6
N	0.766420	1.084439	-1.299757	7
O	1.165310	2.362009	-0.912307	8
N	1.220550	2.470768	0.476953	7
C	0.858010	1.269499	0.921043	6
H	-1.654950	-2.195632	-0.135987	1
H	-1.812530	-0.676971	-1.037277	1
H	-1.813930	-0.658611	0.733263	1
H	0.554590	-1.520391	-1.018627	1
H	0.550190	-1.499671	0.738663	1
H	0.816330	1.080849	1.982733	1
Es	0.421087	-1.338383	-0.733963	99
Es	0.742215	1.018208	-1.663262	99
Es	0.996334	1.801714	-1.038388	99
Es	0.365773	-0.268553	-0.144591	99
Es	0.956899	0.731265	-0.755308	99
Es	-1.663229	-0.825009	-0.749429	99
Es	1.220379	2.470208	0.476626	99
Es	1.306607	1.803038	0.652219	99
Es	0.703178	0.804215	0.422490	99
Es	1.165162	2.361664	-0.912004	99
Es	0.779695	1.967557	0.661495	99
Es	0.142594	-0.997585	-0.146257	99
Es	1.428617	2.392666	-0.998622	99
Es	-1.371530	-1.138436	-0.146685	99
Es	0.423604	0.891035	-0.749819	99
Es	0.858025	1.269551	0.921048	99
Es	0.933441	2.485586	-0.941100	99
Es	0.421113	-1.323665	0.459901	99
Es	0.766482	1.084631	-1.299140	99
Es	1.324659	2.798320	0.616161	99
Es	1.184094	2.367063	-0.309427	99
Es	0.826232	1.130337	1.625201	99
Es	0.578992	0.419851	-0.155774	99
Es	-1.556005	-1.857536	-0.137639	99
Es	-1.664721	-0.809119	0.456021	99
Es	-0.601021	-1.046406	-0.144919	99
39
Properties=species:S:1:pos:R:3:Z:I:1 energy=-338.7311309461088 field_type=dipole dipole="0.000000 0.000000 0.000000" charge=0
C	-1.371590	-1.138441	-0.146697	6
C	0.142600	-0.997681	-0.146277	6
C	0.579000	0.419838	-0.155727	6
N	0.766420	1.084439	-1.299757	7
O	1.165310	2.362009	-0.912307	8
N	1.220550	2.470768	0.476953	7
C	0.858010	1.269499	0.921043	6
H	-1.654950	-2.195632	-0.135987	1
H	-1.812530	-0.676971	-1.037277	1
H	-1.813930	-0.658611	0.733263	1
H	0.554590	-1.520391	-1.018627	1
H	0.550190	-1.499671	0.738663	1
H	0.816330	1.080849	1.982733	1
Es	1.220375	2.470216	0.476640	99
Es	1.427912	2.397152	-1.001951	99
Es	-0.601062	-1.046324	-0.144888	99
Es	1.165042	2.361663	-0.911966	99
Es	0.742432	1.017982	-1.663071	99
Es	0.365897	-0.268721	-0.144599	99
Es	0.826156	1.130378	1.625207	99
Es	0.956762	0.731449	-0.755128	99
Es	-1.663322	-0.825021	-0.749461	99
Es	1.306489	1.802707	0.651968	99
Es	0.142595	-0.997587	-0.146260	99
Es	0.579003	0.419849	-0.155775	99
Es	0.933239	2.481984	-0.937340	99
Es	0.703237	0.804208	0.422513	99
Es	0.423480	0.890990	-0.749887	99
Es	-1.664629	-0.809111	0.455991	99
Es	-1.556043	-1.857486	-0.137530	99
Es	0.858021	1.269556	0.921048	99
Es	-1.371529	-1.138435	-0.146685	99
Es	0.421135	-1.323629	0.459890	99
Es	0.779842	1.967433	0.661463	99
Es	1.184952	2.366864	-0.309474	99
Es	1.324687	2.798243	0.616348	99
Es	0.766474	1.084611	-1.299136	99
Es	0.996471	1.801676	-1.039065	99
Es	0.421059	-1.338428	-0.734013	99
39
Properties=species:S:1:pos:R:3:Z:I:1 energy=-338.7311309461088 field_type=dipole dipole="0.000000 0.000000 0.000000" charge=0
C	-1.371590	-1.138441	-0.146697	6
C	0.142600	-0.997681	-0.146277	6
C	0.579000	0.419838	-0.155727	6
N	0.766420	1.084439	-1.299757	7
O	1.165310	2.362009	-0.912307	8
N	1.220550	2.470768	0.476953	7
C	0.858010	1.269499	0.921043	6
H	-1.654950	-2.195632	-0.135987	1
H	-1.812530	-0.676971	-1.037277	1
H	-1.813930	-0.658611	0.733263	1
H	0.554590	-1.520391	-1.018627	1
H	0.550190	-1.499671	0.738663	1
H	0.816330	1.080849	1.982733	1
Es	0.826194	1.130417	1.625277	99
Es	0.780248	1.967468	0.661500	99
Es	-1.663321	-0.825040	-0.749454	99
Es	-0.601133	-1.046402	-0.144879	99
Es	0.365762	-0.268809	-0.144606	99
Es	1.177476	2.369248	-0.309213	99
Es	0.421201	-1.338424	-0.733933	99
Es	0.741943	1.018051	-1.663066	99
Es	0.990656	1.803566	-1.038797	99
Es	0.424112	0.890817	-0.749872	99
Es	-1.371531	-1.138436	-0.146685	99
Es	0.945406	2.512228	-0.965808	99
Es	1.220375	2.470217	0.476638	99
Es	0.956898	0.731440	-0.754761	99
Es	0.858028	1.269552	0.921047	99
Es	1.324479	2.798214	0.616463	99
Es	0.421145	-1.323505	0.459848	99
Es	0.578979	0.419854	-0.155773	99
Es	0.766475	1.084611	-1.299137	99
Es	0.702784	0.804394	0.422477	99
Es	-1.664684	-0.809144	0.455949	99
Es	1.428946	2.362828	-0.974140	99
Es	0.142595	-0.997588	-0.146260	99
Es	1.306409	1.802281	0.651741	99
Es	-1.556039	-1.857466	-0.137537	99
Es	1.165272	2.361846	-0.912179	99
39
Properties=species:S:1:pos:R:3:Z:I:1 energy=-338.7311309461088 field_type=dipole dipole="0.000000 0.000000 0.000000" charge=0
C	-1.371590	-1.138441	-0.146697	6
C	0.142600	-0.997681	-0.146277	6
C	0.579000	0.419838	-0.155727	6
N	0.766420	1.084439	-1.299757	7
O	1.165310	2.362009	-0.912307	8
N	1.220550	2.470768	0.476953	7
C	0.858010	1.269499	0.921043	6
H	-1.654950	-2.195632	-0.135987	1
H	-1.812530	-0.676971	-1.037277	1
H	-1.813930	-0.658611	0.733263	1
H	0.554590	-1.520391	-1.018627	1
H	0.550190	-1.499671	0.738663	1
H	0.816330	1.080849	1.982733	1
Es	-1.371532	-1.138435	-0.146685	99
Es	1.003750	1.800019	-1.039693	99
Es	0.365878	-0.268942	-0.144634	99
Es	0.779663	1.967032	0.661235	99
Es	1.192068	2.365417	-0.309999	99
Es	1.306054	1.803133	0.652067	99
Es	0.142595	-0.997589	-0.146260	99
Es	0.927207	2.455075	-0.914088	99
Es	0.421168	-1.323513	0.459850	99
Es	-0.601166	-1.046366	-0.144971	99
Es	0.703728	0.804146	0.422424	99
Es	0.766477	1.084615	-1.299137	99
Es	0.742330	1.017846	-1.662921	99
Es	1.165266	2.361663	-0.912027	99
Es	0.423722	0.891133	-0.749383	99
Es	0.858026	1.269553	0.921047	99
Es	1.220374	2.470214	0.476660	99
Es	0.421218	-1.338378	-0.733874	99
Es	1.324847	2.797930	0.616481	99
Es	1.419627	2.427702	-1.024353	99
Es	0.579003	0.419847	-0.155772	99
Es	0.956207	0.731404	-0.755432	99
Es	0.826255	1.130390	1.625299	99
Es	-1.664694	-0.809149	0.455954	99
Es	-1.556042	-1.857449	-0.137543	99
Es	-1.663355	-0.825076	-0.749405	99
39
Properties=species:S:1:pos:R:3:Z:I:1 energy=-338.7311309461088 field_type=dipole dipole="0.000000 0.000000 0.000000" charge=0
C	-1.371590	-1.138441	-0.146697	6
C	0.142600	-0.997681	-0.146277	6
C	0.579000	0.419838	-0.155727	6
N	0.766420	1.084439	-1.299757	7
O	1.165310	2.362009	-0.912307	8
N	1.220550	2.470768	0.476953	7
C	0.858010	1.269499	0.921043	6
H	-1.654950	-2.195632	-0.135987	1
H	-1.812530	-0.676971	-1.037277	1
H	-1.813930	-0.658611	0.733263	1
H	0.554590	-1.520391	-1.018627	1
H	0.550190	-1.499671	0.738663	1
H	0.816330	1.080849	1.982733	1
Es	1.172156	2.371398	-0.309224	99
Es	-1.664735	-0.809140	0.455900	99
Es	0.142595	-0.997589	-0.146260	99
Es	0.421224	-1.323495	0.459825	99
Es	0.365832	-0.269061	-0.144616	99
Es	1.165245	2.361738	-0.912082	99
Es	0.956568	0.731468	-0.754441	99
Es	0.954240	2.523568	-0.978432	99
Es	0.826209	1.130397	1.625334	99
Es	1.427486	2.349983	-0.961563	99
Es	0.988912	1.803953	-1.039426	99
Es	0.702957	0.804434	0.422375	99
Es	-1.371532	-1.138436	-0.146685	99
Es	0.421209	-1.338361	-0.733906	99
Es	0.780297	1.967096	0.661219	99
Es	-0.601176	-1.046303	-0.144906	99
Es	0.741911	1.017834	-1.662899	99
Es	0.579003	0.419847	-0.155773	99
Es	0.766482	1.084629	-1.299135	99
Es	-1.556059	-1.857428	-0.137516	99
Es	0.858025	1.269553	0.921046	99
Es	1.220380	2.470232	0.476642	99
Es	1.306035	1.802338	0.651659	99
Es	0.424318	0.890801	-0.749669	99
Es	-1.663357	-0.825126	-0.749392	99
Es	1.324447	2.797891	0.616762	99
39
Properties=species:S:1:pos:R:3:Z:I:1 energy=-338.7311309461088 field_type=dipole dipole="0.000000 0.000000 0.000000" charge=0
C	-1.371590	-1.138441	-0.146697	6
C	0.142600	-0.997681	-0.146277	6
C	0.579000	0.419838	-0.155727	6
N	0.766420	1.084439	-1.299757	7
O	1.165310	2.362009	-0.912307	8
N	1.220550	2.470768	0.476953	7
C	0.858010	1.269499	0.921043	6
H	-1.654950	-2.195632	-0.135987	1
H	-1.812530	-0.676971	-1.037277	1
H	-1.813930	-0.658611	0.733263	1
H	0.554590	-1.520391	-1.018627	1
H	0.550190	-1.499671	0.738663	1
H	0.816330	1.080849	1.982733	1
Es	0.928230	2.455555	-0.914970	99
Es	1.003496	1.800231	-1.039945	99
Es	-1.663410	-0.825091	-0.749351	99
Es	0.421222	-1.323475	0.459799	99
Es	1.419750	2.427347	-1.023971	99
Es	0.826240	1.130385	1.625335	99
Es	0.421242	-1.338351	-0.733854	99
Es	0.956016	0.731477	-0.755132	99
Es	0.742314	1.017708	-1.662718	99
Es	1.165147	2.361658	-0.911993	99
Es	1.324755	2.797726	0.616726	99
Es	-1.371531	-1.138436	-0.146685	99
Es	1.191510	2.365775	-0.309965	99
Es	0.779863	1.966845	0.661108	99
Es	0.703734	0.804228	0.422305	99
Es	-1.664685	-0.809176	0.455892	99
Es	0.766472	1.084601	-1.299146	99
Es	1.305796	1.803056	0.651939	99
Es	1.220373	2.470212	0.476651	99
Es	-0.601210	-1.046320	-0.144963	99
Es	0.424007	0.891046	-0.749094	99
Es	0.858019	1.269554	0.921047	99
Es	0.142596	-0.997590	-0.146260	99
Es	0.579004	0.419848	-0.155773	99
Es	0.365826	-0.269182	-0.144628	99
Es	-1.556101	-1.857412	-0.137516	99
39
Properties=species:S:1:pos:R:3:Z:I:1 energy=-338.7311309461088 field_type=dipole dipole="0.000000 0.000000 0.000000" charge=0
C	-1.371590	-1.138441	-0.146697	6
C	0.142600	-0.997681	-0.146277	6
C	0.579000	0.419838	-0.155727	6
N	0.766420	1.084439	-1.299757	7
O	1.165310	2.362009	-0.912307	8
N	1.220550	2.470768	0.476953	7
C	0.858010	1.269499	0.921043	6
H	-1.654950	-2.195632	-0.135987	1
H	-1.812530	-0.676971	-1.037277	1
H	-1.813930	-0.658611	0.733263	1
H	0.554590	-1.520391	-1.018627	1
H	0.550190	-1.499671	0.738663	1
H	0.816330	1.080849	1.982733	1
Es	0.766491	1.084657	-1.299213	99
Es	0.142595	-0.997597	-0.146273	99
Es	0.365859	-0.269271	-0.144666	99
Es	1.324465	2.797724	0.616769	99
Es	0.703353	0.804367	0.422317	99
Es	1.182535	2.368613	-0.309299	99
Es	0.826218	1.130432	1.625386	99
Es	-0.601206	-1.046280	-0.144989	99
Es	0.578992	0.419851	-0.155773	99
Es	-1.664746	-0.809235	0.455894	99
Es	0.955933	0.731484	-0.754631	99
Es	0.996408	1.801980	-1.039634	99
Es	0.858030	1.269550	0.921050	99
Es	0.424269	0.891047	-0.748992	99
Es	1.165262	2.362034	-0.912342	99
Es	-1.371525	-1.138435	-0.146685	99
Es	0.421299	-1.338354	-0.733803	99
Es	0.780339	1.966938	0.661209	99
Es	1.427525	2.389536	-0.995016	99
Es	0.936472	2.488986	-0.945058	99
Es	0.742223	1.017525	-1.662602	99
Es	1.305813	1.802348	0.651618	99
Es	-1.663402	-0.825083	-0.749296	99
Es	1.220374	2.470213	0.476637	99
Es	-1.556109	-1.857383	-0.137591	99
Es	0.421207	-1.323426	0.459822	99
39
Properties=species:S:1:pos:R:3:Z:I:1 energy=-338.7311309461088 field_type=dipole dipole="0.000000 0.000000 0.000000" charge=0
C	-1.371590	-1.138441	-0.146697	6
C	0.142600	-0.997681	-0.146277	6
C	0.579000	0.419838	-0.155727	6
N	0.766420	1.084439	-1.299757	7
O	1.165310	2.362009	-0.912307	8
N	1.220550	2.470768	0.476953	7
C	0.858010	1.269499	0.921043	6
H	-1.654950	-2.195632	-0.135987	1
H	-1.812530	-0.676971	-1.037277	1
H	-1.813930	-0.658611	0.733263	1
H	0.554590	-1.520391	-1.018627	1
H	0.550190	-1.499671	0.738663	1
H	0.816330	1.080849	1.982733	1
Es	0.826434	1.130363	1.625397	99
Es	-1.556056	-1.857380	-0.137535	99
Es	0.955301	0.731588	-0.755574	99
Es	1.165317	2.361589	-0.911971	99
Es	1.324966	2.797450	0.616821	99
Es	1.220373	2.470213	0.476640	99
Es	0.579004	0.419847	-0.155773	99
Es	1.200401	2.364085	-0.310991	99
Es	0.742316	1.017416	-1.662695	99
Es	1.010076	1.798768	-1.040969	99
Es	-1.371532	-1.138435	-0.146685	99
Es	0.928582	2.424710	-0.888808	99
Es	0.421301	-1.323428	0.459798	99
Es	0.424202	0.891135	-0.748906	99
Es	0.858027	1.269553	0.921047	99
Es	-0.601246	-1.046155	-0.144974	99
Es	0.766472	1.084600	-1.299132	99
Es	0.365908	-0.269437	-0.144674	99
Es	1.404086	2.461757	-1.047937	99
Es	0.142595	-0.997590	-0.146260	99
Es	0.779331	1.966433	0.660792	99
Es	0.704352	0.804156	0.422351	99
Es	-1.664822	-0.809260	0.455800	99
Es	-1.663464	-0.825189	-0.749270	99
Es	1.305426	1.803695	0.652142	99
Es	0.421326	-1.338261	-0.733796	99
39
Properties=species:S:1:pos:R:3:Z:I:1 energy=-338.7311309461088 field_type=dipole dipole="0.000000 0.000000 0.000000" charge=0
C	-1.371590	-1.138441	-0.146697	6
C	0.142600	-0.997681	-0.146277	6
C	0.579000	0.419838	-0.155727	6
N	0.766420	1.084439	-1.299757	7
O	1.165310	2.362009	-0.912307	8
N	1.220550	2.470768	0.476953	7
C	0.858010	1.269499	0.921043	6
H	-1.654950	-2.195632	-0.135987	1
H	-1.812530	-0.676971	-1.037277	1
H	-1.813930	-0.658611	0.733263	1
H	0.554590	-1.520391	-1.018627	1
H	0.550190	-1.499671	0.738663	1
H	0.816330	1.080849	1.982733	1
Es	0.142595	-0.997590	-0.146260	99
Es	0.701598	0.804966	0.422266	99
Es	0.826059	1.130496	1.625444	99
Es	-1.664804	-0.809256	0.455804	99
Es	0.741542	1.017598	-1.662457	99
Es	1.043832	2.590626	-1.055778	99
Es	1.165044	2.361670	-0.911972	99
Es	0.421356	-1.338260	-0.733805	99
Es	-1.556158	-1.857293	-0.137545	99
Es	0.781869	1.968226	0.661858	99
Es	0.964912	1.813839	-1.040911	99
Es	0.766480	1.084626	-1.299140	99
Es	0.365706	-0.269469	-0.144640	99
Es	-0.601225	-1.046252	-0.144970	99
Es	1.323801	2.797610	0.616953	99
Es	-1.371532	-1.138436	-0.146685	99
Es	0.858025	1.269554	0.921046	99
Es	0.956999	0.731738	-0.753689	99
Es	0.579002	0.419847	-0.155773	99
Es	-1.663454	-0.825166	-0.749262	99
Es	1.220374	2.470215	0.476642	99
Es	1.149739	2.380821	-0.310827	99
Es	1.384010	2.264255	-0.881318	99
Es	0.425341	0.890064	-0.750988	99
Es	0.421292	-1.323410	0.459770	99
Es	1.306272	1.801198	0.651076	99
39
Properties=species:S:1:pos:R:3:Z:I:1 energy=-338.7311309461088 field_type=dipole dipole="0.000000 0.000000 0.000000" charge=0
C	-1.371590	-1.138441	-0.146697	6
C	0.142600	-0.997681	-0.146277	6
C	0.579000	0.419838	-0.155727	6
N	0.766420	1.084439	-1.299757	7
O	1.165310	2.362009	-0.912307	8
N	1.220550	2.470768	0.476953	7
C	0.858010	1.269499	0.921043	6
H	-1.654950	-2.195632	-0.135987	1
H	-1.812530	-0.676971	-1.037277	1
H	-1.813930	-0.658611	0.733263	1
H	0.554590	-1.520391	-1.018627	1
H	0.550190	-1.499671	0.738663	1
H	0.816330	1.080849	1.982733	1
Es	0.766477	1.084612	-1.299140	99
Es	0.421280	-1.323476	0.459748	99
Es	1.220375	2.470217	0.476636	99
Es	1.324016	2.797571	0.617021	99
Es	1.390791	2.271666	-0.889675	99
Es	0.858030	1.269551	0.921047	99
Es	1.305985	1.801560	0.651133	99
Es	-1.371535	-1.138436	-0.146687	99
Es	0.781487	1.967852	0.661492	99
Es	0.826142	1.130486	1.625478	99
Es	0.142593	-0.997590	-0.146260	99
Es	0.956190	0.731826	-0.753507	99
Es	0.365818	-0.269523	-0.144639	99
Es	0.424904	0.890305	-0.750530	99
Es	-1.556110	-1.857315	-0.137576	99
Es	1.152599	2.379770	-0.310372	99
Es	0.742268	1.017322	-1.662397	99
Es	1.032192	2.585452	-1.048439	99
Es	0.967034	1.812872	-1.040778	99
Es	0.421336	-1.338222	-0.733797	99
Es	-0.601248	-1.046192	-0.144983	99
Es	0.702133	0.804840	0.422303	99
Es	1.165204	2.361676	-0.912033	99
Es	-1.664857	-0.809261	0.455815	99
Es	-1.663428	-0.825189	-0.749252	99
Es	0.579002	0.419845	-0.155770	99
39
Properties=species:S:1:pos:R:3:Z:I:1 energy=-338.7311309461088 field_type=dipole dipole="0.000000 0.000000 0.000000" charge=0
C	-1.371590	-1.138441	-0.146697	6
C	0.142600	-0.997681	-0.146277	6
C	0.579000	0.419838	-0.155727	6
N	0.766420	1.084439	-1.299757	7
O	1.165310	2.362009	-0.912307	8
N	1.220550	2.470768	0.476953	7
C	0.858010	1.269499	0.921043	6
H	-1.654950	-2.195632	-0.135987	1
H	-1.812530	-0.676971	-1.037277	1
H	-1.813930	-0.658611	0.733263	1
H	0.554590	-1.520391	-1.018627	1
H	0.550190	-1.499671	0.738663	1
H	0.816330	1.080849	1.982733	1
Es	0.142595	-0.997591	-0.146260	99
Es	-0.601290	-1.046200	-0.144951	99
Es	1.305234	1.803737	0.652102	99
Es	0.858026	1.269555	0.921046	99
Es	1.220376	2.470216	0.476643	99
Es	0.421391	-1.338242	-0.733775	99
Es	0.955431	0.731743	-0.755438	99
Es	-1.663460	-0.825198	-0.749280	99
Es	1.205272	2.364240	-0.311328	99
Es	-1.371534	-1.138437	-0.146686	99
Es	0.365704	-0.269663	-0.144680	99
Es	-1.556180	-1.857309	-0.137461	99
Es	0.937410	2.395749	-0.868551	99
Es	0.421344	-1.323355	0.459793	99
Es	0.779768	1.966583	0.660813	99
Es	0.766478	1.084618	-1.299140	99
Es	-1.664801	-0.809232	0.455707	99
Es	1.015820	1.797819	-1.042504	99
Es	0.424444	0.890855	-0.748980	99
Es	1.384773	2.491851	-1.066840	99
Es	1.165294	2.361633	-0.911996	99
Es	0.579003	0.419847	-0.155774	99
Es	0.826290	1.130393	1.625482	99
Es	1.324681	2.797169	0.617023	99
Es	0.704623	0.804153	0.422169	99
Es	0.741982	1.017286	-1.662293	99
