46
Properties=species:S:1:pos:R:3:Z:I:1 energy=-325.1165030988107 field_type=dipole dipole="0.000000 0.000000 0.000000" charge=0
C	-0.715888	-1.760073	-1.206511	6
C	-0.416688	-1.236623	0.190299	6
C	0.371142	0.071417	0.142239	6
O	1.658052	-0.162223	-0.490331	8
C	-0.409088	1.323437	-0.345421	6
N	0.166472	2.095827	0.777689	7
C	0.429702	0.829947	1.498129	6
H	-1.293358	-2.687983	-1.146811	1
H	0.205312	-1.970693	-1.758901	1
H	-1.296208	-1.034843	-1.785431	1
H	0.150202	-1.992393	0.747169	1
H	-1.365048	-1.095853	0.723249	1
H	2.102092	0.701777	-0.474791	1
H	-1.501788	1.239487	-0.299831	1
H	-0.132358	1.697257	-1.336231	1
H	1.010312	2.612867	0.532589	1
H	1.393362	0.800217	2.016189	1
H	-0.356228	0.568447	2.216709	1
Es	0.371347	0.071412	0.142148	99
Es	1.179017	-0.047125	-0.249476	99
Es	0.166812	2.095439	0.777427	99
Es	-0.052576	2.326503	0.937781	99
Es	1.598734	-0.228272	-0.783786	99
Es	-0.114697	0.648539	1.976451	99
Es	1.811748	-0.344005	-0.299123	99
Es	-0.083826	1.808232	0.256113	99
Es	-0.047495	0.655773	-0.189718	99
Es	-0.564680	-1.495039	-0.511358	99
Es	1.657947	-0.161987	-0.490211	99
Es	-0.416687	-1.236610	0.190265	99
Es	0.695546	2.365934	0.609177	99
Es	0.429679	0.830077	1.498051	99
Es	-0.216426	1.580914	-1.024082	99
Es	-1.114525	-1.258393	-1.597126	99
Es	-0.026658	-1.748212	0.572789	99
Es	-0.093628	-1.903469	-1.578737	99
Es	1.092598	0.811463	1.851448	99
Es	0.435128	0.378266	0.872116	99
Es	-1.064605	-1.126108	0.555949	99
Es	-0.715899	-1.760058	-1.206479	99
Es	-0.019717	-0.590283	0.157614	99
Es	-1.151598	1.256694	-0.303440	99
Es	-0.409022	1.323505	-0.345310	99
Es	1.885918	0.311949	-0.475888	99
Es	-1.113363	-2.392684	-1.162945	99
Es	0.313235	1.576375	1.130372	99
46
Properties=species:S:1:pos:R:3:Z:I:1 energy=-325.1165030988107 field_type=dipole dipole="0.000000 0.000000 0.000000" charge=0
C	-0.715888	-1.760073	-1.206511	6
C	-0.416688	-1.236623	0.190299	6
C	0.371142	0.071417	0.142239	6
O	1.658052	-0.162223	-0.490331	8
C	-0.409088	1.323437	-0.345421	6
N	0.166472	2.095827	0.777689	7
C	0.429702	0.829947	1.498129	6
H	-1.293358	-2.687983	-1.146811	1
H	0.205312	-1.970693	-1.758901	1
H	-1.296208	-1.034843	-1.785431	1
H	0.150202	-1.992393	0.747169	1
H	-1.365048	-1.095853	0.723249	1
H	2.102092	0.701777	-0.474791	1
H	-1.501788	1.239487	-0.299831	1
H	-0.132358	1.697257	-1.336231	1
H	1.010312	2.612867	0.532589	1
H	1.393362	0.800217	2.016189	1
H	-0.356228	0.568447	2.216709	1
Es	1.657947	-0.161925	-0.490210	99
Es	-0.019708	-0.590258	0.157648	99
Es	0.313267	1.576277	1.130342	99
Es	1.887382	0.311483	-0.473804	99
Es	-0.026683	-1.748167	0.572751	99
Es	1.092481	0.811466	1.851442	99
Es	0.429679	0.830078	1.498054	99
Es	0.435085	0.378097	0.872070	99
Es	-1.151572	1.256675	-0.303374	99
Es	0.166853	2.095444	0.777413	99
Es	-0.114600	0.648583	1.976483	99
Es	-0.564746	-1.495015	-0.511361	99
Es	-0.216542	1.580925	-1.024071	99
Es	-0.093708	-1.903459	-1.578663	99
Es	-1.064526	-1.126108	0.556028	99
Es	-0.047537	0.655776	-0.189803	99
Es	0.371344	0.071412	0.142149	99
Es	-0.409020	1.323505	-0.345309	99
Es	1.178566	-0.046647	-0.250836	99
Es	-0.083479	1.808381	0.255945	99
Es	-1.114480	-1.258418	-1.597216	99
Es	-0.416688	-1.236610	0.190265	99
Es	-1.113334	-2.392715	-1.163009	99
Es	-0.715899	-1.760058	-1.206479	99
Es	0.695415	2.366300	0.609519	99
Es	1.810967	-0.347432	-0.300420	99
Es	-0.052732	2.326161	0.937705	99
Es	1.598574	-0.224920	-0.783233	99
46
Properties=species:S:1:pos:R:3:Z:I:1 energy=-325.1165030988107 field_type=dipole dipole="0.000000 0.000000 0.000000" charge=0
C	-0.715888	-1.760073	-1.206511	6
C	-0.416688	-1.236623	0.190299	6
C	0.371142	0.071417	0.142239	6
O	1.658052	-0.162223	-0.490331	8
C	-0.409088	1.323437	-0.345421	6
N	0.166472	2.095827	0.777689	7
C	0.429702	0.829947	1.498129	6
H	-1.293358	-2.687983	-1.146811	1
H	0.205312	-1.970693	-1.758901	1
H	-1.296208	-1.034843	-1.785431	1
H	0.150202	-1.992393	0.747169	1
H	-1.365048	-1.095853	0.723249	1
H	2.102092	0.701777	-0.474791	1
H	-1.501788	1.239487	-0.299831	1
H	-0.132358	1.697257	-1.336231	1
H	1.010312	2.612867	0.532589	1
H	1.393362	0.800217	2.016189	1
H	-0.356228	0.568447	2.216709	1
Es	-0.216669	1.580872	-1.024070	99
Es	1.886963	0.311612	-0.474873	99
Es	-0.715899	-1.760060	-1.206480	99
Es	-1.114425	-1.258416	-1.597198	99
Es	-0.416688	-1.236611	0.190267	99
Es	-0.093771	-1.903490	-1.578697	99
Es	-1.151493	1.256624	-0.303359	99
Es	-1.064550	-1.126028	0.556008	99
Es	1.178962	-0.046976	-0.249439	99
Es	-0.409023	1.323505	-0.345309	99
Es	0.166883	2.095403	0.777388	99
Es	1.657945	-0.161946	-0.490248	99
Es	0.371344	0.071413	0.142150	99
Es	0.435151	0.378108	0.872143	99
Es	0.313223	1.576394	1.130545	99
Es	1.812080	-0.347570	-0.301275	99
Es	0.695381	2.366209	0.609311	99
Es	-0.026768	-1.748093	0.572810	99
Es	-0.047436	0.655691	-0.189755	99
Es	-0.084116	1.808615	0.255979	99
Es	-0.564625	-1.495091	-0.511378	99
Es	0.429680	0.830078	1.498055	99
Es	-0.114559	0.648537	1.976337	99
Es	-0.052111	2.326148	0.937692	99
Es	-1.113388	-2.392691	-1.163035	99
Es	1.092437	0.811461	1.851573	99
Es	1.597469	-0.224554	-0.782726	99
Es	-0.019688	-0.590314	0.157606	99
46
Properties=species:S:1:pos:R:3:Z:I:1 energy=-325.1165030988107 field_type=dipole dipole="0.000000 0.000000 0.000000" charge=0
C	-0.715888	-1.760073	-1.206511	6
C	-0.416688	-1.236623	0.190299	6
C	0.371142	0.071417	0.142239	6
O	1.658052	-0.162223	-0.490331	8
C	-0.409088	1.323437	-0.345421	6
N	0.166472	2.095827	0.777689	7
C	0.429702	0.829947	1.498129	6
H	-1.293358	-2.687983	-1.146811	1
H	0.205312	-1.970693	-1.758901	1
H	-1.296208	-1.034843	-1.785431	1
H	0.150202	-1.992393	0.747169	1
H	-1.365048	-1.095853	0.723249	1
H	2.102092	0.701777	-0.474791	1
H	-1.501788	1.239487	-0.299831	1
H	-0.132358	1.697257	-1.336231	1
H	1.010312	2.612867	0.532589	1
H	1.393362	0.800217	2.016189	1
H	-0.356228	0.568447	2.216709	1
Es	-1.114489	-1.258482	-1.597186	99
Es	-0.715899	-1.760059	-1.206479	99
Es	1.599523	-0.228093	-0.782829	99
Es	0.695130	2.366228	0.609461	99
Es	1.887181	0.311737	-0.475616	99
Es	-0.416688	-1.236611	0.190265	99
Es	-0.026739	-1.748039	0.572908	99
Es	-1.064498	-1.126058	0.555954	99
Es	-1.151464	1.256642	-0.303419	99
Es	1.178254	-0.046425	-0.250928	99
Es	0.371343	0.071413	0.142149	99
Es	-0.216686	1.580879	-1.024017	99
Es	1.657921	-0.161887	-0.490258	99
Es	-0.019732	-0.590251	0.157628	99
Es	-0.409023	1.323505	-0.345310	99
Es	0.166841	2.095456	0.777418	99
Es	-0.051827	2.326106	0.937306	99
Es	1.092421	0.811435	1.851420	99
Es	0.313254	1.576556	1.130976	99
Es	-0.564607	-1.495145	-0.511339	99
Es	-0.093804	-1.903435	-1.578745	99
Es	1.810567	-0.344769	-0.298919	99
Es	-0.047497	0.655641	-0.189818	99
Es	0.434990	0.377978	0.872139	99
Es	0.429680	0.830077	1.498054	99
Es	-1.113305	-2.392705	-1.163057	99
Es	-0.084119	1.808490	0.255768	99
Es	-0.114421	0.648647	1.976497	99
46
Properties=species:S:1:pos:R:3:Z:I:1 energy=-325.1165030988107 field_type=dipole dipole="0.000000 0.000000 0.000000" charge=0
C	-0.715888	-1.760073	-1.206511	6
C	-0.416688	-1.236623	0.190299	6
C	0.371142	0.071417	0.142239	6
O	1.658052	-0.162223	-0.490331	8
C	-0.409088	1.323437	-0.345421	6
N	0.166472	2.095827	0.777689	7
C	0.429702	0.829947	1.498129	6
H	-1.293358	-2.687983	-1.146811	1
H	0.205312	-1.970693	-1.758901	1
H	-1.296208	-1.034843	-1.785431	1
H	0.150202	-1.992393	0.747169	1
H	-1.365048	-1.095853	0.723249	1
H	2.102092	0.701777	-0.474791	1
H	-1.501788	1.239487	-0.299831	1
H	-0.132358	1.697257	-1.336231	1
H	1.010312	2.612867	0.532589	1
H	1.393362	0.800217	2.016189	1
H	-0.356228	0.568447	2.216709	1
Es	-0.093895	-1.903370	-1.578645	99
Es	-1.113304	-2.392796	-1.163160	99
Es	-0.052049	2.325924	0.936846	99
Es	-0.416688	-1.236611	0.190265	99
Es	-0.715899	-1.760059	-1.206480	99
Es	0.371342	0.071413	0.142150	99
Es	-0.026762	-1.748052	0.572845	99
Es	-0.114429	0.648572	1.976384	99
Es	1.657926	-0.161951	-0.490236	99
Es	1.092316	0.811437	1.851524	99
Es	-1.064418	-1.126021	0.556045	99
Es	-0.564696	-1.495123	-0.511348	99
Es	0.166864	2.095414	0.777399	99
Es	-0.083872	1.808267	0.256096	99
Es	0.435101	0.378001	0.872081	99
Es	1.598161	-0.224944	-0.781208	99
Es	-0.019670	-0.590287	0.157698	99
Es	-0.409023	1.323504	-0.345309	99
Es	0.429681	0.830075	1.498053	99
Es	0.312968	1.576824	1.131346	99
Es	-1.114416	-1.258450	-1.597240	99
Es	0.695370	2.366533	0.609345	99
Es	1.178203	-0.046902	-0.250413	99
Es	-0.047535	0.655566	-0.189876	99
Es	1.886603	0.311928	-0.476233	99
Es	1.812569	-0.347587	-0.300459	99
Es	-1.151427	1.256672	-0.303488	99
Es	-0.216713	1.580853	-1.023959	99
46
Properties=species:S:1:pos:R:3:Z:I:1 energy=-325.1165030988107 field_type=dipole dipole="0.000000 0.000000 0.000000" charge=0
C	-0.715888	-1.760073	-1.206511	6
C	-0.416688	-1.236623	0.190299	6
C	0.371142	0.071417	0.142239	6
O	1.658052	-0.162223	-0.490331	8
C	-0.409088	1.323437	-0.345421	6
N	0.166472	2.095827	0.777689	7
C	0.429702	0.829947	1.498129	6
H	-1.293358	-2.687983	-1.146811	1
H	0.205312	-1.970693	-1.758901	1
H	-1.296208	-1.034843	-1.785431	1
H	0.150202	-1.992393	0.747169	1
H	-1.365048	-1.095853	0.723249	1
H	2.102092	0.701777	-0.474791	1
H	-1.501788	1.239487	-0.299831	1
H	-0.132358	1.697257	-1.336231	1
H	1.010312	2.612867	0.532589	1
H	1.393362	0.800217	2.016189	1
H	-0.356228	0.568447	2.216709	1
Es	-0.715899	-1.760059	-1.206480	99
Es	-0.093870	-1.903459	-1.578731	99
Es	-0.416688	-1.236611	0.190265	99
Es	1.597948	-0.225311	-0.782201	99
Es	1.178585	-0.046748	-0.249273	99
Es	1.887500	0.311433	-0.475258	99
Es	-0.026766	-1.748049	0.572815	99
Es	-0.051445	2.325678	0.936987	99
Es	1.811622	-0.346968	-0.301450	99
Es	-1.151405	1.256661	-0.303522	99
Es	-0.047476	0.655583	-0.189847	99
Es	-1.064382	-1.126084	0.556057	99
Es	0.313147	1.576545	1.131291	99
Es	-0.216746	1.580858	-1.023913	99
Es	-0.084369	1.808778	0.255858	99
Es	1.657825	-0.161819	-0.490363	99
Es	-0.564722	-1.495016	-0.511345	99
Es	0.435093	0.377889	0.872112	99
Es	-0.409023	1.323504	-0.345310	99
Es	0.371341	0.071413	0.142151	99
Es	1.092267	0.811427	1.851532	99
Es	-0.019739	-0.590286	0.157708	99
Es	0.166861	2.095422	0.777407	99
Es	0.695077	2.366625	0.609505	99
Es	-1.113315	-2.392665	-1.163159	99
Es	0.429680	0.830076	1.498053	99
Es	-1.114409	-1.258555	-1.597237	99
Es	-0.114382	0.648568	1.976370	99
46
Properties=species:S:1:pos:R:3:Z:I:1 energy=-325.1165030988107 field_type=dipole dipole="0.000000 0.000000 0.000000" charge=0
C	-0.715888	-1.760073	-1.206511	6
C	-0.416688	-1.236623	0.190299	6
C	0.371142	0.071417	0.142239	6
O	1.658052	-0.162223	-0.490331	8
C	-0.409088	1.323437	-0.345421	6
N	0.166472	2.095827	0.777689	7
C	0.429702	0.829947	1.498129	6
H	-1.293358	-2.687983	-1.146811	1
H	0.205312	-1.970693	-1.758901	1
H	-1.296208	-1.034843	-1.785431	1
H	0.150202	-1.992393	0.747169	1
H	-1.365048	-1.095853	0.723249	1
H	2.102092	0.701777	-0.474791	1
H	-1.501788	1.239487	-0.299831	1
H	-0.132358	1.697257	-1.336231	1
H	1.010312	2.612867	0.532589	1
H	1.393362	0.800217	2.016189	1
H	-0.356228	0.568447	2.216709	1
Es	-0.026785	-1.748004	0.572819	99
Es	-0.114321	0.648540	1.976371	99
Es	-1.113322	-2.392686	-1.163230	99
Es	1.599697	-0.227125	-0.782791	99
Es	1.657956	-0.162012	-0.490235	99
Es	1.092202	0.811428	1.851527	99
Es	-0.051145	2.325678	0.936882	99
Es	-0.084475	1.808805	0.255772	99
Es	0.371335	0.071415	0.142154	99
Es	-0.416688	-1.236611	0.190266	99
Es	1.177759	-0.046963	-0.250324	99
Es	1.810351	-0.344799	-0.300393	99
Es	-0.093872	-1.903423	-1.578701	99
Es	-0.564796	-1.495101	-0.511322	99
Es	-0.019665	-0.590228	0.157718	99
Es	0.312924	1.576727	1.131446	99
Es	-1.114371	-1.258546	-1.597230	99
Es	-0.715899	-1.760058	-1.206481	99
Es	0.695189	2.366517	0.609541	99
Es	1.887739	0.311460	-0.474842	99
Es	-1.064336	-1.126066	0.556091	99
Es	-0.216833	1.580802	-1.023942	99
Es	-0.409023	1.323504	-0.345309	99
Es	-0.047619	0.655467	-0.189882	99
Es	0.166849	2.095431	0.777410	99
Es	0.429681	0.830076	1.498052	99
Es	-1.151335	1.256737	-0.303473	99
Es	0.435110	0.377867	0.872129	99
46
Properties=species:S:1:pos:R:3:Z:I:1 energy=-325.1165030988107 field_type=dipole dipole="0.000000 0.000000 0.000000" charge=0
C	-0.715888	-1.760073	-1.206511	6
C	-0.416688	-1.236623	0.190299	6
C	0.371142	0.071417	0.142239	6
O	1.658052	-0.162223	-0.490331	8
C	-0.409088	1.323437	-0.345421	6
N	0.166472	2.095827	0.777689	7
C	0.429702	0.829947	1.498129	6
H	-1.293358	-2.687983	-1.146811	1
H	0.205312	-1.970693	-1.758901	1
H	-1.296208	-1.034843	-1.785431	1
H	0.150202	-1.992393	0.747169	1
H	-1.365048	-1.095853	0.723249	1
H	2.102092	0.701777	-0.474791	1
H	-1.501788	1.239487	-0.299831	1
H	-0.132358	1.697257	-1.336231	1
H	1.010312	2.612867	0.532589	1
H	1.393362	0.800217	2.016189	1
H	-0.356228	0.568447	2.216709	1
Es	0.166857	2.095440	0.777409	99
Es	-0.019635	-0.590242	0.157928	99
Es	0.313213	1.576669	1.131559	99
Es	-0.409022	1.323505	-0.345308	99
Es	-0.416689	-1.236611	0.190266	99
Es	0.371339	0.071414	0.142152	99
Es	-0.026790	-1.747957	0.572848	99
Es	-1.113358	-2.392599	-1.163196	99
Es	-0.047647	0.655249	-0.190074	99
Es	-0.216868	1.580876	-1.023850	99
Es	0.429681	0.830075	1.498054	99
Es	-1.151308	1.256768	-0.303532	99
Es	1.657957	-0.161938	-0.490180	99
Es	0.434999	0.378058	0.872056	99
Es	-0.114328	0.648617	1.976299	99
Es	0.694921	2.367153	0.609733	99
Es	1.811186	-0.345828	-0.301805	99
Es	-0.564722	-1.495072	-0.511337	99
Es	-0.715899	-1.760058	-1.206480	99
Es	-0.051037	2.325055	0.936739	99
Es	1.178248	-0.047250	-0.249010	99
Es	-1.064305	-1.126088	0.556081	99
Es	1.092248	0.811334	1.851584	99
Es	1.598332	-0.226074	-0.782133	99
Es	-0.084574	1.808830	0.255694	99
Es	-1.114338	-1.258575	-1.597279	99
Es	1.887783	0.311624	-0.475462	99
Es	-0.093935	-1.903541	-1.578734	99
46
Properties=species:S:1:pos:R:3:Z:I:1 energy=-325.1165030988107 field_type=dipole dipole="0.000000 0.000000 0.000000" charge=0
C	-0.715888	-1.760073	-1.206511	6
C	-0.416688	-1.236623	0.190299	6
C	0.371142	0.071417	0.142239	6
O	1.658052	-0.162223	-0.490331	8
C	-0.409088	1.323437	-0.345421	6
N	0.166472	2.095827	0.777689	7
C	0.429702	0.829947	1.498129	6
H	-1.293358	-2.687983	-1.146811	1
H	0.205312	-1.970693	-1.758901	1
H	-1.296208	-1.034843	-1.785431	1
H	0.150202	-1.992393	0.747169	1
H	-1.365048	-1.095853	0.723249	1
H	2.102092	0.701777	-0.474791	1
H	-1.501788	1.239487	-0.299831	1
H	-0.132358	1.697257	-1.336231	1
H	1.010312	2.612867	0.532589	1
H	1.393362	0.800217	2.016189	1
H	-0.356228	0.568447	2.216709	1
Es	1.092103	0.811401	1.851555	99
Es	-0.084690	1.808999	0.255637	99
Es	-0.416688	-1.236611	0.190265	99
Es	1.657935	-0.161932	-0.490199	99
Es	-0.216892	1.580787	-1.023845	99
Es	-1.151260	1.256688	-0.303589	99
Es	1.811192	-0.345331	-0.301756	99
Es	-0.050826	2.325249	0.936600	99
Es	1.887766	0.311864	-0.475971	99
Es	-0.093968	-1.903474	-1.578761	99
Es	-0.019662	-0.590219	0.157814	99
Es	-0.715899	-1.760059	-1.206480	99
Es	-0.026837	-1.747956	0.572857	99
Es	-1.114343	-1.258615	-1.597250	99
Es	0.429681	0.830076	1.498054	99
Es	0.694904	2.366931	0.609730	99
Es	0.371337	0.071414	0.142153	99
Es	-0.047572	0.655412	-0.189947	99
Es	-0.564727	-1.495062	-0.511348	99
Es	1.177742	-0.047532	-0.249202	99
Es	-1.064264	-1.126069	0.556079	99
Es	0.313039	1.576763	1.131730	99
Es	-0.409023	1.323504	-0.345311	99
Es	-1.113340	-2.392650	-1.163219	99
Es	1.598875	-0.226531	-0.781446	99
Es	-0.114233	0.648574	1.976345	99
Es	0.166855	2.095427	0.777406	99
Es	0.435103	0.377784	0.872120	99
46
Properties=species:S:1:pos:R:3:Z:I:1 energy=-325.1165030988107 field_type=dipole dipole="0.000000 0.000000 0.000000" charge=0
C	-0.715888	-1.760073	-1.206511	6
C	-0.416688	-1.236623	0.190299	6
C	0.371142	0.071417	0.142239	6
O	1.658052	-0.162223	-0.490331	8
C	-0.409088	1.323437	-0.345421	6
N	0.166472	2.095827	0.777689	7
C	0.429702	0.829947	1.498129	6
H	-1.293358	-2.687983	-1.146811	1
H	0.205312	-1.970693	-1.758901	1
H	-1.296208	-1.034843	-1.785431	1
H	0.150202	-1.992393	0.747169	1
H	-1.365048	-1.095853	0.723249	1
H	2.102092	0.701777	-0.474791	1
H	-1.501788	1.239487	-0.299831	1
H	-0.132358	1.697257	-1.336231	1
H	1.010312	2.612867	0.532589	1
H	1.393362	0.800217	2.016189	1
H	-0.356228	0.568447	2.216709	1
Es	0.435099	0.377724	0.872138	99
Es	1.657915	-0.161904	-0.490251	99
Es	-0.715899	-1.760059	-1.206480	99
Es	-0.094004	-1.903497	-1.578775	99
Es	0.313026	1.576830	1.131886	99
Es	1.092031	0.811387	1.851556	99
Es	-1.064227	-1.126066	0.556087	99
Es	-0.084889	1.809104	0.255505	99
Es	0.371337	0.071414	0.142153	99
Es	-1.113309	-2.392604	-1.163258	99
Es	1.177707	-0.047431	-0.249425	99
Es	-0.216947	1.580779	-1.023877	99
Es	-0.050490	2.325162	0.936503	99
Es	1.811150	-0.346273	-0.302125	99
Es	-0.026856	-1.747929	0.572868	99
Es	-0.047602	0.655356	-0.189923	99
Es	0.166855	2.095430	0.777407	99
Es	0.694812	2.366936	0.609814	99
Es	-0.564734	-1.495073	-0.511318	99
Es	-1.114347	-1.258649	-1.597273	99
Es	1.598772	-0.225463	-0.781579	99
Es	-1.151188	1.256716	-0.303571	99
Es	1.887977	0.311605	-0.475207	99
Es	-0.409021	1.323503	-0.345310	99
Es	-0.114185	0.648577	1.976339	99
Es	-0.416688	-1.236612	0.190267	99
Es	-0.019669	-0.590208	0.157817	99
Es	0.429681	0.830075	1.498053	99
46
Properties=species:S:1:pos:R:3:Z:I:1 energy=-325.1165030988107 field_type=dipole dipole="0.000000 0.000000 0.000000" charge=0
C	-0.715888	-1.760073	-1.206511	6
C	-0.416688	-1.236623	0.190299	6
C	0.371142	0.071417	0.142239	6
O	1.658052	-0.162223	-0.490331	8
C	-0.409088	1.323437	-0.345421	6
N	0.166472	2.095827	0.777689	7
C	0.429702	0.829947	1.498129	6
H	-1.293358	-2.687983	-1.146811	1
H	0.205312	-1.970693	-1.758901	1
H	-1.296208	-1.034843	-1.785431	1
H	0.150202	-1.992393	0.747169	1
H	-1.365048	-1.095853	0.723249	1
H	2.102092	0.701777	-0.474791	1
H	-1.501788	1.239487	-0.299831	1
H	-0.132358	1.697257	-1.336231	1
H	1.010312	2.612867	0.532589	1
H	1.393362	0.800217	2.016189	1
H	-0.356228	0.568447	2.216709	1
Es	-0.564722	-1.495068	-0.511255	99
Es	1.888201	0.311735	-0.475147	99
Es	-0.114160	0.648565	1.976321	99
Es	0.435115	0.377727	0.872139	99
Es	1.810761	-0.345676	-0.302234	99
Es	-1.114397	-1.258747	-1.597235	99
Es	-0.715899	-1.760060	-1.206479	99
Es	-1.113235	-2.392628	-1.163306	99
Es	1.092022	0.811379	1.851563	99
Es	1.177004	-0.047768	-0.249816	99
Es	-0.050600	2.324909	0.936246	99
Es	-0.416689	-1.236612	0.190263	99
Es	-0.216970	1.580757	-1.023746	99
Es	0.371336	0.071414	0.142153	99
Es	-0.019655	-0.590200	0.157861	99
Es	-0.026880	-1.747900	0.572872	99
Es	-1.151200	1.256757	-0.303670	99
Es	0.312982	1.576816	1.132022	99
Es	0.166836	2.095440	0.777421	99
Es	-0.094040	-1.903409	-1.578842	99
Es	-0.084668	1.809125	0.255520	99
Es	1.657932	-0.161966	-0.490237	99
Es	0.429683	0.830074	1.498052	99
Es	1.599605	-0.225794	-0.781142	99
Es	0.694762	2.367252	0.609918	99
Es	-0.047588	0.655304	-0.189995	99
Es	-0.409017	1.323502	-0.345303	99
Es	-1.064208	-1.126098	0.556079	99
