46
Properties=species:S:1:pos:R:3:Z:I:1 energy=-325.20519772284666 field_type=dipole dipole="0.000000 0.000000 0.000000" charge=0
C	-2.364476	-1.643331	-0.045100	6
C	-0.862006	-1.412981	-0.004030	6
C	-0.523166	0.077369	-0.003920	6
C	0.985764	0.304829	0.040540	6
C	1.341874	1.775789	0.012370	6
N	2.683654	2.023659	0.025100	7
O	0.533423	2.694389	-0.016920	8
H	-2.582926	-2.715391	-0.055130	1
H	-2.804806	-1.198141	-0.942470	1
H	-2.851636	-1.205121	0.831170	1
H	-0.399846	-1.899251	-0.871620	1
H	-0.448836	-1.889571	0.893040	1
H	-0.995646	0.563929	0.858450	1
H	-0.942226	0.550229	-0.900850	1
H	1.462924	-0.179571	-0.819060	1
H	1.402994	-0.130941	0.955820	1
H	3.381793	1.294109	0.039480	1
H	2.983153	2.989999	0.003130	1
Es	-2.661544	-1.337394	-0.658825	99
Es	0.985788	0.304887	0.040539	99
Es	0.533631	2.694156	-0.016914	99
Es	1.276825	0.021906	0.658374	99
Es	2.391707	1.964868	0.293071	99
Es	-2.513094	-2.376726	-0.051844	99
Es	-0.685139	-0.670073	-0.003295	99
Es	-1.617193	-1.526034	-0.024591	99
Es	2.872344	2.587003	0.003338	99
Es	0.797569	2.388553	0.241840	99
Es	3.097898	1.588959	0.024561	99
Es	0.238947	2.596472	-0.017960	99
Es	-0.575193	-1.738092	0.615026	99
Es	-0.541303	-1.744712	-0.602752	99
Es	2.683604	2.023632	0.024989	99
Es	1.342043	1.775776	0.012362	99
Es	0.682252	2.972293	-0.020792	99
Es	-0.523089	0.077335	-0.003918	99
Es	-0.839921	0.399620	0.588458	99
Es	0.249469	0.196891	0.018719	99
Es	-0.862031	-1.412961	-0.004030	99
Es	1.166598	1.041315	0.025758	99
Es	-2.364452	-1.643330	-0.045101	99
Es	-0.803032	0.389924	-0.619329	99
Es	0.802495	2.378456	-0.256626	99
Es	-2.693740	-1.342048	0.554333	99
Es	1.317373	-0.011653	-0.540411	99
Es	2.293903	1.934636	-0.226502	99
46
Properties=species:S:1:pos:R:3:Z:I:1 energy=-325.20519772284666 field_type=dipole dipole="0.000000 0.000000 0.000000" charge=0
C	-2.364476	-1.643331	-0.045100	6
C	-0.862006	-1.412981	-0.004030	6
C	-0.523166	0.077369	-0.003920	6
C	0.985764	0.304829	0.040540	6
C	1.341874	1.775789	0.012370	6
N	2.683654	2.023659	0.025100	7
O	0.533423	2.694389	-0.016920	8
H	-2.582926	-2.715391	-0.055130	1
H	-2.804806	-1.198141	-0.942470	1
H	-2.851636	-1.205121	0.831170	1
H	-0.399846	-1.899251	-0.871620	1
H	-0.448836	-1.889571	0.893040	1
H	-0.995646	0.563929	0.858450	1
H	-0.942226	0.550229	-0.900850	1
H	1.462924	-0.179571	-0.819060	1
H	1.402994	-0.130941	0.955820	1
H	3.381793	1.294109	0.039480	1
H	2.983153	2.989999	0.003130	1
Es	0.985787	0.304887	0.040539	99
Es	-0.575266	-1.738161	0.615009	99
Es	0.239148	2.596955	-0.020388	99
Es	-0.862031	-1.412961	-0.004031	99
Es	1.317432	-0.011644	-0.540360	99
Es	-1.617174	-1.525939	-0.024729	99
Es	0.803900	2.378449	-0.255790	99
Es	1.276737	0.021861	0.658333	99
Es	-0.803145	0.389835	-0.619277	99
Es	2.396030	1.964940	0.291679	99
Es	0.533677	2.694127	-0.016914	99
Es	2.289663	1.933996	-0.225730	99
Es	-2.661570	-1.337429	-0.658739	99
Es	-2.364452	-1.643331	-0.045100	99
Es	-0.523089	0.077335	-0.003917	99
Es	2.683602	2.023622	0.024967	99
Es	-0.541298	-1.744702	-0.602692	99
Es	0.682315	2.972020	-0.020459	99
Es	2.872166	2.587409	0.004598	99
Es	0.795897	2.388405	0.243124	99
Es	-0.840023	0.399492	0.588285	99
Es	0.249550	0.197165	0.018700	99
Es	3.097964	1.589220	0.023904	99
Es	-2.693764	-1.342061	0.554347	99
Es	-0.684972	-0.670070	-0.003205	99
Es	-2.513106	-2.376713	-0.051889	99
Es	1.342049	1.775771	0.012372	99
Es	1.166687	1.041181	0.025840	99
46
Properties=species:S:1:pos:R:3:Z:I:1 energy=-325.20519772284666 field_type=dipole dipole="0.000000 0.000000 0.000000" charge=0
C	-2.364476	-1.643331	-0.045100	6
C	-0.862006	-1.412981	-0.004030	6
C	-0.523166	0.077369	-0.003920	6
C	0.985764	0.304829	0.040540	6
C	1.341874	1.775789	0.012370	6
N	2.683654	2.023659	0.025100	7
O	0.533423	2.694389	-0.016920	8
H	-2.582926	-2.715391	-0.055130	1
H	-2.804806	-1.198141	-0.942470	1
H	-2.851636	-1.205121	0.831170	1
H	-0.399846	-1.899251	-0.871620	1
H	-0.448836	-1.889571	0.893040	1
H	-0.995646	0.563929	0.858450	1
H	-0.942226	0.550229	-0.900850	1
H	1.462924	-0.179571	-0.819060	1
H	1.402994	-0.130941	0.955820	1
H	3.381793	1.294109	0.039480	1
H	2.983153	2.989999	0.003130	1
Es	2.111929	1.905394	0.029567	99
Es	3.097878	1.580523	0.036445	99
Es	2.649431	2.015058	0.035748	99
Es	-0.541405	-1.744730	-0.602654	99
Es	0.796489	2.388163	0.242569	99
Es	2.868702	2.595052	0.014580	99
Es	0.682390	2.972532	-0.020487	99
Es	0.249539	0.197088	0.018698	99
Es	-0.685001	-0.670102	-0.003393	99
Es	-2.661582	-1.337439	-0.658757	99
Es	1.342051	1.775770	0.012379	99
Es	-0.803109	0.389901	-0.619099	99
Es	-2.513170	-2.376683	-0.051832	99
Es	-2.693765	-1.342064	0.554261	99
Es	-0.523090	0.077335	-0.003919	99
Es	0.985788	0.304887	0.040539	99
Es	-2.364452	-1.643332	-0.045100	99
Es	1.276795	0.021918	0.658277	99
Es	-0.575192	-1.738161	0.614941	99
Es	0.239110	2.596524	-0.019115	99
Es	-1.617125	-1.525973	-0.024591	99
Es	1.167209	1.040220	0.026130	99
Es	-0.840017	0.399466	0.588267	99
Es	1.317480	-0.011533	-0.540390	99
Es	2.610827	2.004404	0.003058	99
Es	0.533625	2.694167	-0.016913	99
Es	0.803408	2.378238	-0.256701	99
Es	-0.862031	-1.412961	-0.004031	99
46
Properties=species:S:1:pos:R:3:Z:I:1 energy=-325.20519772284666 field_type=dipole dipole="0.000000 0.000000 0.000000" charge=0
C	-2.364476	-1.643331	-0.045100	6
C	-0.862006	-1.412981	-0.004030	6
C	-0.523166	0.077369	-0.003920	6
C	0.985764	0.304829	0.040540	6
C	1.341874	1.775789	0.012370	6
N	2.683654	2.023659	0.025100	7
O	0.533423	2.694389	-0.016920	8
H	-2.582926	-2.715391	-0.055130	1
H	-2.804806	-1.198141	-0.942470	1
H	-2.851636	-1.205121	0.831170	1
H	-0.399846	-1.899251	-0.871620	1
H	-0.448836	-1.889571	0.893040	1
H	-0.995646	0.563929	0.858450	1
H	-0.942226	0.550229	-0.900850	1
H	1.462924	-0.179571	-0.819060	1
H	1.402994	-0.130941	0.955820	1
H	3.381793	1.294109	0.039480	1
H	2.983153	2.989999	0.003130	1
Es	1.167193	1.040125	0.026110	99
Es	3.097888	1.580469	0.030588	99
Es	-0.840013	0.399448	0.588234	99
Es	-1.617105	-1.526052	-0.024615	99
Es	1.342049	1.775770	0.012375	99
Es	2.589817	1.999879	0.041431	99
Es	2.868795	2.594967	0.009946	99
Es	0.239996	2.593982	-0.017421	99
Es	-2.364453	-1.643332	-0.045099	99
Es	1.276828	0.021967	0.658312	99
Es	-0.803182	0.389849	-0.619168	99
Es	0.680658	2.974369	-0.021905	99
Es	2.112591	1.904879	0.002208	99
Es	0.249455	0.197123	0.018655	99
Es	2.669693	2.020270	0.035171	99
Es	0.798542	2.388763	0.241897	99
Es	-2.513244	-2.376663	-0.051858	99
Es	-2.693781	-1.342073	0.554223	99
Es	-0.684931	-0.670044	-0.003277	99
Es	-0.575261	-1.738078	0.614881	99
Es	0.985788	0.304886	0.040540	99
Es	-2.661573	-1.337437	-0.658700	99
Es	0.533632	2.694156	-0.016918	99
Es	0.802215	2.378328	-0.256270	99
Es	-0.862031	-1.412961	-0.004031	99
Es	-0.523088	0.077335	-0.003917	99
Es	1.317525	-0.011495	-0.540326	99
Es	-0.541291	-1.744773	-0.602587	99
46
Properties=species:S:1:pos:R:3:Z:I:1 energy=-325.20519772284666 field_type=dipole dipole="0.000000 0.000000 0.000000" charge=0
C	-2.364476	-1.643331	-0.045100	6
C	-0.862006	-1.412981	-0.004030	6
C	-0.523166	0.077369	-0.003920	6
C	0.985764	0.304829	0.040540	6
C	1.341874	1.775789	0.012370	6
N	2.683654	2.023659	0.025100	7
O	0.533423	2.694389	-0.016920	8
H	-2.582926	-2.715391	-0.055130	1
H	-2.804806	-1.198141	-0.942470	1
H	-2.851636	-1.205121	0.831170	1
H	-0.399846	-1.899251	-0.871620	1
H	-0.448836	-1.889571	0.893040	1
H	-0.995646	0.563929	0.858450	1
H	-0.942226	0.550229	-0.900850	1
H	1.462924	-0.179571	-0.819060	1
H	1.402994	-0.130941	0.955820	1
H	3.381793	1.294109	0.039480	1
H	2.983153	2.989999	0.003130	1
Es	-2.661606	-1.337445	-0.658685	99
Es	2.872281	2.586905	0.003101	99
Es	0.802143	2.375747	-0.255576	99
Es	-0.523089	0.077335	-0.003917	99
Es	0.684317	2.971228	-0.022879	99
Es	1.342049	1.775771	0.012373	99
Es	2.291776	1.934323	-0.226038	99
Es	-2.513246	-2.376642	-0.051856	99
Es	-1.617101	-1.526055	-0.024639	99
Es	1.317557	-0.011499	-0.540295	99
Es	1.166579	1.040882	0.025876	99
Es	0.239073	2.599226	-0.018445	99
Es	1.276869	0.021968	0.658321	99
Es	-0.684962	-0.670062	-0.003276	99
Es	0.985788	0.304886	0.040539	99
Es	3.097841	1.589311	0.023782	99
Es	-2.364453	-1.643332	-0.045099	99
Es	0.249462	0.197112	0.018660	99
Es	0.795853	2.389655	0.243417	99
Es	-0.862031	-1.412961	-0.004031	99
Es	0.533642	2.694148	-0.016940	99
Es	-0.575236	-1.738111	0.614860	99
Es	-0.541306	-1.744725	-0.602546	99
Es	-0.803173	0.389878	-0.619136	99
Es	2.393869	1.965147	0.293402	99
Es	-2.693784	-1.342105	0.554208	99
Es	-0.839998	0.399440	0.588183	99
Es	2.683599	2.023634	0.025115	99
46
Properties=species:S:1:pos:R:3:Z:I:1 energy=-325.20519772284666 field_type=dipole dipole="0.000000 0.000000 0.000000" charge=0
C	-2.364476	-1.643331	-0.045100	6
C	-0.862006	-1.412981	-0.004030	6
C	-0.523166	0.077369	-0.003920	6
C	0.985764	0.304829	0.040540	6
C	1.341874	1.775789	0.012370	6
N	2.683654	2.023659	0.025100	7
O	0.533423	2.694389	-0.016920	8
H	-2.582926	-2.715391	-0.055130	1
H	-2.804806	-1.198141	-0.942470	1
H	-2.851636	-1.205121	0.831170	1
H	-0.399846	-1.899251	-0.871620	1
H	-0.448836	-1.889571	0.893040	1
H	-0.995646	0.563929	0.858450	1
H	-0.942226	0.550229	-0.900850	1
H	1.462924	-0.179571	-0.819060	1
H	1.402994	-0.130941	0.955820	1
H	3.381793	1.294109	0.039480	1
H	2.983153	2.989999	0.003130	1
Es	-1.617126	-1.526073	-0.024717	99
Es	-0.840053	0.399447	0.588080	99
Es	-0.523089	0.077335	-0.003918	99
Es	-0.541296	-1.744687	-0.602471	99
Es	1.317530	-0.011434	-0.540275	99
Es	2.872508	2.586960	0.007267	99
Es	-2.693794	-1.342069	0.554191	99
Es	-2.661584	-1.337467	-0.658651	99
Es	-0.575216	-1.738120	0.614879	99
Es	0.985787	0.304883	0.040539	99
Es	0.239515	2.596473	-0.018343	99
Es	-0.803179	0.389800	-0.619135	99
Es	0.802917	2.378132	-0.256402	99
Es	-2.513274	-2.376664	-0.051857	99
Es	2.683583	2.023631	0.025042	99
Es	1.166566	1.040805	0.025964	99
Es	2.372216	1.960410	0.293518	99
Es	0.249446	0.197197	0.018705	99
Es	-0.684944	-0.670071	-0.003248	99
Es	2.313190	1.938581	-0.233173	99
Es	0.533587	2.694222	-0.016916	99
Es	-2.364452	-1.643332	-0.045099	99
Es	3.097871	1.589727	0.026700	99
Es	-0.862031	-1.412962	-0.004030	99
Es	1.342047	1.775771	0.012374	99
Es	1.276942	0.021947	0.658310	99
Es	0.797092	2.388816	0.242155	99
Es	0.681955	2.972400	-0.021013	99
46
Properties=species:S:1:pos:R:3:Z:I:1 energy=-325.20519772284666 field_type=dipole dipole="0.000000 0.000000 0.000000" charge=0
C	-2.364476	-1.643331	-0.045100	6
C	-0.862006	-1.412981	-0.004030	6
C	-0.523166	0.077369	-0.003920	6
C	0.985764	0.304829	0.040540	6
C	1.341874	1.775789	0.012370	6
N	2.683654	2.023659	0.025100	7
O	0.533423	2.694389	-0.016920	8
H	-2.582926	-2.715391	-0.055130	1
H	-2.804806	-1.198141	-0.942470	1
H	-2.851636	-1.205121	0.831170	1
H	-0.399846	-1.899251	-0.871620	1
H	-0.448836	-1.889571	0.893040	1
H	-0.995646	0.563929	0.858450	1
H	-0.942226	0.550229	-0.900850	1
H	1.462924	-0.179571	-0.819060	1
H	1.402994	-0.130941	0.955820	1
H	3.381793	1.294109	0.039480	1
H	2.983153	2.989999	0.003130	1
Es	2.111948	1.905559	0.030280	99
Es	1.317638	-0.011426	-0.540282	99
Es	-0.684961	-0.670067	-0.003212	99
Es	-0.862030	-1.412960	-0.004031	99
Es	0.533631	2.694136	-0.016910	99
Es	3.097801	1.580502	0.037484	99
Es	-2.513301	-2.376601	-0.051853	99
Es	1.342048	1.775770	0.012376	99
Es	1.167139	1.039857	0.026083	99
Es	2.868764	2.595044	0.014149	99
Es	2.646296	2.014283	0.035790	99
Es	0.802817	2.377985	-0.257115	99
Es	-2.661684	-1.337489	-0.658591	99
Es	0.249385	0.197139	0.018663	99
Es	2.613938	2.005208	0.001677	99
Es	-2.364453	-1.643332	-0.045099	99
Es	-0.803205	0.389858	-0.619079	99
Es	0.239223	2.597038	-0.018271	99
Es	-0.839981	0.399430	0.588078	99
Es	-0.575220	-1.738078	0.614748	99
Es	0.797074	2.388284	0.242620	99
Es	-0.523090	0.077336	-0.003917	99
Es	-1.617086	-1.526100	-0.024700	99
Es	0.682378	2.972146	-0.020968	99
Es	-0.541259	-1.744695	-0.602445	99
Es	0.985787	0.304886	0.040539	99
Es	-2.693787	-1.342144	0.554158	99
Es	1.276903	0.022090	0.658303	99
