43
Properties=species:S:1:pos:R:3:Z:I:1 energy=-324.0043240159856 field_type=dipole dipole="0.000000 0.000000 0.000000" charge=0
C	-2.156796	-0.011307	0.229245	6
C	-0.683646	-0.292377	0.077105	6
C	-0.339476	-1.757417	0.065825	6
C	0.189324	0.723643	-0.033425	6
N	1.541574	0.572773	-0.173195	7
C	2.438724	1.600223	-0.285835	6
O	3.644204	1.427173	-0.409015	8
H	-2.377706	1.061273	0.236245	1
H	-2.527906	-0.432787	1.169155	1
H	-2.715416	-0.460007	-0.598665	1
H	-0.861226	-2.258777	-0.756275	1
H	-0.652136	-2.222947	1.006475	1
H	0.727354	-1.956467	-0.057645	1
H	-0.167666	1.752513	-0.013745	1
H	1.958663	-0.348667	-0.200165	1
H	1.982134	2.603153	-0.256085	1
Es	-2.156757	-0.011314	0.229241	99
Es	-2.401226	-0.302363	0.865482	99
Es	0.189587	0.723725	-0.033452	99
Es	2.438580	1.600107	-0.285825	99
Es	1.541674	0.572953	-0.172620	99
Es	3.643876	1.427227	-0.408981	99
Es	1.776743	0.028531	-0.167815	99
Es	0.394359	-1.881099	-0.019034	99
Es	3.259324	1.493517	-0.119623	99
Es	-0.035226	1.425276	-0.021775	99
Es	1.893285	0.991158	-0.068771	99
Es	-0.683709	-0.292461	0.077113	99
Es	3.800799	1.691345	-0.429465	99
Es	-0.284128	0.206606	-0.311610	99
Es	-0.492463	-1.021957	0.069360	99
Es	-0.694586	-2.086137	-0.488828	99
Es	-0.213549	0.218531	0.355046	99
Es	-2.299999	0.720959	0.233208	99
Es	-0.553347	-2.061962	0.700823	99
Es	1.582136	0.705580	-0.386324	99
Es	3.206646	1.484258	-0.615976	99
Es	3.707123	1.120975	-0.409668	99
Es	-2.528374	-0.320754	-0.332352	99
Es	-1.418008	-0.145084	0.152869	99
Es	0.968335	0.640589	-0.077540	99
Es	2.110669	2.278270	-0.263027	99
Es	-0.339468	-1.757374	0.065822	99
43
Properties=species:S:1:pos:R:3:Z:I:1 energy=-324.0043240159856 field_type=dipole dipole="0.000000 0.000000 0.000000" charge=0
C	-2.156796	-0.011307	0.229245	6
C	-0.683646	-0.292377	0.077105	6
C	-0.339476	-1.757417	0.065825	6
C	0.189324	0.723643	-0.033425	6
N	1.541574	0.572773	-0.173195	7
C	2.438724	1.600223	-0.285835	6
O	3.644204	1.427173	-0.409015	8
H	-2.377706	1.061273	0.236245	1
H	-2.527906	-0.432787	1.169155	1
H	-2.715416	-0.460007	-0.598665	1
H	-0.861226	-2.258777	-0.756275	1
H	-0.652136	-2.222947	1.006475	1
H	0.727354	-1.956467	-0.057645	1
H	-0.167666	1.752513	-0.013745	1
H	1.958663	-0.348667	-0.200165	1
H	1.982134	2.603153	-0.256085	1
Es	1.866714	0.989464	-0.356685	99
Es	1.772855	0.027759	-0.207997	99
Es	1.541651	0.573157	-0.173906	99
Es	0.394264	-1.881129	-0.019178	99
Es	3.205612	1.483833	-0.614757	99
Es	3.799035	1.691325	-0.431537	99
Es	-0.339468	-1.757371	0.065824	99
Es	-0.683712	-0.292463	0.077109	99
Es	2.110504	2.278303	-0.264362	99
Es	2.438586	1.600107	-0.285817	99
Es	0.960856	0.639503	-0.152248	99
Es	-0.213299	0.218178	0.355435	99
Es	0.189575	0.723717	-0.033465	99
Es	-0.035286	1.425311	-0.022172	99
Es	-2.401229	-0.302318	0.865457	99
Es	1.620154	0.708877	0.018041	99
Es	-1.417983	-0.145069	0.152676	99
Es	3.708758	1.121712	-0.410289	99
Es	-0.492477	-1.021924	0.069274	99
Es	-0.284243	0.206959	-0.310985	99
Es	3.260567	1.493191	-0.117372	99
Es	-0.553193	-2.062014	0.700841	99
Es	-2.299974	0.720953	0.233214	99
Es	3.643857	1.427261	-0.408980	99
Es	-0.694644	-2.086162	-0.488746	99
Es	-2.156757	-0.011314	0.229241	99
Es	-2.528426	-0.320743	-0.332337	99
43
Properties=species:S:1:pos:R:3:Z:I:1 energy=-324.0043240159856 field_type=dipole dipole="0.000000 0.000000 0.000000" charge=0
C	-2.156796	-0.011307	0.229245	6
C	-0.683646	-0.292377	0.077105	6
C	-0.339476	-1.757417	0.065825	6
C	0.189324	0.723643	-0.033425	6
N	1.541574	0.572773	-0.173195	7
C	2.438724	1.600223	-0.285835	6
O	3.644204	1.427173	-0.409015	8
H	-2.377706	1.061273	0.236245	1
H	-2.527906	-0.432787	1.169155	1
H	-2.715416	-0.460007	-0.598665	1
H	-0.861226	-2.258777	-0.756275	1
H	-0.652136	-2.222947	1.006475	1
H	0.727354	-1.956467	-0.057645	1
H	-0.167666	1.752513	-0.013745	1
H	1.958663	-0.348667	-0.200165	1
H	1.982134	2.603153	-0.256085	1
Es	-2.401281	-0.302365	0.865403	99
Es	3.709629	1.121953	-0.410927	99
Es	-1.417984	-0.144994	0.152762	99
Es	2.438582	1.600107	-0.285819	99
Es	-0.683708	-0.292460	0.077123	99
Es	-0.553325	-2.061899	0.700863	99
Es	0.394315	-1.881158	-0.019067	99
Es	1.772088	0.028207	-0.209742	99
Es	1.860654	0.984305	-0.364938	99
Es	3.206441	1.483991	-0.615011	99
Es	-0.284250	0.206927	-0.310869	99
Es	-0.213273	0.218151	0.355327	99
Es	3.644026	1.427167	-0.408996	99
Es	-0.492414	-1.022064	0.069160	99
Es	-2.156757	-0.011314	0.229241	99
Es	3.259538	1.491872	-0.117917	99
Es	-0.035346	1.425314	-0.022241	99
Es	2.110570	2.278325	-0.264331	99
Es	-2.528364	-0.320716	-0.332400	99
Es	-0.339468	-1.757372	0.065824	99
Es	-0.694612	-2.086182	-0.488775	99
Es	-2.299975	0.720978	0.233260	99
Es	1.626360	0.713992	0.028506	99
Es	3.798206	1.692273	-0.430126	99
Es	0.189584	0.723723	-0.033453	99
Es	1.541612	0.573215	-0.174138	99
Es	0.961449	0.639126	-0.152438	99
43
Properties=species:S:1:pos:R:3:Z:I:1 energy=-324.0043240159856 field_type=dipole dipole="0.000000 0.000000 0.000000" charge=0
C	-2.156796	-0.011307	0.229245	6
C	-0.683646	-0.292377	0.077105	6
C	-0.339476	-1.757417	0.065825	6
C	0.189324	0.723643	-0.033425	6
N	1.541574	0.572773	-0.173195	7
C	2.438724	1.600223	-0.285835	6
O	3.644204	1.427173	-0.409015	8
H	-2.377706	1.061273	0.236245	1
H	-2.527906	-0.432787	1.169155	1
H	-2.715416	-0.460007	-0.598665	1
H	-0.861226	-2.258777	-0.756275	1
H	-0.652136	-2.222947	1.006475	1
H	0.727354	-1.956467	-0.057645	1
H	-0.167666	1.752513	-0.013745	1
H	1.958663	-0.348667	-0.200165	1
H	1.982134	2.603153	-0.256085	1
Es	3.206282	1.481234	-0.615671	99
Es	-0.339468	-1.757372	0.065823	99
Es	3.709349	1.121068	-0.406819	99
Es	-0.213544	0.218484	0.354473	99
Es	-2.156757	-0.011314	0.229241	99
Es	2.110725	2.278359	-0.263098	99
Es	0.189588	0.723725	-0.033453	99
Es	1.585187	0.709505	-0.396469	99
Es	-0.553356	-2.061947	0.700823	99
Es	-2.528355	-0.320644	-0.332376	99
Es	3.798449	1.691238	-0.433064	99
Es	1.776533	0.029009	-0.165799	99
Es	-0.694574	-2.086147	-0.488841	99
Es	1.889576	0.986963	-0.061195	99
Es	-0.683708	-0.292461	0.077117	99
Es	-0.035283	1.425397	-0.021700	99
Es	0.394285	-1.881179	-0.018996	99
Es	3.643884	1.427213	-0.408981	99
Es	3.259803	1.496489	-0.119185	99
Es	-0.492222	-1.022061	0.069379	99
Es	-0.284121	0.206544	-0.311131	99
Es	2.438583	1.600107	-0.285817	99
Es	-2.401292	-0.302436	0.865359	99
Es	-2.300029	0.720968	0.233326	99
Es	0.969095	0.640235	-0.076808	99
Es	1.541721	0.573026	-0.172706	99
Es	-1.418052	-0.144900	0.152849	99
43
Properties=species:S:1:pos:R:3:Z:I:1 energy=-324.0043240159856 field_type=dipole dipole="0.000000 0.000000 0.000000" charge=0
C	-2.156796	-0.011307	0.229245	6
C	-0.683646	-0.292377	0.077105	6
C	-0.339476	-1.757417	0.065825	6
C	0.189324	0.723643	-0.033425	6
N	1.541574	0.572773	-0.173195	7
C	2.438724	1.600223	-0.285835	6
O	3.644204	1.427173	-0.409015	8
H	-2.377706	1.061273	0.236245	1
H	-2.527906	-0.432787	1.169155	1
H	-2.715416	-0.460007	-0.598665	1
H	-0.861226	-2.258777	-0.756275	1
H	-0.652136	-2.222947	1.006475	1
H	0.727354	-1.956467	-0.057645	1
H	-0.167666	1.752513	-0.013745	1
H	1.958663	-0.348667	-0.200165	1
H	1.982134	2.603153	-0.256085	1
Es	1.541851	0.573335	-0.172300	99
Es	1.892637	0.990967	-0.068611	99
Es	-0.492258	-1.022025	0.069323	99
Es	0.968681	0.640640	-0.077414	99
Es	0.189577	0.723719	-0.033454	99
Es	3.643905	1.427201	-0.408987	99
Es	-0.284067	0.206559	-0.311115	99
Es	-0.035329	1.425373	-0.021683	99
Es	-0.213525	0.218414	0.354554	99
Es	-0.683709	-0.292461	0.077115	99
Es	3.206331	1.483990	-0.615501	99
Es	1.582232	0.704726	-0.390004	99
Es	-0.694573	-2.086105	-0.488776	99
Es	1.776753	0.029133	-0.164732	99
Es	-2.528407	-0.320753	-0.332336	99
Es	-1.418060	-0.144926	0.152907	99
Es	-2.401234	-0.302319	0.865388	99
Es	-2.300016	0.720989	0.233244	99
Es	-0.339469	-1.757374	0.065822	99
Es	-0.553363	-2.061976	0.700787	99
Es	2.438582	1.600107	-0.285818	99
Es	0.394315	-1.881227	-0.019036	99
Es	3.259789	1.493392	-0.117947	99
Es	-2.156758	-0.011314	0.229242	99
Es	3.798424	1.691119	-0.430419	99
Es	3.709312	1.121519	-0.410847	99
Es	2.110678	2.278401	-0.263120	99
43
Properties=species:S:1:pos:R:3:Z:I:1 energy=-324.0043240159856 field_type=dipole dipole="0.000000 0.000000 0.000000" charge=0
C	-2.156796	-0.011307	0.229245	6
C	-0.683646	-0.292377	0.077105	6
C	-0.339476	-1.757417	0.065825	6
C	0.189324	0.723643	-0.033425	6
N	1.541574	0.572773	-0.173195	7
C	2.438724	1.600223	-0.285835	6
O	3.644204	1.427173	-0.409015	8
H	-2.377706	1.061273	0.236245	1
H	-2.527906	-0.432787	1.169155	1
H	-2.715416	-0.460007	-0.598665	1
H	-0.861226	-2.258777	-0.756275	1
H	-0.652136	-2.222947	1.006475	1
H	0.727354	-1.956467	-0.057645	1
H	-0.167666	1.752513	-0.013745	1
H	1.958663	-0.348667	-0.200165	1
H	1.982134	2.603153	-0.256085	1
Es	0.189581	0.723721	-0.033452	99
Es	-0.683707	-0.292464	0.077113	99
Es	1.855253	0.979473	-0.372041	99
Es	3.800038	1.690651	-0.430253	99
Es	-0.284271	0.206950	-0.310659	99
Es	0.962008	0.638694	-0.152979	99
Es	-2.401296	-0.302259	0.865358	99
Es	3.259640	1.492856	-0.117760	99
Es	1.631798	0.719108	0.036850	99
Es	1.771485	0.028580	-0.210812	99
Es	-0.339468	-1.757373	0.065823	99
Es	-2.528472	-0.320692	-0.332354	99
Es	3.206613	1.484940	-0.615252	99
Es	-0.492236	-1.022114	0.069284	99
Es	-0.694667	-2.086153	-0.488830	99
Es	-2.156758	-0.011313	0.229241	99
Es	3.707691	1.121554	-0.410699	99
Es	-0.213317	0.218095	0.354883	99
Es	0.394393	-1.881215	-0.018985	99
Es	3.643873	1.427171	-0.408980	99
Es	-2.300050	0.720836	0.233281	99
Es	-0.553351	-2.061867	0.700721	99
Es	1.541569	0.572975	-0.173816	99
Es	2.110626	2.278383	-0.264282	99
Es	-1.417905	-0.144912	0.152829	99
Es	2.438583	1.600107	-0.285820	99
Es	-0.035357	1.425371	-0.022129	99
43
Properties=species:S:1:pos:R:3:Z:I:1 energy=-324.0043240159856 field_type=dipole dipole="0.000000 0.000000 0.000000" charge=0
C	-2.156796	-0.011307	0.229245	6
C	-0.683646	-0.292377	0.077105	6
C	-0.339476	-1.757417	0.065825	6
C	0.189324	0.723643	-0.033425	6
N	1.541574	0.572773	-0.173195	7
C	2.438724	1.600223	-0.285835	6
O	3.644204	1.427173	-0.409015	8
H	-2.377706	1.061273	0.236245	1
H	-2.527906	-0.432787	1.169155	1
H	-2.715416	-0.460007	-0.598665	1
H	-0.861226	-2.258777	-0.756275	1
H	-0.652136	-2.222947	1.006475	1
H	0.727354	-1.956467	-0.057645	1
H	-0.167666	1.752513	-0.013745	1
H	1.958663	-0.348667	-0.200165	1
H	1.982134	2.603153	-0.256085	1
Es	-2.300068	0.720928	0.233128	99
Es	-2.401264	-0.302237	0.865447	99
Es	1.915567	1.024716	-0.178848	99
Es	0.960375	0.643614	-0.097335	99
Es	3.259862	1.493892	-0.117555	99
Es	-2.528390	-0.320802	-0.332280	99
Es	3.800254	1.690203	-0.430711	99
Es	3.206201	1.484309	-0.615970	99
Es	-0.683713	-0.292466	0.077107	99
Es	1.560218	0.653117	-0.246355	99
Es	2.438580	1.600108	-0.285814	99
Es	-0.694608	-2.086206	-0.488812	99
Es	0.189584	0.723721	-0.033449	99
Es	3.643864	1.427244	-0.408981	99
Es	2.110234	2.278552	-0.263537	99
Es	3.707475	1.121694	-0.410188	99
Es	0.394235	-1.881187	-0.019029	99
Es	-1.418035	-0.144788	0.152815	99
Es	-0.339468	-1.757373	0.065823	99
Es	-0.035499	1.425439	-0.021916	99
Es	-2.156758	-0.011314	0.229241	99
Es	1.778896	0.025518	-0.179347	99
Es	-0.284035	0.206653	-0.310646	99
Es	-0.492152	-1.022128	0.069337	99
Es	-0.553259	-2.061935	0.700805	99
Es	1.547693	0.591439	-0.171030	99
Es	-0.213495	0.218392	0.354378	99
43
Properties=species:S:1:pos:R:3:Z:I:1 energy=-324.0043240159856 field_type=dipole dipole="0.000000 0.000000 0.000000" charge=0
C	-2.156796	-0.011307	0.229245	6
C	-0.683646	-0.292377	0.077105	6
C	-0.339476	-1.757417	0.065825	6
C	0.189324	0.723643	-0.033425	6
N	1.541574	0.572773	-0.173195	7
C	2.438724	1.600223	-0.285835	6
O	3.644204	1.427173	-0.409015	8
H	-2.377706	1.061273	0.236245	1
H	-2.527906	-0.432787	1.169155	1
H	-2.715416	-0.460007	-0.598665	1
H	-0.861226	-2.258777	-0.756275	1
H	-0.652136	-2.222947	1.006475	1
H	0.727354	-1.956467	-0.057645	1
H	-0.167666	1.752513	-0.013745	1
H	1.958663	-0.348667	-0.200165	1
H	1.982134	2.603153	-0.256085	1
Es	-0.553294	-2.061833	0.700824	99
Es	-0.339468	-1.757373	0.065823	99
Es	1.890290	0.987698	-0.063568	99
Es	3.799198	1.690835	-0.429847	99
Es	3.207417	1.483446	-0.616714	99
Es	-0.283974	0.206505	-0.310745	99
Es	2.110738	2.278476	-0.263133	99
Es	2.438588	1.600108	-0.285812	99
Es	-1.418094	-0.144661	0.152952	99
Es	0.189581	0.723721	-0.033455	99
Es	-0.492096	-1.022153	0.069287	99
Es	3.258482	1.493689	-0.118677	99
Es	1.776610	0.029539	-0.163844	99
Es	3.643903	1.427205	-0.408984	99
Es	-0.683712	-0.292470	0.077113	99
Es	3.708756	1.121921	-0.409534	99
Es	0.394284	-1.881273	-0.019032	99
Es	-0.213572	0.218340	0.353980	99
Es	0.971055	0.640236	-0.072716	99
Es	-2.300027	0.720866	0.233173	99
Es	-2.156758	-0.011314	0.229242	99
Es	-0.694689	-2.086190	-0.488781	99
Es	1.541751	0.573104	-0.172479	99
Es	1.582416	0.708208	-0.400346	99
Es	-0.035401	1.425471	-0.021670	99
Es	-2.528466	-0.320737	-0.332288	99
Es	-2.401220	-0.302260	0.865511	99
43
Properties=species:S:1:pos:R:3:Z:I:1 energy=-324.0043240159856 field_type=dipole dipole="0.000000 0.000000 0.000000" charge=0
C	-2.156796	-0.011307	0.229245	6
C	-0.683646	-0.292377	0.077105	6
C	-0.339476	-1.757417	0.065825	6
C	0.189324	0.723643	-0.033425	6
N	1.541574	0.572773	-0.173195	7
C	2.438724	1.600223	-0.285835	6
O	3.644204	1.427173	-0.409015	8
H	-2.377706	1.061273	0.236245	1
H	-2.527906	-0.432787	1.169155	1
H	-2.715416	-0.460007	-0.598665	1
H	-0.861226	-2.258777	-0.756275	1
H	-0.652136	-2.222947	1.006475	1
H	0.727354	-1.956467	-0.057645	1
H	-0.167666	1.752513	-0.013745	1
H	1.958663	-0.348667	-0.200165	1
H	1.982134	2.603153	-0.256085	1
Es	2.110175	2.278616	-0.263709	99
Es	-0.339466	-1.757378	0.065824	99
Es	-0.553291	-2.061918	0.700805	99
Es	3.206930	1.484856	-0.616351	99
Es	2.438579	1.600106	-0.285818	99
Es	1.552574	0.612409	-0.186880	99
Es	3.797854	1.690753	-0.429382	99
Es	0.394186	-1.881220	-0.018974	99
Es	1.913301	1.026743	-0.226129	99
Es	-0.694547	-2.086247	-0.488806	99
Es	3.710012	1.121636	-0.410972	99
Es	3.258980	1.492935	-0.117607	99
Es	-2.401258	-0.302288	0.865421	99
Es	-2.156759	-0.011313	0.229242	99
Es	0.189584	0.723720	-0.033438	99
Es	-0.492104	-1.022045	0.069190	99
Es	1.561241	0.630532	-0.156529	99
Es	-0.284006	0.206727	-0.310438	99
Es	-0.213399	0.218255	0.354364	99
Es	-0.683706	-0.292458	0.077120	99
Es	1.778345	0.024865	-0.188679	99
Es	-2.300078	0.720879	0.233221	99
Es	3.643852	1.427185	-0.408979	99
Es	-2.528413	-0.320737	-0.332328	99
Es	0.957310	0.643647	-0.114725	99
Es	-0.035466	1.425515	-0.021975	99
Es	-1.418131	-0.144670	0.152813	99
43
Properties=species:S:1:pos:R:3:Z:I:1 energy=-324.0043240159856 field_type=dipole dipole="0.000000 0.000000 0.000000" charge=0
C	-2.156796	-0.011307	0.229245	6
C	-0.683646	-0.292377	0.077105	6
C	-0.339476	-1.757417	0.065825	6
C	0.189324	0.723643	-0.033425	6
N	1.541574	0.572773	-0.173195	7
C	2.438724	1.600223	-0.285835	6
O	3.644204	1.427173	-0.409015	8
H	-2.377706	1.061273	0.236245	1
H	-2.527906	-0.432787	1.169155	1
H	-2.715416	-0.460007	-0.598665	1
H	-0.861226	-2.258777	-0.756275	1
H	-0.652136	-2.222947	1.006475	1
H	0.727354	-1.956467	-0.057645	1
H	-0.167666	1.752513	-0.013745	1
H	1.958663	-0.348667	-0.200165	1
H	1.982134	2.603153	-0.256085	1
Es	1.631560	0.719213	0.040581	99
Es	-0.683707	-0.292459	0.077128	99
Es	0.394180	-1.881235	-0.018990	99
Es	-1.418224	-0.144476	0.152694	99
Es	-0.035567	1.425474	-0.022244	99
Es	-0.339470	-1.757367	0.065824	99
Es	0.189574	0.723715	-0.033453	99
Es	3.259696	1.493247	-0.117521	99
Es	-0.284016	0.206774	-0.309905	99
Es	2.110642	2.278488	-0.264243	99
Es	-2.401189	-0.302339	0.865497	99
Es	1.855025	0.979195	-0.371955	99
Es	3.708378	1.121805	-0.410288	99
Es	-2.528380	-0.320764	-0.332336	99
Es	3.643930	1.427194	-0.408983	99
Es	3.799300	1.690429	-0.430710	99
Es	-0.553271	-2.061956	0.700768	99
Es	-0.492044	-1.022016	0.069130	99
Es	0.962739	0.638525	-0.155460	99
Es	-0.213323	0.217963	0.354347	99
Es	-2.300175	0.720817	0.233214	99
Es	1.541588	0.572993	-0.173790	99
Es	2.438582	1.600106	-0.285816	99
Es	-0.694535	-2.086239	-0.488800	99
Es	3.206548	1.484397	-0.615419	99
Es	1.771218	0.028934	-0.212226	99
Es	-2.156761	-0.011314	0.229237	99
43
Properties=species:S:1:pos:R:3:Z:I:1 energy=-324.0043240159856 field_type=dipole dipole="0.000000 0.000000 0.000000" charge=0
C	-2.156796	-0.011307	0.229245	6
C	-0.683646	-0.292377	0.077105	6
C	-0.339476	-1.757417	0.065825	6
C	0.189324	0.723643	-0.033425	6
N	1.541574	0.572773	-0.173195	7
C	2.438724	1.600223	-0.285835	6
O	3.644204	1.427173	-0.409015	8
H	-2.377706	1.061273	0.236245	1
H	-2.527906	-0.432787	1.169155	1
H	-2.715416	-0.460007	-0.598665	1
H	-0.861226	-2.258777	-0.756275	1
H	-0.652136	-2.222947	1.006475	1
H	0.727354	-1.956467	-0.057645	1
H	-0.167666	1.752513	-0.013745	1
H	1.958663	-0.348667	-0.200165	1
H	1.982134	2.603153	-0.256085	1
Es	1.856677	0.980651	-0.369666	99
Es	3.801788	1.689186	-0.430572	99
Es	3.206355	1.485960	-0.614979	99
Es	-2.300083	0.720892	0.233246	99
Es	-0.035606	1.425510	-0.022197	99
Es	3.705612	1.121827	-0.411679	99
Es	-0.683705	-0.292456	0.077110	99
Es	0.962864	0.638568	-0.156294	99
Es	2.438581	1.600106	-0.285814	99
Es	-0.284059	0.206802	-0.309854	99
Es	-0.553240	-2.061822	0.700824	99
Es	0.189578	0.723720	-0.033454	99
Es	3.260235	1.492878	-0.116695	99
Es	2.110641	2.278504	-0.264216	99
Es	-2.156763	-0.011316	0.229242	99
Es	-2.528400	-0.320730	-0.332350	99
Es	-0.694616	-2.086312	-0.488785	99
Es	-0.492009	-1.022137	0.069059	99
Es	-0.339466	-1.757375	0.065823	99
Es	1.771226	0.029040	-0.212692	99
Es	1.629719	0.717334	0.039781	99
Es	0.394199	-1.881231	-0.018994	99
Es	-0.213302	0.217932	0.354190	99
Es	3.643856	1.427213	-0.408983	99
Es	-1.418177	-0.144598	0.152846	99
Es	1.541662	0.573245	-0.173994	99
Es	-2.401270	-0.302287	0.865378	99
43
Properties=species:S:1:pos:R:3:Z:I:1 energy=-324.0043240159856 field_type=dipole dipole="0.000000 0.000000 0.000000" charge=0
C	-2.156796	-0.011307	0.229245	6
C	-0.683646	-0.292377	0.077105	6
C	-0.339476	-1.757417	0.065825	6
C	0.189324	0.723643	-0.033425	6
N	1.541574	0.572773	-0.173195	7
C	2.438724	1.600223	-0.285835	6
O	3.644204	1.427173	-0.409015	8
H	-2.377706	1.061273	0.236245	1
H	-2.527906	-0.432787	1.169155	1
H	-2.715416	-0.460007	-0.598665	1
H	-0.861226	-2.258777	-0.756275	1
H	-0.652136	-2.222947	1.006475	1
H	0.727354	-1.956467	-0.057645	1
H	-0.167666	1.752513	-0.013745	1
H	1.958663	-0.348667	-0.200165	1
H	1.982134	2.603153	-0.256085	1
Es	1.856093	0.980336	-0.369989	99
Es	-0.213392	0.217960	0.354234	99
Es	2.438582	1.600107	-0.285818	99
Es	3.206928	1.485096	-0.615518	99
Es	1.630378	0.717539	0.041990	99
Es	0.963074	0.638389	-0.156847	99
Es	-0.339469	-1.757374	0.065824	99
Es	1.770988	0.029427	-0.214113	99
Es	-0.283978	0.206777	-0.309646	99
Es	-0.491974	-1.022169	0.069101	99
Es	-2.156762	-0.011313	0.229237	99
Es	3.643816	1.427199	-0.408968	99
Es	-0.694564	-2.086180	-0.488849	99
Es	1.541603	0.573091	-0.173912	99
Es	-0.553268	-2.061977	0.700841	99
Es	3.708961	1.121681	-0.411042	99
Es	-0.035548	1.425511	-0.022263	99
Es	-1.418187	-0.144474	0.152606	99
Es	-0.683705	-0.292461	0.077111	99
Es	0.189578	0.723720	-0.033452	99
Es	-2.528408	-0.320605	-0.332322	99
Es	-2.300080	0.720818	0.233264	99
Es	3.798691	1.689927	-0.430286	99
Es	2.110641	2.278529	-0.264221	99
Es	-2.401297	-0.302366	0.865459	99
Es	3.259453	1.493137	-0.117107	99
Es	0.394142	-1.881223	-0.019034	99
43
Properties=species:S:1:pos:R:3:Z:I:1 energy=-324.0043240159856 field_type=dipole dipole="0.000000 0.000000 0.000000" charge=0
C	-2.156796	-0.011307	0.229245	6
C	-0.683646	-0.292377	0.077105	6
C	-0.339476	-1.757417	0.065825	6
C	0.189324	0.723643	-0.033425	6
N	1.541574	0.572773	-0.173195	7
C	2.438724	1.600223	-0.285835	6
O	3.644204	1.427173	-0.409015	8
H	-2.377706	1.061273	0.236245	1
H	-2.527906	-0.432787	1.169155	1
H	-2.715416	-0.460007	-0.598665	1
H	-0.861226	-2.258777	-0.756275	1
H	-0.652136	-2.222947	1.006475	1
H	0.727354	-1.956467	-0.057645	1
H	-0.167666	1.752513	-0.013745	1
H	1.958663	-0.348667	-0.200165	1
H	1.982134	2.603153	-0.256085	1
Es	0.963155	0.638241	-0.156391	99
Es	1.633519	0.721577	0.044291	99
Es	0.189580	0.723720	-0.033450	99
Es	-2.401347	-0.302316	0.865398	99
Es	1.541635	0.573131	-0.173875	99
Es	-0.553330	-2.061881	0.700829	99
Es	-0.694558	-2.086226	-0.488833	99
Es	-0.683703	-0.292455	0.077116	99
Es	-0.491825	-1.022161	0.069099	99
Es	-0.284066	0.206757	-0.309637	99
Es	2.110656	2.278549	-0.264171	99
Es	-2.156759	-0.011314	0.229241	99
Es	3.709417	1.121744	-0.410062	99
Es	-0.213301	0.217922	0.353995	99
Es	-0.035664	1.425546	-0.022243	99
Es	-2.528366	-0.320647	-0.332286	99
Es	1.771127	0.029021	-0.211986	99
Es	2.438581	1.600105	-0.285821	99
Es	1.852682	0.976900	-0.374930	99
Es	-0.339469	-1.757376	0.065827	99
Es	3.259839	1.493835	-0.117220	99
Es	3.798236	1.690110	-0.431212	99
Es	3.206501	1.484117	-0.615442	99
Es	-2.300126	0.720849	0.233216	99
Es	-1.418148	-0.144583	0.152775	99
Es	0.394168	-1.881269	-0.018966	99
Es	3.643862	1.427209	-0.408980	99
43
Properties=species:S:1:pos:R:3:Z:I:1 energy=-324.0043240159856 field_type=dipole dipole="0.000000 0.000000 0.000000" charge=0
C	-2.156796	-0.011307	0.229245	6
C	-0.683646	-0.292377	0.077105	6
C	-0.339476	-1.757417	0.065825	6
C	0.189324	0.723643	-0.033425	6
N	1.541574	0.572773	-0.173195	7
C	2.438724	1.600223	-0.285835	6
O	3.644204	1.427173	-0.409015	8
H	-2.377706	1.061273	0.236245	1
H	-2.527906	-0.432787	1.169155	1
H	-2.715416	-0.460007	-0.598665	1
H	-0.861226	-2.258777	-0.756275	1
H	-0.652136	-2.222947	1.006475	1
H	0.727354	-1.956467	-0.057645	1
H	-0.167666	1.752513	-0.013745	1
H	1.958663	-0.348667	-0.200165	1
H	1.982134	2.603153	-0.256085	1
Es	2.438582	1.600107	-0.285815	99
Es	0.394163	-1.881301	-0.019109	99
Es	1.630337	0.717674	0.041558	99
Es	-0.694533	-2.086093	-0.488742	99
Es	-1.418248	-0.144463	0.152643	99
Es	-0.035710	1.425539	-0.022211	99
Es	2.110656	2.278609	-0.264187	99
Es	1.541701	0.573384	-0.174154	99
Es	-0.683703	-0.292455	0.077111	99
Es	-0.283944	0.206708	-0.309455	99
Es	-2.401253	-0.302224	0.865447	99
Es	-0.339467	-1.757374	0.065824	99
Es	-0.213377	0.217937	0.353938	99
Es	-2.528456	-0.320741	-0.332364	99
Es	3.708448	1.122347	-0.410751	99
Es	-2.156759	-0.011314	0.229242	99
Es	3.799407	1.689946	-0.430181	99
Es	3.206500	1.484617	-0.615745	99
Es	3.643800	1.427410	-0.408977	99
Es	1.855998	0.980058	-0.370269	99
Es	-0.491850	-1.022151	0.069191	99
Es	0.189578	0.723720	-0.033458	99
Es	3.259684	1.492635	-0.117256	99
Es	-0.553312	-2.062038	0.700828	99
Es	0.963084	0.638528	-0.156630	99
Es	-2.300072	0.720812	0.233217	99
Es	1.771044	0.029227	-0.213415	99
