37
Properties=species:S:1:pos:R:3:Z:I:1 energy=-321.59454315408226 field_type=dipole dipole="0.000000 0.000000 0.000000" charge=0
C	-2.470727	-0.189929	0.182574	6
C	-1.026727	-0.189929	0.182574	6
C	0.163433	-0.189929	0.182574	6
C	1.607433	-0.189929	0.182574	6
O	2.075533	-0.910409	-0.963046	8
C	2.089453	1.171241	0.182574	6
N	2.473663	2.256231	0.182574	7
H	-2.864707	0.830961	0.194224	1
H	-2.864797	-0.710449	1.060824	1
H	-2.864747	-0.690229	-0.707376	1
H	1.984743	-0.720559	1.062664	1
H	1.697453	-0.467069	-1.742736	1
Es	-0.401558	0.028068	0.468702	99
Es	-2.712249	-0.523491	-0.411120	99
Es	-2.713118	0.490450	0.190010	99
Es	2.089326	1.170915	0.182584	99
Es	-2.713492	-0.537298	0.768281	99
Es	2.589803	1.660477	0.211771	99
Es	1.879480	-0.597188	-0.529781	99
Es	-0.412472	-0.549966	0.225627	99
Es	1.851740	-0.518188	0.764758	99
Es	-1.026983	-0.189930	0.182563	99
Es	1.856651	0.530051	0.181087	99
Es	0.870868	-0.170129	0.187342	99
Es	2.378029	-0.866481	-0.968835	99
Es	2.075389	-0.910127	-0.963047	99
Es	2.173548	1.796352	-0.101119	99
Es	2.124731	1.808463	0.433851	99
Es	-0.404431	-0.045058	-0.154894	99
Es	-1.722666	-0.190307	0.182254	99
Es	1.942548	-1.179946	-0.936110	99
Es	2.473511	2.255804	0.182573	99
Es	0.163720	-0.189918	0.182575	99
Es	1.607446	-0.189858	0.182357	99
Es	2.595188	2.603173	0.182114	99
Es	-2.470599	-0.189931	0.182574	99
Es	1.864213	-0.659362	-1.365565	99
37
Properties=species:S:1:pos:R:3:Z:I:1 energy=-321.59454315408226 field_type=dipole dipole="0.000000 0.000000 0.000000" charge=0
C	-2.470727	-0.189929	0.182574	6
C	-1.026727	-0.189929	0.182574	6
C	0.163433	-0.189929	0.182574	6
C	1.607433	-0.189929	0.182574	6
O	2.075533	-0.910409	-0.963046	8
C	2.089453	1.171241	0.182574	6
N	2.473663	2.256231	0.182574	7
H	-2.864707	0.830961	0.194224	1
H	-2.864797	-0.710449	1.060824	1
H	-2.864747	-0.690229	-0.707376	1
H	1.984743	-0.720559	1.062664	1
H	1.697453	-0.467069	-1.742736	1
Es	-2.713315	0.490440	0.190240	99
Es	0.163730	-0.189929	0.182575	99
Es	1.864479	-0.658749	-1.365387	99
Es	1.607446	-0.189858	0.182357	99
Es	-0.412735	-0.548311	0.233942	99
Es	1.856542	0.529910	0.180964	99
Es	2.089326	1.170898	0.182584	99
Es	-2.713059	-0.537277	0.768237	99
Es	-1.722638	-0.190139	0.181933	99
Es	2.156422	1.803904	-0.091822	99
Es	2.590871	1.659516	0.190580	99
Es	0.870800	-0.170108	0.187342	99
Es	-0.401730	0.034352	0.464129	99
Es	1.881192	-0.596490	-0.529365	99
Es	2.595042	2.602971	0.182273	99
Es	1.941337	-1.179728	-0.936082	99
Es	-1.026987	-0.189926	0.182563	99
Es	1.851779	-0.518095	0.764806	99
Es	-0.403933	-0.053014	-0.158539	99
Es	-2.712530	-0.523621	-0.411057	99
Es	2.473513	2.255805	0.182573	99
Es	-2.470601	-0.189931	0.182573	99
Es	2.377438	-0.868025	-0.969548	99
Es	2.075283	-0.910140	-0.963053	99
Es	2.140951	1.802119	0.445734	99
37
Properties=species:S:1:pos:R:3:Z:I:1 energy=-321.59454315408226 field_type=dipole dipole="0.000000 0.000000 0.000000" charge=0
C	-2.470727	-0.189929	0.182574	6
C	-1.026727	-0.189929	0.182574	6
C	0.163433	-0.189929	0.182574	6
C	1.607433	-0.189929	0.182574	6
O	2.075533	-0.910409	-0.963046	8
C	2.089453	1.171241	0.182574	6
N	2.473663	2.256231	0.182574	7
H	-2.864707	0.830961	0.194224	1
H	-2.864797	-0.710449	1.060824	1
H	-2.864747	-0.690229	-0.707376	1
H	1.984743	-0.720559	1.062664	1
H	1.697453	-0.467069	-1.742736	1
Es	1.865294	-0.658801	-1.365753	99
Es	2.075362	-0.910059	-0.963055	99
Es	2.473512	2.255807	0.182572	99
Es	2.149387	1.798946	0.451381	99
Es	2.595057	2.602694	0.182301	99
Es	1.856573	0.529918	0.180879	99
Es	1.851729	-0.518094	0.764874	99
Es	-2.470603	-0.189931	0.182574	99
Es	0.163730	-0.189924	0.182570	99
Es	2.378260	-0.868823	-0.968540	99
Es	-1.026986	-0.189931	0.182567	99
Es	0.870926	-0.169885	0.187259	99
Es	-1.722776	-0.190125	0.181935	99
Es	2.089320	1.170893	0.182572	99
Es	1.880171	-0.596566	-0.529956	99
Es	-2.712508	-0.523578	-0.411118	99
Es	1.607447	-0.189856	0.182361	99
Es	-2.713164	0.490477	0.190201	99
Es	2.147797	1.807739	-0.086844	99
Es	-0.401290	0.011400	0.481235	99
Es	2.590971	1.659141	0.180003	99
Es	-0.405610	-0.027341	-0.146720	99
Es	-2.713056	-0.537345	0.768426	99
Es	1.940644	-1.178927	-0.936186	99
Es	-0.411563	-0.551257	0.205015	99
37
Properties=species:S:1:pos:R:3:Z:I:1 energy=-321.59454315408226 field_type=dipole dipole="0.000000 0.000000 0.000000" charge=0
C	-2.470727	-0.189929	0.182574	6
C	-1.026727	-0.189929	0.182574	6
C	0.163433	-0.189929	0.182574	6
C	1.607433	-0.189929	0.182574	6
O	2.075533	-0.910409	-0.963046	8
C	2.089453	1.171241	0.182574	6
N	2.473663	2.256231	0.182574	7
H	-2.864707	0.830961	0.194224	1
H	-2.864797	-0.710449	1.060824	1
H	-2.864747	-0.690229	-0.707376	1
H	1.984743	-0.720559	1.062664	1
H	1.697453	-0.467069	-1.742736	1
Es	2.124782	1.808661	0.434609	99
Es	0.163729	-0.189923	0.182576	99
Es	1.856548	0.529794	0.181059	99
Es	-2.712225	-0.523721	-0.411164	99
Es	1.607445	-0.189858	0.182360	99
Es	-0.403419	-0.061126	-0.161266	99
Es	-2.470601	-0.189931	0.182573	99
Es	1.865448	-0.658367	-1.365742	99
Es	-2.713195	0.490553	0.190001	99
Es	2.173085	1.796807	-0.101447	99
Es	-0.413126	-0.547280	0.242801	99
Es	1.882254	-0.595481	-0.529691	99
Es	2.590443	1.660515	0.211497	99
Es	1.938034	-1.176877	-0.935799	99
Es	2.594947	2.602534	0.182102	99
Es	-0.401894	0.041627	0.457966	99
Es	-1.026981	-0.189930	0.182565	99
Es	-2.713194	-0.537307	0.768434	99
Es	2.473511	2.255804	0.182573	99
Es	2.089327	1.170894	0.182578	99
Es	2.075338	-0.910138	-0.963045	99
Es	1.851680	-0.518126	0.764893	99
Es	0.870956	-0.170082	0.187312	99
Es	-1.722914	-0.190144	0.182156	99
Es	2.378647	-0.872326	-0.969349	99
37
Properties=species:S:1:pos:R:3:Z:I:1 energy=-321.59454315408226 field_type=dipole dipole="0.000000 0.000000 0.000000" charge=0
C	-2.470727	-0.189929	0.182574	6
C	-1.026727	-0.189929	0.182574	6
C	0.163433	-0.189929	0.182574	6
C	1.607433	-0.189929	0.182574	6
O	2.075533	-0.910409	-0.963046	8
C	2.089453	1.171241	0.182574	6
N	2.473663	2.256231	0.182574	7
H	-2.864707	0.830961	0.194224	1
H	-2.864797	-0.710449	1.060824	1
H	-2.864747	-0.690229	-0.707376	1
H	1.984743	-0.720559	1.062664	1
H	1.697453	-0.467069	-1.742736	1
Es	0.163731	-0.189921	0.182577	99
Es	1.607445	-0.189858	0.182364	99
Es	-2.712285	-0.523623	-0.411315	99
Es	-0.412423	-0.549899	0.225172	99
Es	-1.722985	-0.190125	0.182169	99
Es	1.851761	-0.518092	0.765016	99
Es	-2.470603	-0.189931	0.182572	99
Es	2.591711	1.659827	0.203511	99
Es	-0.401503	0.027645	0.469189	99
Es	1.856339	0.529779	0.180925	99
Es	2.473509	2.255794	0.182571	99
Es	-0.404481	-0.044753	-0.154760	99
Es	-2.713029	-0.537480	0.768287	99
Es	-1.026986	-0.189930	0.182564	99
Es	1.941631	-1.178750	-0.937227	99
Es	2.377676	-0.868349	-0.968570	99
Es	1.865447	-0.658476	-1.365712	99
Es	2.075392	-0.910195	-0.963050	99
Es	2.089332	1.170889	0.182582	99
Es	0.871005	-0.169944	0.187175	99
Es	2.594903	2.602225	0.182190	99
Es	1.879613	-0.597401	-0.529100	99
Es	2.130761	1.806421	0.438840	99
Es	-2.713223	0.490630	0.190318	99
Es	2.165886	1.800091	-0.097735	99
37
Properties=species:S:1:pos:R:3:Z:I:1 energy=-321.59454315408226 field_type=dipole dipole="0.000000 0.000000 0.000000" charge=0
C	-2.470727	-0.189929	0.182574	6
C	-1.026727	-0.189929	0.182574	6
C	0.163433	-0.189929	0.182574	6
C	1.607433	-0.189929	0.182574	6
O	2.075533	-0.910409	-0.963046	8
C	2.089453	1.171241	0.182574	6
N	2.473663	2.256231	0.182574	7
H	-2.864707	0.830961	0.194224	1
H	-2.864797	-0.710449	1.060824	1
H	-2.864747	-0.690229	-0.707376	1
H	1.984743	-0.720559	1.062664	1
H	1.697453	-0.467069	-1.742736	1
Es	-0.412148	-0.550789	0.217564	99
Es	2.473511	2.255804	0.182574	99
Es	-0.401275	0.021083	0.473679	99
Es	-2.470601	-0.189931	0.182572	99
Es	1.879948	-0.597262	-0.529145	99
Es	2.118109	1.811508	0.429825	99
Es	-2.712358	-0.523830	-0.411339	99
Es	2.590123	1.661137	0.220212	99
Es	2.180452	1.793784	-0.105298	99
Es	0.871005	-0.169922	0.187176	99
Es	2.075300	-0.910101	-0.963068	99
Es	1.851705	-0.518008	0.765057	99
Es	2.594599	2.602130	0.181995	99
Es	1.940327	-1.177074	-0.937114	99
Es	2.378744	-0.870393	-0.968560	99
Es	1.856332	0.529730	0.180969	99
Es	-2.713225	0.490641	0.190276	99
Es	2.089313	1.170889	0.182589	99
Es	-2.712820	-0.537377	0.768433	99
Es	-0.404955	-0.037274	-0.151636	99
Es	-1.026983	-0.189930	0.182565	99
Es	1.607446	-0.189858	0.182359	99
Es	-1.723132	-0.189995	0.182090	99
Es	1.865484	-0.658443	-1.365795	99
Es	0.163724	-0.189943	0.182574	99
37
Properties=species:S:1:pos:R:3:Z:I:1 energy=-321.59454315408226 field_type=dipole dipole="0.000000 0.000000 0.000000" charge=0
C	-2.470727	-0.189929	0.182574	6
C	-1.026727	-0.189929	0.182574	6
C	0.163433	-0.189929	0.182574	6
C	1.607433	-0.189929	0.182574	6
O	2.075533	-0.910409	-0.963046	8
C	2.089453	1.171241	0.182574	6
N	2.473663	2.256231	0.182574	7
H	-2.864707	0.830961	0.194224	1
H	-2.864797	-0.710449	1.060824	1
H	-2.864747	-0.690229	-0.707376	1
H	1.984743	-0.720559	1.062664	1
H	1.697453	-0.467069	-1.742736	1
Es	-0.404203	-0.049015	-0.156678	99
Es	1.607446	-0.189858	0.182359	99
Es	2.119000	1.811119	0.430667	99
Es	1.851676	-0.518030	0.765100	99
Es	2.089323	1.170896	0.182579	99
Es	1.865437	-0.658731	-1.365754	99
Es	1.940908	-1.177805	-0.937030	99
Es	-2.712228	-0.523877	-0.411260	99
Es	-2.470602	-0.189931	0.182573	99
Es	2.595163	2.601706	0.182930	99
Es	0.163731	-0.189922	0.182564	99
Es	-2.712874	-0.537384	0.768475	99
Es	2.473511	2.255802	0.182574	99
Es	2.377923	-0.869724	-0.968957	99
Es	2.178103	1.795282	-0.103892	99
Es	-0.412574	-0.549112	0.229645	99
Es	1.856319	0.529691	0.181060	99
Es	-0.401605	0.031146	0.466576	99
Es	-1.026984	-0.189926	0.182560	99
Es	-1.723226	-0.190137	0.182112	99
Es	1.880200	-0.596897	-0.528975	99
Es	0.871087	-0.169874	0.187263	99
Es	-2.713200	0.490798	0.190134	99
Es	2.590958	1.660476	0.216984	99
Es	2.075334	-0.910120	-0.963056	99
37
Properties=species:S:1:pos:R:3:Z:I:1 energy=-321.59454315408226 field_type=dipole dipole="0.000000 0.000000 0.000000" charge=0
C	-2.470727	-0.189929	0.182574	6
C	-1.026727	-0.189929	0.182574	6
C	0.163433	-0.189929	0.182574	6
C	1.607433	-0.189929	0.182574	6
O	2.075533	-0.910409	-0.963046	8
C	2.089453	1.171241	0.182574	6
N	2.473663	2.256231	0.182574	7
H	-2.864707	0.830961	0.194224	1
H	-2.864797	-0.710449	1.060824	1
H	-2.864747	-0.690229	-0.707376	1
H	1.984743	-0.720559	1.062664	1
H	1.697453	-0.467069	-1.742736	1
Es	-2.713085	0.490838	0.190287	99
Es	-2.712910	-0.537580	0.768475	99
Es	1.938885	-1.176430	-0.936480	99
Es	-1.723400	-0.190104	0.182183	99
Es	2.377889	-0.872499	-0.968637	99
Es	0.871076	-0.169746	0.187235	99
Es	2.106835	1.816195	0.420415	99
Es	2.473511	2.255803	0.182573	99
Es	0.163726	-0.189926	0.182573	99
Es	1.866408	-0.658485	-1.366432	99
Es	-1.026981	-0.189935	0.182570	99
Es	2.594640	2.601782	0.182184	99
Es	-0.413030	-0.547266	0.242491	99
Es	1.856280	0.529581	0.181163	99
Es	2.193075	1.788614	-0.110625	99
Es	-2.712144	-0.523715	-0.411456	99
Es	2.075323	-0.910106	-0.963028	99
Es	2.588715	1.661992	0.234636	99
Es	2.089334	1.170904	0.182575	99
Es	1.851682	-0.518049	0.765142	99
Es	-0.403483	-0.060716	-0.161315	99
Es	1.607445	-0.189858	0.182361	99
Es	-0.401837	0.040965	0.458346	99
Es	1.881272	-0.595753	-0.529260	99
Es	-2.470603	-0.189931	0.182573	99
37
Properties=species:S:1:pos:R:3:Z:I:1 energy=-321.59454315408226 field_type=dipole dipole="0.000000 0.000000 0.000000" charge=0
C	-2.470727	-0.189929	0.182574	6
C	-1.026727	-0.189929	0.182574	6
C	0.163433	-0.189929	0.182574	6
C	1.607433	-0.189929	0.182574	6
O	2.075533	-0.910409	-0.963046	8
C	2.089453	1.171241	0.182574	6
N	2.473663	2.256231	0.182574	7
H	-2.864707	0.830961	0.194224	1
H	-2.864797	-0.710449	1.060824	1
H	-2.864747	-0.690229	-0.707376	1
H	1.984743	-0.720559	1.062664	1
H	1.697453	-0.467069	-1.742736	1
Es	2.166997	1.799905	-0.099264	99
Es	1.880578	-0.596255	-0.529057	99
Es	1.607446	-0.189857	0.182355	99
Es	-2.712115	-0.523801	-0.411365	99
Es	1.940557	-1.177165	-0.936616	99
Es	-0.412141	-0.550622	0.218383	99
Es	-1.026984	-0.189936	0.182567	99
Es	-1.723415	-0.190095	0.182110	99
Es	2.473511	2.255804	0.182573	99
Es	-2.712883	-0.537541	0.768606	99
Es	-0.401333	0.022023	0.473262	99
Es	1.866000	-0.658897	-1.366536	99
Es	2.377342	-0.870938	-0.968644	99
Es	1.856078	0.529544	0.180859	99
Es	-2.470600	-0.189931	0.182573	99
Es	2.594448	2.601403	0.182253	99
Es	2.089334	1.170895	0.182571	99
Es	-2.713109	0.490848	0.190141	99
Es	-0.404878	-0.038391	-0.152076	99
Es	2.075315	-0.910072	-0.963040	99
Es	2.129666	1.807105	0.439234	99
Es	0.871087	-0.169751	0.187248	99
Es	0.163727	-0.189926	0.182576	99
Es	2.592184	1.660144	0.204590	99
Es	1.851808	-0.517920	0.765251	99
37
Properties=species:S:1:pos:R:3:Z:I:1 energy=-321.59454315408226 field_type=dipole dipole="0.000000 0.000000 0.000000" charge=0
C	-2.470727	-0.189929	0.182574	6
C	-1.026727	-0.189929	0.182574	6
C	0.163433	-0.189929	0.182574	6
C	1.607433	-0.189929	0.182574	6
O	2.075533	-0.910409	-0.963046	8
C	2.089453	1.171241	0.182574	6
N	2.473663	2.256231	0.182574	7
H	-2.864707	0.830961	0.194224	1
H	-2.864797	-0.710449	1.060824	1
H	-2.864747	-0.690229	-0.707376	1
H	1.984743	-0.720559	1.062664	1
H	1.697453	-0.467069	-1.742736	1
Es	-2.712834	-0.537454	0.768633	99
Es	-0.401625	0.033185	0.464871	99
Es	2.170528	1.798356	-0.101249	99
Es	2.594446	2.601365	0.182166	99
Es	2.591916	1.660390	0.209156	99
Es	-2.470607	-0.189928	0.182572	99
Es	-1.723513	-0.190095	0.182177	99
Es	-0.412664	-0.548967	0.232047	99
Es	0.871174	-0.169702	0.187236	99
Es	2.089327	1.170900	0.182575	99
Es	2.126395	1.808434	0.436742	99
Es	1.865672	-0.659260	-1.366574	99
Es	2.075306	-0.910177	-0.963055	99
Es	-2.713033	0.490853	0.190157	99
Es	1.851601	-0.517982	0.765253	99
Es	-2.712154	-0.523893	-0.411459	99
Es	1.941493	-1.177794	-0.936446	99
Es	2.376889	-0.869828	-0.968766	99
Es	2.473513	2.255811	0.182573	99
Es	0.163726	-0.189925	0.182574	99
Es	-0.404039	-0.051186	-0.157418	99
Es	1.856154	0.529566	0.180961	99
Es	1.880487	-0.596310	-0.529099	99
Es	-1.026982	-0.189928	0.182564	99
Es	1.607446	-0.189858	0.182360	99
37
Properties=species:S:1:pos:R:3:Z:I:1 energy=-321.59454315408226 field_type=dipole dipole="0.000000 0.000000 0.000000" charge=0
C	-2.470727	-0.189929	0.182574	6
C	-1.026727	-0.189929	0.182574	6
C	0.163433	-0.189929	0.182574	6
C	1.607433	-0.189929	0.182574	6
O	2.075533	-0.910409	-0.963046	8
C	2.089453	1.171241	0.182574	6
N	2.473663	2.256231	0.182574	7
H	-2.864707	0.830961	0.194224	1
H	-2.864797	-0.710449	1.060824	1
H	-2.864747	-0.690229	-0.707376	1
H	1.984743	-0.720559	1.062664	1
H	1.697453	-0.467069	-1.742736	1
Es	2.075313	-0.910173	-0.963050	99
Es	2.089330	1.170900	0.182586	99
Es	-0.404837	-0.039111	-0.152293	99
Es	2.587894	1.662822	0.242233	99
Es	-1.723620	-0.190160	0.182163	99
Es	-1.026987	-0.189924	0.182563	99
Es	2.198819	1.786265	-0.113988	99
Es	-2.470600	-0.189931	0.182574	99
Es	-0.412151	-0.550670	0.219381	99
Es	-2.713042	0.490936	0.190281	99
Es	-2.712108	-0.523815	-0.411529	99
Es	2.594227	2.601160	0.181880	99
Es	0.871127	-0.169667	0.187166	99
Es	1.880614	-0.595965	-0.529163	99
Es	1.851665	-0.517980	0.765199	99
Es	-0.401293	0.022819	0.472567	99
Es	-2.712769	-0.537614	0.768608	99
Es	1.607445	-0.189860	0.182360	99
Es	2.376940	-0.871779	-0.968132	99
Es	0.163728	-0.189919	0.182576	99
Es	1.940316	-1.176534	-0.936526	99
Es	1.856098	0.529485	0.181113	99
Es	1.866651	-0.658856	-1.367185	99
Es	2.102354	1.818342	0.416596	99
Es	2.473511	2.255803	0.182571	99
37
Properties=species:S:1:pos:R:3:Z:I:1 energy=-321.59454315408226 field_type=dipole dipole="0.000000 0.000000 0.000000" charge=0
C	-2.470727	-0.189929	0.182574	6
C	-1.026727	-0.189929	0.182574	6
C	0.163433	-0.189929	0.182574	6
C	1.607433	-0.189929	0.182574	6
O	2.075533	-0.910409	-0.963046	8
C	2.089453	1.171241	0.182574	6
N	2.473663	2.256231	0.182574	7
H	-2.864707	0.830961	0.194224	1
H	-2.864797	-0.710449	1.060824	1
H	-2.864747	-0.690229	-0.707376	1
H	1.984743	-0.720559	1.062664	1
H	1.697453	-0.467069	-1.742736	1
Es	1.867065	-0.658508	-1.366977	99
Es	2.152892	1.798194	0.454616	99
Es	-1.026984	-0.189929	0.182565	99
Es	2.473514	2.255812	0.182573	99
Es	-2.712713	-0.537527	0.768677	99
Es	1.851700	-0.517922	0.765362	99
Es	2.377559	-0.874628	-0.968550	99
Es	-0.412499	-0.549398	0.228109	99
Es	1.855917	0.529482	0.180838	99
Es	2.143270	1.810424	-0.085424	99
Es	0.871210	-0.169669	0.187222	99
Es	2.594410	2.600982	0.182579	99
Es	1.607445	-0.189859	0.182362	99
Es	-2.712033	-0.523986	-0.411459	99
Es	-0.404281	-0.047493	-0.156003	99
Es	-1.723672	-0.190037	0.182161	99
Es	-0.401512	0.029919	0.467464	99
Es	1.881826	-0.595226	-0.528959	99
Es	2.075318	-0.910152	-0.963086	99
Es	-2.470611	-0.189933	0.182574	99
Es	1.938081	-1.174849	-0.936509	99
Es	0.163724	-0.189926	0.182575	99
Es	2.592778	1.658926	0.175137	99
Es	-2.713106	0.490978	0.190128	99
Es	2.089327	1.170898	0.182574	99
37
Properties=species:S:1:pos:R:3:Z:I:1 energy=-321.59454315408226 field_type=dipole dipole="0.000000 0.000000 0.000000" charge=0
C	-2.470727	-0.189929	0.182574	6
C	-1.026727	-0.189929	0.182574	6
C	0.163433	-0.189929	0.182574	6
C	1.607433	-0.189929	0.182574	6
O	2.075533	-0.910409	-0.963046	8
C	2.089453	1.171241	0.182574	6
N	2.473663	2.256231	0.182574	7
H	-2.864707	0.830961	0.194224	1
H	-2.864797	-0.710449	1.060824	1
H	-2.864747	-0.690229	-0.707376	1
H	1.984743	-0.720559	1.062664	1
H	1.697453	-0.467069	-1.742736	1
Es	2.178649	1.795227	-0.105125	99
Es	-1.723760	-0.190124	0.182130	99
Es	0.163722	-0.189921	0.182574	99
Es	1.851644	-0.517944	0.765483	99
Es	2.118586	1.811646	0.431538	99
Es	2.592032	1.660866	0.217766	99
Es	-1.026986	-0.189924	0.182566	99
Es	0.871324	-0.169497	0.187132	99
Es	-2.712990	0.491046	0.190187	99
Es	1.866082	-0.659591	-1.366922	99
Es	-0.412459	-0.549539	0.227498	99
Es	2.089338	1.170900	0.182598	99
Es	2.376613	-0.870102	-0.968543	99
Es	2.473512	2.255807	0.182566	99
Es	1.607445	-0.189858	0.182361	99
Es	1.855913	0.529398	0.181015	99
Es	-0.401464	0.029064	0.467851	99
Es	2.075334	-0.910136	-0.963059	99
Es	-2.712722	-0.537545	0.768682	99
Es	-0.404365	-0.046577	-0.155691	99
Es	2.594018	2.600830	0.182517	99
Es	-2.470605	-0.189932	0.182575	99
Es	1.879760	-0.596444	-0.528728	99
Es	-2.712061	-0.523950	-0.411534	99
Es	1.942062	-1.177128	-0.936886	99
37
Properties=species:S:1:pos:R:3:Z:I:1 energy=-321.59454315408226 field_type=dipole dipole="0.000000 0.000000 0.000000" charge=0
C	-2.470727	-0.189929	0.182574	6
C	-1.026727	-0.189929	0.182574	6
C	0.163433	-0.189929	0.182574	6
C	1.607433	-0.189929	0.182574	6
O	2.075533	-0.910409	-0.963046	8
C	2.089453	1.171241	0.182574	6
N	2.473663	2.256231	0.182574	7
H	-2.864707	0.830961	0.194224	1
H	-2.864797	-0.710449	1.060824	1
H	-2.864747	-0.690229	-0.707376	1
H	1.984743	-0.720559	1.062664	1
H	1.697453	-0.467069	-1.742736	1
Es	1.607444	-0.189858	0.182366	99
Es	2.124225	1.809404	0.436735	99
Es	1.941498	-1.176779	-0.936428	99
Es	2.592083	1.660788	0.210333	99
Es	0.163717	-0.189929	0.182577	99
Es	-0.411699	-0.551413	0.209108	99
Es	2.376642	-0.870862	-0.968911	99
Es	2.173086	1.797682	-0.102867	99
Es	2.594005	2.600665	0.182570	99
Es	0.871166	-0.169444	0.187132	99
Es	-2.470605	-0.189931	0.182573	99
Es	-2.712935	0.491074	0.190185	99
Es	2.089314	1.170905	0.182550	99
Es	2.075378	-0.910095	-0.963031	99
Es	-0.401138	0.014556	0.478727	99
Es	1.851673	-0.517954	0.765448	99
Es	1.880623	-0.596031	-0.528847	99
Es	1.865707	-0.659597	-1.366972	99
Es	-1.026979	-0.189931	0.182566	99
Es	-2.712708	-0.537607	0.768761	99
Es	2.473511	2.255804	0.182573	99
Es	-0.405385	-0.030086	-0.148189	99
Es	-2.711984	-0.523955	-0.411625	99
Es	-1.723879	-0.190176	0.182181	99
Es	1.855864	0.529340	0.181037	99
37
Properties=species:S:1:pos:R:3:Z:I:1 energy=-321.59454315408226 field_type=dipole dipole="0.000000 0.000000 0.000000" charge=0
C	-2.470727	-0.189929	0.182574	6
C	-1.026727	-0.189929	0.182574	6
C	0.163433	-0.189929	0.182574	6
C	1.607433	-0.189929	0.182574	6
O	2.075533	-0.910409	-0.963046	8
C	2.089453	1.171241	0.182574	6
N	2.473663	2.256231	0.182574	7
H	-2.864707	0.830961	0.194224	1
H	-2.864797	-0.710449	1.060824	1
H	-2.864747	-0.690229	-0.707376	1
H	1.984743	-0.720559	1.062664	1
H	1.697453	-0.467069	-1.742736	1
Es	2.089331	1.170905	0.182588	99
Es	-0.404362	-0.046231	-0.155482	99
Es	2.376138	-0.869626	-0.969032	99
Es	-1.026980	-0.189933	0.182569	99
Es	-2.713018	0.491030	0.190320	99
Es	1.855302	0.529330	0.181257	99
Es	2.468888	1.686291	-0.065761	99
Es	2.075280	-0.910116	-0.963051	99
Es	1.851653	-0.517867	0.765516	99
Es	2.595731	2.599793	0.181606	99
Es	0.871308	-0.169509	0.187182	99
Es	-2.712538	-0.537762	0.768809	99
Es	1.880291	-0.596299	-0.528671	99
Es	2.473511	2.255804	0.182574	99
Es	-2.470605	-0.189931	0.182572	99
Es	1.942848	-1.177369	-0.936329	99
Es	2.409428	1.715825	0.466680	99
Es	-1.723967	-0.189946	0.182048	99
Es	1.607446	-0.189857	0.182362	99
Es	-0.412421	-0.549607	0.226905	99
Es	1.865270	-0.660020	-1.367105	99
Es	-2.712011	-0.523896	-0.411664	99
Es	0.163720	-0.189925	0.182575	99
Es	2.009827	1.866645	0.143894	99
Es	-0.401447	0.028843	0.468190	99
37
Properties=species:S:1:pos:R:3:Z:I:1 energy=-321.59454315408226 field_type=dipole dipole="0.000000 0.000000 0.000000" charge=0
C	-2.470727	-0.189929	0.182574	6
C	-1.026727	-0.189929	0.182574	6
C	0.163433	-0.189929	0.182574	6
C	1.607433	-0.189929	0.182574	6
O	2.075533	-0.910409	-0.963046	8
C	2.089453	1.171241	0.182574	6
N	2.473663	2.256231	0.182574	7
H	-2.864707	0.830961	0.194224	1
H	-2.864797	-0.710449	1.060824	1
H	-2.864747	-0.690229	-0.707376	1
H	1.984743	-0.720559	1.062664	1
H	1.697453	-0.467069	-1.742736	1
Es	1.866640	-0.659221	-1.367045	99
Es	1.880605	-0.595808	-0.529090	99
Es	2.473513	2.255803	0.182570	99
Es	0.871321	-0.169456	0.187224	99
Es	2.089324	1.170896	0.182555	99
Es	-0.405322	-0.031200	-0.148684	99
Es	2.585888	1.664128	0.255442	99
Es	0.163725	-0.189927	0.182578	99
Es	-2.712036	-0.523987	-0.411668	99
Es	1.940504	-1.176394	-0.936659	99
Es	1.855715	0.529297	0.181199	99
Es	2.092294	1.822815	0.408022	99
Es	1.851663	-0.517876	0.765486	99
Es	1.607445	-0.189857	0.182365	99
Es	-0.411750	-0.551204	0.210346	99
Es	2.075336	-0.910118	-0.963045	99
Es	2.593839	2.600246	0.182020	99
Es	-2.712826	0.491143	0.190200	99
Es	-2.712624	-0.537599	0.768858	99
Es	-2.470605	-0.189930	0.182573	99
Es	-0.401135	0.015454	0.477933	99
Es	2.211380	1.781376	-0.118869	99
Es	2.376766	-0.871885	-0.968498	99
Es	-1.724056	-0.190190	0.182171	99
Es	-1.026979	-0.189932	0.182565	99
