46
Properties=species:S:1:pos:R:3:Z:I:1 energy=-325.09839089317956 field_type=dipole dipole="0.000000 0.000000 0.000000" charge=0
C	-1.844018	-0.453233	-0.153067	6
C	-0.316688	-0.334323	-0.086197	6
C	0.213022	-1.268313	1.007913	6
C	0.275672	-0.687153	-1.455387	6
O	-0.048558	1.041137	0.244333	8
N	1.332612	1.277077	0.339093	7
C	1.517172	2.518747	0.630443	6
H	-2.255868	0.231697	-0.903437	1
H	-2.299028	-0.172593	0.803973	1
H	-2.161988	-1.471093	-0.402117	1
H	-0.161628	-0.965973	1.992503	1
H	1.306712	-1.237873	1.066393	1
H	-0.083298	-2.306943	0.825953	1
H	-0.058618	0.024487	-2.219046	1
H	-0.013118	-1.696143	-1.768887	1
H	1.370362	-0.641033	-1.442807	1
H	2.539302	2.908677	0.750413	1
H	0.687952	3.232857	0.769923	1
Es	0.003772	-1.973217	0.874618	99
Es	1.332166	1.277530	0.339185	99
Es	0.275653	-0.687161	-1.455371	99
Es	-0.011562	-0.513101	-0.777023	99
Es	0.951727	-1.249901	1.041182	99
Es	-0.136653	1.220358	0.005654	99
Es	1.426718	1.901356	0.187220	99
Es	-2.048621	-1.149228	-0.323143	99
Es	-0.043164	-0.806010	0.465943	99
Es	1.517198	2.518767	0.630447	99
Es	1.014808	-0.660631	-1.442154	99
Es	1.409806	1.771074	0.753150	99
Es	-0.316646	-0.334112	-0.086147	99
Es	-2.148829	-0.267916	0.501214	99
Es	-0.048236	1.040776	0.244509	99
Es	-1.843998	-0.453240	-0.153068	99
Es	0.964447	2.999648	0.724741	99
Es	-0.109833	0.522315	0.120719	99
Es	0.213005	-1.268315	1.007897	99
Es	2.201526	2.780024	0.710841	99
Es	-2.119028	0.009040	-0.668640	99
Es	-1.086053	-0.389879	-0.118866	99
Es	-0.147112	1.092786	0.532326	99
Es	-0.050719	-1.062118	1.674030	99
Es	0.039226	-0.204015	-1.971781	99
Es	0.071240	-1.376191	-1.659945	99
Es	0.564079	1.134412	0.282943	99
Es	1.565996	0.987792	0.279544	99
46
Properties=species:S:1:pos:R:3:Z:I:1 energy=-325.09839089317956 field_type=dipole dipole="0.000000 0.000000 0.000000" charge=0
C	-1.844018	-0.453233	-0.153067	6
C	-0.316688	-0.334323	-0.086197	6
C	0.213022	-1.268313	1.007913	6
C	0.275672	-0.687153	-1.455387	6
O	-0.048558	1.041137	0.244333	8
N	1.332612	1.277077	0.339093	7
C	1.517172	2.518747	0.630443	6
H	-2.255868	0.231697	-0.903437	1
H	-2.299028	-0.172593	0.803973	1
H	-2.161988	-1.471093	-0.402117	1
H	-0.161628	-0.965973	1.992503	1
H	1.306712	-1.237873	1.066393	1
H	-0.083298	-2.306943	0.825953	1
H	-0.058618	0.024487	-2.219046	1
H	-0.013118	-1.696143	-1.768887	1
H	1.370362	-0.641033	-1.442807	1
H	2.539302	2.908677	0.750413	1
H	0.687952	3.232857	0.769923	1
Es	-1.085989	-0.389838	-0.118947	99
Es	1.517198	2.518768	0.630456	99
Es	-1.843999	-0.453240	-0.153068	99
Es	1.426562	1.901329	0.187647	99
Es	-0.109801	0.522213	0.120426	99
Es	0.003871	-1.973211	0.874713	99
Es	1.014746	-0.660609	-1.442134	99
Es	-0.011655	-0.513038	-0.776914	99
Es	-0.043287	-0.806015	0.465826	99
Es	-0.048324	1.040853	0.244338	99
Es	0.275657	-0.687161	-1.455372	99
Es	-2.119144	0.009015	-0.668649	99
Es	0.071342	-1.376196	-1.659917	99
Es	1.332176	1.277533	0.339184	99
Es	1.410108	1.770819	0.753458	99
Es	-0.316650	-0.334114	-0.086147	99
Es	1.565915	0.988212	0.279047	99
Es	2.201593	2.779975	0.710748	99
Es	0.213000	-1.268314	1.007896	99
Es	0.039282	-0.204112	-1.971881	99
Es	-0.050651	-1.062137	1.674071	99
Es	-2.048659	-1.149202	-0.323028	99
Es	0.564106	1.134414	0.283793	99
Es	0.964448	2.999729	0.724606	99
Es	-0.134465	1.218533	0.005423	99
Es	-0.149346	1.094467	0.532154	99
Es	0.951646	-1.249903	1.041157	99
Es	-2.148766	-0.267926	0.501138	99
46
Properties=species:S:1:pos:R:3:Z:I:1 energy=-325.09839089317956 field_type=dipole dipole="0.000000 0.000000 0.000000" charge=0
C	-1.844018	-0.453233	-0.153067	6
C	-0.316688	-0.334323	-0.086197	6
C	0.213022	-1.268313	1.007913	6
C	0.275672	-0.687153	-1.455387	6
O	-0.048558	1.041137	0.244333	8
N	1.332612	1.277077	0.339093	7
C	1.517172	2.518747	0.630443	6
H	-2.255868	0.231697	-0.903437	1
H	-2.299028	-0.172593	0.803973	1
H	-2.161988	-1.471093	-0.402117	1
H	-0.161628	-0.965973	1.992503	1
H	1.306712	-1.237873	1.066393	1
H	-0.083298	-2.306943	0.825953	1
H	-0.058618	0.024487	-2.219046	1
H	-0.013118	-1.696143	-1.768887	1
H	1.370362	-0.641033	-1.442807	1
H	2.539302	2.908677	0.750413	1
H	0.687952	3.232857	0.769923	1
Es	2.201617	2.779979	0.710804	99
Es	0.071259	-1.376164	-1.659901	99
Es	-0.316648	-0.334115	-0.086147	99
Es	-0.149075	1.094638	0.531695	99
Es	-0.048308	1.040869	0.244280	99
Es	0.964422	2.999703	0.724631	99
Es	1.332166	1.277530	0.339184	99
Es	-0.050753	-1.062269	1.674113	99
Es	1.014742	-0.660697	-1.442197	99
Es	-2.148815	-0.267897	0.501107	99
Es	-2.048651	-1.149143	-0.322942	99
Es	-0.134593	1.218453	0.005804	99
Es	-0.043011	-0.805808	0.465819	99
Es	-0.110248	0.522023	0.120660	99
Es	1.409905	1.771027	0.753028	99
Es	1.426693	1.901249	0.187682	99
Es	0.039313	-0.204105	-1.971875	99
Es	0.213003	-1.268316	1.007899	99
Es	0.275655	-0.687162	-1.455375	99
Es	-2.119152	0.008962	-0.668737	99
Es	-0.011631	-0.512963	-0.776901	99
Es	-1.085933	-0.389927	-0.118859	99
Es	0.003895	-1.973194	0.874484	99
Es	0.951523	-1.249979	1.041328	99
Es	-1.843997	-0.453239	-0.153067	99
Es	0.564251	1.134482	0.283637	99
Es	1.566087	0.988136	0.279423	99
Es	1.517198	2.518769	0.630450	99
46
Properties=species:S:1:pos:R:3:Z:I:1 energy=-325.09839089317956 field_type=dipole dipole="0.000000 0.000000 0.000000" charge=0
C	-1.844018	-0.453233	-0.153067	6
C	-0.316688	-0.334323	-0.086197	6
C	0.213022	-1.268313	1.007913	6
C	0.275672	-0.687153	-1.455387	6
O	-0.048558	1.041137	0.244333	8
N	1.332612	1.277077	0.339093	7
C	1.517172	2.518747	0.630443	6
H	-2.255868	0.231697	-0.903437	1
H	-2.299028	-0.172593	0.803973	1
H	-2.161988	-1.471093	-0.402117	1
H	-0.161628	-0.965973	1.992503	1
H	1.306712	-1.237873	1.066393	1
H	-0.083298	-2.306943	0.825953	1
H	-0.058618	0.024487	-2.219046	1
H	-0.013118	-1.696143	-1.768887	1
H	1.370362	-0.641033	-1.442807	1
H	2.539302	2.908677	0.750413	1
H	0.687952	3.232857	0.769923	1
Es	-2.148715	-0.267974	0.501131	99
Es	-0.050663	-1.062250	1.674111	99
Es	-0.043230	-0.805880	0.465791	99
Es	1.332156	1.277520	0.339185	99
Es	-0.151701	1.098168	0.531007	99
Es	0.213006	-1.268314	1.007896	99
Es	0.951612	-1.249979	1.041209	99
Es	0.039319	-0.204113	-1.971900	99
Es	1.410219	1.770789	0.753355	99
Es	-0.316648	-0.334116	-0.086147	99
Es	0.964417	2.999721	0.724567	99
Es	1.014722	-0.660737	-1.442237	99
Es	-1.085866	-0.389881	-0.118939	99
Es	-2.119240	0.009014	-0.668605	99
Es	0.003888	-1.973144	0.874633	99
Es	1.517198	2.518764	0.630448	99
Es	-1.843999	-0.453240	-0.153068	99
Es	0.564303	1.134378	0.283733	99
Es	-0.011603	-0.512950	-0.776904	99
Es	0.071248	-1.376146	-1.659872	99
Es	1.426729	1.901232	0.187715	99
Es	1.565844	0.988691	0.279181	99
Es	-0.131791	1.215131	0.004667	99
Es	-0.110448	0.521515	0.122327	99
Es	-0.048430	1.040971	0.244297	99
Es	0.275655	-0.687162	-1.455374	99
Es	2.201651	2.779962	0.710814	99
Es	-2.048716	-1.149126	-0.322994	99
46
Properties=species:S:1:pos:R:3:Z:I:1 energy=-325.09839089317956 field_type=dipole dipole="0.000000 0.000000 0.000000" charge=0
C	-1.844018	-0.453233	-0.153067	6
C	-0.316688	-0.334323	-0.086197	6
C	0.213022	-1.268313	1.007913	6
C	0.275672	-0.687153	-1.455387	6
O	-0.048558	1.041137	0.244333	8
N	1.332612	1.277077	0.339093	7
C	1.517172	2.518747	0.630443	6
H	-2.255868	0.231697	-0.903437	1
H	-2.299028	-0.172593	0.803973	1
H	-2.161988	-1.471093	-0.402117	1
H	-0.161628	-0.965973	1.992503	1
H	1.306712	-1.237873	1.066393	1
H	-0.083298	-2.306943	0.825953	1
H	-0.058618	0.024487	-2.219046	1
H	-0.013118	-1.696143	-1.768887	1
H	1.370362	-0.641033	-1.442807	1
H	2.539302	2.908677	0.750413	1
H	0.687952	3.232857	0.769923	1
Es	0.564389	1.134456	0.283768	99
Es	2.201715	2.779958	0.710884	99
Es	-1.085882	-0.389908	-0.118997	99
Es	1.014705	-0.660693	-1.442224	99
Es	-0.316649	-0.334119	-0.086148	99
Es	-2.119215	0.008985	-0.668565	99
Es	-1.843999	-0.453240	-0.153068	99
Es	0.003883	-1.973107	0.874735	99
Es	-0.011645	-0.512886	-0.776808	99
Es	-2.148794	-0.268008	0.501151	99
Es	1.426797	1.901190	0.187726	99
Es	0.039324	-0.204116	-1.971877	99
Es	-0.133683	1.217208	0.006075	99
Es	-0.110598	0.521681	0.121068	99
Es	-2.048704	-1.149075	-0.323065	99
Es	0.964401	2.999684	0.724608	99
Es	0.951637	-1.250011	1.041160	99
Es	-0.043178	-0.805982	0.465719	99
Es	0.275655	-0.687162	-1.455374	99
Es	1.517198	2.518766	0.630448	99
Es	-0.150012	1.095924	0.530723	99
Es	1.410157	1.770877	0.753064	99
Es	0.213006	-1.268314	1.007896	99
Es	-0.048266	1.040829	0.244366	99
Es	-0.050635	-1.062196	1.674117	99
Es	1.565843	0.988748	0.279357	99
Es	0.071268	-1.376184	-1.659900	99
Es	1.332198	1.277538	0.339187	99
46
Properties=species:S:1:pos:R:3:Z:I:1 energy=-325.09839089317956 field_type=dipole dipole="0.000000 0.000000 0.000000" charge=0
C	-1.844018	-0.453233	-0.153067	6
C	-0.316688	-0.334323	-0.086197	6
C	0.213022	-1.268313	1.007913	6
C	0.275672	-0.687153	-1.455387	6
O	-0.048558	1.041137	0.244333	8
N	1.332612	1.277077	0.339093	7
C	1.517172	2.518747	0.630443	6
H	-2.255868	0.231697	-0.903437	1
H	-2.299028	-0.172593	0.803973	1
H	-2.161988	-1.471093	-0.402117	1
H	-0.161628	-0.965973	1.992503	1
H	1.306712	-1.237873	1.066393	1
H	-0.083298	-2.306943	0.825953	1
H	-0.058618	0.024487	-2.219046	1
H	-0.013118	-1.696143	-1.768887	1
H	1.370362	-0.641033	-1.442807	1
H	2.539302	2.908677	0.750413	1
H	0.687952	3.232857	0.769923	1
Es	-1.843999	-0.453240	-0.153068	99
Es	-0.011665	-0.512940	-0.776821	99
Es	-0.147936	1.093594	0.530818	99
Es	-0.316650	-0.334120	-0.086148	99
Es	-2.148800	-0.268005	0.501101	99
Es	0.564481	1.134592	0.283187	99
Es	-0.110801	0.521840	0.120054	99
Es	0.039324	-0.204186	-1.971889	99
Es	1.426912	1.901124	0.187698	99
Es	-0.050636	-1.062220	1.674134	99
Es	2.201751	2.779953	0.710836	99
Es	1.565849	0.988955	0.279557	99
Es	-0.043250	-0.805896	0.465655	99
Es	-2.048658	-1.149109	-0.323011	99
Es	1.014732	-0.660709	-1.442272	99
Es	0.071293	-1.376108	-1.659905	99
Es	-1.085869	-0.389882	-0.118869	99
Es	1.332165	1.277525	0.339183	99
Es	1.517198	2.518766	0.630448	99
Es	-2.119228	0.008987	-0.668630	99
Es	0.275655	-0.687162	-1.455374	99
Es	0.951577	-1.250009	1.041191	99
Es	-0.048298	1.040866	0.244272	99
Es	1.410146	1.770902	0.752984	99
Es	0.003947	-1.973110	0.874750	99
Es	0.213006	-1.268315	1.007897	99
Es	-0.135732	1.219073	0.007638	99
Es	0.964401	2.999677	0.724610	99
46
Properties=species:S:1:pos:R:3:Z:I:1 energy=-325.09839089317956 field_type=dipole dipole="0.000000 0.000000 0.000000" charge=0
C	-1.844018	-0.453233	-0.153067	6
C	-0.316688	-0.334323	-0.086197	6
C	0.213022	-1.268313	1.007913	6
C	0.275672	-0.687153	-1.455387	6
O	-0.048558	1.041137	0.244333	8
N	1.332612	1.277077	0.339093	7
C	1.517172	2.518747	0.630443	6
H	-2.255868	0.231697	-0.903437	1
H	-2.299028	-0.172593	0.803973	1
H	-2.161988	-1.471093	-0.402117	1
H	-0.161628	-0.965973	1.992503	1
H	1.306712	-1.237873	1.066393	1
H	-0.083298	-2.306943	0.825953	1
H	-0.058618	0.024487	-2.219046	1
H	-0.013118	-1.696143	-1.768887	1
H	1.370362	-0.641033	-1.442807	1
H	2.539302	2.908677	0.750413	1
H	0.687952	3.232857	0.769923	1
Es	0.004024	-1.973161	0.874672	99
Es	0.039334	-0.204144	-1.971893	99
Es	-1.085792	-0.389994	-0.119100	99
Es	0.071353	-1.376138	-1.659948	99
Es	0.564542	1.134365	0.283998	99
Es	0.964366	2.999665	0.724595	99
Es	-0.048275	1.040897	0.244083	99
Es	1.410186	1.770895	0.752924	99
Es	-2.048848	-1.149075	-0.322810	99
Es	-2.119236	0.008873	-0.668668	99
Es	1.427026	1.901089	0.187662	99
Es	-1.844000	-0.453240	-0.153068	99
Es	1.332170	1.277531	0.339184	99
Es	1.014650	-0.660686	-1.442273	99
Es	2.201726	2.779986	0.710844	99
Es	-0.050679	-1.062310	1.674110	99
Es	0.951550	-1.249918	1.041260	99
Es	0.213006	-1.268315	1.007897	99
Es	-0.316650	-0.334122	-0.086149	99
Es	-0.043327	-0.805844	0.465717	99
Es	1.517198	2.518765	0.630448	99
Es	-0.132745	1.215874	0.006116	99
Es	-2.148707	-0.267797	0.501056	99
Es	0.275656	-0.687162	-1.455375	99
Es	-0.011558	-0.512985	-0.776697	99
Es	-0.150842	1.097340	0.529792	99
Es	1.565807	0.989151	0.279725	99
Es	-0.111020	0.521304	0.121921	99
46
Properties=species:S:1:pos:R:3:Z:I:1 energy=-325.09839089317956 field_type=dipole dipole="0.000000 0.000000 0.000000" charge=0
C	-1.844018	-0.453233	-0.153067	6
C	-0.316688	-0.334323	-0.086197	6
C	0.213022	-1.268313	1.007913	6
C	0.275672	-0.687153	-1.455387	6
O	-0.048558	1.041137	0.244333	8
N	1.332612	1.277077	0.339093	7
C	1.517172	2.518747	0.630443	6
H	-2.255868	0.231697	-0.903437	1
H	-2.299028	-0.172593	0.803973	1
H	-2.161988	-1.471093	-0.402117	1
H	-0.161628	-0.965973	1.992503	1
H	1.306712	-1.237873	1.066393	1
H	-0.083298	-2.306943	0.825953	1
H	-0.058618	0.024487	-2.219046	1
H	-0.013118	-1.696143	-1.768887	1
H	1.370362	-0.641033	-1.442807	1
H	2.539302	2.908677	0.750413	1
H	0.687952	3.232857	0.769923	1
Es	-0.316651	-0.334123	-0.086149	99
Es	-0.050596	-1.062260	1.674094	99
Es	-0.111166	0.521333	0.121213	99
Es	-2.148849	-0.268038	0.501053	99
Es	0.071387	-1.376133	-1.659851	99
Es	1.517198	2.518765	0.630448	99
Es	-2.119277	0.008929	-0.668574	99
Es	1.427088	1.901057	0.187646	99
Es	1.332168	1.277526	0.339184	99
Es	-0.048317	1.040892	0.244195	99
Es	2.201759	2.779964	0.710872	99
Es	0.951542	-1.249997	1.041239	99
Es	0.275655	-0.687162	-1.455375	99
Es	0.964358	2.999665	0.724614	99
Es	-0.132642	1.215745	0.006843	99
Es	-0.011655	-0.512966	-0.776777	99
Es	-2.048701	-1.149028	-0.323007	99
Es	1.014661	-0.660672	-1.442312	99
Es	-1.085755	-0.389853	-0.118826	99
Es	-1.844001	-0.453242	-0.153069	99
Es	1.565748	0.989384	0.279754	99
Es	0.564606	1.134455	0.283638	99
Es	0.003949	-1.973151	0.874751	99
Es	-0.150862	1.097187	0.529986	99
Es	-0.043252	-0.805793	0.465630	99
Es	1.410239	1.770883	0.752865	99
Es	0.213006	-1.268315	1.007897	99
Es	0.039274	-0.204207	-1.971958	99
46
Properties=species:S:1:pos:R:3:Z:I:1 energy=-325.09839089317956 field_type=dipole dipole="0.000000 0.000000 0.000000" charge=0
C	-1.844018	-0.453233	-0.153067	6
C	-0.316688	-0.334323	-0.086197	6
C	0.213022	-1.268313	1.007913	6
C	0.275672	-0.687153	-1.455387	6
O	-0.048558	1.041137	0.244333	8
N	1.332612	1.277077	0.339093	7
C	1.517172	2.518747	0.630443	6
H	-2.255868	0.231697	-0.903437	1
H	-2.299028	-0.172593	0.803973	1
H	-2.161988	-1.471093	-0.402117	1
H	-0.161628	-0.965973	1.992503	1
H	1.306712	-1.237873	1.066393	1
H	-0.083298	-2.306943	0.825953	1
H	-0.058618	0.024487	-2.219046	1
H	-0.013118	-1.696143	-1.768887	1
H	1.370362	-0.641033	-1.442807	1
H	2.539302	2.908677	0.750413	1
H	0.687952	3.232857	0.769923	1
Es	-0.050574	-1.062202	1.674150	99
Es	-2.048701	-1.149017	-0.322967	99
Es	0.951479	-1.250102	1.041219	99
Es	-0.111296	0.521672	0.119878	99
Es	0.071345	-1.376112	-1.659907	99
Es	-0.316651	-0.334123	-0.086149	99
Es	1.517198	2.518766	0.630446	99
Es	2.201796	2.779963	0.710831	99
Es	-1.085741	-0.389875	-0.118840	99
Es	1.427022	1.901028	0.187842	99
Es	0.275656	-0.687162	-1.455375	99
Es	0.213004	-1.268314	1.007895	99
Es	-0.133030	1.216473	0.007874	99
Es	1.565762	0.989611	0.279627	99
Es	-0.011693	-0.512875	-0.776702	99
Es	-2.148872	-0.268012	0.501028	99
Es	1.014635	-0.660728	-1.442323	99
Es	0.003923	-1.973121	0.874770	99
Es	-2.119279	0.008892	-0.668606	99
Es	0.964358	2.999669	0.724590	99
Es	-1.844000	-0.453240	-0.153068	99
Es	0.564624	1.134351	0.283385	99
Es	-0.150501	1.096187	0.530259	99
Es	1.410333	1.770815	0.752901	99
Es	0.039366	-0.204207	-1.971936	99
Es	1.332165	1.277514	0.339180	99
Es	-0.043141	-0.805820	0.465550	99
Es	-0.048272	1.040814	0.244474	99
46
Properties=species:S:1:pos:R:3:Z:I:1 energy=-325.09839089317956 field_type=dipole dipole="0.000000 0.000000 0.000000" charge=0
C	-1.844018	-0.453233	-0.153067	6
C	-0.316688	-0.334323	-0.086197	6
C	0.213022	-1.268313	1.007913	6
C	0.275672	-0.687153	-1.455387	6
O	-0.048558	1.041137	0.244333	8
N	1.332612	1.277077	0.339093	7
C	1.517172	2.518747	0.630443	6
H	-2.255868	0.231697	-0.903437	1
H	-2.299028	-0.172593	0.803973	1
H	-2.161988	-1.471093	-0.402117	1
H	-0.161628	-0.965973	1.992503	1
H	1.306712	-1.237873	1.066393	1
H	-0.083298	-2.306943	0.825953	1
H	-0.058618	0.024487	-2.219046	1
H	-0.013118	-1.696143	-1.768887	1
H	1.370362	-0.641033	-1.442807	1
H	2.539302	2.908677	0.750413	1
H	0.687952	3.232857	0.769923	1
Es	0.071442	-1.376101	-1.659918	99
Es	1.014579	-0.660724	-1.442218	99
Es	-2.119223	0.008897	-0.668562	99
Es	-0.111485	0.521272	0.120212	99
Es	1.427212	1.900965	0.187707	99
Es	2.201838	2.779921	0.710888	99
Es	-0.316652	-0.334125	-0.086150	99
Es	-1.085618	-0.389665	-0.118897	99
Es	0.213007	-1.268315	1.007898	99
Es	-0.134337	1.217391	0.008538	99
Es	1.517198	2.518764	0.630453	99
Es	1.565568	0.989736	0.279825	99
Es	1.410364	1.770818	0.752766	99
Es	-2.048725	-1.149022	-0.323034	99
Es	0.003940	-1.973037	0.874743	99
Es	0.964359	2.999683	0.724598	99
Es	0.039461	-0.204252	-1.972036	99
Es	-0.050681	-1.062273	1.674101	99
Es	1.332199	1.277543	0.339188	99
Es	-0.043404	-0.805882	0.465688	99
Es	-1.843999	-0.453240	-0.153068	99
Es	-0.149165	1.095175	0.529126	99
Es	0.951572	-1.250106	1.041304	99
Es	-0.011742	-0.512926	-0.776725	99
Es	-2.148940	-0.268030	0.500977	99
Es	0.275656	-0.687162	-1.455375	99
Es	-0.048299	1.040839	0.244403	99
Es	0.564791	1.134700	0.283593	99
46
Properties=species:S:1:pos:R:3:Z:I:1 energy=-325.09839089317956 field_type=dipole dipole="0.000000 0.000000 0.000000" charge=0
C	-1.844018	-0.453233	-0.153067	6
C	-0.316688	-0.334323	-0.086197	6
C	0.213022	-1.268313	1.007913	6
C	0.275672	-0.687153	-1.455387	6
O	-0.048558	1.041137	0.244333	8
N	1.332612	1.277077	0.339093	7
C	1.517172	2.518747	0.630443	6
H	-2.255868	0.231697	-0.903437	1
H	-2.299028	-0.172593	0.803973	1
H	-2.161988	-1.471093	-0.402117	1
H	-0.161628	-0.965973	1.992503	1
H	1.306712	-1.237873	1.066393	1
H	-0.083298	-2.306943	0.825953	1
H	-0.058618	0.024487	-2.219046	1
H	-0.013118	-1.696143	-1.768887	1
H	1.370362	-0.641033	-1.442807	1
H	2.539302	2.908677	0.750413	1
H	0.687952	3.232857	0.769923	1
Es	-0.043227	-0.805755	0.465545	99
Es	-1.844000	-0.453240	-0.153068	99
Es	-0.050566	-1.062285	1.674110	99
Es	1.332166	1.277513	0.339180	99
Es	1.565594	0.989949	0.279791	99
Es	-0.111717	0.521281	0.120212	99
Es	0.564851	1.134657	0.283390	99
Es	-0.148141	1.094351	0.528942	99
Es	0.275656	-0.687162	-1.455375	99
Es	-0.135319	1.218109	0.009173	99
Es	2.201846	2.779958	0.710839	99
Es	1.410437	1.770771	0.752826	99
Es	0.213006	-1.268315	1.007898	99
Es	-0.316652	-0.334125	-0.086150	99
Es	-0.011659	-0.512876	-0.776625	99
Es	1.014606	-0.660746	-1.442355	99
Es	1.517198	2.518765	0.630448	99
Es	0.951494	-1.250063	1.041256	99
Es	-0.048273	1.040905	0.244098	99
Es	-1.085696	-0.389842	-0.118857	99
Es	0.964341	2.999656	0.724596	99
Es	0.003964	-1.973119	0.874775	99
Es	-2.048697	-1.148964	-0.322983	99
Es	1.427198	1.900943	0.187786	99
Es	-2.119327	0.008868	-0.668569	99
Es	0.039385	-0.204223	-1.971942	99
Es	0.071355	-1.376094	-1.659917	99
Es	-2.148909	-0.268072	0.501002	99
