45
Properties=species:S:1:pos:R:3:Z:I:1 energy=-341.11783655970896 field_type=dipole dipole="0.000000 0.000000 0.000000" charge=0
C	-1.244502	-1.595176	1.047403	6
C	-0.710472	-1.263976	-0.333707	6
C	0.173428	-0.031746	-0.300637	6
C	-0.500011	1.314664	-0.047667	6
O	-0.225232	2.216884	-1.105997	8
N	1.455058	-0.192896	-0.491697	7
N	2.216578	0.924544	-0.449917	7
H	-1.829712	-2.518936	1.017003	1
H	-1.891662	-0.797686	1.425153	1
H	-0.427242	-1.727186	1.764183	1
H	-1.536242	-1.082576	-1.030427	1
H	-0.132122	-2.112166	-0.717837	1
H	-0.130932	1.735734	0.892633	1
H	-1.583242	1.193824	0.026363	1
H	0.739478	2.109214	-1.258677	1
H	3.094188	0.737014	-0.948067	1
H	2.532638	1.090464	0.511893	1
Es	-0.242112	1.585413	0.602876	99
Es	2.743140	0.797896	-0.739917	99
Es	1.621026	-0.525516	-0.577627	99
Es	-0.499916	1.314720	-0.047838	99
Es	-0.310094	1.855840	-0.692820	99
Es	2.033961	1.222454	-0.593643	99
Es	-0.321594	-1.837054	-0.590095	99
Es	-0.157946	0.628399	-0.167315	99
Es	0.173394	-0.031749	-0.300605	99
Es	1.454823	-0.192327	-0.491566	99
Es	-0.710466	-1.263912	-0.333658	99
Es	-1.244493	-1.595156	1.047365	99
Es	0.865905	-0.061802	-0.684031	99
Es	-0.371537	2.099173	-1.348622	99
Es	0.967976	-0.150828	-0.116593	99
Es	0.271903	2.157910	-1.177594	99
Es	-1.641566	-2.221349	1.022259	99
Es	-0.280911	2.496293	-0.994036	99
Es	-0.265947	-0.639077	-0.313169	99
Es	-0.225013	2.216652	-1.105855	99
Es	1.836587	0.379046	-0.454244	99
Es	2.390348	1.007220	0.129879	99
Es	-0.972262	-1.411720	0.355879	99
Es	-0.685996	-1.683122	1.531033	99
Es	2.216812	0.924050	-0.449713	99
Es	-1.237649	1.220634	0.005742	99
Es	-1.270499	-1.128397	-0.801568	99
Es	-1.684299	-1.045558	1.300873	99
45
Properties=species:S:1:pos:R:3:Z:I:1 energy=-341.11783655970896 field_type=dipole dipole="0.000000 0.000000 0.000000" charge=0
C	-1.244502	-1.595176	1.047403	6
C	-0.710472	-1.263976	-0.333707	6
C	0.173428	-0.031746	-0.300637	6
C	-0.500011	1.314664	-0.047667	6
O	-0.225232	2.216884	-1.105997	8
N	1.455058	-0.192896	-0.491697	7
N	2.216578	0.924544	-0.449917	7
H	-1.829712	-2.518936	1.017003	1
H	-1.891662	-0.797686	1.425153	1
H	-0.427242	-1.727186	1.764183	1
H	-1.536242	-1.082576	-1.030427	1
H	-0.132122	-2.112166	-0.717837	1
H	-0.130932	1.735734	0.892633	1
H	-1.583242	1.193824	0.026363	1
H	0.739478	2.109214	-1.258677	1
H	3.094188	0.737014	-0.948067	1
H	2.532638	1.090464	0.511893	1
Es	-1.244492	-1.595156	1.047366	99
Es	-1.237610	1.220647	0.005737	99
Es	-0.265898	-0.639223	-0.313123	99
Es	1.454846	-0.192337	-0.491575	99
Es	-0.373895	2.101460	-1.350398	99
Es	0.967807	-0.150674	-0.116560	99
Es	2.743109	0.798306	-0.740831	99
Es	-0.310362	1.855837	-0.692791	99
Es	-0.972379	-1.411636	0.355905	99
Es	-0.499916	1.314721	-0.047838	99
Es	1.620957	-0.525335	-0.577246	99
Es	2.390818	1.005887	0.129688	99
Es	0.271358	2.156959	-1.177651	99
Es	1.836306	0.379348	-0.454722	99
Es	-0.710467	-1.263913	-0.333660	99
Es	2.033882	1.223057	-0.592175	99
Es	-1.270381	-1.128327	-0.801615	99
Es	-1.684272	-1.045584	1.301048	99
Es	-0.277668	2.494901	-0.992226	99
Es	-0.242139	1.585404	0.602884	99
Es	-0.321654	-1.837031	-0.590116	99
Es	-0.225069	2.216728	-1.105886	99
Es	0.173402	-0.031753	-0.300595	99
Es	-0.686018	-1.683250	1.530953	99
Es	-0.157965	0.628431	-0.167367	99
Es	-1.641561	-2.221295	1.022223	99
Es	0.866020	-0.062080	-0.684316	99
Es	2.216816	0.924043	-0.449713	99
45
Properties=species:S:1:pos:R:3:Z:I:1 energy=-341.11783655970896 field_type=dipole dipole="0.000000 0.000000 0.000000" charge=0
C	-1.244502	-1.595176	1.047403	6
C	-0.710472	-1.263976	-0.333707	6
C	0.173428	-0.031746	-0.300637	6
C	-0.500011	1.314664	-0.047667	6
O	-0.225232	2.216884	-1.105997	8
N	1.455058	-0.192896	-0.491697	7
N	2.216578	0.924544	-0.449917	7
H	-1.829712	-2.518936	1.017003	1
H	-1.891662	-0.797686	1.425153	1
H	-0.427242	-1.727186	1.764183	1
H	-1.536242	-1.082576	-1.030427	1
H	-0.132122	-2.112166	-0.717837	1
H	-0.130932	1.735734	0.892633	1
H	-1.583242	1.193824	0.026363	1
H	0.739478	2.109214	-1.258677	1
H	3.094188	0.737014	-0.948067	1
H	2.532638	1.090464	0.511893	1
Es	-0.157812	0.628563	-0.167419	99
Es	-0.972192	-1.411699	0.355870	99
Es	1.620773	-0.525142	-0.577579	99
Es	-1.237619	1.220579	0.005730	99
Es	-0.275847	2.495719	-0.991353	99
Es	-0.310554	1.856082	-0.693040	99
Es	-1.684173	-1.045582	1.301047	99
Es	-1.641627	-2.221267	1.022357	99
Es	-0.242139	1.585360	0.602909	99
Es	-0.266104	-0.639293	-0.313132	99
Es	-0.321623	-1.836966	-0.590173	99
Es	0.968140	-0.150997	-0.116697	99
Es	2.034033	1.222850	-0.592960	99
Es	-1.270423	-1.128405	-0.801549	99
Es	2.743241	0.797960	-0.740247	99
Es	1.836521	0.379370	-0.454561	99
Es	-0.225008	2.216688	-1.105823	99
Es	-0.686149	-1.683239	1.530950	99
Es	0.865729	-0.062015	-0.683875	99
Es	-0.499917	1.314721	-0.047842	99
Es	-1.244493	-1.595156	1.047365	99
Es	2.216812	0.924058	-0.449716	99
Es	2.390486	1.006514	0.129699	99
Es	-0.710467	-1.263912	-0.333659	99
Es	0.173400	-0.031753	-0.300591	99
Es	1.454812	-0.192337	-0.491566	99
Es	0.271058	2.154646	-1.179294	99
Es	-0.375284	2.102786	-1.349456	99
45
Properties=species:S:1:pos:R:3:Z:I:1 energy=-341.11783655970896 field_type=dipole dipole="0.000000 0.000000 0.000000" charge=0
C	-1.244502	-1.595176	1.047403	6
C	-0.710472	-1.263976	-0.333707	6
C	0.173428	-0.031746	-0.300637	6
C	-0.500011	1.314664	-0.047667	6
O	-0.225232	2.216884	-1.105997	8
N	1.455058	-0.192896	-0.491697	7
N	2.216578	0.924544	-0.449917	7
H	-1.829712	-2.518936	1.017003	1
H	-1.891662	-0.797686	1.425153	1
H	-0.427242	-1.727186	1.764183	1
H	-1.536242	-1.082576	-1.030427	1
H	-0.132122	-2.112166	-0.717837	1
H	-0.130932	1.735734	0.892633	1
H	-1.583242	1.193824	0.026363	1
H	0.739478	2.109214	-1.258677	1
H	3.094188	0.737014	-0.948067	1
H	2.532638	1.090464	0.511893	1
Es	-0.310742	1.855146	-0.693504	99
Es	-0.374565	2.103195	-1.349607	99
Es	-0.266029	-0.639359	-0.313303	99
Es	-1.244492	-1.595156	1.047365	99
Es	1.620595	-0.525104	-0.577331	99
Es	-0.157884	0.628544	-0.167265	99
Es	-0.710467	-1.263913	-0.333659	99
Es	0.865913	-0.062105	-0.683925	99
Es	2.390646	1.006456	0.129803	99
Es	-0.321639	-1.836914	-0.590175	99
Es	-0.972252	-1.411694	0.355926	99
Es	-0.224991	2.216705	-1.105803	99
Es	-1.237610	1.220645	0.005839	99
Es	2.743133	0.798203	-0.740648	99
Es	1.454841	-0.192315	-0.491565	99
Es	-0.686111	-1.683206	1.530985	99
Es	0.271240	2.155672	-1.178928	99
Es	-1.270399	-1.128355	-0.801615	99
Es	2.034292	1.222629	-0.592424	99
Es	-1.641546	-2.221279	1.022313	99
Es	-1.684260	-1.045648	1.301039	99
Es	-0.242149	1.585356	0.602794	99
Es	0.173401	-0.031752	-0.300598	99
Es	-0.276563	2.495205	-0.991210	99
Es	1.836388	0.379421	-0.454751	99
Es	2.216812	0.924029	-0.449707	99
Es	-0.499918	1.314718	-0.047840	99
Es	0.967934	-0.150988	-0.116805	99
45
Properties=species:S:1:pos:R:3:Z:I:1 energy=-341.11783655970896 field_type=dipole dipole="0.000000 0.000000 0.000000" charge=0
C	-1.244502	-1.595176	1.047403	6
C	-0.710472	-1.263976	-0.333707	6
C	0.173428	-0.031746	-0.300637	6
C	-0.500011	1.314664	-0.047667	6
O	-0.225232	2.216884	-1.105997	8
N	1.455058	-0.192896	-0.491697	7
N	2.216578	0.924544	-0.449917	7
H	-1.829712	-2.518936	1.017003	1
H	-1.891662	-0.797686	1.425153	1
H	-0.427242	-1.727186	1.764183	1
H	-1.536242	-1.082576	-1.030427	1
H	-0.132122	-2.112166	-0.717837	1
H	-0.130932	1.735734	0.892633	1
H	-1.583242	1.193824	0.026363	1
H	0.739478	2.109214	-1.258677	1
H	3.094188	0.737014	-0.948067	1
H	2.532638	1.090464	0.511893	1
Es	-0.242188	1.585321	0.602835	99
Es	-0.310852	1.854432	-0.694199	99
Es	0.967557	-0.150694	-0.116930	99
Es	-0.499917	1.314720	-0.047836	99
Es	2.743324	0.798279	-0.740720	99
Es	0.173401	-0.031752	-0.300597	99
Es	-0.377263	2.106548	-1.351083	99
Es	-0.972223	-1.411695	0.355927	99
Es	-1.237568	1.220591	0.005811	99
Es	-0.266059	-0.639460	-0.313306	99
Es	0.866223	-0.062419	-0.684358	99
Es	-1.244493	-1.595156	1.047366	99
Es	-0.321634	-1.836910	-0.590209	99
Es	0.271676	2.156108	-1.179246	99
Es	-1.270346	-1.128352	-0.801599	99
Es	1.620426	-0.524979	-0.576771	99
Es	2.034477	1.222426	-0.592231	99
Es	-0.686174	-1.683209	1.531018	99
Es	2.390457	1.006519	0.129795	99
Es	-1.641584	-2.221236	1.022379	99
Es	1.836452	0.379406	-0.454923	99
Es	-1.684213	-1.045666	1.301021	99
Es	-0.157873	0.628606	-0.167269	99
Es	-0.224965	2.216757	-1.105693	99
Es	-0.274222	2.492130	-0.988848	99
Es	1.454814	-0.192320	-0.491563	99
Es	-0.710467	-1.263913	-0.333659	99
Es	2.216809	0.924053	-0.449715	99
45
Properties=species:S:1:pos:R:3:Z:I:1 energy=-341.11783655970896 field_type=dipole dipole="0.000000 0.000000 0.000000" charge=0
C	-1.244502	-1.595176	1.047403	6
C	-0.710472	-1.263976	-0.333707	6
C	0.173428	-0.031746	-0.300637	6
C	-0.500011	1.314664	-0.047667	6
O	-0.225232	2.216884	-1.105997	8
N	1.455058	-0.192896	-0.491697	7
N	2.216578	0.924544	-0.449917	7
H	-1.829712	-2.518936	1.017003	1
H	-1.891662	-0.797686	1.425153	1
H	-0.427242	-1.727186	1.764183	1
H	-1.536242	-1.082576	-1.030427	1
H	-0.132122	-2.112166	-0.717837	1
H	-0.130932	1.735734	0.892633	1
H	-1.583242	1.193824	0.026363	1
H	0.739478	2.109214	-1.258677	1
H	3.094188	0.737014	-0.948067	1
H	2.532638	1.090464	0.511893	1
Es	0.270737	2.153364	-1.181600	99
Es	-0.972261	-1.411666	0.355976	99
Es	-0.224990	2.216629	-1.105832	99
Es	0.173408	-0.031752	-0.300595	99
Es	2.390870	1.005707	0.129611	99
Es	-1.641538	-2.221230	1.022371	99
Es	0.865885	-0.062397	-0.683919	99
Es	1.620378	-0.524701	-0.577161	99
Es	-0.157922	0.628712	-0.167325	99
Es	-1.244492	-1.595156	1.047364	99
Es	-0.271714	2.493279	-0.988701	99
Es	-0.378398	2.108009	-1.349550	99
Es	-0.686165	-1.683221	1.530998	99
Es	2.034369	1.222863	-0.591368	99
Es	-1.237541	1.220611	0.005827	99
Es	2.216795	0.924055	-0.449724	99
Es	-0.311237	1.854723	-0.693411	99
Es	-0.710468	-1.263913	-0.333661	99
Es	1.454830	-0.192330	-0.491569	99
Es	2.743161	0.798661	-0.741209	99
Es	-1.684241	-1.045719	1.301081	99
Es	-0.242155	1.585263	0.602866	99
Es	-0.321663	-1.836830	-0.590186	99
Es	-0.266073	-0.639505	-0.313451	99
Es	-1.270319	-1.128388	-0.801643	99
Es	1.836283	0.379547	-0.455136	99
Es	0.967955	-0.151201	-0.116821	99
Es	-0.499917	1.314720	-0.047836	99
45
Properties=species:S:1:pos:R:3:Z:I:1 energy=-341.11783655970896 field_type=dipole dipole="0.000000 0.000000 0.000000" charge=0
C	-1.244502	-1.595176	1.047403	6
C	-0.710472	-1.263976	-0.333707	6
C	0.173428	-0.031746	-0.300637	6
C	-0.500011	1.314664	-0.047667	6
O	-0.225232	2.216884	-1.105997	8
N	1.455058	-0.192896	-0.491697	7
N	2.216578	0.924544	-0.449917	7
H	-1.829712	-2.518936	1.017003	1
H	-1.891662	-0.797686	1.425153	1
H	-0.427242	-1.727186	1.764183	1
H	-1.536242	-1.082576	-1.030427	1
H	-0.132122	-2.112166	-0.717837	1
H	-0.130932	1.735734	0.892633	1
H	-1.583242	1.193824	0.026363	1
H	0.739478	2.109214	-1.258677	1
H	3.094188	0.737014	-0.948067	1
H	2.532638	1.090464	0.511893	1
Es	-1.237523	1.220569	0.005820	99
Es	-1.244493	-1.595156	1.047365	99
Es	0.967914	-0.150828	-0.117073	99
Es	-0.224995	2.216656	-1.105817	99
Es	0.865919	-0.062470	-0.683780	99
Es	-0.372004	2.100869	-1.348486	99
Es	-1.641586	-2.221221	1.022419	99
Es	-0.686206	-1.683198	1.531028	99
Es	1.836714	0.379299	-0.455311	99
Es	-0.321669	-1.836802	-0.590226	99
Es	1.620109	-0.524877	-0.576783	99
Es	-0.710467	-1.263913	-0.333659	99
Es	2.216809	0.924069	-0.449701	99
Es	0.173395	-0.031752	-0.300599	99
Es	-0.157839	0.628716	-0.167330	99
Es	0.271588	2.157007	-1.178287	99
Es	1.454821	-0.192330	-0.491568	99
Es	-1.270232	-1.128378	-0.801645	99
Es	2.390394	1.006747	0.129916	99
Es	-0.266062	-0.639595	-0.313471	99
Es	-0.499917	1.314720	-0.047836	99
Es	2.034603	1.222126	-0.592280	99
Es	-0.972300	-1.411686	0.355986	99
Es	2.743254	0.798530	-0.740659	99
Es	-0.310953	1.855707	-0.692446	99
Es	-1.684184	-1.045758	1.301057	99
Es	-0.279240	2.495830	-0.994057	99
Es	-0.242275	1.585251	0.602819	99
45
Properties=species:S:1:pos:R:3:Z:I:1 energy=-341.11783655970896 field_type=dipole dipole="0.000000 0.000000 0.000000" charge=0
C	-1.244502	-1.595176	1.047403	6
C	-0.710472	-1.263976	-0.333707	6
C	0.173428	-0.031746	-0.300637	6
C	-0.500011	1.314664	-0.047667	6
O	-0.225232	2.216884	-1.105997	8
N	1.455058	-0.192896	-0.491697	7
N	2.216578	0.924544	-0.449917	7
H	-1.829712	-2.518936	1.017003	1
H	-1.891662	-0.797686	1.425153	1
H	-0.427242	-1.727186	1.764183	1
H	-1.536242	-1.082576	-1.030427	1
H	-0.132122	-2.112166	-0.717837	1
H	-0.130932	1.735734	0.892633	1
H	-1.583242	1.193824	0.026363	1
H	0.739478	2.109214	-1.258677	1
H	3.094188	0.737014	-0.948067	1
H	2.532638	1.090464	0.511893	1
Es	-1.270248	-1.128345	-0.801655	99
Es	-0.686320	-1.683220	1.531123	99
Es	-1.237531	1.220554	0.005890	99
Es	-1.641641	-2.221165	1.022436	99
Es	0.967940	-0.151270	-0.116851	99
Es	2.390305	1.006724	0.130037	99
Es	-1.244494	-1.595155	1.047367	99
Es	-0.972129	-1.411803	0.356003	99
Es	-1.684154	-1.045732	1.300970	99
Es	-0.266049	-0.639664	-0.313468	99
Es	-0.499917	1.314719	-0.047834	99
Es	-0.225018	2.216660	-1.105800	99
Es	2.035031	1.222118	-0.592222	99
Es	-0.277573	2.494645	-0.993974	99
Es	-0.242229	1.585198	0.602785	99
Es	-0.321692	-1.836743	-0.590267	99
Es	-0.311573	1.855892	-0.691818	99
Es	-0.157840	0.628801	-0.167270	99
Es	0.865923	-0.062378	-0.683591	99
Es	0.271640	2.156510	-1.179020	99
Es	2.216819	0.924048	-0.449718	99
Es	1.454824	-0.192326	-0.491567	99
Es	-0.373102	2.102393	-1.348522	99
Es	-0.710467	-1.263913	-0.333660	99
Es	0.173400	-0.031756	-0.300590	99
Es	1.619924	-0.524522	-0.577305	99
Es	1.836470	0.379467	-0.455584	99
Es	2.743277	0.798397	-0.740496	99
45
Properties=species:S:1:pos:R:3:Z:I:1 energy=-341.11783655970896 field_type=dipole dipole="0.000000 0.000000 0.000000" charge=0
C	-1.244502	-1.595176	1.047403	6
C	-0.710472	-1.263976	-0.333707	6
C	0.173428	-0.031746	-0.300637	6
C	-0.500011	1.314664	-0.047667	6
O	-0.225232	2.216884	-1.105997	8
N	1.455058	-0.192896	-0.491697	7
N	2.216578	0.924544	-0.449917	7
H	-1.829712	-2.518936	1.017003	1
H	-1.891662	-0.797686	1.425153	1
H	-0.427242	-1.727186	1.764183	1
H	-1.536242	-1.082576	-1.030427	1
H	-0.132122	-2.112166	-0.717837	1
H	-0.130932	1.735734	0.892633	1
H	-1.583242	1.193824	0.026363	1
H	0.739478	2.109214	-1.258677	1
H	3.094188	0.737014	-0.948067	1
H	2.532638	1.090464	0.511893	1
Es	1.836662	0.379344	-0.455007	99
Es	-1.684169	-1.045783	1.301123	99
Es	-1.244493	-1.595156	1.047367	99
Es	-0.321641	-1.836691	-0.590199	99
Es	-0.266092	-0.639773	-0.313565	99
Es	-0.275881	2.493910	-0.991888	99
Es	2.389769	1.007330	0.129775	99
Es	-0.311618	1.854912	-0.692780	99
Es	-0.374442	2.104535	-1.349322	99
Es	2.743731	0.798033	-0.739988	99
Es	-0.225030	2.216689	-1.105844	99
Es	-1.270151	-1.128397	-0.801745	99
Es	-1.641571	-2.221185	1.022474	99
Es	0.866147	-0.062435	-0.683603	99
Es	-0.242257	1.585191	0.602775	99
Es	0.271411	2.156044	-1.179338	99
Es	-0.499918	1.314720	-0.047835	99
Es	-0.710467	-1.263919	-0.333663	99
Es	-0.972318	-1.411697	0.356015	99
Es	2.216794	0.924065	-0.449715	99
Es	2.035018	1.221979	-0.592864	99
Es	1.454824	-0.192331	-0.491567	99
Es	-0.686281	-1.683227	1.531000	99
Es	-1.237539	1.220557	0.005872	99
Es	1.619849	-0.524353	-0.577341	99
Es	-0.157876	0.628858	-0.167274	99
Es	0.967715	-0.151334	-0.116867	99
Es	0.173400	-0.031753	-0.300598	99
45
Properties=species:S:1:pos:R:3:Z:I:1 energy=-341.11783655970896 field_type=dipole dipole="0.000000 0.000000 0.000000" charge=0
C	-1.244502	-1.595176	1.047403	6
C	-0.710472	-1.263976	-0.333707	6
C	0.173428	-0.031746	-0.300637	6
C	-0.500011	1.314664	-0.047667	6
O	-0.225232	2.216884	-1.105997	8
N	1.455058	-0.192896	-0.491697	7
N	2.216578	0.924544	-0.449917	7
H	-1.829712	-2.518936	1.017003	1
H	-1.891662	-0.797686	1.425153	1
H	-0.427242	-1.727186	1.764183	1
H	-1.536242	-1.082576	-1.030427	1
H	-0.132122	-2.112166	-0.717837	1
H	-0.130932	1.735734	0.892633	1
H	-1.583242	1.193824	0.026363	1
H	0.739478	2.109214	-1.258677	1
H	3.094188	0.737014	-0.948067	1
H	2.532638	1.090464	0.511893	1
Es	0.865995	-0.062383	-0.683317	99
Es	2.743395	0.798722	-0.741000	99
Es	1.619529	-0.524165	-0.577495	99
Es	0.967896	-0.151603	-0.116881	99
Es	-0.225026	2.216647	-1.105855	99
Es	-1.641585	-2.221235	1.022579	99
Es	-1.270128	-1.128344	-0.801700	99
Es	-0.686330	-1.683151	1.530958	99
Es	-1.684125	-1.045765	1.301107	99
Es	-0.242274	1.585193	0.602780	99
Es	-0.499918	1.314715	-0.047829	99
Es	2.390409	1.006665	0.129698	99
Es	0.271633	2.156927	-1.179078	99
Es	-0.311501	1.854648	-0.692937	99
Es	-0.710468	-1.263913	-0.333660	99
Es	-0.157811	0.628862	-0.167272	99
Es	1.454832	-0.192319	-0.491567	99
Es	-0.321659	-1.836705	-0.590284	99
Es	-0.972294	-1.411753	0.356017	99
Es	-0.266159	-0.639835	-0.313663	99
Es	-1.237470	1.220560	0.005901	99
Es	0.173402	-0.031753	-0.300593	99
Es	-1.244494	-1.595157	1.047369	99
Es	-0.277342	2.494168	-0.992440	99
Es	1.837237	0.379219	-0.454953	99
Es	2.034402	1.222096	-0.591879	99
Es	2.216805	0.924062	-0.449718	99
Es	-0.373374	2.103731	-1.348888	99
45
Properties=species:S:1:pos:R:3:Z:I:1 energy=-341.11783655970896 field_type=dipole dipole="0.000000 0.000000 0.000000" charge=0
C	-1.244502	-1.595176	1.047403	6
C	-0.710472	-1.263976	-0.333707	6
C	0.173428	-0.031746	-0.300637	6
C	-0.500011	1.314664	-0.047667	6
O	-0.225232	2.216884	-1.105997	8
N	1.455058	-0.192896	-0.491697	7
N	2.216578	0.924544	-0.449917	7
H	-1.829712	-2.518936	1.017003	1
H	-1.891662	-0.797686	1.425153	1
H	-0.427242	-1.727186	1.764183	1
H	-1.536242	-1.082576	-1.030427	1
H	-0.132122	-2.112166	-0.717837	1
H	-0.130932	1.735734	0.892633	1
H	-1.583242	1.193824	0.026363	1
H	0.739478	2.109214	-1.258677	1
H	3.094188	0.737014	-0.948067	1
H	2.532638	1.090464	0.511893	1
Es	-1.641539	-2.221157	1.022511	99
Es	-0.375051	2.106160	-1.349179	99
Es	2.743417	0.798925	-0.741182	99
Es	-1.237463	1.220566	0.005967	99
Es	-0.499917	1.314726	-0.047846	99
Es	-0.686353	-1.683214	1.531037	99
Es	1.454842	-0.192340	-0.491575	99
Es	2.216812	0.924053	-0.449721	99
Es	-0.710468	-1.263914	-0.333659	99
Es	-0.275000	2.493476	-0.990796	99
Es	-0.266137	-0.639939	-0.313676	99
Es	-0.242315	1.585158	0.602703	99
Es	-0.157792	0.628900	-0.167279	99
Es	0.271304	2.155758	-1.180033	99
Es	-0.311836	1.854150	-0.693324	99
Es	-1.684186	-1.045840	1.301126	99
Es	-1.270101	-1.128332	-0.801729	99
Es	2.390244	1.007275	0.129910	99
Es	-0.225034	2.216623	-1.105872	99
Es	-0.972278	-1.411686	0.356033	99
Es	1.837034	0.379124	-0.455238	99
Es	1.619414	-0.524302	-0.577281	99
Es	2.034848	1.221324	-0.591721	99
Es	0.967935	-0.151370	-0.117077	99
Es	0.173401	-0.031753	-0.300597	99
Es	-0.321650	-1.836683	-0.590279	99
Es	0.865940	-0.062398	-0.683190	99
Es	-1.244492	-1.595156	1.047367	99
45
Properties=species:S:1:pos:R:3:Z:I:1 energy=-341.11783655970896 field_type=dipole dipole="0.000000 0.000000 0.000000" charge=0
C	-1.244502	-1.595176	1.047403	6
C	-0.710472	-1.263976	-0.333707	6
C	0.173428	-0.031746	-0.300637	6
C	-0.500011	1.314664	-0.047667	6
O	-0.225232	2.216884	-1.105997	8
N	1.455058	-0.192896	-0.491697	7
N	2.216578	0.924544	-0.449917	7
H	-1.829712	-2.518936	1.017003	1
H	-1.891662	-0.797686	1.425153	1
H	-0.427242	-1.727186	1.764183	1
H	-1.536242	-1.082576	-1.030427	1
H	-0.132122	-2.112166	-0.717837	1
H	-0.130932	1.735734	0.892633	1
H	-1.583242	1.193824	0.026363	1
H	0.739478	2.109214	-1.258677	1
H	3.094188	0.737014	-0.948067	1
H	2.532638	1.090464	0.511893	1
Es	0.967897	-0.151328	-0.117217	99
Es	-0.321688	-1.836652	-0.590322	99
Es	-0.710468	-1.263914	-0.333660	99
Es	-1.641528	-2.221220	1.022488	99
Es	-0.499918	1.314719	-0.047833	99
Es	0.173401	-0.031753	-0.300597	99
Es	-0.311570	1.854944	-0.692454	99
Es	-0.972247	-1.411613	0.356120	99
Es	-0.266152	-0.640008	-0.313707	99
Es	2.743545	0.798394	-0.740700	99
Es	-0.242323	1.585141	0.602771	99
Es	2.035395	1.221604	-0.591997	99
Es	-1.684189	-1.045909	1.301144	99
Es	1.836600	0.379568	-0.455545	99
Es	0.865940	-0.062595	-0.683312	99
Es	-1.244493	-1.595156	1.047367	99
Es	0.271627	2.156707	-1.179633	99
Es	-1.270085	-1.128323	-0.801705	99
Es	-0.373065	2.103404	-1.348061	99
Es	-0.277577	2.494383	-0.993315	99
Es	1.454828	-0.192331	-0.491568	99
Es	-0.157807	0.628976	-0.167284	99
Es	-0.225000	2.216733	-1.105780	99
Es	-1.237445	1.220522	0.005908	99
Es	1.619403	-0.524206	-0.576980	99
Es	2.390067	1.007157	0.129954	99
Es	2.216811	0.924056	-0.449716	99
Es	-0.686382	-1.683167	1.531033	99
