45
Properties=species:S:1:pos:R:3:Z:I:1 energy=-341.1872404585062 field_type=dipole dipole="0.000000 0.000000 0.000000" charge=0
C	-2.465627	-1.240102	-0.160240	6
C	-0.968057	-1.243172	0.088150	6
C	-0.368507	0.151278	-0.045750	6
O	1.045783	0.051018	0.194140	8
C	1.817873	1.152818	0.156820	6
N	3.101053	0.868828	0.443310	7
N	1.425933	2.335948	-0.140480	7
H	-2.867907	-2.253482	-0.065780	1
H	-2.695377	-0.875982	-1.166620	1
H	-2.981657	-0.600732	0.562920	1
H	-0.475147	-1.924032	-0.616240	1
H	-0.756747	-1.640092	1.088400	1
H	-0.814857	0.827258	0.692120	1
H	-0.537117	0.537108	-1.057180	1
H	3.371523	-0.083932	0.245890	1
H	3.742143	1.577368	0.110760	1
H	0.426693	2.359898	-0.330220	1
Es	1.598200	1.839637	-0.307056	99
Es	3.017021	0.909138	0.728515	99
Es	1.045661	0.051416	0.193997	99
Es	-2.465589	-1.240096	-0.160235	99
Es	1.170733	-0.089657	-0.029458	99
Es	-0.827945	-1.505555	0.772261	99
Es	1.297716	0.500760	0.176396	99
Es	-2.812863	-0.800615	0.333685	99
Es	-0.368231	0.151243	-0.045699	99
Es	3.257327	0.309602	0.305247	99
Es	-0.661250	-0.537766	0.020836	99
Es	-0.968082	-1.243114	0.088135	99
Es	1.817863	1.152500	0.156896	99
Es	-0.634118	-1.700635	-0.398706	99
Es	3.476562	1.277165	0.230596	99
Es	2.560177	0.973475	0.248944	99
Es	-0.485220	0.420179	-0.737047	99
Es	-0.674391	0.617098	0.455546	99
Es	-2.735331	-1.928368	-0.095530	99
Es	1.643657	2.626683	-0.157690	99
Es	0.819367	2.329689	-0.249007	99
Es	1.425685	2.335522	-0.140435	99
Es	1.091598	-0.037819	0.469619	99
Es	0.534014	0.138786	0.100475	99
Es	-2.617326	-0.988507	-0.847196	99
Es	1.503743	1.935849	0.244803	99
Es	-1.716726	-1.230091	-0.038012	99
Es	3.100886	0.868821	0.442750	99
45
Properties=species:S:1:pos:R:3:Z:I:1 energy=-341.1872404585062 field_type=dipole dipole="0.000000 0.000000 0.000000" charge=0
C	-2.465627	-1.240102	-0.160240	6
C	-0.968057	-1.243172	0.088150	6
C	-0.368507	0.151278	-0.045750	6
O	1.045783	0.051018	0.194140	8
C	1.817873	1.152818	0.156820	6
N	3.101053	0.868828	0.443310	7
N	1.425933	2.335948	-0.140480	7
H	-2.867907	-2.253482	-0.065780	1
H	-2.695377	-0.875982	-1.166620	1
H	-2.981657	-0.600732	0.562920	1
H	-0.475147	-1.924032	-0.616240	1
H	-0.756747	-1.640092	1.088400	1
H	-0.814857	0.827258	0.692120	1
H	-0.537117	0.537108	-1.057180	1
H	3.371523	-0.083932	0.245890	1
H	3.742143	1.577368	0.110760	1
H	0.426693	2.359898	-0.330220	1
Es	1.643425	2.626132	-0.156882	99
Es	-2.735438	-1.928446	-0.095441	99
Es	3.476345	1.277140	0.230137	99
Es	0.533808	0.138565	0.100132	99
Es	-0.634056	-1.700758	-0.398664	99
Es	3.017352	0.909065	0.729181	99
Es	1.171231	-0.090838	-0.028748	99
Es	1.297749	0.500684	0.176025	99
Es	1.045643	0.051405	0.194076	99
Es	-0.968082	-1.243115	0.088135	99
Es	1.504109	1.934703	0.244960	99
Es	3.257125	0.309753	0.304747	99
Es	1.817861	1.152497	0.156894	99
Es	-0.674325	0.617045	0.455519	99
Es	2.560271	0.973452	0.249253	99
Es	1.598197	1.840753	-0.307881	99
Es	-0.661175	-0.537776	0.020977	99
Es	1.425684	2.335499	-0.140434	99
Es	-1.716664	-1.229970	-0.038086	99
Es	-2.465588	-1.240096	-0.160235	99
Es	1.091311	-0.036324	0.469497	99
Es	0.819242	2.330284	-0.249164	99
Es	-0.828081	-1.505490	0.772170	99
Es	3.100874	0.868826	0.442766	99
Es	-2.812782	-0.800572	0.333553	99
Es	-0.485293	0.420218	-0.737055	99
Es	-0.368229	0.151243	-0.045703	99
Es	-2.617378	-0.988544	-0.847099	99
45
Properties=species:S:1:pos:R:3:Z:I:1 energy=-341.1872404585062 field_type=dipole dipole="0.000000 0.000000 0.000000" charge=0
C	-2.465627	-1.240102	-0.160240	6
C	-0.968057	-1.243172	0.088150	6
C	-0.368507	0.151278	-0.045750	6
O	1.045783	0.051018	0.194140	8
C	1.817873	1.152818	0.156820	6
N	3.101053	0.868828	0.443310	7
N	1.425933	2.335948	-0.140480	7
H	-2.867907	-2.253482	-0.065780	1
H	-2.695377	-0.875982	-1.166620	1
H	-2.981657	-0.600732	0.562920	1
H	-0.475147	-1.924032	-0.616240	1
H	-0.756747	-1.640092	1.088400	1
H	-0.814857	0.827258	0.692120	1
H	-0.537117	0.537108	-1.057180	1
H	3.371523	-0.083932	0.245890	1
H	3.742143	1.577368	0.110760	1
H	0.426693	2.359898	-0.330220	1
Es	3.257150	0.309769	0.304825	99
Es	-2.617392	-0.988547	-0.847005	99
Es	-2.465590	-1.240096	-0.160235	99
Es	-0.368233	0.151244	-0.045703	99
Es	1.091426	-0.036801	0.469236	99
Es	-0.634102	-1.700654	-0.398586	99
Es	3.100906	0.868812	0.442764	99
Es	1.297689	0.500704	0.176449	99
Es	-0.968082	-1.243115	0.088135	99
Es	0.819071	2.330974	-0.248428	99
Es	3.476347	1.276998	0.230168	99
Es	1.643422	2.625181	-0.158283	99
Es	-0.485267	0.420230	-0.737002	99
Es	-0.674293	0.617069	0.455416	99
Es	1.045639	0.051395	0.194073	99
Es	2.560331	0.973516	0.248993	99
Es	1.817859	1.152510	0.156908	99
Es	1.425694	2.335501	-0.140430	99
Es	-0.661205	-0.537901	0.020951	99
Es	-0.827997	-1.505535	0.772207	99
Es	-2.735479	-1.928474	-0.095478	99
Es	0.533606	0.138379	0.099910	99
Es	1.504559	1.935988	0.245548	99
Es	-2.812803	-0.800580	0.333507	99
Es	-1.716677	-1.229920	-0.038158	99
Es	1.171404	-0.090174	-0.028669	99
Es	1.597889	1.839685	-0.307809	99
Es	3.017266	0.909181	0.729329	99
45
Properties=species:S:1:pos:R:3:Z:I:1 energy=-341.1872404585062 field_type=dipole dipole="0.000000 0.000000 0.000000" charge=0
C	-2.465627	-1.240102	-0.160240	6
C	-0.968057	-1.243172	0.088150	6
C	-0.368507	0.151278	-0.045750	6
O	1.045783	0.051018	0.194140	8
C	1.817873	1.152818	0.156820	6
N	3.101053	0.868828	0.443310	7
N	1.425933	2.335948	-0.140480	7
H	-2.867907	-2.253482	-0.065780	1
H	-2.695377	-0.875982	-1.166620	1
H	-2.981657	-0.600732	0.562920	1
H	-0.475147	-1.924032	-0.616240	1
H	-0.756747	-1.640092	1.088400	1
H	-0.814857	0.827258	0.692120	1
H	-0.537117	0.537108	-1.057180	1
H	3.371523	-0.083932	0.245890	1
H	3.742143	1.577368	0.110760	1
H	0.426693	2.359898	-0.330220	1
Es	-2.465590	-1.240096	-0.160235	99
Es	1.643294	2.625751	-0.157772	99
Es	3.016304	0.909080	0.729542	99
Es	1.297290	0.500720	0.176726	99
Es	1.597956	1.840412	-0.307714	99
Es	-0.674323	0.617090	0.455446	99
Es	0.533403	0.137989	0.099505	99
Es	-2.617325	-0.988466	-0.847000	99
Es	-0.368237	0.151244	-0.045703	99
Es	1.091363	-0.036289	0.469101	99
Es	1.504473	1.935238	0.245339	99
Es	-0.827985	-1.505604	0.772192	99
Es	-0.485209	0.420291	-0.736840	99
Es	-1.716586	-1.230111	-0.038043	99
Es	0.819164	2.330397	-0.248799	99
Es	1.045655	0.051349	0.194058	99
Es	1.425703	2.335520	-0.140424	99
Es	-2.812801	-0.800614	0.333501	99
Es	-0.968081	-1.243115	0.088135	99
Es	-0.634122	-1.700605	-0.398624	99
Es	1.172066	-0.090283	-0.028423	99
Es	-2.735619	-1.928348	-0.095579	99
Es	-0.661264	-0.537936	0.020816	99
Es	1.817863	1.152505	0.156893	99
Es	3.100879	0.868813	0.442707	99
Es	3.476667	1.277154	0.230916	99
Es	3.257197	0.309768	0.304787	99
Es	2.561003	0.973484	0.248123	99
45
Properties=species:S:1:pos:R:3:Z:I:1 energy=-341.1872404585062 field_type=dipole dipole="0.000000 0.000000 0.000000" charge=0
C	-2.465627	-1.240102	-0.160240	6
C	-0.968057	-1.243172	0.088150	6
C	-0.368507	0.151278	-0.045750	6
O	1.045783	0.051018	0.194140	8
C	1.817873	1.152818	0.156820	6
N	3.101053	0.868828	0.443310	7
N	1.425933	2.335948	-0.140480	7
H	-2.867907	-2.253482	-0.065780	1
H	-2.695377	-0.875982	-1.166620	1
H	-2.981657	-0.600732	0.562920	1
H	-0.475147	-1.924032	-0.616240	1
H	-0.756747	-1.640092	1.088400	1
H	-0.814857	0.827258	0.692120	1
H	-0.537117	0.537108	-1.057180	1
H	3.371523	-0.083932	0.245890	1
H	3.742143	1.577368	0.110760	1
H	0.426693	2.359898	-0.330220	1
Es	3.100898	0.868818	0.442766	99
Es	1.297251	0.500929	0.178806	99
Es	3.016064	0.909499	0.730000	99
Es	-2.617461	-0.988516	-0.847017	99
Es	0.533337	0.138194	0.099763	99
Es	1.171609	-0.087045	-0.029861	99
Es	-2.735492	-1.928355	-0.095515	99
Es	3.257291	0.309742	0.305084	99
Es	1.817864	1.152499	0.156892	99
Es	-0.368231	0.151244	-0.045705	99
Es	1.642555	2.625887	-0.157645	99
Es	-2.465590	-1.240096	-0.160235	99
Es	2.561367	0.973262	0.247749	99
Es	1.425691	2.335501	-0.140444	99
Es	-1.716660	-1.230004	-0.038100	99
Es	-0.661209	-0.537939	0.020979	99
Es	3.476479	1.277002	0.230505	99
Es	1.045652	0.051370	0.194059	99
Es	-2.812822	-0.800674	0.333521	99
Es	1.598607	1.840616	-0.307808	99
Es	1.091928	-0.039903	0.468152	99
Es	-0.827938	-1.505613	0.772105	99
Es	-0.634139	-1.700580	-0.398564	99
Es	0.819212	2.329877	-0.249127	99
Es	1.504514	1.935413	0.245659	99
Es	-0.968082	-1.243116	0.088135	99
Es	-0.674302	0.617156	0.455334	99
Es	-0.485256	0.420168	-0.736856	99
45
Properties=species:S:1:pos:R:3:Z:I:1 energy=-341.1872404585062 field_type=dipole dipole="0.000000 0.000000 0.000000" charge=0
C	-2.465627	-1.240102	-0.160240	6
C	-0.968057	-1.243172	0.088150	6
C	-0.368507	0.151278	-0.045750	6
O	1.045783	0.051018	0.194140	8
C	1.817873	1.152818	0.156820	6
N	3.101053	0.868828	0.443310	7
N	1.425933	2.335948	-0.140480	7
H	-2.867907	-2.253482	-0.065780	1
H	-2.695377	-0.875982	-1.166620	1
H	-2.981657	-0.600732	0.562920	1
H	-0.475147	-1.924032	-0.616240	1
H	-0.756747	-1.640092	1.088400	1
H	-0.814857	0.827258	0.692120	1
H	-0.537117	0.537108	-1.057180	1
H	3.371523	-0.083932	0.245890	1
H	3.742143	1.577368	0.110760	1
H	0.426693	2.359898	-0.330220	1
Es	1.425702	2.335492	-0.140432	99
Es	-0.828023	-1.505605	0.772075	99
Es	1.817865	1.152497	0.156885	99
Es	0.532828	0.138119	0.101026	99
Es	1.093451	-0.042376	0.467445	99
Es	-0.661169	-0.537898	0.020842	99
Es	1.045642	0.051393	0.194038	99
Es	1.297038	0.500902	0.179410	99
Es	3.257371	0.309772	0.305217	99
Es	-0.674356	0.617062	0.455365	99
Es	-2.465590	-1.240096	-0.160236	99
Es	-0.968082	-1.243116	0.088135	99
Es	2.561686	0.973074	0.247349	99
Es	1.642669	2.625182	-0.158106	99
Es	0.819256	2.330578	-0.249094	99
Es	-1.716624	-1.230012	-0.038188	99
Es	-2.735444	-1.928367	-0.095558	99
Es	3.015895	0.909748	0.730543	99
Es	3.100797	0.868832	0.442681	99
Es	1.598223	1.840616	-0.307961	99
Es	1.170836	-0.084479	-0.030910	99
Es	1.504741	1.935425	0.246200	99
Es	-0.368242	0.151245	-0.045704	99
Es	-2.617519	-0.988467	-0.846993	99
Es	3.476345	1.276910	0.230300	99
Es	-2.812829	-0.800754	0.333567	99
Es	-0.634107	-1.700604	-0.398481	99
Es	-0.485225	0.420265	-0.736787	99
45
Properties=species:S:1:pos:R:3:Z:I:1 energy=-341.1872404585062 field_type=dipole dipole="0.000000 0.000000 0.000000" charge=0
C	-2.465627	-1.240102	-0.160240	6
C	-0.968057	-1.243172	0.088150	6
C	-0.368507	0.151278	-0.045750	6
O	1.045783	0.051018	0.194140	8
C	1.817873	1.152818	0.156820	6
N	3.101053	0.868828	0.443310	7
N	1.425933	2.335948	-0.140480	7
H	-2.867907	-2.253482	-0.065780	1
H	-2.695377	-0.875982	-1.166620	1
H	-2.981657	-0.600732	0.562920	1
H	-0.475147	-1.924032	-0.616240	1
H	-0.756747	-1.640092	1.088400	1
H	-0.814857	0.827258	0.692120	1
H	-0.537117	0.537108	-1.057180	1
H	3.371523	-0.083932	0.245890	1
H	3.742143	1.577368	0.110760	1
H	0.426693	2.359898	-0.330220	1
Es	-0.968081	-1.243116	0.088135	99
Es	-0.634161	-1.700632	-0.398466	99
Es	1.425684	2.335500	-0.140434	99
Es	-2.465590	-1.240096	-0.160235	99
Es	3.257502	0.309729	0.305024	99
Es	-0.827980	-1.505587	0.772047	99
Es	1.045629	0.051442	0.194149	99
Es	1.598476	1.841716	-0.309090	99
Es	-2.812878	-0.800702	0.333463	99
Es	1.092871	-0.036201	0.467936	99
Es	-2.617456	-0.988530	-0.846959	99
Es	1.171501	-0.090039	-0.028734	99
Es	1.504692	1.933869	0.245329	99
Es	3.476349	1.277127	0.230693	99
Es	-2.735532	-1.928325	-0.095561	99
Es	1.817864	1.152501	0.156884	99
Es	0.819164	2.330873	-0.249038	99
Es	3.100843	0.868822	0.442728	99
Es	-0.661186	-0.538027	0.020809	99
Es	-1.716622	-1.229969	-0.038076	99
Es	-0.368236	0.151244	-0.045703	99
Es	-0.485192	0.420319	-0.736712	99
Es	0.532542	0.137677	0.101498	99
Es	1.297283	0.500665	0.176151	99
Es	-0.674306	0.617083	0.455290	99
Es	1.642545	2.625307	-0.156206	99
Es	2.561246	0.973275	0.247860	99
Es	3.016164	0.909412	0.729850	99
45
Properties=species:S:1:pos:R:3:Z:I:1 energy=-341.1872404585062 field_type=dipole dipole="0.000000 0.000000 0.000000" charge=0
C	-2.465627	-1.240102	-0.160240	6
C	-0.968057	-1.243172	0.088150	6
C	-0.368507	0.151278	-0.045750	6
O	1.045783	0.051018	0.194140	8
C	1.817873	1.152818	0.156820	6
N	3.101053	0.868828	0.443310	7
N	1.425933	2.335948	-0.140480	7
H	-2.867907	-2.253482	-0.065780	1
H	-2.695377	-0.875982	-1.166620	1
H	-2.981657	-0.600732	0.562920	1
H	-0.475147	-1.924032	-0.616240	1
H	-0.756747	-1.640092	1.088400	1
H	-0.814857	0.827258	0.692120	1
H	-0.537117	0.537108	-1.057180	1
H	3.371523	-0.083932	0.245890	1
H	3.742143	1.577368	0.110760	1
H	0.426693	2.359898	-0.330220	1
Es	0.532538	0.137787	0.100930	99
Es	-0.634079	-1.700675	-0.398381	99
Es	1.598559	1.839346	-0.307316	99
Es	-2.465589	-1.240096	-0.160235	99
Es	1.045696	0.051269	0.194083	99
Es	0.819203	2.330892	-0.249222	99
Es	1.425686	2.335502	-0.140437	99
Es	1.504285	1.936797	0.246216	99
Es	-0.661237	-0.538063	0.020791	99
Es	-0.827971	-1.505472	0.771990	99
Es	-0.485174	0.420304	-0.736668	99
Es	3.100916	0.868818	0.442815	99
Es	1.817863	1.152506	0.156888	99
Es	-1.716665	-1.230010	-0.038123	99
Es	3.015612	0.910060	0.730799	99
Es	1.092923	-0.039218	0.467421	99
Es	-2.617533	-0.988510	-0.846938	99
Es	-2.812865	-0.800755	0.333495	99
Es	1.642790	2.624720	-0.158537	99
Es	3.476272	1.276762	0.230044	99
Es	-0.968081	-1.243120	0.088138	99
Es	2.561999	0.973037	0.246985	99
Es	-0.368238	0.151245	-0.045703	99
Es	1.297397	0.500764	0.178061	99
Es	-2.735510	-1.928311	-0.095571	99
Es	3.257369	0.309710	0.305399	99
Es	-0.674292	0.617120	0.455233	99
Es	1.171264	-0.087070	-0.029525	99
