44
Properties=species:S:1:pos:R:3:Z:I:1 energy=-360.94849485537554 field_type=dipole dipole="0.000000 0.000000 0.000000" charge=0
C	-1.450796	-0.752616	-0.008706	6
C	0.039574	-0.610586	-0.295176	6
C	0.460494	-1.525836	-1.438696	6
O	0.318894	0.742294	-0.709826	8
C	0.579844	1.663784	0.246314	6
N	0.604264	1.413074	1.509174	7
O	0.911574	2.592334	2.200004	8
H	-1.755096	-0.092526	0.809784	1
H	-1.705086	-1.781066	0.264994	1
H	-2.046316	-0.464186	-0.881816	1
H	0.627004	-0.875596	0.591884	1
H	-0.071506	-1.273106	-2.362496	1
H	0.269914	-2.576216	-1.198706	1
H	1.528744	-1.404346	-1.647966	1
H	0.769634	2.649514	-0.208196	1
H	0.918854	2.295074	3.129434	1
Es	0.325804	-2.236629	-1.265249	99
Es	0.579782	1.663576	0.246109	99
Es	0.305924	1.580330	1.007707	99
Es	-0.710956	-0.678923	-0.149160	99
Es	0.544232	1.098079	1.703378	99
Es	0.438568	-0.785856	0.305341	99
Es	0.091684	-1.354062	-2.061140	99
Es	0.706698	2.323017	-0.052857	99
Es	1.187295	-1.445268	-1.574317	99
Es	0.460484	-1.525830	-1.438671	99
Es	0.405267	1.061163	-0.298259	99
Es	0.580197	0.756412	-0.835015	99
Es	0.911504	2.592039	2.200153	99
Es	1.200606	2.667536	2.114960	99
Es	-1.450773	-0.752626	-0.008709	99
Es	0.039590	-0.610346	-0.295295	99
Es	0.604371	1.413623	1.508877	99
Es	0.318876	0.742174	-0.709438	99
Es	0.082189	0.862279	-0.832438	99
Es	0.777171	2.073728	1.891002	99
Es	0.222378	0.264839	-0.515421	99
Es	-1.613314	-1.455386	0.175420	99
Es	-1.847862	-0.561773	-0.608521	99
Es	0.884388	1.449755	0.971852	99
Es	0.913945	2.426494	2.694302	99
Es	0.247034	-1.066211	-0.875567	99
Es	-1.652963	-0.308498	0.545301	99
Es	0.668506	2.778594	2.156425	99
44
Properties=species:S:1:pos:R:3:Z:I:1 energy=-360.94849485537554 field_type=dipole dipole="0.000000 0.000000 0.000000" charge=0
C	-1.450796	-0.752616	-0.008706	6
C	0.039574	-0.610586	-0.295176	6
C	0.460494	-1.525836	-1.438696	6
O	0.318894	0.742294	-0.709826	8
C	0.579844	1.663784	0.246314	6
N	0.604264	1.413074	1.509174	7
O	0.911574	2.592334	2.200004	8
H	-1.755096	-0.092526	0.809784	1
H	-1.705086	-1.781066	0.264994	1
H	-2.046316	-0.464186	-0.881816	1
H	0.627004	-0.875596	0.591884	1
H	-0.071506	-1.273106	-2.362496	1
H	0.269914	-2.576216	-1.198706	1
H	1.528744	-1.404346	-1.647966	1
H	0.769634	2.649514	-0.208196	1
H	0.918854	2.295074	3.129434	1
Es	0.083468	0.861854	-0.835389	99
Es	-0.710906	-0.678954	-0.149072	99
Es	0.579789	1.663576	0.246114	99
Es	-1.613380	-1.455411	0.175484	99
Es	-1.653018	-0.308441	0.545193	99
Es	0.914089	2.426746	2.694389	99
Es	0.911530	2.592081	2.200141	99
Es	0.438548	-0.785812	0.305323	99
Es	1.187287	-1.445194	-1.574385	99
Es	0.776708	2.073704	1.890931	99
Es	0.247029	-1.066177	-0.875605	99
Es	0.545079	1.098390	1.703308	99
Es	0.305239	1.579885	1.008066	99
Es	0.581153	0.756806	-0.831955	99
Es	1.200271	2.666389	2.115303	99
Es	0.604370	1.413615	1.508869	99
Es	0.222247	0.264487	-0.515636	99
Es	0.318879	0.742228	-0.709393	99
Es	0.706703	2.323081	-0.052869	99
Es	0.460488	-1.525834	-1.438673	99
Es	0.039593	-0.610340	-0.295297	99
Es	0.884283	1.449777	0.971597	99
Es	0.091633	-1.354219	-2.061126	99
Es	0.669103	2.779590	2.156037	99
Es	-1.847778	-0.561811	-0.608536	99
Es	0.403086	1.061447	-0.298184	99
Es	-1.450765	-0.752626	-0.008711	99
Es	0.325904	-2.236609	-1.265153	99
44
Properties=species:S:1:pos:R:3:Z:I:1 energy=-360.94849485537554 field_type=dipole dipole="0.000000 0.000000 0.000000" charge=0
C	-1.450796	-0.752616	-0.008706	6
C	0.039574	-0.610586	-0.295176	6
C	0.460494	-1.525836	-1.438696	6
O	0.318894	0.742294	-0.709826	8
C	0.579844	1.663784	0.246314	6
N	0.604264	1.413074	1.509174	7
O	0.911574	2.592334	2.200004	8
H	-1.755096	-0.092526	0.809784	1
H	-1.705086	-1.781066	0.264994	1
H	-2.046316	-0.464186	-0.881816	1
H	0.627004	-0.875596	0.591884	1
H	-0.071506	-1.273106	-2.362496	1
H	0.269914	-2.576216	-1.198706	1
H	1.528744	-1.404346	-1.647966	1
H	0.769634	2.649514	-0.208196	1
H	0.918854	2.295074	3.129434	1
Es	0.039591	-0.610345	-0.295296	99
Es	0.579784	1.663577	0.246114	99
Es	0.669816	2.779339	2.156311	99
Es	1.187250	-1.445175	-1.574427	99
Es	0.225311	0.263192	-0.516880	99
Es	0.604358	1.413585	1.508841	99
Es	0.776377	2.073472	1.890719	99
Es	0.079663	0.862292	-0.820970	99
Es	-1.450770	-0.752626	-0.008711	99
Es	0.460485	-1.525831	-1.438671	99
Es	-1.653085	-0.308425	0.545215	99
Es	0.545478	1.098384	1.703033	99
Es	-1.613305	-1.455327	0.175499	99
Es	0.409784	1.060124	-0.297729	99
Es	0.305078	1.579628	1.008399	99
Es	0.318915	0.742228	-0.709438	99
Es	0.438523	-0.785841	0.305202	99
Es	0.326018	-2.236563	-1.265152	99
Es	0.911554	2.592013	2.200152	99
Es	0.575264	0.758990	-0.845529	99
Es	1.199607	2.666663	2.115263	99
Es	0.706789	2.323109	-0.052858	99
Es	0.091524	-1.354244	-2.061159	99
Es	0.247059	-1.066233	-0.875515	99
Es	0.883930	1.449997	0.971348	99
Es	0.914384	2.427079	2.694584	99
Es	-0.710920	-0.678902	-0.149039	99
Es	-1.847830	-0.561932	-0.608536	99
44
Properties=species:S:1:pos:R:3:Z:I:1 energy=-360.94849485537554 field_type=dipole dipole="0.000000 0.000000 0.000000" charge=0
C	-1.450796	-0.752616	-0.008706	6
C	0.039574	-0.610586	-0.295176	6
C	0.460494	-1.525836	-1.438696	6
O	0.318894	0.742294	-0.709826	8
C	0.579844	1.663784	0.246314	6
N	0.604264	1.413074	1.509174	7
O	0.911574	2.592334	2.200004	8
H	-1.755096	-0.092526	0.809784	1
H	-1.705086	-1.781066	0.264994	1
H	-2.046316	-0.464186	-0.881816	1
H	0.627004	-0.875596	0.591884	1
H	-0.071506	-1.273106	-2.362496	1
H	0.269914	-2.576216	-1.198706	1
H	1.528744	-1.404346	-1.647966	1
H	0.769634	2.649514	-0.208196	1
H	0.918854	2.295074	3.129434	1
Es	0.706724	2.323165	-0.052834	99
Es	0.039592	-0.610346	-0.295296	99
Es	-1.847797	-0.561934	-0.608586	99
Es	-0.710780	-0.678877	-0.148888	99
Es	0.604359	1.413611	1.508860	99
Es	0.438459	-0.785837	0.305179	99
Es	1.187212	-1.445211	-1.574487	99
Es	0.579788	1.663577	0.246116	99
Es	-1.450767	-0.752627	-0.008711	99
Es	0.545437	1.098445	1.702776	99
Es	0.883815	1.449930	0.971512	99
Es	0.911567	2.591990	2.200138	99
Es	-1.613308	-1.455291	0.175466	99
Es	0.305274	1.579594	1.008200	99
Es	0.318879	0.742249	-0.709462	99
Es	0.223540	0.263794	-0.516148	99
Es	0.913819	2.426874	2.694561	99
Es	1.199670	2.666943	2.115738	99
Es	0.407549	1.060325	-0.298147	99
Es	0.081096	0.862465	-0.825147	99
Es	-1.653149	-0.308458	0.545219	99
Es	0.669751	2.779198	2.156227	99
Es	0.776972	2.073566	1.890615	99
Es	0.326039	-2.236549	-1.265165	99
Es	0.577849	0.758004	-0.841628	99
Es	0.247017	-1.066245	-0.875528	99
Es	0.091538	-1.354296	-2.061140	99
Es	0.460485	-1.525831	-1.438672	99
44
Properties=species:S:1:pos:R:3:Z:I:1 energy=-360.94849485537554 field_type=dipole dipole="0.000000 0.000000 0.000000" charge=0
C	-1.450796	-0.752616	-0.008706	6
C	0.039574	-0.610586	-0.295176	6
C	0.460494	-1.525836	-1.438696	6
O	0.318894	0.742294	-0.709826	8
C	0.579844	1.663784	0.246314	6
N	0.604264	1.413074	1.509174	7
O	0.911574	2.592334	2.200004	8
H	-1.755096	-0.092526	0.809784	1
H	-1.705086	-1.781066	0.264994	1
H	-2.046316	-0.464186	-0.881816	1
H	0.627004	-0.875596	0.591884	1
H	-0.071506	-1.273106	-2.362496	1
H	0.269914	-2.576216	-1.198706	1
H	1.528744	-1.404346	-1.647966	1
H	0.769634	2.649514	-0.208196	1
H	0.918854	2.295074	3.129434	1
Es	0.911522	2.592046	2.200148	99
Es	-1.653189	-0.308468	0.545212	99
Es	-1.450770	-0.752627	-0.008710	99
Es	0.438488	-0.785764	0.305206	99
Es	0.091652	-1.354342	-2.061138	99
Es	0.670209	2.779445	2.155790	99
Es	0.247033	-1.066141	-0.875434	99
Es	1.187286	-1.445342	-1.574460	99
Es	0.545090	1.098793	1.702560	99
Es	0.460485	-1.525832	-1.438670	99
Es	0.325919	-2.236458	-1.265199	99
Es	0.604367	1.413605	1.508906	99
Es	0.706764	2.323173	-0.052800	99
Es	-1.613376	-1.455234	0.175433	99
Es	0.913349	2.427213	2.694653	99
Es	0.777186	2.073327	1.890622	99
Es	-1.847746	-0.561912	-0.608620	99
Es	0.318894	0.742229	-0.709439	99
Es	0.039592	-0.610345	-0.295295	99
Es	0.884047	1.449527	0.971623	99
Es	0.305284	1.579615	1.008122	99
Es	0.222047	0.263841	-0.516262	99
Es	0.579977	0.757284	-0.834211	99
Es	1.199565	2.666546	2.116206	99
Es	0.404351	1.061168	-0.298103	99
Es	0.083584	0.862329	-0.832642	99
Es	-0.710764	-0.679026	-0.148849	99
Es	0.579784	1.663578	0.246120	99
44
Properties=species:S:1:pos:R:3:Z:I:1 energy=-360.94849485537554 field_type=dipole dipole="0.000000 0.000000 0.000000" charge=0
C	-1.450796	-0.752616	-0.008706	6
C	0.039574	-0.610586	-0.295176	6
C	0.460494	-1.525836	-1.438696	6
O	0.318894	0.742294	-0.709826	8
C	0.579844	1.663784	0.246314	6
N	0.604264	1.413074	1.509174	7
O	0.911574	2.592334	2.200004	8
H	-1.755096	-0.092526	0.809784	1
H	-1.705086	-1.781066	0.264994	1
H	-2.046316	-0.464186	-0.881816	1
H	0.627004	-0.875596	0.591884	1
H	-0.071506	-1.273106	-2.362496	1
H	0.269914	-2.576216	-1.198706	1
H	1.528744	-1.404346	-1.647966	1
H	0.769634	2.649514	-0.208196	1
H	0.918854	2.295074	3.129434	1
Es	0.326052	-2.236511	-1.265211	99
Es	-1.653041	-0.308508	0.545233	99
Es	0.091577	-1.354346	-2.061135	99
Es	0.039591	-0.610347	-0.295296	99
Es	0.706756	2.323210	-0.052769	99
Es	-1.847915	-0.561884	-0.608512	99
Es	-1.450771	-0.752625	-0.008710	99
Es	0.776993	2.073249	1.890729	99
Es	0.247089	-1.066295	-0.875417	99
Es	0.402043	1.061564	-0.298199	99
Es	0.579784	1.663575	0.246108	99
Es	0.460486	-1.525833	-1.438673	99
Es	0.670060	2.778219	2.156710	99
Es	0.318858	0.742246	-0.709433	99
Es	0.911466	2.592050	2.200153	99
Es	1.187247	-1.445205	-1.574471	99
Es	0.883771	1.449620	0.971474	99
Es	0.084887	0.861854	-0.835591	99
Es	0.604370	1.413620	1.508893	99
Es	0.305088	1.579365	1.008341	99
Es	0.221770	0.263738	-0.516239	99
Es	0.581331	0.757476	-0.831207	99
Es	0.914578	2.427250	2.694917	99
Es	-0.710879	-0.678969	-0.148858	99
Es	-1.613289	-1.455308	0.175487	99
Es	0.545527	1.098863	1.702275	99
Es	0.438453	-0.785680	0.305016	99
Es	1.198748	2.667841	2.115155	99
44
Properties=species:S:1:pos:R:3:Z:I:1 energy=-360.94849485537554 field_type=dipole dipole="0.000000 0.000000 0.000000" charge=0
C	-1.450796	-0.752616	-0.008706	6
C	0.039574	-0.610586	-0.295176	6
C	0.460494	-1.525836	-1.438696	6
O	0.318894	0.742294	-0.709826	8
C	0.579844	1.663784	0.246314	6
N	0.604264	1.413074	1.509174	7
O	0.911574	2.592334	2.200004	8
H	-1.755096	-0.092526	0.809784	1
H	-1.705086	-1.781066	0.264994	1
H	-2.046316	-0.464186	-0.881816	1
H	0.627004	-0.875596	0.591884	1
H	-0.071506	-1.273106	-2.362496	1
H	0.269914	-2.576216	-1.198706	1
H	1.528744	-1.404346	-1.647966	1
H	0.769634	2.649514	-0.208196	1
H	0.918854	2.295074	3.129434	1
Es	0.706702	2.323242	-0.052748	99
Es	0.091570	-1.354358	-2.061092	99
Es	0.081935	0.863010	-0.826827	99
Es	-1.653110	-0.308479	0.545154	99
Es	0.305927	1.579620	1.007624	99
Es	-1.847807	-0.561886	-0.608506	99
Es	0.544213	1.099262	1.702165	99
Es	0.604366	1.413617	1.508868	99
Es	0.438417	-0.785757	0.305075	99
Es	0.913784	2.427470	2.694886	99
Es	0.326022	-2.236491	-1.265225	99
Es	0.318871	0.742196	-0.709403	99
Es	-0.710762	-0.678903	-0.148832	99
Es	-1.450771	-0.752626	-0.008711	99
Es	0.577498	0.757247	-0.839980	99
Es	0.884316	1.448904	0.972124	99
Es	0.670934	2.780036	2.155680	99
Es	-1.613388	-1.455319	0.175490	99
Es	0.039591	-0.610342	-0.295296	99
Es	0.776866	2.073212	1.890735	99
Es	0.460485	-1.525832	-1.438673	99
Es	0.222479	0.263708	-0.515881	99
Es	0.579782	1.663579	0.246121	99
Es	1.187255	-1.445251	-1.574533	99
Es	0.247039	-1.066259	-0.875456	99
Es	1.198769	2.665905	2.116398	99
Es	0.911504	2.592035	2.200145	99
Es	0.408146	1.060690	-0.298533	99
44
Properties=species:S:1:pos:R:3:Z:I:1 energy=-360.94849485537554 field_type=dipole dipole="0.000000 0.000000 0.000000" charge=0
C	-1.450796	-0.752616	-0.008706	6
C	0.039574	-0.610586	-0.295176	6
C	0.460494	-1.525836	-1.438696	6
O	0.318894	0.742294	-0.709826	8
C	0.579844	1.663784	0.246314	6
N	0.604264	1.413074	1.509174	7
O	0.911574	2.592334	2.200004	8
H	-1.755096	-0.092526	0.809784	1
H	-1.705086	-1.781066	0.264994	1
H	-2.046316	-0.464186	-0.881816	1
H	0.627004	-0.875596	0.591884	1
H	-0.071506	-1.273106	-2.362496	1
H	0.269914	-2.576216	-1.198706	1
H	1.528744	-1.404346	-1.647966	1
H	0.769634	2.649514	-0.208196	1
H	0.918854	2.295074	3.129434	1
Es	0.576977	0.757898	-0.840843	99
Es	0.579785	1.663578	0.246115	99
Es	0.671386	2.778807	2.156547	99
Es	0.318859	0.742251	-0.709408	99
Es	0.091609	-1.354362	-2.061116	99
Es	-1.450771	-0.752625	-0.008710	99
Es	-1.653151	-0.308511	0.545177	99
Es	0.438355	-0.785716	0.305039	99
Es	-1.613328	-1.455279	0.175483	99
Es	0.082182	0.862655	-0.825731	99
Es	0.247147	-1.066231	-0.875385	99
Es	0.544727	1.099284	1.702082	99
Es	0.604357	1.413632	1.508865	99
Es	0.407954	1.060851	-0.298416	99
Es	0.913856	2.427369	2.694956	99
Es	0.706689	2.323269	-0.052703	99
Es	-1.847868	-0.561944	-0.608481	99
Es	0.776203	2.073446	1.890354	99
Es	0.326017	-2.236487	-1.265235	99
Es	0.305717	1.579369	1.007550	99
Es	0.884115	1.449013	0.972253	99
Es	0.039592	-0.610346	-0.295297	99
Es	0.911488	2.592013	2.200177	99
Es	-0.710766	-0.678903	-0.148903	99
Es	1.198857	2.667104	2.115841	99
Es	1.187221	-1.445292	-1.574523	99
Es	0.222939	0.263216	-0.516247	99
Es	0.460485	-1.525831	-1.438672	99
44
Properties=species:S:1:pos:R:3:Z:I:1 energy=-360.94849485537554 field_type=dipole dipole="0.000000 0.000000 0.000000" charge=0
C	-1.450796	-0.752616	-0.008706	6
C	0.039574	-0.610586	-0.295176	6
C	0.460494	-1.525836	-1.438696	6
O	0.318894	0.742294	-0.709826	8
C	0.579844	1.663784	0.246314	6
N	0.604264	1.413074	1.509174	7
O	0.911574	2.592334	2.200004	8
H	-1.755096	-0.092526	0.809784	1
H	-1.705086	-1.781066	0.264994	1
H	-2.046316	-0.464186	-0.881816	1
H	0.627004	-0.875596	0.591884	1
H	-0.071506	-1.273106	-2.362496	1
H	0.269914	-2.576216	-1.198706	1
H	1.528744	-1.404346	-1.647966	1
H	0.769634	2.649514	-0.208196	1
H	0.918854	2.295074	3.129434	1
Es	0.305520	1.579191	1.008221	99
Es	0.247148	-1.066291	-0.875430	99
Es	0.579125	0.758687	-0.836255	99
Es	1.198223	2.666422	2.116091	99
Es	0.911562	2.592036	2.200145	99
Es	0.091634	-1.354455	-2.061104	99
Es	-1.653179	-0.308523	0.545191	99
Es	0.438189	-0.785678	0.305046	99
Es	-0.710742	-0.678808	-0.148924	99
Es	-1.847885	-0.561966	-0.608482	99
Es	0.460484	-1.525833	-1.438672	99
Es	0.083556	0.861819	-0.830207	99
Es	1.187237	-1.445265	-1.574536	99
Es	0.883625	1.449372	0.971639	99
Es	0.706772	2.323294	-0.052696	99
Es	0.404086	1.061186	-0.298205	99
Es	0.545235	1.099129	1.701811	99
Es	0.223309	0.262939	-0.516519	99
Es	0.671567	2.779355	2.156033	99
Es	0.326042	-2.236470	-1.265207	99
Es	-1.613290	-1.455268	0.175472	99
Es	0.039593	-0.610346	-0.295292	99
Es	0.318906	0.742226	-0.709440	99
Es	0.604384	1.413600	1.508910	99
Es	0.776451	2.073160	1.890594	99
Es	0.914062	2.427766	2.695183	99
Es	-1.450764	-0.752625	-0.008711	99
Es	0.579781	1.663577	0.246116	99
44
Properties=species:S:1:pos:R:3:Z:I:1 energy=-360.94849485537554 field_type=dipole dipole="0.000000 0.000000 0.000000" charge=0
C	-1.450796	-0.752616	-0.008706	6
C	0.039574	-0.610586	-0.295176	6
C	0.460494	-1.525836	-1.438696	6
O	0.318894	0.742294	-0.709826	8
C	0.579844	1.663784	0.246314	6
N	0.604264	1.413074	1.509174	7
O	0.911574	2.592334	2.200004	8
H	-1.755096	-0.092526	0.809784	1
H	-1.705086	-1.781066	0.264994	1
H	-2.046316	-0.464186	-0.881816	1
H	0.627004	-0.875596	0.591884	1
H	-0.071506	-1.273106	-2.362496	1
H	0.269914	-2.576216	-1.198706	1
H	1.528744	-1.404346	-1.647966	1
H	0.769634	2.649514	-0.208196	1
H	0.918854	2.295074	3.129434	1
Es	0.405140	1.060646	-0.298235	99
Es	0.578027	0.759155	-0.835977	99
Es	-1.847868	-0.561939	-0.608483	99
Es	0.916261	2.427357	2.695007	99
Es	0.091600	-1.354391	-2.061100	99
Es	0.604370	1.413606	1.508874	99
Es	1.187210	-1.445277	-1.574551	99
Es	-0.710755	-0.678886	-0.148795	99
Es	0.545369	1.099609	1.701640	99
Es	-1.653163	-0.308524	0.545162	99
Es	0.305210	1.578934	1.008223	99
Es	-1.450771	-0.752626	-0.008710	99
Es	0.438280	-0.785636	0.304956	99
Es	0.326056	-2.236478	-1.265256	99
Es	0.224253	0.262448	-0.516850	99
Es	0.579788	1.663578	0.246115	99
Es	0.671106	2.779800	2.157038	99
Es	1.197377	2.666184	2.115195	99
Es	-1.613332	-1.455276	0.175486	99
Es	0.883856	1.449059	0.971723	99
Es	0.318908	0.742226	-0.709464	99
Es	0.706766	2.323307	-0.052665	99
Es	0.911541	2.592096	2.200145	99
Es	0.039591	-0.610352	-0.295293	99
Es	0.082598	0.862391	-0.830164	99
Es	0.460486	-1.525833	-1.438674	99
Es	0.247196	-1.066316	-0.875361	99
Es	0.775531	2.073366	1.890785	99
44
Properties=species:S:1:pos:R:3:Z:I:1 energy=-360.94849485537554 field_type=dipole dipole="0.000000 0.000000 0.000000" charge=0
C	-1.450796	-0.752616	-0.008706	6
C	0.039574	-0.610586	-0.295176	6
C	0.460494	-1.525836	-1.438696	6
O	0.318894	0.742294	-0.709826	8
C	0.579844	1.663784	0.246314	6
N	0.604264	1.413074	1.509174	7
O	0.911574	2.592334	2.200004	8
H	-1.755096	-0.092526	0.809784	1
H	-1.705086	-1.781066	0.264994	1
H	-2.046316	-0.464186	-0.881816	1
H	0.627004	-0.875596	0.591884	1
H	-0.071506	-1.273106	-2.362496	1
H	0.269914	-2.576216	-1.198706	1
H	1.528744	-1.404346	-1.647966	1
H	0.769634	2.649514	-0.208196	1
H	0.918854	2.295074	3.129434	1
Es	0.326096	-2.236476	-1.265225	99
Es	0.914111	2.428142	2.695592	99
Es	0.397547	1.061963	-0.298150	99
Es	0.671960	2.778862	2.155876	99
Es	0.438309	-0.785589	0.304846	99
Es	0.579783	1.663577	0.246114	99
Es	0.318788	0.742260	-0.709362	99
Es	0.776986	2.072855	1.890592	99
Es	-0.710760	-0.678896	-0.148722	99
Es	-1.847871	-0.562033	-0.608447	99
Es	0.706754	2.323328	-0.052651	99
Es	0.305103	1.578884	1.008421	99
Es	0.883571	1.449178	0.971565	99
Es	1.197184	2.666989	2.116170	99
Es	-1.450771	-0.752625	-0.008712	99
Es	0.089239	0.862076	-0.844397	99
Es	0.039590	-0.610350	-0.295294	99
Es	0.545644	1.099594	1.701368	99
Es	0.247236	-1.066261	-0.875350	99
Es	0.604366	1.413598	1.508904	99
Es	0.584000	0.757089	-0.821940	99
Es	-1.653236	-0.308498	0.545179	99
Es	0.911676	2.591915	2.200139	99
Es	-1.613278	-1.455254	0.175476	99
Es	0.460487	-1.525830	-1.438673	99
Es	0.091637	-1.354434	-2.061169	99
Es	1.187133	-1.445307	-1.574523	99
Es	0.219345	0.263472	-0.516857	99
44
Properties=species:S:1:pos:R:3:Z:I:1 energy=-360.94849485537554 field_type=dipole dipole="0.000000 0.000000 0.000000" charge=0
C	-1.450796	-0.752616	-0.008706	6
C	0.039574	-0.610586	-0.295176	6
C	0.460494	-1.525836	-1.438696	6
O	0.318894	0.742294	-0.709826	8
C	0.579844	1.663784	0.246314	6
N	0.604264	1.413074	1.509174	7
O	0.911574	2.592334	2.200004	8
H	-1.755096	-0.092526	0.809784	1
H	-1.705086	-1.781066	0.264994	1
H	-2.046316	-0.464186	-0.881816	1
H	0.627004	-0.875596	0.591884	1
H	-0.071506	-1.273106	-2.362496	1
H	0.269914	-2.576216	-1.198706	1
H	1.528744	-1.404346	-1.647966	1
H	0.769634	2.649514	-0.208196	1
H	0.918854	2.295074	3.129434	1
Es	0.438257	-0.785597	0.304849	99
Es	0.407810	1.060170	-0.298365	99
Es	0.082676	0.863266	-0.825144	99
Es	-1.653334	-0.308521	0.545087	99
Es	0.882785	1.449828	0.970756	99
Es	0.579783	1.663578	0.246117	99
Es	-1.450770	-0.752628	-0.008710	99
Es	1.197302	2.667208	2.115998	99
Es	-0.710607	-0.678772	-0.148766	99
Es	0.776622	2.072942	1.890407	99
Es	-1.613212	-1.455204	0.175556	99
Es	0.546716	1.099306	1.701315	99
Es	0.911519	2.592013	2.200137	99
Es	0.672227	2.778475	2.156238	99
Es	1.187188	-1.445376	-1.574506	99
Es	-1.847946	-0.562172	-0.608407	99
Es	0.247217	-1.066272	-0.875366	99
Es	0.318908	0.742244	-0.709465	99
Es	0.604382	1.413612	1.508859	99
Es	0.576718	0.758840	-0.840724	99
Es	0.222787	0.262362	-0.516981	99
Es	0.091726	-1.354377	-2.061124	99
Es	0.039590	-0.610351	-0.295293	99
Es	0.460486	-1.525832	-1.438673	99
Es	0.325972	-2.236478	-1.265294	99
Es	0.304647	1.578416	1.009314	99
Es	0.706969	2.323327	-0.052643	99
Es	0.914214	2.428222	2.695601	99
44
Properties=species:S:1:pos:R:3:Z:I:1 energy=-360.94849485537554 field_type=dipole dipole="0.000000 0.000000 0.000000" charge=0
C	-1.450796	-0.752616	-0.008706	6
C	0.039574	-0.610586	-0.295176	6
C	0.460494	-1.525836	-1.438696	6
O	0.318894	0.742294	-0.709826	8
C	0.579844	1.663784	0.246314	6
N	0.604264	1.413074	1.509174	7
O	0.911574	2.592334	2.200004	8
H	-1.755096	-0.092526	0.809784	1
H	-1.705086	-1.781066	0.264994	1
H	-2.046316	-0.464186	-0.881816	1
H	0.627004	-0.875596	0.591884	1
H	-0.071506	-1.273106	-2.362496	1
H	0.269914	-2.576216	-1.198706	1
H	1.528744	-1.404346	-1.647966	1
H	0.769634	2.649514	-0.208196	1
H	0.918854	2.295074	3.129434	1
Es	0.460485	-1.525835	-1.438673	99
Es	0.223894	0.262158	-0.516970	99
Es	0.776592	2.072868	1.890429	99
Es	0.883721	1.448685	0.971882	99
Es	0.247203	-1.066247	-0.875285	99
Es	0.911533	2.592069	2.200191	99
Es	-1.847910	-0.561854	-0.608475	99
Es	0.081836	0.862733	-0.820806	99
Es	0.604377	1.413607	1.508858	99
Es	0.579783	1.663578	0.246110	99
Es	0.672809	2.778871	2.155837	99
Es	-1.653205	-0.308679	0.545207	99
Es	0.091688	-1.354490	-2.061126	99
Es	0.545280	1.100092	1.701151	99
Es	0.575335	0.759713	-0.845121	99
Es	0.039590	-0.610352	-0.295293	99
Es	0.319061	0.742202	-0.709396	99
Es	1.197083	2.666636	2.116358	99
Es	1.187164	-1.445351	-1.574564	99
Es	0.305269	1.578739	1.008152	99
Es	0.438197	-0.785598	0.304836	99
Es	-0.710679	-0.678888	-0.148662	99
Es	-1.450770	-0.752626	-0.008710	99
Es	0.913908	2.428395	2.695760	99
Es	-1.613330	-1.455235	0.175382	99
Es	0.706853	2.323376	-0.052625	99
Es	0.326069	-2.236432	-1.265279	99
Es	0.408792	1.060094	-0.298397	99
44
Properties=species:S:1:pos:R:3:Z:I:1 energy=-360.94849485537554 field_type=dipole dipole="0.000000 0.000000 0.000000" charge=0
C	-1.450796	-0.752616	-0.008706	6
C	0.039574	-0.610586	-0.295176	6
C	0.460494	-1.525836	-1.438696	6
O	0.318894	0.742294	-0.709826	8
C	0.579844	1.663784	0.246314	6
N	0.604264	1.413074	1.509174	7
O	0.911574	2.592334	2.200004	8
H	-1.755096	-0.092526	0.809784	1
H	-1.705086	-1.781066	0.264994	1
H	-2.046316	-0.464186	-0.881816	1
H	0.627004	-0.875596	0.591884	1
H	-0.071506	-1.273106	-2.362496	1
H	0.269914	-2.576216	-1.198706	1
H	1.528744	-1.404346	-1.647966	1
H	0.769634	2.649514	-0.208196	1
H	0.918854	2.295074	3.129434	1
Es	0.883471	1.448917	0.971568	99
Es	-1.847852	-0.562044	-0.608443	99
Es	-1.450769	-0.752627	-0.008712	99
Es	0.305111	1.578552	1.008501	99
Es	0.706835	2.323401	-0.052593	99
Es	0.318892	0.742246	-0.709462	99
Es	1.187200	-1.445475	-1.574559	99
Es	-0.710685	-0.678883	-0.148630	99
Es	0.438230	-0.785589	0.304741	99
Es	0.579785	1.663577	0.246116	99
Es	-1.653285	-0.308521	0.545101	99
Es	0.545663	1.100057	1.700895	99
Es	0.325971	-2.236367	-1.265287	99
Es	0.913309	2.428674	2.695817	99
Es	0.082653	0.862946	-0.823677	99
Es	0.604368	1.413607	1.508879	99
Es	0.091689	-1.354442	-2.061137	99
Es	0.460486	-1.525832	-1.438671	99
Es	0.575858	0.759283	-0.842072	99
Es	0.673482	2.780007	2.155085	99
Es	0.911544	2.592126	2.200113	99
Es	-1.613343	-1.455215	0.175501	99
Es	0.247269	-1.066231	-0.875278	99
Es	0.776588	2.072746	1.890510	99
Es	0.408160	1.060429	-0.298446	99
Es	0.039587	-0.610360	-0.295290	99
Es	1.197040	2.665252	2.117244	99
Es	0.223373	0.261994	-0.517045	99
44
Properties=species:S:1:pos:R:3:Z:I:1 energy=-360.94849485537554 field_type=dipole dipole="0.000000 0.000000 0.000000" charge=0
C	-1.450796	-0.752616	-0.008706	6
C	0.039574	-0.610586	-0.295176	6
C	0.460494	-1.525836	-1.438696	6
O	0.318894	0.742294	-0.709826	8
C	0.579844	1.663784	0.246314	6
N	0.604264	1.413074	1.509174	7
O	0.911574	2.592334	2.200004	8
H	-1.755096	-0.092526	0.809784	1
H	-1.705086	-1.781066	0.264994	1
H	-2.046316	-0.464186	-0.881816	1
H	0.627004	-0.875596	0.591884	1
H	-0.071506	-1.273106	-2.362496	1
H	0.269914	-2.576216	-1.198706	1
H	1.528744	-1.404346	-1.647966	1
H	0.769634	2.649514	-0.208196	1
H	0.918854	2.295074	3.129434	1
Es	0.305063	1.578451	1.008508	99
Es	-0.710730	-0.678845	-0.148623	99
Es	-1.613329	-1.455303	0.175492	99
Es	0.460483	-1.525827	-1.438669	99
Es	-1.653203	-0.308576	0.545109	99
Es	1.187182	-1.445323	-1.574649	99
Es	0.247299	-1.066298	-0.875330	99
Es	0.673687	2.779337	2.155300	99
Es	-1.847888	-0.561942	-0.608430	99
Es	0.039589	-0.610350	-0.295293	99
Es	0.604365	1.413599	1.508911	99
Es	0.883433	1.448874	0.971593	99
Es	0.577853	0.759061	-0.837326	99
Es	0.438161	-0.785570	0.304715	99
Es	0.326049	-2.236472	-1.265268	99
Es	0.545779	1.100161	1.700822	99
Es	0.091648	-1.354475	-2.061035	99
Es	0.222101	0.262010	-0.517237	99
Es	0.912557	2.428601	2.695714	99
Es	0.405156	1.060947	-0.298229	99
Es	-1.450772	-0.752625	-0.008709	99
Es	1.197087	2.666094	2.117712	99
Es	0.777126	2.072754	1.889897	99
Es	0.084866	0.862652	-0.828467	99
Es	0.318976	0.742214	-0.709409	99
Es	0.911521	2.592075	2.200141	99
Es	0.706786	2.323427	-0.052587	99
Es	0.579784	1.663577	0.246114	99
