39
Properties=species:S:1:pos:R:3:Z:I:1 energy=-338.7874779868439 field_type=dipole dipole="0.000000 0.000000 0.000000" charge=0
C	-1.988205	0.782565	1.688877	6
C	-1.150215	0.201675	0.820277	6
C	0.173455	0.808605	0.517957	6
O	0.564355	1.840255	1.059577	8
N	0.956125	0.160335	-0.407893	7
N	0.584355	-0.981535	-1.053763	7
C	1.452145	-1.432445	-1.895673	6
H	-2.952925	0.339475	1.908807	1
H	-1.729535	1.708505	2.195007	1
H	-1.418025	-0.720725	0.321177	1
H	1.852564	0.593385	-0.599193	1
H	1.232415	-2.351156	-2.461603	1
H	2.423495	-0.948935	-2.093553	1
Es	0.584917	-0.981217	-1.053844	99
Es	-1.324670	-0.413489	0.485603	99
Es	0.354808	1.951033	1.258762	99
Es	-1.829077	1.395649	2.030471	99
Es	1.494710	0.407993	-0.531802	99
Es	0.913199	0.175115	-0.393494	99
Es	1.310234	-2.045907	-2.276232	99
Es	0.852509	1.920365	0.957252	99
Es	1.107002	-1.333794	-1.221920	99
Es	-1.394338	0.318248	1.463060	99
Es	0.330758	1.627631	0.695004	99
Es	-0.482683	0.487748	0.653447	99
Es	-1.654940	0.651648	0.986065	99
Es	0.257297	-1.115766	-0.965761	99
Es	0.864006	-1.017187	-1.642127	99
Es	0.790339	-0.399016	-0.734700	99
Es	0.535354	1.360497	1.060414	99
Es	0.564245	1.839990	1.059443	99
Es	1.452143	-1.432437	-1.895662	99
Es	-1.988270	0.782582	1.688930	99
Es	0.928633	0.156328	-0.369589	99
Es	0.173527	0.808481	0.517822	99
Es	-2.640068	0.486067	1.839530	99
Es	0.602576	0.421249	-0.014741	99
Es	2.110329	-1.097753	-2.024318	99
Es	-1.150090	0.201681	0.820214	99
39
Properties=species:S:1:pos:R:3:Z:I:1 energy=-338.7874779868439 field_type=dipole dipole="0.000000 0.000000 0.000000" charge=0
C	-1.988205	0.782565	1.688877	6
C	-1.150215	0.201675	0.820277	6
C	0.173455	0.808605	0.517957	6
O	0.564355	1.840255	1.059577	8
N	0.956125	0.160335	-0.407893	7
N	0.584355	-0.981535	-1.053763	7
C	1.452145	-1.432445	-1.895673	6
H	-2.952925	0.339475	1.908807	1
H	-1.729535	1.708505	2.195007	1
H	-1.418025	-0.720725	0.321177	1
H	1.852564	0.593385	-0.599193	1
H	1.232415	-2.351156	-2.461603	1
H	2.423495	-0.948935	-2.093553	1
Es	1.452142	-1.432436	-1.895663	99
Es	1.106684	-1.334132	-1.221957	99
Es	0.864617	-1.016948	-1.641882	99
Es	0.257360	-1.115712	-0.966227	99
Es	-0.482285	0.487765	0.654102	99
Es	0.173526	0.808482	0.517818	99
Es	-1.654852	0.651668	0.985880	99
Es	1.501834	0.390135	-0.512577	99
Es	1.310181	-2.045948	-2.276249	99
Es	0.584942	-0.981210	-1.053857	99
Es	0.683441	0.325340	0.056301	99
Es	0.355989	1.949473	1.259869	99
Es	-1.988277	0.782587	1.688930	99
Es	0.800773	-0.407667	-0.718313	99
Es	-1.829049	1.395660	2.030468	99
Es	0.786478	0.293915	-0.462932	99
Es	-2.640067	0.486018	1.839569	99
Es	-1.324614	-0.413491	0.485615	99
Es	0.535746	1.360641	1.059355	99
Es	0.956266	0.159623	-0.406756	99
Es	-1.150097	0.201690	0.820203	99
Es	0.852511	1.921718	0.955649	99
Es	0.564266	1.839997	1.059439	99
Es	2.110342	-1.097748	-2.024313	99
Es	-1.394566	0.318357	1.463071	99
Es	0.329164	1.627962	0.696281	99
39
Properties=species:S:1:pos:R:3:Z:I:1 energy=-338.7874779868439 field_type=dipole dipole="0.000000 0.000000 0.000000" charge=0
C	-1.988205	0.782565	1.688877	6
C	-1.150215	0.201675	0.820277	6
C	0.173455	0.808605	0.517957	6
O	0.564355	1.840255	1.059577	8
N	0.956125	0.160335	-0.407893	7
N	0.584355	-0.981535	-1.053763	7
C	1.452145	-1.432445	-1.895673	6
H	-2.952925	0.339475	1.908807	1
H	-1.729535	1.708505	2.195007	1
H	-1.418025	-0.720725	0.321177	1
H	1.852564	0.593385	-0.599193	1
H	1.232415	-2.351156	-2.461603	1
H	2.423495	-0.948935	-2.093553	1
Es	-1.829073	1.395691	2.030409	99
Es	1.107252	-1.333666	-1.221936	99
Es	0.863996	-1.017454	-1.641964	99
Es	1.479415	0.418841	-0.551494	99
Es	0.784232	-0.384711	-0.748357	99
Es	-2.640154	0.486028	1.839483	99
Es	0.538097	1.359570	1.059552	99
Es	-1.324700	-0.413428	0.485497	99
Es	0.584932	-0.981220	-1.053859	99
Es	-1.394279	0.318216	1.463033	99
Es	0.257266	-1.115642	-0.966012	99
Es	0.356987	1.951196	1.260953	99
Es	0.570224	0.475793	-0.158746	99
Es	1.310182	-2.045920	-2.276278	99
Es	0.564256	1.839956	1.059417	99
Es	0.850297	1.920980	0.953621	99
Es	-1.654904	0.651646	0.986317	99
Es	-1.150095	0.201683	0.820212	99
Es	-0.482706	0.488394	0.653369	99
Es	0.173530	0.808480	0.517827	99
Es	1.452138	-1.432432	-1.895667	99
Es	0.955474	0.160803	-0.408392	99
Es	2.110290	-1.097670	-2.024393	99
Es	0.939671	0.090345	-0.177236	99
Es	-1.988272	0.782585	1.688928	99
Es	0.328396	1.627674	0.697542	99
39
Properties=species:S:1:pos:R:3:Z:I:1 energy=-338.7874779868439 field_type=dipole dipole="0.000000 0.000000 0.000000" charge=0
C	-1.988205	0.782565	1.688877	6
C	-1.150215	0.201675	0.820277	6
C	0.173455	0.808605	0.517957	6
O	0.564355	1.840255	1.059577	8
N	0.956125	0.160335	-0.407893	7
N	0.584355	-0.981535	-1.053763	7
C	1.452145	-1.432445	-1.895673	6
H	-2.952925	0.339475	1.908807	1
H	-1.729535	1.708505	2.195007	1
H	-1.418025	-0.720725	0.321177	1
H	1.852564	0.593385	-0.599193	1
H	1.232415	-2.351156	-2.461603	1
H	2.423495	-0.948935	-2.093553	1
Es	-1.828998	1.395718	2.030486	99
Es	0.955390	0.160864	-0.408426	99
Es	-1.150100	0.201692	0.820196	99
Es	0.564242	1.839966	1.059432	99
Es	-2.640115	0.485971	1.839515	99
Es	0.356292	1.949728	1.260719	99
Es	1.452137	-1.432430	-1.895673	99
Es	-1.324611	-0.413485	0.485611	99
Es	0.851163	1.921832	0.954945	99
Es	-1.394559	0.318382	1.462934	99
Es	0.537366	1.358995	1.058359	99
Es	0.783938	-0.384090	-0.748666	99
Es	-0.482641	0.488314	0.653523	99
Es	0.328952	1.628872	0.697569	99
Es	1.310072	-2.045888	-2.276327	99
Es	0.570374	0.475777	-0.159318	99
Es	0.584945	-0.981219	-1.053864	99
Es	1.107166	-1.334202	-1.221765	99
Es	0.940706	0.089324	-0.175381	99
Es	0.173528	0.808481	0.517824	99
Es	-1.988271	0.782589	1.688930	99
Es	2.110319	-1.097677	-2.024430	99
Es	0.257308	-1.115212	-0.966464	99
Es	0.864199	-1.017499	-1.641658	99
Es	1.478532	0.419313	-0.552374	99
Es	-1.654883	0.651623	0.986133	99
39
Properties=species:S:1:pos:R:3:Z:I:1 energy=-338.7874779868439 field_type=dipole dipole="0.000000 0.000000 0.000000" charge=0
C	-1.988205	0.782565	1.688877	6
C	-1.150215	0.201675	0.820277	6
C	0.173455	0.808605	0.517957	6
O	0.564355	1.840255	1.059577	8
N	0.956125	0.160335	-0.407893	7
N	0.584355	-0.981535	-1.053763	7
C	1.452145	-1.432445	-1.895673	6
H	-2.952925	0.339475	1.908807	1
H	-1.729535	1.708505	2.195007	1
H	-1.418025	-0.720725	0.321177	1
H	1.852564	0.593385	-0.599193	1
H	1.232415	-2.351156	-2.461603	1
H	2.423495	-0.948935	-2.093553	1
Es	-1.150094	0.201682	0.820215	99
Es	0.257771	-1.115902	-0.966015	99
Es	0.919850	0.151732	-0.349747	99
Es	-2.640217	0.485897	1.839462	99
Es	0.329308	1.627386	0.696288	99
Es	1.107002	-1.333571	-1.222077	99
Es	0.584936	-0.981220	-1.053862	99
Es	-1.394290	0.318351	1.462935	99
Es	-1.829079	1.395782	2.030339	99
Es	0.850846	1.922288	0.955338	99
Es	0.537880	1.359941	1.059573	99
Es	-1.324610	-0.413437	0.485498	99
Es	0.173529	0.808480	0.517824	99
Es	1.310231	-2.046141	-2.276144	99
Es	0.788813	-0.397247	-0.736498	99
Es	1.452145	-1.432440	-1.895657	99
Es	0.863918	-1.017359	-1.642085	99
Es	-0.482788	0.487776	0.653590	99
Es	-1.654940	0.651608	0.986462	99
Es	1.493006	0.410024	-0.534426	99
Es	0.597279	0.428665	-0.025224	99
Es	0.930178	0.168745	-0.398085	99
Es	-1.988270	0.782584	1.688927	99
Es	0.564273	1.840029	1.059470	99
Es	0.355511	1.949744	1.260099	99
Es	2.110266	-1.097660	-2.024376	99
39
Properties=species:S:1:pos:R:3:Z:I:1 energy=-338.7874779868439 field_type=dipole dipole="0.000000 0.000000 0.000000" charge=0
C	-1.988205	0.782565	1.688877	6
C	-1.150215	0.201675	0.820277	6
C	0.173455	0.808605	0.517957	6
O	0.564355	1.840255	1.059577	8
N	0.956125	0.160335	-0.407893	7
N	0.584355	-0.981535	-1.053763	7
C	1.452145	-1.432445	-1.895673	6
H	-2.952925	0.339475	1.908807	1
H	-1.729535	1.708505	2.195007	1
H	-1.418025	-0.720725	0.321177	1
H	1.852564	0.593385	-0.599193	1
H	1.232415	-2.351156	-2.461603	1
H	2.423495	-0.948935	-2.093553	1
Es	-1.394316	0.318264	1.462962	99
Es	0.591609	0.436371	-0.037991	99
Es	2.110327	-1.097641	-2.024256	99
Es	-1.654895	0.651569	0.986563	99
Es	1.106971	-1.333652	-1.222137	99
Es	1.310182	-2.046006	-2.276338	99
Es	0.356405	1.949889	1.260525	99
Es	0.564261	1.839984	1.059429	99
Es	-1.150093	0.201683	0.820214	99
Es	0.787823	-0.395312	-0.738958	99
Es	1.490140	0.413118	-0.538550	99
Es	0.919515	0.141636	-0.325694	99
Es	-1.324732	-0.413356	0.485462	99
Es	0.329552	1.630288	0.696452	99
Es	-0.482800	0.487807	0.653450	99
Es	0.851415	1.920972	0.956227	99
Es	0.864348	-1.017432	-1.641632	99
Es	0.536206	1.358272	1.058095	99
Es	-1.829002	1.395791	2.030426	99
Es	0.584938	-0.981218	-1.053861	99
Es	0.257298	-1.115876	-0.966249	99
Es	-2.640190	0.485948	1.839433	99
Es	0.940103	0.165996	-0.402820	99
Es	1.452135	-1.432429	-1.895670	99
Es	0.173524	0.808487	0.517817	99
Es	-1.988272	0.782586	1.688927	99
39
Properties=species:S:1:pos:R:3:Z:I:1 energy=-338.7874779868439 field_type=dipole dipole="0.000000 0.000000 0.000000" charge=0
C	-1.988205	0.782565	1.688877	6
C	-1.150215	0.201675	0.820277	6
C	0.173455	0.808605	0.517957	6
O	0.564355	1.840255	1.059577	8
N	0.956125	0.160335	-0.407893	7
N	0.584355	-0.981535	-1.053763	7
C	1.452145	-1.432445	-1.895673	6
H	-2.952925	0.339475	1.908807	1
H	-1.729535	1.708505	2.195007	1
H	-1.418025	-0.720725	0.321177	1
H	1.852564	0.593385	-0.599193	1
H	1.232415	-2.351156	-2.461603	1
H	2.423495	-0.948935	-2.093553	1
Es	0.787384	-0.395151	-0.738837	99
Es	1.310173	-2.046022	-2.276250	99
Es	1.107014	-1.333757	-1.222044	99
Es	0.850916	1.921078	0.955096	99
Es	1.452140	-1.432435	-1.895659	99
Es	0.564283	1.839979	1.059413	99
Es	0.584928	-0.981230	-1.053861	99
Es	-1.654974	0.651564	0.986557	99
Es	0.356858	1.950474	1.260381	99
Es	-0.482832	0.487821	0.653512	99
Es	0.173529	0.808481	0.517827	99
Es	-1.394340	0.318289	1.462917	99
Es	1.490392	0.412802	-0.538370	99
Es	0.257730	-1.115825	-0.966354	99
Es	0.953690	0.156978	-0.398273	99
Es	-1.988271	0.782586	1.688927	99
Es	-1.828964	1.395826	2.030436	99
Es	0.537034	1.359065	1.059307	99
Es	0.907239	0.148732	-0.326945	99
Es	2.110303	-1.097620	-2.024379	99
Es	-2.640175	0.485941	1.839444	99
Es	-1.150095	0.201683	0.820215	99
Es	0.590182	0.438518	-0.041394	99
Es	-1.324655	-0.413393	0.485482	99
Es	0.864162	-1.017425	-1.641849	99
Es	0.328802	1.628777	0.696528	99
39
Properties=species:S:1:pos:R:3:Z:I:1 energy=-338.7874779868439 field_type=dipole dipole="0.000000 0.000000 0.000000" charge=0
C	-1.988205	0.782565	1.688877	6
C	-1.150215	0.201675	0.820277	6
C	0.173455	0.808605	0.517957	6
O	0.564355	1.840255	1.059577	8
N	0.956125	0.160335	-0.407893	7
N	0.584355	-0.981535	-1.053763	7
C	1.452145	-1.432445	-1.895673	6
H	-2.952925	0.339475	1.908807	1
H	-1.729535	1.708505	2.195007	1
H	-1.418025	-0.720725	0.321177	1
H	1.852564	0.593385	-0.599193	1
H	1.232415	-2.351156	-2.461603	1
H	2.423495	-0.948935	-2.093553	1
Es	-1.988272	0.782586	1.688927	99
Es	-1.654851	0.651595	0.986546	99
Es	0.850665	1.920386	0.954312	99
Es	0.357957	1.950890	1.261025	99
Es	-2.640232	0.485906	1.839466	99
Es	0.931360	0.157071	-0.374235	99
Es	-1.828901	1.395812	2.030434	99
Es	1.452140	-1.432435	-1.895662	99
Es	0.864192	-1.017416	-1.641750	99
Es	-0.482800	0.487682	0.653625	99
Es	1.495016	0.407512	-0.530864	99
Es	0.257840	-1.115846	-0.966363	99
Es	0.564259	1.839975	1.059394	99
Es	0.790247	-0.399409	-0.733552	99
Es	2.110309	-1.097631	-2.024315	99
Es	0.328296	1.629767	0.697033	99
Es	-1.150095	0.201683	0.820215	99
Es	0.908003	0.177427	-0.392944	99
Es	1.310135	-2.046035	-2.276328	99
Es	1.106858	-1.333865	-1.222049	99
Es	0.173528	0.808480	0.517823	99
Es	-1.394428	0.318449	1.462885	99
Es	0.584927	-0.981227	-1.053862	99
Es	0.536648	1.358355	1.058816	99
Es	-1.324729	-0.413431	0.485539	99
Es	0.604381	0.419458	-0.012292	99
39
Properties=species:S:1:pos:R:3:Z:I:1 energy=-338.7874779868439 field_type=dipole dipole="0.000000 0.000000 0.000000" charge=0
C	-1.988205	0.782565	1.688877	6
C	-1.150215	0.201675	0.820277	6
C	0.173455	0.808605	0.517957	6
O	0.564355	1.840255	1.059577	8
N	0.956125	0.160335	-0.407893	7
N	0.584355	-0.981535	-1.053763	7
C	1.452145	-1.432445	-1.895673	6
H	-2.952925	0.339475	1.908807	1
H	-1.729535	1.708505	2.195007	1
H	-1.418025	-0.720725	0.321177	1
H	1.852564	0.593385	-0.599193	1
H	1.232415	-2.351156	-2.461603	1
H	2.423495	-0.948935	-2.093553	1
Es	0.850587	1.921372	0.955355	99
Es	0.601595	0.423221	-0.017300	99
Es	0.927191	0.155105	-0.365467	99
Es	-1.828889	1.395856	2.030401	99
Es	0.916717	0.173462	-0.393786	99
Es	0.864076	-1.017435	-1.641904	99
Es	0.789038	-0.398146	-0.734873	99
Es	0.356696	1.950818	1.259296	99
Es	-1.324707	-0.413392	0.485542	99
Es	0.564269	1.839961	1.059408	99
Es	1.494269	0.408496	-0.532245	99
Es	-1.394410	0.318464	1.462884	99
Es	0.328761	1.626975	0.695433	99
Es	0.537569	1.360159	1.061146	99
Es	0.584926	-0.981225	-1.053860	99
Es	-0.482880	0.487730	0.653500	99
Es	1.310098	-2.046081	-2.276276	99
Es	-1.654890	0.651552	0.986620	99
Es	-1.988272	0.782583	1.688930	99
Es	-1.150093	0.201683	0.820214	99
Es	0.258124	-1.116237	-0.966284	99
Es	1.452140	-1.432434	-1.895663	99
Es	1.106871	-1.333414	-1.222277	99
Es	2.110382	-1.097680	-2.024269	99
Es	0.173530	0.808480	0.517827	99
Es	-2.640245	0.485865	1.839475	99
39
Properties=species:S:1:pos:R:3:Z:I:1 energy=-338.7874779868439 field_type=dipole dipole="0.000000 0.000000 0.000000" charge=0
C	-1.988205	0.782565	1.688877	6
C	-1.150215	0.201675	0.820277	6
C	0.173455	0.808605	0.517957	6
O	0.564355	1.840255	1.059577	8
N	0.956125	0.160335	-0.407893	7
N	0.584355	-0.981535	-1.053763	7
C	1.452145	-1.432445	-1.895673	6
H	-2.952925	0.339475	1.908807	1
H	-1.729535	1.708505	2.195007	1
H	-1.418025	-0.720725	0.321177	1
H	1.852564	0.593385	-0.599193	1
H	1.232415	-2.351156	-2.461603	1
H	2.423495	-0.948935	-2.093553	1
Es	0.864180	-1.017488	-1.641730	99
Es	1.310121	-2.046070	-2.276335	99
Es	0.173530	0.808484	0.517832	99
Es	-1.828878	1.395814	2.030403	99
Es	-1.988274	0.782588	1.688924	99
Es	1.106749	-1.333791	-1.222154	99
Es	0.602201	0.422363	-0.016158	99
Es	1.494317	0.408406	-0.531960	99
Es	-1.654896	0.651578	0.986779	99
Es	0.329531	1.628420	0.695667	99
Es	0.789989	-0.399088	-0.733879	99
Es	2.110338	-1.097603	-2.024283	99
Es	0.536542	1.359131	1.060188	99
Es	0.584930	-0.981230	-1.053865	99
Es	-2.640287	0.485869	1.839461	99
Es	0.564273	1.840026	1.059454	99
Es	-0.482959	0.487831	0.653516	99
Es	-1.324710	-0.413473	0.485498	99
Es	0.926661	0.156342	-0.367532	99
Es	0.257946	-1.115885	-0.966425	99
Es	-1.394304	0.318506	1.462825	99
Es	-1.150098	0.201687	0.820212	99
Es	0.851037	1.920754	0.955932	99
Es	1.452141	-1.432434	-1.895662	99
Es	0.915844	0.174083	-0.394218	99
Es	0.356528	1.950919	1.259337	99
39
Properties=species:S:1:pos:R:3:Z:I:1 energy=-338.7874779868439 field_type=dipole dipole="0.000000 0.000000 0.000000" charge=0
C	-1.988205	0.782565	1.688877	6
C	-1.150215	0.201675	0.820277	6
C	0.173455	0.808605	0.517957	6
O	0.564355	1.840255	1.059577	8
N	0.956125	0.160335	-0.407893	7
N	0.584355	-0.981535	-1.053763	7
C	1.452145	-1.432445	-1.895673	6
H	-2.952925	0.339475	1.908807	1
H	-1.729535	1.708505	2.195007	1
H	-1.418025	-0.720725	0.321177	1
H	1.852564	0.593385	-0.599193	1
H	1.232415	-2.351156	-2.461603	1
H	2.423495	-0.948935	-2.093553	1
Es	0.907569	0.177038	-0.391663	99
Es	1.106799	-1.333757	-1.222116	99
Es	-1.654807	0.651586	0.986651	99
Es	0.604521	0.419555	-0.012200	99
Es	-1.988274	0.782588	1.688924	99
Es	0.536668	1.359463	1.060202	99
Es	-0.482840	0.487656	0.653666	99
Es	0.330067	1.628165	0.694957	99
Es	1.494813	0.407723	-0.531187	99
Es	-1.394589	0.318568	1.462783	99
Es	-2.640279	0.485785	1.839430	99
Es	0.789973	-0.399506	-0.733018	99
Es	-1.324681	-0.413395	0.485517	99
Es	0.355735	1.950188	1.258840	99
Es	1.452132	-1.432426	-1.895670	99
Es	0.851162	1.921468	0.957106	99
Es	-1.828836	1.395881	2.030459	99
Es	1.310153	-2.046119	-2.276280	99
Es	0.931891	0.157376	-0.375462	99
Es	0.584934	-0.981218	-1.053860	99
Es	-1.150100	0.201682	0.820223	99
Es	0.564226	1.839973	1.059442	99
Es	0.173526	0.808482	0.517820	99
Es	0.258477	-1.115934	-0.966382	99
Es	0.863865	-1.017431	-1.642116	99
Es	2.110350	-1.097653	-2.024238	99
