43
Properties=species:S:1:pos:R:3:Z:I:1 energy=-323.99482451415014 field_type=dipole dipole="0.000000 0.000000 0.000000" charge=0
C	0.088493	-1.655952	1.138911	6
C	-0.545737	-1.312352	-0.198879	6
N	-0.284777	0.035818	-0.633259	7
C	-0.711387	1.276358	0.018021	6
C	0.500913	1.952578	-0.653309	6
C	0.945283	0.513518	-0.972859	6
O	1.964623	-0.042832	-1.301709	8
H	-0.128547	-2.694982	1.405191	1
H	-0.296557	-1.013782	1.937391	1
H	1.176203	-1.533402	1.106791	1
H	-1.631967	-1.439922	-0.148399	1
H	-0.156997	-1.990672	-0.966709	1
H	-0.676697	1.235318	1.110121	1
H	-1.688927	1.626428	-0.321459	1
H	0.279343	2.549958	-1.541129	1
H	1.166733	2.493918	0.021291	1
Es	-0.273118	0.125365	-0.956013	99
Es	1.697056	0.131749	-0.948901	99
Es	1.551489	0.159131	-1.430612	99
Es	0.796500	1.282535	-0.849645	99
Es	0.820093	-1.569683	1.113942	99
Es	-0.393880	-0.532387	-0.431871	99
Es	-0.284331	0.035890	-0.632835	99
Es	0.347557	2.344058	-1.248547	99
Es	-0.711304	1.276220	0.017930	99
Es	1.919283	-0.344644	-1.304801	99
Es	0.950017	2.313077	-0.198846	99
Es	-1.385142	1.515229	-0.207453	99
Es	-0.180079	-1.212245	1.680340	99
Es	-0.137689	1.692074	-0.286937	99
Es	-1.289127	-1.395859	-0.158436	99
Es	-0.545694	-1.312174	-0.198888	99
Es	-0.224781	-1.472587	0.476603	99
Es	0.266664	0.166528	-0.674097	99
Es	0.500885	1.952520	-0.653294	99
Es	0.945125	0.513542	-0.972829	99
Es	-0.681831	1.246168	0.764454	99
Es	1.964398	-0.042721	-1.301641	99
Es	0.088467	-1.655942	1.138896	99
Es	2.188589	0.153910	-1.358964	99
Es	-0.518991	0.526245	-0.312041	99
Es	-0.064825	-2.361182	1.314981	99
Es	-0.283708	-1.767106	-0.716659	99
43
Properties=species:S:1:pos:R:3:Z:I:1 energy=-323.99482451415014 field_type=dipole dipole="0.000000 0.000000 0.000000" charge=0
C	0.088493	-1.655952	1.138911	6
C	-0.545737	-1.312352	-0.198879	6
N	-0.284777	0.035818	-0.633259	7
C	-0.711387	1.276358	0.018021	6
C	0.500913	1.952578	-0.653309	6
C	0.945283	0.513518	-0.972859	6
O	1.964623	-0.042832	-1.301709	8
H	-0.128547	-2.694982	1.405191	1
H	-0.296557	-1.013782	1.937391	1
H	1.176203	-1.533402	1.106791	1
H	-1.631967	-1.439922	-0.148399	1
H	-0.156997	-1.990672	-0.966709	1
H	-0.676697	1.235318	1.110121	1
H	-1.688927	1.626428	-0.321459	1
H	0.279343	2.549958	-1.541129	1
H	1.166733	2.493918	0.021291	1
Es	-0.273853	0.124609	-0.954315	99
Es	-0.681737	1.246218	0.764381	99
Es	-0.711304	1.276221	0.017930	99
Es	1.964365	-0.042686	-1.301624	99
Es	-0.519455	0.526337	-0.312359	99
Es	-1.385204	1.515216	-0.207361	99
Es	1.695068	0.131175	-0.949737	99
Es	-0.283819	-1.767171	-0.716690	99
Es	-0.064882	-2.361216	1.315076	99
Es	-0.224888	-1.472585	0.476637	99
Es	0.820120	-1.569644	1.114015	99
Es	-0.545693	-1.312173	-0.198887	99
Es	0.949986	2.312940	-0.198926	99
Es	-0.284384	0.035867	-0.632822	99
Es	0.347582	2.344191	-1.248543	99
Es	1.915084	-0.344015	-1.305410	99
Es	1.553955	0.161688	-1.431710	99
Es	-0.393511	-0.532157	-0.431544	99
Es	0.945123	0.513542	-0.972829	99
Es	0.088465	-1.655941	1.138895	99
Es	0.267603	0.166905	-0.675824	99
Es	2.192299	0.151278	-1.356505	99
Es	-1.289023	-1.395745	-0.158470	99
Es	-0.179999	-1.212329	1.680214	99
Es	0.796556	1.282565	-0.849570	99
Es	0.500884	1.952520	-0.653294	99
Es	-0.137715	1.692102	-0.286893	99
43
Properties=species:S:1:pos:R:3:Z:I:1 energy=-323.99482451415014 field_type=dipole dipole="0.000000 0.000000 0.000000" charge=0
C	0.088493	-1.655952	1.138911	6
C	-0.545737	-1.312352	-0.198879	6
N	-0.284777	0.035818	-0.633259	7
C	-0.711387	1.276358	0.018021	6
C	0.500913	1.952578	-0.653309	6
C	0.945283	0.513518	-0.972859	6
O	1.964623	-0.042832	-1.301709	8
H	-0.128547	-2.694982	1.405191	1
H	-0.296557	-1.013782	1.937391	1
H	1.176203	-1.533402	1.106791	1
H	-1.631967	-1.439922	-0.148399	1
H	-0.156997	-1.990672	-0.966709	1
H	-0.676697	1.235318	1.110121	1
H	-1.688927	1.626428	-0.321459	1
H	0.279343	2.549958	-1.541129	1
H	1.166733	2.493918	0.021291	1
Es	0.266404	0.166175	-0.671915	99
Es	1.552541	0.159337	-1.431194	99
Es	0.945125	0.513541	-0.972829	99
Es	-0.137766	1.692298	-0.286853	99
Es	-1.289015	-1.395793	-0.158466	99
Es	0.820104	-1.569765	1.113955	99
Es	1.919947	-0.345069	-1.305519	99
Es	-0.224830	-1.472553	0.476666	99
Es	-0.681839	1.246174	0.764319	99
Es	-0.519897	0.526169	-0.312754	99
Es	0.088466	-1.655942	1.138896	99
Es	1.964313	-0.042634	-1.301616	99
Es	1.694869	0.130671	-0.950123	99
Es	-0.271330	0.125604	-0.956939	99
Es	0.500884	1.952519	-0.653294	99
Es	-0.711304	1.276220	0.017928	99
Es	2.189078	0.155090	-1.356499	99
Es	-1.385120	1.515134	-0.207275	99
Es	-0.284401	0.035875	-0.632849	99
Es	-0.283850	-1.767121	-0.716680	99
Es	0.949985	2.312955	-0.198989	99
Es	-0.394440	-0.532270	-0.432404	99
Es	0.347652	2.344153	-1.248478	99
Es	-0.064988	-2.361228	1.315056	99
Es	-0.179895	-1.212266	1.680251	99
Es	0.796622	1.282611	-0.849673	99
Es	-0.545693	-1.312173	-0.198888	99
43
Properties=species:S:1:pos:R:3:Z:I:1 energy=-323.99482451415014 field_type=dipole dipole="0.000000 0.000000 0.000000" charge=0
C	0.088493	-1.655952	1.138911	6
C	-0.545737	-1.312352	-0.198879	6
N	-0.284777	0.035818	-0.633259	7
C	-0.711387	1.276358	0.018021	6
C	0.500913	1.952578	-0.653309	6
C	0.945283	0.513518	-0.972859	6
O	1.964623	-0.042832	-1.301709	8
H	-0.128547	-2.694982	1.405191	1
H	-0.296557	-1.013782	1.937391	1
H	1.176203	-1.533402	1.106791	1
H	-1.631967	-1.439922	-0.148399	1
H	-0.156997	-1.990672	-0.966709	1
H	-0.676697	1.235318	1.110121	1
H	-1.688927	1.626428	-0.321459	1
H	0.279343	2.549958	-1.541129	1
H	1.166733	2.493918	0.021291	1
Es	-1.288938	-1.395755	-0.158507	99
Es	0.088467	-1.655941	1.138896	99
Es	-1.385122	1.515048	-0.207203	99
Es	0.267551	0.166851	-0.676191	99
Es	0.796579	1.282669	-0.849749	99
Es	-0.284384	0.035872	-0.632860	99
Es	1.552703	0.162082	-1.431523	99
Es	-0.519306	0.526232	-0.311987	99
Es	0.950021	2.312812	-0.198984	99
Es	-0.137794	1.692389	-0.286876	99
Es	-0.545694	-1.312172	-0.198888	99
Es	1.696474	0.130954	-0.949509	99
Es	2.190859	0.151400	-1.356702	99
Es	-0.283899	-1.767134	-0.716706	99
Es	1.916299	-0.344292	-1.305582	99
Es	0.347728	2.344272	-1.248388	99
Es	0.945127	0.513539	-0.972831	99
Es	-0.681857	1.246195	0.764241	99
Es	1.964409	-0.042718	-1.301636	99
Es	0.500885	1.952520	-0.653294	99
Es	-0.179894	-1.212247	1.680282	99
Es	-0.393726	-0.532375	-0.431978	99
Es	-0.064897	-2.361215	1.315091	99
Es	-0.224820	-1.472602	0.476593	99
Es	0.819980	-1.569779	1.114039	99
Es	-0.273827	0.124887	-0.953843	99
Es	-0.711302	1.276221	0.017929	99
43
Properties=species:S:1:pos:R:3:Z:I:1 energy=-323.99482451415014 field_type=dipole dipole="0.000000 0.000000 0.000000" charge=0
C	0.088493	-1.655952	1.138911	6
C	-0.545737	-1.312352	-0.198879	6
N	-0.284777	0.035818	-0.633259	7
C	-0.711387	1.276358	0.018021	6
C	0.500913	1.952578	-0.653309	6
C	0.945283	0.513518	-0.972859	6
O	1.964623	-0.042832	-1.301709	8
H	-0.128547	-2.694982	1.405191	1
H	-0.296557	-1.013782	1.937391	1
H	1.176203	-1.533402	1.106791	1
H	-1.631967	-1.439922	-0.148399	1
H	-0.156997	-1.990672	-0.966709	1
H	-0.676697	1.235318	1.110121	1
H	-1.688927	1.626428	-0.321459	1
H	0.279343	2.549958	-1.541129	1
H	1.166733	2.493918	0.021291	1
Es	-0.271196	0.125389	-0.955650	99
Es	-1.385070	1.515046	-0.207137	99
Es	-0.545694	-1.312176	-0.198887	99
Es	-0.394341	-0.532513	-0.432572	99
Es	-0.137842	1.692527	-0.286785	99
Es	2.190985	0.150426	-1.356754	99
Es	-0.179847	-1.212293	1.680251	99
Es	-0.284519	0.035837	-0.632911	99
Es	0.820034	-1.569756	1.113993	99
Es	1.693334	0.135469	-0.950614	99
Es	0.949996	2.312933	-0.199103	99
Es	1.555271	0.158980	-1.434694	99
Es	1.964328	-0.042686	-1.301614	99
Es	0.945124	0.513542	-0.972828	99
Es	0.500884	1.952518	-0.653293	99
Es	1.916760	-0.344759	-1.301401	99
Es	-0.520261	0.526348	-0.312791	99
Es	0.796692	1.282664	-0.849543	99
Es	-0.283904	-1.767115	-0.716688	99
Es	-0.681910	1.246155	0.764189	99
Es	0.347776	2.344113	-1.248449	99
Es	-1.288933	-1.395790	-0.158504	99
Es	0.266580	0.166361	-0.672974	99
Es	-0.224854	-1.472556	0.476661	99
Es	-0.064935	-2.361231	1.315106	99
Es	-0.711304	1.276221	0.017929	99
Es	0.088466	-1.655942	1.138896	99
43
Properties=species:S:1:pos:R:3:Z:I:1 energy=-323.99482451415014 field_type=dipole dipole="0.000000 0.000000 0.000000" charge=0
C	0.088493	-1.655952	1.138911	6
C	-0.545737	-1.312352	-0.198879	6
N	-0.284777	0.035818	-0.633259	7
C	-0.711387	1.276358	0.018021	6
C	0.500913	1.952578	-0.653309	6
C	0.945283	0.513518	-0.972859	6
O	1.964623	-0.042832	-1.301709	8
H	-0.128547	-2.694982	1.405191	1
H	-0.296557	-1.013782	1.937391	1
H	1.176203	-1.533402	1.106791	1
H	-1.631967	-1.439922	-0.148399	1
H	-0.156997	-1.990672	-0.966709	1
H	-0.676697	1.235318	1.110121	1
H	-1.688927	1.626428	-0.321459	1
H	0.279343	2.549958	-1.541129	1
H	1.166733	2.493918	0.021291	1
Es	-0.681877	1.246177	0.764130	99
Es	0.500885	1.952519	-0.653294	99
Es	-0.271544	0.125394	-0.954792	99
Es	0.347830	2.344074	-1.248376	99
Es	1.919121	-0.344214	-1.304542	99
Es	-0.711304	1.276221	0.017929	99
Es	-0.283910	-1.767115	-0.716724	99
Es	2.189638	0.152275	-1.354765	99
Es	1.554133	0.160078	-1.434464	99
Es	0.819971	-1.569729	1.114017	99
Es	0.796734	1.282694	-0.849579	99
Es	-0.284577	0.035828	-0.632955	99
Es	0.266872	0.166412	-0.673850	99
Es	-0.179816	-1.212323	1.680264	99
Es	1.693435	0.131975	-0.949699	99
Es	0.945124	0.513542	-0.972828	99
Es	0.088466	-1.655941	1.138896	99
Es	-0.224858	-1.472526	0.476592	99
Es	-0.064883	-2.361262	1.315121	99
Es	-1.288915	-1.395795	-0.158474	99
Es	1.964332	-0.042694	-1.301618	99
Es	-0.394455	-0.532579	-0.432720	99
Es	-1.385063	1.515023	-0.207039	99
Es	0.950016	2.312945	-0.199184	99
Es	-0.520123	0.526304	-0.312554	99
Es	-0.545694	-1.312177	-0.198888	99
Es	-0.137916	1.692604	-0.286768	99
43
Properties=species:S:1:pos:R:3:Z:I:1 energy=-323.99482451415014 field_type=dipole dipole="0.000000 0.000000 0.000000" charge=0
C	0.088493	-1.655952	1.138911	6
C	-0.545737	-1.312352	-0.198879	6
N	-0.284777	0.035818	-0.633259	7
C	-0.711387	1.276358	0.018021	6
C	0.500913	1.952578	-0.653309	6
C	0.945283	0.513518	-0.972859	6
O	1.964623	-0.042832	-1.301709	8
H	-0.128547	-2.694982	1.405191	1
H	-0.296557	-1.013782	1.937391	1
H	1.176203	-1.533402	1.106791	1
H	-1.631967	-1.439922	-0.148399	1
H	-0.156997	-1.990672	-0.966709	1
H	-0.676697	1.235318	1.110121	1
H	-1.688927	1.626428	-0.321459	1
H	0.279343	2.549958	-1.541129	1
H	1.166733	2.493918	0.021291	1
Es	-0.283968	-1.767103	-0.716671	99
Es	-0.179832	-1.212325	1.680264	99
Es	1.552708	0.161437	-1.432025	99
Es	-0.520068	0.526144	-0.312373	99
Es	-0.064898	-2.361175	1.315133	99
Es	-0.284382	0.035875	-0.632850	99
Es	2.190278	0.151398	-1.356808	99
Es	0.267107	0.166553	-0.674466	99
Es	-0.711304	1.276221	0.017929	99
Es	-1.288896	-1.395780	-0.158527	99
Es	0.796775	1.282761	-0.849668	99
Es	-0.681960	1.246165	0.764041	99
Es	1.696273	0.131687	-0.949651	99
Es	-0.224895	-1.472605	0.476633	99
Es	0.088467	-1.655941	1.138896	99
Es	-0.137869	1.692669	-0.286698	99
Es	-1.385028	1.514995	-0.207007	99
Es	-0.545694	-1.312177	-0.198888	99
Es	1.917226	-0.344308	-1.304907	99
Es	0.949960	2.312893	-0.199207	99
Es	0.500885	1.952519	-0.653294	99
Es	0.945123	0.513542	-0.972829	99
Es	0.820031	-1.569769	1.114016	99
Es	0.347852	2.344134	-1.248389	99
Es	-0.394180	-0.532492	-0.432699	99
Es	1.964191	-0.042821	-1.301582	99
Es	-0.272278	0.125216	-0.954541	99
43
Properties=species:S:1:pos:R:3:Z:I:1 energy=-323.99482451415014 field_type=dipole dipole="0.000000 0.000000 0.000000" charge=0
C	0.088493	-1.655952	1.138911	6
C	-0.545737	-1.312352	-0.198879	6
N	-0.284777	0.035818	-0.633259	7
C	-0.711387	1.276358	0.018021	6
C	0.500913	1.952578	-0.653309	6
C	0.945283	0.513518	-0.972859	6
O	1.964623	-0.042832	-1.301709	8
H	-0.128547	-2.694982	1.405191	1
H	-0.296557	-1.013782	1.937391	1
H	1.176203	-1.533402	1.106791	1
H	-1.631967	-1.439922	-0.148399	1
H	-0.156997	-1.990672	-0.966709	1
H	-0.676697	1.235318	1.110121	1
H	-1.688927	1.626428	-0.321459	1
H	0.279343	2.549958	-1.541129	1
H	1.166733	2.493918	0.021291	1
Es	-0.064909	-2.361214	1.315133	99
Es	1.552616	0.160648	-1.432440	99
Es	-1.384980	1.514953	-0.206963	99
Es	-0.179799	-1.212335	1.680259	99
Es	0.819996	-1.569770	1.114034	99
Es	-0.520443	0.526337	-0.312694	99
Es	-0.682015	1.246128	0.764021	99
Es	0.945123	0.513542	-0.972829	99
Es	0.347903	2.344064	-1.248380	99
Es	-0.711304	1.276220	0.017929	99
Es	-1.288883	-1.395804	-0.158552	99
Es	-0.394775	-0.532725	-0.433249	99
Es	0.796837	1.282796	-0.849636	99
Es	-0.283984	-1.767058	-0.716671	99
Es	0.500885	1.952519	-0.653294	99
Es	0.266439	0.166159	-0.672942	99
Es	0.088467	-1.655941	1.138896	99
Es	1.964333	-0.042673	-1.301614	99
Es	2.189560	0.152133	-1.356576	99
Es	1.918359	-0.344462	-1.304695	99
Es	-0.224846	-1.472573	0.476657	99
Es	-0.137914	1.692780	-0.286654	99
Es	-0.270875	0.125550	-0.955237	99
Es	1.695770	0.131746	-0.949668	99
Es	-0.284209	0.035940	-0.632829	99
Es	-0.545695	-1.312180	-0.198887	99
Es	0.949967	2.312931	-0.199287	99
43
Properties=species:S:1:pos:R:3:Z:I:1 energy=-323.99482451415014 field_type=dipole dipole="0.000000 0.000000 0.000000" charge=0
C	0.088493	-1.655952	1.138911	6
C	-0.545737	-1.312352	-0.198879	6
N	-0.284777	0.035818	-0.633259	7
C	-0.711387	1.276358	0.018021	6
C	0.500913	1.952578	-0.653309	6
C	0.945283	0.513518	-0.972859	6
O	1.964623	-0.042832	-1.301709	8
H	-0.128547	-2.694982	1.405191	1
H	-0.296557	-1.013782	1.937391	1
H	1.176203	-1.533402	1.106791	1
H	-1.631967	-1.439922	-0.148399	1
H	-0.156997	-1.990672	-0.966709	1
H	-0.676697	1.235318	1.110121	1
H	-1.688927	1.626428	-0.321459	1
H	0.279343	2.549958	-1.541129	1
H	1.166733	2.493918	0.021291	1
Es	-0.711304	1.276222	0.017929	99
Es	-0.064900	-2.361202	1.315145	99
Es	-1.384939	1.514911	-0.206909	99
Es	1.696350	0.130364	-0.949460	99
Es	-0.284008	-1.767044	-0.716670	99
Es	0.819988	-1.569772	1.114047	99
Es	1.552683	0.162771	-1.431946	99
Es	0.500885	1.952519	-0.653293	99
Es	0.347966	2.344076	-1.248341	99
Es	-0.682056	1.246126	0.763975	99
Es	0.949966	2.312897	-0.199328	99
Es	-0.137960	1.692877	-0.286629	99
Es	-0.394509	-0.532633	-0.432974	99
Es	0.266468	0.166222	-0.673090	99
Es	0.088467	-1.655942	1.138897	99
Es	-0.224858	-1.472600	0.476652	99
Es	1.917105	-0.344377	-1.306343	99
Es	-0.545695	-1.312178	-0.198888	99
Es	-0.270917	0.125443	-0.955299	99
Es	0.796866	1.282829	-0.849669	99
Es	0.945123	0.513542	-0.972828	99
Es	-1.288859	-1.395808	-0.158570	99
Es	1.964349	-0.042645	-1.301617	99
Es	-0.520511	0.526323	-0.312725	99
Es	-0.284427	0.035864	-0.632884	99
Es	-0.179789	-1.212345	1.680257	99
Es	2.190138	0.151272	-1.355604	99
43
Properties=species:S:1:pos:R:3:Z:I:1 energy=-323.99482451415014 field_type=dipole dipole="0.000000 0.000000 0.000000" charge=0
C	0.088493	-1.655952	1.138911	6
C	-0.545737	-1.312352	-0.198879	6
N	-0.284777	0.035818	-0.633259	7
C	-0.711387	1.276358	0.018021	6
C	0.500913	1.952578	-0.653309	6
C	0.945283	0.513518	-0.972859	6
O	1.964623	-0.042832	-1.301709	8
H	-0.128547	-2.694982	1.405191	1
H	-0.296557	-1.013782	1.937391	1
H	1.176203	-1.533402	1.106791	1
H	-1.631967	-1.439922	-0.148399	1
H	-0.156997	-1.990672	-0.966709	1
H	-0.676697	1.235318	1.110121	1
H	-1.688927	1.626428	-0.321459	1
H	0.279343	2.549958	-1.541129	1
H	1.166733	2.493918	0.021291	1
Es	-0.179768	-1.212353	1.680253	99
Es	-1.384908	1.514921	-0.206847	99
Es	-0.284023	-1.767032	-0.716670	99
Es	1.917375	-0.344225	-1.305153	99
Es	-0.064885	-2.361221	1.315161	99
Es	-0.224852	-1.472598	0.476654	99
Es	0.088467	-1.655942	1.138897	99
Es	1.551576	0.161558	-1.431216	99
Es	-0.520390	0.526273	-0.312581	99
Es	2.189602	0.151305	-1.357856	99
Es	0.796873	1.282858	-0.849670	99
Es	-0.284296	0.035911	-0.632853	99
Es	0.949976	2.312885	-0.199370	99
Es	-0.545695	-1.312179	-0.198888	99
Es	-0.137976	1.692921	-0.286596	99
Es	0.500885	1.952518	-0.653293	99
Es	0.348017	2.344060	-1.248336	99
Es	-0.271701	0.125254	-0.953693	99
Es	-1.288843	-1.395812	-0.158582	99
Es	-0.711304	1.276222	0.017929	99
Es	0.819956	-1.569761	1.114053	99
Es	0.267024	0.166530	-0.674704	99
Es	-0.682064	1.246146	0.763904	99
Es	0.945122	0.513542	-0.972828	99
Es	-0.394596	-0.532857	-0.433119	99
Es	1.697706	0.131475	-0.949143	99
Es	1.964344	-0.042689	-1.301618	99
43
Properties=species:S:1:pos:R:3:Z:I:1 energy=-323.99482451415014 field_type=dipole dipole="0.000000 0.000000 0.000000" charge=0
C	0.088493	-1.655952	1.138911	6
C	-0.545737	-1.312352	-0.198879	6
N	-0.284777	0.035818	-0.633259	7
C	-0.711387	1.276358	0.018021	6
C	0.500913	1.952578	-0.653309	6
C	0.945283	0.513518	-0.972859	6
O	1.964623	-0.042832	-1.301709	8
H	-0.128547	-2.694982	1.405191	1
H	-0.296557	-1.013782	1.937391	1
H	1.176203	-1.533402	1.106791	1
H	-1.631967	-1.439922	-0.148399	1
H	-0.156997	-1.990672	-0.966709	1
H	-0.676697	1.235318	1.110121	1
H	-1.688927	1.626428	-0.321459	1
H	0.279343	2.549958	-1.541129	1
H	1.166733	2.493918	0.021291	1
Es	0.348034	2.344033	-1.248306	99
Es	-0.520793	0.526378	-0.312848	99
Es	-0.270224	0.125738	-0.955488	99
Es	0.949967	2.312896	-0.199434	99
Es	1.787953	0.041699	-1.354608	99
Es	-0.138009	1.693010	-0.286553	99
Es	0.819941	-1.569764	1.114066	99
Es	0.500885	1.952518	-0.653293	99
Es	-0.224873	-1.472594	0.476651	99
Es	-1.384892	1.514859	-0.206799	99
Es	-0.394777	-0.532765	-0.433363	99
Es	0.088467	-1.655942	1.138897	99
Es	0.266235	0.165862	-0.672473	99
Es	-0.179753	-1.212366	1.680258	99
Es	1.777174	0.053868	-1.359495	99
Es	1.910674	-0.353495	-1.306478	99
Es	0.797217	1.283261	-0.849827	99
Es	0.945118	0.513544	-0.972832	99
Es	-0.284449	0.035858	-0.632890	99
Es	-0.682114	1.246107	0.763858	99
Es	-0.711304	1.276222	0.017929	99
Es	-0.284056	-1.767006	-0.716664	99
Es	2.194018	0.161231	-1.357301	99
Es	-0.545695	-1.312179	-0.198888	99
Es	1.650578	0.153764	-0.966855	99
Es	-0.064873	-2.361215	1.315170	99
Es	-1.288825	-1.395811	-0.158601	99
43
Properties=species:S:1:pos:R:3:Z:I:1 energy=-323.99482451415014 field_type=dipole dipole="0.000000 0.000000 0.000000" charge=0
C	0.088493	-1.655952	1.138911	6
C	-0.545737	-1.312352	-0.198879	6
N	-0.284777	0.035818	-0.633259	7
C	-0.711387	1.276358	0.018021	6
C	0.500913	1.952578	-0.653309	6
C	0.945283	0.513518	-0.972859	6
O	1.964623	-0.042832	-1.301709	8
H	-0.128547	-2.694982	1.405191	1
H	-0.296557	-1.013782	1.937391	1
H	1.176203	-1.533402	1.106791	1
H	-1.631967	-1.439922	-0.148399	1
H	-0.156997	-1.990672	-0.966709	1
H	-0.676697	1.235318	1.110121	1
H	-1.688927	1.626428	-0.321459	1
H	0.279343	2.549958	-1.541129	1
H	1.166733	2.493918	0.021291	1
Es	0.819915	-1.569740	1.114064	99
Es	1.695757	0.130530	-0.949321	99
Es	0.266501	0.166168	-0.673387	99
Es	-0.284434	0.035863	-0.632886	99
Es	0.500885	1.952518	-0.653293	99
Es	1.920286	-0.344576	-1.306155	99
Es	-0.682132	1.246105	0.763814	99
Es	-0.064903	-2.361293	1.315168	99
Es	-0.224831	-1.472576	0.476677	99
Es	1.964277	-0.042727	-1.301600	99
Es	-0.179725	-1.212359	1.680228	99
Es	2.188045	0.153266	-1.355686	99
Es	0.348068	2.344050	-1.248330	99
Es	0.945121	0.513543	-0.972828	99
Es	-0.270702	0.125480	-0.954728	99
Es	-0.137989	1.693080	-0.286523	99
Es	-0.284056	-1.767010	-0.716667	99
Es	0.949960	2.312870	-0.199452	99
Es	0.088467	-1.655942	1.138897	99
Es	-0.394674	-0.532762	-0.433304	99
Es	-0.520679	0.526331	-0.312663	99
Es	-1.288820	-1.395815	-0.158599	99
Es	1.552180	0.160884	-1.432229	99
Es	0.796974	1.282950	-0.849652	99
Es	-0.711304	1.276222	0.017929	99
Es	-1.384868	1.514832	-0.206750	99
Es	-0.545695	-1.312180	-0.198887	99
