43
Properties=species:S:1:pos:R:3:Z:I:1 energy=-323.9937041547738 field_type=dipole dipole="0.000000 0.000000 0.000000" charge=0
C	-0.163743	-1.575234	0.988882	6
C	-0.428313	-0.927864	-0.362657	6
N	0.385037	0.271246	-0.568507	7
C	-0.014293	1.526646	-0.136277	6
C	-1.149673	1.820846	0.505723	6
C	1.629007	0.099906	-1.174808	6
O	2.110057	-0.959774	-1.560777	8
H	-0.771473	-2.478264	1.102342	1
H	-0.407083	-0.895034	1.811132	1
H	0.889467	-1.857184	1.090253	1
H	-1.490123	-0.687214	-0.480907	1
H	-0.197673	-1.655454	-1.150247	1
H	0.679047	2.340506	-0.345577	1
H	-1.899113	1.084635	0.768832	1
H	-1.356533	2.846216	0.798523	1
H	2.185407	1.046026	-1.285928	1
Es	-0.762498	1.728731	-0.088121	99
Es	-0.271022	-1.406418	-0.890855	99
Es	-0.581677	-2.186740	1.058401	99
Es	0.941164	0.189262	-0.708320	99
Es	2.046454	-0.631758	-1.203099	99
Es	2.385294	-0.911164	-1.684101	99
Es	0.231261	0.798532	-0.340423	99
Es	0.468025	2.060218	-0.286830	99
Es	1.922096	-1.199988	-1.505872	99
Es	2.109920	-0.959508	-1.560668	99
Es	-1.288291	2.511714	0.701954	99
Es	-0.428195	-0.927679	-0.362637	99
Es	1.628836	0.099934	-1.174726	99
Es	-0.163764	-1.575214	0.988845	99
Es	-0.332950	-1.109059	1.543475	99
Es	-1.654403	1.319819	0.681975	99
Es	0.385572	0.271231	-0.567913	99
Es	-1.147302	-0.749627	-0.433812	99
Es	1.994418	0.757374	-1.241470	99
Es	-0.014129	1.526461	-0.136403	99
Es	1.833119	-0.565795	-1.651958	99
Es	-1.149721	1.820852	0.505745	99
Es	-0.294395	-1.238386	0.316578	99
Es	-0.464026	1.626185	0.487486	99
Es	0.547748	-1.762328	1.052390	99
Es	0.422362	0.351113	-0.789326	99
Es	0.047696	-0.222718	-0.459979	99
43
Properties=species:S:1:pos:R:3:Z:I:1 energy=-323.9937041547738 field_type=dipole dipole="0.000000 0.000000 0.000000" charge=0
C	-0.163743	-1.575234	0.988882	6
C	-0.428313	-0.927864	-0.362657	6
N	0.385037	0.271246	-0.568507	7
C	-0.014293	1.526646	-0.136277	6
C	-1.149673	1.820846	0.505723	6
C	1.629007	0.099906	-1.174808	6
O	2.110057	-0.959774	-1.560777	8
H	-0.771473	-2.478264	1.102342	1
H	-0.407083	-0.895034	1.811132	1
H	0.889467	-1.857184	1.090253	1
H	-1.490123	-0.687214	-0.480907	1
H	-0.197673	-1.655454	-1.150247	1
H	0.679047	2.340506	-0.345577	1
H	-1.899113	1.084635	0.768832	1
H	-1.356533	2.846216	0.798523	1
H	2.185407	1.046026	-1.285928	1
Es	-0.463827	1.626106	0.487480	99
Es	1.994424	0.757398	-1.241492	99
Es	1.923043	-1.201168	-1.507007	99
Es	-0.014124	1.526460	-0.136395	99
Es	2.384929	-0.909561	-1.683251	99
Es	0.231139	0.798742	-0.340562	99
Es	1.833431	-0.566496	-1.652319	99
Es	-0.332948	-1.109150	1.543495	99
Es	-0.271012	-1.406373	-0.890849	99
Es	1.628840	0.099934	-1.174724	99
Es	0.941229	0.189101	-0.708851	99
Es	0.385586	0.271252	-0.567899	99
Es	0.468003	2.060216	-0.286872	99
Es	-0.294414	-1.238340	0.316522	99
Es	-0.762561	1.728799	-0.087839	99
Es	2.045515	-0.631481	-1.202442	99
Es	0.423080	0.351015	-0.787725	99
Es	2.109939	-0.959532	-1.560684	99
Es	-1.654490	1.319818	0.681826	99
Es	-1.147293	-0.749652	-0.433859	99
Es	-0.581621	-2.186730	1.058415	99
Es	0.047050	-0.222696	-0.460852	99
Es	-0.428194	-0.927678	-0.362638	99
Es	0.547708	-1.762318	1.052446	99
Es	-1.149718	1.820849	0.505755	99
Es	-0.163763	-1.575216	0.988847	99
Es	-1.288358	2.511746	0.701812	99
43
Properties=species:S:1:pos:R:3:Z:I:1 energy=-323.9937041547738 field_type=dipole dipole="0.000000 0.000000 0.000000" charge=0
C	-0.163743	-1.575234	0.988882	6
C	-0.428313	-0.927864	-0.362657	6
N	0.385037	0.271246	-0.568507	7
C	-0.014293	1.526646	-0.136277	6
C	-1.149673	1.820846	0.505723	6
C	1.629007	0.099906	-1.174808	6
O	2.110057	-0.959774	-1.560777	8
H	-0.771473	-2.478264	1.102342	1
H	-0.407083	-0.895034	1.811132	1
H	0.889467	-1.857184	1.090253	1
H	-1.490123	-0.687214	-0.480907	1
H	-0.197673	-1.655454	-1.150247	1
H	0.679047	2.340506	-0.345577	1
H	-1.899113	1.084635	0.768832	1
H	-1.356533	2.846216	0.798523	1
H	2.185407	1.046026	-1.285928	1
Es	0.229227	0.799922	-0.343184	99
Es	-0.163763	-1.575216	0.988847	99
Es	-1.149723	1.820852	0.505731	99
Es	0.468016	2.060271	-0.286896	99
Es	-1.147246	-0.749659	-0.433902	99
Es	0.425193	0.349545	-0.792129	99
Es	-0.581722	-2.186662	1.058463	99
Es	-0.294517	-1.238311	0.316588	99
Es	0.940670	0.189503	-0.702625	99
Es	0.047559	-0.222703	-0.459998	99
Es	1.921891	-1.200205	-1.508517	99
Es	-0.428193	-0.927679	-0.362637	99
Es	2.109928	-0.959491	-1.560669	99
Es	-0.271016	-1.406420	-0.890806	99
Es	-0.464028	1.626172	0.487618	99
Es	2.385433	-0.910534	-1.682716	99
Es	-0.332847	-1.109099	1.543471	99
Es	-0.762400	1.728655	-0.087969	99
Es	0.385441	0.271224	-0.568016	99
Es	0.547740	-1.762415	1.052380	99
Es	1.628835	0.099935	-1.174733	99
Es	-1.654493	1.319823	0.681899	99
Es	2.045487	-0.633263	-1.201949	99
Es	-1.288305	2.511703	0.701856	99
Es	1.834114	-0.564755	-1.651842	99
Es	1.994438	0.757394	-1.241531	99
Es	-0.014124	1.526460	-0.136397	99
43
Properties=species:S:1:pos:R:3:Z:I:1 energy=-323.9937041547738 field_type=dipole dipole="0.000000 0.000000 0.000000" charge=0
C	-0.163743	-1.575234	0.988882	6
C	-0.428313	-0.927864	-0.362657	6
N	0.385037	0.271246	-0.568507	7
C	-0.014293	1.526646	-0.136277	6
C	-1.149673	1.820846	0.505723	6
C	1.629007	0.099906	-1.174808	6
O	2.110057	-0.959774	-1.560777	8
H	-0.771473	-2.478264	1.102342	1
H	-0.407083	-0.895034	1.811132	1
H	0.889467	-1.857184	1.090253	1
H	-1.490123	-0.687214	-0.480907	1
H	-0.197673	-1.655454	-1.150247	1
H	0.679047	2.340506	-0.345577	1
H	-1.899113	1.084635	0.768832	1
H	-1.356533	2.846216	0.798523	1
H	2.185407	1.046026	-1.285928	1
Es	0.423659	0.350101	-0.795493	99
Es	0.048433	-0.222729	-0.458772	99
Es	2.384928	-0.910438	-1.683305	99
Es	-0.762466	1.728666	-0.088046	99
Es	2.045966	-0.632545	-1.202033	99
Es	-0.428194	-0.927678	-0.362638	99
Es	1.628843	0.099932	-1.174720	99
Es	-0.463935	1.626157	0.487690	99
Es	-0.271043	-1.406299	-0.890842	99
Es	-1.654442	1.319924	0.681872	99
Es	0.229924	0.799068	-0.342135	99
Es	0.940403	0.189779	-0.701537	99
Es	-0.014126	1.526460	-0.136398	99
Es	2.109838	-0.959503	-1.560634	99
Es	0.385628	0.271250	-0.567955	99
Es	1.833520	-0.565431	-1.651999	99
Es	0.547652	-1.762312	1.052448	99
Es	-1.288362	2.511632	0.701886	99
Es	1.994458	0.757384	-1.241558	99
Es	-0.332877	-1.109153	1.543480	99
Es	-1.147227	-0.749649	-0.433954	99
Es	1.922574	-1.200351	-1.507709	99
Es	-0.163764	-1.575216	0.988848	99
Es	0.468014	2.060299	-0.286940	99
Es	-1.149714	1.820848	0.505742	99
Es	-0.294482	-1.238406	0.316540	99
Es	-0.581615	-2.186742	1.058498	99
43
Properties=species:S:1:pos:R:3:Z:I:1 energy=-323.9937041547738 field_type=dipole dipole="0.000000 0.000000 0.000000" charge=0
C	-0.163743	-1.575234	0.988882	6
C	-0.428313	-0.927864	-0.362657	6
N	0.385037	0.271246	-0.568507	7
C	-0.014293	1.526646	-0.136277	6
C	-1.149673	1.820846	0.505723	6
C	1.629007	0.099906	-1.174808	6
O	2.110057	-0.959774	-1.560777	8
H	-0.771473	-2.478264	1.102342	1
H	-0.407083	-0.895034	1.811132	1
H	0.889467	-1.857184	1.090253	1
H	-1.490123	-0.687214	-0.480907	1
H	-0.197673	-1.655454	-1.150247	1
H	0.679047	2.340506	-0.345577	1
H	-1.899113	1.084635	0.768832	1
H	-1.356533	2.846216	0.798523	1
H	2.185407	1.046026	-1.285928	1
Es	1.994151	0.757789	-1.242009	99
Es	-0.332920	-1.109213	1.543568	99
Es	0.926071	0.198532	-0.820392	99
Es	-0.271006	-1.406264	-0.890777	99
Es	0.211887	0.814467	-0.374819	99
Es	0.039093	-0.223912	-0.474549	99
Es	2.109912	-0.959447	-1.560659	99
Es	-0.428190	-0.927673	-0.362641	99
Es	-0.294418	-1.238302	0.316596	99
Es	-1.147267	-0.749661	-0.433999	99
Es	-1.149720	1.820849	0.505743	99
Es	-0.014130	1.526465	-0.136390	99
Es	0.547635	-1.762324	1.052454	99
Es	-0.581563	-2.186731	1.058404	99
Es	-0.463944	1.626022	0.487893	99
Es	-1.288365	2.511646	0.701809	99
Es	1.628839	0.099935	-1.174726	99
Es	1.921924	-1.199718	-1.506879	99
Es	0.467904	2.060413	-0.287190	99
Es	2.047057	-0.632536	-1.201937	99
Es	-1.654528	1.319896	0.681796	99
Es	1.833467	-0.565035	-1.651392	99
Es	-0.163763	-1.575216	0.988849	99
Es	2.384709	-0.911375	-1.684501	99
Es	-0.762092	1.728804	-0.087904	99
Es	0.425575	0.291538	-0.578357	99
Es	0.425276	0.306099	-0.617655	99
43
Properties=species:S:1:pos:R:3:Z:I:1 energy=-323.9937041547738 field_type=dipole dipole="0.000000 0.000000 0.000000" charge=0
C	-0.163743	-1.575234	0.988882	6
C	-0.428313	-0.927864	-0.362657	6
N	0.385037	0.271246	-0.568507	7
C	-0.014293	1.526646	-0.136277	6
C	-1.149673	1.820846	0.505723	6
C	1.629007	0.099906	-1.174808	6
O	2.110057	-0.959774	-1.560777	8
H	-0.771473	-2.478264	1.102342	1
H	-0.407083	-0.895034	1.811132	1
H	0.889467	-1.857184	1.090253	1
H	-1.490123	-0.687214	-0.480907	1
H	-0.197673	-1.655454	-1.150247	1
H	0.679047	2.340506	-0.345577	1
H	-1.899113	1.084635	0.768832	1
H	-1.356533	2.846216	0.798523	1
H	2.185407	1.046026	-1.285928	1
Es	0.468044	2.060410	-0.286866	99
Es	0.231584	0.798127	-0.340160	99
Es	-1.149717	1.820849	0.505743	99
Es	-0.332877	-1.109218	1.543490	99
Es	0.941166	0.189825	-0.710992	99
Es	1.994440	0.757445	-1.241609	99
Es	-0.163763	-1.575217	0.988848	99
Es	-0.762413	1.728562	-0.087910	99
Es	-0.428196	-0.927681	-0.362638	99
Es	1.921461	-1.200144	-1.509326	99
Es	0.047853	-0.223198	-0.459709	99
Es	-0.294592	-1.238396	0.316565	99
Es	-0.271041	-1.406256	-0.890806	99
Es	2.384594	-0.910581	-1.683568	99
Es	-0.464058	1.626110	0.487476	99
Es	0.421421	0.351329	-0.787349	99
Es	2.047081	-0.634801	-1.201683	99
Es	1.833850	-0.563243	-1.650362	99
Es	-1.654440	1.319911	0.681935	99
Es	1.628838	0.099934	-1.174733	99
Es	0.547650	-1.762238	1.052434	99
Es	-0.014127	1.526460	-0.136400	99
Es	2.109872	-0.959520	-1.560652	99
Es	-0.581540	-2.186782	1.058536	99
Es	0.386026	0.271346	-0.567732	99
Es	-1.147191	-0.749689	-0.434036	99
Es	-1.288330	2.511705	0.701838	99
43
Properties=species:S:1:pos:R:3:Z:I:1 energy=-323.9937041547738 field_type=dipole dipole="0.000000 0.000000 0.000000" charge=0
C	-0.163743	-1.575234	0.988882	6
C	-0.428313	-0.927864	-0.362657	6
N	0.385037	0.271246	-0.568507	7
C	-0.014293	1.526646	-0.136277	6
C	-1.149673	1.820846	0.505723	6
C	1.629007	0.099906	-1.174808	6
O	2.110057	-0.959774	-1.560777	8
H	-0.771473	-2.478264	1.102342	1
H	-0.407083	-0.895034	1.811132	1
H	0.889467	-1.857184	1.090253	1
H	-1.490123	-0.687214	-0.480907	1
H	-0.197673	-1.655454	-1.150247	1
H	0.679047	2.340506	-0.345577	1
H	-1.899113	1.084635	0.768832	1
H	-1.356533	2.846216	0.798523	1
H	2.185407	1.046026	-1.285928	1
Es	0.547616	-1.762406	1.052479	99
Es	2.109917	-0.959499	-1.560670	99
Es	1.994483	0.757463	-1.241617	99
Es	2.046610	-0.632702	-1.201857	99
Es	-0.271133	-1.406231	-0.890868	99
Es	-0.428196	-0.927681	-0.362638	99
Es	-0.464151	1.626086	0.487390	99
Es	-0.294497	-1.238363	0.316570	99
Es	-1.288306	2.511643	0.702032	99
Es	-1.654449	1.319877	0.681817	99
Es	0.940721	0.189635	-0.708558	99
Es	1.922175	-1.199772	-1.507566	99
Es	-1.147127	-0.749649	-0.433990	99
Es	-0.332807	-1.109252	1.543512	99
Es	0.421233	0.351810	-0.791172	99
Es	1.833567	-0.564997	-1.652006	99
Es	-0.762361	1.728659	-0.087939	99
Es	-0.014127	1.526462	-0.136395	99
Es	-0.163763	-1.575217	0.988848	99
Es	1.628839	0.099934	-1.174725	99
Es	0.232201	0.797755	-0.339497	99
Es	0.468078	2.060437	-0.286811	99
Es	-0.581662	-2.186675	1.058480	99
Es	0.385476	0.271228	-0.567983	99
Es	-1.149717	1.820850	0.505743	99
Es	2.384547	-0.911319	-1.683530	99
Es	0.048427	-0.223030	-0.458715	99
43
Properties=species:S:1:pos:R:3:Z:I:1 energy=-323.9937041547738 field_type=dipole dipole="0.000000 0.000000 0.000000" charge=0
C	-0.163743	-1.575234	0.988882	6
C	-0.428313	-0.927864	-0.362657	6
N	0.385037	0.271246	-0.568507	7
C	-0.014293	1.526646	-0.136277	6
C	-1.149673	1.820846	0.505723	6
C	1.629007	0.099906	-1.174808	6
O	2.110057	-0.959774	-1.560777	8
H	-0.771473	-2.478264	1.102342	1
H	-0.407083	-0.895034	1.811132	1
H	0.889467	-1.857184	1.090253	1
H	-1.490123	-0.687214	-0.480907	1
H	-0.197673	-1.655454	-1.150247	1
H	0.679047	2.340506	-0.345577	1
H	-1.899113	1.084635	0.768832	1
H	-1.356533	2.846216	0.798523	1
H	2.185407	1.046026	-1.285928	1
Es	-1.288313	2.511651	0.701782	99
Es	0.038695	-0.223982	-0.475601	99
Es	2.384017	-0.909430	-1.683273	99
Es	-0.163763	-1.575217	0.988848	99
Es	-0.464030	1.625903	0.487990	99
Es	-0.332861	-1.109262	1.543485	99
Es	0.404574	0.287666	-0.590951	99
Es	-0.271180	-1.406209	-0.890759	99
Es	-0.428196	-0.927682	-0.362639	99
Es	-0.581600	-2.186724	1.058498	99
Es	-0.294401	-1.238305	0.316650	99
Es	1.922883	-1.201304	-1.508690	99
Es	0.453234	0.307281	-0.589892	99
Es	1.628839	0.099934	-1.174726	99
Es	1.994147	0.757837	-1.242094	99
Es	-0.014127	1.526462	-0.136395	99
Es	-0.762064	1.728692	-0.087996	99
Es	2.046563	-0.633384	-1.201312	99
Es	-1.654555	1.320057	0.681810	99
Es	0.921986	0.200326	-0.829786	99
Es	-1.147106	-0.749723	-0.434017	99
Es	0.547608	-1.762323	1.052532	99
Es	2.109933	-0.959460	-1.560672	99
Es	-1.149717	1.820849	0.505741	99
Es	0.467974	2.060457	-0.287188	99
Es	1.833659	-0.564568	-1.651359	99
Es	0.209396	0.815505	-0.379652	99
43
Properties=species:S:1:pos:R:3:Z:I:1 energy=-323.9937041547738 field_type=dipole dipole="0.000000 0.000000 0.000000" charge=0
C	-0.163743	-1.575234	0.988882	6
C	-0.428313	-0.927864	-0.362657	6
N	0.385037	0.271246	-0.568507	7
C	-0.014293	1.526646	-0.136277	6
C	-1.149673	1.820846	0.505723	6
C	1.629007	0.099906	-1.174808	6
O	2.110057	-0.959774	-1.560777	8
H	-0.771473	-2.478264	1.102342	1
H	-0.407083	-0.895034	1.811132	1
H	0.889467	-1.857184	1.090253	1
H	-1.490123	-0.687214	-0.480907	1
H	-0.197673	-1.655454	-1.150247	1
H	0.679047	2.340506	-0.345577	1
H	-1.899113	1.084635	0.768832	1
H	-1.356533	2.846216	0.798523	1
H	2.185407	1.046026	-1.285928	1
Es	0.468017	2.060586	-0.287138	99
Es	-0.294406	-1.238337	0.316648	99
Es	-0.762070	1.728673	-0.087808	99
Es	0.212338	0.814174	-0.373913	99
Es	-0.464029	1.625899	0.487705	99
Es	2.385426	-0.906052	-1.678666	99
Es	-1.288356	2.511699	0.701806	99
Es	-0.428197	-0.927682	-0.362638	99
Es	-1.147082	-0.749723	-0.434036	99
Es	-0.271193	-1.406176	-0.890774	99
Es	0.423322	0.290864	-0.579107	99
Es	0.039616	-0.224224	-0.473775	99
Es	0.927099	0.198436	-0.817509	99
Es	0.547586	-1.762339	1.052541	99
Es	1.628839	0.099934	-1.174725	99
Es	1.994269	0.757819	-1.241973	99
Es	-1.149716	1.820849	0.505741	99
Es	-0.332838	-1.109277	1.543485	99
Es	0.425441	0.307499	-0.621550	99
Es	1.834485	-0.565009	-1.653476	99
Es	2.041541	-0.634994	-1.199356	99
Es	-1.654510	1.319967	0.681797	99
Es	-0.163763	-1.575217	0.988848	99
Es	-0.014127	1.526462	-0.136395	99
Es	1.925757	-1.202564	-1.513313	99
Es	-0.581599	-2.186712	1.058520	99
Es	2.109747	-0.959509	-1.560604	99
43
Properties=species:S:1:pos:R:3:Z:I:1 energy=-323.9937041547738 field_type=dipole dipole="0.000000 0.000000 0.000000" charge=0
C	-0.163743	-1.575234	0.988882	6
C	-0.428313	-0.927864	-0.362657	6
N	0.385037	0.271246	-0.568507	7
C	-0.014293	1.526646	-0.136277	6
C	-1.149673	1.820846	0.505723	6
C	1.629007	0.099906	-1.174808	6
O	2.110057	-0.959774	-1.560777	8
H	-0.771473	-2.478264	1.102342	1
H	-0.407083	-0.895034	1.811132	1
H	0.889467	-1.857184	1.090253	1
H	-1.490123	-0.687214	-0.480907	1
H	-0.197673	-1.655454	-1.150247	1
H	0.679047	2.340506	-0.345577	1
H	-1.899113	1.084635	0.768832	1
H	-1.356533	2.846216	0.798523	1
H	2.185407	1.046026	-1.285928	1
Es	0.547582	-1.762350	1.052584	99
Es	-0.464129	1.626091	0.487402	99
Es	1.832670	-0.565187	-1.651080	99
Es	2.109927	-0.959459	-1.560669	99
Es	0.468086	2.060560	-0.286809	99
Es	-1.288437	2.511653	0.701849	99
Es	1.994526	0.757487	-1.241685	99
Es	2.046507	-0.633535	-1.201396	99
Es	-1.654374	1.319887	0.681907	99
Es	-0.014126	1.526461	-0.136396	99
Es	-0.428197	-0.927685	-0.362638	99
Es	-1.149713	1.820848	0.505743	99
Es	-0.271131	-1.406137	-0.890817	99
Es	0.232301	0.797189	-0.339416	99
Es	0.939709	0.189732	-0.700886	99
Es	-0.163763	-1.575218	0.988849	99
Es	0.385172	0.271229	-0.568308	99
Es	2.384689	-0.910623	-1.684278	99
Es	-0.581591	-2.186697	1.058475	99
Es	-0.332864	-1.109345	1.543505	99
Es	-1.147114	-0.749739	-0.434058	99
Es	0.048832	-0.222777	-0.457827	99
Es	-0.762341	1.728493	-0.087790	99
Es	1.922969	-1.199538	-1.508188	99
Es	-0.294439	-1.238339	0.316542	99
Es	0.422000	0.352115	-0.799559	99
Es	1.628841	0.099933	-1.174723	99
43
Properties=species:S:1:pos:R:3:Z:I:1 energy=-323.9937041547738 field_type=dipole dipole="0.000000 0.000000 0.000000" charge=0
C	-0.163743	-1.575234	0.988882	6
C	-0.428313	-0.927864	-0.362657	6
N	0.385037	0.271246	-0.568507	7
C	-0.014293	1.526646	-0.136277	6
C	-1.149673	1.820846	0.505723	6
C	1.629007	0.099906	-1.174808	6
O	2.110057	-0.959774	-1.560777	8
H	-0.771473	-2.478264	1.102342	1
H	-0.407083	-0.895034	1.811132	1
H	0.889467	-1.857184	1.090253	1
H	-1.490123	-0.687214	-0.480907	1
H	-0.197673	-1.655454	-1.150247	1
H	0.679047	2.340506	-0.345577	1
H	-1.899113	1.084635	0.768832	1
H	-1.356533	2.846216	0.798523	1
H	2.185407	1.046026	-1.285928	1
Es	-1.147051	-0.749734	-0.434131	99
Es	1.994511	0.757524	-1.241736	99
Es	0.233065	0.797046	-0.338660	99
Es	-0.163763	-1.575217	0.988849	99
Es	-1.149717	1.820849	0.505737	99
Es	1.628838	0.099934	-1.174729	99
Es	-0.428197	-0.927680	-0.362640	99
Es	2.109934	-0.959504	-1.560678	99
Es	0.419246	0.352195	-0.791826	99
Es	0.547551	-1.762297	1.052561	99
Es	-0.464126	1.626093	0.487402	99
Es	-0.762291	1.728447	-0.087716	99
Es	0.048829	-0.223031	-0.457913	99
Es	-0.014122	1.526457	-0.136395	99
Es	2.046891	-0.633789	-1.202098	99
Es	-0.332858	-1.109335	1.543526	99
Es	0.386444	0.271469	-0.567641	99
Es	-0.294517	-1.238486	0.316558	99
Es	1.833050	-0.564196	-1.651284	99
Es	0.940477	0.189733	-0.709795	99
Es	2.384667	-0.911248	-1.683696	99
Es	-1.654417	1.319915	0.681838	99
Es	-0.271143	-1.406033	-0.890862	99
Es	-1.288427	2.511644	0.701856	99
Es	-0.581549	-2.186746	1.058491	99
Es	0.468037	2.060628	-0.286865	99
Es	1.922231	-1.199592	-1.507819	99
43
Properties=species:S:1:pos:R:3:Z:I:1 energy=-323.9937041547738 field_type=dipole dipole="0.000000 0.000000 0.000000" charge=0
C	-0.163743	-1.575234	0.988882	6
C	-0.428313	-0.927864	-0.362657	6
N	0.385037	0.271246	-0.568507	7
C	-0.014293	1.526646	-0.136277	6
C	-1.149673	1.820846	0.505723	6
C	1.629007	0.099906	-1.174808	6
O	2.110057	-0.959774	-1.560777	8
H	-0.771473	-2.478264	1.102342	1
H	-0.407083	-0.895034	1.811132	1
H	0.889467	-1.857184	1.090253	1
H	-1.490123	-0.687214	-0.480907	1
H	-0.197673	-1.655454	-1.150247	1
H	0.679047	2.340506	-0.345577	1
H	-1.899113	1.084635	0.768832	1
H	-1.356533	2.846216	0.798523	1
H	2.185407	1.046026	-1.285928	1
Es	2.046638	-0.633104	-1.201064	99
Es	0.468019	2.060684	-0.287115	99
Es	-0.014128	1.526462	-0.136395	99
Es	1.924357	-1.201051	-1.508284	99
Es	2.383708	-0.909079	-1.683850	99
Es	-0.163765	-1.575213	0.988842	99
Es	0.547541	-1.762351	1.052604	99
Es	-0.294382	-1.238311	0.316689	99
Es	-1.147019	-0.749724	-0.434098	99
Es	0.925511	0.199084	-0.821156	99
Es	-0.581597	-2.186705	1.058495	99
Es	0.211683	0.814541	-0.375502	99
Es	-0.464007	1.625933	0.487657	99
Es	-1.654437	1.319896	0.681742	99
Es	0.426599	0.292294	-0.579290	99
Es	-0.332828	-1.109354	1.543508	99
Es	1.628839	0.099934	-1.174725	99
Es	-0.762002	1.728691	-0.087729	99
Es	1.832389	-0.565395	-1.651546	99
Es	0.039292	-0.224302	-0.474262	99
Es	0.424658	0.305040	-0.615622	99
Es	-1.149715	1.820848	0.505741	99
Es	2.109857	-0.959483	-1.560640	99
Es	-1.288496	2.511653	0.701811	99
Es	1.994311	0.757843	-1.242051	99
Es	-0.271234	-1.406101	-0.890787	99
Es	-0.428197	-0.927684	-0.362639	99
43
Properties=species:S:1:pos:R:3:Z:I:1 energy=-323.9937041547738 field_type=dipole dipole="0.000000 0.000000 0.000000" charge=0
C	-0.163743	-1.575234	0.988882	6
C	-0.428313	-0.927864	-0.362657	6
N	0.385037	0.271246	-0.568507	7
C	-0.014293	1.526646	-0.136277	6
C	-1.149673	1.820846	0.505723	6
C	1.629007	0.099906	-1.174808	6
O	2.110057	-0.959774	-1.560777	8
H	-0.771473	-2.478264	1.102342	1
H	-0.407083	-0.895034	1.811132	1
H	0.889467	-1.857184	1.090253	1
H	-1.490123	-0.687214	-0.480907	1
H	-0.197673	-1.655454	-1.150247	1
H	0.679047	2.340506	-0.345577	1
H	-1.899113	1.084635	0.768832	1
H	-1.356533	2.846216	0.798523	1
H	2.185407	1.046026	-1.285928	1
Es	1.922838	-1.200044	-1.508565	99
Es	-0.271276	-1.406054	-0.890834	99
Es	0.212991	0.813925	-0.373127	99
Es	-0.761967	1.728597	-0.087667	99
Es	1.833173	-0.564097	-1.651421	99
Es	0.547506	-1.762384	1.052575	99
Es	-0.581569	-2.186667	1.058572	99
Es	0.418572	0.287459	-0.575169	99
Es	0.468034	2.060726	-0.287154	99
Es	1.994295	0.757863	-1.242081	99
Es	-0.464054	1.625969	0.487601	99
Es	0.926855	0.198519	-0.817352	99
Es	-0.294418	-1.238385	0.316585	99
Es	0.040220	-0.224543	-0.472400	99
Es	0.429072	0.311314	-0.627779	99
Es	-0.332766	-1.109346	1.543523	99
Es	2.109931	-0.959481	-1.560675	99
Es	-1.146994	-0.749733	-0.434052	99
Es	-1.654453	1.319918	0.681758	99
Es	1.628839	0.099934	-1.174728	99
Es	2.047355	-0.633811	-1.200867	99
Es	-1.149716	1.820849	0.505741	99
Es	2.383676	-0.910717	-1.683762	99
Es	-0.428199	-0.927687	-0.362639	99
Es	-0.163763	-1.575216	0.988849	99
Es	-0.014127	1.526462	-0.136395	99
Es	-1.288462	2.511676	0.701798	99
43
Properties=species:S:1:pos:R:3:Z:I:1 energy=-323.9937041547738 field_type=dipole dipole="0.000000 0.000000 0.000000" charge=0
C	-0.163743	-1.575234	0.988882	6
C	-0.428313	-0.927864	-0.362657	6
N	0.385037	0.271246	-0.568507	7
C	-0.014293	1.526646	-0.136277	6
C	-1.149673	1.820846	0.505723	6
C	1.629007	0.099906	-1.174808	6
O	2.110057	-0.959774	-1.560777	8
H	-0.771473	-2.478264	1.102342	1
H	-0.407083	-0.895034	1.811132	1
H	0.889467	-1.857184	1.090253	1
H	-1.490123	-0.687214	-0.480907	1
H	-0.197673	-1.655454	-1.150247	1
H	0.679047	2.340506	-0.345577	1
H	-1.899113	1.084635	0.768832	1
H	-1.356533	2.846216	0.798523	1
H	2.185407	1.046026	-1.285928	1
Es	-1.288481	2.511648	0.701811	99
Es	-0.581572	-2.186710	1.058527	99
Es	-0.428200	-0.927687	-0.362639	99
Es	1.994299	0.757883	-1.242116	99
Es	-1.146925	-0.749762	-0.434137	99
Es	-1.654430	1.319926	0.681778	99
Es	-1.149713	1.820848	0.505740	99
Es	-0.163763	-1.575217	0.988849	99
Es	-0.294452	-1.238315	0.316707	99
Es	2.045710	-0.633935	-1.200159	99
Es	0.421287	0.300945	-0.608028	99
Es	0.547526	-1.762336	1.052608	99
Es	-0.014128	1.526463	-0.136394	99
Es	-0.271275	-1.406050	-0.890804	99
Es	1.833434	-0.564797	-1.651710	99
Es	-0.761991	1.728664	-0.087703	99
Es	-0.464039	1.625897	0.487566	99
Es	0.432720	0.295302	-0.580596	99
Es	0.039205	-0.224333	-0.474366	99
Es	1.923639	-1.200351	-1.509831	99
Es	0.210857	0.814912	-0.377273	99
Es	-0.332799	-1.109407	1.543507	99
Es	2.384188	-0.909698	-1.682913	99
Es	2.109992	-0.959356	-1.560689	99
Es	1.628839	0.099934	-1.174726	99
Es	0.923613	0.199814	-0.825568	99
Es	0.468053	2.060763	-0.287104	99
43
Properties=species:S:1:pos:R:3:Z:I:1 energy=-323.9937041547738 field_type=dipole dipole="0.000000 0.000000 0.000000" charge=0
C	-0.163743	-1.575234	0.988882	6
C	-0.428313	-0.927864	-0.362657	6
N	0.385037	0.271246	-0.568507	7
C	-0.014293	1.526646	-0.136277	6
C	-1.149673	1.820846	0.505723	6
C	1.629007	0.099906	-1.174808	6
O	2.110057	-0.959774	-1.560777	8
H	-0.771473	-2.478264	1.102342	1
H	-0.407083	-0.895034	1.811132	1
H	0.889467	-1.857184	1.090253	1
H	-1.490123	-0.687214	-0.480907	1
H	-0.197673	-1.655454	-1.150247	1
H	0.679047	2.340506	-0.345577	1
H	-1.899113	1.084635	0.768832	1
H	-1.356533	2.846216	0.798523	1
H	2.185407	1.046026	-1.285928	1
Es	2.109922	-0.959489	-1.560672	99
Es	-1.149712	1.820848	0.505741	99
Es	-0.014127	1.526462	-0.136395	99
Es	0.423724	0.308430	-0.626725	99
Es	-0.464025	1.625912	0.487575	99
Es	-0.294502	-1.238234	0.316733	99
Es	1.994319	0.757869	-1.242082	99
Es	0.040659	-0.224685	-0.471452	99
Es	0.421578	0.291060	-0.581839	99
Es	0.928683	0.197785	-0.812530	99
Es	-1.654441	1.319958	0.681791	99
Es	-1.288462	2.511626	0.701811	99
Es	-1.146991	-0.749744	-0.434241	99
Es	1.834575	-0.563481	-1.651898	99
Es	-0.581569	-2.186664	1.058478	99
Es	2.046962	-0.633934	-1.200433	99
Es	2.384210	-0.912525	-1.683200	99
Es	-0.271203	-1.406045	-0.890722	99
Es	-0.428199	-0.927685	-0.362639	99
Es	1.628841	0.099934	-1.174725	99
Es	0.468069	2.060760	-0.287088	99
Es	0.547497	-1.762404	1.052562	99
Es	-0.163763	-1.575217	0.988850	99
Es	0.213043	0.814005	-0.373287	99
Es	-0.762028	1.728634	-0.087743	99
Es	-0.332763	-1.109441	1.543593	99
Es	1.921299	-1.198685	-1.509129	99
