45
Properties=species:S:1:pos:R:3:Z:I:1 energy=-341.10313648677595 field_type=dipole dipole="0.000000 0.000000 0.000000" charge=0
C	-2.310864	-0.642042	0.909478	6
C	-0.937174	-0.844642	0.292268	6
N	-0.260834	0.448298	0.251268	7
C	0.944016	0.504518	-0.230252	6
C	1.698626	-0.697622	-0.755392	6
N	1.601366	1.720008	-0.274072	7
O	0.728936	2.815538	-0.217312	8
H	-2.854894	-1.590632	0.953648	1
H	-2.903174	0.067828	0.322088	1
H	-2.227484	-0.245292	1.927058	1
H	-1.059994	-1.252942	-0.716672	1
H	-0.378384	-1.560962	0.903998	1
H	1.152366	-1.141512	-1.591872	1
H	1.815716	-1.438412	0.039978	1
H	2.693646	-0.409082	-1.106212	1
H	2.355026	1.830988	-0.947692	1
H	-0.056894	2.435958	0.239698	1
Es	1.290140	1.220169	-0.359474	99
Es	-2.712701	-0.162227	0.505434	99
Es	1.698598	-0.697556	-0.755370	99
Es	0.728880	2.815330	-0.217231	99
Es	1.718435	1.583756	0.023099	99
Es	1.336138	-0.087171	-0.491234	99
Es	2.371457	-0.492067	-0.992862	99
Es	0.944167	0.504614	-0.230263	99
Es	-1.627538	-0.746270	0.601457	99
Es	1.121830	2.302807	-0.242887	99
Es	-0.260536	0.447946	0.251087	99
Es	-0.436641	0.766215	0.370387	99
Es	-2.310847	-0.642066	0.909466	99
Es	2.024053	1.780710	-0.696870	99
Es	-2.680769	-1.296095	0.937721	99
Es	-0.544009	-1.337811	0.708035	99
Es	-0.937126	-0.844502	0.292274	99
Es	0.310493	0.409203	0.324556	99
Es	0.338878	2.613926	0.018661	99
Es	-1.011435	-1.125907	-0.404914	99
Es	1.600912	1.719850	-0.274666	99
Es	0.647331	2.867858	-0.515503	99
Es	0.100359	0.495343	-0.199462	99
Es	-0.521789	-0.125517	0.256630	99
Es	1.769496	-1.185736	-0.221573	99
Es	1.324838	-0.983221	-1.308805	99
Es	-2.250761	-0.376233	1.602685	99
Es	0.867555	3.028161	-0.032033	99
45
Properties=species:S:1:pos:R:3:Z:I:1 energy=-341.10313648677595 field_type=dipole dipole="0.000000 0.000000 0.000000" charge=0
C	-2.310864	-0.642042	0.909478	6
C	-0.937174	-0.844642	0.292268	6
N	-0.260834	0.448298	0.251268	7
C	0.944016	0.504518	-0.230252	6
C	1.698626	-0.697622	-0.755392	6
N	1.601366	1.720008	-0.274072	7
O	0.728936	2.815538	-0.217312	8
H	-2.854894	-1.590632	0.953648	1
H	-2.903174	0.067828	0.322088	1
H	-2.227484	-0.245292	1.927058	1
H	-1.059994	-1.252942	-0.716672	1
H	-0.378384	-1.560962	0.903998	1
H	1.152366	-1.141512	-1.591872	1
H	1.815716	-1.438412	0.039978	1
H	2.693646	-0.409082	-1.106212	1
H	2.355026	1.830988	-0.947692	1
H	-0.056894	2.435958	0.239698	1
Es	1.600948	1.719911	-0.274603	99
Es	-0.522210	-0.125510	0.256508	99
Es	0.944157	0.504613	-0.230268	99
Es	0.310124	0.409030	0.324380	99
Es	-2.250827	-0.376241	1.602632	99
Es	2.024365	1.780731	-0.696675	99
Es	1.290190	1.219550	-0.358691	99
Es	2.371442	-0.492042	-0.992849	99
Es	1.324880	-0.983177	-1.308815	99
Es	0.867754	3.028498	-0.033299	99
Es	-2.680777	-1.296092	0.937737	99
Es	0.728877	2.815170	-0.217158	99
Es	-2.712697	-0.162225	0.505423	99
Es	1.121774	2.302635	-0.243039	99
Es	0.646609	2.867360	-0.515419	99
Es	1.336123	-0.087292	-0.491184	99
Es	-2.310850	-0.642064	0.909467	99
Es	-0.544010	-1.337743	0.707984	99
Es	-1.627570	-0.746332	0.601512	99
Es	1.698599	-0.697556	-0.755371	99
Es	1.718183	1.584329	0.022207	99
Es	0.100691	0.495635	-0.199459	99
Es	0.339297	2.614438	0.019747	99
Es	-1.011325	-1.125930	-0.404882	99
Es	-0.436171	0.766170	0.370668	99
Es	1.769491	-1.185793	-0.221559	99
Es	-0.937122	-0.844498	0.292273	99
Es	-0.260535	0.447936	0.251077	99
45
Properties=species:S:1:pos:R:3:Z:I:1 energy=-341.10313648677595 field_type=dipole dipole="0.000000 0.000000 0.000000" charge=0
C	-2.310864	-0.642042	0.909478	6
C	-0.937174	-0.844642	0.292268	6
N	-0.260834	0.448298	0.251268	7
C	0.944016	0.504518	-0.230252	6
C	1.698626	-0.697622	-0.755392	6
N	1.601366	1.720008	-0.274072	7
O	0.728936	2.815538	-0.217312	8
H	-2.854894	-1.590632	0.953648	1
H	-2.903174	0.067828	0.322088	1
H	-2.227484	-0.245292	1.927058	1
H	-1.059994	-1.252942	-0.716672	1
H	-0.378384	-1.560962	0.903998	1
H	1.152366	-1.141512	-1.591872	1
H	1.815716	-1.438412	0.039978	1
H	2.693646	-0.409082	-1.106212	1
H	2.355026	1.830988	-0.947692	1
H	-0.056894	2.435958	0.239698	1
Es	-0.436133	0.765901	0.370455	99
Es	-0.937126	-0.844501	0.292271	99
Es	1.600913	1.719792	-0.274656	99
Es	2.371452	-0.492081	-0.992759	99
Es	0.100451	0.495766	-0.199399	99
Es	1.769470	-1.185730	-0.221603	99
Es	0.944169	0.504614	-0.230265	99
Es	1.324806	-0.983198	-1.308927	99
Es	0.728868	2.815204	-0.217226	99
Es	-0.543996	-1.337859	0.707894	99
Es	2.025101	1.781094	-0.695929	99
Es	0.339826	2.614887	0.020411	99
Es	-2.680741	-1.296011	0.937743	99
Es	1.698598	-0.697556	-0.755371	99
Es	-1.011371	-1.125827	-0.404756	99
Es	1.290287	1.220817	-0.360644	99
Es	-1.627595	-0.746323	0.601408	99
Es	-2.712767	-0.162290	0.505484	99
Es	-0.522166	-0.125544	0.256476	99
Es	0.645732	2.866165	-0.515357	99
Es	0.867978	3.029355	-0.034256	99
Es	-2.250827	-0.376243	1.602681	99
Es	1.122030	2.302641	-0.242481	99
Es	0.310366	0.409254	0.324495	99
Es	1.336231	-0.087332	-0.491157	99
Es	1.717256	1.582641	0.023248	99
Es	-0.260550	0.447935	0.251097	99
Es	-2.310851	-0.642065	0.909468	99
45
Properties=species:S:1:pos:R:3:Z:I:1 energy=-341.10313648677595 field_type=dipole dipole="0.000000 0.000000 0.000000" charge=0
C	-2.310864	-0.642042	0.909478	6
C	-0.937174	-0.844642	0.292268	6
N	-0.260834	0.448298	0.251268	7
C	0.944016	0.504518	-0.230252	6
C	1.698626	-0.697622	-0.755392	6
N	1.601366	1.720008	-0.274072	7
O	0.728936	2.815538	-0.217312	8
H	-2.854894	-1.590632	0.953648	1
H	-2.903174	0.067828	0.322088	1
H	-2.227484	-0.245292	1.927058	1
H	-1.059994	-1.252942	-0.716672	1
H	-0.378384	-1.560962	0.903998	1
H	1.152366	-1.141512	-1.591872	1
H	1.815716	-1.438412	0.039978	1
H	2.693646	-0.409082	-1.106212	1
H	2.355026	1.830988	-0.947692	1
H	-0.056894	2.435958	0.239698	1
Es	1.718147	1.584296	0.021563	99
Es	1.600967	1.719918	-0.274587	99
Es	1.698599	-0.697556	-0.755371	99
Es	2.371512	-0.492115	-0.992798	99
Es	-1.627598	-0.746385	0.601577	99
Es	-0.260533	0.447921	0.251075	99
Es	1.290157	1.219430	-0.358251	99
Es	0.944170	0.504614	-0.230261	99
Es	0.100059	0.496067	-0.199350	99
Es	0.310641	0.409079	0.324033	99
Es	0.867410	3.028422	-0.033954	99
Es	1.324850	-0.983236	-1.308837	99
Es	1.769423	-1.185697	-0.221613	99
Es	-1.011364	-1.125824	-0.404728	99
Es	-2.680764	-1.296067	0.937782	99
Es	-2.250876	-0.376212	1.602600	99
Es	-0.543970	-1.337816	0.707800	99
Es	-2.712729	-0.162280	0.505432	99
Es	-2.310851	-0.642065	0.909468	99
Es	2.024322	1.780616	-0.696677	99
Es	-0.522714	-0.125493	0.256618	99
Es	1.336200	-0.087346	-0.491294	99
Es	1.122330	2.302709	-0.242878	99
Es	0.338914	2.614751	0.019760	99
Es	-0.435433	0.765765	0.370751	99
Es	-0.937125	-0.844502	0.292275	99
Es	0.728883	2.815197	-0.217157	99
Es	0.646785	2.867316	-0.514634	99
45
Properties=species:S:1:pos:R:3:Z:I:1 energy=-341.10313648677595 field_type=dipole dipole="0.000000 0.000000 0.000000" charge=0
C	-2.310864	-0.642042	0.909478	6
C	-0.937174	-0.844642	0.292268	6
N	-0.260834	0.448298	0.251268	7
C	0.944016	0.504518	-0.230252	6
C	1.698626	-0.697622	-0.755392	6
N	1.601366	1.720008	-0.274072	7
O	0.728936	2.815538	-0.217312	8
H	-2.854894	-1.590632	0.953648	1
H	-2.903174	0.067828	0.322088	1
H	-2.227484	-0.245292	1.927058	1
H	-1.059994	-1.252942	-0.716672	1
H	-0.378384	-1.560962	0.903998	1
H	1.152366	-1.141512	-1.591872	1
H	1.815716	-1.438412	0.039978	1
H	2.693646	-0.409082	-1.106212	1
H	2.355026	1.830988	-0.947692	1
H	-0.056894	2.435958	0.239698	1
Es	0.311374	0.409226	0.323258	99
Es	-1.627699	-0.746422	0.601327	99
Es	1.698599	-0.697557	-0.755370	99
Es	0.338885	2.615302	0.020675	99
Es	-2.712785	-0.162282	0.505550	99
Es	-2.680785	-1.295994	0.937795	99
Es	1.290265	1.219776	-0.358998	99
Es	-0.435110	0.765348	0.371458	99
Es	-0.937126	-0.844503	0.292274	99
Es	1.600897	1.719871	-0.274696	99
Es	2.371476	-0.492110	-0.992828	99
Es	-2.310851	-0.642065	0.909468	99
Es	-0.544068	-1.337722	0.707852	99
Es	-1.011248	-1.125937	-0.404710	99
Es	-0.260535	0.447937	0.251083	99
Es	1.336188	-0.087368	-0.491221	99
Es	0.728899	2.815328	-0.217251	99
Es	-0.522594	-0.125646	0.256685	99
Es	1.324892	-0.983241	-1.308803	99
Es	0.867806	3.029538	-0.035651	99
Es	0.944170	0.504613	-0.230257	99
Es	2.025474	1.780986	-0.695780	99
Es	0.646174	2.865528	-0.514070	99
Es	1.769451	-1.185729	-0.221585	99
Es	0.098906	0.496550	-0.199419	99
Es	1.122559	2.302836	-0.242453	99
Es	-2.250758	-0.376247	1.602649	99
Es	1.716953	1.583492	0.021364	99
45
Properties=species:S:1:pos:R:3:Z:I:1 energy=-341.10313648677595 field_type=dipole dipole="0.000000 0.000000 0.000000" charge=0
C	-2.310864	-0.642042	0.909478	6
C	-0.937174	-0.844642	0.292268	6
N	-0.260834	0.448298	0.251268	7
C	0.944016	0.504518	-0.230252	6
C	1.698626	-0.697622	-0.755392	6
N	1.601366	1.720008	-0.274072	7
O	0.728936	2.815538	-0.217312	8
H	-2.854894	-1.590632	0.953648	1
H	-2.903174	0.067828	0.322088	1
H	-2.227484	-0.245292	1.927058	1
H	-1.059994	-1.252942	-0.716672	1
H	-0.378384	-1.560962	0.903998	1
H	1.152366	-1.141512	-1.591872	1
H	1.815716	-1.438412	0.039978	1
H	2.693646	-0.409082	-1.106212	1
H	2.355026	1.830988	-0.947692	1
H	-0.056894	2.435958	0.239698	1
Es	-2.310850	-0.642065	0.909468	99
Es	-1.627616	-0.746462	0.601458	99
Es	0.867931	3.029701	-0.036456	99
Es	-0.937127	-0.844503	0.292274	99
Es	0.099095	0.496715	-0.199230	99
Es	1.336189	-0.087481	-0.491239	99
Es	0.645371	2.865311	-0.513951	99
Es	2.025397	1.780960	-0.695738	99
Es	1.122761	2.302889	-0.242719	99
Es	0.944173	0.504613	-0.230255	99
Es	-0.434803	0.765118	0.371058	99
Es	0.339416	2.615514	0.021638	99
Es	-0.260538	0.447937	0.251076	99
Es	-2.680776	-1.295943	0.937739	99
Es	1.324864	-0.983200	-1.308802	99
Es	-1.011285	-1.125838	-0.404647	99
Es	1.290261	1.219992	-0.359307	99
Es	-0.523018	-0.125612	0.256603	99
Es	1.716973	1.583274	0.021501	99
Es	-2.712784	-0.162282	0.505558	99
Es	-0.544011	-1.337780	0.707716	99
Es	0.728873	2.815221	-0.217180	99
Es	-2.250900	-0.376309	1.602643	99
Es	1.769426	-1.185749	-0.221591	99
Es	1.600930	1.719821	-0.274631	99
Es	1.698599	-0.697556	-0.755371	99
Es	0.311358	0.409324	0.323567	99
Es	2.371500	-0.492104	-0.992837	99
45
Properties=species:S:1:pos:R:3:Z:I:1 energy=-341.10313648677595 field_type=dipole dipole="0.000000 0.000000 0.000000" charge=0
C	-2.310864	-0.642042	0.909478	6
C	-0.937174	-0.844642	0.292268	6
N	-0.260834	0.448298	0.251268	7
C	0.944016	0.504518	-0.230252	6
C	1.698626	-0.697622	-0.755392	6
N	1.601366	1.720008	-0.274072	7
O	0.728936	2.815538	-0.217312	8
H	-2.854894	-1.590632	0.953648	1
H	-2.903174	0.067828	0.322088	1
H	-2.227484	-0.245292	1.927058	1
H	-1.059994	-1.252942	-0.716672	1
H	-0.378384	-1.560962	0.903998	1
H	1.152366	-1.141512	-1.591872	1
H	1.815716	-1.438412	0.039978	1
H	2.693646	-0.409082	-1.106212	1
H	2.355026	1.830988	-0.947692	1
H	-0.056894	2.435958	0.239698	1
Es	1.336194	-0.087503	-0.491379	99
Es	0.101012	0.496315	-0.199182	99
Es	-2.250923	-0.376317	1.602585	99
Es	-0.522827	-0.125655	0.256481	99
Es	-1.011253	-1.125841	-0.404586	99
Es	-0.543997	-1.337742	0.707648	99
Es	0.867391	3.029045	-0.035222	99
Es	0.944168	0.504613	-0.230261	99
Es	1.324769	-0.983294	-1.308751	99
Es	-1.627605	-0.746521	0.601449	99
Es	0.646251	2.866463	-0.513745	99
Es	-2.310851	-0.642065	0.909468	99
Es	2.025401	1.780902	-0.695728	99
Es	1.600901	1.719760	-0.274670	99
Es	-0.260535	0.447946	0.251084	99
Es	1.122856	2.302942	-0.242828	99
Es	2.371527	-0.492088	-0.992907	99
Es	1.290207	1.219605	-0.358722	99
Es	1.769474	-1.185639	-0.221593	99
Es	1.716999	1.583662	0.020849	99
Es	-0.435528	0.765190	0.369735	99
Es	1.698598	-0.697557	-0.755371	99
Es	-2.712804	-0.162295	0.505624	99
Es	0.728865	2.815216	-0.217121	99
Es	0.310056	0.409696	0.325051	99
Es	0.338992	2.615101	0.020386	99
Es	-0.937127	-0.844504	0.292274	99
Es	-2.680806	-1.295927	0.937777	99
45
Properties=species:S:1:pos:R:3:Z:I:1 energy=-341.10313648677595 field_type=dipole dipole="0.000000 0.000000 0.000000" charge=0
C	-2.310864	-0.642042	0.909478	6
C	-0.937174	-0.844642	0.292268	6
N	-0.260834	0.448298	0.251268	7
C	0.944016	0.504518	-0.230252	6
C	1.698626	-0.697622	-0.755392	6
N	1.601366	1.720008	-0.274072	7
O	0.728936	2.815538	-0.217312	8
H	-2.854894	-1.590632	0.953648	1
H	-2.903174	0.067828	0.322088	1
H	-2.227484	-0.245292	1.927058	1
H	-1.059994	-1.252942	-0.716672	1
H	-0.378384	-1.560962	0.903998	1
H	1.152366	-1.141512	-1.591872	1
H	1.815716	-1.438412	0.039978	1
H	2.693646	-0.409082	-1.106212	1
H	2.355026	1.830988	-0.947692	1
H	-0.056894	2.435958	0.239698	1
Es	0.099805	0.496532	-0.199015	99
Es	-2.310850	-0.642065	0.909468	99
Es	1.600919	1.719734	-0.274652	99
Es	-2.250928	-0.376312	1.602580	99
Es	0.645533	2.864543	-0.513315	99
Es	1.769433	-1.185743	-0.221596	99
Es	1.324880	-0.983220	-1.308774	99
Es	-0.260520	0.447961	0.251080	99
Es	1.698600	-0.697557	-0.755371	99
Es	-0.937127	-0.844505	0.292274	99
Es	-0.544052	-1.337758	0.707644	99
Es	1.290255	1.220253	-0.359452	99
Es	-1.627688	-0.746454	0.601443	99
Es	0.728878	2.815222	-0.217188	99
Es	0.310992	0.409516	0.324090	99
Es	-1.011195	-1.125822	-0.404561	99
Es	0.944167	0.504611	-0.230260	99
Es	-0.434822	0.765115	0.370329	99
Es	1.336183	-0.087562	-0.491320	99
Es	-2.712786	-0.162288	0.505610	99
Es	-0.523222	-0.125567	0.256648	99
Es	1.123106	2.303013	-0.241903	99
Es	0.867865	3.030392	-0.037071	99
Es	2.371494	-0.492116	-0.992855	99
Es	2.025544	1.780920	-0.695616	99
Es	-2.680795	-1.295990	0.937755	99
Es	1.716642	1.582832	0.021056	99
Es	0.339102	2.615822	0.021316	99
45
Properties=species:S:1:pos:R:3:Z:I:1 energy=-341.10313648677595 field_type=dipole dipole="0.000000 0.000000 0.000000" charge=0
C	-2.310864	-0.642042	0.909478	6
C	-0.937174	-0.844642	0.292268	6
N	-0.260834	0.448298	0.251268	7
C	0.944016	0.504518	-0.230252	6
C	1.698626	-0.697622	-0.755392	6
N	1.601366	1.720008	-0.274072	7
O	0.728936	2.815538	-0.217312	8
H	-2.854894	-1.590632	0.953648	1
H	-2.903174	0.067828	0.322088	1
H	-2.227484	-0.245292	1.927058	1
H	-1.059994	-1.252942	-0.716672	1
H	-0.378384	-1.560962	0.903998	1
H	1.152366	-1.141512	-1.591872	1
H	1.815716	-1.438412	0.039978	1
H	2.693646	-0.409082	-1.106212	1
H	2.355026	1.830988	-0.947692	1
H	-0.056894	2.435958	0.239698	1
Es	0.728884	2.815204	-0.217184	99
Es	1.716031	1.582222	0.021071	99
Es	-0.435226	0.765256	0.369636	99
Es	1.324894	-0.983210	-1.308728	99
Es	2.371517	-0.492148	-0.992883	99
Es	-0.522856	-0.125839	0.256965	99
Es	-2.310854	-0.642064	0.909468	99
Es	0.310725	0.410131	0.324169	99
Es	1.698599	-0.697557	-0.755371	99
Es	1.290376	1.220420	-0.360147	99
Es	-2.712764	-0.162307	0.505630	99
Es	-0.937126	-0.844502	0.292274	99
Es	0.100160	0.496136	-0.198820	99
Es	-0.260542	0.447960	0.251088	99
Es	-1.627739	-0.746527	0.601447	99
Es	2.026124	1.781172	-0.694993	99
Es	1.600952	1.719878	-0.274596	99
Es	-2.250957	-0.376308	1.602581	99
Es	0.644351	2.863384	-0.512717	99
Es	0.339692	2.616053	0.022442	99
Es	1.769415	-1.185758	-0.221629	99
Es	0.944169	0.504613	-0.230263	99
Es	0.868053	3.031269	-0.038419	99
Es	-0.544033	-1.337684	0.707612	99
Es	-1.011126	-1.125883	-0.404472	99
Es	1.123467	2.303121	-0.242346	99
Es	1.336068	-0.087628	-0.491239	99
Es	-2.680847	-1.295898	0.937769	99
45
Properties=species:S:1:pos:R:3:Z:I:1 energy=-341.10313648677595 field_type=dipole dipole="0.000000 0.000000 0.000000" charge=0
C	-2.310864	-0.642042	0.909478	6
C	-0.937174	-0.844642	0.292268	6
N	-0.260834	0.448298	0.251268	7
C	0.944016	0.504518	-0.230252	6
C	1.698626	-0.697622	-0.755392	6
N	1.601366	1.720008	-0.274072	7
O	0.728936	2.815538	-0.217312	8
H	-2.854894	-1.590632	0.953648	1
H	-2.903174	0.067828	0.322088	1
H	-2.227484	-0.245292	1.927058	1
H	-1.059994	-1.252942	-0.716672	1
H	-0.378384	-1.560962	0.903998	1
H	1.152366	-1.141512	-1.591872	1
H	1.815716	-1.438412	0.039978	1
H	2.693646	-0.409082	-1.106212	1
H	2.355026	1.830988	-0.947692	1
H	-0.056894	2.435958	0.239698	1
Es	0.338227	2.614927	0.018785	99
Es	0.728909	2.815294	-0.217186	99
Es	1.716421	1.583152	0.020362	99
Es	-0.434746	0.764895	0.369664	99
Es	-1.011137	-1.125850	-0.404464	99
Es	-2.310852	-0.642066	0.909468	99
Es	1.123082	2.302795	-0.243497	99
Es	-0.523233	-0.125778	0.256978	99
Es	0.099751	0.496485	-0.198826	99
Es	-0.544091	-1.337715	0.707569	99
Es	-2.712807	-0.162325	0.505647	99
Es	-0.937130	-0.844508	0.292274	99
Es	-2.250992	-0.376329	1.602584	99
Es	0.647648	2.868937	-0.513139	99
Es	-2.680814	-1.295867	0.937769	99
Es	0.866468	3.027058	-0.033342	99
Es	0.311083	0.410133	0.324176	99
Es	2.371552	-0.492121	-0.992830	99
Es	-1.627678	-0.746549	0.601414	99
Es	1.698599	-0.697557	-0.755370	99
Es	2.025827	1.780958	-0.695322	99
Es	1.324869	-0.983200	-1.308785	99
Es	0.944169	0.504613	-0.230262	99
Es	1.290279	1.219720	-0.358877	99
Es	1.600969	1.719890	-0.274572	99
Es	1.336194	-0.087700	-0.491366	99
Es	-0.260517	0.447953	0.251092	99
Es	1.769363	-1.185738	-0.221597	99
45
Properties=species:S:1:pos:R:3:Z:I:1 energy=-341.10313648677595 field_type=dipole dipole="0.000000 0.000000 0.000000" charge=0
C	-2.310864	-0.642042	0.909478	6
C	-0.937174	-0.844642	0.292268	6
N	-0.260834	0.448298	0.251268	7
C	0.944016	0.504518	-0.230252	6
C	1.698626	-0.697622	-0.755392	6
N	1.601366	1.720008	-0.274072	7
O	0.728936	2.815538	-0.217312	8
H	-2.854894	-1.590632	0.953648	1
H	-2.903174	0.067828	0.322088	1
H	-2.227484	-0.245292	1.927058	1
H	-1.059994	-1.252942	-0.716672	1
H	-0.378384	-1.560962	0.903998	1
H	1.152366	-1.141512	-1.591872	1
H	1.815716	-1.438412	0.039978	1
H	2.693646	-0.409082	-1.106212	1
H	2.355026	1.830988	-0.947692	1
H	-0.056894	2.435958	0.239698	1
Es	-2.712896	-0.162328	0.505664	99
Es	0.944169	0.504613	-0.230261	99
Es	-2.680778	-1.295853	0.937856	99
Es	0.865877	3.026469	-0.033131	99
Es	-0.260543	0.447941	0.251087	99
Es	-1.627654	-0.746622	0.601499	99
Es	-0.937129	-0.844507	0.292274	99
Es	-1.011173	-1.125885	-0.404421	99
Es	-0.544086	-1.337658	0.707431	99
Es	0.311160	0.410072	0.323712	99
Es	-0.523333	-0.125814	0.256959	99
Es	0.648945	2.869464	-0.513226	99
Es	2.025948	1.781002	-0.695135	99
Es	1.336205	-0.087750	-0.491328	99
Es	1.123460	2.302982	-0.242383	99
Es	-2.250978	-0.376342	1.602518	99
Es	1.716174	1.582519	0.020518	99
Es	-2.310852	-0.642065	0.909468	99
Es	2.371522	-0.492128	-0.992798	99
Es	1.600961	1.719895	-0.274584	99
Es	0.728890	2.815296	-0.217229	99
Es	1.290305	1.220167	-0.359470	99
Es	-0.434349	0.764680	0.370159	99
Es	1.698599	-0.697557	-0.755370	99
Es	0.337270	2.614968	0.017849	99
Es	1.324861	-0.983229	-1.308823	99
Es	0.099447	0.496893	-0.198885	99
Es	1.769387	-1.185714	-0.221603	99
45
Properties=species:S:1:pos:R:3:Z:I:1 energy=-341.10313648677595 field_type=dipole dipole="0.000000 0.000000 0.000000" charge=0
C	-2.310864	-0.642042	0.909478	6
C	-0.937174	-0.844642	0.292268	6
N	-0.260834	0.448298	0.251268	7
C	0.944016	0.504518	-0.230252	6
C	1.698626	-0.697622	-0.755392	6
N	1.601366	1.720008	-0.274072	7
O	0.728936	2.815538	-0.217312	8
H	-2.854894	-1.590632	0.953648	1
H	-2.903174	0.067828	0.322088	1
H	-2.227484	-0.245292	1.927058	1
H	-1.059994	-1.252942	-0.716672	1
H	-0.378384	-1.560962	0.903998	1
H	1.152366	-1.141512	-1.591872	1
H	1.815716	-1.438412	0.039978	1
H	2.693646	-0.409082	-1.106212	1
H	2.355026	1.830988	-0.947692	1
H	-0.056894	2.435958	0.239698	1
Es	0.646906	2.866766	-0.512543	99
Es	0.866601	3.028591	-0.035887	99
Es	-2.310853	-0.642065	0.909470	99
Es	-1.627697	-0.746599	0.601494	99
Es	1.769406	-1.185738	-0.221615	99
Es	0.944168	0.504615	-0.230261	99
Es	1.715841	1.582368	0.020337	99
Es	2.371518	-0.492146	-0.992861	99
Es	-2.712825	-0.162354	0.505663	99
Es	1.336253	-0.087790	-0.491268	99
Es	-0.434012	0.764536	0.370290	99
Es	0.338188	2.615509	0.019985	99
Es	-0.260535	0.447945	0.251080	99
Es	-1.011129	-1.125825	-0.404427	99
Es	0.099380	0.497038	-0.199016	99
Es	-2.680806	-1.295842	0.937774	99
Es	1.290348	1.220164	-0.359647	99
Es	-0.937130	-0.844505	0.292275	99
Es	0.728910	2.815206	-0.217137	99
Es	2.026227	1.781115	-0.694816	99
Es	-0.544064	-1.337686	0.707440	99
Es	1.324789	-0.983184	-1.308796	99
Es	-0.523638	-0.125740	0.257035	99
Es	1.698599	-0.697558	-0.755371	99
Es	-2.251030	-0.376331	1.602573	99
Es	0.311198	0.409956	0.323665	99
Es	1.600964	1.719870	-0.274613	99
Es	1.123832	2.303191	-0.242477	99
45
Properties=species:S:1:pos:R:3:Z:I:1 energy=-341.10313648677595 field_type=dipole dipole="0.000000 0.000000 0.000000" charge=0
C	-2.310864	-0.642042	0.909478	6
C	-0.937174	-0.844642	0.292268	6
N	-0.260834	0.448298	0.251268	7
C	0.944016	0.504518	-0.230252	6
C	1.698626	-0.697622	-0.755392	6
N	1.601366	1.720008	-0.274072	7
O	0.728936	2.815538	-0.217312	8
H	-2.854894	-1.590632	0.953648	1
H	-2.903174	0.067828	0.322088	1
H	-2.227484	-0.245292	1.927058	1
H	-1.059994	-1.252942	-0.716672	1
H	-0.378384	-1.560962	0.903998	1
H	1.152366	-1.141512	-1.591872	1
H	1.815716	-1.438412	0.039978	1
H	2.693646	-0.409082	-1.106212	1
H	2.355026	1.830988	-0.947692	1
H	-0.056894	2.435958	0.239698	1
Es	2.371513	-0.492037	-0.992803	99
Es	1.698600	-0.697559	-0.755374	99
Es	1.290349	1.220298	-0.359729	99
Es	1.336171	-0.087931	-0.491379	99
Es	-2.712809	-0.162322	0.505787	99
Es	-0.937129	-0.844506	0.292274	99
Es	2.026437	1.781137	-0.694691	99
Es	0.339284	2.616373	0.022145	99
Es	-0.260529	0.447951	0.251079	99
Es	1.769401	-1.185766	-0.221553	99
Es	0.645016	2.864830	-0.512180	99
Es	-0.544107	-1.337641	0.707427	99
Es	1.715633	1.582154	0.020230	99
Es	0.728876	2.815224	-0.217157	99
Es	-1.011077	-1.125872	-0.404369	99
Es	-2.250998	-0.376409	1.602617	99
Es	-1.627731	-0.746647	0.601369	99
Es	-2.310853	-0.642063	0.909472	99
Es	1.600943	1.719861	-0.274609	99
Es	0.098764	0.497307	-0.198839	99
Es	-0.433897	0.764301	0.370498	99
Es	1.324884	-0.983203	-1.308822	99
Es	1.123741	2.302991	-0.242650	99
Es	0.867519	3.029911	-0.038136	99
Es	-2.680867	-1.295783	0.937709	99
Es	0.311662	0.410147	0.323246	99
Es	0.944171	0.504610	-0.230255	99
Es	-0.523557	-0.125848	0.257039	99
