39
Properties=species:S:1:pos:R:3:Z:I:1 energy=-338.80723394654325 field_type=dipole dipole="0.000000 0.000000 0.000000" charge=0
C	-2.333139	0.034678	-0.894498	6
C	-1.295219	-0.351502	-0.147428	6
N	-0.034569	0.177348	-0.182078	7
C	1.098801	-0.132422	0.532012	6
N	1.234031	-1.039352	1.444612	7
C	2.343841	0.686258	0.215002	6
O	2.289971	1.559488	-0.639568	8
H	-3.298689	-0.450982	-0.791898	1
H	-2.251979	0.836488	-1.620958	1
H	-1.432499	-1.160372	0.565382	1
H	0.097831	0.936438	-0.853208	1
H	0.342041	-1.520891	1.572442	1
H	3.239581	0.424818	0.800191	1
Es	2.372025	1.067455	-0.498635	99
Es	2.000230	1.577987	-0.764754	99
Es	2.290006	1.559236	-0.639313	99
Es	-0.559728	-0.085653	-0.173239	99
Es	1.704979	0.277913	0.366307	99
Es	2.241878	1.402542	-0.147861	99
Es	2.938843	0.508181	0.607820	99
Es	-1.749460	-0.367008	-0.765712	99
Es	-1.294942	-0.351484	-0.147348	99
Es	1.233615	-1.039205	1.444318	99
Es	-1.918885	0.066990	-0.306439	99
Es	0.044076	0.608239	-0.585112	99
Es	-0.029704	0.204700	-0.048509	99
Es	1.250712	-0.848104	0.867421	99
Es	1.098710	-0.132313	0.531879	99
Es	-1.371857	-0.897590	0.339568	99
Es	1.534286	-1.114089	1.626522	99
Es	0.452990	-0.015536	0.094719	99
Es	-2.333169	0.034700	-0.894530	99
Es	1.104389	-0.474277	1.261851	99
Es	2.556949	1.709900	-0.684060	99
Es	0.688938	-1.323592	1.512883	99
Es	-2.274006	0.578668	-1.385984	99
Es	-2.981189	-0.291010	-0.825879	99
Es	-0.034084	0.176315	-0.182609	99
Es	2.343755	0.686242	0.214985	99
39
Properties=species:S:1:pos:R:3:Z:I:1 energy=-338.80723394654325 field_type=dipole dipole="0.000000 0.000000 0.000000" charge=0
C	-2.333139	0.034678	-0.894498	6
C	-1.295219	-0.351502	-0.147428	6
N	-0.034569	0.177348	-0.182078	7
C	1.098801	-0.132422	0.532012	6
N	1.234031	-1.039352	1.444612	7
C	2.343841	0.686258	0.215002	6
O	2.289971	1.559488	-0.639568	8
H	-3.298689	-0.450982	-0.791898	1
H	-2.251979	0.836488	-1.620958	1
H	-1.432499	-1.160372	0.565382	1
H	0.097831	0.936438	-0.853208	1
H	0.342041	-1.520891	1.572442	1
H	3.239581	0.424818	0.800191	1
Es	1.104727	-0.474085	1.262074	99
Es	0.688800	-1.323291	1.512734	99
Es	-1.294944	-0.351485	-0.147351	99
Es	-2.981176	-0.291157	-0.825981	99
Es	0.043600	0.610757	-0.583367	99
Es	2.373584	1.067705	-0.498274	99
Es	1.233626	-1.039207	1.444318	99
Es	1.533939	-1.114426	1.626604	99
Es	2.289973	1.559233	-0.639326	99
Es	-0.562666	-0.082026	-0.168500	99
Es	-2.273998	0.578681	-1.385976	99
Es	0.452307	-0.006598	0.107256	99
Es	1.999684	1.574991	-0.762922	99
Es	-1.371933	-0.897610	0.339705	99
Es	2.938886	0.508155	0.607869	99
Es	2.242445	1.402948	-0.147695	99
Es	2.555370	1.712275	-0.686371	99
Es	-2.333170	0.034704	-0.894529	99
Es	-1.749407	-0.366803	-0.765698	99
Es	1.250935	-0.848333	0.867203	99
Es	-1.918828	0.066904	-0.306509	99
Es	1.704897	0.277996	0.366249	99
Es	1.098711	-0.132315	0.531870	99
Es	-0.026845	0.191873	-0.067556	99
Es	-0.032915	0.174086	-0.182525	99
Es	2.343757	0.686235	0.214984	99
39
Properties=species:S:1:pos:R:3:Z:I:1 energy=-338.80723394654325 field_type=dipole dipole="0.000000 0.000000 0.000000" charge=0
C	-2.333139	0.034678	-0.894498	6
C	-1.295219	-0.351502	-0.147428	6
N	-0.034569	0.177348	-0.182078	7
C	1.098801	-0.132422	0.532012	6
N	1.234031	-1.039352	1.444612	7
C	2.343841	0.686258	0.215002	6
O	2.289971	1.559488	-0.639568	8
H	-3.298689	-0.450982	-0.791898	1
H	-2.251979	0.836488	-1.620958	1
H	-1.432499	-1.160372	0.565382	1
H	0.097831	0.936438	-0.853208	1
H	0.342041	-1.520891	1.572442	1
H	3.239581	0.424818	0.800191	1
Es	-2.274014	0.578687	-1.385996	99
Es	1.233617	-1.039204	1.444317	99
Es	-1.371922	-0.897619	0.339755	99
Es	0.688903	-1.323798	1.512987	99
Es	-0.025738	0.161869	-0.175717	99
Es	-1.918854	0.066797	-0.306377	99
Es	2.289967	1.559249	-0.639347	99
Es	0.041187	0.618332	-0.576952	99
Es	-1.294941	-0.351481	-0.147344	99
Es	1.704869	0.278203	0.366217	99
Es	2.374197	1.068266	-0.498073	99
Es	2.343757	0.686240	0.214984	99
Es	1.250948	-0.848623	0.867166	99
Es	2.938895	0.508181	0.607882	99
Es	-0.020176	0.163859	-0.120580	99
Es	1.104771	-0.474082	1.261820	99
Es	-2.981111	-0.291145	-0.826027	99
Es	-1.749408	-0.366774	-0.765779	99
Es	2.554469	1.713462	-0.688448	99
Es	1.098710	-0.132314	0.531875	99
Es	-0.569407	-0.070615	-0.155210	99
Es	2.243852	1.402987	-0.147473	99
Es	-2.333167	0.034701	-0.894532	99
Es	0.447546	0.014718	0.133963	99
Es	1.533827	-1.113854	1.626440	99
Es	1.998581	1.573167	-0.761263	99
39
Properties=species:S:1:pos:R:3:Z:I:1 energy=-338.80723394654325 field_type=dipole dipole="0.000000 0.000000 0.000000" charge=0
C	-2.333139	0.034678	-0.894498	6
C	-1.295219	-0.351502	-0.147428	6
N	-0.034569	0.177348	-0.182078	7
C	1.098801	-0.132422	0.532012	6
N	1.234031	-1.039352	1.444612	7
C	2.343841	0.686258	0.215002	6
O	2.289971	1.559488	-0.639568	8
H	-3.298689	-0.450982	-0.791898	1
H	-2.251979	0.836488	-1.620958	1
H	-1.432499	-1.160372	0.565382	1
H	0.097831	0.936438	-0.853208	1
H	0.342041	-1.520891	1.572442	1
H	3.239581	0.424818	0.800191	1
Es	1.104896	-0.473839	1.262289	99
Es	-0.032134	0.211847	-0.039021	99
Es	0.452815	-0.019289	0.089207	99
Es	0.688859	-1.323559	1.513315	99
Es	-0.033961	0.176043	-0.182750	99
Es	0.044271	0.607327	-0.585747	99
Es	1.533767	-1.114386	1.625793	99
Es	2.372971	1.067132	-0.498717	99
Es	1.704989	0.277910	0.366192	99
Es	2.555763	1.710711	-0.684684	99
Es	-1.294944	-0.351482	-0.147347	99
Es	2.343756	0.686243	0.214983	99
Es	-2.981090	-0.291110	-0.825984	99
Es	2.242539	1.402714	-0.148036	99
Es	2.289964	1.559302	-0.639411	99
Es	-2.274054	0.578585	-1.386059	99
Es	-1.749322	-0.366773	-0.765575	99
Es	-1.918950	0.067089	-0.306465	99
Es	1.250797	-0.848227	0.867324	99
Es	-1.371940	-0.897742	0.339608	99
Es	-2.333170	0.034713	-0.894513	99
Es	1.999823	1.577269	-0.763753	99
Es	1.098709	-0.132314	0.531875	99
Es	-0.557535	-0.087952	-0.176453	99
Es	2.938926	0.508201	0.607899	99
Es	1.233614	-1.039203	1.444320	99
39
Properties=species:S:1:pos:R:3:Z:I:1 energy=-338.80723394654325 field_type=dipole dipole="0.000000 0.000000 0.000000" charge=0
C	-2.333139	0.034678	-0.894498	6
C	-1.295219	-0.351502	-0.147428	6
N	-0.034569	0.177348	-0.182078	7
C	1.098801	-0.132422	0.532012	6
N	1.234031	-1.039352	1.444612	7
C	2.343841	0.686258	0.215002	6
O	2.289971	1.559488	-0.639568	8
H	-3.298689	-0.450982	-0.791898	1
H	-2.251979	0.836488	-1.620958	1
H	-1.432499	-1.160372	0.565382	1
H	0.097831	0.936438	-0.853208	1
H	0.342041	-1.520891	1.572442	1
H	3.239581	0.424818	0.800191	1
Es	2.244265	1.402876	-0.147365	99
Es	0.040496	0.620180	-0.575118	99
Es	1.533652	-1.113307	1.626027	99
Es	1.104669	-0.473889	1.261207	99
Es	-0.020186	0.152332	-0.170605	99
Es	-0.022012	0.163816	-0.136093	99
Es	1.251073	-0.849050	0.867547	99
Es	0.689000	-1.324194	1.513576	99
Es	-1.372009	-0.897649	0.339832	99
Es	1.233612	-1.039203	1.444313	99
Es	1.704924	0.278228	0.366322	99
Es	-1.294938	-0.351482	-0.147345	99
Es	-2.333168	0.034701	-0.894531	99
Es	-2.981126	-0.291024	-0.825923	99
Es	1.098711	-0.132317	0.531871	99
Es	-2.274078	0.578664	-1.385958	99
Es	2.343756	0.686244	0.214983	99
Es	2.938934	0.508200	0.607887	99
Es	1.998517	1.573292	-0.760829	99
Es	-1.749378	-0.366840	-0.765902	99
Es	0.445774	0.019580	0.139248	99
Es	-1.918695	0.066768	-0.306490	99
Es	-0.570737	-0.067678	-0.151964	99
Es	2.553846	1.713634	-0.688548	99
Es	2.289986	1.559248	-0.639331	99
Es	2.374472	1.068080	-0.498523	99
39
Properties=species:S:1:pos:R:3:Z:I:1 energy=-338.80723394654325 field_type=dipole dipole="0.000000 0.000000 0.000000" charge=0
C	-2.333139	0.034678	-0.894498	6
C	-1.295219	-0.351502	-0.147428	6
N	-0.034569	0.177348	-0.182078	7
C	1.098801	-0.132422	0.532012	6
N	1.234031	-1.039352	1.444612	7
C	2.343841	0.686258	0.215002	6
O	2.289971	1.559488	-0.639568	8
H	-3.298689	-0.450982	-0.791898	1
H	-2.251979	0.836488	-1.620958	1
H	-1.432499	-1.160372	0.565382	1
H	0.097831	0.936438	-0.853208	1
H	0.342041	-1.520891	1.572442	1
H	3.239581	0.424818	0.800191	1
Es	1.105239	-0.473839	1.261951	99
Es	0.689194	-1.324120	1.513240	99
Es	1.250849	-0.848864	0.866935	99
Es	0.036191	0.629311	-0.563444	99
Es	2.289961	1.559306	-0.639401	99
Es	2.555538	1.711645	-0.685909	99
Es	2.242109	1.402906	-0.147551	99
Es	1.233615	-1.039207	1.444315	99
Es	1.704866	0.278324	0.366569	99
Es	-1.749174	-0.366715	-0.766084	99
Es	1.533340	-1.113838	1.625899	99
Es	0.020292	0.070234	-0.197304	99
Es	2.343755	0.686244	0.214984	99
Es	-2.333167	0.034699	-0.894531	99
Es	-2.981132	-0.291010	-0.825907	99
Es	-2.274105	0.578680	-1.385916	99
Es	-1.372055	-0.897597	0.339906	99
Es	-0.033812	0.177162	-0.176985	99
Es	-1.918795	0.066555	-0.306558	99
Es	2.000378	1.575759	-0.763186	99
Es	-1.294944	-0.351483	-0.147348	99
Es	-0.576265	-0.045098	-0.130137	99
Es	1.098711	-0.132314	0.531878	99
Es	0.426727	0.056761	0.173565	99
Es	2.938976	0.508225	0.607893	99
Es	2.373064	1.067481	-0.498584	99
39
Properties=species:S:1:pos:R:3:Z:I:1 energy=-338.80723394654325 field_type=dipole dipole="0.000000 0.000000 0.000000" charge=0
C	-2.333139	0.034678	-0.894498	6
C	-1.295219	-0.351502	-0.147428	6
N	-0.034569	0.177348	-0.182078	7
C	1.098801	-0.132422	0.532012	6
N	1.234031	-1.039352	1.444612	7
C	2.343841	0.686258	0.215002	6
O	2.289971	1.559488	-0.639568	8
H	-3.298689	-0.450982	-0.791898	1
H	-2.251979	0.836488	-1.620958	1
H	-1.432499	-1.160372	0.565382	1
H	0.097831	0.936438	-0.853208	1
H	0.342041	-1.520891	1.572442	1
H	3.239581	0.424818	0.800191	1
Es	-0.558674	-0.086704	-0.174639	99
Es	0.044628	0.606623	-0.586252	99
Es	2.343755	0.686243	0.214984	99
Es	-2.981114	-0.291022	-0.826016	99
Es	0.689117	-1.324428	1.513508	99
Es	1.533478	-1.113489	1.625640	99
Es	2.242068	1.404018	-0.147720	99
Es	1.098712	-0.132317	0.531876	99
Es	1.233624	-1.039205	1.444321	99
Es	-1.294948	-0.351477	-0.147339	99
Es	2.373980	1.067593	-0.497237	99
Es	2.289943	1.559231	-0.639333	99
Es	-1.749484	-0.366781	-0.765709	99
Es	2.554924	1.712101	-0.686935	99
Es	-2.274027	0.578717	-1.385922	99
Es	-1.372057	-0.897777	0.339764	99
Es	-0.032983	0.209618	-0.048638	99
Es	2.000109	1.574277	-0.763278	99
Es	1.104515	-0.473900	1.262085	99
Es	0.452644	-0.014924	0.095550	99
Es	-1.918632	0.066864	-0.306594	99
Es	-0.032254	0.173357	-0.180791	99
Es	1.251130	-0.848197	0.867482	99
Es	2.938999	0.508180	0.607840	99
Es	1.705067	0.277907	0.366170	99
Es	-2.333159	0.034699	-0.894527	99
39
Properties=species:S:1:pos:R:3:Z:I:1 energy=-338.80723394654325 field_type=dipole dipole="0.000000 0.000000 0.000000" charge=0
C	-2.333139	0.034678	-0.894498	6
C	-1.295219	-0.351502	-0.147428	6
N	-0.034569	0.177348	-0.182078	7
C	1.098801	-0.132422	0.532012	6
N	1.234031	-1.039352	1.444612	7
C	2.343841	0.686258	0.215002	6
O	2.289971	1.559488	-0.639568	8
H	-3.298689	-0.450982	-0.791898	1
H	-2.251979	0.836488	-1.620958	1
H	-1.432499	-1.160372	0.565382	1
H	0.097831	0.936438	-0.853208	1
H	0.342041	-1.520891	1.572442	1
H	3.239581	0.424818	0.800191	1
Es	-0.571221	-0.066504	-0.150790	99
Es	-0.024198	0.166600	-0.142494	99
Es	-1.749305	-0.366777	-0.765866	99
Es	2.554849	1.711933	-0.687328	99
Es	-1.372050	-0.897708	0.339936	99
Es	2.290019	1.559244	-0.639314	99
Es	1.533396	-1.113251	1.625647	99
Es	1.250801	-0.848644	0.867097	99
Es	2.373509	1.067659	-0.497815	99
Es	2.343756	0.686248	0.214978	99
Es	0.689138	-1.324368	1.513839	99
Es	1.104865	-0.474128	1.261860	99
Es	0.445053	0.020937	0.140812	99
Es	-0.016897	0.146698	-0.167302	99
Es	-2.333163	0.034693	-0.894536	99
Es	1.233611	-1.039211	1.444322	99
Es	1.705036	0.278175	0.366334	99
Es	2.242708	1.403716	-0.147383	99
Es	-2.274072	0.578626	-1.385977	99
Es	2.939029	0.508186	0.607823	99
Es	1.999961	1.574602	-0.762714	99
Es	-1.918661	0.066784	-0.306564	99
Es	0.040553	0.620503	-0.574880	99
Es	1.098711	-0.132317	0.531878	99
Es	-2.981124	-0.291005	-0.825932	99
Es	-1.294946	-0.351481	-0.147344	99
39
Properties=species:S:1:pos:R:3:Z:I:1 energy=-338.80723394654325 field_type=dipole dipole="0.000000 0.000000 0.000000" charge=0
C	-2.333139	0.034678	-0.894498	6
C	-1.295219	-0.351502	-0.147428	6
N	-0.034569	0.177348	-0.182078	7
C	1.098801	-0.132422	0.532012	6
N	1.234031	-1.039352	1.444612	7
C	2.343841	0.686258	0.215002	6
O	2.289971	1.559488	-0.639568	8
H	-3.298689	-0.450982	-0.791898	1
H	-2.251979	0.836488	-1.620958	1
H	-1.432499	-1.160372	0.565382	1
H	0.097831	0.936438	-0.853208	1
H	0.342041	-1.520891	1.572442	1
H	3.239581	0.424818	0.800191	1
Es	-2.333163	0.034698	-0.894534	99
Es	-1.294945	-0.351485	-0.147350	99
Es	-0.572215	-0.063932	-0.148063	99
Es	1.533267	-1.113388	1.625515	99
Es	1.705012	0.278219	0.366330	99
Es	-1.372028	-0.897805	0.339822	99
Es	-0.024051	0.165160	-0.147577	99
Es	0.040373	0.621009	-0.574342	99
Es	1.233624	-1.039203	1.444320	99
Es	1.250847	-0.848708	0.867117	99
Es	1.105029	-0.474028	1.261902	99
Es	1.098712	-0.132316	0.531876	99
Es	0.689093	-1.324355	1.513843	99
Es	-2.274109	0.578592	-1.386005	99
Es	2.373706	1.067405	-0.498687	99
Es	2.290086	1.559234	-0.639279	99
Es	-2.981077	-0.291045	-0.825963	99
Es	2.554781	1.710911	-0.685025	99
Es	2.939005	0.508248	0.607896	99
Es	2.343755	0.686242	0.214985	99
Es	2.242114	1.403038	-0.147412	99
Es	-1.918902	0.066802	-0.306496	99
Es	2.000400	1.576510	-0.764224	99
Es	-0.014913	0.142589	-0.168065	99
Es	0.444052	0.023467	0.143488	99
Es	-1.749092	-0.366650	-0.765783	99
