39
Properties=species:S:1:pos:R:3:Z:I:1 energy=-338.84075322489457 field_type=dipole dipole="0.000000 0.000000 0.000000" charge=0
C	-0.884553	-1.426163	-0.652364	6
C	0.511167	-0.942223	-0.302884	6
N	0.562867	0.498867	-0.180894	7
C	0.222957	1.148367	0.990716	6
O	-0.106883	0.570457	2.020566	8
C	0.269277	2.607017	0.950366	6
N	0.322417	3.765477	0.858876	7
H	-0.894723	-2.515013	-0.760864	1
H	-1.227043	-0.983613	-1.593724	1
H	-1.604903	-1.152623	0.125546	1
H	1.217667	-1.227783	-1.088484	1
H	0.840937	-1.395713	0.637836	1
H	0.770817	1.052947	-1.004694	1
Es	-1.365022	-1.238273	-0.126765	99
Es	0.223013	1.148509	0.990552	99
Es	0.339441	4.128559	0.831987	99
Es	-1.109044	-1.120762	-1.296387	99
Es	0.734653	-1.241062	0.326845	99
Es	0.222747	0.732964	0.139395	99
Es	-0.103194	0.267179	1.968153	99
Es	0.529886	-0.094656	-0.227315	99
Es	0.269258	2.606645	0.950406	99
Es	0.246314	0.772366	1.734781	99
Es	-0.106798	0.570585	2.020297	99
Es	-0.882408	-2.165169	-0.725876	99
Es	0.989749	-1.126579	-0.842512	99
Es	0.672768	0.824730	-0.669333	99
Es	0.593550	3.188868	0.970142	99
Es	-0.884513	-1.426156	-0.652366	99
Es	-0.167334	0.763640	2.249259	99
Es	0.211919	3.208290	0.605543	99
Es	0.562652	0.498916	-0.180866	99
Es	0.087316	3.251765	1.124008	99
Es	-0.187619	-1.175163	-0.476363	99
Es	0.511141	-0.941997	-0.302894	99
Es	0.322396	3.765007	0.858911	99
Es	0.251721	1.926145	0.955041	99
Es	-0.230276	0.790001	1.594028	99
Es	0.760534	0.655468	0.149353	99
39
Properties=species:S:1:pos:R:3:Z:I:1 energy=-338.84075322489457 field_type=dipole dipole="0.000000 0.000000 0.000000" charge=0
C	-0.884553	-1.426163	-0.652364	6
C	0.511167	-0.942223	-0.302884	6
N	0.562867	0.498867	-0.180894	7
C	0.222957	1.148367	0.990716	6
O	-0.106883	0.570457	2.020566	8
C	0.269277	2.607017	0.950366	6
N	0.322417	3.765477	0.858876	7
H	-0.894723	-2.515013	-0.760864	1
H	-1.227043	-0.983613	-1.593724	1
H	-1.604903	-1.152623	0.125546	1
H	1.217667	-1.227783	-1.088484	1
H	0.840937	-1.395713	0.637836	1
H	0.770817	1.052947	-1.004694	1
Es	-0.106805	0.570599	2.020301	99
Es	-0.187527	-1.175050	-0.476408	99
Es	-0.166319	0.763794	2.248780	99
Es	0.511144	-0.942001	-0.302893	99
Es	-1.109049	-1.120716	-1.296292	99
Es	0.496943	3.214588	1.134450	99
Es	0.222932	0.734397	0.141166	99
Es	-0.004544	3.220917	0.955602	99
Es	0.989651	-1.126526	-0.842536	99
Es	0.759969	0.653709	0.147624	99
Es	-0.884514	-1.426156	-0.652366	99
Es	0.337664	4.128405	0.833624	99
Es	0.253097	1.926070	0.954560	99
Es	0.245907	0.772801	1.733769	99
Es	-0.231409	0.789739	1.594620	99
Es	0.734650	-1.241244	0.326841	99
Es	0.528788	-0.094500	-0.227617	99
Es	-0.882414	-2.165181	-0.725985	99
Es	-1.365040	-1.238334	-0.126765	99
Es	0.269277	2.606660	0.950406	99
Es	0.223028	1.148510	0.990550	99
Es	0.674262	0.824943	-0.669056	99
Es	-0.102694	0.266819	1.969005	99
Es	0.322396	3.765007	0.858910	99
Es	0.400866	3.213643	0.608575	99
Es	0.562591	0.498926	-0.180841	99
39
Properties=species:S:1:pos:R:3:Z:I:1 energy=-338.84075322489457 field_type=dipole dipole="0.000000 0.000000 0.000000" charge=0
C	-0.884553	-1.426163	-0.652364	6
C	0.511167	-0.942223	-0.302884	6
N	0.562867	0.498867	-0.180894	7
C	0.222957	1.148367	0.990716	6
O	-0.106883	0.570457	2.020566	8
C	0.269277	2.607017	0.950366	6
N	0.322417	3.765477	0.858876	7
H	-0.894723	-2.515013	-0.760864	1
H	-1.227043	-0.983613	-1.593724	1
H	-1.604903	-1.152623	0.125546	1
H	1.217667	-1.227783	-1.088484	1
H	0.840937	-1.395713	0.637836	1
H	0.770817	1.052947	-1.004694	1
Es	0.322395	3.765015	0.858914	99
Es	-0.167886	0.762062	2.250053	99
Es	0.989686	-1.126556	-0.842406	99
Es	-1.109062	-1.120826	-1.296407	99
Es	0.269262	2.606660	0.950397	99
Es	-0.187563	-1.175091	-0.476316	99
Es	0.530344	-0.094830	-0.227302	99
Es	0.223031	1.148506	0.990564	99
Es	-1.365060	-1.238328	-0.126920	99
Es	0.511144	-0.942001	-0.302894	99
Es	-0.884514	-1.426156	-0.652367	99
Es	0.221465	0.731460	0.134394	99
Es	0.246171	0.773458	1.735105	99
Es	0.675099	0.824640	-0.668831	99
Es	0.372680	3.214204	0.600130	99
Es	-0.882402	-2.165162	-0.725816	99
Es	0.758834	0.657294	0.153684	99
Es	0.562742	0.498919	-0.180833	99
Es	0.518641	3.209004	1.113575	99
Es	0.734701	-1.241091	0.326859	99
Es	-0.230656	0.790154	1.594244	99
Es	-0.102065	0.267440	1.966829	99
Es	-0.106785	0.570619	2.020261	99
Es	0.001900	3.226045	0.984926	99
Es	0.252723	1.926085	0.954468	99
Es	0.338024	4.128297	0.833713	99
39
Properties=species:S:1:pos:R:3:Z:I:1 energy=-338.84075322489457 field_type=dipole dipole="0.000000 0.000000 0.000000" charge=0
C	-0.884553	-1.426163	-0.652364	6
C	0.511167	-0.942223	-0.302884	6
N	0.562867	0.498867	-0.180894	7
C	0.222957	1.148367	0.990716	6
O	-0.106883	0.570457	2.020566	8
C	0.269277	2.607017	0.950366	6
N	0.322417	3.765477	0.858876	7
H	-0.894723	-2.515013	-0.760864	1
H	-1.227043	-0.983613	-1.593724	1
H	-1.604903	-1.152623	0.125546	1
H	1.217667	-1.227783	-1.088484	1
H	0.840937	-1.395713	0.637836	1
H	0.770817	1.052947	-1.004694	1
Es	-0.884514	-1.426156	-0.652366	99
Es	0.269256	2.606658	0.950399	99
Es	-0.187583	-1.175134	-0.476293	99
Es	0.529950	-0.094785	-0.227412	99
Es	0.247132	0.772084	1.736626	99
Es	0.060505	3.199063	0.708735	99
Es	0.511143	-0.941999	-0.302893	99
Es	-1.109032	-1.120839	-1.296365	99
Es	0.222255	0.732565	0.137491	99
Es	0.580956	3.193448	0.786579	99
Es	-0.167721	0.762117	2.249033	99
Es	0.989691	-1.126584	-0.842474	99
Es	0.673528	0.824633	-0.668961	99
Es	0.252848	1.926130	0.955968	99
Es	0.251412	3.257133	1.204713	99
Es	0.322394	3.765021	0.858904	99
Es	0.223015	1.148510	0.990550	99
Es	0.338226	4.127841	0.830699	99
Es	-1.365042	-1.238233	-0.126889	99
Es	0.734701	-1.241088	0.326751	99
Es	0.562837	0.498898	-0.180840	99
Es	-0.104143	0.267224	1.967093	99
Es	0.759974	0.656148	0.150961	99
Es	-0.882476	-2.165187	-0.725822	99
Es	-0.106775	0.570589	2.020246	99
Es	-0.229688	0.791764	1.593588	99
39
Properties=species:S:1:pos:R:3:Z:I:1 energy=-338.84075322489457 field_type=dipole dipole="0.000000 0.000000 0.000000" charge=0
C	-0.884553	-1.426163	-0.652364	6
C	0.511167	-0.942223	-0.302884	6
N	0.562867	0.498867	-0.180894	7
C	0.222957	1.148367	0.990716	6
O	-0.106883	0.570457	2.020566	8
C	0.269277	2.607017	0.950366	6
N	0.322417	3.765477	0.858876	7
H	-0.894723	-2.515013	-0.760864	1
H	-1.227043	-0.983613	-1.593724	1
H	-1.604903	-1.152623	0.125546	1
H	1.217667	-1.227783	-1.088484	1
H	0.840937	-1.395713	0.637836	1
H	0.770817	1.052947	-1.004694	1
Es	-1.109073	-1.120846	-1.296329	99
Es	0.222401	0.732902	0.137632	99
Es	-0.167241	0.762718	2.248856	99
Es	0.463910	3.210326	0.639329	99
Es	-0.882451	-2.165151	-0.725869	99
Es	-1.365062	-1.238294	-0.126864	99
Es	0.989712	-1.126530	-0.842422	99
Es	0.337202	4.127781	0.832649	99
Es	0.759896	0.655744	0.150784	99
Es	0.223015	1.148509	0.990551	99
Es	0.269260	2.606660	0.950402	99
Es	0.734729	-1.241084	0.326708	99
Es	0.322397	3.765023	0.858908	99
Es	0.674057	0.824657	-0.668896	99
Es	-0.230657	0.790576	1.594242	99
Es	0.511142	-0.942000	-0.302893	99
Es	-0.103168	0.266998	1.967972	99
Es	0.246635	0.772885	1.735179	99
Es	-0.884514	-1.426157	-0.652367	99
Es	-0.008761	3.210486	0.884814	99
Es	0.253534	1.926062	0.954940	99
Es	0.529407	-0.094766	-0.227455	99
Es	0.438100	3.228958	1.175040	99
Es	-0.106792	0.570605	2.020299	99
Es	-0.187577	-1.175162	-0.476355	99
Es	0.562746	0.498919	-0.180833	99
39
Properties=species:S:1:pos:R:3:Z:I:1 energy=-338.84075322489457 field_type=dipole dipole="0.000000 0.000000 0.000000" charge=0
C	-0.884553	-1.426163	-0.652364	6
C	0.511167	-0.942223	-0.302884	6
N	0.562867	0.498867	-0.180894	7
C	0.222957	1.148367	0.990716	6
O	-0.106883	0.570457	2.020566	8
C	0.269277	2.607017	0.950366	6
N	0.322417	3.765477	0.858876	7
H	-0.894723	-2.515013	-0.760864	1
H	-1.227043	-0.983613	-1.593724	1
H	-1.604903	-1.152623	0.125546	1
H	1.217667	-1.227783	-1.088484	1
H	0.840937	-1.395713	0.637836	1
H	0.770817	1.052947	-1.004694	1
Es	-0.228575	0.790523	1.592551	99
Es	-1.365053	-1.238306	-0.126937	99
Es	0.208796	3.208358	0.605185	99
Es	0.989709	-1.126557	-0.842426	99
Es	-0.187544	-1.175180	-0.476245	99
Es	-0.106781	0.570590	2.020255	99
Es	0.247055	0.773900	1.738325	99
Es	-0.171135	0.760505	2.250517	99
Es	0.562743	0.498914	-0.180841	99
Es	0.251598	1.926165	0.955077	99
Es	0.594569	3.188924	0.966852	99
Es	0.511144	-0.942002	-0.302893	99
Es	0.222283	0.732642	0.137038	99
Es	0.322397	3.765008	0.858910	99
Es	0.734747	-1.241044	0.326661	99
Es	-0.882509	-2.165116	-0.725823	99
Es	0.269230	2.606651	0.950390	99
Es	0.674172	0.824676	-0.668810	99
Es	0.529301	-0.094710	-0.227584	99
Es	0.759984	0.655935	0.151439	99
Es	0.339486	4.127451	0.831833	99
Es	0.223008	1.148510	0.990548	99
Es	-0.101694	0.268240	1.964933	99
Es	-1.109094	-1.120875	-1.296354	99
Es	0.089525	3.252774	1.127789	99
Es	-0.884514	-1.426157	-0.652366	99
39
Properties=species:S:1:pos:R:3:Z:I:1 energy=-338.84075322489457 field_type=dipole dipole="0.000000 0.000000 0.000000" charge=0
C	-0.884553	-1.426163	-0.652364	6
C	0.511167	-0.942223	-0.302884	6
N	0.562867	0.498867	-0.180894	7
C	0.222957	1.148367	0.990716	6
O	-0.106883	0.570457	2.020566	8
C	0.269277	2.607017	0.950366	6
N	0.322417	3.765477	0.858876	7
H	-0.894723	-2.515013	-0.760864	1
H	-1.227043	-0.983613	-1.593724	1
H	-1.604903	-1.152623	0.125546	1
H	1.217667	-1.227783	-1.088484	1
H	0.840937	-1.395713	0.637836	1
H	0.770817	1.052947	-1.004694	1
Es	0.419798	3.213258	0.615388	99
Es	0.989767	-1.126515	-0.842307	99
Es	-0.008297	3.217996	0.935391	99
Es	0.322401	3.765039	0.858905	99
Es	-0.884515	-1.426156	-0.652367	99
Es	0.337433	4.127429	0.833449	99
Es	-0.106793	0.570654	2.020291	99
Es	-0.882511	-2.165123	-0.725901	99
Es	-1.109102	-1.120804	-1.296308	99
Es	0.222388	0.732782	0.137282	99
Es	0.481866	3.218868	1.147828	99
Es	-0.103918	0.266762	1.970918	99
Es	-0.166626	0.764977	2.247117	99
Es	0.734746	-1.240995	0.326665	99
Es	0.511145	-0.942005	-0.302893	99
Es	-1.365015	-1.238310	-0.126832	99
Es	-0.187585	-1.175332	-0.476415	99
Es	0.253186	1.926090	0.954756	99
Es	0.223014	1.148510	0.990548	99
Es	0.529274	-0.094735	-0.227554	99
Es	0.760270	0.655934	0.151127	99
Es	0.673824	0.824573	-0.668841	99
Es	0.562690	0.498929	-0.180834	99
Es	0.269260	2.606661	0.950402	99
Es	-0.230577	0.789487	1.593565	99
Es	0.246727	0.771846	1.734643	99
39
Properties=species:S:1:pos:R:3:Z:I:1 energy=-338.84075322489457 field_type=dipole dipole="0.000000 0.000000 0.000000" charge=0
C	-0.884553	-1.426163	-0.652364	6
C	0.511167	-0.942223	-0.302884	6
N	0.562867	0.498867	-0.180894	7
C	0.222957	1.148367	0.990716	6
O	-0.106883	0.570457	2.020566	8
C	0.269277	2.607017	0.950366	6
N	0.322417	3.765477	0.858876	7
H	-0.894723	-2.515013	-0.760864	1
H	-1.227043	-0.983613	-1.593724	1
H	-1.604903	-1.152623	0.125546	1
H	1.217667	-1.227783	-1.088484	1
H	0.840937	-1.395713	0.637836	1
H	0.770817	1.052947	-1.004694	1
Es	0.562539	0.498930	-0.180877	99
Es	0.248700	3.211029	0.595183	99
Es	-1.365013	-1.238228	-0.126965	99
Es	0.989718	-1.126564	-0.842308	99
Es	-0.882638	-2.165073	-0.725743	99
Es	0.223020	1.148510	0.990552	99
Es	0.511144	-0.942002	-0.302893	99
Es	-0.884512	-1.426156	-0.652365	99
Es	0.760543	0.655533	0.150174	99
Es	-1.109118	-1.120944	-1.296369	99
Es	-0.104360	0.266985	1.969204	99
Es	0.222477	0.733232	0.138287	99
Es	0.673600	0.824478	-0.668786	99
Es	0.269248	2.606656	0.950407	99
Es	-0.106836	0.570573	2.020360	99
Es	0.247049	0.771751	1.735753	99
Es	-0.229805	0.790585	1.593419	99
Es	0.584089	3.191860	1.006785	99
Es	0.529288	-0.094693	-0.227644	99
Es	0.339572	4.127140	0.832698	99
Es	0.734793	-1.240962	0.326629	99
Es	-0.167237	0.763849	2.247815	99
Es	-0.187482	-1.175345	-0.476302	99
Es	0.251796	1.926178	0.954925	99
Es	0.059879	3.247490	1.097175	99
Es	0.322396	3.765007	0.858911	99
39
Properties=species:S:1:pos:R:3:Z:I:1 energy=-338.84075322489457 field_type=dipole dipole="0.000000 0.000000 0.000000" charge=0
C	-0.884553	-1.426163	-0.652364	6
C	0.511167	-0.942223	-0.302884	6
N	0.562867	0.498867	-0.180894	7
C	0.222957	1.148367	0.990716	6
O	-0.106883	0.570457	2.020566	8
C	0.269277	2.607017	0.950366	6
N	0.322417	3.765477	0.858876	7
H	-0.894723	-2.515013	-0.760864	1
H	-1.227043	-0.983613	-1.593724	1
H	-1.604903	-1.152623	0.125546	1
H	1.217667	-1.227783	-1.088484	1
H	0.840937	-1.395713	0.637836	1
H	0.770817	1.052947	-1.004694	1
Es	0.246822	0.773546	1.736047	99
Es	-0.230755	0.790698	1.593875	99
Es	0.989749	-1.126533	-0.842292	99
Es	0.734788	-1.240965	0.326587	99
Es	0.221735	0.731622	0.134694	99
Es	-0.010520	3.213754	0.906422	99
Es	0.458507	3.224678	1.164174	99
Es	-0.106793	0.570645	2.020298	99
Es	0.511145	-0.941998	-0.302893	99
Es	0.674185	0.824500	-0.668572	99
Es	0.760194	0.657071	0.153572	99
Es	0.445740	3.212086	0.628011	99
Es	0.562642	0.498949	-0.180816	99
Es	-0.882503	-2.165102	-0.725870	99
Es	0.529686	-0.094680	-0.227692	99
Es	-1.364992	-1.238382	-0.126892	99
Es	0.269257	2.606660	0.950403	99
Es	0.223018	1.148509	0.990553	99
Es	0.336910	4.127066	0.833252	99
Es	-1.109170	-1.120808	-1.296332	99
Es	0.322396	3.765005	0.858910	99
Es	-0.187617	-1.175314	-0.476316	99
Es	-0.884513	-1.426156	-0.652366	99
Es	-0.168429	0.760620	2.250392	99
Es	0.253399	1.926114	0.954941	99
Es	-0.102033	0.268235	1.965933	99
