39
Properties=species:S:1:pos:R:3:Z:I:1 energy=-338.7655582941981 field_type=dipole dipole="0.000000 0.000000 0.000000" charge=0
C	-0.623904	-2.092331	0.579731	6
C	-1.005584	-0.811191	0.490311	6
N	-0.197774	0.244628	0.096021	7
C	-0.690294	1.558428	0.095681	6
O	-0.088564	2.606478	-0.116089	8
N	1.127456	-0.066732	-0.140289	7
C	1.838716	0.717588	-0.876579	6
H	-1.322804	-2.858032	0.897111	1
H	0.387566	-2.407542	0.344651	1
H	-2.032404	-0.556651	0.739371	1
H	-1.766794	1.586879	0.336641	1
H	2.902496	0.475419	-1.029259	1
H	1.471886	1.603059	-1.417299	1
Es	-0.320129	0.322710	-0.083109	99
Es	-0.284437	2.836520	-0.084585	99
Es	-0.088674	2.606225	-0.116049	99
Es	1.127175	-0.066172	-0.140555	99
Es	0.209562	2.566527	-0.186191	99
Es	-0.690202	1.558235	0.095682	99
Es	1.597185	1.298615	-1.236857	99
Es	1.479527	0.435749	-0.220757	99
Es	-0.899762	-1.516302	0.221808	99
Es	-1.098912	-2.604983	0.794651	99
Es	0.445528	0.127409	-0.030025	99
Es	-0.343344	2.220591	-0.291369	99
Es	2.550884	0.552837	-0.977198	99
Es	-1.005525	-0.810912	0.490248	99
Es	-0.532575	-0.197328	0.303562	99
Es	-0.351907	0.793662	0.200725	99
Es	1.838728	0.717562	-0.876542	99
Es	-0.723317	-1.415865	0.847169	99
Es	1.236593	-0.376759	0.024939	99
Es	0.046586	-2.309655	0.422957	99
Es	-1.422443	1.553132	0.263877	99
Es	-0.227090	2.257141	0.195488	99
Es	-1.692608	-0.613088	0.652164	99
Es	-0.623908	-2.092363	0.579741	99
Es	1.341955	0.129085	-0.691562	99
Es	-0.197634	0.244695	0.096321	99
39
Properties=species:S:1:pos:R:3:Z:I:1 energy=-338.7655582941981 field_type=dipole dipole="0.000000 0.000000 0.000000" charge=0
C	-0.623904	-2.092331	0.579731	6
C	-1.005584	-0.811191	0.490311	6
N	-0.197774	0.244628	0.096021	7
C	-0.690294	1.558428	0.095681	6
O	-0.088564	2.606478	-0.116089	8
N	1.127456	-0.066732	-0.140289	7
C	1.838716	0.717588	-0.876579	6
H	-1.322804	-2.858032	0.897111	1
H	0.387566	-2.407542	0.344651	1
H	-2.032404	-0.556651	0.739371	1
H	-1.766794	1.586879	0.336641	1
H	2.902496	0.475419	-1.029259	1
H	1.471886	1.603059	-1.417299	1
Es	-0.690207	1.558233	0.095667	99
Es	-0.899783	-1.516313	0.221823	99
Es	-0.285096	2.835256	-0.084907	99
Es	1.341942	0.128796	-0.691539	99
Es	2.550884	0.552782	-0.977214	99
Es	1.127184	-0.066161	-0.140566	99
Es	-1.422429	1.553188	0.263956	99
Es	0.046599	-2.309735	0.422899	99
Es	-1.692644	-0.613076	0.652221	99
Es	-0.197642	0.244961	0.096927	99
Es	-0.345563	0.786113	0.214005	99
Es	-0.226991	2.257329	0.195851	99
Es	-0.623909	-2.092363	0.579741	99
Es	1.597189	1.298666	-1.236835	99
Es	1.236508	-0.376550	0.024960	99
Es	0.210034	2.567812	-0.186673	99
Es	-0.088719	2.606188	-0.116050	99
Es	-0.343159	2.220417	-0.290967	99
Es	-0.723248	-1.415853	0.847117	99
Es	-0.327094	0.329664	-0.098388	99
Es	-1.098902	-2.604898	0.794712	99
Es	1.838727	0.717561	-0.876542	99
Es	-1.005526	-0.810912	0.490247	99
Es	1.479641	0.435698	-0.220817	99
Es	-0.531850	-0.196964	0.303799	99
Es	0.445307	0.127427	-0.028895	99
39
Properties=species:S:1:pos:R:3:Z:I:1 energy=-338.7655582941981 field_type=dipole dipole="0.000000 0.000000 0.000000" charge=0
C	-0.623904	-2.092331	0.579731	6
C	-1.005584	-0.811191	0.490311	6
N	-0.197774	0.244628	0.096021	7
C	-0.690294	1.558428	0.095681	6
O	-0.088564	2.606478	-0.116089	8
N	1.127456	-0.066732	-0.140289	7
C	1.838716	0.717588	-0.876579	6
H	-1.322804	-2.858032	0.897111	1
H	0.387566	-2.407542	0.344651	1
H	-2.032404	-0.556651	0.739371	1
H	-1.766794	1.586879	0.336641	1
H	2.902496	0.475419	-1.029259	1
H	1.471886	1.603059	-1.417299	1
Es	-1.422476	1.553196	0.263870	99
Es	-0.325232	0.326676	-0.093833	99
Es	-0.284245	2.836234	-0.085481	99
Es	-0.531593	-0.196551	0.304864	99
Es	1.597096	1.298680	-1.236865	99
Es	2.550918	0.552757	-0.977239	99
Es	-0.088694	2.606199	-0.116044	99
Es	-0.227007	2.257537	0.196335	99
Es	-0.343404	2.220479	-0.290640	99
Es	-0.347733	0.788865	0.209184	99
Es	1.127190	-0.066176	-0.140559	99
Es	-1.098955	-2.604975	0.794699	99
Es	0.046640	-2.309644	0.423001	99
Es	-0.723293	-1.415793	0.846903	99
Es	0.209412	2.566554	-0.186905	99
Es	-0.623916	-2.092364	0.579717	99
Es	1.342101	0.128701	-0.691426	99
Es	-0.690205	1.558232	0.095676	99
Es	-1.692719	-0.613091	0.652214	99
Es	-1.005526	-0.810913	0.490252	99
Es	1.479740	0.435621	-0.220762	99
Es	-0.899673	-1.516371	0.221980	99
Es	1.236476	-0.376264	0.024829	99
Es	1.838727	0.717561	-0.876544	99
Es	0.445231	0.127325	-0.029339	99
Es	-0.197604	0.244796	0.096642	99
39
Properties=species:S:1:pos:R:3:Z:I:1 energy=-338.7655582941981 field_type=dipole dipole="0.000000 0.000000 0.000000" charge=0
C	-0.623904	-2.092331	0.579731	6
C	-1.005584	-0.811191	0.490311	6
N	-0.197774	0.244628	0.096021	7
C	-0.690294	1.558428	0.095681	6
O	-0.088564	2.606478	-0.116089	8
N	1.127456	-0.066732	-0.140289	7
C	1.838716	0.717588	-0.876579	6
H	-1.322804	-2.858032	0.897111	1
H	0.387566	-2.407542	0.344651	1
H	-2.032404	-0.556651	0.739371	1
H	-1.766794	1.586879	0.336641	1
H	2.902496	0.475419	-1.029259	1
H	1.471886	1.603059	-1.417299	1
Es	-0.723303	-1.415927	0.847226	99
Es	-1.098878	-2.605024	0.794570	99
Es	-1.422541	1.553164	0.263936	99
Es	1.236495	-0.376501	0.024289	99
Es	-0.321546	0.320383	-0.087192	99
Es	-0.088763	2.606156	-0.116021	99
Es	-0.287832	2.832193	-0.084680	99
Es	0.046539	-2.309637	0.422897	99
Es	-0.623908	-2.092362	0.579742	99
Es	0.210480	2.572181	-0.186651	99
Es	-0.351965	0.793697	0.199609	99
Es	-0.197712	0.245106	0.097037	99
Es	2.550943	0.552709	-0.977227	99
Es	-0.531164	-0.195465	0.307032	99
Es	-1.005524	-0.810909	0.490252	99
Es	0.445362	0.127403	-0.028937	99
Es	1.597165	1.298655	-1.236849	99
Es	1.341996	0.129238	-0.691288	99
Es	1.127191	-0.066203	-0.140525	99
Es	1.838728	0.717562	-0.876544	99
Es	1.479819	0.435516	-0.220480	99
Es	-0.341327	2.220238	-0.291606	99
Es	-0.899619	-1.516192	0.221933	99
Es	-0.226455	2.256199	0.196195	99
Es	-0.690205	1.558236	0.095672	99
Es	-1.692723	-0.613147	0.652141	99
39
Properties=species:S:1:pos:R:3:Z:I:1 energy=-338.7655582941981 field_type=dipole dipole="0.000000 0.000000 0.000000" charge=0
C	-0.623904	-2.092331	0.579731	6
C	-1.005584	-0.811191	0.490311	6
N	-0.197774	0.244628	0.096021	7
C	-0.690294	1.558428	0.095681	6
O	-0.088564	2.606478	-0.116089	8
N	1.127456	-0.066732	-0.140289	7
C	1.838716	0.717588	-0.876579	6
H	-1.322804	-2.858032	0.897111	1
H	0.387566	-2.407542	0.344651	1
H	-2.032404	-0.556651	0.739371	1
H	-1.766794	1.586879	0.336641	1
H	2.902496	0.475419	-1.029259	1
H	1.471886	1.603059	-1.417299	1
Es	-0.227538	2.256613	0.196422	99
Es	-1.422527	1.553213	0.263893	99
Es	-0.723330	-1.415975	0.846864	99
Es	-0.285180	2.834716	-0.085362	99
Es	1.127177	-0.066167	-0.140561	99
Es	0.046604	-2.309638	0.422961	99
Es	-0.324419	0.323175	-0.091723	99
Es	-1.005525	-0.810910	0.490249	99
Es	1.236262	-0.376298	0.024033	99
Es	-1.098938	-2.604993	0.794689	99
Es	0.445225	0.127042	-0.029489	99
Es	-0.088680	2.606194	-0.116044	99
Es	-0.899542	-1.516146	0.222019	99
Es	1.838725	0.717558	-0.876542	99
Es	1.480039	0.435385	-0.220108	99
Es	1.342121	0.129155	-0.691412	99
Es	1.597101	1.298635	-1.236904	99
Es	0.209913	2.568428	-0.186312	99
Es	-0.623909	-2.092363	0.579739	99
Es	-0.530635	-0.195210	0.307417	99
Es	2.550944	0.552721	-0.977240	99
Es	-0.690204	1.558233	0.095674	99
Es	-0.349589	0.791138	0.204699	99
Es	-0.342380	2.221016	-0.291455	99
Es	-0.197620	0.244873	0.096793	99
Es	-1.692842	-0.613126	0.652231	99
39
Properties=species:S:1:pos:R:3:Z:I:1 energy=-338.7655582941981 field_type=dipole dipole="0.000000 0.000000 0.000000" charge=0
C	-0.623904	-2.092331	0.579731	6
C	-1.005584	-0.811191	0.490311	6
N	-0.197774	0.244628	0.096021	7
C	-0.690294	1.558428	0.095681	6
O	-0.088564	2.606478	-0.116089	8
N	1.127456	-0.066732	-0.140289	7
C	1.838716	0.717588	-0.876579	6
H	-1.322804	-2.858032	0.897111	1
H	0.387566	-2.407542	0.344651	1
H	-2.032404	-0.556651	0.739371	1
H	-1.766794	1.586879	0.336641	1
H	2.902496	0.475419	-1.029259	1
H	1.471886	1.603059	-1.417299	1
Es	-0.690205	1.558234	0.095672	99
Es	2.550974	0.552687	-0.977248	99
Es	-1.005526	-0.810916	0.490247	99
Es	-0.623909	-2.092362	0.579740	99
Es	-0.550963	-0.210922	0.244496	99
Es	-0.412409	0.795650	0.015185	99
Es	-1.098915	-2.605049	0.794474	99
Es	1.597132	1.298583	-1.236900	99
Es	1.479823	0.436061	-0.220448	99
Es	-0.198957	0.245236	0.093925	99
Es	1.236302	-0.376400	0.024360	99
Es	0.441324	0.123744	-0.051751	99
Es	-0.088719	2.606172	-0.116034	99
Es	-1.422854	1.553035	0.263111	99
Es	-1.692964	-0.613098	0.651851	99
Es	-0.285477	2.834390	-0.085366	99
Es	-0.235795	0.336862	0.185258	99
Es	-0.225837	2.257409	0.197157	99
Es	-0.343349	2.219979	-0.290547	99
Es	-0.722881	-1.415925	0.847391	99
Es	1.342441	0.129143	-0.690960	99
Es	1.838726	0.717559	-0.876543	99
Es	0.209454	2.569046	-0.187243	99
Es	1.127207	-0.066183	-0.140558	99
Es	-0.899855	-1.516014	0.222529	99
Es	0.046487	-2.309653	0.422733	99
39
Properties=species:S:1:pos:R:3:Z:I:1 energy=-338.7655582941981 field_type=dipole dipole="0.000000 0.000000 0.000000" charge=0
C	-0.623904	-2.092331	0.579731	6
C	-1.005584	-0.811191	0.490311	6
N	-0.197774	0.244628	0.096021	7
C	-0.690294	1.558428	0.095681	6
O	-0.088564	2.606478	-0.116089	8
N	1.127456	-0.066732	-0.140289	7
C	1.838716	0.717588	-0.876579	6
H	-1.322804	-2.858032	0.897111	1
H	0.387566	-2.407542	0.344651	1
H	-2.032404	-0.556651	0.739371	1
H	-1.766794	1.586879	0.336641	1
H	2.902496	0.475419	-1.029259	1
H	1.471886	1.603059	-1.417299	1
Es	2.551046	0.552759	-0.977156	99
Es	-0.899612	-1.516170	0.222097	99
Es	-1.005526	-0.810914	0.490246	99
Es	0.445193	0.127331	-0.028665	99
Es	1.838725	0.717559	-0.876542	99
Es	-0.349828	0.790948	0.204688	99
Es	-0.088744	2.606183	-0.116023	99
Es	1.236536	-0.375514	0.024649	99
Es	-0.342455	2.218593	-0.290172	99
Es	1.479814	0.435301	-0.220952	99
Es	-0.226554	2.259003	0.197502	99
Es	-0.531314	-0.195850	0.305909	99
Es	-0.623912	-2.092356	0.579733	99
Es	1.597058	1.298716	-1.236791	99
Es	1.342267	0.128247	-0.691397	99
Es	1.127171	-0.066184	-0.140555	99
Es	-0.323698	0.323765	-0.091135	99
Es	0.046559	-2.309644	0.422835	99
Es	-0.723263	-1.415940	0.847042	99
Es	-1.422597	1.553222	0.263826	99
Es	-1.692860	-0.613155	0.652222	99
Es	-0.690203	1.558239	0.095677	99
Es	-0.197641	0.244933	0.096855	99
Es	-1.098835	-2.604993	0.794632	99
Es	-0.285444	2.834585	-0.087158	99
Es	0.209368	2.568604	-0.186837	99
39
Properties=species:S:1:pos:R:3:Z:I:1 energy=-338.7655582941981 field_type=dipole dipole="0.000000 0.000000 0.000000" charge=0
C	-0.623904	-2.092331	0.579731	6
C	-1.005584	-0.811191	0.490311	6
N	-0.197774	0.244628	0.096021	7
C	-0.690294	1.558428	0.095681	6
O	-0.088564	2.606478	-0.116089	8
N	1.127456	-0.066732	-0.140289	7
C	1.838716	0.717588	-0.876579	6
H	-1.322804	-2.858032	0.897111	1
H	0.387566	-2.407542	0.344651	1
H	-2.032404	-0.556651	0.739371	1
H	-1.766794	1.586879	0.336641	1
H	2.902496	0.475419	-1.029259	1
H	1.471886	1.603059	-1.417299	1
Es	1.342270	0.129220	-0.691076	99
Es	1.838725	0.717559	-0.876543	99
Es	1.127159	-0.066202	-0.140530	99
Es	-1.098917	-2.604985	0.794542	99
Es	0.445132	0.127280	-0.028917	99
Es	-0.623908	-2.092361	0.579743	99
Es	1.480348	0.435095	-0.219921	99
Es	-0.227092	2.256805	0.196238	99
Es	1.596990	1.298652	-1.236872	99
Es	-0.197641	0.245014	0.097010	99
Es	-1.422612	1.553222	0.263900	99
Es	2.551058	0.552702	-0.977241	99
Es	-0.284240	2.834565	-0.084504	99
Es	-0.723256	-1.416051	0.847119	99
Es	0.046505	-2.309697	0.422850	99
Es	-0.690205	1.558234	0.095676	99
Es	-0.088721	2.606154	-0.116024	99
Es	-0.323053	0.320134	-0.089294	99
Es	-0.351654	0.793094	0.200163	99
Es	-0.899451	-1.516008	0.222087	99
Es	-0.343486	2.221051	-0.291905	99
Es	-1.005525	-0.810913	0.490249	99
Es	-1.692863	-0.613201	0.652208	99
Es	1.236160	-0.375982	0.023361	99
Es	-0.530176	-0.194494	0.308766	99
Es	0.209708	2.568383	-0.186553	99
39
Properties=species:S:1:pos:R:3:Z:I:1 energy=-338.7655582941981 field_type=dipole dipole="0.000000 0.000000 0.000000" charge=0
C	-0.623904	-2.092331	0.579731	6
C	-1.005584	-0.811191	0.490311	6
N	-0.197774	0.244628	0.096021	7
C	-0.690294	1.558428	0.095681	6
O	-0.088564	2.606478	-0.116089	8
N	1.127456	-0.066732	-0.140289	7
C	1.838716	0.717588	-0.876579	6
H	-1.322804	-2.858032	0.897111	1
H	0.387566	-2.407542	0.344651	1
H	-2.032404	-0.556651	0.739371	1
H	-1.766794	1.586879	0.336641	1
H	2.902496	0.475419	-1.029259	1
H	1.471886	1.603059	-1.417299	1
Es	-0.350656	0.791909	0.202735	99
Es	1.838725	0.717560	-0.876542	99
Es	1.597024	1.298712	-1.236817	99
Es	1.342261	0.128784	-0.691213	99
Es	-0.088636	2.606091	-0.116049	99
Es	-0.197614	0.244782	0.096578	99
Es	-1.692929	-0.613199	0.652230	99
Es	-0.280838	2.838144	-0.087178	99
Es	0.046573	-2.309658	0.422915	99
Es	-1.422626	1.553229	0.263824	99
Es	-0.623909	-2.092360	0.579742	99
Es	2.551071	0.552660	-0.977221	99
Es	1.236712	-0.375396	0.023986	99
Es	-0.531532	-0.195765	0.305959	99
Es	-0.344309	2.220484	-0.291149	99
Es	-0.690205	1.558239	0.095671	99
Es	1.127192	-0.066185	-0.140553	99
Es	1.479858	0.435183	-0.220600	99
Es	-0.228169	2.258762	0.197546	99
Es	-1.005526	-0.810919	0.490254	99
Es	-1.098899	-2.604982	0.794642	99
Es	0.445072	0.126743	-0.028648	99
Es	-0.723246	-1.415966	0.846901	99
Es	-0.322810	0.323051	-0.088723	99
Es	0.208154	2.563478	-0.185890	99
Es	-0.899485	-1.516113	0.222130	99
39
Properties=species:S:1:pos:R:3:Z:I:1 energy=-338.7655582941981 field_type=dipole dipole="0.000000 0.000000 0.000000" charge=0
C	-0.623904	-2.092331	0.579731	6
C	-1.005584	-0.811191	0.490311	6
N	-0.197774	0.244628	0.096021	7
C	-0.690294	1.558428	0.095681	6
O	-0.088564	2.606478	-0.116089	8
N	1.127456	-0.066732	-0.140289	7
C	1.838716	0.717588	-0.876579	6
H	-1.322804	-2.858032	0.897111	1
H	0.387566	-2.407542	0.344651	1
H	-2.032404	-0.556651	0.739371	1
H	-1.766794	1.586879	0.336641	1
H	2.902496	0.475419	-1.029259	1
H	1.471886	1.603059	-1.417299	1
Es	-0.623905	-2.092364	0.579750	99
Es	2.551122	0.552630	-0.977282	99
Es	-1.693048	-0.613148	0.652038	99
Es	1.342436	0.129512	-0.691032	99
Es	0.046492	-2.309688	0.422784	99
Es	-1.422912	1.552987	0.263449	99
Es	-0.344084	2.221715	-0.291296	99
Es	1.127194	-0.066182	-0.140563	99
Es	0.208965	2.567969	-0.187784	99
Es	-0.231179	0.272936	0.069194	99
Es	-0.899700	-1.515952	0.222332	99
Es	1.480195	0.435547	-0.220049	99
Es	-1.098907	-2.605005	0.794535	99
Es	-0.690206	1.558237	0.095671	99
Es	-0.545395	-0.206650	0.275743	99
Es	-0.226512	2.256306	0.197706	99
Es	1.838722	0.717558	-0.876543	99
Es	0.444307	0.125246	-0.042435	99
Es	1.236143	-0.375992	0.023507	99
Es	-0.283650	2.834794	-0.084902	99
Es	-0.088778	2.606164	-0.116019	99
Es	-0.230068	0.284374	0.096888	99
Es	-0.723078	-1.415917	0.847200	99
Es	-1.005526	-0.810915	0.490247	99
Es	1.597023	1.298681	-1.236748	99
Es	-0.394396	0.814426	0.088142	99
39
Properties=species:S:1:pos:R:3:Z:I:1 energy=-338.7655582941981 field_type=dipole dipole="0.000000 0.000000 0.000000" charge=0
C	-0.623904	-2.092331	0.579731	6
C	-1.005584	-0.811191	0.490311	6
N	-0.197774	0.244628	0.096021	7
C	-0.690294	1.558428	0.095681	6
O	-0.088564	2.606478	-0.116089	8
N	1.127456	-0.066732	-0.140289	7
C	1.838716	0.717588	-0.876579	6
H	-1.322804	-2.858032	0.897111	1
H	0.387566	-2.407542	0.344651	1
H	-2.032404	-0.556651	0.739371	1
H	-1.766794	1.586879	0.336641	1
H	2.902496	0.475419	-1.029259	1
H	1.471886	1.603059	-1.417299	1
Es	-0.088787	2.606160	-0.116014	99
Es	-0.281310	2.837011	-0.086937	99
Es	-0.351095	0.792428	0.201378	99
Es	-1.692951	-0.613252	0.652310	99
Es	-1.005526	-0.810916	0.490247	99
Es	1.127195	-0.066177	-0.140561	99
Es	-0.323222	0.321304	-0.089811	99
Es	1.342228	0.128634	-0.691096	99
Es	1.838726	0.717560	-0.876542	99
Es	1.597035	1.298707	-1.236834	99
Es	1.480053	0.435091	-0.220589	99
Es	-0.690206	1.558235	0.095673	99
Es	-0.899448	-1.516068	0.222209	99
Es	1.236583	-0.375251	0.023614	99
Es	0.208689	2.564620	-0.186017	99
Es	-0.344206	2.220540	-0.291303	99
Es	0.444951	0.126748	-0.028461	99
Es	-0.228136	2.258624	0.197569	99
Es	-0.623906	-2.092353	0.579754	99
Es	2.551139	0.552685	-0.977093	99
Es	-1.422669	1.553254	0.263817	99
Es	-0.723218	-1.415973	0.846991	99
Es	-0.197668	0.245021	0.096976	99
Es	0.046520	-2.309694	0.422850	99
Es	-0.530629	-0.194691	0.307903	99
Es	-1.098886	-2.604979	0.794498	99
39
Properties=species:S:1:pos:R:3:Z:I:1 energy=-338.7655582941981 field_type=dipole dipole="0.000000 0.000000 0.000000" charge=0
C	-0.623904	-2.092331	0.579731	6
C	-1.005584	-0.811191	0.490311	6
N	-0.197774	0.244628	0.096021	7
C	-0.690294	1.558428	0.095681	6
O	-0.088564	2.606478	-0.116089	8
N	1.127456	-0.066732	-0.140289	7
C	1.838716	0.717588	-0.876579	6
H	-1.322804	-2.858032	0.897111	1
H	0.387566	-2.407542	0.344651	1
H	-2.032404	-0.556651	0.739371	1
H	-1.766794	1.586879	0.336641	1
H	2.902496	0.475419	-1.029259	1
H	1.471886	1.603059	-1.417299	1
Es	2.551166	0.552658	-0.977186	99
Es	-1.693029	-0.613234	0.652293	99
Es	-0.197637	0.244949	0.096912	99
Es	1.342250	0.128833	-0.690958	99
Es	-0.320366	0.317904	-0.083879	99
Es	-0.623909	-2.092359	0.579740	99
Es	-0.530677	-0.194482	0.308580	99
Es	-0.283234	2.835614	-0.086314	99
Es	-0.690205	1.558234	0.095673	99
Es	0.445151	0.126937	-0.028367	99
Es	-0.723253	-1.415964	0.846876	99
Es	-0.899447	-1.516091	0.222225	99
Es	-1.098832	-2.604975	0.794562	99
Es	1.596972	1.298724	-1.236776	99
Es	1.480122	0.434986	-0.220510	99
Es	-0.088707	2.606178	-0.116037	99
Es	-0.227870	2.257885	0.197089	99
Es	-1.005526	-0.810916	0.490248	99
Es	0.209182	2.566901	-0.185666	99
Es	-1.422704	1.553240	0.263821	99
Es	0.046551	-2.309668	0.422862	99
Es	-0.354120	0.795503	0.194682	99
Es	-0.343106	2.220367	-0.291721	99
Es	1.127187	-0.066181	-0.140554	99
Es	1.236570	-0.375333	0.023478	99
Es	1.838725	0.717559	-0.876542	99
