42
Properties=species:S:1:pos:R:3:Z:I:1 energy=-339.9892982315954 field_type=dipole dipole="0.000000 0.000000 0.000000" charge=0
C	-2.622223	-0.008117	0.865512	6
C	-1.364113	-0.719217	0.475112	6
N	-0.319933	-0.052297	0.105672	7
N	0.759166	-0.814047	-0.221478	7
C	1.951567	-0.269317	-0.633438	6
C	2.020247	1.232473	-0.708398	6
O	2.902897	-0.990167	-0.931848	8
H	-2.872793	-0.273997	1.895462	1
H	-3.432593	-0.339187	0.211412	1
H	-2.502423	1.074843	0.783922	1
H	-1.383503	-1.822597	0.522532	1
H	0.718257	-1.826447	-0.176518	1
H	1.354467	1.596223	-1.495018	1
H	3.044507	1.536743	-0.945978	1
H	1.746467	1.675103	0.253052	1
Es	1.951398	-0.269355	-0.633375	99
Es	-0.862582	-0.368055	-0.010706	99
Es	-0.277236	0.309244	0.078028	99
Es	2.659495	-0.743208	-0.594467	99
Es	-0.680250	-0.348039	0.543002	99
Es	1.571379	1.460303	-1.231437	99
Es	0.947479	-0.725675	-0.059099	99
Es	-2.540676	0.715692	0.810463	99
Es	0.759002	-0.813944	-0.221902	99
Es	3.150318	-0.824401	-1.016634	99
Es	1.833528	1.516081	-0.065465	99
Es	2.020226	1.232403	-0.708393	99
Es	0.710546	-1.413849	-0.215417	99
Es	-2.782532	-0.194523	1.555728	99
Es	-0.319918	-0.052951	0.105689	99
Es	1.968995	0.481108	-0.663140	99
Es	2.705881	1.431808	-0.868586	99
Es	-3.159109	-0.238319	0.423251	99
Es	-1.364120	-0.719213	0.475113	99
Es	2.505159	-0.753854	-1.067755	99
Es	2.902604	-0.989978	-0.931747	99
Es	0.216283	-0.463167	-0.075759	99
Es	-1.370615	-1.473106	0.505091	99
Es	-1.986489	-0.365262	0.667828	99
Es	2.830111	-1.299191	-0.900753	99
Es	-2.622173	-0.008172	0.865498	99
Es	1.152160	-0.591909	-0.535200	99
42
Properties=species:S:1:pos:R:3:Z:I:1 energy=-339.9892982315954 field_type=dipole dipole="0.000000 0.000000 0.000000" charge=0
C	-2.622223	-0.008117	0.865512	6
C	-1.364113	-0.719217	0.475112	6
N	-0.319933	-0.052297	0.105672	7
N	0.759166	-0.814047	-0.221478	7
C	1.951567	-0.269317	-0.633438	6
C	2.020247	1.232473	-0.708398	6
O	2.902897	-0.990167	-0.931848	8
H	-2.872793	-0.273997	1.895462	1
H	-3.432593	-0.339187	0.211412	1
H	-2.502423	1.074843	0.783922	1
H	-1.383503	-1.822597	0.522532	1
H	0.718257	-1.826447	-0.176518	1
H	1.354467	1.596223	-1.495018	1
H	3.044507	1.536743	-0.945978	1
H	1.746467	1.675103	0.253052	1
Es	2.020225	1.232398	-0.708393	99
Es	-1.986551	-0.365188	0.667882	99
Es	-2.540659	0.715702	0.810490	99
Es	2.705878	1.431770	-0.868621	99
Es	1.156985	-0.590416	-0.532145	99
Es	-1.364121	-0.719214	0.475116	99
Es	-0.862374	-0.368225	-0.010419	99
Es	-2.782488	-0.194522	1.555701	99
Es	0.758994	-0.813903	-0.222129	99
Es	0.216403	-0.462949	-0.076472	99
Es	-0.680321	-0.348255	0.542647	99
Es	3.150743	-0.826815	-1.018039	99
Es	2.504533	-0.752194	-1.066674	99
Es	1.951397	-0.269356	-0.633376	99
Es	0.710537	-1.413887	-0.215830	99
Es	-1.370572	-1.473119	0.505092	99
Es	1.968880	0.481199	-0.663246	99
Es	0.942867	-0.727264	-0.060895	99
Es	2.902662	-0.989826	-0.931784	99
Es	-2.622173	-0.008172	0.865498	99
Es	-3.159154	-0.238343	0.423227	99
Es	2.827821	-1.298547	-0.901119	99
Es	-0.277620	0.309379	0.078119	99
Es	1.571466	1.460212	-1.231452	99
Es	1.833474	1.516201	-0.065445	99
Es	2.661962	-0.743261	-0.593570	99
Es	-0.319930	-0.052937	0.105694	99
42
Properties=species:S:1:pos:R:3:Z:I:1 energy=-339.9892982315954 field_type=dipole dipole="0.000000 0.000000 0.000000" charge=0
C	-2.622223	-0.008117	0.865512	6
C	-1.364113	-0.719217	0.475112	6
N	-0.319933	-0.052297	0.105672	7
N	0.759166	-0.814047	-0.221478	7
C	1.951567	-0.269317	-0.633438	6
C	2.020247	1.232473	-0.708398	6
O	2.902897	-0.990167	-0.931848	8
H	-2.872793	-0.273997	1.895462	1
H	-3.432593	-0.339187	0.211412	1
H	-2.502423	1.074843	0.783922	1
H	-1.383503	-1.822597	0.522532	1
H	0.718257	-1.826447	-0.176518	1
H	1.354467	1.596223	-1.495018	1
H	3.044507	1.536743	-0.945978	1
H	1.746467	1.675103	0.253052	1
Es	0.773142	-0.798475	-0.236627	99
Es	2.829714	-1.298787	-0.900323	99
Es	1.951398	-0.269355	-0.633380	99
Es	1.571365	1.460266	-1.231351	99
Es	2.902578	-0.989959	-0.931772	99
Es	-2.540732	0.715557	0.810433	99
Es	-1.364124	-0.719215	0.475104	99
Es	-1.370528	-1.473090	0.505174	99
Es	3.149976	-0.825220	-1.018575	99
Es	2.503541	-0.753927	-1.066945	99
Es	2.661708	-0.742652	-0.593912	99
Es	-1.986538	-0.365047	0.667868	99
Es	0.719789	-1.418916	-0.194501	99
Es	0.815446	-0.770531	-0.205598	99
Es	-2.622175	-0.008171	0.865499	99
Es	-2.782550	-0.194527	1.555875	99
Es	-0.680373	-0.347849	0.542751	99
Es	1.833569	1.516107	-0.065520	99
Es	2.705892	1.431860	-0.868671	99
Es	-3.159066	-0.238316	0.423142	99
Es	1.258417	-0.562169	-0.410550	99
Es	-0.319912	-0.052942	0.105691	99
Es	1.968714	0.481495	-0.662719	99
Es	2.020225	1.232402	-0.708392	99
Es	-0.277446	0.309183	0.078124	99
Es	0.219263	-0.458898	-0.060294	99
Es	-0.862431	-0.368353	-0.010674	99
42
Properties=species:S:1:pos:R:3:Z:I:1 energy=-339.9892982315954 field_type=dipole dipole="0.000000 0.000000 0.000000" charge=0
C	-2.622223	-0.008117	0.865512	6
C	-1.364113	-0.719217	0.475112	6
N	-0.319933	-0.052297	0.105672	7
N	0.759166	-0.814047	-0.221478	7
C	1.951567	-0.269317	-0.633438	6
C	2.020247	1.232473	-0.708398	6
O	2.902897	-0.990167	-0.931848	8
H	-2.872793	-0.273997	1.895462	1
H	-3.432593	-0.339187	0.211412	1
H	-2.502423	1.074843	0.783922	1
H	-1.383503	-1.822597	0.522532	1
H	0.718257	-1.826447	-0.176518	1
H	1.354467	1.596223	-1.495018	1
H	3.044507	1.536743	-0.945978	1
H	1.746467	1.675103	0.253052	1
Es	0.723654	-1.418330	-0.182747	99
Es	1.271149	-0.561444	-0.367811	99
Es	-0.862375	-0.368422	-0.010583	99
Es	2.503750	-0.753706	-1.066845	99
Es	2.705927	1.431856	-0.868714	99
Es	1.951390	-0.269354	-0.633378	99
Es	-0.319914	-0.052952	0.105688	99
Es	-2.622174	-0.008171	0.865498	99
Es	-0.680559	-0.347977	0.542103	99
Es	0.796499	-0.767415	-0.286062	99
Es	1.968724	0.481591	-0.662627	99
Es	-1.370469	-1.473213	0.505352	99
Es	-2.540660	0.715655	0.810477	99
Es	0.222064	-0.458752	-0.051943	99
Es	-2.782531	-0.194499	1.555736	99
Es	-0.277414	0.309383	0.078504	99
Es	2.902659	-0.989989	-0.931767	99
Es	2.826942	-1.297611	-0.899139	99
Es	2.662700	-0.741354	-0.593879	99
Es	-1.364126	-0.719216	0.475108	99
Es	0.772725	-0.803115	-0.219043	99
Es	2.020225	1.232400	-0.708393	99
Es	-3.159131	-0.238331	0.423175	99
Es	1.833409	1.516227	-0.065440	99
Es	-1.986542	-0.365007	0.667953	99
Es	1.571509	1.460095	-1.231353	99
Es	3.151434	-0.827878	-1.020010	99
42
Properties=species:S:1:pos:R:3:Z:I:1 energy=-339.9892982315954 field_type=dipole dipole="0.000000 0.000000 0.000000" charge=0
C	-2.622223	-0.008117	0.865512	6
C	-1.364113	-0.719217	0.475112	6
N	-0.319933	-0.052297	0.105672	7
N	0.759166	-0.814047	-0.221478	7
C	1.951567	-0.269317	-0.633438	6
C	2.020247	1.232473	-0.708398	6
O	2.902897	-0.990167	-0.931848	8
H	-2.872793	-0.273997	1.895462	1
H	-3.432593	-0.339187	0.211412	1
H	-2.502423	1.074843	0.783922	1
H	-1.383503	-1.822597	0.522532	1
H	0.718257	-1.826447	-0.176518	1
H	1.354467	1.596223	-1.495018	1
H	3.044507	1.536743	-0.945978	1
H	1.746467	1.675103	0.253052	1
Es	1.571487	1.460191	-1.231485	99
Es	2.502527	-0.752690	-1.066726	99
Es	1.833408	1.516163	-0.065564	99
Es	-0.680547	-0.347986	0.542252	99
Es	2.663413	-0.742850	-0.594330	99
Es	-0.277249	0.308914	0.078868	99
Es	2.902639	-0.989985	-0.931765	99
Es	-2.782385	-0.194467	1.555776	99
Es	2.020226	1.232395	-0.708394	99
Es	-2.540568	0.715657	0.810434	99
Es	1.258641	-0.562293	-0.410099	99
Es	0.776125	-0.795579	-0.238219	99
Es	1.968720	0.481644	-0.662687	99
Es	-3.159261	-0.238283	0.423302	99
Es	0.720060	-1.418874	-0.193750	99
Es	-0.862651	-0.367928	-0.010973	99
Es	3.150768	-0.826932	-1.019053	99
Es	1.951398	-0.269355	-0.633381	99
Es	-1.370386	-1.473116	0.505191	99
Es	2.705942	1.431841	-0.868532	99
Es	0.219638	-0.458797	-0.059504	99
Es	-2.622171	-0.008171	0.865497	99
Es	-0.319909	-0.052958	0.105689	99
Es	-1.364122	-0.719214	0.475118	99
Es	-1.986792	-0.365188	0.667843	99
Es	0.811794	-0.773533	-0.206044	99
Es	2.828120	-1.298136	-0.899608	99
42
Properties=species:S:1:pos:R:3:Z:I:1 energy=-339.9892982315954 field_type=dipole dipole="0.000000 0.000000 0.000000" charge=0
C	-2.622223	-0.008117	0.865512	6
C	-1.364113	-0.719217	0.475112	6
N	-0.319933	-0.052297	0.105672	7
N	0.759166	-0.814047	-0.221478	7
C	1.951567	-0.269317	-0.633438	6
C	2.020247	1.232473	-0.708398	6
O	2.902897	-0.990167	-0.931848	8
H	-2.872793	-0.273997	1.895462	1
H	-3.432593	-0.339187	0.211412	1
H	-2.502423	1.074843	0.783922	1
H	-1.383503	-1.822597	0.522532	1
H	0.718257	-1.826447	-0.176518	1
H	1.354467	1.596223	-1.495018	1
H	3.044507	1.536743	-0.945978	1
H	1.746467	1.675103	0.253052	1
Es	2.705937	1.431755	-0.868627	99
Es	-2.622173	-0.008173	0.865496	99
Es	1.833496	1.516180	-0.065488	99
Es	2.660020	-0.741894	-0.594798	99
Es	-1.364120	-0.719212	0.475114	99
Es	-0.862535	-0.368414	-0.010722	99
Es	-2.782774	-0.194585	1.555757	99
Es	0.759250	-0.813925	-0.221124	99
Es	2.020226	1.232401	-0.708392	99
Es	-3.158993	-0.238154	0.422974	99
Es	-0.680642	-0.347727	0.542179	99
Es	2.902625	-0.989996	-0.931761	99
Es	0.230000	-0.462131	-0.037649	99
Es	-1.986628	-0.365056	0.668181	99
Es	0.728289	-1.410976	-0.161314	99
Es	1.252552	-0.584721	-0.206951	99
Es	2.503745	-0.755983	-1.068298	99
Es	-2.540585	0.715582	0.810592	99
Es	1.951396	-0.269355	-0.633378	99
Es	1.969284	0.481331	-0.662384	99
Es	-0.319903	-0.052925	0.105685	99
Es	1.571427	1.460224	-1.231450	99
Es	0.816130	-0.736391	-0.480618	99
Es	3.149126	-0.824144	-1.017588	99
Es	-0.277725	0.308662	0.078801	99
Es	-1.370382	-1.473096	0.505204	99
Es	2.831821	-1.298805	-0.899585	99
42
Properties=species:S:1:pos:R:3:Z:I:1 energy=-339.9892982315954 field_type=dipole dipole="0.000000 0.000000 0.000000" charge=0
C	-2.622223	-0.008117	0.865512	6
C	-1.364113	-0.719217	0.475112	6
N	-0.319933	-0.052297	0.105672	7
N	0.759166	-0.814047	-0.221478	7
C	1.951567	-0.269317	-0.633438	6
C	2.020247	1.232473	-0.708398	6
O	2.902897	-0.990167	-0.931848	8
H	-2.872793	-0.273997	1.895462	1
H	-3.432593	-0.339187	0.211412	1
H	-2.502423	1.074843	0.783922	1
H	-1.383503	-1.822597	0.522532	1
H	0.718257	-1.826447	-0.176518	1
H	1.354467	1.596223	-1.495018	1
H	3.044507	1.536743	-0.945978	1
H	1.746467	1.675103	0.253052	1
Es	-1.986792	-0.364999	0.667991	99
Es	2.705906	1.431834	-0.868680	99
Es	2.661573	-0.741347	-0.594231	99
Es	2.827746	-1.297833	-0.899053	99
Es	-0.319919	-0.052943	0.105691	99
Es	-1.370255	-1.473138	0.505228	99
Es	3.151170	-0.827718	-1.018417	99
Es	-2.622174	-0.008172	0.865498	99
Es	1.968862	0.481808	-0.662576	99
Es	-0.862518	-0.368140	-0.010670	99
Es	-2.540697	0.715666	0.810488	99
Es	1.833583	1.516031	-0.065425	99
Es	2.902614	-0.989984	-0.931758	99
Es	0.221572	-0.458451	-0.053958	99
Es	1.268631	-0.561546	-0.379033	99
Es	-0.277553	0.308826	0.078705	99
Es	-0.680578	-0.347852	0.542198	99
Es	1.951401	-0.269356	-0.633381	99
Es	2.504283	-0.753730	-1.068197	99
Es	0.794489	-0.772349	-0.270685	99
Es	-3.159098	-0.238361	0.423138	99
Es	-1.364128	-0.719216	0.475113	99
Es	1.571276	1.460212	-1.231429	99
Es	-2.782495	-0.194566	1.555784	99
Es	0.778857	-0.798079	-0.218429	99
Es	0.722880	-1.418532	-0.185661	99
Es	2.020226	1.232403	-0.708393	99
42
Properties=species:S:1:pos:R:3:Z:I:1 energy=-339.9892982315954 field_type=dipole dipole="0.000000 0.000000 0.000000" charge=0
C	-2.622223	-0.008117	0.865512	6
C	-1.364113	-0.719217	0.475112	6
N	-0.319933	-0.052297	0.105672	7
N	0.759166	-0.814047	-0.221478	7
C	1.951567	-0.269317	-0.633438	6
C	2.020247	1.232473	-0.708398	6
O	2.902897	-0.990167	-0.931848	8
H	-2.872793	-0.273997	1.895462	1
H	-3.432593	-0.339187	0.211412	1
H	-2.502423	1.074843	0.783922	1
H	-1.383503	-1.822597	0.522532	1
H	0.718257	-1.826447	-0.176518	1
H	1.354467	1.596223	-1.495018	1
H	3.044507	1.536743	-0.945978	1
H	1.746467	1.675103	0.253052	1
Es	2.902545	-0.990027	-0.931734	99
Es	-2.622174	-0.008172	0.865498	99
Es	-1.364119	-0.719212	0.475115	99
Es	0.760090	-0.813448	-0.220464	99
Es	2.661206	-0.740741	-0.594851	99
Es	1.969370	0.481549	-0.662381	99
Es	-1.370302	-1.473100	0.505191	99
Es	0.807888	-0.741319	-0.467007	99
Es	0.230351	-0.461706	-0.036817	99
Es	1.571374	1.460084	-1.231462	99
Es	1.258962	-0.580655	-0.223138	99
Es	1.951397	-0.269355	-0.633383	99
Es	2.828222	-1.297614	-0.898452	99
Es	2.504300	-0.754677	-1.068608	99
Es	-3.159057	-0.238312	0.423135	99
Es	2.705899	1.431844	-0.868687	99
Es	1.833465	1.516166	-0.065430	99
Es	-0.319915	-0.052942	0.105690	99
Es	-2.540702	0.715619	0.810455	99
Es	-2.782546	-0.194553	1.555849	99
Es	0.729086	-1.410972	-0.160250	99
Es	2.020226	1.232401	-0.708393	99
Es	-0.680671	-0.347759	0.542104	99
Es	3.151007	-0.827801	-1.018337	99
Es	-0.277677	0.308513	0.078952	99
Es	-0.862597	-0.368416	-0.010796	99
Es	-1.986765	-0.364925	0.668059	99
42
Properties=species:S:1:pos:R:3:Z:I:1 energy=-339.9892982315954 field_type=dipole dipole="0.000000 0.000000 0.000000" charge=0
C	-2.622223	-0.008117	0.865512	6
C	-1.364113	-0.719217	0.475112	6
N	-0.319933	-0.052297	0.105672	7
N	0.759166	-0.814047	-0.221478	7
C	1.951567	-0.269317	-0.633438	6
C	2.020247	1.232473	-0.708398	6
O	2.902897	-0.990167	-0.931848	8
H	-2.872793	-0.273997	1.895462	1
H	-3.432593	-0.339187	0.211412	1
H	-2.502423	1.074843	0.783922	1
H	-1.383503	-1.822597	0.522532	1
H	0.718257	-1.826447	-0.176518	1
H	1.354467	1.596223	-1.495018	1
H	3.044507	1.536743	-0.945978	1
H	1.746467	1.675103	0.253052	1
Es	2.504163	-0.755235	-1.068148	99
Es	-2.540636	0.715601	0.810445	99
Es	2.661742	-0.739962	-0.594649	99
Es	2.705923	1.431819	-0.868614	99
Es	2.902646	-0.989970	-0.931771	99
Es	3.150703	-0.828195	-1.019590	99
Es	-0.680705	-0.347738	0.541953	99
Es	0.728729	-1.410721	-0.160682	99
Es	-1.370280	-1.473110	0.505185	99
Es	-1.986839	-0.364899	0.668090	99
Es	0.813202	-0.737919	-0.478108	99
Es	-1.364118	-0.719211	0.475111	99
Es	-3.159133	-0.238325	0.423118	99
Es	-0.277531	0.308747	0.078824	99
Es	2.020226	1.232402	-0.708392	99
Es	0.230109	-0.462358	-0.036911	99
Es	-2.622175	-0.008171	0.865498	99
Es	-0.862515	-0.368453	-0.010524	99
Es	1.254258	-0.583712	-0.211314	99
Es	1.969403	0.481530	-0.662372	99
Es	-2.782498	-0.194500	1.555840	99
Es	1.571383	1.460143	-1.231502	99
Es	1.833452	1.516138	-0.065467	99
Es	1.951402	-0.269358	-0.633379	99
Es	2.827993	-1.297535	-0.897886	99
Es	0.759862	-0.813598	-0.220578	99
Es	-0.319903	-0.052942	0.105679	99
42
Properties=species:S:1:pos:R:3:Z:I:1 energy=-339.9892982315954 field_type=dipole dipole="0.000000 0.000000 0.000000" charge=0
C	-2.622223	-0.008117	0.865512	6
C	-1.364113	-0.719217	0.475112	6
N	-0.319933	-0.052297	0.105672	7
N	0.759166	-0.814047	-0.221478	7
C	1.951567	-0.269317	-0.633438	6
C	2.020247	1.232473	-0.708398	6
O	2.902897	-0.990167	-0.931848	8
H	-2.872793	-0.273997	1.895462	1
H	-3.432593	-0.339187	0.211412	1
H	-2.502423	1.074843	0.783922	1
H	-1.383503	-1.822597	0.522532	1
H	0.718257	-1.826447	-0.176518	1
H	1.354467	1.596223	-1.495018	1
H	3.044507	1.536743	-0.945978	1
H	1.746467	1.675103	0.253052	1
Es	-2.782491	-0.194579	1.555789	99
Es	-1.986907	-0.364839	0.668096	99
Es	0.220414	-0.458300	-0.058091	99
Es	-0.277750	0.308638	0.078989	99
Es	0.720976	-1.418819	-0.191656	99
Es	1.571381	1.460105	-1.231456	99
Es	-0.319915	-0.052940	0.105689	99
Es	-2.622173	-0.008173	0.865499	99
Es	2.902604	-0.989970	-0.931761	99
Es	-0.680605	-0.348107	0.541926	99
Es	0.799724	-0.782067	-0.212095	99
Es	-1.370254	-1.473132	0.505103	99
Es	-1.364120	-0.719212	0.475114	99
Es	2.830803	-1.297965	-0.900802	99
Es	2.661271	-0.743072	-0.593137	99
Es	2.020226	1.232403	-0.708392	99
Es	1.951393	-0.269355	-0.633378	99
Es	0.784101	-0.787561	-0.243484	99
Es	-3.159181	-0.238269	0.422999	99
Es	-0.862497	-0.367976	-0.010590	99
Es	1.833485	1.516134	-0.065393	99
Es	1.261528	-0.562137	-0.402492	99
Es	-2.540581	0.715585	0.810592	99
Es	1.968805	0.481961	-0.662680	99
Es	2.503308	-0.754051	-1.068350	99
Es	3.149366	-0.825616	-1.017478	99
Es	2.705951	1.431782	-0.868701	99
42
Properties=species:S:1:pos:R:3:Z:I:1 energy=-339.9892982315954 field_type=dipole dipole="0.000000 0.000000 0.000000" charge=0
C	-2.622223	-0.008117	0.865512	6
C	-1.364113	-0.719217	0.475112	6
N	-0.319933	-0.052297	0.105672	7
N	0.759166	-0.814047	-0.221478	7
C	1.951567	-0.269317	-0.633438	6
C	2.020247	1.232473	-0.708398	6
O	2.902897	-0.990167	-0.931848	8
H	-2.872793	-0.273997	1.895462	1
H	-3.432593	-0.339187	0.211412	1
H	-2.502423	1.074843	0.783922	1
H	-1.383503	-1.822597	0.522532	1
H	0.718257	-1.826447	-0.176518	1
H	1.354467	1.596223	-1.495018	1
H	3.044507	1.536743	-0.945978	1
H	1.746467	1.675103	0.253052	1
Es	0.785881	-0.786087	-0.243389	99
Es	-0.862372	-0.368117	-0.010272	99
Es	-2.782512	-0.194524	1.555782	99
Es	2.705919	1.431843	-0.868694	99
Es	2.020225	1.232400	-0.708389	99
Es	2.662689	-0.742802	-0.593202	99
Es	0.721113	-1.418868	-0.191669	99
Es	0.798239	-0.783502	-0.211378	99
Es	-3.159146	-0.238279	0.423125	99
Es	1.968892	0.482047	-0.662652	99
Es	0.220249	-0.458510	-0.058185	99
Es	3.150899	-0.828427	-1.017896	99
Es	-2.540638	0.715616	0.810511	99
Es	2.827048	-1.297700	-0.900982	99
Es	1.833472	1.516087	-0.065371	99
Es	-0.319913	-0.052943	0.105690	99
Es	-1.364117	-0.719211	0.475117	99
Es	-2.622175	-0.008171	0.865499	99
Es	2.504087	-0.751708	-1.067640	99
Es	-0.277787	0.308781	0.078735	99
Es	-1.370278	-1.473132	0.505035	99
Es	1.261190	-0.562106	-0.403235	99
Es	2.902652	-0.989991	-0.931766	99
Es	-0.680558	-0.348047	0.541955	99
Es	1.951399	-0.269355	-0.633375	99
Es	1.571307	1.460039	-1.231513	99
Es	-1.986899	-0.364864	0.668016	99
42
Properties=species:S:1:pos:R:3:Z:I:1 energy=-339.9892982315954 field_type=dipole dipole="0.000000 0.000000 0.000000" charge=0
C	-2.622223	-0.008117	0.865512	6
C	-1.364113	-0.719217	0.475112	6
N	-0.319933	-0.052297	0.105672	7
N	0.759166	-0.814047	-0.221478	7
C	1.951567	-0.269317	-0.633438	6
C	2.020247	1.232473	-0.708398	6
O	2.902897	-0.990167	-0.931848	8
H	-2.872793	-0.273997	1.895462	1
H	-3.432593	-0.339187	0.211412	1
H	-2.502423	1.074843	0.783922	1
H	-1.383503	-1.822597	0.522532	1
H	0.718257	-1.826447	-0.176518	1
H	1.354467	1.596223	-1.495018	1
H	3.044507	1.536743	-0.945978	1
H	1.746467	1.675103	0.253052	1
Es	1.951399	-0.269354	-0.633380	99
Es	0.785608	-0.785590	-0.246308	99
Es	-3.159176	-0.238399	0.423099	99
Es	-2.540694	0.715570	0.810435	99
Es	1.571346	1.460056	-1.231563	99
Es	-0.680604	-0.347858	0.542067	99
Es	2.824679	-1.296957	-0.897793	99
Es	-0.277955	0.308434	0.078664	99
Es	3.152632	-0.831043	-1.017881	99
Es	-1.364120	-0.719211	0.475113	99
Es	-1.370188	-1.473129	0.505066	99
Es	2.661381	-0.739800	-0.594597	99
Es	1.263011	-0.562056	-0.398253	99
Es	2.505879	-0.752793	-1.069486	99
Es	1.968891	0.482076	-0.662557	99
Es	0.220764	-0.458200	-0.057505	99
Es	1.833463	1.516140	-0.065438	99
Es	-1.986930	-0.364786	0.668113	99
Es	-0.319917	-0.052948	0.105690	99
Es	0.721398	-1.418837	-0.190532	99
Es	-2.622175	-0.008171	0.865501	99
Es	2.902719	-0.990086	-0.931802	99
Es	-2.782441	-0.194448	1.555832	99
Es	2.020228	1.232405	-0.708393	99
Es	0.796135	-0.784264	-0.215317	99
Es	-0.862406	-0.368078	-0.010282	99
Es	2.705937	1.431797	-0.868636	99
42
Properties=species:S:1:pos:R:3:Z:I:1 energy=-339.9892982315954 field_type=dipole dipole="0.000000 0.000000 0.000000" charge=0
C	-2.622223	-0.008117	0.865512	6
C	-1.364113	-0.719217	0.475112	6
N	-0.319933	-0.052297	0.105672	7
N	0.759166	-0.814047	-0.221478	7
C	1.951567	-0.269317	-0.633438	6
C	2.020247	1.232473	-0.708398	6
O	2.902897	-0.990167	-0.931848	8
H	-2.872793	-0.273997	1.895462	1
H	-3.432593	-0.339187	0.211412	1
H	-2.502423	1.074843	0.783922	1
H	-1.383503	-1.822597	0.522532	1
H	0.718257	-1.826447	-0.176518	1
H	1.354467	1.596223	-1.495018	1
H	3.044507	1.536743	-0.945978	1
H	1.746467	1.675103	0.253052	1
Es	2.902637	-0.989925	-0.931769	99
Es	0.785001	-0.786800	-0.243486	99
Es	-1.986867	-0.364654	0.668068	99
Es	-1.364119	-0.719213	0.475114	99
Es	-1.370220	-1.473177	0.505015	99
Es	2.826481	-1.296940	-0.899322	99
Es	-0.277760	0.308463	0.078890	99
Es	0.798565	-0.782862	-0.212832	99
Es	2.020227	1.232404	-0.708392	99
Es	2.705903	1.431722	-0.868708	99
Es	1.968818	0.482084	-0.662754	99
Es	-2.782473	-0.194563	1.555848	99
Es	-0.862505	-0.367963	-0.010380	99
Es	3.151449	-0.829673	-1.018589	99
Es	-3.159105	-0.238372	0.423049	99
Es	0.721124	-1.418845	-0.191431	99
Es	1.951398	-0.269355	-0.633379	99
Es	-2.622171	-0.008174	0.865497	99
Es	-0.680613	-0.347928	0.541918	99
Es	2.504305	-0.752780	-1.068367	99
Es	0.220345	-0.458275	-0.058425	99
Es	-2.540773	0.715568	0.810518	99
Es	1.833488	1.516166	-0.065299	99
Es	1.571433	1.460110	-1.231486	99
Es	-0.319919	-0.052946	0.105691	99
Es	2.662423	-0.741370	-0.593450	99
Es	1.261789	-0.562232	-0.401681	99
42
Properties=species:S:1:pos:R:3:Z:I:1 energy=-339.9892982315954 field_type=dipole dipole="0.000000 0.000000 0.000000" charge=0
C	-2.622223	-0.008117	0.865512	6
C	-1.364113	-0.719217	0.475112	6
N	-0.319933	-0.052297	0.105672	7
N	0.759166	-0.814047	-0.221478	7
C	1.951567	-0.269317	-0.633438	6
C	2.020247	1.232473	-0.708398	6
O	2.902897	-0.990167	-0.931848	8
H	-2.872793	-0.273997	1.895462	1
H	-3.432593	-0.339187	0.211412	1
H	-2.502423	1.074843	0.783922	1
H	-1.383503	-1.822597	0.522532	1
H	0.718257	-1.826447	-0.176518	1
H	1.354467	1.596223	-1.495018	1
H	3.044507	1.536743	-0.945978	1
H	1.746467	1.675103	0.253052	1
Es	0.796743	-0.783976	-0.214426	99
Es	2.902686	-0.990025	-0.931783	99
Es	1.968904	0.482176	-0.662722	99
Es	-1.987051	-0.364726	0.667991	99
Es	-0.680606	-0.347683	0.542146	99
Es	2.705957	1.431824	-0.868639	99
Es	0.721385	-1.418803	-0.190895	99
Es	3.151619	-0.829909	-1.018353	99
Es	-1.370151	-1.473129	0.504965	99
Es	-2.782465	-0.194548	1.555846	99
Es	1.951396	-0.269355	-0.633381	99
Es	0.220527	-0.458368	-0.057872	99
Es	-0.862450	-0.367947	-0.010154	99
Es	1.571239	1.460177	-1.231508	99
Es	-2.540668	0.715561	0.810528	99
Es	-0.277835	0.308254	0.078652	99
Es	1.262691	-0.562143	-0.399153	99
Es	2.826377	-1.296770	-0.898751	99
Es	2.504588	-0.753113	-1.068972	99
Es	2.020226	1.232403	-0.708392	99
Es	2.661992	-0.740899	-0.593668	99
Es	0.785571	-0.785813	-0.245581	99
Es	1.833540	1.515936	-0.065361	99
Es	-1.364120	-0.719211	0.475106	99
Es	-3.159156	-0.238315	0.423045	99
Es	-2.622175	-0.008172	0.865498	99
Es	-0.319902	-0.052956	0.105690	99
42
Properties=species:S:1:pos:R:3:Z:I:1 energy=-339.9892982315954 field_type=dipole dipole="0.000000 0.000000 0.000000" charge=0
C	-2.622223	-0.008117	0.865512	6
C	-1.364113	-0.719217	0.475112	6
N	-0.319933	-0.052297	0.105672	7
N	0.759166	-0.814047	-0.221478	7
C	1.951567	-0.269317	-0.633438	6
C	2.020247	1.232473	-0.708398	6
O	2.902897	-0.990167	-0.931848	8
H	-2.872793	-0.273997	1.895462	1
H	-3.432593	-0.339187	0.211412	1
H	-2.502423	1.074843	0.783922	1
H	-1.383503	-1.822597	0.522532	1
H	0.718257	-1.826447	-0.176518	1
H	1.354467	1.596223	-1.495018	1
H	3.044507	1.536743	-0.945978	1
H	1.746467	1.675103	0.253052	1
Es	2.020226	1.232402	-0.708390	99
Es	2.505006	-0.754567	-1.070342	99
Es	-0.680636	-0.347767	0.542065	99
Es	1.263716	-0.562158	-0.396222	99
Es	1.968807	0.482204	-0.662756	99
Es	1.571292	1.460191	-1.231445	99
Es	0.221165	-0.457871	-0.057319	99
Es	-1.987093	-0.364707	0.668122	99
Es	-2.622176	-0.008171	0.865499	99
Es	-2.782423	-0.194557	1.555856	99
Es	-2.540654	0.715599	0.810499	99
Es	3.152051	-0.830490	-1.018233	99
Es	0.721622	-1.418780	-0.190053	99
Es	-3.159161	-0.238334	0.423080	99
Es	-1.370123	-1.473133	0.504926	99
Es	1.833594	1.516015	-0.065298	99
Es	-0.319911	-0.052934	0.105688	99
Es	-1.364120	-0.719212	0.475113	99
Es	1.951398	-0.269352	-0.633379	99
Es	2.902694	-0.990036	-0.931781	99
Es	2.660974	-0.739408	-0.594402	99
Es	0.786164	-0.784717	-0.247953	99
Es	-0.862419	-0.367997	-0.010189	99
Es	2.826525	-1.296222	-0.896777	99
Es	-0.278256	0.307970	0.078719	99
Es	2.705945	1.431732	-0.868734	99
Es	0.794657	-0.785233	-0.216439	99
