42
Properties=species:S:1:pos:R:3:Z:I:1 energy=-339.94193666695975 field_type=dipole dipole="0.000000 0.000000 0.000000" charge=0
C	-1.788365	-1.678148	-1.337186	6
C	-1.153455	-1.089008	-0.116966	6
N	-0.053335	-0.413068	-0.209456	7
N	0.389415	0.065212	0.978274	7
C	1.660574	0.797292	0.950144	6
C	1.498785	2.063192	0.145264	6
O	1.545694	3.189792	0.634364	8
H	-2.801535	-1.279538	-1.435276	1
H	-1.848875	-2.762718	-1.216816	1
H	-1.211485	-1.438968	-2.234096	1
H	-1.667135	-1.266558	0.845554	1
H	-0.312456	0.640902	1.454894	1
H	2.456904	0.191712	0.506594	1
H	1.958594	1.056512	1.971024	1
H	1.326674	1.923392	-0.936316	1
Es	0.155439	-0.143552	0.387611	99
Es	0.431697	-0.206305	1.154429	99
Es	1.380038	1.956715	-0.589582	99
Es	1.498784	2.063205	0.145280	99
Es	1.660430	0.797249	0.950097	99
Es	-1.505907	-1.202425	0.537879	99
Es	-0.686720	-0.452432	-0.205454	99
Es	0.933963	0.415398	0.924727	99
Es	2.192367	0.395060	0.640002	99
Es	1.851595	0.972580	1.637888	99
Es	-1.153499	-1.088989	-0.116990	99
Es	-0.036332	0.425143	1.237160	99
Es	-1.827225	-2.405325	-1.246073	99
Es	1.601019	3.182482	0.943960	99
Es	-1.402064	-1.517877	-1.937751	99
Es	1.589925	1.432959	0.541117	99
Es	-1.788358	-1.678132	-1.337122	99
Es	1.278823	2.768148	0.501304	99
Es	-1.469034	-1.380773	-0.725386	99
Es	1.499109	3.419166	0.424811	99
Es	0.389283	0.065794	0.977763	99
Es	1.776154	2.787993	0.412391	99
Es	1.545688	3.189491	0.634256	99
Es	-0.397651	-0.950297	-0.116719	99
Es	0.155319	-0.353686	-0.514319	99
Es	-0.053626	-0.413134	-0.208917	99
Es	-2.468519	-1.406496	-1.393614	99
42
Properties=species:S:1:pos:R:3:Z:I:1 energy=-339.94193666695975 field_type=dipole dipole="0.000000 0.000000 0.000000" charge=0
C	-1.788365	-1.678148	-1.337186	6
C	-1.153455	-1.089008	-0.116966	6
N	-0.053335	-0.413068	-0.209456	7
N	0.389415	0.065212	0.978274	7
C	1.660574	0.797292	0.950144	6
C	1.498785	2.063192	0.145264	6
O	1.545694	3.189792	0.634364	8
H	-2.801535	-1.279538	-1.435276	1
H	-1.848875	-2.762718	-1.216816	1
H	-1.211485	-1.438968	-2.234096	1
H	-1.667135	-1.266558	0.845554	1
H	-0.312456	0.640902	1.454894	1
H	2.456904	0.191712	0.506594	1
H	1.958594	1.056512	1.971024	1
H	1.326674	1.923392	-0.936316	1
Es	0.155692	-0.143220	0.387461	99
Es	0.431900	-0.206395	1.154583	99
Es	0.389293	0.065759	0.977789	99
Es	-1.402124	-1.518006	-1.937807	99
Es	-1.153496	-1.088994	-0.116991	99
Es	-0.397635	-0.950325	-0.116722	99
Es	-1.505780	-1.202481	0.537888	99
Es	1.776229	2.788095	0.411537	99
Es	1.278888	2.768138	0.501914	99
Es	-1.468995	-1.380747	-0.725410	99
Es	1.380046	1.956726	-0.589597	99
Es	-1.788358	-1.678132	-1.337120	99
Es	1.601679	3.182482	0.943794	99
Es	1.660426	0.797250	0.950096	99
Es	0.933584	0.415681	0.924690	99
Es	-1.827283	-2.405208	-1.246074	99
Es	1.545689	3.189553	0.634267	99
Es	-2.468533	-1.406506	-1.393615	99
Es	1.498337	3.419013	0.425199	99
Es	1.851539	0.972725	1.637821	99
Es	2.192427	0.394941	0.640093	99
Es	0.154880	-0.353671	-0.514337	99
Es	1.498781	2.063202	0.145279	99
Es	-0.053637	-0.413137	-0.208927	99
Es	1.590027	1.432818	0.541103	99
Es	-0.036316	0.425073	1.237141	99
Es	-0.686561	-0.452672	-0.205307	99
42
Properties=species:S:1:pos:R:3:Z:I:1 energy=-339.94193666695975 field_type=dipole dipole="0.000000 0.000000 0.000000" charge=0
C	-1.788365	-1.678148	-1.337186	6
C	-1.153455	-1.089008	-0.116966	6
N	-0.053335	-0.413068	-0.209456	7
N	0.389415	0.065212	0.978274	7
C	1.660574	0.797292	0.950144	6
C	1.498785	2.063192	0.145264	6
O	1.545694	3.189792	0.634364	8
H	-2.801535	-1.279538	-1.435276	1
H	-1.848875	-2.762718	-1.216816	1
H	-1.211485	-1.438968	-2.234096	1
H	-1.667135	-1.266558	0.845554	1
H	-0.312456	0.640902	1.454894	1
H	2.456904	0.191712	0.506594	1
H	1.958594	1.056512	1.971024	1
H	1.326674	1.923392	-0.936316	1
Es	0.933858	0.415355	0.924822	99
Es	1.498783	2.063202	0.145279	99
Es	-2.468607	-1.406576	-1.393692	99
Es	1.278537	2.768456	0.501403	99
Es	1.380084	1.956740	-0.589642	99
Es	-1.402044	-1.518022	-1.937787	99
Es	-1.153494	-1.088997	-0.116990	99
Es	-1.469082	-1.380718	-0.725533	99
Es	-0.397378	-0.950563	-0.117049	99
Es	-1.505859	-1.202334	0.537946	99
Es	1.499166	3.419380	0.425439	99
Es	1.545686	3.189619	0.634299	99
Es	1.601158	3.182025	0.943564	99
Es	1.776146	2.787804	0.411981	99
Es	-0.686562	-0.452793	-0.205412	99
Es	2.192547	0.395053	0.640068	99
Es	-0.053631	-0.413133	-0.208920	99
Es	1.660424	0.797248	0.950097	99
Es	1.851490	0.972758	1.637800	99
Es	-1.788358	-1.678133	-1.337123	99
Es	1.590065	1.432762	0.541257	99
Es	-0.036370	0.425060	1.237307	99
Es	-1.827159	-2.405212	-1.245939	99
Es	0.154419	-0.353426	-0.514012	99
Es	0.431674	-0.206089	1.154211	99
Es	0.389306	0.065735	0.977812	99
Es	0.155902	-0.143240	0.387564	99
42
Properties=species:S:1:pos:R:3:Z:I:1 energy=-339.94193666695975 field_type=dipole dipole="0.000000 0.000000 0.000000" charge=0
C	-1.788365	-1.678148	-1.337186	6
C	-1.153455	-1.089008	-0.116966	6
N	-0.053335	-0.413068	-0.209456	7
N	0.389415	0.065212	0.978274	7
C	1.660574	0.797292	0.950144	6
C	1.498785	2.063192	0.145264	6
O	1.545694	3.189792	0.634364	8
H	-2.801535	-1.279538	-1.435276	1
H	-1.848875	-2.762718	-1.216816	1
H	-1.211485	-1.438968	-2.234096	1
H	-1.667135	-1.266558	0.845554	1
H	-0.312456	0.640902	1.454894	1
H	2.456904	0.191712	0.506594	1
H	1.958594	1.056512	1.971024	1
H	1.326674	1.923392	-0.936316	1
Es	1.600983	3.183592	0.943546	99
Es	-1.788359	-1.678132	-1.337122	99
Es	-1.468980	-1.380875	-0.725609	99
Es	0.933916	0.415361	0.924867	99
Es	2.192461	0.395117	0.640078	99
Es	-1.827242	-2.405297	-1.245962	99
Es	1.499020	3.418392	0.424530	99
Es	1.278663	2.768071	0.501806	99
Es	1.776440	2.787739	0.412563	99
Es	-1.153505	-1.088984	-0.116993	99
Es	1.851573	0.972789	1.637832	99
Es	-2.468540	-1.406458	-1.393589	99
Es	0.389290	0.065768	0.977784	99
Es	1.545674	3.189497	0.634215	99
Es	-0.053619	-0.413132	-0.208907	99
Es	1.590092	1.432665	0.541226	99
Es	0.155902	-0.143320	0.387613	99
Es	0.154514	-0.353755	-0.514074	99
Es	1.660434	0.797251	0.950098	99
Es	-0.036296	0.425064	1.237041	99
Es	-0.686440	-0.452720	-0.205584	99
Es	-1.402112	-1.518001	-1.937807	99
Es	-0.397735	-0.950249	-0.116880	99
Es	-1.505752	-1.202420	0.537975	99
Es	0.431530	-0.205984	1.154444	99
Es	1.380012	1.956783	-0.589626	99
Es	1.498777	2.063198	0.145279	99
42
Properties=species:S:1:pos:R:3:Z:I:1 energy=-339.94193666695975 field_type=dipole dipole="0.000000 0.000000 0.000000" charge=0
C	-1.788365	-1.678148	-1.337186	6
C	-1.153455	-1.089008	-0.116966	6
N	-0.053335	-0.413068	-0.209456	7
N	0.389415	0.065212	0.978274	7
C	1.660574	0.797292	0.950144	6
C	1.498785	2.063192	0.145264	6
O	1.545694	3.189792	0.634364	8
H	-2.801535	-1.279538	-1.435276	1
H	-1.848875	-2.762718	-1.216816	1
H	-1.211485	-1.438968	-2.234096	1
H	-1.667135	-1.266558	0.845554	1
H	-0.312456	0.640902	1.454894	1
H	2.456904	0.191712	0.506594	1
H	1.958594	1.056512	1.971024	1
H	1.326674	1.923392	-0.936316	1
Es	-1.505749	-1.202400	0.537971	99
Es	1.498785	2.063202	0.145278	99
Es	-1.827168	-2.405257	-1.245993	99
Es	1.776731	2.788424	0.411825	99
Es	1.851551	0.972754	1.637803	99
Es	1.380003	1.956806	-0.589649	99
Es	-1.153504	-1.088998	-0.116988	99
Es	0.154146	-0.353640	-0.514024	99
Es	-0.397551	-0.950354	-0.117081	99
Es	-2.468585	-1.406544	-1.393635	99
Es	1.497722	3.417910	0.424668	99
Es	-0.686429	-0.452914	-0.205422	99
Es	0.934202	0.415268	0.925133	99
Es	1.601604	3.184002	0.943579	99
Es	1.660429	0.797250	0.950097	99
Es	0.431332	-0.205865	1.153854	99
Es	-1.402102	-1.517975	-1.937785	99
Es	0.156065	-0.142957	0.387592	99
Es	-1.469079	-1.380780	-0.725596	99
Es	1.545686	3.189507	0.634243	99
Es	-0.036357	0.424834	1.237416	99
Es	0.389289	0.065767	0.977785	99
Es	1.279133	2.767426	0.502373	99
Es	-0.053614	-0.413122	-0.208904	99
Es	-1.788359	-1.678133	-1.337122	99
Es	2.192491	0.395068	0.640056	99
Es	1.590027	1.432678	0.541273	99
42
Properties=species:S:1:pos:R:3:Z:I:1 energy=-339.94193666695975 field_type=dipole dipole="0.000000 0.000000 0.000000" charge=0
C	-1.788365	-1.678148	-1.337186	6
C	-1.153455	-1.089008	-0.116966	6
N	-0.053335	-0.413068	-0.209456	7
N	0.389415	0.065212	0.978274	7
C	1.660574	0.797292	0.950144	6
C	1.498785	2.063192	0.145264	6
O	1.545694	3.189792	0.634364	8
H	-2.801535	-1.279538	-1.435276	1
H	-1.848875	-2.762718	-1.216816	1
H	-1.211485	-1.438968	-2.234096	1
H	-1.667135	-1.266558	0.845554	1
H	-0.312456	0.640902	1.454894	1
H	2.456904	0.191712	0.506594	1
H	1.958594	1.056512	1.971024	1
H	1.326674	1.923392	-0.936316	1
Es	-0.036386	0.424723	1.237206	99
Es	-1.827156	-2.405324	-1.245984	99
Es	1.775846	2.787561	0.411496	99
Es	1.601191	3.180874	0.943529	99
Es	-2.468599	-1.406470	-1.393647	99
Es	-1.402091	-1.517971	-1.937721	99
Es	-0.397749	-0.950051	-0.116849	99
Es	-0.053593	-0.413114	-0.208935	99
Es	1.277945	2.769212	0.500766	99
Es	1.660428	0.797250	0.950097	99
Es	-0.686363	-0.453107	-0.205299	99
Es	1.500011	3.420132	0.426688	99
Es	-1.505697	-1.202383	0.538019	99
Es	1.498780	2.063199	0.145278	99
Es	1.545681	3.189493	0.634220	99
Es	1.380099	1.956835	-0.589674	99
Es	-1.469137	-1.380788	-0.725752	99
Es	0.431407	-0.205484	1.154116	99
Es	2.192514	0.395090	0.640054	99
Es	-1.788359	-1.678133	-1.337123	99
Es	1.590160	1.432683	0.541339	99
Es	0.389285	0.065771	0.977779	99
Es	-1.153511	-1.088962	-0.116998	99
Es	1.851551	0.972710	1.637755	99
Es	0.934059	0.415546	0.925045	99
Es	0.153930	-0.354091	-0.514152	99
Es	0.156454	-0.143243	0.387493	99
42
Properties=species:S:1:pos:R:3:Z:I:1 energy=-339.94193666695975 field_type=dipole dipole="0.000000 0.000000 0.000000" charge=0
C	-1.788365	-1.678148	-1.337186	6
C	-1.153455	-1.089008	-0.116966	6
N	-0.053335	-0.413068	-0.209456	7
N	0.389415	0.065212	0.978274	7
C	1.660574	0.797292	0.950144	6
C	1.498785	2.063192	0.145264	6
O	1.545694	3.189792	0.634364	8
H	-2.801535	-1.279538	-1.435276	1
H	-1.848875	-2.762718	-1.216816	1
H	-1.211485	-1.438968	-2.234096	1
H	-1.667135	-1.266558	0.845554	1
H	-0.312456	0.640902	1.454894	1
H	2.456904	0.191712	0.506594	1
H	1.958594	1.056512	1.971024	1
H	1.326674	1.923392	-0.936316	1
Es	-0.053601	-0.413119	-0.208929	99
Es	0.156282	-0.143471	0.387603	99
Es	1.600772	3.182817	0.943601	99
Es	1.776630	2.788056	0.412082	99
Es	-0.686396	-0.452933	-0.205458	99
Es	-1.827182	-2.405365	-1.245972	99
Es	0.431294	-0.205537	1.154400	99
Es	-1.788359	-1.678133	-1.337123	99
Es	0.154020	-0.353923	-0.513927	99
Es	1.499032	3.418609	0.425524	99
Es	1.545686	3.189585	0.634286	99
Es	1.498781	2.063203	0.145280	99
Es	-1.153495	-1.088988	-0.116992	99
Es	1.278579	2.768199	0.501180	99
Es	1.380062	1.956845	-0.589692	99
Es	1.660431	0.797252	0.950097	99
Es	-0.397780	-0.950083	-0.117098	99
Es	1.590198	1.432611	0.541404	99
Es	0.389307	0.065750	0.977797	99
Es	-0.036198	0.424913	1.236960	99
Es	-2.468550	-1.406464	-1.393613	99
Es	0.933986	0.415423	0.925015	99
Es	-1.469227	-1.380844	-0.725782	99
Es	-1.402092	-1.517934	-1.937745	99
Es	2.192531	0.395134	0.640049	99
Es	1.851573	0.972756	1.637739	99
Es	-1.505583	-1.202395	0.538062	99
42
Properties=species:S:1:pos:R:3:Z:I:1 energy=-339.94193666695975 field_type=dipole dipole="0.000000 0.000000 0.000000" charge=0
C	-1.788365	-1.678148	-1.337186	6
C	-1.153455	-1.089008	-0.116966	6
N	-0.053335	-0.413068	-0.209456	7
N	0.389415	0.065212	0.978274	7
C	1.660574	0.797292	0.950144	6
C	1.498785	2.063192	0.145264	6
O	1.545694	3.189792	0.634364	8
H	-2.801535	-1.279538	-1.435276	1
H	-1.848875	-2.762718	-1.216816	1
H	-1.211485	-1.438968	-2.234096	1
H	-1.667135	-1.266558	0.845554	1
H	-0.312456	0.640902	1.454894	1
H	2.456904	0.191712	0.506594	1
H	1.958594	1.056512	1.971024	1
H	1.326674	1.923392	-0.936316	1
Es	0.934153	0.415372	0.925157	99
Es	1.590208	1.432488	0.541404	99
Es	-1.469060	-1.380900	-0.725821	99
Es	0.389281	0.065774	0.977773	99
Es	1.600609	3.182749	0.943460	99
Es	0.156426	-0.143359	0.387566	99
Es	2.192577	0.395120	0.640094	99
Es	-0.397789	-0.950023	-0.117103	99
Es	1.380071	1.956878	-0.589703	99
Es	1.278523	2.768186	0.501072	99
Es	-0.036292	0.424734	1.237199	99
Es	-1.788360	-1.678135	-1.337127	99
Es	1.776843	2.788090	0.412126	99
Es	-1.402076	-1.517950	-1.937711	99
Es	-0.686363	-0.453046	-0.205448	99
Es	-0.053624	-0.413131	-0.208920	99
Es	1.498786	2.063202	0.145278	99
Es	1.851517	0.972840	1.637747	99
Es	-2.468505	-1.406454	-1.393675	99
Es	0.153760	-0.353881	-0.513859	99
Es	1.545682	3.189582	0.634282	99
Es	-1.505654	-1.202476	0.538089	99
Es	-1.153492	-1.088994	-0.116991	99
Es	0.431195	-0.205238	1.154019	99
Es	-1.827224	-2.405377	-1.245992	99
Es	1.499079	3.418658	0.425737	99
Es	1.660429	0.797250	0.950094	99
42
Properties=species:S:1:pos:R:3:Z:I:1 energy=-339.94193666695975 field_type=dipole dipole="0.000000 0.000000 0.000000" charge=0
C	-1.788365	-1.678148	-1.337186	6
C	-1.153455	-1.089008	-0.116966	6
N	-0.053335	-0.413068	-0.209456	7
N	0.389415	0.065212	0.978274	7
C	1.660574	0.797292	0.950144	6
C	1.498785	2.063192	0.145264	6
O	1.545694	3.189792	0.634364	8
H	-2.801535	-1.279538	-1.435276	1
H	-1.848875	-2.762718	-1.216816	1
H	-1.211485	-1.438968	-2.234096	1
H	-1.667135	-1.266558	0.845554	1
H	-0.312456	0.640902	1.454894	1
H	2.456904	0.191712	0.506594	1
H	1.958594	1.056512	1.971024	1
H	1.326674	1.923392	-0.936316	1
Es	-1.469077	-1.380949	-0.725914	99
Es	2.192644	0.395207	0.639988	99
Es	-0.686246	-0.453204	-0.205349	99
Es	-1.402108	-1.518001	-1.937726	99
Es	1.498790	2.063205	0.145278	99
Es	1.660430	0.797251	0.950097	99
Es	1.590026	1.432512	0.541622	99
Es	-1.788359	-1.678133	-1.337123	99
Es	-0.036241	0.424735	1.237162	99
Es	-0.053604	-0.413125	-0.208941	99
Es	0.933966	0.415478	0.924945	99
Es	1.545686	3.189448	0.634259	99
Es	-2.468602	-1.406432	-1.393636	99
Es	0.156427	-0.143733	0.387713	99
Es	-1.153494	-1.088992	-0.116991	99
Es	1.279060	2.767429	0.500634	99
Es	1.851546	0.972793	1.637699	99
Es	1.777686	2.788642	0.412870	99
Es	0.431352	-0.205027	1.154207	99
Es	1.599732	3.184148	0.943718	99
Es	0.153524	-0.353708	-0.513852	99
Es	-0.397721	-0.950109	-0.117228	99
Es	1.498751	3.417590	0.425158	99
Es	-1.505601	-1.202377	0.538080	99
Es	0.389280	0.065779	0.977772	99
Es	1.380018	1.956865	-0.589738	99
Es	-1.827164	-2.405332	-1.245957	99
42
Properties=species:S:1:pos:R:3:Z:I:1 energy=-339.94193666695975 field_type=dipole dipole="0.000000 0.000000 0.000000" charge=0
C	-1.788365	-1.678148	-1.337186	6
C	-1.153455	-1.089008	-0.116966	6
N	-0.053335	-0.413068	-0.209456	7
N	0.389415	0.065212	0.978274	7
C	1.660574	0.797292	0.950144	6
C	1.498785	2.063192	0.145264	6
O	1.545694	3.189792	0.634364	8
H	-2.801535	-1.279538	-1.435276	1
H	-1.848875	-2.762718	-1.216816	1
H	-1.211485	-1.438968	-2.234096	1
H	-1.667135	-1.266558	0.845554	1
H	-0.312456	0.640902	1.454894	1
H	2.456904	0.191712	0.506594	1
H	1.958594	1.056512	1.971024	1
H	1.326674	1.923392	-0.936316	1
Es	0.934207	0.415365	0.925149	99
Es	-1.469140	-1.380908	-0.725958	99
Es	-1.402069	-1.518023	-1.937631	99
Es	-1.788360	-1.678133	-1.337124	99
Es	0.389277	0.065758	0.977795	99
Es	-0.686225	-0.453243	-0.205352	99
Es	1.545679	3.189482	0.634226	99
Es	2.192583	0.395157	0.640038	99
Es	1.498787	2.063200	0.145277	99
Es	-0.036211	0.424744	1.237097	99
Es	1.777063	2.787977	0.412343	99
Es	-1.827186	-2.405371	-1.245978	99
Es	1.600352	3.183405	0.943438	99
Es	1.380052	1.956916	-0.589751	99
Es	-0.053623	-0.413131	-0.208922	99
Es	1.851543	0.972765	1.637705	99
Es	0.431082	-0.205038	1.154070	99
Es	1.590196	1.432505	0.541554	99
Es	1.278406	2.768223	0.500970	99
Es	-2.468598	-1.406375	-1.393716	99
Es	-1.505544	-1.202433	0.538095	99
Es	0.156594	-0.143405	0.387643	99
Es	1.499286	3.418160	0.425692	99
Es	-1.153493	-1.088989	-0.116992	99
Es	-0.397729	-0.950101	-0.117260	99
Es	1.660439	0.797252	0.950101	99
Es	0.153331	-0.353800	-0.513762	99
