39
Properties=species:S:1:pos:R:3:Z:I:1 energy=-338.75825939107335 field_type=dipole dipole="0.000000 0.000000 0.000000" charge=0
C	-2.152756	1.444638	0.687969	6
C	-1.312026	0.351748	0.108949	6
N	-0.024806	0.370608	0.228469	7
O	0.502444	-0.767062	-0.406321	8
C	1.929824	-0.738332	-0.291511	6
C	2.509654	-1.922722	-0.936371	6
N	2.986363	-2.853842	-1.442061	7
H	-2.868836	1.006908	1.388069	1
H	-2.705646	1.930718	-0.119861	1
H	-1.535066	2.181918	1.206379	1
H	-1.840306	-0.459282	-0.422971	1
H	2.203344	-0.717312	0.769389	1
H	2.307814	0.172018	-0.770131	1
Es	-1.738866	1.936569	1.034005	99
Es	0.502651	-0.766845	-0.406118	99
Es	2.483626	-2.526967	-1.260899	99
Es	-2.152726	1.444570	0.687931	99
Es	2.509506	-1.922426	-0.936199	99
Es	-1.718691	0.894025	0.397919	99
Es	0.222766	0.608037	0.390858	99
Es	2.913701	-2.498002	-0.947469	99
Es	1.929660	-0.738523	-0.291631	99
Es	3.136739	-3.147537	-1.601351	99
Es	0.400124	-1.006388	-0.239932	99
Es	-2.517348	1.759325	0.139994	99
Es	-0.594355	0.212308	0.427102	99
Es	1.059772	-0.741030	-0.351791	99
Es	-2.627189	1.140030	1.151641	99
Es	0.289408	-0.272790	-0.129367	99
Es	2.225747	-1.370792	-0.636934	99
Es	2.196898	-0.148203	-0.621298	99
Es	2.126871	-0.742805	0.407937	99
Es	-0.552295	0.511130	-0.072657	99
Es	-0.025145	0.370167	0.228174	99
Es	-1.666899	-0.189705	-0.246118	99
Es	0.434445	-0.729590	-0.704780	99
Es	-1.312051	0.351776	0.108965	99
Es	2.986178	-2.853475	-1.441861	99
Es	2.909825	-2.248861	-1.418112	99
39
Properties=species:S:1:pos:R:3:Z:I:1 energy=-338.75825939107335 field_type=dipole dipole="0.000000 0.000000 0.000000" charge=0
C	-2.152756	1.444638	0.687969	6
C	-1.312026	0.351748	0.108949	6
N	-0.024806	0.370608	0.228469	7
O	0.502444	-0.767062	-0.406321	8
C	1.929824	-0.738332	-0.291511	6
C	2.509654	-1.922722	-0.936371	6
N	2.986363	-2.853842	-1.442061	7
H	-2.868836	1.006908	1.388069	1
H	-2.705646	1.930718	-0.119861	1
H	-1.535066	2.181918	1.206379	1
H	-1.840306	-0.459282	-0.422971	1
H	2.203344	-0.717312	0.769389	1
H	2.307814	0.172018	-0.770131	1
Es	0.222522	0.607627	0.390938	99
Es	-2.152726	1.444570	0.687930	99
Es	-2.627119	1.139936	1.151670	99
Es	-1.666843	-0.189754	-0.246040	99
Es	2.868639	-2.531807	-0.937964	99
Es	0.401698	-1.005269	-0.238941	99
Es	-0.594306	0.212391	0.427142	99
Es	-0.552193	0.511544	-0.072739	99
Es	-2.517426	1.759212	0.139975	99
Es	-0.025137	0.370169	0.228184	99
Es	0.502677	-0.766798	-0.406161	99
Es	1.929655	-0.738524	-0.291633	99
Es	-1.312048	0.351777	0.108966	99
Es	-1.718656	0.894135	0.397996	99
Es	2.225772	-1.370823	-0.636698	99
Es	3.136463	-3.147024	-1.601779	99
Es	-1.738956	1.936682	1.033966	99
Es	0.433176	-0.731580	-0.704748	99
Es	2.487928	-2.499089	-1.308656	99
Es	2.509506	-1.922426	-0.936207	99
Es	2.196951	-0.148242	-0.621350	99
Es	2.950824	-2.243396	-1.379584	99
Es	0.288948	-0.272713	-0.129611	99
Es	1.059967	-0.740350	-0.352745	99
Es	2.126857	-0.742771	0.407966	99
Es	2.986182	-2.853482	-1.441866	99
39
Properties=species:S:1:pos:R:3:Z:I:1 energy=-338.75825939107335 field_type=dipole dipole="0.000000 0.000000 0.000000" charge=0
C	-2.152756	1.444638	0.687969	6
C	-1.312026	0.351748	0.108949	6
N	-0.024806	0.370608	0.228469	7
O	0.502444	-0.767062	-0.406321	8
C	1.929824	-0.738332	-0.291511	6
C	2.509654	-1.922722	-0.936371	6
N	2.986363	-2.853842	-1.442061	7
H	-2.868836	1.006908	1.388069	1
H	-2.705646	1.930718	-0.119861	1
H	-1.535066	2.181918	1.206379	1
H	-1.840306	-0.459282	-0.422971	1
H	2.203344	-0.717312	0.769389	1
H	2.307814	0.172018	-0.770131	1
Es	2.126956	-0.742952	0.408002	99
Es	2.575117	-2.611141	-1.054871	99
Es	0.222302	0.607542	0.390997	99
Es	0.431594	-0.734321	-0.704830	99
Es	1.929655	-0.738525	-0.291631	99
Es	2.986178	-2.853474	-1.441861	99
Es	-0.025148	0.370174	0.228175	99
Es	2.509514	-1.922422	-0.936210	99
Es	-1.666769	-0.189699	-0.246185	99
Es	-0.594328	0.212386	0.427047	99
Es	0.403018	-1.003171	-0.237115	99
Es	-0.552177	0.511504	-0.072532	99
Es	-1.312053	0.351777	0.108965	99
Es	3.037921	-2.340307	-1.080499	99
Es	2.693389	-2.322932	-1.492010	99
Es	-1.738951	1.936576	1.034017	99
Es	-2.152726	1.444571	0.687931	99
Es	1.060092	-0.740509	-0.353548	99
Es	-2.517378	1.759323	0.139943	99
Es	-2.627152	1.139989	1.151631	99
Es	0.502617	-0.766885	-0.406213	99
Es	-1.718709	0.894202	0.397984	99
Es	2.197016	-0.148208	-0.621371	99
Es	2.224976	-1.370880	-0.637159	99
Es	0.289207	-0.271914	-0.130512	99
Es	3.138195	-3.146704	-1.600137	99
39
Properties=species:S:1:pos:R:3:Z:I:1 energy=-338.75825939107335 field_type=dipole dipole="0.000000 0.000000 0.000000" charge=0
C	-2.152756	1.444638	0.687969	6
C	-1.312026	0.351748	0.108949	6
N	-0.024806	0.370608	0.228469	7
O	0.502444	-0.767062	-0.406321	8
C	1.929824	-0.738332	-0.291511	6
C	2.509654	-1.922722	-0.936371	6
N	2.986363	-2.853842	-1.442061	7
H	-2.868836	1.006908	1.388069	1
H	-2.705646	1.930718	-0.119861	1
H	-1.535066	2.181918	1.206379	1
H	-1.840306	-0.459282	-0.422971	1
H	2.203344	-0.717312	0.769389	1
H	2.307814	0.172018	-0.770131	1
Es	-1.718708	0.894205	0.398012	99
Es	-1.312047	0.351779	0.108961	99
Es	0.400964	-1.005072	-0.240244	99
Es	-0.594240	0.212493	0.427355	99
Es	-0.025126	0.370180	0.228188	99
Es	-0.552194	0.511484	-0.072562	99
Es	2.509508	-1.922426	-0.936208	99
Es	1.060164	-0.741300	-0.352245	99
Es	-2.517226	1.759245	0.139979	99
Es	1.929657	-0.738523	-0.291633	99
Es	3.136267	-3.146766	-1.601433	99
Es	-1.738917	1.936628	1.033948	99
Es	2.485253	-2.508385	-1.293863	99
Es	0.502684	-0.766774	-0.406165	99
Es	2.197080	-0.148170	-0.621412	99
Es	-2.152726	1.444570	0.687931	99
Es	0.221948	0.607481	0.390612	99
Es	-1.666795	-0.189753	-0.246125	99
Es	0.289156	-0.272360	-0.129547	99
Es	0.433838	-0.731305	-0.703894	99
Es	2.126972	-0.742973	0.407888	99
Es	2.883847	-2.521693	-0.939615	99
Es	2.225680	-1.370646	-0.636648	99
Es	-2.627311	1.140077	1.151662	99
Es	2.938444	-2.244515	-1.393066	99
Es	2.986182	-2.853484	-1.441868	99
39
Properties=species:S:1:pos:R:3:Z:I:1 energy=-338.75825939107335 field_type=dipole dipole="0.000000 0.000000 0.000000" charge=0
C	-2.152756	1.444638	0.687969	6
C	-1.312026	0.351748	0.108949	6
N	-0.024806	0.370608	0.228469	7
O	0.502444	-0.767062	-0.406321	8
C	1.929824	-0.738332	-0.291511	6
C	2.509654	-1.922722	-0.936371	6
N	2.986363	-2.853842	-1.442061	7
H	-2.868836	1.006908	1.388069	1
H	-2.705646	1.930718	-0.119861	1
H	-1.535066	2.181918	1.206379	1
H	-1.840306	-0.459282	-0.422971	1
H	2.203344	-0.717312	0.769389	1
H	2.307814	0.172018	-0.770131	1
Es	-0.025154	0.370187	0.228187	99
Es	-1.666692	-0.189779	-0.246123	99
Es	2.197140	-0.148160	-0.621485	99
Es	2.126990	-0.743027	0.407932	99
Es	-1.312049	0.351779	0.108963	99
Es	0.288803	-0.272359	-0.129553	99
Es	2.986177	-2.853471	-1.441860	99
Es	3.045543	-2.305866	-1.135343	99
Es	-2.627197	1.140067	1.151664	99
Es	0.502688	-0.766828	-0.406053	99
Es	0.402138	-1.003518	-0.239767	99
Es	0.222034	0.607531	0.390629	99
Es	2.623978	-2.616171	-1.011453	99
Es	2.637041	-2.352914	-1.480345	99
Es	1.929656	-0.738523	-0.291634	99
Es	1.060367	-0.741413	-0.352856	99
Es	0.432586	-0.732881	-0.704083	99
Es	-0.594175	0.212596	0.427241	99
Es	-1.738914	1.936560	1.033968	99
Es	-1.718801	0.894275	0.397995	99
Es	3.138172	-3.146013	-1.600605	99
Es	-2.517335	1.759327	0.139960	99
Es	2.224830	-1.370901	-0.636763	99
Es	-2.152726	1.444571	0.687931	99
Es	-0.552245	0.511355	-0.072329	99
Es	2.509500	-1.922428	-0.936211	99
39
Properties=species:S:1:pos:R:3:Z:I:1 energy=-338.75825939107335 field_type=dipole dipole="0.000000 0.000000 0.000000" charge=0
C	-2.152756	1.444638	0.687969	6
C	-1.312026	0.351748	0.108949	6
N	-0.024806	0.370608	0.228469	7
O	0.502444	-0.767062	-0.406321	8
C	1.929824	-0.738332	-0.291511	6
C	2.509654	-1.922722	-0.936371	6
N	2.986363	-2.853842	-1.442061	7
H	-2.868836	1.006908	1.388069	1
H	-2.705646	1.930718	-0.119861	1
H	-1.535066	2.181918	1.206379	1
H	-1.840306	-0.459282	-0.422971	1
H	2.203344	-0.717312	0.769389	1
H	2.307814	0.172018	-0.770131	1
Es	-1.666684	-0.189742	-0.246175	99
Es	2.986177	-2.853474	-1.441861	99
Es	-1.718782	0.894269	0.398135	99
Es	0.401348	-1.004216	-0.240741	99
Es	2.483568	-2.534577	-1.248457	99
Es	3.136196	-3.146697	-1.600500	99
Es	-2.517331	1.759270	0.139968	99
Es	-1.738940	1.936616	1.033969	99
Es	1.060304	-0.741744	-0.352500	99
Es	-0.552288	0.511470	-0.072317	99
Es	2.509506	-1.922421	-0.936206	99
Es	2.127007	-0.743041	0.407915	99
Es	-0.594082	0.212619	0.427292	99
Es	0.221751	0.607426	0.390505	99
Es	2.925645	-2.489156	-0.950470	99
Es	2.225631	-1.370405	-0.636765	99
Es	-1.312047	0.351775	0.108967	99
Es	0.502660	-0.766847	-0.406087	99
Es	-2.627205	1.140037	1.151656	99
Es	2.197117	-0.148229	-0.621359	99
Es	1.929661	-0.738520	-0.291631	99
Es	2.898506	-2.251035	-1.428423	99
Es	-2.152726	1.444571	0.687931	99
Es	-0.025150	0.370173	0.228180	99
Es	0.288879	-0.272102	-0.129578	99
Es	0.433635	-0.732022	-0.703438	99
39
Properties=species:S:1:pos:R:3:Z:I:1 energy=-338.75825939107335 field_type=dipole dipole="0.000000 0.000000 0.000000" charge=0
C	-2.152756	1.444638	0.687969	6
C	-1.312026	0.351748	0.108949	6
N	-0.024806	0.370608	0.228469	7
O	0.502444	-0.767062	-0.406321	8
C	1.929824	-0.738332	-0.291511	6
C	2.509654	-1.922722	-0.936371	6
N	2.986363	-2.853842	-1.442061	7
H	-2.868836	1.006908	1.388069	1
H	-2.705646	1.930718	-0.119861	1
H	-1.535066	2.181918	1.206379	1
H	-1.840306	-0.459282	-0.422971	1
H	2.203344	-0.717312	0.769389	1
H	2.307814	0.172018	-0.770131	1
Es	0.402074	-1.003615	-0.239863	99
Es	-1.718780	0.894450	0.397937	99
Es	2.197171	-0.148207	-0.621383	99
Es	0.288768	-0.271859	-0.130006	99
Es	1.060446	-0.741466	-0.353391	99
Es	-2.517351	1.759324	0.139985	99
Es	0.221672	0.607797	0.389923	99
Es	-1.738937	1.936566	1.033958	99
Es	-0.025139	0.370171	0.228185	99
Es	-0.552462	0.510951	-0.071921	99
Es	2.644338	-2.348736	-1.483127	99
Es	2.986177	-2.853471	-1.441863	99
Es	0.432879	-0.733299	-0.702972	99
Es	2.127037	-0.743152	0.407986	99
Es	2.509499	-1.922424	-0.936210	99
Es	-0.593945	0.212735	0.427705	99
Es	-1.666656	-0.189763	-0.246216	99
Es	1.929658	-0.738522	-0.291632	99
Es	3.045868	-2.310214	-1.127166	99
Es	2.616371	-2.616568	-1.017005	99
Es	3.138164	-3.145471	-1.600361	99
Es	0.502645	-0.766824	-0.406218	99
Es	-1.312044	0.351777	0.108966	99
Es	-2.627186	1.139987	1.151699	99
Es	2.224816	-1.370740	-0.636931	99
Es	-2.152727	1.444572	0.687930	99
39
Properties=species:S:1:pos:R:3:Z:I:1 energy=-338.75825939107335 field_type=dipole dipole="0.000000 0.000000 0.000000" charge=0
C	-2.152756	1.444638	0.687969	6
C	-1.312026	0.351748	0.108949	6
N	-0.024806	0.370608	0.228469	7
O	0.502444	-0.767062	-0.406321	8
C	1.929824	-0.738332	-0.291511	6
C	2.509654	-1.922722	-0.936371	6
N	2.986363	-2.853842	-1.442061	7
H	-2.868836	1.006908	1.388069	1
H	-2.705646	1.930718	-0.119861	1
H	-1.535066	2.181918	1.206379	1
H	-1.840306	-0.459282	-0.422971	1
H	2.203344	-0.717312	0.769389	1
H	2.307814	0.172018	-0.770131	1
Es	3.137918	-3.145184	-1.600471	99
Es	2.986202	-2.853518	-1.441886	99
Es	0.221393	0.607141	0.390423	99
Es	-1.738931	1.936552	1.033976	99
Es	2.509518	-1.922439	-0.936220	99
Es	-2.152726	1.444570	0.687931	99
Es	0.288784	-0.272022	-0.129489	99
Es	2.636339	-2.616353	-1.002665	99
Es	-0.025147	0.370178	0.228181	99
Es	-1.312047	0.351780	0.108962	99
Es	2.623542	-2.360971	-1.475905	99
Es	-1.718858	0.894325	0.398185	99
Es	0.432918	-0.733105	-0.702900	99
Es	-2.517312	1.759333	0.139945	99
Es	1.060535	-0.741888	-0.353137	99
Es	2.224866	-1.370682	-0.636699	99
Es	-0.594149	0.212705	0.427290	99
Es	-2.627217	1.140103	1.151647	99
Es	3.046818	-2.298417	-1.148749	99
Es	2.127114	-0.743126	0.407978	99
Es	-0.552127	0.511642	-0.072248	99
Es	1.929656	-0.738522	-0.291633	99
Es	0.402043	-1.003281	-0.240583	99
Es	0.502643	-0.766847	-0.406232	99
Es	2.197181	-0.148240	-0.621485	99
Es	-1.666601	-0.189736	-0.246205	99
39
Properties=species:S:1:pos:R:3:Z:I:1 energy=-338.75825939107335 field_type=dipole dipole="0.000000 0.000000 0.000000" charge=0
C	-2.152756	1.444638	0.687969	6
C	-1.312026	0.351748	0.108949	6
N	-0.024806	0.370608	0.228469	7
O	0.502444	-0.767062	-0.406321	8
C	1.929824	-0.738332	-0.291511	6
C	2.509654	-1.922722	-0.936371	6
N	2.986363	-2.853842	-1.442061	7
H	-2.868836	1.006908	1.388069	1
H	-2.705646	1.930718	-0.119861	1
H	-1.535066	2.181918	1.206379	1
H	-1.840306	-0.459282	-0.422971	1
H	2.203344	-0.717312	0.769389	1
H	2.307814	0.172018	-0.770131	1
Es	-2.152726	1.444570	0.687930	99
Es	2.509504	-1.922427	-0.936215	99
Es	0.288696	-0.272378	-0.128832	99
Es	-0.552337	0.511257	-0.072010	99
Es	3.037959	-2.343563	-1.075756	99
Es	2.224883	-1.370516	-0.636982	99
Es	-1.312047	0.351774	0.108973	99
Es	-1.738971	1.936565	1.034028	99
Es	-0.593943	0.212938	0.427477	99
Es	1.060523	-0.742855	-0.351913	99
Es	0.502639	-0.766867	-0.406136	99
Es	0.399563	-1.005536	-0.243845	99
Es	-1.666555	-0.189834	-0.246159	99
Es	1.929656	-0.738522	-0.291632	99
Es	2.570873	-2.611306	-1.058671	99
Es	-2.627270	1.140002	1.151617	99
Es	3.137774	-3.145609	-1.599579	99
Es	-2.517261	1.759341	0.140003	99
Es	-1.718843	0.894490	0.398038	99
Es	0.221243	0.607404	0.390022	99
Es	0.435603	-0.729601	-0.701633	99
Es	2.986178	-2.853476	-1.441862	99
Es	2.698038	-2.320651	-1.493517	99
Es	-0.025140	0.370173	0.228180	99
Es	2.197199	-0.148207	-0.621454	99
Es	2.127115	-0.743170	0.407938	99
