49
Properties=species:S:1:pos:R:3:Z:I:1 energy=-326.3176136475543 field_type=dipole dipole="0.000000 0.000000 0.000000" charge=0
C	-2.542522	0.563538	-1.944252	6
C	-1.689902	-0.584582	-1.442402	6
O	-0.568712	-0.046162	-0.744452	8
C	0.257558	-1.085382	-0.204652	6
C	1.450798	-0.457852	0.528138	6
N	0.996618	0.302968	1.701168	7
C	2.102748	1.009618	2.328598	6
H	-3.408242	0.192118	-2.499662	1
H	-1.959572	1.221978	-2.596272	1
H	-2.895902	1.174468	-1.107332	1
H	-1.340512	-1.186692	-2.288762	1
H	-2.278622	-1.217872	-0.769632	1
H	0.626538	-1.712212	-1.024102	1
H	-0.328732	-1.707282	0.481128	1
H	1.978688	0.210188	-0.163562	1
H	2.136468	-1.251492	0.844668	1
H	0.295238	0.974268	1.377018	1
H	2.572018	1.719878	1.640458	1
H	2.861708	0.308898	2.691688	1
H	1.734338	1.571608	3.192218	1
Es	2.623238	0.527090	2.569257	99
Es	1.208899	-0.008734	1.179002	99
Es	0.257457	-1.085194	-0.204737	99
Es	-0.397158	0.096864	-0.956940	99
Es	-1.448884	-1.006522	-2.026540	99
Es	1.851282	1.397189	2.916266	99
Es	-3.130033	0.302020	-2.321433	99
Es	-1.689741	-0.584467	-1.442301	99
Es	-0.684505	0.104764	-0.500805	99
Es	-0.276099	-0.461256	-0.552099	99
Es	-2.542518	0.563508	-1.944249	99
Es	0.596540	0.720137	1.496118	99
Es	0.848887	0.078373	1.934287	99
Es	-2.118681	-0.008875	-1.695445	99
Es	-0.982334	-0.280760	-1.000154	99
Es	2.432834	1.499265	1.849903	99
Es	1.450715	-0.457816	0.528227	99
Es	-0.568780	-0.046465	-0.744444	99
Es	-2.785485	0.972535	-1.373479	99
Es	0.512845	-1.522270	-0.771748	99
Es	1.490232	0.623958	1.949676	99
Es	1.818893	-0.002247	0.046206	99
Es	2.102657	1.009559	2.328547	99
Es	1.919869	-1.003897	0.743638	99
Es	-2.095394	-1.027190	-0.978606	99
Es	-0.146144	-1.516417	0.264015	99
Es	-2.145941	1.004399	-2.391152	99
Es	0.996908	0.303359	1.700743	99
Es	0.848652	-0.769922	0.162696	99
49
Properties=species:S:1:pos:R:3:Z:I:1 energy=-326.3176136475543 field_type=dipole dipole="0.000000 0.000000 0.000000" charge=0
C	-2.542522	0.563538	-1.944252	6
C	-1.689902	-0.584582	-1.442402	6
O	-0.568712	-0.046162	-0.744452	8
C	0.257558	-1.085382	-0.204652	6
C	1.450798	-0.457852	0.528138	6
N	0.996618	0.302968	1.701168	7
C	2.102748	1.009618	2.328598	6
H	-3.408242	0.192118	-2.499662	1
H	-1.959572	1.221978	-2.596272	1
H	-2.895902	1.174468	-1.107332	1
H	-1.340512	-1.186692	-2.288762	1
H	-2.278622	-1.217872	-0.769632	1
H	0.626538	-1.712212	-1.024102	1
H	-0.328732	-1.707282	0.481128	1
H	1.978688	0.210188	-0.163562	1
H	2.136468	-1.251492	0.844668	1
H	0.295238	0.974268	1.377018	1
H	2.572018	1.719878	1.640458	1
H	2.861708	0.308898	2.691688	1
H	1.734338	1.571608	3.192218	1
Es	0.595762	0.720041	1.496810	99
Es	-2.785483	0.972472	-1.373491	99
Es	2.623362	0.527154	2.569288	99
Es	-2.145973	1.004458	-2.391073	99
Es	1.450715	-0.457815	0.528227	99
Es	1.851250	1.397145	2.916208	99
Es	1.818968	-0.002317	0.046298	99
Es	-0.397526	0.097573	-0.955686	99
Es	1.208752	-0.008231	1.178784	99
Es	2.432716	1.499337	1.849918	99
Es	-2.118629	-0.008971	-1.695441	99
Es	-1.448915	-1.006550	-2.026570	99
Es	-2.542517	0.563508	-1.944249	99
Es	0.257459	-1.085196	-0.204734	99
Es	0.848619	-0.769737	0.162670	99
Es	1.490420	0.623819	1.949622	99
Es	-0.685337	0.104088	-0.500977	99
Es	2.102655	1.009557	2.328545	99
Es	0.849717	0.078063	1.933916	99
Es	-0.275456	-0.460784	-0.551976	99
Es	0.996891	0.303334	1.700765	99
Es	-1.689740	-0.584468	-1.442302	99
Es	0.512887	-1.522213	-0.771676	99
Es	1.919771	-1.004083	0.743571	99
Es	-3.130049	0.302078	-2.321476	99
Es	-0.568760	-0.046491	-0.744461	99
Es	-0.146142	-1.516471	0.263937	99
Es	-2.095411	-1.027139	-0.978655	99
Es	-0.981794	-0.281172	-1.001345	99
49
Properties=species:S:1:pos:R:3:Z:I:1 energy=-326.3176136475543 field_type=dipole dipole="0.000000 0.000000 0.000000" charge=0
C	-2.542522	0.563538	-1.944252	6
C	-1.689902	-0.584582	-1.442402	6
O	-0.568712	-0.046162	-0.744452	8
C	0.257558	-1.085382	-0.204652	6
C	1.450798	-0.457852	0.528138	6
N	0.996618	0.302968	1.701168	7
C	2.102748	1.009618	2.328598	6
H	-3.408242	0.192118	-2.499662	1
H	-1.959572	1.221978	-2.596272	1
H	-2.895902	1.174468	-1.107332	1
H	-1.340512	-1.186692	-2.288762	1
H	-2.278622	-1.217872	-0.769632	1
H	0.626538	-1.712212	-1.024102	1
H	-0.328732	-1.707282	0.481128	1
H	1.978688	0.210188	-0.163562	1
H	2.136468	-1.251492	0.844668	1
H	0.295238	0.974268	1.377018	1
H	2.572018	1.719878	1.640458	1
H	2.861708	0.308898	2.691688	1
H	1.734338	1.571608	3.192218	1
Es	-0.682103	0.108932	-0.501665	99
Es	2.102654	1.009556	2.328545	99
Es	0.848684	-0.769785	0.162615	99
Es	-1.448921	-1.006567	-2.026477	99
Es	1.208676	-0.009450	1.179160	99
Es	0.996887	0.303322	1.700793	99
Es	1.450716	-0.457816	0.528226	99
Es	-0.568754	-0.046468	-0.744427	99
Es	-1.689738	-0.584467	-1.442300	99
Es	-0.983780	-0.280754	-0.998219	99
Es	-3.130035	0.302114	-2.321407	99
Es	-0.276260	-0.461126	-0.551471	99
Es	1.851337	1.397199	2.916253	99
Es	-0.146083	-1.516506	0.263942	99
Es	0.848841	0.079200	1.934078	99
Es	-2.542517	0.563508	-1.944249	99
Es	1.490317	0.623890	1.949763	99
Es	-0.398028	0.092565	-0.958641	99
Es	0.596693	0.720189	1.496080	99
Es	0.512858	-1.522187	-0.771648	99
Es	1.919734	-1.004038	0.743564	99
Es	0.257458	-1.085196	-0.204735	99
Es	-2.785488	0.972505	-1.373575	99
Es	-2.145979	1.004450	-2.391139	99
Es	-2.095350	-1.027146	-0.978710	99
Es	2.623265	0.527093	2.569246	99
Es	1.819005	-0.002339	0.046288	99
Es	2.432824	1.499243	1.849969	99
Es	-2.118701	-0.008932	-1.695414	99
49
Properties=species:S:1:pos:R:3:Z:I:1 energy=-326.3176136475543 field_type=dipole dipole="0.000000 0.000000 0.000000" charge=0
C	-2.542522	0.563538	-1.944252	6
C	-1.689902	-0.584582	-1.442402	6
O	-0.568712	-0.046162	-0.744452	8
C	0.257558	-1.085382	-0.204652	6
C	1.450798	-0.457852	0.528138	6
N	0.996618	0.302968	1.701168	7
C	2.102748	1.009618	2.328598	6
H	-3.408242	0.192118	-2.499662	1
H	-1.959572	1.221978	-2.596272	1
H	-2.895902	1.174468	-1.107332	1
H	-1.340512	-1.186692	-2.288762	1
H	-2.278622	-1.217872	-0.769632	1
H	0.626538	-1.712212	-1.024102	1
H	-0.328732	-1.707282	0.481128	1
H	1.978688	0.210188	-0.163562	1
H	2.136468	-1.251492	0.844668	1
H	0.295238	0.974268	1.377018	1
H	2.572018	1.719878	1.640458	1
H	2.861708	0.308898	2.691688	1
H	1.734338	1.571608	3.192218	1
Es	1.919715	-1.004115	0.743624	99
Es	0.996900	0.303352	1.700744	99
Es	-0.275477	-0.461048	-0.551659	99
Es	-2.118715	-0.008981	-1.695451	99
Es	-0.568743	-0.046550	-0.744548	99
Es	-0.146093	-1.516467	0.263857	99
Es	0.257459	-1.085196	-0.204735	99
Es	-1.448926	-1.006575	-2.026443	99
Es	-0.397798	0.097000	-0.956137	99
Es	1.819057	-0.002414	0.046378	99
Es	2.623307	0.527145	2.569264	99
Es	-2.145998	1.004437	-2.391135	99
Es	0.596680	0.719905	1.495950	99
Es	1.208835	-0.008930	1.179150	99
Es	-0.982881	-0.280790	-1.000300	99
Es	1.851353	1.397212	2.916223	99
Es	2.432799	1.499227	1.850018	99
Es	-2.542517	0.563508	-1.944249	99
Es	-0.684008	0.104596	-0.501821	99
Es	1.450717	-0.457816	0.528224	99
Es	-2.095328	-1.027152	-0.978708	99
Es	-2.785498	0.972523	-1.373569	99
Es	0.848748	-0.769698	0.162597	99
Es	2.102655	1.009557	2.328546	99
Es	1.490173	0.624164	1.949663	99
Es	0.512818	-1.522218	-0.771607	99
Es	-3.130022	0.302114	-2.321411	99
Es	0.848742	0.078668	1.934283	99
Es	-1.689742	-0.584470	-1.442303	99
49
Properties=species:S:1:pos:R:3:Z:I:1 energy=-326.3176136475543 field_type=dipole dipole="0.000000 0.000000 0.000000" charge=0
C	-2.542522	0.563538	-1.944252	6
C	-1.689902	-0.584582	-1.442402	6
O	-0.568712	-0.046162	-0.744452	8
C	0.257558	-1.085382	-0.204652	6
C	1.450798	-0.457852	0.528138	6
N	0.996618	0.302968	1.701168	7
C	2.102748	1.009618	2.328598	6
H	-3.408242	0.192118	-2.499662	1
H	-1.959572	1.221978	-2.596272	1
H	-2.895902	1.174468	-1.107332	1
H	-1.340512	-1.186692	-2.288762	1
H	-2.278622	-1.217872	-0.769632	1
H	0.626538	-1.712212	-1.024102	1
H	-0.328732	-1.707282	0.481128	1
H	1.978688	0.210188	-0.163562	1
H	2.136468	-1.251492	0.844668	1
H	0.295238	0.974268	1.377018	1
H	2.572018	1.719878	1.640458	1
H	2.861708	0.308898	2.691688	1
H	1.734338	1.571608	3.192218	1
Es	2.623305	0.527156	2.569355	99
Es	0.996897	0.303351	1.700752	99
Es	1.851351	1.397172	2.916136	99
Es	-2.785423	0.972572	-1.373588	99
Es	-0.983007	-0.280839	-1.000047	99
Es	-1.689741	-0.584470	-1.442305	99
Es	-2.146005	1.004383	-2.391167	99
Es	1.919741	-1.003956	0.743552	99
Es	0.257460	-1.085198	-0.204734	99
Es	1.450716	-0.457815	0.528226	99
Es	2.102652	1.009555	2.328544	99
Es	0.512749	-1.522273	-0.771577	99
Es	-2.118805	-0.009075	-1.695496	99
Es	-0.683748	0.105263	-0.502151	99
Es	1.208733	-0.008895	1.179005	99
Es	1.490198	0.624112	1.949489	99
Es	1.819017	-0.002422	0.046361	99
Es	-0.568761	-0.046529	-0.744499	99
Es	0.596013	0.719847	1.496526	99
Es	0.849500	0.078740	1.934024	99
Es	-0.275384	-0.460939	-0.551338	99
Es	-0.146063	-1.516411	0.263865	99
Es	-3.130062	0.302209	-2.321360	99
Es	-2.542518	0.563508	-1.944250	99
Es	0.848762	-0.769878	0.162586	99
Es	2.432842	1.499264	1.850084	99
Es	-2.095275	-1.027175	-0.978729	99
Es	-0.397974	0.096306	-0.956450	99
Es	-1.448961	-1.006573	-2.026370	99
49
Properties=species:S:1:pos:R:3:Z:I:1 energy=-326.3176136475543 field_type=dipole dipole="0.000000 0.000000 0.000000" charge=0
C	-2.542522	0.563538	-1.944252	6
C	-1.689902	-0.584582	-1.442402	6
O	-0.568712	-0.046162	-0.744452	8
C	0.257558	-1.085382	-0.204652	6
C	1.450798	-0.457852	0.528138	6
N	0.996618	0.302968	1.701168	7
C	2.102748	1.009618	2.328598	6
H	-3.408242	0.192118	-2.499662	1
H	-1.959572	1.221978	-2.596272	1
H	-2.895902	1.174468	-1.107332	1
H	-1.340512	-1.186692	-2.288762	1
H	-2.278622	-1.217872	-0.769632	1
H	0.626538	-1.712212	-1.024102	1
H	-0.328732	-1.707282	0.481128	1
H	1.978688	0.210188	-0.163562	1
H	2.136468	-1.251492	0.844668	1
H	0.295238	0.974268	1.377018	1
H	2.572018	1.719878	1.640458	1
H	2.861708	0.308898	2.691688	1
H	1.734338	1.571608	3.192218	1
Es	-0.683559	0.105869	-0.502100	99
Es	-1.689744	-0.584471	-1.442304	99
Es	-2.146044	1.004449	-2.391146	99
Es	0.849787	0.078879	1.933994	99
Es	-0.275359	-0.461066	-0.551440	99
Es	1.819076	-0.002409	0.046351	99
Es	-0.398190	0.095486	-0.955799	99
Es	-2.095256	-1.027154	-0.978792	99
Es	0.848751	-0.769891	0.162670	99
Es	-3.129984	0.302153	-2.321386	99
Es	-2.542518	0.563508	-1.944250	99
Es	0.595808	0.719768	1.496735	99
Es	-0.568782	-0.046477	-0.744408	99
Es	1.919676	-1.003903	0.743523	99
Es	0.996875	0.303302	1.700794	99
Es	1.208637	-0.009004	1.178964	99
Es	0.257460	-1.085199	-0.204734	99
Es	2.102657	1.009559	2.328547	99
Es	-1.448963	-1.006590	-2.026348	99
Es	2.623313	0.527193	2.569275	99
Es	1.490232	0.624154	1.949358	99
Es	2.432812	1.499209	1.850085	99
Es	1.851400	1.397214	2.916201	99
Es	0.512760	-1.522248	-0.771569	99
Es	-2.785530	0.972533	-1.373606	99
Es	-2.118765	-0.009014	-1.695480	99
Es	-0.146032	-1.516436	0.263772	99
Es	-0.983025	-0.280611	-1.000687	99
Es	1.450716	-0.457815	0.528226	99
49
Properties=species:S:1:pos:R:3:Z:I:1 energy=-326.3176136475543 field_type=dipole dipole="0.000000 0.000000 0.000000" charge=0
C	-2.542522	0.563538	-1.944252	6
C	-1.689902	-0.584582	-1.442402	6
O	-0.568712	-0.046162	-0.744452	8
C	0.257558	-1.085382	-0.204652	6
C	1.450798	-0.457852	0.528138	6
N	0.996618	0.302968	1.701168	7
C	2.102748	1.009618	2.328598	6
H	-3.408242	0.192118	-2.499662	1
H	-1.959572	1.221978	-2.596272	1
H	-2.895902	1.174468	-1.107332	1
H	-1.340512	-1.186692	-2.288762	1
H	-2.278622	-1.217872	-0.769632	1
H	0.626538	-1.712212	-1.024102	1
H	-0.328732	-1.707282	0.481128	1
H	1.978688	0.210188	-0.163562	1
H	2.136468	-1.251492	0.844668	1
H	0.295238	0.974268	1.377018	1
H	2.572018	1.719878	1.640458	1
H	2.861708	0.308898	2.691688	1
H	1.734338	1.571608	3.192218	1
Es	-1.689744	-0.584470	-1.442303	99
Es	2.432828	1.499140	1.850072	99
Es	0.257458	-1.085196	-0.204734	99
Es	0.595836	0.719833	1.496739	99
Es	1.851476	1.397259	2.916279	99
Es	2.102660	1.009560	2.328550	99
Es	0.512772	-1.522217	-0.771499	99
Es	-2.785443	0.972535	-1.373557	99
Es	-0.398516	0.095685	-0.955494	99
Es	-2.542517	0.563508	-1.944249	99
Es	-1.448922	-1.006596	-2.026269	99
Es	-3.130047	0.302166	-2.321354	99
Es	-2.095271	-1.027168	-0.978808	99
Es	1.919744	-1.003893	0.743448	99
Es	-0.274925	-0.461011	-0.551666	99
Es	0.996865	0.303331	1.700779	99
Es	2.623275	0.527277	2.569197	99
Es	0.848797	-0.769915	0.162581	99
Es	-0.568786	-0.046506	-0.744463	99
Es	1.490116	0.623962	1.949604	99
Es	1.208688	-0.008935	1.179004	99
Es	-0.146090	-1.516472	0.263754	99
Es	0.849746	0.078927	1.933813	99
Es	1.819002	-0.002510	0.046445	99
Es	-2.118722	-0.008960	-1.695640	99
Es	-2.146101	1.004434	-2.391153	99
Es	-0.683573	0.105701	-0.502086	99
Es	-0.983109	-0.280665	-1.000768	99
Es	1.450717	-0.457816	0.528226	99
