42
Properties=species:S:1:pos:R:3:Z:I:1 energy=-339.88486464318044 field_type=dipole dipole="0.000000 0.000000 0.000000" charge=0
C	-2.300728	-0.350537	0.291911	6
N	-0.884908	-0.515637	0.608791	7
C	-0.159279	-1.298957	-0.383269	6
C	0.000841	0.202693	-0.314179	6
C	1.199192	0.777593	0.322511	6
N	2.263881	0.893343	-0.400489	7
O	3.278412	1.463023	0.378821	8
H	-2.680728	0.555483	0.775051	1
H	-2.866108	-1.200077	0.688571	1
H	-2.518619	-0.274867	-0.780479	1
H	-0.702538	-1.720437	-1.219979	1
H	0.646461	-1.917697	-0.005709	1
H	-0.448598	0.801713	-1.097619	1
H	1.142802	1.094343	1.378631	1
H	4.029922	1.490013	-0.242559	1
Es	-0.885009	-0.515599	0.608148	99
Es	-2.300596	-0.350551	0.291931	99
Es	-0.537012	-1.581174	-0.948579	99
Es	3.181445	1.748691	0.434262	99
Es	-0.548839	-0.072173	0.245846	99
Es	-2.556632	0.269634	0.617187	99
Es	-0.159368	-1.298758	-0.383147	99
Es	0.079148	-0.537863	-0.508333	99
Es	0.000752	0.202537	-0.314020	99
Es	2.344798	0.805740	-0.761572	99
Es	2.836116	1.215330	0.038191	99
Es	-0.305042	0.609183	-0.836662	99
Es	0.603381	0.493071	0.008968	99
Es	-1.491796	-0.444029	0.435419	99
Es	-2.683603	-0.931428	0.558032	99
Es	1.160938	0.987979	1.023886	99
Es	1.708624	1.108631	-0.165322	99
Es	1.199167	0.777573	0.322483	99
Es	-2.436919	-0.299391	-0.451701	99
Es	3.278440	1.462958	0.378471	99
Es	3.678546	1.474806	0.042315	99
Es	3.332521	1.254747	0.598729	99
Es	-0.780305	-0.532844	0.948729	99
Es	1.879940	0.577112	0.002238	99
Es	2.263815	0.893518	-0.399891	99
Es	-0.646044	-0.979297	0.212379	99
Es	0.383778	-1.719217	-0.128294	99
42
Properties=species:S:1:pos:R:3:Z:I:1 energy=-339.88486464318044 field_type=dipole dipole="0.000000 0.000000 0.000000" charge=0
C	-2.300728	-0.350537	0.291911	6
N	-0.884908	-0.515637	0.608791	7
C	-0.159279	-1.298957	-0.383269	6
C	0.000841	0.202693	-0.314179	6
C	1.199192	0.777593	0.322511	6
N	2.263881	0.893343	-0.400489	7
O	3.278412	1.463023	0.378821	8
H	-2.680728	0.555483	0.775051	1
H	-2.866108	-1.200077	0.688571	1
H	-2.518619	-0.274867	-0.780479	1
H	-0.702538	-1.720437	-1.219979	1
H	0.646461	-1.917697	-0.005709	1
H	-0.448598	0.801713	-1.097619	1
H	1.142802	1.094343	1.378631	1
H	4.029922	1.490013	-0.242559	1
Es	0.079278	-0.537692	-0.508537	99
Es	0.603196	0.493216	0.008869	99
Es	3.278432	1.462934	0.378490	99
Es	1.160974	0.987996	1.023866	99
Es	3.181322	1.748766	0.434701	99
Es	-2.556667	0.269656	0.617168	99
Es	1.879850	0.577308	0.002247	99
Es	3.332380	1.255225	0.598036	99
Es	2.263823	0.893519	-0.399898	99
Es	2.344799	0.805453	-0.761451	99
Es	1.199162	0.777580	0.322481	99
Es	-0.646071	-0.979647	0.212280	99
Es	-2.300598	-0.350551	0.291931	99
Es	-0.885011	-0.515600	0.608127	99
Es	-0.548738	-0.071616	0.246449	99
Es	2.836163	1.214809	0.038133	99
Es	-0.159375	-1.298761	-0.383141	99
Es	-1.491630	-0.444255	0.435596	99
Es	-2.436830	-0.299355	-0.451641	99
Es	-2.683687	-0.931412	0.557909	99
Es	1.708651	1.108598	-0.165485	99
Es	-0.536831	-1.581207	-0.948644	99
Es	3.678868	1.474794	0.042684	99
Es	0.383779	-1.719043	-0.128366	99
Es	-0.305046	0.609218	-0.836427	99
Es	-0.780703	-0.533292	0.948338	99
Es	0.000752	0.202540	-0.314020	99
42
Properties=species:S:1:pos:R:3:Z:I:1 energy=-339.88486464318044 field_type=dipole dipole="0.000000 0.000000 0.000000" charge=0
C	-2.300728	-0.350537	0.291911	6
N	-0.884908	-0.515637	0.608791	7
C	-0.159279	-1.298957	-0.383269	6
C	0.000841	0.202693	-0.314179	6
C	1.199192	0.777593	0.322511	6
N	2.263881	0.893343	-0.400489	7
O	3.278412	1.463023	0.378821	8
H	-2.680728	0.555483	0.775051	1
H	-2.866108	-1.200077	0.688571	1
H	-2.518619	-0.274867	-0.780479	1
H	-0.702538	-1.720437	-1.219979	1
H	0.646461	-1.917697	-0.005709	1
H	-0.448598	0.801713	-1.097619	1
H	1.142802	1.094343	1.378631	1
H	4.029922	1.490013	-0.242559	1
Es	3.678741	1.476537	0.042173	99
Es	-0.305000	0.609243	-0.836333	99
Es	2.263814	0.893516	-0.399894	99
Es	0.000749	0.202532	-0.314018	99
Es	-2.556649	0.269661	0.617107	99
Es	-0.885012	-0.515598	0.608143	99
Es	-0.159371	-1.298752	-0.383144	99
Es	-0.548511	-0.071668	0.246576	99
Es	-0.646087	-0.980060	0.212653	99
Es	-2.300602	-0.350550	0.291931	99
Es	-0.780865	-0.532938	0.947870	99
Es	-0.536876	-1.581254	-0.948440	99
Es	0.079451	-0.537718	-0.508877	99
Es	1.879778	0.577409	0.002192	99
Es	3.180941	1.748204	0.438239	99
Es	0.383609	-1.719126	-0.128352	99
Es	2.344607	0.805383	-0.761137	99
Es	-2.436820	-0.299380	-0.451637	99
Es	-1.491710	-0.443896	0.435687	99
Es	1.708637	1.108575	-0.165636	99
Es	-2.683707	-0.931431	0.557964	99
Es	3.278481	1.462799	0.378483	99
Es	2.836255	1.215324	0.037833	99
Es	1.199157	0.777573	0.322486	99
Es	1.161028	0.987942	1.023919	99
Es	0.603197	0.493101	0.008713	99
Es	3.333007	1.253756	0.595189	99
42
Properties=species:S:1:pos:R:3:Z:I:1 energy=-339.88486464318044 field_type=dipole dipole="0.000000 0.000000 0.000000" charge=0
C	-2.300728	-0.350537	0.291911	6
N	-0.884908	-0.515637	0.608791	7
C	-0.159279	-1.298957	-0.383269	6
C	0.000841	0.202693	-0.314179	6
C	1.199192	0.777593	0.322511	6
N	2.263881	0.893343	-0.400489	7
O	3.278412	1.463023	0.378821	8
H	-2.680728	0.555483	0.775051	1
H	-2.866108	-1.200077	0.688571	1
H	-2.518619	-0.274867	-0.780479	1
H	-0.702538	-1.720437	-1.219979	1
H	0.646461	-1.917697	-0.005709	1
H	-0.448598	0.801713	-1.097619	1
H	1.142802	1.094343	1.378631	1
H	4.029922	1.490013	-0.242559	1
Es	2.835396	1.215526	0.037824	99
Es	-1.491771	-0.444187	0.435892	99
Es	0.000751	0.202536	-0.314019	99
Es	1.879778	0.577601	0.002238	99
Es	-0.548541	-0.071176	0.246634	99
Es	-0.159374	-1.298755	-0.383142	99
Es	-2.683712	-0.931452	0.557832	99
Es	0.079614	-0.537719	-0.509000	99
Es	-0.536819	-1.581246	-0.948336	99
Es	-2.300598	-0.350551	0.291931	99
Es	3.182240	1.747689	0.434375	99
Es	0.383564	-1.719094	-0.128454	99
Es	-0.645865	-0.980569	0.213182	99
Es	3.679447	1.474521	0.043013	99
Es	1.161007	0.988018	1.023894	99
Es	-0.781110	-0.532662	0.947179	99
Es	2.344603	0.805338	-0.761281	99
Es	-2.556737	0.269660	0.617133	99
Es	3.278447	1.462952	0.378473	99
Es	2.263828	0.893520	-0.399900	99
Es	1.708710	1.108364	-0.165566	99
Es	1.199161	0.777576	0.322484	99
Es	-2.436801	-0.299344	-0.451547	99
Es	3.331838	1.256006	0.598323	99
Es	0.603065	0.493069	0.008684	99
Es	-0.304863	0.609163	-0.836297	99
Es	-0.885013	-0.515599	0.608144	99
42
Properties=species:S:1:pos:R:3:Z:I:1 energy=-339.88486464318044 field_type=dipole dipole="0.000000 0.000000 0.000000" charge=0
C	-2.300728	-0.350537	0.291911	6
N	-0.884908	-0.515637	0.608791	7
C	-0.159279	-1.298957	-0.383269	6
C	0.000841	0.202693	-0.314179	6
C	1.199192	0.777593	0.322511	6
N	2.263881	0.893343	-0.400489	7
O	3.278412	1.463023	0.378821	8
H	-2.680728	0.555483	0.775051	1
H	-2.866108	-1.200077	0.688571	1
H	-2.518619	-0.274867	-0.780479	1
H	-0.702538	-1.720437	-1.219979	1
H	0.646461	-1.917697	-0.005709	1
H	-0.448598	0.801713	-1.097619	1
H	1.142802	1.094343	1.378631	1
H	4.029922	1.490013	-0.242559	1
Es	3.278438	1.462962	0.378479	99
Es	-2.436843	-0.299266	-0.451580	99
Es	0.602959	0.493038	0.008668	99
Es	-2.300596	-0.350550	0.291933	99
Es	1.708675	1.108335	-0.165646	99
Es	-0.159370	-1.298754	-0.383146	99
Es	-2.683696	-0.931447	0.557816	99
Es	2.835885	1.214934	0.037875	99
Es	-2.556718	0.269587	0.617200	99
Es	1.161020	0.988031	1.023890	99
Es	1.199161	0.777575	0.322484	99
Es	-0.548492	-0.071532	0.246183	99
Es	3.332592	1.255524	0.597291	99
Es	-0.646168	-0.981080	0.213767	99
Es	0.079890	-0.537460	-0.509363	99
Es	0.383454	-1.719108	-0.128457	99
Es	2.263803	0.893512	-0.399896	99
Es	-0.304828	0.609241	-0.836126	99
Es	3.181575	1.747376	0.435662	99
Es	-0.885010	-0.515599	0.608150	99
Es	3.679155	1.475916	0.042662	99
Es	-0.536744	-1.581249	-0.948249	99
Es	1.879775	0.577440	0.002050	99
Es	-0.781191	-0.532151	0.947064	99
Es	2.344398	0.805521	-0.760960	99
Es	0.000752	0.202533	-0.314021	99
Es	-1.491631	-0.444147	0.435957	99
42
Properties=species:S:1:pos:R:3:Z:I:1 energy=-339.88486464318044 field_type=dipole dipole="0.000000 0.000000 0.000000" charge=0
C	-2.300728	-0.350537	0.291911	6
N	-0.884908	-0.515637	0.608791	7
C	-0.159279	-1.298957	-0.383269	6
C	0.000841	0.202693	-0.314179	6
C	1.199192	0.777593	0.322511	6
N	2.263881	0.893343	-0.400489	7
O	3.278412	1.463023	0.378821	8
H	-2.680728	0.555483	0.775051	1
H	-2.866108	-1.200077	0.688571	1
H	-2.518619	-0.274867	-0.780479	1
H	-0.702538	-1.720437	-1.219979	1
H	0.646461	-1.917697	-0.005709	1
H	-0.448598	0.801713	-1.097619	1
H	1.142802	1.094343	1.378631	1
H	4.029922	1.490013	-0.242559	1
Es	0.602828	0.493109	0.008608	99
Es	0.080158	-0.537489	-0.509641	99
Es	-2.300598	-0.350551	0.291931	99
Es	-2.683686	-0.931400	0.557780	99
Es	-0.885005	-0.515598	0.608181	99
Es	3.278487	1.462812	0.378502	99
Es	-2.436805	-0.299370	-0.451535	99
Es	-0.780948	-0.532868	0.946555	99
Es	-1.491753	-0.444213	0.436633	99
Es	1.199162	0.777575	0.322483	99
Es	-0.536758	-1.581298	-0.948137	99
Es	-2.556817	0.269624	0.617129	99
Es	3.181853	1.746991	0.433941	99
Es	2.835910	1.214852	0.037766	99
Es	0.000752	0.202533	-0.314020	99
Es	-0.646089	-0.980663	0.213131	99
Es	-0.304784	0.609161	-0.836064	99
Es	2.263812	0.893515	-0.399895	99
Es	3.679858	1.475062	0.043058	99
Es	1.161044	0.988032	1.023879	99
Es	0.383373	-1.719101	-0.128487	99
Es	1.708628	1.108372	-0.165744	99
Es	-0.548767	-0.071084	0.246867	99
Es	-0.159370	-1.298754	-0.383146	99
Es	3.331757	1.257034	0.598596	99
Es	1.879784	0.577336	0.001955	99
Es	2.344215	0.805562	-0.760635	99
42
Properties=species:S:1:pos:R:3:Z:I:1 energy=-339.88486464318044 field_type=dipole dipole="0.000000 0.000000 0.000000" charge=0
C	-2.300728	-0.350537	0.291911	6
N	-0.884908	-0.515637	0.608791	7
C	-0.159279	-1.298957	-0.383269	6
C	0.000841	0.202693	-0.314179	6
C	1.199192	0.777593	0.322511	6
N	2.263881	0.893343	-0.400489	7
O	3.278412	1.463023	0.378821	8
H	-2.680728	0.555483	0.775051	1
H	-2.866108	-1.200077	0.688571	1
H	-2.518619	-0.274867	-0.780479	1
H	-0.702538	-1.720437	-1.219979	1
H	0.646461	-1.917697	-0.005709	1
H	-0.448598	0.801713	-1.097619	1
H	1.142802	1.094343	1.378631	1
H	4.029922	1.490013	-0.242559	1
Es	3.181796	1.747672	0.438612	99
Es	3.332494	1.255003	0.594307	99
Es	-2.683685	-0.931425	0.557745	99
Es	1.199167	0.777568	0.322484	99
Es	-1.491728	-0.444176	0.436535	99
Es	1.161126	0.988053	1.023866	99
Es	2.835788	1.215213	0.037514	99
Es	3.278449	1.462934	0.378501	99
Es	-0.536740	-1.581272	-0.948074	99
Es	-2.556808	0.269632	0.617170	99
Es	-0.548631	-0.070717	0.247226	99
Es	-2.436833	-0.299327	-0.451497	99
Es	-0.645948	-0.981062	0.213240	99
Es	-2.300600	-0.350551	0.291931	99
Es	-0.159371	-1.298753	-0.383144	99
Es	2.344035	0.805608	-0.760664	99
Es	-0.781245	-0.532868	0.946228	99
Es	3.679469	1.475963	0.042921	99
Es	1.879735	0.577442	0.001892	99
Es	1.708699	1.108182	-0.165667	99
Es	0.383256	-1.719113	-0.128567	99
Es	0.080301	-0.537523	-0.509704	99
Es	-0.885006	-0.515600	0.608147	99
Es	-0.304752	0.609130	-0.835975	99
Es	0.602708	0.493125	0.008580	99
Es	2.263818	0.893517	-0.399896	99
Es	0.000750	0.202530	-0.314020	99
42
Properties=species:S:1:pos:R:3:Z:I:1 energy=-339.88486464318044 field_type=dipole dipole="0.000000 0.000000 0.000000" charge=0
C	-2.300728	-0.350537	0.291911	6
N	-0.884908	-0.515637	0.608791	7
C	-0.159279	-1.298957	-0.383269	6
C	0.000841	0.202693	-0.314179	6
C	1.199192	0.777593	0.322511	6
N	2.263881	0.893343	-0.400489	7
O	3.278412	1.463023	0.378821	8
H	-2.680728	0.555483	0.775051	1
H	-2.866108	-1.200077	0.688571	1
H	-2.518619	-0.274867	-0.780479	1
H	-0.702538	-1.720437	-1.219979	1
H	0.646461	-1.917697	-0.005709	1
H	-0.448598	0.801713	-1.097619	1
H	1.142802	1.094343	1.378631	1
H	4.029922	1.490013	-0.242559	1
Es	1.161128	0.988009	1.023879	99
Es	1.708623	1.108337	-0.165938	99
Es	1.879677	0.577583	0.001871	99
Es	1.199162	0.777575	0.322483	99
Es	-0.781313	-0.532723	0.945968	99
Es	-2.436853	-0.299257	-0.451509	99
Es	-2.300597	-0.350551	0.291931	99
Es	-0.646050	-0.981280	0.213528	99
Es	-0.304706	0.609113	-0.835734	99
Es	2.263802	0.893510	-0.399900	99
Es	2.836016	1.214011	0.037963	99
Es	-0.885005	-0.515600	0.608151	99
Es	0.602684	0.493077	0.008508	99
Es	3.181620	1.746253	0.433324	99
Es	0.000750	0.202530	-0.314019	99
Es	0.080426	-0.537480	-0.510152	99
Es	-2.556840	0.269571	0.617251	99
Es	0.383191	-1.719067	-0.128552	99
Es	3.278448	1.463007	0.378747	99
Es	-1.491710	-0.444253	0.436677	99
Es	-0.159371	-1.298753	-0.383144	99
Es	3.332244	1.257575	0.598819	99
Es	3.679781	1.475939	0.043013	99
Es	2.344066	0.805459	-0.760346	99
Es	-0.548594	-0.070639	0.247137	99
Es	-2.683665	-0.931405	0.557656	99
Es	-0.536672	-1.581358	-0.947920	99
42
Properties=species:S:1:pos:R:3:Z:I:1 energy=-339.88486464318044 field_type=dipole dipole="0.000000 0.000000 0.000000" charge=0
C	-2.300728	-0.350537	0.291911	6
N	-0.884908	-0.515637	0.608791	7
C	-0.159279	-1.298957	-0.383269	6
C	0.000841	0.202693	-0.314179	6
C	1.199192	0.777593	0.322511	6
N	2.263881	0.893343	-0.400489	7
O	3.278412	1.463023	0.378821	8
H	-2.680728	0.555483	0.775051	1
H	-2.866108	-1.200077	0.688571	1
H	-2.518619	-0.274867	-0.780479	1
H	-0.702538	-1.720437	-1.219979	1
H	0.646461	-1.917697	-0.005709	1
H	-0.448598	0.801713	-1.097619	1
H	1.142802	1.094343	1.378631	1
H	4.029922	1.490013	-0.242559	1
Es	-2.556781	0.269643	0.617129	99
Es	3.278452	1.462927	0.378498	99
Es	-0.548735	-0.070329	0.247724	99
Es	-0.885013	-0.515597	0.608140	99
Es	1.879660	0.577618	0.001833	99
Es	-0.304658	0.609088	-0.835798	99
Es	0.080586	-0.537455	-0.510192	99
Es	-0.536661	-1.581348	-0.947863	99
Es	1.161156	0.988008	1.023887	99
Es	1.199164	0.777577	0.322480	99
Es	-2.683753	-0.931354	0.557732	99
Es	1.708645	1.108232	-0.165969	99
Es	-2.300600	-0.350551	0.291931	99
Es	-2.436853	-0.299335	-0.451451	99
Es	2.263803	0.893510	-0.399900	99
Es	0.602560	0.493095	0.008415	99
Es	-0.781515	-0.532735	0.945371	99
Es	2.343961	0.805403	-0.760201	99
Es	0.383148	-1.719078	-0.128592	99
Es	3.182337	1.746482	0.436881	99
Es	-1.491783	-0.444380	0.436850	99
Es	3.679874	1.475891	0.043075	99
Es	3.332167	1.256224	0.595895	99
Es	-0.159367	-1.298750	-0.383148	99
Es	-0.645696	-0.981480	0.213514	99
Es	2.835394	1.215345	0.037466	99
Es	0.000750	0.202530	-0.314019	99
42
Properties=species:S:1:pos:R:3:Z:I:1 energy=-339.88486464318044 field_type=dipole dipole="0.000000 0.000000 0.000000" charge=0
C	-2.300728	-0.350537	0.291911	6
N	-0.884908	-0.515637	0.608791	7
C	-0.159279	-1.298957	-0.383269	6
C	0.000841	0.202693	-0.314179	6
C	1.199192	0.777593	0.322511	6
N	2.263881	0.893343	-0.400489	7
O	3.278412	1.463023	0.378821	8
H	-2.680728	0.555483	0.775051	1
H	-2.866108	-1.200077	0.688571	1
H	-2.518619	-0.274867	-0.780479	1
H	-0.702538	-1.720437	-1.219979	1
H	0.646461	-1.917697	-0.005709	1
H	-0.448598	0.801713	-1.097619	1
H	1.142802	1.094343	1.378631	1
H	4.029922	1.490013	-0.242559	1
Es	1.708587	1.108283	-0.166124	99
Es	-0.159372	-1.298749	-0.383141	99
Es	-0.304633	0.609070	-0.835697	99
Es	3.332065	1.257949	0.597496	99
Es	3.680164	1.475869	0.043286	99
Es	0.000751	0.202528	-0.314021	99
Es	-2.683759	-0.931383	0.557744	99
Es	-0.884986	-0.515601	0.608176	99
Es	-2.556792	0.269606	0.617101	99
Es	-0.548539	-0.070349	0.247373	99
Es	-0.536569	-1.581318	-0.947811	99
Es	2.835777	1.213897	0.037891	99
Es	-2.300601	-0.350551	0.291931	99
Es	1.879619	0.577635	0.001690	99
Es	-2.436870	-0.299316	-0.451429	99
Es	-0.646142	-0.981891	0.213911	99
Es	2.343968	0.805371	-0.759975	99
Es	0.602486	0.493101	0.008330	99
Es	1.161181	0.988006	1.023911	99
Es	0.080777	-0.537225	-0.510327	99
Es	3.181862	1.746187	0.434749	99
Es	1.199164	0.777574	0.322483	99
Es	0.383041	-1.719064	-0.128647	99
Es	3.278437	1.462950	0.378456	99
Es	-0.781428	-0.532609	0.945102	99
Es	2.263806	0.893508	-0.399899	99
Es	-1.491747	-0.444295	0.437132	99
