46
Properties=species:S:1:pos:R:3:Z:I:1 energy=-325.1220050948879 field_type=dipole dipole="0.000000 0.000000 0.000000" charge=0
C	-0.251299	-2.539641	-0.477911	6
N	-0.592679	-1.279772	0.169949	7
C	0.539891	-0.339952	0.182019	6
C	0.736121	0.589149	-0.985321	6
C	0.312261	1.146308	0.343379	6
C	-1.059149	1.713618	0.516799	6
O	1.330701	1.846268	1.077079	8
H	-1.124059	-3.199421	-0.478441	1
H	0.561321	-3.050662	0.048189	1
H	0.044821	-2.379542	-1.519421	1
H	-0.891569	-1.468412	1.127669	1
H	1.439921	-0.724862	0.659289	1
H	0.010041	0.558378	-1.788971	1
H	1.751861	0.765288	-1.316231	1
H	-1.798749	1.226948	-0.128611	1
H	-1.060369	2.781708	0.272959	1
H	-1.386839	1.601788	1.555709	1
H	1.437771	2.752809	0.741869	1
Es	0.314472	-2.894001	-0.116257	99
Es	1.593075	1.703962	1.012112	99
Es	-0.045677	-2.426633	-1.185763	99
Es	-0.746832	-1.403759	0.755522	99
Es	0.240577	0.567048	-1.524503	99
Es	0.539739	-0.339879	0.181930	99
Es	1.226053	1.871636	1.364932	99
Es	0.523136	1.037301	-0.416165	99
Es	0.943615	1.605550	0.780915	99
Es	-0.415010	-1.828287	-0.095686	99
Es	0.312488	1.146314	0.343402	99
Es	0.736084	0.589099	-0.985169	99
Es	-1.549399	1.385456	0.078508	99
Es	-0.858803	-1.129550	-0.002903	99
Es	0.369373	0.371094	0.455540	99
Es	1.330483	1.846396	1.076858	99
Es	-1.048245	2.443016	0.349507	99
Es	-0.251333	-2.539522	-0.477846	99
Es	-0.592174	-1.280054	0.170234	99
Es	-1.059115	1.713619	0.516795	99
Es	-0.846822	-2.990481	-0.472967	99
Es	-0.083799	-0.881211	0.186573	99
Es	1.423836	0.711941	-1.203681	99
Es	0.684986	-0.017493	-0.515804	99
Es	1.156778	-0.601568	0.502050	99
Es	-1.278001	1.637013	1.222865	99
Es	1.363614	2.328659	0.875758	99
Es	-0.377129	1.421676	0.423762	99
46
Properties=species:S:1:pos:R:3:Z:I:1 energy=-325.1220050948879 field_type=dipole dipole="0.000000 0.000000 0.000000" charge=0
C	-0.251299	-2.539641	-0.477911	6
N	-0.592679	-1.279772	0.169949	7
C	0.539891	-0.339952	0.182019	6
C	0.736121	0.589149	-0.985321	6
C	0.312261	1.146308	0.343379	6
C	-1.059149	1.713618	0.516799	6
O	1.330701	1.846268	1.077079	8
H	-1.124059	-3.199421	-0.478441	1
H	0.561321	-3.050662	0.048189	1
H	0.044821	-2.379542	-1.519421	1
H	-0.891569	-1.468412	1.127669	1
H	1.439921	-0.724862	0.659289	1
H	0.010041	0.558378	-1.788971	1
H	1.751861	0.765288	-1.316231	1
H	-1.798749	1.226948	-0.128611	1
H	-1.060369	2.781708	0.272959	1
H	-1.386839	1.601788	1.555709	1
H	1.437771	2.752809	0.741869	1
Es	1.593491	1.703015	1.014490	99
Es	0.523091	1.037389	-0.416063	99
Es	0.685236	-0.017837	-0.516032	99
Es	-1.278079	1.636926	1.222844	99
Es	1.156635	-0.601522	0.501968	99
Es	1.224308	1.873114	1.363743	99
Es	0.943987	1.605342	0.780756	99
Es	-1.549345	1.385605	0.078562	99
Es	-0.858383	-1.130168	-0.003081	99
Es	-0.592161	-1.280026	0.170255	99
Es	1.364485	2.328394	0.874780	99
Es	0.312486	1.146299	0.343414	99
Es	-0.045666	-2.426647	-1.185763	99
Es	0.736084	0.589104	-0.985170	99
Es	1.423627	0.712072	-1.203618	99
Es	0.240623	0.567077	-1.524563	99
Es	-0.414660	-1.828406	-0.095391	99
Es	0.369450	0.371150	0.455636	99
Es	-0.846800	-2.990502	-0.472962	99
Es	-1.048279	2.443045	0.349552	99
Es	0.314440	-2.893994	-0.116293	99
Es	-1.059117	1.713619	0.516795	99
Es	-0.377058	1.421523	0.423674	99
Es	1.330540	1.846401	1.076804	99
Es	-0.747421	-1.403470	0.755457	99
Es	-0.083945	-0.880754	0.186640	99
Es	-0.251332	-2.539527	-0.477849	99
Es	0.539737	-0.339879	0.181937	99
46
Properties=species:S:1:pos:R:3:Z:I:1 energy=-325.1220050948879 field_type=dipole dipole="0.000000 0.000000 0.000000" charge=0
C	-0.251299	-2.539641	-0.477911	6
N	-0.592679	-1.279772	0.169949	7
C	0.539891	-0.339952	0.182019	6
C	0.736121	0.589149	-0.985321	6
C	0.312261	1.146308	0.343379	6
C	-1.059149	1.713618	0.516799	6
O	1.330701	1.846268	1.077079	8
H	-1.124059	-3.199421	-0.478441	1
H	0.561321	-3.050662	0.048189	1
H	0.044821	-2.379542	-1.519421	1
H	-0.891569	-1.468412	1.127669	1
H	1.439921	-0.724862	0.659289	1
H	0.010041	0.558378	-1.788971	1
H	1.751861	0.765288	-1.316231	1
H	-1.798749	1.226948	-0.128611	1
H	-1.060369	2.781708	0.272959	1
H	-1.386839	1.601788	1.555709	1
H	1.437771	2.752809	0.741869	1
Es	0.523008	1.037510	-0.416395	99
Es	-1.059116	1.713618	0.516795	99
Es	-0.846772	-2.990511	-0.472995	99
Es	-0.251332	-2.539526	-0.477848	99
Es	-0.415098	-1.828315	-0.095766	99
Es	0.314448	-2.894000	-0.116304	99
Es	0.685026	-0.017875	-0.515889	99
Es	0.736085	0.589100	-0.985173	99
Es	-0.045676	-2.426692	-1.185723	99
Es	0.240790	0.567065	-1.524426	99
Es	1.423660	0.711949	-1.203701	99
Es	1.221677	1.874897	1.361002	99
Es	0.312486	1.146302	0.343405	99
Es	0.539743	-0.339872	0.181934	99
Es	-0.083657	-0.881253	0.186716	99
Es	-0.592164	-1.280034	0.170257	99
Es	-0.858678	-1.129526	-0.002795	99
Es	0.369261	0.371307	0.455861	99
Es	1.330534	1.846403	1.076788	99
Es	1.594569	1.701522	1.018405	99
Es	-1.048243	2.443029	0.349458	99
Es	-1.549377	1.385409	0.078514	99
Es	-1.278031	1.637056	1.222831	99
Es	-0.746926	-1.403696	0.755412	99
Es	1.156645	-0.601525	0.501860	99
Es	0.944305	1.605258	0.779807	99
Es	1.365827	2.328154	0.874558	99
Es	-0.377024	1.421587	0.423932	99
46
Properties=species:S:1:pos:R:3:Z:I:1 energy=-325.1220050948879 field_type=dipole dipole="0.000000 0.000000 0.000000" charge=0
C	-0.251299	-2.539641	-0.477911	6
N	-0.592679	-1.279772	0.169949	7
C	0.539891	-0.339952	0.182019	6
C	0.736121	0.589149	-0.985321	6
C	0.312261	1.146308	0.343379	6
C	-1.059149	1.713618	0.516799	6
O	1.330701	1.846268	1.077079	8
H	-1.124059	-3.199421	-0.478441	1
H	0.561321	-3.050662	0.048189	1
H	0.044821	-2.379542	-1.519421	1
H	-0.891569	-1.468412	1.127669	1
H	1.439921	-0.724862	0.659289	1
H	0.010041	0.558378	-1.788971	1
H	1.751861	0.765288	-1.316231	1
H	-1.798749	1.226948	-0.128611	1
H	-1.060369	2.781708	0.272959	1
H	-1.386839	1.601788	1.555709	1
H	1.437771	2.752809	0.741869	1
Es	0.736081	0.589094	-0.985153	99
Es	0.314427	-2.894022	-0.116359	99
Es	0.944287	1.604488	0.780115	99
Es	0.240851	0.567061	-1.524324	99
Es	1.423463	0.711938	-1.203810	99
Es	-1.549362	1.385442	0.078522	99
Es	-0.747430	-1.403601	0.755388	99
Es	1.593563	1.702447	1.017895	99
Es	-1.059120	1.713620	0.516795	99
Es	1.330506	1.846415	1.076786	99
Es	-0.083510	-0.881477	0.186987	99
Es	1.156447	-0.601403	0.501966	99
Es	-0.592169	-1.280013	0.170247	99
Es	-0.251332	-2.539525	-0.477847	99
Es	1.222517	1.875172	1.362204	99
Es	-1.048296	2.442986	0.349477	99
Es	0.523033	1.037838	-0.416238	99
Es	0.369374	0.371218	0.455809	99
Es	0.312486	1.146301	0.343403	99
Es	0.685350	-0.018205	-0.516080	99
Es	1.365939	2.327775	0.873558	99
Es	-1.278034	1.637032	1.222872	99
Es	-0.858117	-1.129371	-0.002757	99
Es	-0.846787	-2.990526	-0.473035	99
Es	-0.045668	-2.426707	-1.185667	99
Es	-0.415280	-1.828346	-0.095970	99
Es	-0.376989	1.421582	0.423805	99
Es	0.539742	-0.339871	0.181931	99
46
Properties=species:S:1:pos:R:3:Z:I:1 energy=-325.1220050948879 field_type=dipole dipole="0.000000 0.000000 0.000000" charge=0
C	-0.251299	-2.539641	-0.477911	6
N	-0.592679	-1.279772	0.169949	7
C	0.539891	-0.339952	0.182019	6
C	0.736121	0.589149	-0.985321	6
C	0.312261	1.146308	0.343379	6
C	-1.059149	1.713618	0.516799	6
O	1.330701	1.846268	1.077079	8
H	-1.124059	-3.199421	-0.478441	1
H	0.561321	-3.050662	0.048189	1
H	0.044821	-2.379542	-1.519421	1
H	-0.891569	-1.468412	1.127669	1
H	1.439921	-0.724862	0.659289	1
H	0.010041	0.558378	-1.788971	1
H	1.751861	0.765288	-1.316231	1
H	-1.798749	1.226948	-0.128611	1
H	-1.060369	2.781708	0.272959	1
H	-1.386839	1.601788	1.555709	1
H	1.437771	2.752809	0.741869	1
Es	-0.251332	-2.539526	-0.477848	99
Es	-0.592144	-1.280049	0.170265	99
Es	0.523082	1.037978	-0.416201	99
Es	0.312486	1.146294	0.343405	99
Es	-0.846708	-2.990552	-0.472941	99
Es	-1.278083	1.637060	1.222847	99
Es	0.369400	0.371158	0.455912	99
Es	1.423328	0.711923	-1.203713	99
Es	1.330520	1.846389	1.076842	99
Es	0.685348	-0.018341	-0.516108	99
Es	-1.549337	1.385428	0.078507	99
Es	1.364657	2.328670	0.875318	99
Es	-0.415693	-1.828269	-0.096553	99
Es	0.314484	-2.893953	-0.116351	99
Es	-0.376984	1.421609	0.423761	99
Es	1.592781	1.703583	1.013882	99
Es	0.240988	0.567120	-1.524384	99
Es	-1.059120	1.713621	0.516795	99
Es	-0.045750	-2.426804	-1.185703	99
Es	1.226025	1.872694	1.363455	99
Es	-0.083426	-0.881699	0.187112	99
Es	0.539742	-0.339870	0.181931	99
Es	0.942804	1.604963	0.781108	99
Es	-0.858604	-1.128824	-0.002216	99
Es	-1.048296	2.442979	0.349457	99
Es	-0.746681	-1.403941	0.755260	99
Es	0.736081	0.589098	-0.985161	99
Es	1.156404	-0.601397	0.501841	99
46
Properties=species:S:1:pos:R:3:Z:I:1 energy=-325.1220050948879 field_type=dipole dipole="0.000000 0.000000 0.000000" charge=0
C	-0.251299	-2.539641	-0.477911	6
N	-0.592679	-1.279772	0.169949	7
C	0.539891	-0.339952	0.182019	6
C	0.736121	0.589149	-0.985321	6
C	0.312261	1.146308	0.343379	6
C	-1.059149	1.713618	0.516799	6
O	1.330701	1.846268	1.077079	8
H	-1.124059	-3.199421	-0.478441	1
H	0.561321	-3.050662	0.048189	1
H	0.044821	-2.379542	-1.519421	1
H	-0.891569	-1.468412	1.127669	1
H	1.439921	-0.724862	0.659289	1
H	0.010041	0.558378	-1.788971	1
H	1.751861	0.765288	-1.316231	1
H	-1.798749	1.226948	-0.128611	1
H	-1.060369	2.781708	0.272959	1
H	-1.386839	1.601788	1.555709	1
H	1.437771	2.752809	0.741869	1
Es	-1.059115	1.713618	0.516795	99
Es	0.312486	1.146294	0.343401	99
Es	0.369312	0.371209	0.456102	99
Es	-0.415106	-1.828382	-0.095714	99
Es	-0.846727	-2.990541	-0.473011	99
Es	1.592760	1.703623	1.014548	99
Es	0.736081	0.589081	-0.985158	99
Es	-0.251332	-2.539526	-0.477848	99
Es	-0.858389	-1.129635	-0.002707	99
Es	0.241063	0.567166	-1.524295	99
Es	-0.083617	-0.881207	0.186874	99
Es	0.943284	1.604801	0.780641	99
Es	1.156344	-0.601381	0.501821	99
Es	1.330519	1.846446	1.076824	99
Es	-1.549351	1.385446	0.078495	99
Es	1.364763	2.328944	0.875482	99
Es	0.685362	-0.018483	-0.516149	99
Es	0.523045	1.038016	-0.416383	99
Es	-1.278041	1.636979	1.222844	99
Es	-0.376903	1.421599	0.423748	99
Es	0.539743	-0.339868	0.181930	99
Es	1.423278	0.711938	-1.203770	99
Es	-0.592175	-1.280028	0.170247	99
Es	-1.048303	2.443020	0.349521	99
Es	-0.045676	-2.426741	-1.185696	99
Es	0.314391	-2.894012	-0.116408	99
Es	-0.747204	-1.403547	0.755297	99
Es	1.225480	1.872513	1.363088	99
46
Properties=species:S:1:pos:R:3:Z:I:1 energy=-325.1220050948879 field_type=dipole dipole="0.000000 0.000000 0.000000" charge=0
C	-0.251299	-2.539641	-0.477911	6
N	-0.592679	-1.279772	0.169949	7
C	0.539891	-0.339952	0.182019	6
C	0.736121	0.589149	-0.985321	6
C	0.312261	1.146308	0.343379	6
C	-1.059149	1.713618	0.516799	6
O	1.330701	1.846268	1.077079	8
H	-1.124059	-3.199421	-0.478441	1
H	0.561321	-3.050662	0.048189	1
H	0.044821	-2.379542	-1.519421	1
H	-0.891569	-1.468412	1.127669	1
H	1.439921	-0.724862	0.659289	1
H	0.010041	0.558378	-1.788971	1
H	1.751861	0.765288	-1.316231	1
H	-1.798749	1.226948	-0.128611	1
H	-1.060369	2.781708	0.272959	1
H	-1.386839	1.601788	1.555709	1
H	1.437771	2.752809	0.741869	1
Es	-0.251332	-2.539525	-0.477848	99
Es	0.369341	0.371249	0.456172	99
Es	1.156262	-0.601353	0.501793	99
Es	0.523053	1.038106	-0.416399	99
Es	-0.858116	-1.129719	-0.002592	99
Es	0.736083	0.589099	-0.985166	99
Es	0.314344	-2.893978	-0.116407	99
Es	1.423177	0.711908	-1.203792	99
Es	-0.747373	-1.403461	0.755338	99
Es	1.223993	1.872439	1.363513	99
Es	-0.592180	-1.280027	0.170247	99
Es	1.364957	2.328780	0.875544	99
Es	-0.376917	1.421539	0.423789	99
Es	-0.083625	-0.881165	0.186827	99
Es	-1.059118	1.713619	0.516795	99
Es	0.539741	-0.339868	0.181935	99
Es	0.312485	1.146298	0.343404	99
Es	-1.048265	2.442999	0.349466	99
Es	1.330485	1.846424	1.076822	99
Es	-1.549333	1.385447	0.078495	99
Es	0.944573	1.604744	0.779377	99
Es	-0.045615	-2.426743	-1.185690	99
Es	-1.278081	1.637028	1.222863	99
Es	-0.846665	-2.990591	-0.473056	99
Es	0.685444	-0.018623	-0.516192	99
Es	0.241128	0.567165	-1.524259	99
Es	-0.415265	-1.828429	-0.095775	99
Es	1.592792	1.703981	1.015317	99
46
Properties=species:S:1:pos:R:3:Z:I:1 energy=-325.1220050948879 field_type=dipole dipole="0.000000 0.000000 0.000000" charge=0
C	-0.251299	-2.539641	-0.477911	6
N	-0.592679	-1.279772	0.169949	7
C	0.539891	-0.339952	0.182019	6
C	0.736121	0.589149	-0.985321	6
C	0.312261	1.146308	0.343379	6
C	-1.059149	1.713618	0.516799	6
O	1.330701	1.846268	1.077079	8
H	-1.124059	-3.199421	-0.478441	1
H	0.561321	-3.050662	0.048189	1
H	0.044821	-2.379542	-1.519421	1
H	-0.891569	-1.468412	1.127669	1
H	1.439921	-0.724862	0.659289	1
H	0.010041	0.558378	-1.788971	1
H	1.751861	0.765288	-1.316231	1
H	-1.798749	1.226948	-0.128611	1
H	-1.060369	2.781708	0.272959	1
H	-1.386839	1.601788	1.555709	1
H	1.437771	2.752809	0.741869	1
Es	-1.278131	1.637021	1.222869	99
Es	-0.858486	-1.129689	-0.002348	99
Es	-0.251332	-2.539527	-0.477851	99
Es	1.594299	1.702886	1.020757	99
Es	0.312486	1.146293	0.343399	99
Es	-0.083676	-0.881066	0.186797	99
Es	1.221911	1.875383	1.359126	99
Es	-1.059119	1.713619	0.516797	99
Es	0.369282	0.371228	0.456305	99
Es	0.944475	1.602918	0.779639	99
Es	-0.592156	-1.280039	0.170264	99
Es	1.156228	-0.601330	0.501729	99
Es	-0.376823	1.421581	0.423806	99
Es	1.423102	0.711930	-1.203773	99
Es	-1.048277	2.442964	0.349482	99
Es	-0.415222	-1.828387	-0.095855	99
Es	0.685452	-0.018733	-0.516308	99
Es	0.522981	1.038204	-0.416421	99
Es	0.314348	-2.894034	-0.116461	99
Es	-0.846685	-2.990557	-0.473055	99
Es	1.330524	1.846402	1.076773	99
Es	0.241264	0.567197	-1.524229	99
Es	0.539744	-0.339866	0.181929	99
Es	-0.746941	-1.403586	0.755235	99
Es	-0.045666	-2.426779	-1.185653	99
Es	1.365601	2.328756	0.874295	99
Es	0.736086	0.589098	-0.985175	99
Es	-1.549300	1.385456	0.078447	99
46
Properties=species:S:1:pos:R:3:Z:I:1 energy=-325.1220050948879 field_type=dipole dipole="0.000000 0.000000 0.000000" charge=0
C	-0.251299	-2.539641	-0.477911	6
N	-0.592679	-1.279772	0.169949	7
C	0.539891	-0.339952	0.182019	6
C	0.736121	0.589149	-0.985321	6
C	0.312261	1.146308	0.343379	6
C	-1.059149	1.713618	0.516799	6
O	1.330701	1.846268	1.077079	8
H	-1.124059	-3.199421	-0.478441	1
H	0.561321	-3.050662	0.048189	1
H	0.044821	-2.379542	-1.519421	1
H	-0.891569	-1.468412	1.127669	1
H	1.439921	-0.724862	0.659289	1
H	0.010041	0.558378	-1.788971	1
H	1.751861	0.765288	-1.316231	1
H	-1.798749	1.226948	-0.128611	1
H	-1.060369	2.781708	0.272959	1
H	-1.386839	1.601788	1.555709	1
H	1.437771	2.752809	0.741869	1
Es	-1.549279	1.385468	0.078436	99
Es	-1.048323	2.442938	0.349506	99
Es	-1.059118	1.713619	0.516795	99
Es	0.522971	1.038485	-0.416421	99
Es	-0.592194	-1.280014	0.170232	99
Es	-0.846696	-2.990628	-0.473093	99
Es	1.365897	2.328613	0.874675	99
Es	0.685634	-0.019149	-0.516251	99
Es	0.314373	-2.893996	-0.116512	99
Es	1.224485	1.874110	1.361399	99
Es	0.241306	0.567151	-1.524134	99
Es	-0.376753	1.421655	0.423688	99
Es	0.943061	1.604232	0.780525	99
Es	0.312485	1.146294	0.343400	99
Es	1.422967	0.711937	-1.203863	99
Es	0.539744	-0.339864	0.181929	99
Es	-1.278122	1.636973	1.222910	99
Es	1.592952	1.702936	1.017158	99
Es	1.330398	1.846471	1.076858	99
Es	-0.045659	-2.426753	-1.185593	99
Es	-0.083574	-0.881245	0.187086	99
Es	-0.858089	-1.129673	-0.002712	99
Es	-0.251331	-2.539528	-0.477849	99
Es	-0.747525	-1.403381	0.755187	99
Es	-0.415116	-1.828452	-0.095624	99
Es	1.156107	-0.601280	0.501737	99
Es	0.736083	0.589099	-0.985164	99
Es	0.369287	0.371323	0.456214	99
