46
Properties=species:S:1:pos:R:3:Z:I:1 energy=-325.11343714729503 field_type=dipole dipole="0.000000 0.000000 0.000000" charge=0
C	-0.740331	-1.896696	-1.375872	6
N	-0.642231	-1.295476	-0.051092	7
C	0.265829	-0.146976	-0.096882	6
C	-0.513491	1.130054	-0.484262	6
C	0.247419	1.846904	0.652948	6
C	0.390819	0.462284	1.335448	6
O	1.625019	0.208544	2.035938	8
H	-1.440251	-2.737296	-1.342292	1
H	0.228429	-2.278286	-1.714812	1
H	-1.120441	-1.182776	-2.113772	1
H	-0.341071	-2.010976	0.612728	1
H	1.223549	-0.297716	-0.607842	1
H	-1.598341	1.096594	-0.321372	1
H	-0.321011	1.514594	-1.489812	1
H	1.197289	2.295974	0.341958	1
H	-0.332921	2.589574	1.206708	1
H	-0.459301	0.247224	1.997208	1
H	2.331039	0.454444	1.415078	1
Es	0.247405	1.846863	0.652918	99
Es	0.927923	-0.243735	-0.448284	99
Es	1.639503	0.407790	2.268988	99
Es	1.642881	-0.097589	2.072359	99
Es	-1.242637	1.097579	-0.364372	99
Es	-0.186019	0.309978	1.776868	99
Es	-0.993387	-1.402573	-1.877185	99
Es	0.364690	0.081294	0.640616	99
Es	-1.215629	-2.474233	-1.354142	99
Es	-0.208395	-0.830880	-0.087981	99
Es	1.174560	0.311298	1.758741	99
Es	1.624977	0.208625	2.035550	99
Es	-0.066546	-2.156753	-1.614897	99
Es	-0.663254	-1.565303	-0.634828	99
Es	-0.381881	1.395175	-1.176406	99
Es	-0.954348	-1.171874	0.051940	99
Es	1.993328	0.346214	1.685748	99
Es	-0.157295	1.569018	0.050795	99
Es	-0.429494	-1.730248	0.335552	99
Es	-0.513420	1.130060	-0.484219	99
Es	0.904728	2.135867	0.436343	99
Es	0.265727	-0.147048	-0.096866	99
Es	0.349803	1.208836	1.065469	99
Es	-0.146129	2.361350	1.032774	99
Es	-0.641722	-1.295684	-0.051286	99
Es	-0.145250	0.457617	-0.376682	99
Es	-0.740323	-1.896645	-1.375763	99
Es	0.391043	0.462280	1.335495	99
46
Properties=species:S:1:pos:R:3:Z:I:1 energy=-325.11343714729503 field_type=dipole dipole="0.000000 0.000000 0.000000" charge=0
C	-0.740331	-1.896696	-1.375872	6
N	-0.642231	-1.295476	-0.051092	7
C	0.265829	-0.146976	-0.096882	6
C	-0.513491	1.130054	-0.484262	6
C	0.247419	1.846904	0.652948	6
C	0.390819	0.462284	1.335448	6
O	1.625019	0.208544	2.035938	8
H	-1.440251	-2.737296	-1.342292	1
H	0.228429	-2.278286	-1.714812	1
H	-1.120441	-1.182776	-2.113772	1
H	-0.341071	-2.010976	0.612728	1
H	1.223549	-0.297716	-0.607842	1
H	-1.598341	1.096594	-0.321372	1
H	-0.321011	1.514594	-1.489812	1
H	1.197289	2.295974	0.341958	1
H	-0.332921	2.589574	1.206708	1
H	-0.459301	0.247224	1.997208	1
H	2.331039	0.454444	1.415078	1
Es	-0.157331	1.569121	0.050738	99
Es	-0.381953	1.395122	-1.176342	99
Es	-0.185960	0.309848	1.776812	99
Es	-0.145240	0.457680	-0.376857	99
Es	-0.066564	-2.156624	-1.614901	99
Es	0.927815	-0.243764	-0.448190	99
Es	0.265726	-0.147049	-0.096866	99
Es	-0.513420	1.130059	-0.484218	99
Es	-0.663546	-1.565415	-0.634983	99
Es	-1.242615	1.097563	-0.364404	99
Es	0.364796	0.081305	0.640646	99
Es	1.174168	0.312247	1.758869	99
Es	-0.953738	-1.172119	0.051781	99
Es	0.247405	1.846862	0.652918	99
Es	0.391048	0.462290	1.335499	99
Es	-0.993393	-1.402515	-1.877143	99
Es	1.994719	0.348328	1.686951	99
Es	0.904679	2.135873	0.436389	99
Es	-0.146008	2.361320	1.032728	99
Es	-0.641665	-1.295714	-0.051309	99
Es	-0.429774	-1.730239	0.335774	99
Es	0.349712	1.208915	1.065615	99
Es	-0.740322	-1.896646	-1.375763	99
Es	1.642302	-0.096091	2.067041	99
Es	-1.215603	-2.474342	-1.354200	99
Es	1.624995	0.208651	2.035626	99
Es	-0.208482	-0.830604	-0.087858	99
Es	1.639092	0.403217	2.272896	99
46
Properties=species:S:1:pos:R:3:Z:I:1 energy=-325.11343714729503 field_type=dipole dipole="0.000000 0.000000 0.000000" charge=0
C	-0.740331	-1.896696	-1.375872	6
N	-0.642231	-1.295476	-0.051092	7
C	0.265829	-0.146976	-0.096882	6
C	-0.513491	1.130054	-0.484262	6
C	0.247419	1.846904	0.652948	6
C	0.390819	0.462284	1.335448	6
O	1.625019	0.208544	2.035938	8
H	-1.440251	-2.737296	-1.342292	1
H	0.228429	-2.278286	-1.714812	1
H	-1.120441	-1.182776	-2.113772	1
H	-0.341071	-2.010976	0.612728	1
H	1.223549	-0.297716	-0.607842	1
H	-1.598341	1.096594	-0.321372	1
H	-0.321011	1.514594	-1.489812	1
H	1.197289	2.295974	0.341958	1
H	-0.332921	2.589574	1.206708	1
H	-0.459301	0.247224	1.997208	1
H	2.331039	0.454444	1.415078	1
Es	-1.242535	1.097569	-0.364462	99
Es	-0.145920	2.361220	1.032721	99
Es	-0.740322	-1.896645	-1.375764	99
Es	-0.145251	0.457629	-0.376864	99
Es	-0.429305	-1.730175	0.335307	99
Es	0.349843	1.208795	1.065700	99
Es	-0.641686	-1.295706	-0.051291	99
Es	-0.954062	-1.172175	0.052296	99
Es	-0.663683	-1.565351	-0.634914	99
Es	-0.185886	0.309933	1.776744	99
Es	0.247403	1.846860	0.652918	99
Es	1.642717	-0.096622	2.071909	99
Es	1.638924	0.406133	2.269032	99
Es	-0.382029	1.395068	-1.176305	99
Es	0.904516	2.136001	0.436375	99
Es	1.994614	0.346848	1.686295	99
Es	1.174055	0.311340	1.758654	99
Es	-1.215571	-2.474319	-1.354228	99
Es	-0.157385	1.569342	0.050738	99
Es	-0.208475	-0.830690	-0.087969	99
Es	1.624980	0.208633	2.035561	99
Es	0.364760	0.081207	0.640626	99
Es	0.391040	0.462287	1.335492	99
Es	-0.513423	1.130057	-0.484219	99
Es	-0.993397	-1.402566	-1.877158	99
Es	0.927776	-0.243732	-0.448175	99
Es	-0.066581	-2.156628	-1.614915	99
Es	0.265727	-0.147036	-0.096859	99
46
Properties=species:S:1:pos:R:3:Z:I:1 energy=-325.11343714729503 field_type=dipole dipole="0.000000 0.000000 0.000000" charge=0
C	-0.740331	-1.896696	-1.375872	6
N	-0.642231	-1.295476	-0.051092	7
C	0.265829	-0.146976	-0.096882	6
C	-0.513491	1.130054	-0.484262	6
C	0.247419	1.846904	0.652948	6
C	0.390819	0.462284	1.335448	6
O	1.625019	0.208544	2.035938	8
H	-1.440251	-2.737296	-1.342292	1
H	0.228429	-2.278286	-1.714812	1
H	-1.120441	-1.182776	-2.113772	1
H	-0.341071	-2.010976	0.612728	1
H	1.223549	-0.297716	-0.607842	1
H	-1.598341	1.096594	-0.321372	1
H	-0.321011	1.514594	-1.489812	1
H	1.197289	2.295974	0.341958	1
H	-0.332921	2.589574	1.206708	1
H	-0.459301	0.247224	1.997208	1
H	2.331039	0.454444	1.415078	1
Es	-0.430329	-1.730024	0.336194	99
Es	-0.066613	-2.156612	-1.614923	99
Es	-0.145314	0.457671	-0.376975	99
Es	-0.993419	-1.402579	-1.877179	99
Es	1.641942	-0.096804	2.072892	99
Es	-0.513420	1.130058	-0.484218	99
Es	0.391044	0.462286	1.335498	99
Es	-0.641682	-1.295718	-0.051286	99
Es	1.624963	0.208648	2.035601	99
Es	1.994944	0.345954	1.685868	99
Es	0.927693	-0.243701	-0.448112	99
Es	-0.740322	-1.896645	-1.375763	99
Es	-0.663271	-1.565675	-0.635004	99
Es	0.265726	-0.147048	-0.096865	99
Es	0.247405	1.846861	0.652919	99
Es	-0.953472	-1.172077	0.051266	99
Es	-0.382087	1.395017	-1.176271	99
Es	1.174079	0.312066	1.759134	99
Es	1.639326	0.406404	2.268039	99
Es	-0.157327	1.569340	0.050682	99
Es	0.364749	0.081059	0.640778	99
Es	-0.185802	0.309999	1.776646	99
Es	0.349745	1.209053	1.065667	99
Es	-0.208431	-0.830660	-0.087714	99
Es	-1.215509	-2.474312	-1.354268	99
Es	-0.145866	2.361343	1.032640	99
Es	-1.242476	1.097546	-0.364524	99
Es	0.904567	2.135827	0.436526	99
46
Properties=species:S:1:pos:R:3:Z:I:1 energy=-325.11343714729503 field_type=dipole dipole="0.000000 0.000000 0.000000" charge=0
C	-0.740331	-1.896696	-1.375872	6
N	-0.642231	-1.295476	-0.051092	7
C	0.265829	-0.146976	-0.096882	6
C	-0.513491	1.130054	-0.484262	6
C	0.247419	1.846904	0.652948	6
C	0.390819	0.462284	1.335448	6
O	1.625019	0.208544	2.035938	8
H	-1.440251	-2.737296	-1.342292	1
H	0.228429	-2.278286	-1.714812	1
H	-1.120441	-1.182776	-2.113772	1
H	-0.341071	-2.010976	0.612728	1
H	1.223549	-0.297716	-0.607842	1
H	-1.598341	1.096594	-0.321372	1
H	-0.321011	1.514594	-1.489812	1
H	1.197289	2.295974	0.341958	1
H	-0.332921	2.589574	1.206708	1
H	-0.459301	0.247224	1.997208	1
H	2.331039	0.454444	1.415078	1
Es	-1.215548	-2.474306	-1.354266	99
Es	-0.953618	-1.171939	0.051633	99
Es	-0.066630	-2.156620	-1.614951	99
Es	-0.185765	0.309954	1.776643	99
Es	-0.208244	-0.830838	-0.087934	99
Es	0.349817	1.209130	1.065881	99
Es	0.391044	0.462287	1.335496	99
Es	-0.740322	-1.896645	-1.375764	99
Es	-0.641669	-1.295714	-0.051292	99
Es	0.364772	0.081113	0.640692	99
Es	1.624986	0.208653	2.035576	99
Es	-0.663537	-1.565497	-0.634885	99
Es	1.995463	0.345594	1.686316	99
Es	0.265726	-0.147051	-0.096867	99
Es	-0.513416	1.130058	-0.484217	99
Es	0.247406	1.846857	0.652916	99
Es	-0.145282	0.457569	-0.377073	99
Es	-0.430084	-1.730145	0.335920	99
Es	1.174157	0.310947	1.758042	99
Es	-0.145756	2.361269	1.032642	99
Es	1.642464	-0.096859	2.076090	99
Es	0.927656	-0.243674	-0.448125	99
Es	-1.242421	1.097545	-0.364601	99
Es	0.904481	2.135895	0.436512	99
Es	-0.993394	-1.402614	-1.877160	99
Es	-0.157504	1.569316	0.050693	99
Es	-0.382158	1.395068	-1.176146	99
Es	1.638216	0.407924	2.265476	99
46
Properties=species:S:1:pos:R:3:Z:I:1 energy=-325.11343714729503 field_type=dipole dipole="0.000000 0.000000 0.000000" charge=0
C	-0.740331	-1.896696	-1.375872	6
N	-0.642231	-1.295476	-0.051092	7
C	0.265829	-0.146976	-0.096882	6
C	-0.513491	1.130054	-0.484262	6
C	0.247419	1.846904	0.652948	6
C	0.390819	0.462284	1.335448	6
O	1.625019	0.208544	2.035938	8
H	-1.440251	-2.737296	-1.342292	1
H	0.228429	-2.278286	-1.714812	1
H	-1.120441	-1.182776	-2.113772	1
H	-0.341071	-2.010976	0.612728	1
H	1.223549	-0.297716	-0.607842	1
H	-1.598341	1.096594	-0.321372	1
H	-0.321011	1.514594	-1.489812	1
H	1.197289	2.295974	0.341958	1
H	-0.332921	2.589574	1.206708	1
H	-0.459301	0.247224	1.997208	1
H	2.331039	0.454444	1.415078	1
Es	1.624989	0.208678	2.035626	99
Es	-0.185775	0.309928	1.776663	99
Es	0.391042	0.462286	1.335494	99
Es	-0.641710	-1.295692	-0.051298	99
Es	-0.208253	-0.830814	-0.087915	99
Es	0.247404	1.846859	0.652918	99
Es	0.265725	-0.147045	-0.096862	99
Es	-0.953391	-1.172002	0.051702	99
Es	-0.993367	-1.402670	-1.877170	99
Es	-0.066661	-2.156612	-1.614954	99
Es	-0.382196	1.394932	-1.176103	99
Es	0.349909	1.209092	1.065862	99
Es	1.995050	0.346373	1.686268	99
Es	-0.157437	1.569502	0.050530	99
Es	-0.513421	1.130058	-0.484218	99
Es	-0.740322	-1.896646	-1.375766	99
Es	0.927624	-0.243694	-0.448104	99
Es	-0.663697	-1.565506	-0.634915	99
Es	-0.145774	2.361230	1.032690	99
Es	-1.242420	1.097529	-0.364656	99
Es	-1.215547	-2.474308	-1.354288	99
Es	0.364846	0.081095	0.640637	99
Es	1.173507	0.309928	1.758167	99
Es	-0.145262	0.457647	-0.377037	99
Es	0.904369	2.135938	0.436638	99
Es	1.643324	-0.095764	2.073910	99
Es	1.638415	0.407047	2.267503	99
Es	-0.430128	-1.730092	0.335927	99
46
Properties=species:S:1:pos:R:3:Z:I:1 energy=-325.11343714729503 field_type=dipole dipole="0.000000 0.000000 0.000000" charge=0
C	-0.740331	-1.896696	-1.375872	6
N	-0.642231	-1.295476	-0.051092	7
C	0.265829	-0.146976	-0.096882	6
C	-0.513491	1.130054	-0.484262	6
C	0.247419	1.846904	0.652948	6
C	0.390819	0.462284	1.335448	6
O	1.625019	0.208544	2.035938	8
H	-1.440251	-2.737296	-1.342292	1
H	0.228429	-2.278286	-1.714812	1
H	-1.120441	-1.182776	-2.113772	1
H	-0.341071	-2.010976	0.612728	1
H	1.223549	-0.297716	-0.607842	1
H	-1.598341	1.096594	-0.321372	1
H	-0.321011	1.514594	-1.489812	1
H	1.197289	2.295974	0.341958	1
H	-0.332921	2.589574	1.206708	1
H	-0.459301	0.247224	1.997208	1
H	2.331039	0.454444	1.415078	1
Es	-0.740323	-1.896646	-1.375765	99
Es	0.364816	0.080985	0.640797	99
Es	-0.993410	-1.402684	-1.877154	99
Es	1.173244	0.309583	1.758454	99
Es	-0.185673	0.309967	1.776614	99
Es	0.265726	-0.147048	-0.096864	99
Es	-0.157504	1.569665	0.050583	99
Es	0.904347	2.135835	0.436630	99
Es	-0.382334	1.394947	-1.176024	99
Es	-0.662937	-1.565789	-0.634805	99
Es	-1.242299	1.097538	-0.364704	99
Es	-0.145594	2.361296	1.032610	99
Es	0.927484	-0.243663	-0.447958	99
Es	-0.641677	-1.295710	-0.051293	99
Es	1.643513	-0.096206	2.078069	99
Es	-0.430952	-1.729969	0.336670	99
Es	-0.953308	-1.171935	0.050663	99
Es	0.247403	1.846859	0.652919	99
Es	-0.513421	1.130058	-0.484218	99
Es	0.349830	1.209150	1.065900	99
Es	-1.215499	-2.474336	-1.354304	99
Es	-0.208161	-0.830778	-0.087723	99
Es	-0.066692	-2.156563	-1.615006	99
Es	1.638722	0.409261	2.264001	99
Es	-0.145305	0.457567	-0.377322	99
Es	0.391043	0.462288	1.335496	99
Es	1.994820	0.344920	1.685414	99
Es	1.624985	0.208687	2.035570	99
46
Properties=species:S:1:pos:R:3:Z:I:1 energy=-325.11343714729503 field_type=dipole dipole="0.000000 0.000000 0.000000" charge=0
C	-0.740331	-1.896696	-1.375872	6
N	-0.642231	-1.295476	-0.051092	7
C	0.265829	-0.146976	-0.096882	6
C	-0.513491	1.130054	-0.484262	6
C	0.247419	1.846904	0.652948	6
C	0.390819	0.462284	1.335448	6
O	1.625019	0.208544	2.035938	8
H	-1.440251	-2.737296	-1.342292	1
H	0.228429	-2.278286	-1.714812	1
H	-1.120441	-1.182776	-2.113772	1
H	-0.341071	-2.010976	0.612728	1
H	1.223549	-0.297716	-0.607842	1
H	-1.598341	1.096594	-0.321372	1
H	-0.321011	1.514594	-1.489812	1
H	1.197289	2.295974	0.341958	1
H	-0.332921	2.589574	1.206708	1
H	-0.459301	0.247224	1.997208	1
H	2.331039	0.454444	1.415078	1
Es	-0.430426	-1.730067	0.336242	99
Es	-0.208162	-0.830815	-0.087892	99
Es	0.349685	1.209188	1.066154	99
Es	-1.242156	1.097496	-0.364656	99
Es	-0.641695	-1.295701	-0.051297	99
Es	-0.953100	-1.172028	0.051372	99
Es	-1.215522	-2.474360	-1.354393	99
Es	-0.513422	1.130059	-0.484219	99
Es	0.904337	2.135807	0.436624	99
Es	-0.663655	-1.565593	-0.634857	99
Es	1.624978	0.208597	2.035555	99
Es	-0.145424	2.361279	1.032551	99
Es	-0.145329	0.457583	-0.377330	99
Es	1.173087	0.310659	1.758499	99
Es	1.643050	-0.095293	2.072908	99
Es	-0.740323	-1.896648	-1.375767	99
Es	0.391042	0.462286	1.335495	99
Es	-0.157662	1.569759	0.050576	99
Es	-0.185629	0.309833	1.776537	99
Es	0.927414	-0.243642	-0.447957	99
Es	-0.993307	-1.402679	-1.877181	99
Es	1.638966	0.405949	2.268200	99
Es	0.265727	-0.147048	-0.096862	99
Es	-0.066753	-2.156545	-1.614949	99
Es	0.247404	1.846859	0.652918	99
Es	1.995203	0.346354	1.686368	99
Es	-0.382456	1.394966	-1.176089	99
Es	0.364969	0.081020	0.640696	99
46
Properties=species:S:1:pos:R:3:Z:I:1 energy=-325.11343714729503 field_type=dipole dipole="0.000000 0.000000 0.000000" charge=0
C	-0.740331	-1.896696	-1.375872	6
N	-0.642231	-1.295476	-0.051092	7
C	0.265829	-0.146976	-0.096882	6
C	-0.513491	1.130054	-0.484262	6
C	0.247419	1.846904	0.652948	6
C	0.390819	0.462284	1.335448	6
O	1.625019	0.208544	2.035938	8
H	-1.440251	-2.737296	-1.342292	1
H	0.228429	-2.278286	-1.714812	1
H	-1.120441	-1.182776	-2.113772	1
H	-0.341071	-2.010976	0.612728	1
H	1.223549	-0.297716	-0.607842	1
H	-1.598341	1.096594	-0.321372	1
H	-0.321011	1.514594	-1.489812	1
H	1.197289	2.295974	0.341958	1
H	-0.332921	2.589574	1.206708	1
H	-0.459301	0.247224	1.997208	1
H	2.331039	0.454444	1.415078	1
Es	1.995488	0.346640	1.686769	99
Es	-0.208015	-0.830769	-0.087811	99
Es	-0.382465	1.394808	-1.176048	99
Es	1.638316	0.405954	2.268525	99
Es	-0.185679	0.309967	1.776517	99
Es	-0.145378	0.457569	-0.377310	99
Es	0.349821	1.209178	1.066100	99
Es	1.643059	-0.095236	2.072656	99
Es	-0.952346	-1.171963	0.050850	99
Es	-0.157542	1.569868	0.050448	99
Es	-1.215521	-2.474321	-1.354370	99
Es	-0.513416	1.130057	-0.484216	99
Es	-0.431153	-1.730036	0.336777	99
Es	-0.663804	-1.565735	-0.634984	99
Es	-1.242140	1.097546	-0.364747	99
Es	0.364953	0.080971	0.640783	99
Es	0.927368	-0.243634	-0.447932	99
Es	-0.145455	2.361242	1.032498	99
Es	-0.740323	-1.896646	-1.375766	99
Es	0.247405	1.846861	0.652919	99
Es	-0.993305	-1.402678	-1.877208	99
Es	0.391039	0.462288	1.335490	99
Es	1.625010	0.208644	2.035620	99
Es	0.265726	-0.147045	-0.096863	99
Es	1.173401	0.310210	1.758026	99
Es	-0.066792	-2.156600	-1.614954	99
Es	-0.641691	-1.295708	-0.051293	99
Es	0.904282	2.135847	0.436772	99
46
Properties=species:S:1:pos:R:3:Z:I:1 energy=-325.11343714729503 field_type=dipole dipole="0.000000 0.000000 0.000000" charge=0
C	-0.740331	-1.896696	-1.375872	6
N	-0.642231	-1.295476	-0.051092	7
C	0.265829	-0.146976	-0.096882	6
C	-0.513491	1.130054	-0.484262	6
C	0.247419	1.846904	0.652948	6
C	0.390819	0.462284	1.335448	6
O	1.625019	0.208544	2.035938	8
H	-1.440251	-2.737296	-1.342292	1
H	0.228429	-2.278286	-1.714812	1
H	-1.120441	-1.182776	-2.113772	1
H	-0.341071	-2.010976	0.612728	1
H	1.223549	-0.297716	-0.607842	1
H	-1.598341	1.096594	-0.321372	1
H	-0.321011	1.514594	-1.489812	1
H	1.197289	2.295974	0.341958	1
H	-0.332921	2.589574	1.206708	1
H	-0.459301	0.247224	1.997208	1
H	2.331039	0.454444	1.415078	1
Es	-0.145301	0.457577	-0.377360	99
Es	1.172294	0.309509	1.758410	99
Es	1.643610	-0.094640	2.076251	99
Es	-1.242118	1.097504	-0.364824	99
Es	0.927337	-0.243622	-0.447839	99
Es	-1.215484	-2.474287	-1.354403	99
Es	0.265725	-0.147043	-0.096860	99
Es	1.995718	0.345543	1.686046	99
Es	-0.993370	-1.402761	-1.877140	99
Es	-0.185586	0.310047	1.776544	99
Es	-0.641690	-1.295708	-0.051291	99
Es	-0.430639	-1.729984	0.336358	99
Es	-0.740323	-1.896647	-1.375767	99
Es	0.364855	0.080855	0.640817	99
Es	1.624962	0.208650	2.035607	99
Es	1.638700	0.407141	2.265248	99
Es	0.391040	0.462289	1.335493	99
Es	-0.382481	1.394785	-1.175991	99
Es	-0.145363	2.361208	1.032481	99
Es	-0.663797	-1.565672	-0.634885	99
Es	-0.952854	-1.171938	0.051323	99
Es	-0.513414	1.130056	-0.484215	99
Es	-0.066720	-2.156569	-1.615036	99
Es	-0.208040	-0.830942	-0.087913	99
Es	0.904156	2.135893	0.436759	99
Es	0.349944	1.209215	1.066125	99
Es	-0.157721	1.569960	0.050390	99
Es	0.247403	1.846859	0.652918	99
46
Properties=species:S:1:pos:R:3:Z:I:1 energy=-325.11343714729503 field_type=dipole dipole="0.000000 0.000000 0.000000" charge=0
C	-0.740331	-1.896696	-1.375872	6
N	-0.642231	-1.295476	-0.051092	7
C	0.265829	-0.146976	-0.096882	6
C	-0.513491	1.130054	-0.484262	6
C	0.247419	1.846904	0.652948	6
C	0.390819	0.462284	1.335448	6
O	1.625019	0.208544	2.035938	8
H	-1.440251	-2.737296	-1.342292	1
H	0.228429	-2.278286	-1.714812	1
H	-1.120441	-1.182776	-2.113772	1
H	-0.341071	-2.010976	0.612728	1
H	1.223549	-0.297716	-0.607842	1
H	-1.598341	1.096594	-0.321372	1
H	-0.321011	1.514594	-1.489812	1
H	1.197289	2.295974	0.341958	1
H	-0.332921	2.589574	1.206708	1
H	-0.459301	0.247224	1.997208	1
H	2.331039	0.454444	1.415078	1
Es	-0.431340	-1.730006	0.336752	99
Es	0.349797	1.209206	1.066258	99
Es	-0.663571	-1.565728	-0.634863	99
Es	-0.145291	2.361186	1.032488	99
Es	-0.641699	-1.295674	-0.051297	99
Es	-0.157663	1.570074	0.050370	99
Es	0.391040	0.462287	1.335492	99
Es	-0.066810	-2.156670	-1.614985	99
Es	-0.382538	1.394791	-1.175920	99
Es	-0.145390	0.457551	-0.377484	99
Es	1.638373	0.404558	2.268852	99
Es	0.247403	1.846860	0.652919	99
Es	-0.952529	-1.171905	0.050755	99
Es	-1.242069	1.097516	-0.364862	99
Es	-1.215598	-2.474233	-1.354442	99
Es	0.904144	2.135865	0.436869	99
Es	0.364955	0.080865	0.640721	99
Es	1.173006	0.310744	1.758144	99
Es	0.265722	-0.147043	-0.096860	99
Es	0.927269	-0.243595	-0.447840	99
Es	1.996376	0.346636	1.687009	99
Es	1.642550	-0.094349	2.072024	99
Es	-0.185516	0.309980	1.776469	99
Es	-0.740323	-1.896649	-1.375767	99
Es	-0.993217	-1.402729	-1.877173	99
Es	-0.513421	1.130060	-0.484220	99
Es	1.624985	0.208625	2.035568	99
Es	-0.207802	-0.830946	-0.087729	99
46
Properties=species:S:1:pos:R:3:Z:I:1 energy=-325.11343714729503 field_type=dipole dipole="0.000000 0.000000 0.000000" charge=0
C	-0.740331	-1.896696	-1.375872	6
N	-0.642231	-1.295476	-0.051092	7
C	0.265829	-0.146976	-0.096882	6
C	-0.513491	1.130054	-0.484262	6
C	0.247419	1.846904	0.652948	6
C	0.390819	0.462284	1.335448	6
O	1.625019	0.208544	2.035938	8
H	-1.440251	-2.737296	-1.342292	1
H	0.228429	-2.278286	-1.714812	1
H	-1.120441	-1.182776	-2.113772	1
H	-0.341071	-2.010976	0.612728	1
H	1.223549	-0.297716	-0.607842	1
H	-1.598341	1.096594	-0.321372	1
H	-0.321011	1.514594	-1.489812	1
H	1.197289	2.295974	0.341958	1
H	-0.332921	2.589574	1.206708	1
H	-0.459301	0.247224	1.997208	1
H	2.331039	0.454444	1.415078	1
Es	-0.157723	1.570109	0.050377	99
Es	-0.207949	-0.830900	-0.087766	99
Es	-0.952662	-1.171984	0.051004	99
Es	0.247403	1.846858	0.652918	99
Es	-0.382597	1.394787	-1.175873	99
Es	-0.185445	0.309985	1.776415	99
Es	-0.663595	-1.565712	-0.634884	99
Es	0.904108	2.135879	0.436898	99
Es	-0.145375	0.457469	-0.377650	99
Es	1.995349	0.346115	1.686402	99
Es	0.265725	-0.147039	-0.096860	99
Es	1.639709	0.404308	2.270947	99
Es	0.391037	0.462289	1.335487	99
Es	-0.513419	1.130059	-0.484218	99
Es	-1.215529	-2.474319	-1.354433	99
Es	0.364938	0.080860	0.640786	99
Es	1.642674	-0.093455	2.070128	99
Es	1.172579	0.310795	1.758691	99
Es	0.349800	1.209311	1.066337	99
Es	-0.993300	-1.402795	-1.877137	99
Es	1.624972	0.208431	2.035459	99
Es	-0.740323	-1.896648	-1.375766	99
Es	-1.241989	1.097534	-0.364920	99
Es	-0.431034	-1.729939	0.336573	99
Es	-0.145222	2.361159	1.032446	99
Es	-0.641692	-1.295706	-0.051303	99
Es	0.927198	-0.243626	-0.447765	99
Es	-0.066797	-2.156550	-1.615045	99
46
Properties=species:S:1:pos:R:3:Z:I:1 energy=-325.11343714729503 field_type=dipole dipole="0.000000 0.000000 0.000000" charge=0
C	-0.740331	-1.896696	-1.375872	6
N	-0.642231	-1.295476	-0.051092	7
C	0.265829	-0.146976	-0.096882	6
C	-0.513491	1.130054	-0.484262	6
C	0.247419	1.846904	0.652948	6
C	0.390819	0.462284	1.335448	6
O	1.625019	0.208544	2.035938	8
H	-1.440251	-2.737296	-1.342292	1
H	0.228429	-2.278286	-1.714812	1
H	-1.120441	-1.182776	-2.113772	1
H	-0.341071	-2.010976	0.612728	1
H	1.223549	-0.297716	-0.607842	1
H	-1.598341	1.096594	-0.321372	1
H	-0.321011	1.514594	-1.489812	1
H	1.197289	2.295974	0.341958	1
H	-0.332921	2.589574	1.206708	1
H	-0.459301	0.247224	1.997208	1
H	2.331039	0.454444	1.415078	1
Es	1.172440	0.308814	1.757282	99
Es	-0.145130	2.361188	1.032435	99
Es	-0.157786	1.570161	0.050397	99
Es	-0.145318	0.457490	-0.377752	99
Es	-0.952714	-1.171761	0.050928	99
Es	-0.740323	-1.896649	-1.375770	99
Es	0.927110	-0.243605	-0.447721	99
Es	-0.993176	-1.402703	-1.877203	99
Es	-0.641730	-1.295685	-0.051261	99
Es	0.265725	-0.147042	-0.096861	99
Es	-1.241945	1.097496	-0.364925	99
Es	0.904050	2.135843	0.436869	99
Es	-1.215577	-2.474280	-1.354491	99
Es	-0.185415	0.310029	1.776392	99
Es	0.364958	0.080795	0.640828	99
Es	1.637285	0.406299	2.265473	99
Es	-0.663479	-1.565840	-0.634817	99
Es	-0.513420	1.130059	-0.484219	99
Es	0.247402	1.846857	0.652919	99
Es	-0.382688	1.394799	-1.175816	99
Es	1.643837	-0.094158	2.075886	99
Es	1.996737	0.346538	1.687381	99
Es	-0.207784	-0.831151	-0.087853	99
Es	-0.066922	-2.156629	-1.614973	99
Es	0.391037	0.462288	1.335489	99
Es	1.624974	0.208662	2.035623	99
Es	-0.431174	-1.729886	0.336633	99
Es	0.349868	1.209351	1.066374	99
46
Properties=species:S:1:pos:R:3:Z:I:1 energy=-325.11343714729503 field_type=dipole dipole="0.000000 0.000000 0.000000" charge=0
C	-0.740331	-1.896696	-1.375872	6
N	-0.642231	-1.295476	-0.051092	7
C	0.265829	-0.146976	-0.096882	6
C	-0.513491	1.130054	-0.484262	6
C	0.247419	1.846904	0.652948	6
C	0.390819	0.462284	1.335448	6
O	1.625019	0.208544	2.035938	8
H	-1.440251	-2.737296	-1.342292	1
H	0.228429	-2.278286	-1.714812	1
H	-1.120441	-1.182776	-2.113772	1
H	-0.341071	-2.010976	0.612728	1
H	1.223549	-0.297716	-0.607842	1
H	-1.598341	1.096594	-0.321372	1
H	-0.321011	1.514594	-1.489812	1
H	1.197289	2.295974	0.341958	1
H	-0.332921	2.589574	1.206708	1
H	-0.459301	0.247224	1.997208	1
H	2.331039	0.454444	1.415078	1
Es	-0.145049	2.361160	1.032417	99
Es	-0.145353	0.457429	-0.377775	99
Es	-0.952475	-1.171863	0.051023	99
Es	1.172159	0.310382	1.758352	99
Es	1.643540	-0.094733	2.074284	99
Es	-0.157853	1.570202	0.050307	99
Es	0.927069	-0.243584	-0.447715	99
Es	0.265723	-0.147042	-0.096859	99
Es	1.638284	0.404801	2.266276	99
Es	-0.207784	-0.831076	-0.087802	99
Es	-0.185362	0.310008	1.776350	99
Es	-0.740323	-1.896649	-1.375768	99
Es	0.391037	0.462289	1.335488	99
Es	-1.215431	-2.474319	-1.354461	99
Es	-0.066869	-2.156508	-1.615104	99
Es	-0.431177	-1.729928	0.336607	99
Es	-0.993372	-1.402806	-1.877145	99
Es	0.349840	1.209409	1.066481	99
Es	-0.382721	1.394771	-1.175761	99
Es	-0.663717	-1.565768	-0.634853	99
Es	-0.513419	1.130058	-0.484217	99
Es	0.365005	0.080779	0.640781	99
Es	1.996349	0.347072	1.687199	99
Es	1.624945	0.208657	2.035555	99
Es	-0.641700	-1.295702	-0.051289	99
Es	-1.241909	1.097537	-0.364970	99
Es	0.904003	2.135843	0.436929	99
Es	0.247403	1.846861	0.652918	99
46
Properties=species:S:1:pos:R:3:Z:I:1 energy=-325.11343714729503 field_type=dipole dipole="0.000000 0.000000 0.000000" charge=0
C	-0.740331	-1.896696	-1.375872	6
N	-0.642231	-1.295476	-0.051092	7
C	0.265829	-0.146976	-0.096882	6
C	-0.513491	1.130054	-0.484262	6
C	0.247419	1.846904	0.652948	6
C	0.390819	0.462284	1.335448	6
O	1.625019	0.208544	2.035938	8
H	-1.440251	-2.737296	-1.342292	1
H	0.228429	-2.278286	-1.714812	1
H	-1.120441	-1.182776	-2.113772	1
H	-0.341071	-2.010976	0.612728	1
H	1.223549	-0.297716	-0.607842	1
H	-1.598341	1.096594	-0.321372	1
H	-0.321011	1.514594	-1.489812	1
H	1.197289	2.295974	0.341958	1
H	-0.332921	2.589574	1.206708	1
H	-0.459301	0.247224	1.997208	1
H	2.331039	0.454444	1.415078	1
Es	1.171745	0.310846	1.759223	99
Es	0.903928	2.135889	0.436961	99
Es	-0.066905	-2.156438	-1.615089	99
Es	0.364967	0.080877	0.640820	99
Es	0.391035	0.462290	1.335487	99
Es	-1.241858	1.097421	-0.365066	99
Es	1.642994	-0.093821	2.072339	99
Es	-0.740321	-1.896648	-1.375767	99
Es	-0.144983	2.361091	1.032493	99
Es	-0.207688	-0.831092	-0.087821	99
Es	1.995911	0.346221	1.686331	99
Es	-0.185375	0.309986	1.776312	99
Es	1.625009	0.208676	2.035631	99
Es	-0.663632	-1.565902	-0.634809	99
Es	-0.952312	-1.171809	0.050728	99
Es	-0.382794	1.394767	-1.175666	99
Es	0.349910	1.209364	1.066441	99
Es	-1.215401	-2.474386	-1.354480	99
Es	1.639601	0.404238	2.268178	99
Es	-0.431500	-1.729827	0.336877	99
Es	-0.641697	-1.295703	-0.051286	99
Es	-0.993364	-1.402842	-1.877164	99
Es	0.927052	-0.243604	-0.447556	99
Es	0.247402	1.846856	0.652918	99
Es	-0.145193	0.457396	-0.378010	99
Es	0.265725	-0.147043	-0.096861	99
Es	-0.158002	1.570414	0.050301	99
Es	-0.513413	1.130060	-0.484219	99
