46
Properties=species:S:1:pos:R:3:Z:I:1 energy=-325.11137603068676 field_type=dipole dipole="0.000000 0.000000 0.000000" charge=0
C	-1.751403	-1.530092	-0.139709	6
N	-0.357403	-1.183322	0.108101	7
C	-0.089973	0.257808	-0.018179	6
C	-0.879514	1.108258	0.981891	6
C	1.387587	0.436998	0.221461	6
C	2.364926	0.540478	-0.923089	6
O	1.915077	1.701658	-0.212129	8
H	-1.855833	-2.619582	-0.145909	1
H	-2.096573	-1.155692	-1.109059	1
H	-2.409113	-1.155042	0.650691	1
H	0.220507	-1.680472	-0.569199	1
H	-0.338813	0.585678	-1.036959	1
H	-0.704803	0.778708	2.010461	1
H	-1.954003	1.071818	0.783091	1
H	-0.573533	2.157088	0.917561	1
H	1.728677	0.053548	1.174130	1
H	2.009247	0.412388	-1.936639	1
H	3.384947	0.219768	-0.756509	1
Es	-1.609825	1.076425	0.842519	99
Es	-0.757715	0.878196	1.678422	99
Es	0.657089	0.350453	0.094270	99
Es	-2.197724	-1.266651	0.395687	99
Es	-1.751271	-1.530064	-0.139691	99
Es	-0.488467	0.674116	0.487997	99
Es	2.364814	0.540714	-0.922924	99
Es	-0.261913	-0.555529	0.030204	99
Es	-0.017722	-1.470108	-0.323727	99
Es	2.123000	0.458459	-1.616334	99
Es	3.063081	0.330045	-0.813333	99
Es	1.622154	0.184955	0.871164	99
Es	-0.259041	0.488432	-0.723567	99
Es	2.148071	1.320904	-0.549742	99
Es	1.867204	0.240426	-0.390828	99
Es	1.387721	0.437281	0.221316	99
Es	-0.357575	-1.183118	0.107498	99
Es	-0.967476	-1.314207	-0.023732	99
Es	-0.089981	0.257685	-0.018115	99
Es	-0.264429	-1.286532	0.434639	99
Es	1.665791	1.277844	0.032613	99
Es	2.138983	1.795281	-0.022122	99
Es	-1.819125	-2.273727	-0.149510	99
Es	-0.879501	1.108232	0.981861	99
Es	-1.992061	-1.265101	-0.810457	99
Es	-0.669882	1.812900	0.931605	99
Es	1.696649	1.841813	-0.380813	99
Es	1.915125	1.701318	-0.212123	99
46
Properties=species:S:1:pos:R:3:Z:I:1 energy=-325.11137603068676 field_type=dipole dipole="0.000000 0.000000 0.000000" charge=0
C	-1.751403	-1.530092	-0.139709	6
N	-0.357403	-1.183322	0.108101	7
C	-0.089973	0.257808	-0.018179	6
C	-0.879514	1.108258	0.981891	6
C	1.387587	0.436998	0.221461	6
C	2.364926	0.540478	-0.923089	6
O	1.915077	1.701658	-0.212129	8
H	-1.855833	-2.619582	-0.145909	1
H	-2.096573	-1.155692	-1.109059	1
H	-2.409113	-1.155042	0.650691	1
H	0.220507	-1.680472	-0.569199	1
H	-0.338813	0.585678	-1.036959	1
H	-0.704803	0.778708	2.010461	1
H	-1.954003	1.071818	0.783091	1
H	-0.573533	2.157088	0.917561	1
H	1.728677	0.053548	1.174130	1
H	2.009247	0.412388	-1.936639	1
H	3.384947	0.219768	-0.756509	1
Es	1.696378	1.839803	-0.381372	99
Es	-0.488429	0.674075	0.487928	99
Es	-0.669878	1.812890	0.931725	99
Es	-1.992042	-1.265235	-0.810487	99
Es	-0.967586	-1.314198	-0.023769	99
Es	2.149630	1.321359	-0.549353	99
Es	1.622106	0.184989	0.871083	99
Es	1.387717	0.437265	0.221320	99
Es	2.122994	0.458511	-1.616217	99
Es	0.657149	0.350496	0.094391	99
Es	-0.261915	-0.555521	0.030429	99
Es	-1.819168	-2.273738	-0.149365	99
Es	1.666050	1.277560	0.032795	99
Es	-0.089980	0.257687	-0.018115	99
Es	1.915085	1.701368	-0.212155	99
Es	-0.258997	0.488485	-0.723488	99
Es	-0.879498	1.108232	0.981862	99
Es	2.137530	1.797224	-0.022038	99
Es	3.063079	0.330061	-0.813468	99
Es	-1.751271	-1.530059	-0.139687	99
Es	1.867185	0.240090	-0.390916	99
Es	2.364814	0.540715	-0.922924	99
Es	-0.264487	-1.286609	0.434330	99
Es	-1.609784	1.076509	0.842539	99
Es	-0.357565	-1.183124	0.107544	99
Es	-0.017585	-1.469981	-0.323719	99
Es	-0.757807	0.878169	1.678370	99
Es	-2.197747	-1.266578	0.395536	99
46
Properties=species:S:1:pos:R:3:Z:I:1 energy=-325.11137603068676 field_type=dipole dipole="0.000000 0.000000 0.000000" charge=0
C	-1.751403	-1.530092	-0.139709	6
N	-0.357403	-1.183322	0.108101	7
C	-0.089973	0.257808	-0.018179	6
C	-0.879514	1.108258	0.981891	6
C	1.387587	0.436998	0.221461	6
C	2.364926	0.540478	-0.923089	6
O	1.915077	1.701658	-0.212129	8
H	-1.855833	-2.619582	-0.145909	1
H	-2.096573	-1.155692	-1.109059	1
H	-2.409113	-1.155042	0.650691	1
H	0.220507	-1.680472	-0.569199	1
H	-0.338813	0.585678	-1.036959	1
H	-0.704803	0.778708	2.010461	1
H	-1.954003	1.071818	0.783091	1
H	-0.573533	2.157088	0.917561	1
H	1.728677	0.053548	1.174130	1
H	2.009247	0.412388	-1.936639	1
H	3.384947	0.219768	-0.756509	1
Es	2.149432	1.321644	-0.549923	99
Es	2.137618	1.797990	-0.022220	99
Es	1.696997	1.838895	-0.380847	99
Es	2.364814	0.540715	-0.922925	99
Es	-0.757816	0.878169	1.678359	99
Es	-0.258861	0.488446	-0.723476	99
Es	-0.017826	-1.469933	-0.323640	99
Es	-0.264253	-1.286656	0.434169	99
Es	1.867259	0.239854	-0.390903	99
Es	-2.197786	-1.266571	0.395501	99
Es	1.622011	0.185015	0.871021	99
Es	-0.669867	1.812867	0.931753	99
Es	-1.751275	-1.530062	-0.139692	99
Es	-0.089982	0.257683	-0.018114	99
Es	1.665617	1.277554	0.033098	99
Es	-0.357579	-1.183119	0.107519	99
Es	1.915057	1.701352	-0.212166	99
Es	3.063017	0.330107	-0.813523	99
Es	0.657056	0.350522	0.094376	99
Es	-0.488490	0.674163	0.487937	99
Es	-0.879500	1.108233	0.981861	99
Es	-1.609781	1.076562	0.842567	99
Es	-1.992031	-1.265283	-0.810473	99
Es	2.123008	0.458504	-1.616202	99
Es	1.387715	0.437267	0.221325	99
Es	-0.261721	-0.555495	0.030331	99
Es	-1.819164	-2.273737	-0.149361	99
Es	-0.967695	-1.314243	-0.023575	99
46
Properties=species:S:1:pos:R:3:Z:I:1 energy=-325.11137603068676 field_type=dipole dipole="0.000000 0.000000 0.000000" charge=0
C	-1.751403	-1.530092	-0.139709	6
N	-0.357403	-1.183322	0.108101	7
C	-0.089973	0.257808	-0.018179	6
C	-0.879514	1.108258	0.981891	6
C	1.387587	0.436998	0.221461	6
C	2.364926	0.540478	-0.923089	6
O	1.915077	1.701658	-0.212129	8
H	-1.855833	-2.619582	-0.145909	1
H	-2.096573	-1.155692	-1.109059	1
H	-2.409113	-1.155042	0.650691	1
H	0.220507	-1.680472	-0.569199	1
H	-0.338813	0.585678	-1.036959	1
H	-0.704803	0.778708	2.010461	1
H	-1.954003	1.071818	0.783091	1
H	-0.573533	2.157088	0.917561	1
H	1.728677	0.053548	1.174130	1
H	2.009247	0.412388	-1.936639	1
H	3.384947	0.219768	-0.756509	1
Es	3.062951	0.330211	-0.813647	99
Es	-0.967758	-1.314740	-0.023223	99
Es	-0.089981	0.257687	-0.018115	99
Es	-0.017762	-1.470185	-0.323324	99
Es	-0.258876	0.488454	-0.723428	99
Es	-1.819295	-2.273728	-0.149402	99
Es	-0.261897	-0.555548	0.029641	99
Es	0.657058	0.350379	0.094253	99
Es	-0.357571	-1.183123	0.107508	99
Es	1.867323	0.239670	-0.390766	99
Es	2.123070	0.458515	-1.616097	99
Es	-0.879500	1.108233	0.981865	99
Es	-0.264012	-1.286006	0.434127	99
Es	1.387721	0.437269	0.221317	99
Es	-1.992075	-1.265179	-0.810415	99
Es	1.621987	0.185078	0.871006	99
Es	2.137986	1.797154	-0.021641	99
Es	-1.609700	1.076465	0.842546	99
Es	-0.488402	0.674222	0.487939	99
Es	1.698113	1.839520	-0.380489	99
Es	-0.670039	1.812867	0.931687	99
Es	-0.757799	0.878225	1.678461	99
Es	1.915078	1.701369	-0.212152	99
Es	2.364813	0.540708	-0.922921	99
Es	-1.751270	-1.530061	-0.139688	99
Es	1.664380	1.278032	0.032531	99
Es	-2.197682	-1.266563	0.395541	99
Es	2.149114	1.321519	-0.550335	99
46
Properties=species:S:1:pos:R:3:Z:I:1 energy=-325.11137603068676 field_type=dipole dipole="0.000000 0.000000 0.000000" charge=0
C	-1.751403	-1.530092	-0.139709	6
N	-0.357403	-1.183322	0.108101	7
C	-0.089973	0.257808	-0.018179	6
C	-0.879514	1.108258	0.981891	6
C	1.387587	0.436998	0.221461	6
C	2.364926	0.540478	-0.923089	6
O	1.915077	1.701658	-0.212129	8
H	-1.855833	-2.619582	-0.145909	1
H	-2.096573	-1.155692	-1.109059	1
H	-2.409113	-1.155042	0.650691	1
H	0.220507	-1.680472	-0.569199	1
H	-0.338813	0.585678	-1.036959	1
H	-0.704803	0.778708	2.010461	1
H	-1.954003	1.071818	0.783091	1
H	-0.573533	2.157088	0.917561	1
H	1.728677	0.053548	1.174130	1
H	2.009247	0.412388	-1.936639	1
H	3.384947	0.219768	-0.756509	1
Es	1.664248	1.277507	0.032982	99
Es	2.123213	0.458632	-1.616034	99
Es	-0.488326	0.674265	0.487829	99
Es	-0.089981	0.257685	-0.018116	99
Es	-2.197687	-1.266511	0.395491	99
Es	2.150366	1.322266	-0.550503	99
Es	-0.357568	-1.183099	0.107524	99
Es	1.622017	0.185104	0.870939	99
Es	-0.879501	1.108234	0.981862	99
Es	-0.261714	-0.555360	0.030144	99
Es	-1.609785	1.076574	0.842497	99
Es	-1.819325	-2.273742	-0.149362	99
Es	3.062946	0.330201	-0.813631	99
Es	2.136601	1.796410	-0.022184	99
Es	1.867169	0.239457	-0.390880	99
Es	0.657153	0.350342	0.094395	99
Es	-0.757888	0.878105	1.678322	99
Es	-1.751275	-1.530063	-0.139691	99
Es	1.698348	1.840143	-0.380230	99
Es	-1.992079	-1.265250	-0.810382	99
Es	-0.669929	1.812832	0.931931	99
Es	-0.017629	-1.470311	-0.323265	99
Es	-0.258869	0.488456	-0.723404	99
Es	1.387720	0.437272	0.221319	99
Es	-0.264428	-1.286247	0.433723	99
Es	-0.967716	-1.314515	-0.023419	99
Es	1.915080	1.701343	-0.212156	99
Es	2.364812	0.540712	-0.922921	99
46
Properties=species:S:1:pos:R:3:Z:I:1 energy=-325.11137603068676 field_type=dipole dipole="0.000000 0.000000 0.000000" charge=0
C	-1.751403	-1.530092	-0.139709	6
N	-0.357403	-1.183322	0.108101	7
C	-0.089973	0.257808	-0.018179	6
C	-0.879514	1.108258	0.981891	6
C	1.387587	0.436998	0.221461	6
C	2.364926	0.540478	-0.923089	6
O	1.915077	1.701658	-0.212129	8
H	-1.855833	-2.619582	-0.145909	1
H	-2.096573	-1.155692	-1.109059	1
H	-2.409113	-1.155042	0.650691	1
H	0.220507	-1.680472	-0.569199	1
H	-0.338813	0.585678	-1.036959	1
H	-0.704803	0.778708	2.010461	1
H	-1.954003	1.071818	0.783091	1
H	-0.573533	2.157088	0.917561	1
H	1.728677	0.053548	1.174130	1
H	2.009247	0.412388	-1.936639	1
H	3.384947	0.219768	-0.756509	1
Es	-0.261709	-0.555495	0.030138	99
Es	-0.017632	-1.470086	-0.323328	99
Es	-1.609831	1.076566	0.842548	99
Es	-1.992089	-1.265291	-0.810352	99
Es	2.149541	1.323096	-0.551093	99
Es	-0.357569	-1.183133	0.107536	99
Es	-2.197720	-1.266527	0.395455	99
Es	-0.488505	0.674204	0.487893	99
Es	1.664819	1.276971	0.033458	99
Es	-0.264405	-1.286401	0.433960	99
Es	1.867270	0.239079	-0.390747	99
Es	1.698153	1.839242	-0.379546	99
Es	-0.757791	0.878266	1.678401	99
Es	1.621910	0.185204	0.870903	99
Es	-1.819350	-2.273712	-0.149363	99
Es	0.657073	0.350432	0.094426	99
Es	-0.967587	-1.314471	-0.023669	99
Es	-0.879501	1.108235	0.981864	99
Es	-1.751276	-1.530064	-0.139691	99
Es	1.915064	1.701302	-0.212171	99
Es	-0.258751	0.488437	-0.723349	99
Es	2.364812	0.540716	-0.922921	99
Es	-0.089979	0.257690	-0.018116	99
Es	-0.669925	1.812763	0.931731	99
Es	2.137154	1.797279	-0.022794	99
Es	3.062815	0.330328	-0.813668	99
Es	2.123267	0.458543	-1.616048	99
Es	1.387719	0.437272	0.221320	99
46
Properties=species:S:1:pos:R:3:Z:I:1 energy=-325.11137603068676 field_type=dipole dipole="0.000000 0.000000 0.000000" charge=0
C	-1.751403	-1.530092	-0.139709	6
N	-0.357403	-1.183322	0.108101	7
C	-0.089973	0.257808	-0.018179	6
C	-0.879514	1.108258	0.981891	6
C	1.387587	0.436998	0.221461	6
C	2.364926	0.540478	-0.923089	6
O	1.915077	1.701658	-0.212129	8
H	-1.855833	-2.619582	-0.145909	1
H	-2.096573	-1.155692	-1.109059	1
H	-2.409113	-1.155042	0.650691	1
H	0.220507	-1.680472	-0.569199	1
H	-0.338813	0.585678	-1.036959	1
H	-0.704803	0.778708	2.010461	1
H	-1.954003	1.071818	0.783091	1
H	-0.573533	2.157088	0.917561	1
H	1.728677	0.053548	1.174130	1
H	2.009247	0.412388	-1.936639	1
H	3.384947	0.219768	-0.756509	1
Es	-0.488416	0.674170	0.487892	99
Es	-1.751275	-1.530064	-0.139691	99
Es	1.665049	1.278155	0.034739	99
Es	1.698037	1.838675	-0.380158	99
Es	-0.357588	-1.183115	0.107487	99
Es	0.656937	0.350400	0.094416	99
Es	-0.669928	1.812819	0.931781	99
Es	-0.261431	-0.555331	0.030647	99
Es	-0.264436	-1.286438	0.433195	99
Es	-0.757884	0.878290	1.678340	99
Es	-0.967909	-1.314535	-0.023394	99
Es	2.123307	0.458661	-1.615958	99
Es	1.621942	0.185148	0.870790	99
Es	-2.197775	-1.266551	0.395483	99
Es	-1.609736	1.076624	0.842646	99
Es	-0.089981	0.257687	-0.018118	99
Es	1.867200	0.238913	-0.390824	99
Es	-1.819234	-2.273715	-0.149359	99
Es	-0.017604	-1.470125	-0.323243	99
Es	-0.879501	1.108234	0.981862	99
Es	2.150561	1.321949	-0.550659	99
Es	1.915081	1.701350	-0.212139	99
Es	-0.258731	0.488437	-0.723382	99
Es	2.364812	0.540715	-0.922921	99
Es	-1.992080	-1.265338	-0.810392	99
Es	3.062797	0.330314	-0.813767	99
Es	2.136040	1.797842	-0.023815	99
Es	1.387720	0.437272	0.221319	99
46
Properties=species:S:1:pos:R:3:Z:I:1 energy=-325.11137603068676 field_type=dipole dipole="0.000000 0.000000 0.000000" charge=0
C	-1.751403	-1.530092	-0.139709	6
N	-0.357403	-1.183322	0.108101	7
C	-0.089973	0.257808	-0.018179	6
C	-0.879514	1.108258	0.981891	6
C	1.387587	0.436998	0.221461	6
C	2.364926	0.540478	-0.923089	6
O	1.915077	1.701658	-0.212129	8
H	-1.855833	-2.619582	-0.145909	1
H	-2.096573	-1.155692	-1.109059	1
H	-2.409113	-1.155042	0.650691	1
H	0.220507	-1.680472	-0.569199	1
H	-0.338813	0.585678	-1.036959	1
H	-0.704803	0.778708	2.010461	1
H	-1.954003	1.071818	0.783091	1
H	-0.573533	2.157088	0.917561	1
H	1.728677	0.053548	1.174130	1
H	2.009247	0.412388	-1.936639	1
H	3.384947	0.219768	-0.756509	1
Es	1.387721	0.437273	0.221319	99
Es	-1.751275	-1.530063	-0.139691	99
Es	-0.264454	-1.285998	0.433584	99
Es	2.123347	0.458655	-1.615890	99
Es	-0.669975	1.812857	0.931742	99
Es	-0.488448	0.674169	0.487923	99
Es	1.697206	1.836335	-0.379729	99
Es	-0.017510	-1.470377	-0.322970	99
Es	2.135830	1.800151	-0.024907	99
Es	-0.258661	0.488410	-0.723290	99
Es	-1.609695	1.076584	0.842678	99
Es	-0.757910	0.878360	1.678339	99
Es	1.621906	0.185170	0.870744	99
Es	-0.357562	-1.183127	0.107569	99
Es	1.666141	1.277880	0.036063	99
Es	-1.819405	-2.273749	-0.149364	99
Es	-0.967729	-1.314633	-0.023454	99
Es	3.062750	0.330352	-0.813821	99
Es	2.150548	1.322352	-0.551295	99
Es	1.915049	1.701346	-0.212176	99
Es	-0.879501	1.108234	0.981863	99
Es	2.364815	0.540716	-0.922925	99
Es	1.867202	0.238791	-0.390787	99
Es	-0.261574	-0.555519	0.029881	99
Es	-1.992152	-1.265237	-0.810303	99
Es	-2.197646	-1.266566	0.395411	99
Es	0.656938	0.350391	0.094381	99
Es	-0.089981	0.257688	-0.018116	99
46
Properties=species:S:1:pos:R:3:Z:I:1 energy=-325.11137603068676 field_type=dipole dipole="0.000000 0.000000 0.000000" charge=0
C	-1.751403	-1.530092	-0.139709	6
N	-0.357403	-1.183322	0.108101	7
C	-0.089973	0.257808	-0.018179	6
C	-0.879514	1.108258	0.981891	6
C	1.387587	0.436998	0.221461	6
C	2.364926	0.540478	-0.923089	6
O	1.915077	1.701658	-0.212129	8
H	-1.855833	-2.619582	-0.145909	1
H	-2.096573	-1.155692	-1.109059	1
H	-2.409113	-1.155042	0.650691	1
H	0.220507	-1.680472	-0.569199	1
H	-0.338813	0.585678	-1.036959	1
H	-0.704803	0.778708	2.010461	1
H	-1.954003	1.071818	0.783091	1
H	-0.573533	2.157088	0.917561	1
H	1.728677	0.053548	1.174130	1
H	2.009247	0.412388	-1.936639	1
H	3.384947	0.219768	-0.756509	1
Es	-0.879501	1.108233	0.981861	99
Es	1.662605	1.278752	0.034285	99
Es	-0.258640	0.488396	-0.723280	99
Es	-0.669921	1.812797	0.931851	99
Es	2.364811	0.540716	-0.922920	99
Es	-1.751279	-1.530065	-0.139692	99
Es	-0.488445	0.674200	0.487838	99
Es	-0.357554	-1.183146	0.107582	99
Es	1.621856	0.185286	0.870725	99
Es	2.123374	0.458699	-1.615853	99
Es	-1.609778	1.076640	0.842638	99
Es	1.387715	0.437265	0.221324	99
Es	-1.819393	-2.273738	-0.149431	99
Es	-0.089981	0.257686	-0.018116	99
Es	3.062718	0.330415	-0.813901	99
Es	-1.992154	-1.265255	-0.810228	99
Es	-0.757917	0.878315	1.678284	99
Es	1.867325	0.238550	-0.390901	99
Es	1.700487	1.841535	-0.379081	99
Es	-0.264424	-1.286241	0.433127	99
Es	2.150493	1.322014	-0.551484	99
Es	-0.967775	-1.314601	-0.023301	99
Es	1.915088	1.701291	-0.212151	99
Es	2.136006	1.794525	-0.023492	99
Es	-0.017579	-1.470221	-0.323169	99
Es	-0.261436	-0.555427	0.030395	99
Es	-2.197701	-1.266617	0.395397	99
Es	0.656976	0.350438	0.094467	99
46
Properties=species:S:1:pos:R:3:Z:I:1 energy=-325.11137603068676 field_type=dipole dipole="0.000000 0.000000 0.000000" charge=0
C	-1.751403	-1.530092	-0.139709	6
N	-0.357403	-1.183322	0.108101	7
C	-0.089973	0.257808	-0.018179	6
C	-0.879514	1.108258	0.981891	6
C	1.387587	0.436998	0.221461	6
C	2.364926	0.540478	-0.923089	6
O	1.915077	1.701658	-0.212129	8
H	-1.855833	-2.619582	-0.145909	1
H	-2.096573	-1.155692	-1.109059	1
H	-2.409113	-1.155042	0.650691	1
H	0.220507	-1.680472	-0.569199	1
H	-0.338813	0.585678	-1.036959	1
H	-0.704803	0.778708	2.010461	1
H	-1.954003	1.071818	0.783091	1
H	-0.573533	2.157088	0.917561	1
H	1.728677	0.053548	1.174130	1
H	2.009247	0.412388	-1.936639	1
H	3.384947	0.219768	-0.756509	1
Es	-2.197742	-1.266614	0.395374	99
Es	1.699574	1.838525	-0.379532	99
Es	0.656954	0.350392	0.094432	99
Es	-0.757928	0.878310	1.678330	99
Es	-0.669960	1.812835	0.931806	99
Es	-0.017466	-1.470316	-0.322922	99
Es	2.151561	1.322300	-0.551325	99
Es	1.867273	0.238278	-0.390774	99
Es	-0.258617	0.488433	-0.723257	99
Es	-1.992144	-1.265310	-0.810213	99
Es	2.134853	1.797466	-0.024065	99
Es	-0.357567	-1.183124	0.107534	99
Es	-0.488482	0.674173	0.487836	99
Es	2.123452	0.458676	-1.615808	99
Es	-1.751277	-1.530064	-0.139692	99
Es	-1.819404	-2.273709	-0.149430	99
Es	1.915089	1.701396	-0.212146	99
Es	1.663674	1.278624	0.035063	99
Es	2.364811	0.540718	-0.922919	99
Es	-1.609667	1.076665	0.842707	99
Es	1.387721	0.437273	0.221318	99
Es	-0.089980	0.257689	-0.018116	99
Es	-0.967684	-1.314566	-0.023525	99
Es	3.062653	0.330502	-0.813932	99
Es	1.621805	0.185276	0.870669	99
Es	-0.879502	1.108234	0.981862	99
Es	-0.261444	-0.555463	0.030172	99
Es	-0.264582	-1.286156	0.433331	99
46
Properties=species:S:1:pos:R:3:Z:I:1 energy=-325.11137603068676 field_type=dipole dipole="0.000000 0.000000 0.000000" charge=0
C	-1.751403	-1.530092	-0.139709	6
N	-0.357403	-1.183322	0.108101	7
C	-0.089973	0.257808	-0.018179	6
C	-0.879514	1.108258	0.981891	6
C	1.387587	0.436998	0.221461	6
C	2.364926	0.540478	-0.923089	6
O	1.915077	1.701658	-0.212129	8
H	-1.855833	-2.619582	-0.145909	1
H	-2.096573	-1.155692	-1.109059	1
H	-2.409113	-1.155042	0.650691	1
H	0.220507	-1.680472	-0.569199	1
H	-0.338813	0.585678	-1.036959	1
H	-0.704803	0.778708	2.010461	1
H	-1.954003	1.071818	0.783091	1
H	-0.573533	2.157088	0.917561	1
H	1.728677	0.053548	1.174130	1
H	2.009247	0.412388	-1.936639	1
H	3.384947	0.219768	-0.756509	1
Es	1.867177	0.238165	-0.390739	99
Es	-0.967881	-1.314718	-0.023033	99
Es	-1.609642	1.076717	0.842687	99
Es	1.387721	0.437272	0.221319	99
Es	3.062591	0.330469	-0.813950	99
Es	-2.197847	-1.266798	0.395365	99
Es	-0.261337	-0.555435	0.030308	99
Es	2.123530	0.458747	-1.615759	99
Es	-0.879502	1.108235	0.981863	99
Es	-0.258575	0.488451	-0.723239	99
Es	-0.017536	-1.470233	-0.322987	99
Es	-0.264360	-1.286109	0.432855	99
Es	0.656891	0.350366	0.094468	99
Es	-0.757994	0.878258	1.678302	99
Es	-0.357567	-1.183133	0.107542	99
Es	1.621797	0.185318	0.870605	99
Es	-1.751277	-1.530060	-0.139690	99
Es	2.135012	1.796756	-0.024226	99
Es	-1.992078	-1.265158	-0.810095	99
Es	-0.488461	0.674192	0.487818	99
Es	-0.669960	1.812827	0.931909	99
Es	1.699412	1.839109	-0.378486	99
Es	-0.089978	0.257692	-0.018117	99
Es	-1.819390	-2.273716	-0.149682	99
Es	1.915047	1.701364	-0.212179	99
Es	2.364810	0.540714	-0.922919	99
Es	1.664010	1.277987	0.035153	99
Es	2.151361	1.323162	-0.552313	99
46
Properties=species:S:1:pos:R:3:Z:I:1 energy=-325.11137603068676 field_type=dipole dipole="0.000000 0.000000 0.000000" charge=0
C	-1.751403	-1.530092	-0.139709	6
N	-0.357403	-1.183322	0.108101	7
C	-0.089973	0.257808	-0.018179	6
C	-0.879514	1.108258	0.981891	6
C	1.387587	0.436998	0.221461	6
C	2.364926	0.540478	-0.923089	6
O	1.915077	1.701658	-0.212129	8
H	-1.855833	-2.619582	-0.145909	1
H	-2.096573	-1.155692	-1.109059	1
H	-2.409113	-1.155042	0.650691	1
H	0.220507	-1.680472	-0.569199	1
H	-0.338813	0.585678	-1.036959	1
H	-0.704803	0.778708	2.010461	1
H	-1.954003	1.071818	0.783091	1
H	-0.573533	2.157088	0.917561	1
H	1.728677	0.053548	1.174130	1
H	2.009247	0.412388	-1.936639	1
H	3.384947	0.219768	-0.756509	1
Es	-0.967695	-1.314725	-0.023331	99
Es	1.387723	0.437272	0.221316	99
Es	-0.357568	-1.183127	0.107565	99
Es	0.656887	0.350368	0.094421	99
Es	-2.197722	-1.266627	0.395325	99
Es	1.914980	1.701297	-0.212234	99
Es	-0.757988	0.878397	1.678321	99
Es	1.621736	0.185358	0.870549	99
Es	-1.819467	-2.273706	-0.149429	99
Es	-0.669996	1.812803	0.931817	99
Es	-0.258589	0.488451	-0.723204	99
Es	3.062544	0.330530	-0.813997	99
Es	-1.751274	-1.530063	-0.139691	99
Es	2.123606	0.458796	-1.615721	99
Es	-1.609645	1.076695	0.842721	99
Es	-0.264129	-1.286656	0.433079	99
Es	-0.488372	0.674150	0.487867	99
Es	-0.089980	0.257689	-0.018116	99
Es	-0.017873	-1.469817	-0.323226	99
Es	2.134790	1.797204	-0.024569	99
Es	1.663427	1.279245	0.035627	99
Es	2.151477	1.322087	-0.551857	99
Es	1.867236	0.237867	-0.390803	99
Es	-0.261412	-0.555368	0.030485	99
Es	2.364812	0.540712	-0.922921	99
Es	1.700132	1.838679	-0.378905	99
Es	-1.992168	-1.265303	-0.810175	99
Es	-0.879501	1.108234	0.981864	99
46
Properties=species:S:1:pos:R:3:Z:I:1 energy=-325.11137603068676 field_type=dipole dipole="0.000000 0.000000 0.000000" charge=0
C	-1.751403	-1.530092	-0.139709	6
N	-0.357403	-1.183322	0.108101	7
C	-0.089973	0.257808	-0.018179	6
C	-0.879514	1.108258	0.981891	6
C	1.387587	0.436998	0.221461	6
C	2.364926	0.540478	-0.923089	6
O	1.915077	1.701658	-0.212129	8
H	-1.855833	-2.619582	-0.145909	1
H	-2.096573	-1.155692	-1.109059	1
H	-2.409113	-1.155042	0.650691	1
H	0.220507	-1.680472	-0.569199	1
H	-0.338813	0.585678	-1.036959	1
H	-0.704803	0.778708	2.010461	1
H	-1.954003	1.071818	0.783091	1
H	-0.573533	2.157088	0.917561	1
H	1.728677	0.053548	1.174130	1
H	2.009247	0.412388	-1.936639	1
H	3.384947	0.219768	-0.756509	1
Es	1.662024	1.278971	0.035081	99
Es	-1.992226	-1.265296	-0.810167	99
Es	-2.197716	-1.266710	0.395325	99
Es	2.133620	1.797946	-0.023999	99
Es	-1.819448	-2.273671	-0.149442	99
Es	1.621672	0.185354	0.870544	99
Es	-1.751278	-1.530064	-0.139692	99
Es	1.701235	1.837745	-0.380011	99
Es	2.364808	0.540712	-0.922917	99
Es	1.867121	0.237694	-0.390740	99
Es	-0.757972	0.878414	1.678331	99
Es	-0.089980	0.257687	-0.018119	99
Es	2.152988	1.322613	-0.550957	99
Es	-0.264833	-1.285801	0.433297	99
Es	-0.488454	0.674133	0.487837	99
Es	-1.609652	1.076767	0.842764	99
Es	-0.261519	-0.555524	0.029880	99
Es	-0.258532	0.488450	-0.723157	99
Es	2.123654	0.458825	-1.615664	99
Es	-0.017191	-1.470551	-0.322539	99
Es	1.387718	0.437273	0.221322	99
Es	1.915083	1.701349	-0.212147	99
Es	-0.357562	-1.183136	0.107539	99
Es	0.656956	0.350378	0.094433	99
Es	-0.967586	-1.314637	-0.023639	99
Es	-0.669941	1.812766	0.931783	99
Es	-0.879502	1.108235	0.981865	99
Es	3.062488	0.330521	-0.814032	99
46
Properties=species:S:1:pos:R:3:Z:I:1 energy=-325.11137603068676 field_type=dipole dipole="0.000000 0.000000 0.000000" charge=0
C	-1.751403	-1.530092	-0.139709	6
N	-0.357403	-1.183322	0.108101	7
C	-0.089973	0.257808	-0.018179	6
C	-0.879514	1.108258	0.981891	6
C	1.387587	0.436998	0.221461	6
C	2.364926	0.540478	-0.923089	6
O	1.915077	1.701658	-0.212129	8
H	-1.855833	-2.619582	-0.145909	1
H	-2.096573	-1.155692	-1.109059	1
H	-2.409113	-1.155042	0.650691	1
H	0.220507	-1.680472	-0.569199	1
H	-0.338813	0.585678	-1.036959	1
H	-0.704803	0.778708	2.010461	1
H	-1.954003	1.071818	0.783091	1
H	-0.573533	2.157088	0.917561	1
H	1.728677	0.053548	1.174130	1
H	2.009247	0.412388	-1.936639	1
H	3.384947	0.219768	-0.756509	1
Es	2.123769	0.458865	-1.615657	99
Es	2.151713	1.323232	-0.552847	99
Es	1.867113	0.237517	-0.390802	99
Es	-0.357529	-1.183159	0.107625	99
Es	-0.261211	-0.555327	0.030235	99
Es	-0.758042	0.878401	1.678306	99
Es	-0.016887	-1.470892	-0.322166	99
Es	0.656874	0.350376	0.094433	99
Es	1.915025	1.701318	-0.212198	99
Es	-1.609606	1.076734	0.842742	99
Es	-0.089980	0.257690	-0.018117	99
Es	-0.265199	-1.285460	0.432258	99
Es	-2.197701	-1.266580	0.395238	99
Es	1.663511	1.278635	0.036258	99
Es	3.062428	0.330561	-0.814009	99
Es	-0.258519	0.488414	-0.723167	99
Es	-0.879502	1.108235	0.981863	99
Es	1.700396	1.838620	-0.377885	99
Es	-1.992186	-1.265378	-0.810168	99
Es	2.364812	0.540707	-0.922922	99
Es	2.134269	1.796894	-0.025299	99
Es	-1.819528	-2.273701	-0.149339	99
Es	-0.967781	-1.314857	-0.023398	99
Es	-0.670016	1.812799	0.931872	99
Es	-0.488360	0.674199	0.487820	99
Es	1.621669	0.185395	0.870475	99
Es	1.387722	0.437272	0.221317	99
Es	-1.751281	-1.530066	-0.139692	99
