46
Properties=species:S:1:pos:R:3:Z:I:1 energy=-325.1623844605827 field_type=dipole dipole="0.000000 0.000000 0.000000" charge=0
C	-0.682787	-2.036684	0.543767	6
N	-0.841347	-0.687834	1.071897	7
C	-0.486017	0.345286	0.078947	6
C	-0.921977	1.711346	0.599687	6
C	1.031083	0.364276	-0.151253	6
C	1.495623	0.346796	-1.583593	6
O	1.836573	0.358496	0.782607	8
H	-0.986667	-2.760604	1.305087	1
H	0.354843	-2.253784	0.273177	1
H	-1.320237	-2.193914	-0.331953	1
H	-0.219107	-0.571814	1.877877	1
H	-1.000507	0.147806	-0.868513	1
H	-0.438427	1.954876	1.553327	1
H	-2.006417	1.746026	0.750247	1
H	-0.654007	2.499996	-0.111213	1
H	0.985493	1.130716	-2.147503	1
H	1.281863	-0.632164	-2.019293	1
H	2.572013	0.531176	-1.623303	1
Es	0.034339	-2.183955	0.347917	99
Es	-0.682799	-2.036558	0.543806	99
Es	1.549909	0.613703	0.454257	99
Es	-0.649503	-0.248822	0.625029	99
Es	-0.455543	-0.622399	1.539975	99
Es	-0.732776	2.243569	0.106691	99
Es	-1.181216	-0.636193	1.163189	99
Es	1.031095	0.364278	-0.151277	99
Es	-0.829821	0.203935	-0.573510	99
Es	0.280387	0.352732	-0.052103	99
Es	-0.921948	1.711315	0.599648	99
Es	-0.740982	-1.270152	0.826969	99
Es	-0.683525	1.027257	0.333984	99
Es	1.553145	0.109093	0.447875	99
Es	1.495574	0.346795	-1.583573	99
Es	-0.840746	-0.687925	1.071700	99
Es	-0.485989	0.345231	0.079042	99
Es	-1.115060	-2.136196	-0.060617	99
Es	1.260947	0.363323	-0.881249	99
Es	2.133678	0.361649	0.688153	99
Es	-0.885459	-2.529488	1.062745	99
Es	-0.592488	1.866909	1.242176	99
Es	1.338616	-0.307296	-1.859150	99
Es	1.836374	0.358486	0.782411	99
Es	2.215514	0.469213	-1.613934	99
Es	1.139817	0.870836	-1.953128	99
Es	1.691389	0.352355	1.067650	99
Es	-1.653382	1.729514	0.693277	99
46
Properties=species:S:1:pos:R:3:Z:I:1 energy=-325.1623844605827 field_type=dipole dipole="0.000000 0.000000 0.000000" charge=0
C	-0.682787	-2.036684	0.543767	6
N	-0.841347	-0.687834	1.071897	7
C	-0.486017	0.345286	0.078947	6
C	-0.921977	1.711346	0.599687	6
C	1.031083	0.364276	-0.151253	6
C	1.495623	0.346796	-1.583593	6
O	1.836573	0.358496	0.782607	8
H	-0.986667	-2.760604	1.305087	1
H	0.354843	-2.253784	0.273177	1
H	-1.320237	-2.193914	-0.331953	1
H	-0.219107	-0.571814	1.877877	1
H	-1.000507	0.147806	-0.868513	1
H	-0.438427	1.954876	1.553327	1
H	-2.006417	1.746026	0.750247	1
H	-0.654007	2.499996	-0.111213	1
H	0.985493	1.130716	-2.147503	1
H	1.281863	-0.632164	-2.019293	1
H	2.572013	0.531176	-1.623303	1
Es	1.338651	-0.307264	-1.859159	99
Es	-0.885334	-2.529592	1.062689	99
Es	0.034276	-2.183904	0.347737	99
Es	1.139779	0.870759	-1.953121	99
Es	0.280337	0.352827	-0.052121	99
Es	-0.455715	-0.622355	1.540122	99
Es	-0.921947	1.711314	0.599647	99
Es	-0.732883	2.243593	0.106622	99
Es	-1.653315	1.729513	0.693434	99
Es	-0.829786	0.203896	-0.573502	99
Es	-1.115126	-2.136165	-0.060513	99
Es	1.691790	0.352449	1.067271	99
Es	2.133861	0.362000	0.688136	99
Es	1.836339	0.358499	0.782387	99
Es	1.553378	0.108606	0.448516	99
Es	-0.840761	-0.687924	1.071674	99
Es	1.495579	0.346794	-1.583571	99
Es	-1.180937	-0.636387	1.163127	99
Es	-0.683574	1.027287	0.334031	99
Es	-0.649585	-0.248679	0.624926	99
Es	-0.682798	-2.036557	0.543805	99
Es	-0.592417	1.866954	1.242085	99
Es	1.031095	0.364268	-0.151276	99
Es	-0.485989	0.345232	0.079044	99
Es	1.260807	0.363229	-0.881338	99
Es	-0.740941	-1.270154	0.827107	99
Es	1.549129	0.613663	0.454041	99
Es	2.215637	0.469308	-1.613843	99
46
Properties=species:S:1:pos:R:3:Z:I:1 energy=-325.1623844605827 field_type=dipole dipole="0.000000 0.000000 0.000000" charge=0
C	-0.682787	-2.036684	0.543767	6
N	-0.841347	-0.687834	1.071897	7
C	-0.486017	0.345286	0.078947	6
C	-0.921977	1.711346	0.599687	6
C	1.031083	0.364276	-0.151253	6
C	1.495623	0.346796	-1.583593	6
O	1.836573	0.358496	0.782607	8
H	-0.986667	-2.760604	1.305087	1
H	0.354843	-2.253784	0.273177	1
H	-1.320237	-2.193914	-0.331953	1
H	-0.219107	-0.571814	1.877877	1
H	-1.000507	0.147806	-0.868513	1
H	-0.438427	1.954876	1.553327	1
H	-2.006417	1.746026	0.750247	1
H	-0.654007	2.499996	-0.111213	1
H	0.985493	1.130716	-2.147503	1
H	1.281863	-0.632164	-2.019293	1
H	2.572013	0.531176	-1.623303	1
Es	-1.180819	-0.636244	1.162881	99
Es	-0.732955	2.243532	0.106709	99
Es	-0.885546	-2.529603	1.062558	99
Es	-0.455827	-0.622323	1.540286	99
Es	1.031097	0.364277	-0.151275	99
Es	1.260836	0.363329	-0.881350	99
Es	-1.114991	-2.136055	-0.060559	99
Es	1.338662	-0.307276	-1.859185	99
Es	1.549043	0.613080	0.453712	99
Es	-0.683516	1.027194	0.333958	99
Es	1.495579	0.346794	-1.583571	99
Es	-0.649418	-0.248868	0.625037	99
Es	0.280282	0.352900	-0.052126	99
Es	-0.682798	-2.036562	0.543806	99
Es	2.215596	0.469263	-1.613790	99
Es	0.034316	-2.184032	0.347856	99
Es	1.553282	0.108303	0.448986	99
Es	1.836429	0.358497	0.782455	99
Es	-0.592430	1.867056	1.242082	99
Es	-0.921947	1.711314	0.599647	99
Es	-0.840796	-0.687920	1.071697	99
Es	-0.485988	0.345234	0.079041	99
Es	-1.653345	1.729502	0.693394	99
Es	-0.741012	-1.270222	0.827141	99
Es	1.139832	0.870808	-1.953153	99
Es	1.691691	0.353202	1.067107	99
Es	2.134037	0.362090	0.688085	99
Es	-0.829748	0.203938	-0.573476	99
46
Properties=species:S:1:pos:R:3:Z:I:1 energy=-325.1623844605827 field_type=dipole dipole="0.000000 0.000000 0.000000" charge=0
C	-0.682787	-2.036684	0.543767	6
N	-0.841347	-0.687834	1.071897	7
C	-0.486017	0.345286	0.078947	6
C	-0.921977	1.711346	0.599687	6
C	1.031083	0.364276	-0.151253	6
C	1.495623	0.346796	-1.583593	6
O	1.836573	0.358496	0.782607	8
H	-0.986667	-2.760604	1.305087	1
H	0.354843	-2.253784	0.273177	1
H	-1.320237	-2.193914	-0.331953	1
H	-0.219107	-0.571814	1.877877	1
H	-1.000507	0.147806	-0.868513	1
H	-0.438427	1.954876	1.553327	1
H	-2.006417	1.746026	0.750247	1
H	-0.654007	2.499996	-0.111213	1
H	0.985493	1.130716	-2.147503	1
H	1.281863	-0.632164	-2.019293	1
H	2.572013	0.531176	-1.623303	1
Es	0.034221	-2.183986	0.347827	99
Es	-0.885410	-2.529585	1.062664	99
Es	1.139861	0.870812	-1.953124	99
Es	1.553382	0.108847	0.447907	99
Es	1.550024	0.613817	0.453868	99
Es	-0.485989	0.345232	0.079043	99
Es	2.134566	0.361550	0.690089	99
Es	1.690146	0.352511	1.066099	99
Es	-1.653342	1.729566	0.693414	99
Es	-1.115024	-2.136196	-0.060548	99
Es	1.338601	-0.307307	-1.859182	99
Es	1.260835	0.363336	-0.881431	99
Es	1.836384	0.358494	0.782353	99
Es	-0.649660	-0.248606	0.624935	99
Es	1.031097	0.364283	-0.151276	99
Es	-0.741203	-1.270354	0.827099	99
Es	1.495579	0.346794	-1.583571	99
Es	-0.921948	1.711316	0.599648	99
Es	-0.592451	1.866992	1.242052	99
Es	-0.732898	2.243566	0.106737	99
Es	-0.840750	-0.687925	1.071679	99
Es	-0.829667	0.203910	-0.573436	99
Es	-0.455967	-0.622307	1.540250	99
Es	-1.180329	-0.636327	1.163017	99
Es	2.215621	0.469243	-1.613784	99
Es	0.280184	0.352786	-0.052075	99
Es	-0.683521	1.027304	0.333895	99
Es	-0.682799	-2.036561	0.543806	99
46
Properties=species:S:1:pos:R:3:Z:I:1 energy=-325.1623844605827 field_type=dipole dipole="0.000000 0.000000 0.000000" charge=0
C	-0.682787	-2.036684	0.543767	6
N	-0.841347	-0.687834	1.071897	7
C	-0.486017	0.345286	0.078947	6
C	-0.921977	1.711346	0.599687	6
C	1.031083	0.364276	-0.151253	6
C	1.495623	0.346796	-1.583593	6
O	1.836573	0.358496	0.782607	8
H	-0.986667	-2.760604	1.305087	1
H	0.354843	-2.253784	0.273177	1
H	-1.320237	-2.193914	-0.331953	1
H	-0.219107	-0.571814	1.877877	1
H	-1.000507	0.147806	-0.868513	1
H	-0.438427	1.954876	1.553327	1
H	-2.006417	1.746026	0.750247	1
H	-0.654007	2.499996	-0.111213	1
H	0.985493	1.130716	-2.147503	1
H	1.281863	-0.632164	-2.019293	1
H	2.572013	0.531176	-1.623303	1
Es	-1.653321	1.729589	0.693451	99
Es	1.549722	0.614085	0.454523	99
Es	-1.115006	-2.136247	-0.060565	99
Es	1.261035	0.363302	-0.881447	99
Es	-0.921948	1.711316	0.599648	99
Es	1.139674	0.870808	-1.953115	99
Es	-0.682799	-2.036562	0.543806	99
Es	-0.741379	-1.270543	0.827240	99
Es	2.215613	0.469294	-1.613931	99
Es	-0.683525	1.027315	0.333938	99
Es	0.280115	0.352763	-0.052070	99
Es	-0.649687	-0.248652	0.624876	99
Es	2.134451	0.361531	0.689430	99
Es	-0.456080	-0.622180	1.540253	99
Es	-1.180018	-0.636235	1.162948	99
Es	-0.885386	-2.529572	1.062626	99
Es	-0.829593	0.203898	-0.573414	99
Es	1.338647	-0.307303	-1.859069	99
Es	0.034195	-2.183999	0.347867	99
Es	1.495578	0.346793	-1.583572	99
Es	1.031096	0.364286	-0.151276	99
Es	1.552854	0.108886	0.447919	99
Es	-0.732975	2.243463	0.106670	99
Es	1.691033	0.352229	1.066092	99
Es	-0.840747	-0.687924	1.071700	99
Es	-0.485989	0.345233	0.079042	99
Es	1.836388	0.358496	0.782366	99
Es	-0.592400	1.867139	1.242020	99
46
Properties=species:S:1:pos:R:3:Z:I:1 energy=-325.1623844605827 field_type=dipole dipole="0.000000 0.000000 0.000000" charge=0
C	-0.682787	-2.036684	0.543767	6
N	-0.841347	-0.687834	1.071897	7
C	-0.486017	0.345286	0.078947	6
C	-0.921977	1.711346	0.599687	6
C	1.031083	0.364276	-0.151253	6
C	1.495623	0.346796	-1.583593	6
O	1.836573	0.358496	0.782607	8
H	-0.986667	-2.760604	1.305087	1
H	0.354843	-2.253784	0.273177	1
H	-1.320237	-2.193914	-0.331953	1
H	-0.219107	-0.571814	1.877877	1
H	-1.000507	0.147806	-0.868513	1
H	-0.438427	1.954876	1.553327	1
H	-2.006417	1.746026	0.750247	1
H	-0.654007	2.499996	-0.111213	1
H	0.985493	1.130716	-2.147503	1
H	1.281863	-0.632164	-2.019293	1
H	2.572013	0.531176	-1.623303	1
Es	-0.683490	1.027380	0.333848	99
Es	-0.649246	-0.248715	0.624754	99
Es	1.139784	0.870815	-1.953129	99
Es	-0.840747	-0.687916	1.071686	99
Es	1.836363	0.358497	0.782388	99
Es	-0.682799	-2.036562	0.543806	99
Es	0.034115	-2.183966	0.347864	99
Es	1.260992	0.363313	-0.881442	99
Es	1.338676	-0.307337	-1.859167	99
Es	-1.653324	1.729650	0.693362	99
Es	-1.114962	-2.136236	-0.060592	99
Es	1.549317	0.612999	0.454113	99
Es	-0.485990	0.345234	0.079040	99
Es	1.553598	0.107876	0.448017	99
Es	-0.829573	0.203888	-0.573373	99
Es	1.690601	0.352950	1.065845	99
Es	-1.179903	-0.635909	1.162976	99
Es	-0.456052	-0.622508	1.540273	99
Es	1.031097	0.364282	-0.151276	99
Es	2.215561	0.469302	-1.613828	99
Es	0.280013	0.352747	-0.052101	99
Es	1.495578	0.346794	-1.583571	99
Es	-0.732865	2.243547	0.106809	99
Es	-0.885371	-2.529641	1.062659	99
Es	-0.921949	1.711314	0.599647	99
Es	-0.592514	1.867014	1.242054	99
Es	2.134569	0.362871	0.689953	99
Es	-0.741932	-1.270475	0.827340	99
46
Properties=species:S:1:pos:R:3:Z:I:1 energy=-325.1623844605827 field_type=dipole dipole="0.000000 0.000000 0.000000" charge=0
C	-0.682787	-2.036684	0.543767	6
N	-0.841347	-0.687834	1.071897	7
C	-0.486017	0.345286	0.078947	6
C	-0.921977	1.711346	0.599687	6
C	1.031083	0.364276	-0.151253	6
C	1.495623	0.346796	-1.583593	6
O	1.836573	0.358496	0.782607	8
H	-0.986667	-2.760604	1.305087	1
H	0.354843	-2.253784	0.273177	1
H	-1.320237	-2.193914	-0.331953	1
H	-0.219107	-0.571814	1.877877	1
H	-1.000507	0.147806	-0.868513	1
H	-0.438427	1.954876	1.553327	1
H	-2.006417	1.746026	0.750247	1
H	-0.654007	2.499996	-0.111213	1
H	0.985493	1.130716	-2.147503	1
H	1.281863	-0.632164	-2.019293	1
H	2.572013	0.531176	-1.623303	1
Es	1.691955	0.352887	1.066600	99
Es	-0.921949	1.711317	0.599648	99
Es	1.261101	0.363530	-0.881480	99
Es	1.495579	0.346794	-1.583571	99
Es	2.133879	0.361929	0.688659	99
Es	1.836323	0.358496	0.782400	99
Es	-0.682798	-2.036562	0.543806	99
Es	-1.653285	1.729632	0.693435	99
Es	-0.649752	-0.248399	0.625010	99
Es	-0.741198	-1.270360	0.826984	99
Es	0.034123	-2.184021	0.347897	99
Es	1.139725	0.870746	-1.953224	99
Es	-0.485989	0.345234	0.079041	99
Es	1.031095	0.364279	-0.151277	99
Es	-0.840769	-0.687923	1.071696	99
Es	0.279936	0.352808	-0.051987	99
Es	2.215590	0.469255	-1.613946	99
Es	1.553003	0.108313	0.448529	99
Es	-0.829443	0.203853	-0.573415	99
Es	-0.683557	1.027378	0.333846	99
Es	-0.592538	1.867015	1.241991	99
Es	1.338605	-0.307411	-1.858937	99
Es	1.549295	0.613551	0.454112	99
Es	-1.179876	-0.636519	1.162890	99
Es	-0.885407	-2.529607	1.062629	99
Es	-0.456270	-0.622351	1.540390	99
Es	-0.732902	2.243610	0.106802	99
Es	-1.114928	-2.136266	-0.060574	99
46
Properties=species:S:1:pos:R:3:Z:I:1 energy=-325.1623844605827 field_type=dipole dipole="0.000000 0.000000 0.000000" charge=0
C	-0.682787	-2.036684	0.543767	6
N	-0.841347	-0.687834	1.071897	7
C	-0.486017	0.345286	0.078947	6
C	-0.921977	1.711346	0.599687	6
C	1.031083	0.364276	-0.151253	6
C	1.495623	0.346796	-1.583593	6
O	1.836573	0.358496	0.782607	8
H	-0.986667	-2.760604	1.305087	1
H	0.354843	-2.253784	0.273177	1
H	-1.320237	-2.193914	-0.331953	1
H	-0.219107	-0.571814	1.877877	1
H	-1.000507	0.147806	-0.868513	1
H	-0.438427	1.954876	1.553327	1
H	-2.006417	1.746026	0.750247	1
H	-0.654007	2.499996	-0.111213	1
H	0.985493	1.130716	-2.147503	1
H	1.281863	-0.632164	-2.019293	1
H	2.572013	0.531176	-1.623303	1
Es	1.836340	0.358497	0.782315	99
Es	1.031095	0.364280	-0.151277	99
Es	-1.179940	-0.635594	1.162856	99
Es	2.215578	0.469295	-1.613853	99
Es	-0.682799	-2.036564	0.543805	99
Es	1.495579	0.346794	-1.583571	99
Es	-0.921949	1.711317	0.599648	99
Es	2.133225	0.361448	0.687121	99
Es	-1.114927	-2.136292	-0.060556	99
Es	0.034061	-2.184018	0.347863	99
Es	1.261141	0.363332	-0.881558	99
Es	-0.592464	1.867021	1.241932	99
Es	-0.840791	-0.687918	1.071714	99
Es	-0.885352	-2.529640	1.062602	99
Es	-0.732921	2.243577	0.106776	99
Es	-0.683440	1.027462	0.333840	99
Es	-0.741975	-1.270568	0.827261	99
Es	-0.829494	0.203893	-0.573362	99
Es	-0.485986	0.345234	0.079042	99
Es	-0.456117	-0.622456	1.540246	99
Es	1.139711	0.870868	-1.953094	99
Es	-1.653344	1.729623	0.693502	99
Es	0.279876	0.352670	-0.052063	99
Es	1.552127	0.108620	0.448765	99
Es	1.549062	0.614093	0.454814	99
Es	1.693682	0.352591	1.067289	99
Es	-0.649057	-0.248952	0.624994	99
Es	1.338626	-0.307403	-1.859097	99
46
Properties=species:S:1:pos:R:3:Z:I:1 energy=-325.1623844605827 field_type=dipole dipole="0.000000 0.000000 0.000000" charge=0
C	-0.682787	-2.036684	0.543767	6
N	-0.841347	-0.687834	1.071897	7
C	-0.486017	0.345286	0.078947	6
C	-0.921977	1.711346	0.599687	6
C	1.031083	0.364276	-0.151253	6
C	1.495623	0.346796	-1.583593	6
O	1.836573	0.358496	0.782607	8
H	-0.986667	-2.760604	1.305087	1
H	0.354843	-2.253784	0.273177	1
H	-1.320237	-2.193914	-0.331953	1
H	-0.219107	-0.571814	1.877877	1
H	-1.000507	0.147806	-0.868513	1
H	-0.438427	1.954876	1.553327	1
H	-2.006417	1.746026	0.750247	1
H	-0.654007	2.499996	-0.111213	1
H	0.985493	1.130716	-2.147503	1
H	1.281863	-0.632164	-2.019293	1
H	2.572013	0.531176	-1.623303	1
Es	1.836343	0.358495	0.782374	99
Es	1.549790	0.614601	0.454748	99
Es	-0.456336	-0.622249	1.540466	99
Es	1.495579	0.346794	-1.583571	99
Es	-0.732902	2.243595	0.106810	99
Es	-0.485990	0.345229	0.079045	99
Es	1.552333	0.109684	0.448039	99
Es	1.338405	-0.307353	-1.859158	99
Es	-0.741402	-1.270410	0.827185	99
Es	-1.179617	-0.636417	1.162805	99
Es	-0.592486	1.866995	1.241947	99
Es	-0.682799	-2.036563	0.543805	99
Es	2.215628	0.469098	-1.613876	99
Es	-1.653291	1.729695	0.693492	99
Es	2.134113	0.360676	0.688757	99
Es	1.261204	0.363361	-0.881608	99
Es	0.279782	0.352662	-0.051996	99
Es	1.031093	0.364280	-0.151278	99
Es	-0.683515	1.027468	0.333843	99
Es	1.139839	0.870998	-1.952990	99
Es	0.034051	-2.184053	0.347850	99
Es	-1.114920	-2.136297	-0.060528	99
Es	-0.840754	-0.687925	1.071694	99
Es	1.691847	0.351807	1.066377	99
Es	-0.649725	-0.248558	0.624848	99
Es	-0.885373	-2.529629	1.062615	99
Es	-0.921948	1.711317	0.599648	99
Es	-0.829403	0.203908	-0.573386	99
46
Properties=species:S:1:pos:R:3:Z:I:1 energy=-325.1623844605827 field_type=dipole dipole="0.000000 0.000000 0.000000" charge=0
C	-0.682787	-2.036684	0.543767	6
N	-0.841347	-0.687834	1.071897	7
C	-0.486017	0.345286	0.078947	6
C	-0.921977	1.711346	0.599687	6
C	1.031083	0.364276	-0.151253	6
C	1.495623	0.346796	-1.583593	6
O	1.836573	0.358496	0.782607	8
H	-0.986667	-2.760604	1.305087	1
H	0.354843	-2.253784	0.273177	1
H	-1.320237	-2.193914	-0.331953	1
H	-0.219107	-0.571814	1.877877	1
H	-1.000507	0.147806	-0.868513	1
H	-0.438427	1.954876	1.553327	1
H	-2.006417	1.746026	0.750247	1
H	-0.654007	2.499996	-0.111213	1
H	0.985493	1.130716	-2.147503	1
H	1.281863	-0.632164	-2.019293	1
H	2.572013	0.531176	-1.623303	1
Es	-0.485989	0.345234	0.079041	99
Es	-0.456456	-0.622252	1.540433	99
Es	-0.840763	-0.687923	1.071695	99
Es	2.133257	0.362154	0.688194	99
Es	1.261188	0.363313	-0.881593	99
Es	0.279744	0.352627	-0.052028	99
Es	-0.683416	1.027460	0.333763	99
Es	-1.114924	-2.136311	-0.060532	99
Es	-0.885329	-2.529655	1.062593	99
Es	-1.179427	-0.636341	1.162817	99
Es	-0.921948	1.711318	0.599648	99
Es	1.338608	-0.307406	-1.859049	99
Es	1.031095	0.364278	-0.151277	99
Es	-0.682800	-2.036564	0.543805	99
Es	-0.649686	-0.248494	0.624902	99
Es	0.034008	-2.184036	0.347836	99
Es	-0.741505	-1.270531	0.827257	99
Es	-0.732956	2.243574	0.106852	99
Es	1.549045	0.614323	0.455112	99
Es	1.495579	0.346795	-1.583572	99
Es	1.139702	0.870847	-1.953117	99
Es	2.215591	0.469277	-1.613879	99
Es	-1.653275	1.729670	0.693440	99
Es	1.836331	0.358497	0.782403	99
Es	1.692679	0.351426	1.066959	99
Es	-0.592566	1.867102	1.241945	99
Es	-0.829356	0.203869	-0.573313	99
Es	1.553116	0.108959	0.447619	99
46
Properties=species:S:1:pos:R:3:Z:I:1 energy=-325.1623844605827 field_type=dipole dipole="0.000000 0.000000 0.000000" charge=0
C	-0.682787	-2.036684	0.543767	6
N	-0.841347	-0.687834	1.071897	7
C	-0.486017	0.345286	0.078947	6
C	-0.921977	1.711346	0.599687	6
C	1.031083	0.364276	-0.151253	6
C	1.495623	0.346796	-1.583593	6
O	1.836573	0.358496	0.782607	8
H	-0.986667	-2.760604	1.305087	1
H	0.354843	-2.253784	0.273177	1
H	-1.320237	-2.193914	-0.331953	1
H	-0.219107	-0.571814	1.877877	1
H	-1.000507	0.147806	-0.868513	1
H	-0.438427	1.954876	1.553327	1
H	-2.006417	1.746026	0.750247	1
H	-0.654007	2.499996	-0.111213	1
H	0.985493	1.130716	-2.147503	1
H	1.281863	-0.632164	-2.019293	1
H	2.572013	0.531176	-1.623303	1
Es	-0.840760	-0.687924	1.071695	99
Es	0.033965	-2.184057	0.347837	99
Es	1.261223	0.363370	-0.881647	99
Es	-0.682799	-2.036564	0.543805	99
Es	-0.649855	-0.248351	0.624831	99
Es	-0.456608	-0.622201	1.540617	99
Es	-0.885328	-2.529677	1.062566	99
Es	1.549505	0.613988	0.454193	99
Es	-1.653241	1.729690	0.693449	99
Es	2.133782	0.361548	0.689158	99
Es	-0.485989	0.345235	0.079042	99
Es	2.215589	0.469238	-1.613831	99
Es	1.836470	0.358495	0.782493	99
Es	-0.741717	-1.270641	0.827284	99
Es	1.691758	0.352563	1.066113	99
Es	0.279651	0.352673	-0.052015	99
Es	-1.178877	-0.636410	1.162694	99
Es	1.139745	0.870894	-1.953119	99
Es	-0.683410	1.027510	0.333742	99
Es	-1.114891	-2.136320	-0.060531	99
Es	-0.921948	1.711318	0.599648	99
Es	1.495580	0.346794	-1.583572	99
Es	-0.732948	2.243626	0.106886	99
Es	1.031095	0.364279	-0.151278	99
Es	1.338582	-0.307420	-1.859068	99
Es	-0.829294	0.203848	-0.573274	99
Es	1.552888	0.108627	0.448310	99
Es	-0.592619	1.867079	1.241926	99
46
Properties=species:S:1:pos:R:3:Z:I:1 energy=-325.1623844605827 field_type=dipole dipole="0.000000 0.000000 0.000000" charge=0
C	-0.682787	-2.036684	0.543767	6
N	-0.841347	-0.687834	1.071897	7
C	-0.486017	0.345286	0.078947	6
C	-0.921977	1.711346	0.599687	6
C	1.031083	0.364276	-0.151253	6
C	1.495623	0.346796	-1.583593	6
O	1.836573	0.358496	0.782607	8
H	-0.986667	-2.760604	1.305087	1
H	0.354843	-2.253784	0.273177	1
H	-1.320237	-2.193914	-0.331953	1
H	-0.219107	-0.571814	1.877877	1
H	-1.000507	0.147806	-0.868513	1
H	-0.438427	1.954876	1.553327	1
H	-2.006417	1.746026	0.750247	1
H	-0.654007	2.499996	-0.111213	1
H	0.985493	1.130716	-2.147503	1
H	1.281863	-0.632164	-2.019293	1
H	2.572013	0.531176	-1.623303	1
Es	1.836332	0.358489	0.782388	99
Es	1.261255	0.363621	-0.881620	99
Es	-1.115004	-2.136401	-0.060587	99
Es	-0.840773	-0.687923	1.071693	99
Es	-0.485989	0.345235	0.079041	99
Es	2.215465	0.469438	-1.613896	99
Es	-0.732978	2.243596	0.106913	99
Es	1.549525	0.613888	0.454271	99
Es	-0.741566	-1.270601	0.827357	99
Es	1.495580	0.346793	-1.583572	99
Es	1.338732	-0.307636	-1.858918	99
Es	-1.653249	1.729706	0.693460	99
Es	-0.682798	-2.036564	0.543806	99
Es	1.691189	0.352178	1.065863	99
Es	-1.178971	-0.636435	1.162598	99
Es	-0.592632	1.867143	1.241887	99
Es	0.279604	0.352661	-0.051980	99
Es	-0.683351	1.027483	0.333725	99
Es	-0.649741	-0.248380	0.624866	99
Es	1.139675	0.870683	-1.953241	99
Es	-0.921948	1.711318	0.599649	99
Es	-0.456743	-0.622206	1.540675	99
Es	0.033955	-2.184111	0.347901	99
Es	1.031095	0.364280	-0.151277	99
Es	-0.885240	-2.529555	1.062508	99
Es	-0.829265	0.203856	-0.573259	99
Es	2.134037	0.361954	0.689909	99
Es	1.553352	0.108699	0.447797	99
46
Properties=species:S:1:pos:R:3:Z:I:1 energy=-325.1623844605827 field_type=dipole dipole="0.000000 0.000000 0.000000" charge=0
C	-0.682787	-2.036684	0.543767	6
N	-0.841347	-0.687834	1.071897	7
C	-0.486017	0.345286	0.078947	6
C	-0.921977	1.711346	0.599687	6
C	1.031083	0.364276	-0.151253	6
C	1.495623	0.346796	-1.583593	6
O	1.836573	0.358496	0.782607	8
H	-0.986667	-2.760604	1.305087	1
H	0.354843	-2.253784	0.273177	1
H	-1.320237	-2.193914	-0.331953	1
H	-0.219107	-0.571814	1.877877	1
H	-1.000507	0.147806	-0.868513	1
H	-0.438427	1.954876	1.553327	1
H	-2.006417	1.746026	0.750247	1
H	-0.654007	2.499996	-0.111213	1
H	0.985493	1.130716	-2.147503	1
H	1.281863	-0.632164	-2.019293	1
H	2.572013	0.531176	-1.623303	1
Es	1.836288	0.358495	0.782408	99
Es	1.261334	0.363351	-0.881638	99
Es	-1.653230	1.729695	0.693476	99
Es	2.134286	0.360974	0.690601	99
Es	0.279512	0.352550	-0.051972	99
Es	-0.650166	-0.248048	0.624807	99
Es	-0.592640	1.867104	1.241878	99
Es	-0.921949	1.711319	0.599649	99
Es	-0.840742	-0.687926	1.071690	99
Es	-0.456995	-0.622073	1.540895	99
Es	-0.885302	-2.529677	1.062552	99
Es	1.495580	0.346791	-1.583573	99
Es	1.139717	0.870905	-1.953027	99
Es	1.338586	-0.307457	-1.859126	99
Es	1.550233	0.614369	0.454094	99
Es	0.033913	-2.184087	0.347825	99
Es	2.215522	0.469284	-1.613915	99
Es	1.552713	0.108857	0.447916	99
Es	-1.178426	-0.636836	1.162462	99
Es	-1.114892	-2.136350	-0.060510	99
Es	-0.485987	0.345234	0.079041	99
Es	-0.732972	2.243640	0.106905	99
Es	1.031091	0.364282	-0.151283	99
Es	-0.682798	-2.036564	0.543805	99
Es	1.690876	0.352562	1.065228	99
Es	-0.683297	1.027601	0.333723	99
Es	-0.741474	-1.270638	0.827299	99
Es	-0.829234	0.203852	-0.573258	99
46
Properties=species:S:1:pos:R:3:Z:I:1 energy=-325.1623844605827 field_type=dipole dipole="0.000000 0.000000 0.000000" charge=0
C	-0.682787	-2.036684	0.543767	6
N	-0.841347	-0.687834	1.071897	7
C	-0.486017	0.345286	0.078947	6
C	-0.921977	1.711346	0.599687	6
C	1.031083	0.364276	-0.151253	6
C	1.495623	0.346796	-1.583593	6
O	1.836573	0.358496	0.782607	8
H	-0.986667	-2.760604	1.305087	1
H	0.354843	-2.253784	0.273177	1
H	-1.320237	-2.193914	-0.331953	1
H	-0.219107	-0.571814	1.877877	1
H	-1.000507	0.147806	-0.868513	1
H	-0.438427	1.954876	1.553327	1
H	-2.006417	1.746026	0.750247	1
H	-0.654007	2.499996	-0.111213	1
H	0.985493	1.130716	-2.147503	1
H	1.281863	-0.632164	-2.019293	1
H	2.572013	0.531176	-1.623303	1
Es	-0.921949	1.711319	0.599649	99
Es	-0.741587	-1.270616	0.827325	99
Es	-0.592652	1.867071	1.241985	99
Es	-1.178880	-0.636361	1.162541	99
Es	2.215485	0.469308	-1.613888	99
Es	2.132627	0.362223	0.689209	99
Es	1.553461	0.108469	0.447261	99
Es	-1.653289	1.729794	0.693318	99
Es	1.495580	0.346795	-1.583572	99
Es	1.139653	0.870910	-1.953114	99
Es	1.338646	-0.307528	-1.859019	99
Es	-0.456892	-0.622209	1.540681	99
Es	-0.485989	0.345236	0.079040	99
Es	-0.732897	2.243556	0.107061	99
Es	-0.682799	-2.036565	0.543805	99
Es	-1.114778	-2.136294	-0.060546	99
Es	-0.683338	1.027606	0.333593	99
Es	-0.829227	0.203863	-0.573198	99
Es	1.261420	0.363397	-0.881667	99
Es	1.692346	0.351727	1.066776	99
Es	0.279469	0.352626	-0.052029	99
Es	-0.649615	-0.248413	0.624929	99
Es	1.549563	0.614304	0.454683	99
Es	0.033851	-2.184102	0.347869	99
Es	-0.885384	-2.529755	1.062541	99
Es	-0.840777	-0.687923	1.071693	99
Es	1.031095	0.364276	-0.151278	99
Es	1.836407	0.358495	0.782307	99
46
Properties=species:S:1:pos:R:3:Z:I:1 energy=-325.1623844605827 field_type=dipole dipole="0.000000 0.000000 0.000000" charge=0
C	-0.682787	-2.036684	0.543767	6
N	-0.841347	-0.687834	1.071897	7
C	-0.486017	0.345286	0.078947	6
C	-0.921977	1.711346	0.599687	6
C	1.031083	0.364276	-0.151253	6
C	1.495623	0.346796	-1.583593	6
O	1.836573	0.358496	0.782607	8
H	-0.986667	-2.760604	1.305087	1
H	0.354843	-2.253784	0.273177	1
H	-1.320237	-2.193914	-0.331953	1
H	-0.219107	-0.571814	1.877877	1
H	-1.000507	0.147806	-0.868513	1
H	-0.438427	1.954876	1.553327	1
H	-2.006417	1.746026	0.750247	1
H	-0.654007	2.499996	-0.111213	1
H	0.985493	1.130716	-2.147503	1
H	1.281863	-0.632164	-2.019293	1
H	2.572013	0.531176	-1.623303	1
Es	-1.114880	-2.136380	-0.060497	99
Es	-0.683344	1.027581	0.333648	99
Es	1.551379	0.614354	0.452613	99
Es	1.690022	0.353540	1.065592	99
Es	-1.653212	1.729744	0.693506	99
Es	-0.921949	1.711319	0.599649	99
Es	-0.649981	-0.248483	0.624835	99
Es	1.338586	-0.307498	-1.859032	99
Es	1.552886	0.108993	0.448273	99
Es	-0.456495	-0.622130	1.540238	99
Es	-0.829111	0.203843	-0.573240	99
Es	1.261455	0.363396	-0.881672	99
Es	-0.732992	2.243645	0.106957	99
Es	-0.592655	1.867117	1.241840	99
Es	-0.741314	-1.270471	0.827375	99
Es	-0.840764	-0.687920	1.071694	99
Es	0.279353	0.352684	-0.051918	99
Es	-0.485990	0.345230	0.079044	99
Es	-1.179192	-0.636564	1.163042	99
Es	1.031094	0.364278	-0.151277	99
Es	2.133699	0.359843	0.691461	99
Es	2.215527	0.469298	-1.613954	99
Es	1.495581	0.346793	-1.583573	99
Es	0.033836	-2.184096	0.347806	99
Es	1.836389	0.358497	0.782275	99
Es	-0.682799	-2.036561	0.543807	99
Es	1.139676	0.870858	-1.953074	99
Es	-0.885259	-2.529704	1.062538	99
46
Properties=species:S:1:pos:R:3:Z:I:1 energy=-325.1623844605827 field_type=dipole dipole="0.000000 0.000000 0.000000" charge=0
C	-0.682787	-2.036684	0.543767	6
N	-0.841347	-0.687834	1.071897	7
C	-0.486017	0.345286	0.078947	6
C	-0.921977	1.711346	0.599687	6
C	1.031083	0.364276	-0.151253	6
C	1.495623	0.346796	-1.583593	6
O	1.836573	0.358496	0.782607	8
H	-0.986667	-2.760604	1.305087	1
H	0.354843	-2.253784	0.273177	1
H	-1.320237	-2.193914	-0.331953	1
H	-0.219107	-0.571814	1.877877	1
H	-1.000507	0.147806	-0.868513	1
H	-0.438427	1.954876	1.553327	1
H	-2.006417	1.746026	0.750247	1
H	-0.654007	2.499996	-0.111213	1
H	0.985493	1.130716	-2.147503	1
H	1.281863	-0.632164	-2.019293	1
H	2.572013	0.531176	-1.623303	1
Es	-1.653209	1.729735	0.693405	99
Es	1.549190	0.614093	0.454107	99
Es	-0.921949	1.711319	0.599649	99
Es	-0.885344	-2.529723	1.062485	99
Es	-0.741936	-1.270727	0.827323	99
Es	-0.840813	-0.687913	1.071693	99
Es	1.031092	0.364278	-0.151280	99
Es	-0.829066	0.203841	-0.573200	99
Es	0.279311	0.352698	-0.051930	99
Es	1.836275	0.358529	0.782327	99
Es	1.139656	0.870897	-1.953049	99
Es	0.033854	-2.184122	0.347863	99
Es	-0.649810	-0.248315	0.624843	99
Es	1.693355	0.352909	1.066383	99
Es	2.133185	0.361111	0.688334	99
Es	1.338588	-0.307573	-1.859028	99
Es	1.552345	0.108511	0.449068	99
Es	2.215516	0.469327	-1.613906	99
Es	1.495580	0.346794	-1.583573	99
Es	-1.178382	-0.636343	1.162765	99
Es	-0.456820	-0.622286	1.540555	99
Es	-0.592725	1.867146	1.241896	99
Es	-0.683299	1.027634	0.333641	99
Es	-0.485989	0.345237	0.079040	99
Es	-0.682798	-2.036566	0.543805	99
Es	-0.732988	2.243635	0.107017	99
Es	-1.114793	-2.136353	-0.060515	99
Es	1.261520	0.363433	-0.881761	99
46
Properties=species:S:1:pos:R:3:Z:I:1 energy=-325.1623844605827 field_type=dipole dipole="0.000000 0.000000 0.000000" charge=0
C	-0.682787	-2.036684	0.543767	6
N	-0.841347	-0.687834	1.071897	7
C	-0.486017	0.345286	0.078947	6
C	-0.921977	1.711346	0.599687	6
C	1.031083	0.364276	-0.151253	6
C	1.495623	0.346796	-1.583593	6
O	1.836573	0.358496	0.782607	8
H	-0.986667	-2.760604	1.305087	1
H	0.354843	-2.253784	0.273177	1
H	-1.320237	-2.193914	-0.331953	1
H	-0.219107	-0.571814	1.877877	1
H	-1.000507	0.147806	-0.868513	1
H	-0.438427	1.954876	1.553327	1
H	-2.006417	1.746026	0.750247	1
H	-0.654007	2.499996	-0.111213	1
H	0.985493	1.130716	-2.147503	1
H	1.281863	-0.632164	-2.019293	1
H	2.572013	0.531176	-1.623303	1
Es	1.552421	0.108450	0.448749	99
Es	1.495581	0.346798	-1.583570	99
Es	1.139607	0.870814	-1.953157	99
Es	-1.653145	1.729784	0.693406	99
Es	1.548882	0.613857	0.454558	99
Es	-0.741783	-1.270760	0.827452	99
Es	0.033834	-2.184081	0.347780	99
Es	-1.178414	-0.636415	1.162515	99
Es	-0.457124	-0.622150	1.540710	99
Es	-0.885279	-2.529761	1.062499	99
Es	-1.114805	-2.136382	-0.060450	99
Es	2.133379	0.361741	0.688228	99
Es	-0.840772	-0.687923	1.071698	99
Es	2.215527	0.469397	-1.613852	99
Es	-0.732994	2.243582	0.106933	99
Es	-0.829137	0.203777	-0.573171	99
Es	0.279322	0.352668	-0.051982	99
Es	1.338674	-0.307632	-1.858921	99
Es	-0.592700	1.867197	1.241919	99
Es	1.261488	0.363481	-0.881811	99
Es	-0.682799	-2.036565	0.543805	99
Es	1.693221	0.352673	1.066206	99
Es	-0.683397	1.027587	0.333696	99
Es	-0.921948	1.711320	0.599648	99
Es	-0.649632	-0.248246	0.624836	99
Es	1.836435	0.358485	0.782472	99
Es	-0.485988	0.345238	0.079040	99
Es	1.031092	0.364275	-0.151282	99
46
Properties=species:S:1:pos:R:3:Z:I:1 energy=-325.1623844605827 field_type=dipole dipole="0.000000 0.000000 0.000000" charge=0
C	-0.682787	-2.036684	0.543767	6
N	-0.841347	-0.687834	1.071897	7
C	-0.486017	0.345286	0.078947	6
C	-0.921977	1.711346	0.599687	6
C	1.031083	0.364276	-0.151253	6
C	1.495623	0.346796	-1.583593	6
O	1.836573	0.358496	0.782607	8
H	-0.986667	-2.760604	1.305087	1
H	0.354843	-2.253784	0.273177	1
H	-1.320237	-2.193914	-0.331953	1
H	-0.219107	-0.571814	1.877877	1
H	-1.000507	0.147806	-0.868513	1
H	-0.438427	1.954876	1.553327	1
H	-2.006417	1.746026	0.750247	1
H	-0.654007	2.499996	-0.111213	1
H	0.985493	1.130716	-2.147503	1
H	1.281863	-0.632164	-2.019293	1
H	2.572013	0.531176	-1.623303	1
Es	1.552213	0.108309	0.449429	99
Es	2.132911	0.361562	0.687239	99
Es	-1.653176	1.729782	0.693456	99
Es	-1.114783	-2.136370	-0.060495	99
Es	1.261585	0.363432	-0.881847	99
Es	-0.649676	-0.248352	0.624783	99
Es	1.139604	0.870936	-1.953044	99
Es	1.338556	-0.307566	-1.858970	99
Es	2.215570	0.469303	-1.613896	99
Es	-0.485987	0.345240	0.079037	99
Es	-0.592753	1.867160	1.241833	99
Es	1.548328	0.614013	0.454519	99
Es	-0.732995	2.243656	0.107028	99
Es	1.836361	0.358499	0.782360	99
Es	-1.178366	-0.636504	1.162367	99
Es	1.495580	0.346795	-1.583573	99
Es	0.279202	0.352652	-0.051955	99
Es	-0.828989	0.203806	-0.573135	99
Es	-0.885309	-2.529753	1.062478	99
Es	1.031094	0.364279	-0.151279	99
Es	-0.840774	-0.687926	1.071700	99
Es	-0.682798	-2.036567	0.543805	99
Es	0.033779	-2.184136	0.347834	99
Es	-0.457257	-0.622073	1.540826	99
Es	-0.921947	1.711319	0.599648	99
Es	-0.683299	1.027666	0.333584	99
Es	1.694514	0.352758	1.066664	99
Es	-0.741639	-1.270710	0.827558	99
46
Properties=species:S:1:pos:R:3:Z:I:1 energy=-325.1623844605827 field_type=dipole dipole="0.000000 0.000000 0.000000" charge=0
C	-0.682787	-2.036684	0.543767	6
N	-0.841347	-0.687834	1.071897	7
C	-0.486017	0.345286	0.078947	6
C	-0.921977	1.711346	0.599687	6
C	1.031083	0.364276	-0.151253	6
C	1.495623	0.346796	-1.583593	6
O	1.836573	0.358496	0.782607	8
H	-0.986667	-2.760604	1.305087	1
H	0.354843	-2.253784	0.273177	1
H	-1.320237	-2.193914	-0.331953	1
H	-0.219107	-0.571814	1.877877	1
H	-1.000507	0.147806	-0.868513	1
H	-0.438427	1.954876	1.553327	1
H	-2.006417	1.746026	0.750247	1
H	-0.654007	2.499996	-0.111213	1
H	0.985493	1.130716	-2.147503	1
H	1.281863	-0.632164	-2.019293	1
H	2.572013	0.531176	-1.623303	1
Es	1.548894	0.614313	0.454674	99
Es	1.261629	0.363445	-0.881784	99
Es	1.696377	0.353778	1.067370	99
Es	-0.741766	-1.270777	0.827525	99
Es	1.495580	0.346797	-1.583572	99
Es	-0.840768	-0.687929	1.071676	99
Es	-1.178200	-0.636415	1.162352	99
Es	-0.733010	2.243682	0.107025	99
Es	2.215527	0.469314	-1.613943	99
Es	-1.653152	1.729773	0.693467	99
Es	-0.828988	0.203825	-0.573157	99
Es	-0.485988	0.345238	0.079039	99
Es	-0.649653	-0.248340	0.624832	99
Es	1.139625	0.870905	-1.953040	99
Es	-0.682799	-2.036565	0.543804	99
Es	-0.457337	-0.622091	1.540860	99
Es	0.279133	0.352599	-0.051911	99
Es	1.550687	0.108125	0.450104	99
Es	1.338565	-0.307582	-1.858991	99
Es	1.031093	0.364278	-0.151279	99
Es	2.132022	0.360504	0.685644	99
Es	-0.921947	1.711316	0.599650	99
Es	1.836355	0.358483	0.782381	99
Es	-1.114761	-2.136383	-0.060497	99
Es	-0.683294	1.027705	0.333559	99
Es	-0.592723	1.867118	1.241858	99
Es	-0.885295	-2.529777	1.062472	99
Es	0.033740	-2.184131	0.347836	99
46
Properties=species:S:1:pos:R:3:Z:I:1 energy=-325.1623844605827 field_type=dipole dipole="0.000000 0.000000 0.000000" charge=0
C	-0.682787	-2.036684	0.543767	6
N	-0.841347	-0.687834	1.071897	7
C	-0.486017	0.345286	0.078947	6
C	-0.921977	1.711346	0.599687	6
C	1.031083	0.364276	-0.151253	6
C	1.495623	0.346796	-1.583593	6
O	1.836573	0.358496	0.782607	8
H	-0.986667	-2.760604	1.305087	1
H	0.354843	-2.253784	0.273177	1
H	-1.320237	-2.193914	-0.331953	1
H	-0.219107	-0.571814	1.877877	1
H	-1.000507	0.147806	-0.868513	1
H	-0.438427	1.954876	1.553327	1
H	-2.006417	1.746026	0.750247	1
H	-0.654007	2.499996	-0.111213	1
H	0.985493	1.130716	-2.147503	1
H	1.281863	-0.632164	-2.019293	1
H	2.572013	0.531176	-1.623303	1
Es	1.692791	0.353250	1.065489	99
Es	-0.885374	-2.529782	1.062436	99
Es	-0.682798	-2.036572	0.543803	99
Es	-0.741788	-1.270795	0.827498	99
Es	-0.485990	0.345236	0.079040	99
Es	1.261676	0.363441	-0.881862	99
Es	2.215608	0.469208	-1.613939	99
Es	1.836395	0.358514	0.782416	99
Es	-1.114744	-2.136319	-0.060445	99
Es	-1.653193	1.729839	0.693303	99
Es	-0.732949	2.243617	0.107167	99
Es	-0.840758	-0.687931	1.071680	99
Es	-0.649697	-0.248275	0.624868	99
Es	0.033745	-2.184203	0.347800	99
Es	1.552843	0.108095	0.449482	99
Es	2.133519	0.361383	0.689268	99
Es	-0.592790	1.867125	1.241948	99
Es	-0.921947	1.711319	0.599648	99
Es	-0.828920	0.203806	-0.573120	99
Es	1.338502	-0.307522	-1.858885	99
Es	1.495581	0.346801	-1.583572	99
Es	-1.178017	-0.636438	1.162286	99
Es	-0.683265	1.027767	0.333460	99
Es	-0.457413	-0.622122	1.540941	99
Es	0.279075	0.352600	-0.051892	99
Es	1.139580	0.870968	-1.953082	99
Es	1.548777	0.613912	0.453491	99
Es	1.031098	0.364285	-0.151274	99
