46
Properties=species:S:1:pos:R:3:Z:I:1 energy=-325.1518002164531 field_type=dipole dipole="0.000000 0.000000 0.000000" charge=0
C	-2.425912	-0.832918	0.812881	6
N	-0.968042	-0.850158	0.743661	7
C	-0.469062	0.395282	0.144801	6
C	1.063768	0.440932	0.096521	6
C	1.679698	-0.660778	-0.763609	6
C	1.530047	1.780892	-0.447339	6
O	0.786278	2.672052	-0.845799	8
H	-2.781162	-1.772468	1.247241	1
H	-2.872082	-0.733228	-0.182309	1
H	-2.783632	-0.018008	1.450181	1
H	-0.684362	-1.644758	0.172191	1
H	-0.826602	1.246332	0.738631	1
H	-0.875813	0.511382	-0.867799	1
H	1.464718	0.364882	1.114971	1
H	1.305838	-0.614428	-1.792659	1
H	1.460837	-1.655088	-0.362649	1
H	2.770188	-0.559718	-0.807439	1
H	2.625298	1.929802	-0.451469	1
Es	-2.665390	-0.271882	1.243228	99
Es	0.310344	0.409594	0.113504	99
Es	1.294664	1.111792	-0.181251	99
Es	0.941613	2.924068	-0.944962	99
Es	2.420017	-0.584041	-0.789368	99
Es	-1.605785	-0.834419	0.746569	99
Es	-0.829181	-0.888541	1.070082	99
Es	1.063796	0.440957	0.096459	99
Es	1.524802	-1.329653	-0.488812	99
Es	2.286873	1.868074	-0.446977	99
Es	1.045924	2.445339	-0.468526	99
Es	1.679685	-0.660736	-0.763583	99
Es	1.530045	1.780882	-0.447342	99
Es	1.343160	0.404329	0.777032	99
Es	-0.469031	0.395145	0.144861	99
Es	1.371316	-0.098005	-0.337460	99
Es	1.420124	-0.623327	-1.460212	99
Es	-0.759476	-0.316747	0.458973	99
Es	-0.712341	0.967902	0.554132	99
Es	0.786450	2.671782	-0.845679	99
Es	-0.742693	0.470737	-0.557022	99
Es	-2.735468	-0.759588	0.123537	99
Es	0.485538	2.592673	-0.825673	99
Es	-0.807283	-1.321290	0.374421	99
Es	-0.968283	-0.850081	0.743074	99
Es	-2.668296	-1.476879	1.105307	99
Es	-2.425780	-0.832923	0.812873	99
Es	1.066399	2.249790	-0.934178	99
46
Properties=species:S:1:pos:R:3:Z:I:1 energy=-325.1518002164531 field_type=dipole dipole="0.000000 0.000000 0.000000" charge=0
C	-2.425912	-0.832918	0.812881	6
N	-0.968042	-0.850158	0.743661	7
C	-0.469062	0.395282	0.144801	6
C	1.063768	0.440932	0.096521	6
C	1.679698	-0.660778	-0.763609	6
C	1.530047	1.780892	-0.447339	6
O	0.786278	2.672052	-0.845799	8
H	-2.781162	-1.772468	1.247241	1
H	-2.872082	-0.733228	-0.182309	1
H	-2.783632	-0.018008	1.450181	1
H	-0.684362	-1.644758	0.172191	1
H	-0.826602	1.246332	0.738631	1
H	-0.875813	0.511382	-0.867799	1
H	1.464718	0.364882	1.114971	1
H	1.305838	-0.614428	-1.792659	1
H	1.460837	-1.655088	-0.362649	1
H	2.770188	-0.559718	-0.807439	1
H	2.625298	1.929802	-0.451469	1
Es	1.343177	0.404304	0.776824	99
Es	0.485578	2.592918	-0.824724	99
Es	-2.668370	-1.476958	1.105357	99
Es	1.371256	-0.098169	-0.337376	99
Es	1.294671	1.111910	-0.181055	99
Es	2.419908	-0.583944	-0.789250	99
Es	-0.807538	-1.321347	0.374127	99
Es	1.530042	1.780888	-0.447337	99
Es	-0.759425	-0.316733	0.459167	99
Es	0.310266	0.409546	0.113571	99
Es	-0.742756	0.470760	-0.556983	99
Es	1.065325	2.250157	-0.934844	99
Es	-0.968278	-0.850076	0.743110	99
Es	2.286917	1.868103	-0.446976	99
Es	0.786439	2.671775	-0.845678	99
Es	1.420211	-0.623201	-1.460311	99
Es	1.524910	-1.329756	-0.488940	99
Es	1.063796	0.440957	0.096459	99
Es	-2.665404	-0.271993	1.243102	99
Es	-0.469030	0.395146	0.144862	99
Es	-2.735444	-0.759506	0.123557	99
Es	1.679685	-0.660737	-0.763583	99
Es	-0.829109	-0.888730	1.069983	99
Es	-0.712248	0.967919	0.554132	99
Es	-1.605623	-0.834080	0.746832	99
Es	0.942220	2.924966	-0.944404	99
Es	-2.425779	-0.832923	0.812872	99
Es	1.046346	2.443758	-0.469488	99
46
Properties=species:S:1:pos:R:3:Z:I:1 energy=-325.1518002164531 field_type=dipole dipole="0.000000 0.000000 0.000000" charge=0
C	-2.425912	-0.832918	0.812881	6
N	-0.968042	-0.850158	0.743661	7
C	-0.469062	0.395282	0.144801	6
C	1.063768	0.440932	0.096521	6
C	1.679698	-0.660778	-0.763609	6
C	1.530047	1.780892	-0.447339	6
O	0.786278	2.672052	-0.845799	8
H	-2.781162	-1.772468	1.247241	1
H	-2.872082	-0.733228	-0.182309	1
H	-2.783632	-0.018008	1.450181	1
H	-0.684362	-1.644758	0.172191	1
H	-0.826602	1.246332	0.738631	1
H	-0.875813	0.511382	-0.867799	1
H	1.464718	0.364882	1.114971	1
H	1.305838	-0.614428	-1.792659	1
H	1.460837	-1.655088	-0.362649	1
H	2.770188	-0.559718	-0.807439	1
H	2.625298	1.929802	-0.451469	1
Es	1.371277	-0.098108	-0.337547	99
Es	1.343244	0.404345	0.776743	99
Es	-2.668316	-1.476844	1.105348	99
Es	-1.605747	-0.834156	0.747176	99
Es	1.294577	1.111832	-0.180989	99
Es	-0.759281	-0.316817	0.458800	99
Es	-0.968286	-0.850080	0.743114	99
Es	2.419949	-0.583921	-0.789446	99
Es	0.937960	2.925996	-0.945458	99
Es	-0.829138	-0.888419	1.069512	99
Es	1.063796	0.440957	0.096461	99
Es	-2.735446	-0.759648	0.123528	99
Es	0.310331	0.409700	0.113721	99
Es	1.524904	-1.329819	-0.488910	99
Es	1.067089	2.251096	-0.935251	99
Es	0.786477	2.671822	-0.845702	99
Es	-0.807444	-1.321565	0.374630	99
Es	-2.665505	-0.271966	1.243098	99
Es	1.047611	2.445375	-0.468834	99
Es	-0.469030	0.395147	0.144860	99
Es	1.679684	-0.660737	-0.763582	99
Es	1.420177	-0.623266	-1.460112	99
Es	-2.425780	-0.832924	0.812872	99
Es	1.530040	1.780892	-0.447335	99
Es	-0.742724	0.470756	-0.556906	99
Es	0.486816	2.589315	-0.823890	99
Es	2.286887	1.868127	-0.446964	99
Es	-0.712379	0.967860	0.554068	99
46
Properties=species:S:1:pos:R:3:Z:I:1 energy=-325.1518002164531 field_type=dipole dipole="0.000000 0.000000 0.000000" charge=0
C	-2.425912	-0.832918	0.812881	6
N	-0.968042	-0.850158	0.743661	7
C	-0.469062	0.395282	0.144801	6
C	1.063768	0.440932	0.096521	6
C	1.679698	-0.660778	-0.763609	6
C	1.530047	1.780892	-0.447339	6
O	0.786278	2.672052	-0.845799	8
H	-2.781162	-1.772468	1.247241	1
H	-2.872082	-0.733228	-0.182309	1
H	-2.783632	-0.018008	1.450181	1
H	-0.684362	-1.644758	0.172191	1
H	-0.826602	1.246332	0.738631	1
H	-0.875813	0.511382	-0.867799	1
H	1.464718	0.364882	1.114971	1
H	1.305838	-0.614428	-1.792659	1
H	1.460837	-1.655088	-0.362649	1
H	2.770188	-0.559718	-0.807439	1
H	2.625298	1.929802	-0.451469	1
Es	-0.469030	0.395149	0.144860	99
Es	1.343192	0.404283	0.776675	99
Es	2.419962	-0.584002	-0.789421	99
Es	-1.605703	-0.834259	0.746859	99
Es	1.065316	2.249992	-0.935320	99
Es	-2.425783	-0.832924	0.812873	99
Es	1.045528	2.443195	-0.469039	99
Es	1.063797	0.440957	0.096460	99
Es	2.286907	1.868178	-0.446964	99
Es	1.530041	1.780890	-0.447337	99
Es	0.944897	2.922081	-0.942359	99
Es	0.786346	2.671907	-0.845738	99
Es	-0.829153	-0.888351	1.069827	99
Es	1.420188	-0.623335	-1.460143	99
Es	-0.807266	-1.321490	0.374627	99
Es	1.371295	-0.098022	-0.337487	99
Es	-2.668346	-1.476839	1.105292	99
Es	0.483861	2.596420	-0.826672	99
Es	-0.968277	-0.850053	0.743076	99
Es	1.294557	1.111826	-0.180818	99
Es	-0.759544	-0.316885	0.458838	99
Es	-2.735501	-0.759531	0.123550	99
Es	-2.665460	-0.272054	1.243160	99
Es	1.524980	-1.329694	-0.489037	99
Es	0.310283	0.409613	0.113735	99
Es	1.679685	-0.660738	-0.763584	99
Es	-0.712339	0.967874	0.554018	99
Es	-0.742689	0.470762	-0.556924	99
46
Properties=species:S:1:pos:R:3:Z:I:1 energy=-325.1518002164531 field_type=dipole dipole="0.000000 0.000000 0.000000" charge=0
C	-2.425912	-0.832918	0.812881	6
N	-0.968042	-0.850158	0.743661	7
C	-0.469062	0.395282	0.144801	6
C	1.063768	0.440932	0.096521	6
C	1.679698	-0.660778	-0.763609	6
C	1.530047	1.780892	-0.447339	6
O	0.786278	2.672052	-0.845799	8
H	-2.781162	-1.772468	1.247241	1
H	-2.872082	-0.733228	-0.182309	1
H	-2.783632	-0.018008	1.450181	1
H	-0.684362	-1.644758	0.172191	1
H	-0.826602	1.246332	0.738631	1
H	-0.875813	0.511382	-0.867799	1
H	1.464718	0.364882	1.114971	1
H	1.305838	-0.614428	-1.792659	1
H	1.460837	-1.655088	-0.362649	1
H	2.770188	-0.559718	-0.807439	1
H	2.625298	1.929802	-0.451469	1
Es	-2.665479	-0.272026	1.243079	99
Es	1.679685	-0.660737	-0.763584	99
Es	-0.759282	-0.316700	0.459027	99
Es	-0.829647	-0.888195	1.069359	99
Es	1.530041	1.780888	-0.447339	99
Es	1.343252	0.404479	0.776683	99
Es	1.420251	-0.623353	-1.460108	99
Es	2.419955	-0.584038	-0.789426	99
Es	0.941445	2.922777	-0.945852	99
Es	-0.712314	0.967841	0.554033	99
Es	-0.807061	-1.321836	0.374805	99
Es	0.485758	2.594153	-0.824711	99
Es	1.063797	0.440957	0.096460	99
Es	1.371326	-0.098028	-0.337494	99
Es	0.310263	0.409668	0.113703	99
Es	-2.735464	-0.759547	0.123619	99
Es	-0.469030	0.395146	0.144861	99
Es	2.286920	1.868133	-0.447101	99
Es	-1.605622	-0.834245	0.746945	99
Es	-0.742752	0.470803	-0.556868	99
Es	1.294484	1.111644	-0.180945	99
Es	-0.968266	-0.850089	0.743083	99
Es	1.065468	2.248766	-0.934331	99
Es	-2.425786	-0.832924	0.812873	99
Es	1.524933	-1.329713	-0.489032	99
Es	0.786411	2.671637	-0.845623	99
Es	-2.668411	-1.476854	1.105311	99
Es	1.046868	2.446345	-0.468421	99
46
Properties=species:S:1:pos:R:3:Z:I:1 energy=-325.1518002164531 field_type=dipole dipole="0.000000 0.000000 0.000000" charge=0
C	-2.425912	-0.832918	0.812881	6
N	-0.968042	-0.850158	0.743661	7
C	-0.469062	0.395282	0.144801	6
C	1.063768	0.440932	0.096521	6
C	1.679698	-0.660778	-0.763609	6
C	1.530047	1.780892	-0.447339	6
O	0.786278	2.672052	-0.845799	8
H	-2.781162	-1.772468	1.247241	1
H	-2.872082	-0.733228	-0.182309	1
H	-2.783632	-0.018008	1.450181	1
H	-0.684362	-1.644758	0.172191	1
H	-0.826602	1.246332	0.738631	1
H	-0.875813	0.511382	-0.867799	1
H	1.464718	0.364882	1.114971	1
H	1.305838	-0.614428	-1.792659	1
H	1.460837	-1.655088	-0.362649	1
H	2.770188	-0.559718	-0.807439	1
H	2.625298	1.929802	-0.451469	1
Es	1.046421	2.444713	-0.468694	99
Es	1.063797	0.440957	0.096461	99
Es	-0.469030	0.395150	0.144859	99
Es	1.525001	-1.329702	-0.489084	99
Es	1.420265	-0.623364	-1.460133	99
Es	-0.968280	-0.850085	0.743081	99
Es	-0.759211	-0.316670	0.459197	99
Es	1.294431	1.111597	-0.180786	99
Es	-2.665488	-0.272001	1.243044	99
Es	-2.668430	-1.476878	1.105327	99
Es	-0.829655	-0.888383	1.069291	99
Es	-0.807089	-1.321714	0.374770	99
Es	0.486522	2.590669	-0.825221	99
Es	1.530043	1.780887	-0.447338	99
Es	-0.712343	0.967868	0.553952	99
Es	-0.742666	0.470778	-0.556867	99
Es	-1.605692	-0.834211	0.746868	99
Es	-2.425783	-0.832924	0.812873	99
Es	1.067221	2.250953	-0.935152	99
Es	-2.735454	-0.759560	0.123675	99
Es	1.371375	-0.098098	-0.337488	99
Es	0.939333	2.925395	-0.944349	99
Es	0.310274	0.409701	0.113759	99
Es	1.679685	-0.660738	-0.763583	99
Es	0.786455	2.671855	-0.845708	99
Es	2.286930	1.868252	-0.446977	99
Es	2.419919	-0.584040	-0.789421	99
Es	1.343190	0.404542	0.776649	99
46
Properties=species:S:1:pos:R:3:Z:I:1 energy=-325.1518002164531 field_type=dipole dipole="0.000000 0.000000 0.000000" charge=0
C	-2.425912	-0.832918	0.812881	6
N	-0.968042	-0.850158	0.743661	7
C	-0.469062	0.395282	0.144801	6
C	1.063768	0.440932	0.096521	6
C	1.679698	-0.660778	-0.763609	6
C	1.530047	1.780892	-0.447339	6
O	0.786278	2.672052	-0.845799	8
H	-2.781162	-1.772468	1.247241	1
H	-2.872082	-0.733228	-0.182309	1
H	-2.783632	-0.018008	1.450181	1
H	-0.684362	-1.644758	0.172191	1
H	-0.826602	1.246332	0.738631	1
H	-0.875813	0.511382	-0.867799	1
H	1.464718	0.364882	1.114971	1
H	1.305838	-0.614428	-1.792659	1
H	1.460837	-1.655088	-0.362649	1
H	2.770188	-0.559718	-0.807439	1
H	2.625298	1.929802	-0.451469	1
Es	-0.712361	0.967835	0.553940	99
Es	1.294377	1.111506	-0.180801	99
Es	1.530042	1.780890	-0.447330	99
Es	1.525002	-1.329689	-0.489074	99
Es	1.063800	0.440958	0.096467	99
Es	1.679686	-0.660738	-0.763584	99
Es	-0.759399	-0.316874	0.458901	99
Es	0.940490	2.924226	-0.944576	99
Es	0.486009	2.592414	-0.825071	99
Es	-0.968249	-0.850090	0.743161	99
Es	-2.425782	-0.832924	0.812873	99
Es	-0.742682	0.470813	-0.556792	99
Es	2.286930	1.868220	-0.447060	99
Es	1.046665	2.444915	-0.468643	99
Es	-1.605625	-0.834308	0.746730	99
Es	0.786500	2.671835	-0.845701	99
Es	-2.665509	-0.272025	1.243096	99
Es	1.371398	-0.098010	-0.337483	99
Es	1.343241	0.404607	0.776638	99
Es	-0.469031	0.395148	0.144860	99
Es	-0.829307	-0.888467	1.069709	99
Es	2.419884	-0.584098	-0.789466	99
Es	-0.807299	-1.321425	0.374697	99
Es	0.310285	0.409747	0.113755	99
Es	1.066320	2.250247	-0.935065	99
Es	1.420280	-0.623411	-1.460108	99
Es	-2.668443	-1.476799	1.105266	99
Es	-2.735480	-0.759551	0.123667	99
46
Properties=species:S:1:pos:R:3:Z:I:1 energy=-325.1518002164531 field_type=dipole dipole="0.000000 0.000000 0.000000" charge=0
C	-2.425912	-0.832918	0.812881	6
N	-0.968042	-0.850158	0.743661	7
C	-0.469062	0.395282	0.144801	6
C	1.063768	0.440932	0.096521	6
C	1.679698	-0.660778	-0.763609	6
C	1.530047	1.780892	-0.447339	6
O	0.786278	2.672052	-0.845799	8
H	-2.781162	-1.772468	1.247241	1
H	-2.872082	-0.733228	-0.182309	1
H	-2.783632	-0.018008	1.450181	1
H	-0.684362	-1.644758	0.172191	1
H	-0.826602	1.246332	0.738631	1
H	-0.875813	0.511382	-0.867799	1
H	1.464718	0.364882	1.114971	1
H	1.305838	-0.614428	-1.792659	1
H	1.460837	-1.655088	-0.362649	1
H	2.770188	-0.559718	-0.807439	1
H	2.625298	1.929802	-0.451469	1
Es	-0.829042	-0.888433	1.069126	99
Es	0.786428	2.671854	-0.845704	99
Es	-0.469031	0.395147	0.144860	99
Es	1.530042	1.780887	-0.447339	99
Es	-0.742656	0.470833	-0.556732	99
Es	-0.968259	-0.850091	0.743096	99
Es	1.524943	-1.329684	-0.489098	99
Es	-1.605809	-0.834332	0.747390	99
Es	0.485294	2.592377	-0.824360	99
Es	2.286929	1.868239	-0.447092	99
Es	1.063797	0.440953	0.096459	99
Es	2.419904	-0.584159	-0.789491	99
Es	1.679685	-0.660739	-0.763584	99
Es	-2.668475	-1.476843	1.105276	99
Es	1.066755	2.250446	-0.935552	99
Es	-0.712371	0.967838	0.553906	99
Es	1.343199	0.404746	0.776657	99
Es	-2.735467	-0.759532	0.123723	99
Es	-2.665526	-0.272052	1.243044	99
Es	1.371482	-0.097978	-0.337462	99
Es	-0.807328	-1.321422	0.374684	99
Es	0.939789	2.923376	-0.944409	99
Es	1.294342	1.111388	-0.180775	99
Es	0.310278	0.409768	0.113685	99
Es	-2.425781	-0.832924	0.812873	99
Es	-0.759446	-0.316873	0.458881	99
Es	1.420335	-0.623436	-1.460045	99
Es	1.047730	2.445597	-0.469009	99
46
Properties=species:S:1:pos:R:3:Z:I:1 energy=-325.1518002164531 field_type=dipole dipole="0.000000 0.000000 0.000000" charge=0
C	-2.425912	-0.832918	0.812881	6
N	-0.968042	-0.850158	0.743661	7
C	-0.469062	0.395282	0.144801	6
C	1.063768	0.440932	0.096521	6
C	1.679698	-0.660778	-0.763609	6
C	1.530047	1.780892	-0.447339	6
O	0.786278	2.672052	-0.845799	8
H	-2.781162	-1.772468	1.247241	1
H	-2.872082	-0.733228	-0.182309	1
H	-2.783632	-0.018008	1.450181	1
H	-0.684362	-1.644758	0.172191	1
H	-0.826602	1.246332	0.738631	1
H	-0.875813	0.511382	-0.867799	1
H	1.464718	0.364882	1.114971	1
H	1.305838	-0.614428	-1.792659	1
H	1.460837	-1.655088	-0.362649	1
H	2.770188	-0.559718	-0.807439	1
H	2.625298	1.929802	-0.451469	1
Es	0.786518	2.671839	-0.845694	99
Es	0.310303	0.409852	0.113727	99
Es	-2.668462	-1.476833	1.105064	99
Es	1.371427	-0.098000	-0.337527	99
Es	1.063797	0.440957	0.096460	99
Es	-2.425785	-0.832924	0.812873	99
Es	1.525009	-1.329671	-0.489150	99
Es	1.679685	-0.660736	-0.763583	99
Es	-2.735411	-0.759495	0.123772	99
Es	-0.829686	-0.888347	1.068943	99
Es	-0.968275	-0.850083	0.743098	99
Es	0.485044	2.595008	-0.826098	99
Es	-0.759118	-0.316670	0.459038	99
Es	-2.665641	-0.272066	1.243181	99
Es	1.530041	1.780887	-0.447340	99
Es	-0.469032	0.395144	0.144862	99
Es	1.065760	2.249706	-0.934986	99
Es	-0.742754	0.470899	-0.556704	99
Es	1.046203	2.444747	-0.468369	99
Es	1.420362	-0.623455	-1.460070	99
Es	1.343222	0.404696	0.776578	99
Es	-0.712324	0.967741	0.553901	99
Es	1.294305	1.111391	-0.180655	99
Es	2.419880	-0.584145	-0.789465	99
Es	0.942479	2.922346	-0.943895	99
Es	-1.605727	-0.834398	0.747052	99
Es	-0.807026	-1.321698	0.375084	99
Es	2.286947	1.868258	-0.447088	99
46
Properties=species:S:1:pos:R:3:Z:I:1 energy=-325.1518002164531 field_type=dipole dipole="0.000000 0.000000 0.000000" charge=0
C	-2.425912	-0.832918	0.812881	6
N	-0.968042	-0.850158	0.743661	7
C	-0.469062	0.395282	0.144801	6
C	1.063768	0.440932	0.096521	6
C	1.679698	-0.660778	-0.763609	6
C	1.530047	1.780892	-0.447339	6
O	0.786278	2.672052	-0.845799	8
H	-2.781162	-1.772468	1.247241	1
H	-2.872082	-0.733228	-0.182309	1
H	-2.783632	-0.018008	1.450181	1
H	-0.684362	-1.644758	0.172191	1
H	-0.826602	1.246332	0.738631	1
H	-0.875813	0.511382	-0.867799	1
H	1.464718	0.364882	1.114971	1
H	1.305838	-0.614428	-1.792659	1
H	1.460837	-1.655088	-0.362649	1
H	2.770188	-0.559718	-0.807439	1
H	2.625298	1.929802	-0.451469	1
Es	1.420355	-0.623480	-1.460052	99
Es	-0.806735	-1.321991	0.375330	99
Es	0.485992	2.591840	-0.825321	99
Es	-0.830191	-0.888224	1.068749	99
Es	1.371458	-0.097999	-0.337502	99
Es	1.294222	1.111307	-0.180665	99
Es	-1.605614	-0.834398	0.746798	99
Es	-0.469030	0.395152	0.144858	99
Es	2.419858	-0.584166	-0.789496	99
Es	-2.665533	-0.272083	1.243020	99
Es	0.310334	0.409878	0.113798	99
Es	1.525059	-1.329652	-0.489188	99
Es	1.530040	1.780895	-0.447328	99
Es	1.067168	2.250441	-0.934907	99
Es	1.679684	-0.660739	-0.763590	99
Es	-2.668520	-1.476810	1.105265	99
Es	-0.742666	0.470868	-0.556673	99
Es	-2.735494	-0.759515	0.123783	99
Es	0.786463	2.671827	-0.845696	99
Es	2.286953	1.868280	-0.447079	99
Es	1.343223	0.404774	0.776568	99
Es	-0.759028	-0.316537	0.459154	99
Es	1.063797	0.440957	0.096460	99
Es	0.939558	2.923814	-0.944727	99
Es	-2.425784	-0.832924	0.812873	99
Es	-0.712410	0.967754	0.553836	99
Es	1.046852	2.445734	-0.468378	99
Es	-0.968272	-0.850051	0.743116	99
