45
Properties=species:S:1:pos:R:3:Z:I:1 energy=-288.1143523217748 field_type=dipole dipole="0.000000 0.000000 0.000000" charge=0
C	-1.944729	0.819199	-0.223868	6
C	-0.596659	0.458229	0.309282	6
C	-0.336219	-0.987981	0.657082	6
C	0.815531	-1.391571	-0.272418	6
C	1.649021	-0.116461	-0.448028	6
C	0.642681	0.992009	-0.355288	6
N	0.209511	1.508429	0.933022	7
H	-1.999789	1.869789	-0.529918	1
H	-2.711369	0.651069	0.540092	1
H	-2.190859	0.203499	-1.095938	1
H	-1.210169	-1.626971	0.492842	1
H	-0.038389	-1.085521	1.708122	1
H	1.401121	-2.228070	0.118962	1
H	0.405711	-1.690751	-1.244988	1
H	2.399791	-0.029351	0.346162	1
H	2.167661	-0.116651	-1.411988	1
H	0.561911	1.630669	-1.221718	1
H	0.775241	1.140429	1.698582	1
Es	-2.466651	0.700417	0.297170	99
Es	0.593108	1.440253	-0.942793	99
Es	0.531104	-1.591433	-0.940203	99
Es	1.218097	-1.969032	-0.003863	99
Es	-1.944720	0.819184	-0.223865	99
Es	0.238346	-1.207172	0.205389	99
Es	2.160055	-0.056544	0.101831	99
Es	1.648997	-0.116470	-0.448020	99
Es	0.075396	1.839642	0.951285	99
Es	1.174401	0.462196	-0.391380	99
Es	0.642629	0.992067	-0.355056	99
Es	-0.220874	1.032502	0.795392	99
Es	0.209699	1.507855	0.932903	99
Es	-1.976102	1.529483	-0.433126	99
Es	-0.596526	0.458392	0.309390	99
Es	-2.104910	0.391514	-0.816242	99
Es	0.556212	1.266296	1.383269	99
Es	0.534764	1.355934	0.384287	99
Es	0.815523	-1.391550	-0.272408	99
Es	-1.277158	0.646769	0.053885	99
Es	-0.487092	-0.261338	0.515013	99
Es	2.001635	-0.113225	-1.106895	99
Es	-0.936345	-1.418537	0.544174	99
Es	-0.336201	-0.987967	0.657069	99
Es	1.252143	-0.763959	-0.358919	99
Es	-0.022252	0.634803	-0.198308	99
Es	-0.127287	-1.049655	1.378029	99
45
Properties=species:S:1:pos:R:3:Z:I:1 energy=-288.1143523217748 field_type=dipole dipole="0.000000 0.000000 0.000000" charge=0
C	-1.944729	0.819199	-0.223868	6
C	-0.596659	0.458229	0.309282	6
C	-0.336219	-0.987981	0.657082	6
C	0.815531	-1.391571	-0.272418	6
C	1.649021	-0.116461	-0.448028	6
C	0.642681	0.992009	-0.355288	6
N	0.209511	1.508429	0.933022	7
H	-1.999789	1.869789	-0.529918	1
H	-2.711369	0.651069	0.540092	1
H	-2.190859	0.203499	-1.095938	1
H	-1.210169	-1.626971	0.492842	1
H	-0.038389	-1.085521	1.708122	1
H	1.401121	-2.228070	0.118962	1
H	0.405711	-1.690751	-1.244988	1
H	2.399791	-0.029351	0.346162	1
H	2.167661	-0.116651	-1.411988	1
H	0.561911	1.630669	-1.221718	1
H	0.775241	1.140429	1.698582	1
Es	2.159908	-0.056525	0.101809	99
Es	-0.221062	1.032656	0.795450	99
Es	0.209711	1.507837	0.932910	99
Es	-1.944721	0.819180	-0.223864	99
Es	0.642633	0.992068	-0.355053	99
Es	1.174528	0.462361	-0.391385	99
Es	-0.486997	-0.261382	0.515170	99
Es	0.556348	1.266502	1.383252	99
Es	2.001778	-0.113199	-1.106872	99
Es	0.531070	-1.591464	-0.940116	99
Es	1.218010	-1.969036	-0.003922	99
Es	-0.596525	0.458387	0.309379	99
Es	1.252192	-0.764025	-0.359000	99
Es	-2.104965	0.391296	-0.816061	99
Es	0.238436	-1.207244	0.205368	99
Es	0.815522	-1.391550	-0.272407	99
Es	-2.466521	0.700508	0.297318	99
Es	-0.022463	0.634417	-0.198826	99
Es	-0.936517	-1.418348	0.544176	99
Es	0.593244	1.440262	-0.942622	99
Es	0.075723	1.839134	0.951316	99
Es	-1.277143	0.646899	0.053908	99
Es	-0.127385	-1.049690	1.377980	99
Es	-1.976130	1.529527	-0.433357	99
Es	0.534519	1.356291	0.384412	99
Es	-0.336199	-0.987967	0.657067	99
Es	1.648997	-0.116469	-0.448019	99
45
Properties=species:S:1:pos:R:3:Z:I:1 energy=-288.1143523217748 field_type=dipole dipole="0.000000 0.000000 0.000000" charge=0
C	-1.944729	0.819199	-0.223868	6
C	-0.596659	0.458229	0.309282	6
C	-0.336219	-0.987981	0.657082	6
C	0.815531	-1.391571	-0.272418	6
C	1.649021	-0.116461	-0.448028	6
C	0.642681	0.992009	-0.355288	6
N	0.209511	1.508429	0.933022	7
H	-1.999789	1.869789	-0.529918	1
H	-2.711369	0.651069	0.540092	1
H	-2.190859	0.203499	-1.095938	1
H	-1.210169	-1.626971	0.492842	1
H	-0.038389	-1.085521	1.708122	1
H	1.401121	-2.228070	0.118962	1
H	0.405711	-1.690751	-1.244988	1
H	2.399791	-0.029351	0.346162	1
H	2.167661	-0.116651	-1.411988	1
H	0.561911	1.630669	-1.221718	1
H	0.775241	1.140429	1.698582	1
Es	1.218041	-1.969020	-0.003920	99
Es	-0.127516	-1.049715	1.378020	99
Es	-1.976150	1.529572	-0.433160	99
Es	1.648997	-0.116469	-0.448020	99
Es	-2.466614	0.700321	0.297204	99
Es	0.815523	-1.391551	-0.272407	99
Es	0.642629	0.992067	-0.355054	99
Es	-0.936345	-1.418280	0.544198	99
Es	0.076107	1.838632	0.950995	99
Es	0.593255	1.440171	-0.942530	99
Es	0.534898	1.356253	0.384057	99
Es	-0.022632	0.634425	-0.198813	99
Es	0.238473	-1.207384	0.205296	99
Es	-2.104867	0.391506	-0.816179	99
Es	0.556185	1.266831	1.383535	99
Es	-0.487111	-0.261369	0.515035	99
Es	2.001656	-0.113168	-1.106885	99
Es	-0.221597	1.032861	0.795816	99
Es	0.209704	1.507866	0.932921	99
Es	-1.944722	0.819180	-0.223864	99
Es	-0.336199	-0.987967	0.657067	99
Es	1.174630	0.462478	-0.391338	99
Es	1.252120	-0.764009	-0.358922	99
Es	0.531123	-1.591468	-0.940118	99
Es	2.160015	-0.056517	0.101730	99
Es	-1.277081	0.646795	0.053961	99
Es	-0.596532	0.458386	0.309386	99
45
Properties=species:S:1:pos:R:3:Z:I:1 energy=-288.1143523217748 field_type=dipole dipole="0.000000 0.000000 0.000000" charge=0
C	-1.944729	0.819199	-0.223868	6
C	-0.596659	0.458229	0.309282	6
C	-0.336219	-0.987981	0.657082	6
C	0.815531	-1.391571	-0.272418	6
C	1.649021	-0.116461	-0.448028	6
C	0.642681	0.992009	-0.355288	6
N	0.209511	1.508429	0.933022	7
H	-1.999789	1.869789	-0.529918	1
H	-2.711369	0.651069	0.540092	1
H	-2.190859	0.203499	-1.095938	1
H	-1.210169	-1.626971	0.492842	1
H	-0.038389	-1.085521	1.708122	1
H	1.401121	-2.228070	0.118962	1
H	0.405711	-1.690751	-1.244988	1
H	2.399791	-0.029351	0.346162	1
H	2.167661	-0.116651	-1.411988	1
H	0.561911	1.630669	-1.221718	1
H	0.775241	1.140429	1.698582	1
Es	-0.127563	-1.049644	1.377929	99
Es	-1.944722	0.819180	-0.223865	99
Es	-0.487183	-0.261270	0.515199	99
Es	1.648997	-0.116469	-0.448019	99
Es	-0.022335	0.634421	-0.199023	99
Es	-2.466643	0.700284	0.297266	99
Es	0.209706	1.507852	0.932916	99
Es	1.174580	0.462412	-0.391311	99
Es	-2.104784	0.391475	-0.816183	99
Es	0.531155	-1.591521	-0.940077	99
Es	-1.976155	1.529566	-0.433189	99
Es	-0.222411	1.032977	0.795872	99
Es	0.593340	1.440168	-0.942525	99
Es	-0.336199	-0.987967	0.657067	99
Es	0.815523	-1.391551	-0.272408	99
Es	0.238525	-1.207385	0.205427	99
Es	0.642628	0.992065	-0.355055	99
Es	2.001672	-0.113134	-1.106876	99
Es	-0.596519	0.458392	0.309376	99
Es	-1.277086	0.646814	0.053848	99
Es	1.252212	-0.764043	-0.358962	99
Es	1.217974	-1.968947	-0.004016	99
Es	0.535051	1.356961	0.383836	99
Es	-0.936395	-1.418366	0.544212	99
Es	0.556006	1.266358	1.382978	99
Es	2.159995	-0.056480	0.101725	99
Es	0.076623	1.838281	0.951867	99
45
Properties=species:S:1:pos:R:3:Z:I:1 energy=-288.1143523217748 field_type=dipole dipole="0.000000 0.000000 0.000000" charge=0
C	-1.944729	0.819199	-0.223868	6
C	-0.596659	0.458229	0.309282	6
C	-0.336219	-0.987981	0.657082	6
C	0.815531	-1.391571	-0.272418	6
C	1.649021	-0.116461	-0.448028	6
C	0.642681	0.992009	-0.355288	6
N	0.209511	1.508429	0.933022	7
H	-1.999789	1.869789	-0.529918	1
H	-2.711369	0.651069	0.540092	1
H	-2.190859	0.203499	-1.095938	1
H	-1.210169	-1.626971	0.492842	1
H	-0.038389	-1.085521	1.708122	1
H	1.401121	-2.228070	0.118962	1
H	0.405711	-1.690751	-1.244988	1
H	2.399791	-0.029351	0.346162	1
H	2.167661	-0.116651	-1.411988	1
H	0.561911	1.630669	-1.221718	1
H	0.775241	1.140429	1.698582	1
Es	2.001681	-0.113060	-1.106794	99
Es	0.209706	1.507860	0.932919	99
Es	0.076397	1.838017	0.951139	99
Es	0.555956	1.267055	1.383504	99
Es	0.642625	0.992066	-0.355050	99
Es	2.159985	-0.056454	0.101679	99
Es	0.815523	-1.391551	-0.272408	99
Es	-0.336200	-0.987967	0.657068	99
Es	1.174671	0.462566	-0.391399	99
Es	-2.104859	0.391473	-0.816200	99
Es	-0.127620	-1.049669	1.377920	99
Es	-0.222245	1.032815	0.796038	99
Es	-0.936409	-1.418275	0.544231	99
Es	-1.277048	0.646678	0.054243	99
Es	-1.944721	0.819180	-0.223864	99
Es	-0.596524	0.458390	0.309383	99
Es	0.593341	1.440111	-0.942342	99
Es	-2.466723	0.700489	0.297170	99
Es	0.238468	-1.207425	0.205329	99
Es	1.648997	-0.116469	-0.448019	99
Es	1.217886	-1.968990	-0.004067	99
Es	0.535419	1.356692	0.383753	99
Es	-1.976063	1.529436	-0.433224	99
Es	0.531265	-1.591466	-0.940042	99
Es	-0.022653	0.634317	-0.199228	99
Es	1.252276	-0.764178	-0.358958	99
Es	-0.487140	-0.261218	0.515229	99
45
Properties=species:S:1:pos:R:3:Z:I:1 energy=-288.1143523217748 field_type=dipole dipole="0.000000 0.000000 0.000000" charge=0
C	-1.944729	0.819199	-0.223868	6
C	-0.596659	0.458229	0.309282	6
C	-0.336219	-0.987981	0.657082	6
C	0.815531	-1.391571	-0.272418	6
C	1.649021	-0.116461	-0.448028	6
C	0.642681	0.992009	-0.355288	6
N	0.209511	1.508429	0.933022	7
H	-1.999789	1.869789	-0.529918	1
H	-2.711369	0.651069	0.540092	1
H	-2.190859	0.203499	-1.095938	1
H	-1.210169	-1.626971	0.492842	1
H	-0.038389	-1.085521	1.708122	1
H	1.401121	-2.228070	0.118962	1
H	0.405711	-1.690751	-1.244988	1
H	2.399791	-0.029351	0.346162	1
H	2.167661	-0.116651	-1.411988	1
H	0.561911	1.630669	-1.221718	1
H	0.775241	1.140429	1.698582	1
Es	1.648997	-0.116470	-0.448019	99
Es	0.209704	1.507850	0.932908	99
Es	-0.127624	-1.049593	1.377858	99
Es	1.217926	-1.968850	-0.004075	99
Es	-1.944720	0.819180	-0.223864	99
Es	0.815521	-1.391553	-0.272408	99
Es	0.531276	-1.591579	-0.940070	99
Es	0.556063	1.267324	1.383553	99
Es	-0.022842	0.634116	-0.199658	99
Es	-0.222434	1.032678	0.796057	99
Es	-2.104969	0.391441	-0.816169	99
Es	-0.936414	-1.418297	0.544331	99
Es	-0.487267	-0.261180	0.515284	99
Es	0.238501	-1.207539	0.205362	99
Es	-0.336199	-0.987967	0.657067	99
Es	-0.596518	0.458388	0.309368	99
Es	1.252168	-0.764219	-0.358916	99
Es	0.535522	1.357215	0.383742	99
Es	-1.276891	0.646753	0.054211	99
Es	0.642626	0.992067	-0.355052	99
Es	-2.466506	0.700384	0.297220	99
Es	-1.976258	1.529514	-0.433175	99
Es	1.174747	0.462698	-0.391441	99
Es	2.159996	-0.056426	0.101573	99
Es	0.076444	1.837454	0.951188	99
Es	0.593491	1.440076	-0.942095	99
Es	2.001654	-0.113042	-1.106773	99
45
Properties=species:S:1:pos:R:3:Z:I:1 energy=-288.1143523217748 field_type=dipole dipole="0.000000 0.000000 0.000000" charge=0
C	-1.944729	0.819199	-0.223868	6
C	-0.596659	0.458229	0.309282	6
C	-0.336219	-0.987981	0.657082	6
C	0.815531	-1.391571	-0.272418	6
C	1.649021	-0.116461	-0.448028	6
C	0.642681	0.992009	-0.355288	6
N	0.209511	1.508429	0.933022	7
H	-1.999789	1.869789	-0.529918	1
H	-2.711369	0.651069	0.540092	1
H	-2.190859	0.203499	-1.095938	1
H	-1.210169	-1.626971	0.492842	1
H	-0.038389	-1.085521	1.708122	1
H	1.401121	-2.228070	0.118962	1
H	0.405711	-1.690751	-1.244988	1
H	2.399791	-0.029351	0.346162	1
H	2.167661	-0.116651	-1.411988	1
H	0.561911	1.630669	-1.221718	1
H	0.775241	1.140429	1.698582	1
Es	-0.022948	0.633942	-0.199633	99
Es	2.001683	-0.113092	-1.106758	99
Es	1.252223	-0.764176	-0.358923	99
Es	2.159971	-0.056434	0.101552	99
Es	0.076149	1.837520	0.951353	99
Es	1.648996	-0.116470	-0.448019	99
Es	-0.596529	0.458387	0.309385	99
Es	1.217879	-1.968886	-0.004133	99
Es	-0.222150	1.032421	0.795768	99
Es	0.238477	-1.207562	0.205305	99
Es	-0.127624	-1.049652	1.377832	99
Es	-0.936381	-1.418254	0.544364	99
Es	-0.336199	-0.987967	0.657067	99
Es	0.642626	0.992065	-0.355054	99
Es	0.815523	-1.391551	-0.272408	99
Es	0.593530	1.440006	-0.942165	99
Es	-1.944721	0.819181	-0.223865	99
Es	0.209685	1.507870	0.932903	99
Es	1.174792	0.462827	-0.391329	99
Es	-1.277007	0.646686	0.054338	99
Es	0.535806	1.357545	0.383781	99
Es	0.531285	-1.591557	-0.939998	99
Es	-0.487350	-0.261099	0.515400	99
Es	-2.466620	0.700484	0.297181	99
Es	-2.104875	0.391363	-0.816109	99
Es	0.555869	1.267289	1.383481	99
Es	-1.976099	1.529540	-0.433309	99
45
Properties=species:S:1:pos:R:3:Z:I:1 energy=-288.1143523217748 field_type=dipole dipole="0.000000 0.000000 0.000000" charge=0
C	-1.944729	0.819199	-0.223868	6
C	-0.596659	0.458229	0.309282	6
C	-0.336219	-0.987981	0.657082	6
C	0.815531	-1.391571	-0.272418	6
C	1.649021	-0.116461	-0.448028	6
C	0.642681	0.992009	-0.355288	6
N	0.209511	1.508429	0.933022	7
H	-1.999789	1.869789	-0.529918	1
H	-2.711369	0.651069	0.540092	1
H	-2.190859	0.203499	-1.095938	1
H	-1.210169	-1.626971	0.492842	1
H	-0.038389	-1.085521	1.708122	1
H	1.401121	-2.228070	0.118962	1
H	0.405711	-1.690751	-1.244988	1
H	2.399791	-0.029351	0.346162	1
H	2.167661	-0.116651	-1.411988	1
H	0.561911	1.630669	-1.221718	1
H	0.775241	1.140429	1.698582	1
Es	1.252266	-0.764296	-0.358977	99
Es	0.535748	1.357373	0.383620	99
Es	2.160054	-0.056414	0.101504	99
Es	-1.976126	1.529463	-0.433185	99
Es	-2.104817	0.391506	-0.816214	99
Es	1.217826	-1.968881	-0.004206	99
Es	0.531283	-1.591550	-0.939973	99
Es	0.238500	-1.207574	0.205263	99
Es	0.815525	-1.391548	-0.272408	99
Es	-0.487441	-0.261050	0.515535	99
Es	1.174821	0.462842	-0.391330	99
Es	1.648997	-0.116470	-0.448019	99
Es	2.001592	-0.112964	-1.106692	99
Es	-1.276940	0.646721	0.054322	99
Es	-0.936370	-1.418232	0.544405	99
Es	0.555932	1.267741	1.383638	99
Es	0.076751	1.836959	0.950999	99
Es	-0.336200	-0.987967	0.657069	99
Es	0.209689	1.507867	0.932897	99
Es	-0.222798	1.032711	0.796232	99
Es	0.642631	0.992072	-0.355043	99
Es	-0.596521	0.458392	0.309384	99
Es	-0.127625	-1.049677	1.377789	99
Es	-2.466700	0.700385	0.297212	99
Es	0.593592	1.440017	-0.942042	99
Es	-1.944723	0.819178	-0.223861	99
Es	-0.022953	0.633821	-0.199909	99
45
Properties=species:S:1:pos:R:3:Z:I:1 energy=-288.1143523217748 field_type=dipole dipole="0.000000 0.000000 0.000000" charge=0
C	-1.944729	0.819199	-0.223868	6
C	-0.596659	0.458229	0.309282	6
C	-0.336219	-0.987981	0.657082	6
C	0.815531	-1.391571	-0.272418	6
C	1.649021	-0.116461	-0.448028	6
C	0.642681	0.992009	-0.355288	6
N	0.209511	1.508429	0.933022	7
H	-1.999789	1.869789	-0.529918	1
H	-2.711369	0.651069	0.540092	1
H	-2.190859	0.203499	-1.095938	1
H	-1.210169	-1.626971	0.492842	1
H	-0.038389	-1.085521	1.708122	1
H	1.401121	-2.228070	0.118962	1
H	0.405711	-1.690751	-1.244988	1
H	2.399791	-0.029351	0.346162	1
H	2.167661	-0.116651	-1.411988	1
H	0.561911	1.630669	-1.221718	1
H	0.775241	1.140429	1.698582	1
Es	0.642621	0.992063	-0.355051	99
Es	-1.276888	0.646642	0.054324	99
Es	-0.487470	-0.261072	0.515422	99
Es	2.001714	-0.112952	-1.106651	99
Es	-0.127791	-1.049609	1.377849	99
Es	-2.104872	0.391499	-0.816211	99
Es	2.159939	-0.056389	0.101519	99
Es	1.217767	-1.968867	-0.004219	99
Es	-1.944722	0.819180	-0.223864	99
Es	-0.936313	-1.418195	0.544365	99
Es	-0.336199	-0.987967	0.657067	99
Es	-2.466687	0.700437	0.297220	99
Es	0.531397	-1.591585	-0.939883	99
Es	0.593646	1.440022	-0.941927	99
Es	1.252295	-0.764309	-0.359049	99
Es	0.209684	1.507895	0.932930	99
Es	-0.222960	1.032356	0.795889	99
Es	0.536006	1.358007	0.383881	99
Es	-0.596519	0.458392	0.309380	99
Es	0.076590	1.836316	0.950910	99
Es	0.238493	-1.207639	0.205306	99
Es	1.174917	0.462968	-0.391380	99
Es	-0.022815	0.633790	-0.200168	99
Es	1.648997	-0.116470	-0.448019	99
Es	-1.976088	1.529461	-0.433190	99
Es	0.555726	1.268003	1.383967	99
Es	0.815523	-1.391552	-0.272409	99
45
Properties=species:S:1:pos:R:3:Z:I:1 energy=-288.1143523217748 field_type=dipole dipole="0.000000 0.000000 0.000000" charge=0
C	-1.944729	0.819199	-0.223868	6
C	-0.596659	0.458229	0.309282	6
C	-0.336219	-0.987981	0.657082	6
C	0.815531	-1.391571	-0.272418	6
C	1.649021	-0.116461	-0.448028	6
C	0.642681	0.992009	-0.355288	6
N	0.209511	1.508429	0.933022	7
H	-1.999789	1.869789	-0.529918	1
H	-2.711369	0.651069	0.540092	1
H	-2.190859	0.203499	-1.095938	1
H	-1.210169	-1.626971	0.492842	1
H	-0.038389	-1.085521	1.708122	1
H	1.401121	-2.228070	0.118962	1
H	0.405711	-1.690751	-1.244988	1
H	2.399791	-0.029351	0.346162	1
H	2.167661	-0.116651	-1.411988	1
H	0.561911	1.630669	-1.221718	1
H	0.775241	1.140429	1.698582	1
Es	-0.596519	0.458393	0.309384	99
Es	-2.104772	0.391515	-0.816195	99
Es	0.642617	0.992062	-0.355049	99
Es	-0.023166	0.633757	-0.200040	99
Es	-0.936305	-1.418128	0.544415	99
Es	-1.276937	0.646640	0.054388	99
Es	0.593621	1.439942	-0.941851	99
Es	-2.466743	0.700368	0.297260	99
Es	1.174813	0.463018	-0.391506	99
Es	-0.336199	-0.987967	0.657067	99
Es	0.536384	1.358006	0.383212	99
Es	2.159985	-0.056321	0.101448	99
Es	2.001658	-0.112959	-1.106596	99
Es	1.252330	-0.764389	-0.359021	99
Es	0.555810	1.268073	1.383730	99
Es	1.648997	-0.116469	-0.448019	99
Es	0.209703	1.507885	0.932920	99
Es	0.815523	-1.391551	-0.272408	99
Es	-0.223295	1.032601	0.796480	99
Es	1.217795	-1.968794	-0.004276	99
Es	-1.944723	0.819180	-0.223865	99
Es	-0.127821	-1.049641	1.377806	99
Es	-0.487475	-0.261018	0.515433	99
Es	0.076876	1.836087	0.951076	99
Es	0.531361	-1.591624	-0.939899	99
Es	-1.976072	1.529488	-0.433218	99
Es	0.238548	-1.207729	0.205333	99
45
Properties=species:S:1:pos:R:3:Z:I:1 energy=-288.1143523217748 field_type=dipole dipole="0.000000 0.000000 0.000000" charge=0
C	-1.944729	0.819199	-0.223868	6
C	-0.596659	0.458229	0.309282	6
C	-0.336219	-0.987981	0.657082	6
C	0.815531	-1.391571	-0.272418	6
C	1.649021	-0.116461	-0.448028	6
C	0.642681	0.992009	-0.355288	6
N	0.209511	1.508429	0.933022	7
H	-1.999789	1.869789	-0.529918	1
H	-2.711369	0.651069	0.540092	1
H	-2.190859	0.203499	-1.095938	1
H	-1.210169	-1.626971	0.492842	1
H	-0.038389	-1.085521	1.708122	1
H	1.401121	-2.228070	0.118962	1
H	0.405711	-1.690751	-1.244988	1
H	2.399791	-0.029351	0.346162	1
H	2.167661	-0.116651	-1.411988	1
H	0.561911	1.630669	-1.221718	1
H	0.775241	1.140429	1.698582	1
Es	-2.466664	0.700480	0.297199	99
Es	-0.223803	1.032850	0.796600	99
Es	-0.127854	-1.049607	1.377768	99
Es	-0.336198	-0.987967	0.657068	99
Es	-0.596517	0.458393	0.309377	99
Es	0.642625	0.992061	-0.355059	99
Es	1.174922	0.463194	-0.391555	99
Es	0.077301	1.835732	0.951273	99
Es	1.252308	-0.764338	-0.359077	99
Es	-0.022998	0.633622	-0.200456	99
Es	2.001726	-0.113043	-1.106523	99
Es	0.531379	-1.591622	-0.939786	99
Es	0.593697	1.439935	-0.941771	99
Es	2.159935	-0.056319	0.101464	99
Es	-1.944722	0.819180	-0.223864	99
Es	0.555839	1.267971	1.383601	99
Es	0.238575	-1.207741	0.205306	99
Es	0.209717	1.507854	0.932932	99
Es	0.815522	-1.391552	-0.272408	99
Es	-0.936294	-1.418144	0.544452	99
Es	1.217767	-1.968824	-0.004333	99
Es	1.648999	-0.116467	-0.448019	99
Es	-1.976087	1.529458	-0.433210	99
Es	0.536124	1.358249	0.383220	99
Es	-0.487553	-0.260969	0.515515	99
Es	-1.276852	0.646565	0.054490	99
Es	-2.104902	0.391474	-0.816195	99
45
Properties=species:S:1:pos:R:3:Z:I:1 energy=-288.1143523217748 field_type=dipole dipole="0.000000 0.000000 0.000000" charge=0
C	-1.944729	0.819199	-0.223868	6
C	-0.596659	0.458229	0.309282	6
C	-0.336219	-0.987981	0.657082	6
C	0.815531	-1.391571	-0.272418	6
C	1.649021	-0.116461	-0.448028	6
C	0.642681	0.992009	-0.355288	6
N	0.209511	1.508429	0.933022	7
H	-1.999789	1.869789	-0.529918	1
H	-2.711369	0.651069	0.540092	1
H	-2.190859	0.203499	-1.095938	1
H	-1.210169	-1.626971	0.492842	1
H	-0.038389	-1.085521	1.708122	1
H	1.401121	-2.228070	0.118962	1
H	0.405711	-1.690751	-1.244988	1
H	2.399791	-0.029351	0.346162	1
H	2.167661	-0.116651	-1.411988	1
H	0.561911	1.630669	-1.221718	1
H	0.775241	1.140429	1.698582	1
Es	0.593727	1.439865	-0.941690	99
Es	-0.127883	-1.049630	1.377757	99
Es	-2.466711	0.700444	0.297200	99
Es	1.174983	0.463167	-0.391475	99
Es	-0.223759	1.032675	0.796701	99
Es	-2.104846	0.391503	-0.816211	99
Es	0.531406	-1.591642	-0.939794	99
Es	1.648997	-0.116470	-0.448019	99
Es	-0.487617	-0.260936	0.515560	99
Es	0.815523	-1.391551	-0.272408	99
Es	-0.596518	0.458392	0.309379	99
Es	0.642621	0.992063	-0.355050	99
Es	0.077228	1.835568	0.950931	99
Es	-1.976086	1.529447	-0.433205	99
Es	-1.276811	0.646578	0.054548	99
Es	2.001691	-0.112929	-1.106554	99
Es	2.159951	-0.056323	0.101407	99
Es	-0.336199	-0.987967	0.657068	99
Es	0.238558	-1.207765	0.205328	99
Es	1.217722	-1.968784	-0.004361	99
Es	-0.023234	0.633529	-0.200478	99
Es	1.252339	-0.764405	-0.359087	99
Es	-0.936267	-1.418122	0.544459	99
Es	0.209702	1.507853	0.932909	99
Es	-1.944723	0.819180	-0.223864	99
Es	0.555742	1.268447	1.383804	99
Es	0.536453	1.358240	0.383154	99
45
Properties=species:S:1:pos:R:3:Z:I:1 energy=-288.1143523217748 field_type=dipole dipole="0.000000 0.000000 0.000000" charge=0
C	-1.944729	0.819199	-0.223868	6
C	-0.596659	0.458229	0.309282	6
C	-0.336219	-0.987981	0.657082	6
C	0.815531	-1.391571	-0.272418	6
C	1.649021	-0.116461	-0.448028	6
C	0.642681	0.992009	-0.355288	6
N	0.209511	1.508429	0.933022	7
H	-1.999789	1.869789	-0.529918	1
H	-2.711369	0.651069	0.540092	1
H	-2.190859	0.203499	-1.095938	1
H	-1.210169	-1.626971	0.492842	1
H	-0.038389	-1.085521	1.708122	1
H	1.401121	-2.228070	0.118962	1
H	0.405711	-1.690751	-1.244988	1
H	2.399791	-0.029351	0.346162	1
H	2.167661	-0.116651	-1.411988	1
H	0.561911	1.630669	-1.221718	1
H	0.775241	1.140429	1.698582	1
Es	0.642625	0.992070	-0.355040	99
Es	0.593782	1.439848	-0.941577	99
Es	0.209690	1.507864	0.932912	99
Es	0.531464	-1.591656	-0.939752	99
Es	1.252335	-0.764424	-0.359144	99
Es	0.555821	1.269033	1.384065	99
Es	-0.127861	-1.049604	1.377725	99
Es	2.001681	-0.112893	-1.106516	99
Es	-2.466733	0.700495	0.297174	99
Es	-2.104859	0.391506	-0.816232	99
Es	-0.223800	1.032547	0.796988	99
Es	2.159962	-0.056351	0.101392	99
Es	0.815522	-1.391551	-0.272408	99
Es	-1.976024	1.529440	-0.433191	99
Es	1.217689	-1.968758	-0.004416	99
Es	0.536413	1.358442	0.383014	99
Es	-0.596514	0.458397	0.309384	99
Es	1.648995	-0.116471	-0.448020	99
Es	-0.336204	-0.987972	0.657069	99
Es	-0.487611	-0.260887	0.515538	99
Es	-1.944725	0.819179	-0.223867	99
Es	-1.276809	0.646509	0.054622	99
Es	0.077113	1.834905	0.950649	99
Es	1.175081	0.463275	-0.391458	99
Es	-0.936295	-1.418082	0.544535	99
Es	-0.023220	0.633422	-0.200753	99
Es	0.238474	-1.207854	0.205318	99
45
Properties=species:S:1:pos:R:3:Z:I:1 energy=-288.1143523217748 field_type=dipole dipole="0.000000 0.000000 0.000000" charge=0
C	-1.944729	0.819199	-0.223868	6
C	-0.596659	0.458229	0.309282	6
C	-0.336219	-0.987981	0.657082	6
C	0.815531	-1.391571	-0.272418	6
C	1.649021	-0.116461	-0.448028	6
C	0.642681	0.992009	-0.355288	6
N	0.209511	1.508429	0.933022	7
H	-1.999789	1.869789	-0.529918	1
H	-2.711369	0.651069	0.540092	1
H	-2.190859	0.203499	-1.095938	1
H	-1.210169	-1.626971	0.492842	1
H	-0.038389	-1.085521	1.708122	1
H	1.401121	-2.228070	0.118962	1
H	0.405711	-1.690751	-1.244988	1
H	2.399791	-0.029351	0.346162	1
H	2.167661	-0.116651	-1.411988	1
H	0.561911	1.630669	-1.221718	1
H	0.775241	1.140429	1.698582	1
Es	0.536730	1.358699	0.383011	99
Es	-0.336198	-0.987970	0.657068	99
Es	-0.487539	-0.260950	0.515535	99
Es	-0.023365	0.633488	-0.200732	99
Es	-0.127919	-1.049613	1.377746	99
Es	2.001677	-0.112883	-1.106470	99
Es	-0.224312	1.032759	0.796795	99
Es	0.531484	-1.591699	-0.939723	99
Es	-1.944725	0.819181	-0.223865	99
Es	1.217634	-1.968730	-0.004417	99
Es	-1.976068	1.529454	-0.433184	99
Es	0.815524	-1.391553	-0.272409	99
Es	0.555575	1.268632	1.383880	99
Es	-0.596509	0.458397	0.309375	99
Es	-0.936265	-1.418069	0.544505	99
Es	0.077529	1.834891	0.950970	99
Es	0.238515	-1.207851	0.205297	99
Es	0.642619	0.992061	-0.355053	99
Es	1.175129	0.463368	-0.391467	99
Es	2.159953	-0.056300	0.101308	99
Es	-1.276799	0.646441	0.054667	99
Es	0.209708	1.507854	0.932917	99
Es	-2.104834	0.391504	-0.816231	99
Es	0.593809	1.439800	-0.941507	99
Es	-2.466730	0.700469	0.297133	99
Es	1.648997	-0.116470	-0.448020	99
Es	1.252373	-0.764482	-0.359120	99
45
Properties=species:S:1:pos:R:3:Z:I:1 energy=-288.1143523217748 field_type=dipole dipole="0.000000 0.000000 0.000000" charge=0
C	-1.944729	0.819199	-0.223868	6
C	-0.596659	0.458229	0.309282	6
C	-0.336219	-0.987981	0.657082	6
C	0.815531	-1.391571	-0.272418	6
C	1.649021	-0.116461	-0.448028	6
C	0.642681	0.992009	-0.355288	6
N	0.209511	1.508429	0.933022	7
H	-1.999789	1.869789	-0.529918	1
H	-2.711369	0.651069	0.540092	1
H	-2.190859	0.203499	-1.095938	1
H	-1.210169	-1.626971	0.492842	1
H	-0.038389	-1.085521	1.708122	1
H	1.401121	-2.228070	0.118962	1
H	0.405711	-1.690751	-1.244988	1
H	2.399791	-0.029351	0.346162	1
H	2.167661	-0.116651	-1.411988	1
H	0.561911	1.630669	-1.221718	1
H	0.775241	1.140429	1.698582	1
Es	1.217633	-1.968722	-0.004469	99
Es	2.159916	-0.056265	0.101335	99
Es	-0.936210	-1.418059	0.544538	99
Es	-0.487799	-0.260807	0.515736	99
Es	0.209701	1.507860	0.932909	99
Es	0.536890	1.358992	0.382587	99
Es	0.642620	0.992062	-0.355049	99
Es	1.252386	-0.764505	-0.359126	99
Es	-2.466935	0.700532	0.297095	99
Es	0.555723	1.268754	1.383765	99
Es	-0.127951	-1.049675	1.377679	99
Es	-0.336197	-0.987966	0.657069	99
Es	1.175098	0.463413	-0.391554	99
Es	-0.224092	1.032933	0.797023	99
Es	0.238517	-1.207861	0.205265	99
Es	1.648996	-0.116470	-0.448020	99
Es	0.815524	-1.391551	-0.272410	99
Es	-1.944726	0.819182	-0.223867	99
Es	0.077525	1.834542	0.951138	99
Es	-0.023725	0.633077	-0.200762	99
Es	-0.596529	0.458388	0.309386	99
Es	2.001723	-0.112885	-1.106440	99
Es	0.531511	-1.591687	-0.939705	99
Es	-1.276793	0.646521	0.054795	99
Es	-2.104683	0.391510	-0.816172	99
Es	0.593832	1.439730	-0.941422	99
Es	-1.975963	1.529384	-0.433315	99
45
Properties=species:S:1:pos:R:3:Z:I:1 energy=-288.1143523217748 field_type=dipole dipole="0.000000 0.000000 0.000000" charge=0
C	-1.944729	0.819199	-0.223868	6
C	-0.596659	0.458229	0.309282	6
C	-0.336219	-0.987981	0.657082	6
C	0.815531	-1.391571	-0.272418	6
C	1.649021	-0.116461	-0.448028	6
C	0.642681	0.992009	-0.355288	6
N	0.209511	1.508429	0.933022	7
H	-1.999789	1.869789	-0.529918	1
H	-2.711369	0.651069	0.540092	1
H	-2.190859	0.203499	-1.095938	1
H	-1.210169	-1.626971	0.492842	1
H	-0.038389	-1.085521	1.708122	1
H	1.401121	-2.228070	0.118962	1
H	0.405711	-1.690751	-1.244988	1
H	2.399791	-0.029351	0.346162	1
H	2.167661	-0.116651	-1.411988	1
H	0.561911	1.630669	-1.221718	1
H	0.775241	1.140429	1.698582	1
Es	1.648997	-0.116470	-0.448019	99
Es	-1.276724	0.646457	0.054784	99
Es	-0.336198	-0.987967	0.657067	99
Es	0.531519	-1.591714	-0.939680	99
Es	-0.936223	-1.418006	0.544565	99
Es	-2.104850	0.391533	-0.816215	99
Es	-0.023584	0.633110	-0.201056	99
Es	0.537111	1.359553	0.382909	99
Es	-0.128014	-1.049632	1.377680	99
Es	1.217609	-1.968697	-0.004490	99
Es	-0.487766	-0.260760	0.515712	99
Es	2.001700	-0.112863	-1.106436	99
Es	2.159926	-0.056273	0.101273	99
Es	0.593872	1.439722	-0.941367	99
Es	1.252391	-0.764533	-0.359136	99
Es	-0.224034	1.032252	0.796697	99
Es	1.175154	0.463482	-0.391503	99
Es	-1.976029	1.529431	-0.433205	99
Es	0.555631	1.269223	1.384022	99
Es	-2.466756	0.700486	0.297178	99
Es	-1.944723	0.819181	-0.223864	99
Es	0.238550	-1.207949	0.205295	99
Es	-0.596515	0.458393	0.309376	99
Es	0.077109	1.834100	0.950975	99
Es	0.642618	0.992062	-0.355049	99
Es	0.815523	-1.391551	-0.272408	99
Es	0.209697	1.507859	0.932904	99
45
Properties=species:S:1:pos:R:3:Z:I:1 energy=-288.1143523217748 field_type=dipole dipole="0.000000 0.000000 0.000000" charge=0
C	-1.944729	0.819199	-0.223868	6
C	-0.596659	0.458229	0.309282	6
C	-0.336219	-0.987981	0.657082	6
C	0.815531	-1.391571	-0.272418	6
C	1.649021	-0.116461	-0.448028	6
C	0.642681	0.992009	-0.355288	6
N	0.209511	1.508429	0.933022	7
H	-1.999789	1.869789	-0.529918	1
H	-2.711369	0.651069	0.540092	1
H	-2.190859	0.203499	-1.095938	1
H	-1.210169	-1.626971	0.492842	1
H	-0.038389	-1.085521	1.708122	1
H	1.401121	-2.228070	0.118962	1
H	0.405711	-1.690751	-1.244988	1
H	2.399791	-0.029351	0.346162	1
H	2.167661	-0.116651	-1.411988	1
H	0.561911	1.630669	-1.221718	1
H	0.775241	1.140429	1.698582	1
Es	0.593965	1.439749	-0.941288	99
Es	0.642620	0.992061	-0.355056	99
Es	1.175207	0.463724	-0.391472	99
Es	-0.936223	-1.417967	0.544565	99
Es	0.555635	1.269273	1.384097	99
Es	-1.944723	0.819181	-0.223864	99
Es	-1.276827	0.646434	0.054959	99
Es	-0.128077	-1.049637	1.377661	99
Es	-2.466835	0.700485	0.297091	99
Es	1.217622	-1.968631	-0.004524	99
Es	-0.023656	0.632698	-0.201399	99
Es	2.001746	-0.112835	-1.106376	99
Es	-1.976022	1.529402	-0.433187	99
Es	0.815523	-1.391551	-0.272408	99
Es	-0.596504	0.458398	0.309368	99
Es	-0.336198	-0.987967	0.657068	99
Es	-0.487707	-0.260712	0.515834	99
Es	0.238598	-1.208013	0.205323	99
Es	0.209701	1.507861	0.932914	99
Es	0.536761	1.359024	0.382935	99
Es	0.531518	-1.591773	-0.939650	99
Es	0.077690	1.834074	0.950682	99
Es	-2.104775	0.391558	-0.816250	99
Es	1.648997	-0.116470	-0.448019	99
Es	1.252374	-0.764566	-0.359196	99
Es	-0.224302	1.032856	0.796926	99
Es	2.159882	-0.056232	0.101276	99
