45
Properties=species:S:1:pos:R:3:Z:I:1 energy=-341.17588432278825 field_type=dipole dipole="0.000000 0.000000 0.000000" charge=0
C	-1.669130	0.954108	-0.212644	6
N	-0.424860	0.703078	0.488936	7
C	0.820400	0.689618	-0.276983	6
C	1.070520	-0.637442	-1.016653	6
N	1.167680	-1.781712	-0.108093	7
C	-0.441940	0.292208	1.807307	6
O	-1.442800	0.134748	2.494906	8
H	-2.516350	0.999548	0.477567	1
H	-1.842720	0.149988	-0.933003	1
H	-1.591740	1.909408	-0.740263	1
H	1.654140	0.881808	0.409046	1
H	0.790660	1.518238	-0.993213	1
H	2.005270	-0.558002	-1.581424	1
H	0.266490	-0.824812	-1.736513	1
H	0.267940	-1.909712	0.359077	1
H	1.318470	-2.632142	-0.650553	1
H	0.567970	0.111078	2.212507	1
Es	-1.668946	0.954074	-0.212575	99
Es	0.253434	0.174239	2.069534	99
Es	-0.951978	0.796286	0.186178	99
Es	-1.784639	0.405789	-0.707938	99
Es	-1.119940	-0.052368	2.192353	99
Es	0.510313	-0.754295	-1.516249	99
Es	1.381382	0.815139	0.193453	99
Es	-1.098762	0.426389	2.330412	99
Es	0.615256	-1.855131	0.154387	99
Es	-1.442531	0.134795	2.494697	99
Es	-1.609765	1.602201	-0.577457	99
Es	1.070517	-0.637517	-1.016535	99
Es	0.793678	1.249079	-0.770393	99
Es	1.425606	-1.734675	0.131093	99
Es	1.167249	-1.781782	-0.108482	99
Es	-0.392207	0.896961	0.828706	99
Es	0.934643	0.021252	-0.640084	99
Es	-1.367227	0.049486	2.779563	99
Es	-2.225608	0.985375	0.244455	99
Es	-0.424891	0.702764	0.488949	99
Es	1.709363	-0.577793	-1.401513	99
Es	1.242702	-2.285799	-0.451074	99
Es	0.820232	0.689584	-0.276906	99
Es	-1.703631	0.192703	2.334220	99
Es	1.106867	-1.290785	-0.510077	99
Es	-0.441929	0.292263	1.807140	99
Es	-0.448940	0.346363	0.872650	99
Es	0.098909	0.682976	0.159603	99
45
Properties=species:S:1:pos:R:3:Z:I:1 energy=-341.17588432278825 field_type=dipole dipole="0.000000 0.000000 0.000000" charge=0
C	-1.669130	0.954108	-0.212644	6
N	-0.424860	0.703078	0.488936	7
C	0.820400	0.689618	-0.276983	6
C	1.070520	-0.637442	-1.016653	6
N	1.167680	-1.781712	-0.108093	7
C	-0.441940	0.292208	1.807307	6
O	-1.442800	0.134748	2.494906	8
H	-2.516350	0.999548	0.477567	1
H	-1.842720	0.149988	-0.933003	1
H	-1.591740	1.909408	-0.740263	1
H	1.654140	0.881808	0.409046	1
H	0.790660	1.518238	-0.993213	1
H	2.005270	-0.558002	-1.581424	1
H	0.266490	-0.824812	-1.736513	1
H	0.267940	-1.909712	0.359077	1
H	1.318470	-2.632142	-0.650553	1
H	0.567970	0.111078	2.212507	1
Es	-1.368651	0.049405	2.779726	99
Es	-1.121386	-0.053257	2.193170	99
Es	0.510568	-0.754226	-1.516293	99
Es	-0.441931	0.292261	1.807146	99
Es	-1.442623	0.134782	2.494766	99
Es	-0.449098	0.345578	0.869359	99
Es	0.820230	0.689585	-0.276905	99
Es	1.709380	-0.577683	-1.401454	99
Es	1.070518	-0.637516	-1.016537	99
Es	0.099041	0.683677	0.159670	99
Es	-0.951852	0.796792	0.186349	99
Es	0.253452	0.174294	2.069600	99
Es	1.243279	-2.286207	-0.450757	99
Es	-2.225634	0.985202	0.244347	99
Es	0.934589	0.021181	-0.639956	99
Es	0.793685	1.249017	-0.770416	99
Es	1.106512	-1.291521	-0.510415	99
Es	1.425380	-1.733857	0.131340	99
Es	-1.702601	0.193921	2.333514	99
Es	-1.784582	0.405935	-0.707997	99
Es	-1.609780	1.602339	-0.577368	99
Es	-1.096839	0.426122	2.330024	99
Es	-0.424887	0.702826	0.488930	99
Es	1.381293	0.815275	0.193408	99
Es	1.167276	-1.781764	-0.108462	99
Es	-0.392383	0.896342	0.831831	99
Es	-1.668948	0.954075	-0.212578	99
Es	0.615150	-1.855008	0.154064	99
45
Properties=species:S:1:pos:R:3:Z:I:1 energy=-341.17588432278825 field_type=dipole dipole="0.000000 0.000000 0.000000" charge=0
C	-1.669130	0.954108	-0.212644	6
N	-0.424860	0.703078	0.488936	7
C	0.820400	0.689618	-0.276983	6
C	1.070520	-0.637442	-1.016653	6
N	1.167680	-1.781712	-0.108093	7
C	-0.441940	0.292208	1.807307	6
O	-1.442800	0.134748	2.494906	8
H	-2.516350	0.999548	0.477567	1
H	-1.842720	0.149988	-0.933003	1
H	-1.591740	1.909408	-0.740263	1
H	1.654140	0.881808	0.409046	1
H	0.790660	1.518238	-0.993213	1
H	2.005270	-0.558002	-1.581424	1
H	0.266490	-0.824812	-1.736513	1
H	0.267940	-1.909712	0.359077	1
H	1.318470	-2.632142	-0.650553	1
H	0.567970	0.111078	2.212507	1
Es	0.253488	0.174274	2.069615	99
Es	1.381301	0.815403	0.193344	99
Es	1.709311	-0.577784	-1.401502	99
Es	-1.442546	0.134793	2.494711	99
Es	-0.449030	0.347080	0.875917	99
Es	-0.424891	0.702776	0.488943	99
Es	-1.784634	0.405930	-0.708017	99
Es	0.820227	0.689587	-0.276905	99
Es	0.615239	-1.855118	0.153442	99
Es	-1.609722	1.602303	-0.577354	99
Es	-0.392206	0.897214	0.825561	99
Es	0.098907	0.682458	0.159556	99
Es	1.070517	-0.637516	-1.016539	99
Es	1.242689	-2.285848	-0.450913	99
Es	0.793628	1.248917	-0.770527	99
Es	-1.368420	0.050296	2.780093	99
Es	1.106523	-1.291321	-0.510328	99
Es	-1.097598	0.425748	2.329614	99
Es	0.934704	0.021176	-0.639876	99
Es	-1.668947	0.954074	-0.212576	99
Es	-1.120638	-0.053304	2.193435	99
Es	-0.441929	0.292269	1.807138	99
Es	-1.702925	0.193463	2.333324	99
Es	1.167255	-1.781767	-0.108484	99
Es	0.510542	-0.754217	-1.516251	99
Es	1.425891	-1.734289	0.132113	99
Es	-2.225636	0.985279	0.244376	99
Es	-0.951944	0.795697	0.186198	99
45
Properties=species:S:1:pos:R:3:Z:I:1 energy=-341.17588432278825 field_type=dipole dipole="0.000000 0.000000 0.000000" charge=0
C	-1.669130	0.954108	-0.212644	6
N	-0.424860	0.703078	0.488936	7
C	0.820400	0.689618	-0.276983	6
C	1.070520	-0.637442	-1.016653	6
N	1.167680	-1.781712	-0.108093	7
C	-0.441940	0.292208	1.807307	6
O	-1.442800	0.134748	2.494906	8
H	-2.516350	0.999548	0.477567	1
H	-1.842720	0.149988	-0.933003	1
H	-1.591740	1.909408	-0.740263	1
H	1.654140	0.881808	0.409046	1
H	0.790660	1.518238	-0.993213	1
H	2.005270	-0.558002	-1.581424	1
H	0.266490	-0.824812	-1.736513	1
H	0.267940	-1.909712	0.359077	1
H	1.318470	-2.632142	-0.650553	1
H	0.567970	0.111078	2.212507	1
Es	-1.368379	0.049592	2.779670	99
Es	1.381315	0.815294	0.193381	99
Es	0.793675	1.249000	-0.770340	99
Es	-1.121422	-0.053305	2.193061	99
Es	-1.609781	1.602296	-0.577388	99
Es	1.709269	-0.577824	-1.401563	99
Es	1.070517	-0.637516	-1.016537	99
Es	-0.951491	0.796547	0.186253	99
Es	-1.668942	0.954073	-0.212573	99
Es	0.820229	0.689584	-0.276904	99
Es	-0.424866	0.703015	0.488975	99
Es	-1.096888	0.425821	2.329920	99
Es	-1.442550	0.134801	2.494717	99
Es	0.934683	0.021298	-0.640111	99
Es	0.615354	-1.855226	0.154331	99
Es	-2.225625	0.985257	0.244369	99
Es	0.253487	0.174313	2.069642	99
Es	-1.784646	0.405947	-0.707968	99
Es	1.106345	-1.291282	-0.510550	99
Es	0.510583	-0.754198	-1.516192	99
Es	0.098828	0.683942	0.159741	99
Es	1.167329	-1.781745	-0.108416	99
Es	-0.441930	0.292265	1.807142	99
Es	1.243600	-2.286300	-0.450477	99
Es	1.424957	-1.733825	0.130966	99
Es	-0.392513	0.896905	0.835925	99
Es	-0.449094	0.344754	0.865222	99
Es	-1.702889	0.194090	2.333815	99
45
Properties=species:S:1:pos:R:3:Z:I:1 energy=-341.17588432278825 field_type=dipole dipole="0.000000 0.000000 0.000000" charge=0
C	-1.669130	0.954108	-0.212644	6
N	-0.424860	0.703078	0.488936	7
C	0.820400	0.689618	-0.276983	6
C	1.070520	-0.637442	-1.016653	6
N	1.167680	-1.781712	-0.108093	7
C	-0.441940	0.292208	1.807307	6
O	-1.442800	0.134748	2.494906	8
H	-2.516350	0.999548	0.477567	1
H	-1.842720	0.149988	-0.933003	1
H	-1.591740	1.909408	-0.740263	1
H	1.654140	0.881808	0.409046	1
H	0.790660	1.518238	-0.993213	1
H	2.005270	-0.558002	-1.581424	1
H	0.266490	-0.824812	-1.736513	1
H	0.267940	-1.909712	0.359077	1
H	1.318470	-2.632142	-0.650553	1
H	0.567970	0.111078	2.212507	1
Es	-1.702912	0.192886	2.333468	99
Es	0.510637	-0.754177	-1.516199	99
Es	-0.424898	0.702700	0.489021	99
Es	0.615324	-1.855256	0.154212	99
Es	-1.668944	0.954073	-0.212572	99
Es	-1.609750	1.602282	-0.577382	99
Es	-1.442549	0.134793	2.494715	99
Es	1.167278	-1.781770	-0.108455	99
Es	-0.951937	0.795724	0.186196	99
Es	1.070517	-0.637515	-1.016540	99
Es	-2.225617	0.985307	0.244333	99
Es	0.820237	0.689585	-0.276907	99
Es	0.793695	1.248987	-0.770374	99
Es	0.934685	0.021249	-0.640037	99
Es	0.253564	0.174339	2.069625	99
Es	1.106676	-1.290948	-0.510379	99
Es	-1.784681	0.405948	-0.707975	99
Es	-1.097654	0.426393	2.329722	99
Es	-0.448930	0.346925	0.876072	99
Es	1.381262	0.815327	0.193376	99
Es	1.424498	-1.734078	0.130978	99
Es	-0.441927	0.292263	1.807136	99
Es	-1.368497	0.050184	2.779718	99
Es	-1.120516	-0.053247	2.193564	99
Es	-0.392398	0.896828	0.825234	99
Es	0.098918	0.682929	0.159628	99
Es	1.709286	-0.577788	-1.401550	99
Es	1.243789	-2.286372	-0.450519	99
45
Properties=species:S:1:pos:R:3:Z:I:1 energy=-341.17588432278825 field_type=dipole dipole="0.000000 0.000000 0.000000" charge=0
C	-1.669130	0.954108	-0.212644	6
N	-0.424860	0.703078	0.488936	7
C	0.820400	0.689618	-0.276983	6
C	1.070520	-0.637442	-1.016653	6
N	1.167680	-1.781712	-0.108093	7
C	-0.441940	0.292208	1.807307	6
O	-1.442800	0.134748	2.494906	8
H	-2.516350	0.999548	0.477567	1
H	-1.842720	0.149988	-0.933003	1
H	-1.591740	1.909408	-0.740263	1
H	1.654140	0.881808	0.409046	1
H	0.790660	1.518238	-0.993213	1
H	2.005270	-0.558002	-1.581424	1
H	0.266490	-0.824812	-1.736513	1
H	0.267940	-1.909712	0.359077	1
H	1.318470	-2.632142	-0.650553	1
H	0.567970	0.111078	2.212507	1
Es	-1.668949	0.954074	-0.212576	99
Es	1.070517	-0.637515	-1.016538	99
Es	-0.951819	0.796576	0.186373	99
Es	-1.096717	0.426100	2.330076	99
Es	1.243166	-2.286145	-0.450614	99
Es	0.253563	0.174302	2.069647	99
Es	-1.442533	0.134794	2.494710	99
Es	-0.449108	0.346056	0.872507	99
Es	-1.120997	-0.053254	2.193800	99
Es	0.793676	1.248957	-0.770349	99
Es	1.167283	-1.781770	-0.108481	99
Es	-1.609803	1.602291	-0.577374	99
Es	-1.702113	0.193749	2.332579	99
Es	0.098948	0.683313	0.159580	99
Es	-1.369777	0.049661	2.780012	99
Es	1.106553	-1.291053	-0.510443	99
Es	-0.441928	0.292265	1.807138	99
Es	1.709260	-0.577747	-1.401550	99
Es	-2.225598	0.985273	0.244314	99
Es	1.425123	-1.734288	0.131239	99
Es	-0.424876	0.702913	0.488952	99
Es	0.510640	-0.754169	-1.516202	99
Es	-1.784693	0.405969	-0.707965	99
Es	1.381275	0.815366	0.193388	99
Es	-0.392317	0.896254	0.828717	99
Es	0.615466	-1.855198	0.154167	99
Es	0.934678	0.021213	-0.640092	99
Es	0.820235	0.689585	-0.276907	99
45
Properties=species:S:1:pos:R:3:Z:I:1 energy=-341.17588432278825 field_type=dipole dipole="0.000000 0.000000 0.000000" charge=0
C	-1.669130	0.954108	-0.212644	6
N	-0.424860	0.703078	0.488936	7
C	0.820400	0.689618	-0.276983	6
C	1.070520	-0.637442	-1.016653	6
N	1.167680	-1.781712	-0.108093	7
C	-0.441940	0.292208	1.807307	6
O	-1.442800	0.134748	2.494906	8
H	-2.516350	0.999548	0.477567	1
H	-1.842720	0.149988	-0.933003	1
H	-1.591740	1.909408	-0.740263	1
H	1.654140	0.881808	0.409046	1
H	0.790660	1.518238	-0.993213	1
H	2.005270	-0.558002	-1.581424	1
H	0.266490	-0.824812	-1.736513	1
H	0.267940	-1.909712	0.359077	1
H	1.318470	-2.632142	-0.650553	1
H	0.567970	0.111078	2.212507	1
Es	0.099021	0.683617	0.159591	99
Es	-2.225604	0.985358	0.244336	99
Es	1.424817	-1.734190	0.130934	99
Es	-1.442529	0.134803	2.494675	99
Es	1.709189	-0.577787	-1.401566	99
Es	-0.392414	0.896031	0.829296	99
Es	-1.367512	0.049558	2.778950	99
Es	1.070515	-0.637521	-1.016536	99
Es	0.510681	-0.754164	-1.516189	99
Es	-1.703389	0.193947	2.335107	99
Es	-0.951935	0.796536	0.186356	99
Es	-1.784732	0.405936	-0.707902	99
Es	0.820232	0.689585	-0.276903	99
Es	-0.424888	0.702798	0.488936	99
Es	0.615437	-1.855195	0.154360	99
Es	1.243463	-2.286293	-0.450505	99
Es	0.934759	0.021239	-0.640144	99
Es	-1.097015	0.426223	2.329877	99
Es	1.106625	-1.291040	-0.510447	99
Es	0.793761	1.249025	-0.770281	99
Es	-1.121697	-0.053509	2.192528	99
Es	-1.609746	1.602251	-0.577449	99
Es	-1.668950	0.954074	-0.212576	99
Es	0.253592	0.174364	2.069690	99
Es	-0.441935	0.292249	1.807142	99
Es	1.381166	0.815333	0.193388	99
Es	1.167258	-1.781767	-0.108473	99
Es	-0.449013	0.346109	0.871912	99
45
Properties=species:S:1:pos:R:3:Z:I:1 energy=-341.17588432278825 field_type=dipole dipole="0.000000 0.000000 0.000000" charge=0
C	-1.669130	0.954108	-0.212644	6
N	-0.424860	0.703078	0.488936	7
C	0.820400	0.689618	-0.276983	6
C	1.070520	-0.637442	-1.016653	6
N	1.167680	-1.781712	-0.108093	7
C	-0.441940	0.292208	1.807307	6
O	-1.442800	0.134748	2.494906	8
H	-2.516350	0.999548	0.477567	1
H	-1.842720	0.149988	-0.933003	1
H	-1.591740	1.909408	-0.740263	1
H	1.654140	0.881808	0.409046	1
H	0.790660	1.518238	-0.993213	1
H	2.005270	-0.558002	-1.581424	1
H	0.266490	-0.824812	-1.736513	1
H	0.267940	-1.909712	0.359077	1
H	1.318470	-2.632142	-0.650553	1
H	0.567970	0.111078	2.212507	1
Es	-0.449150	0.345741	0.868978	99
Es	-1.784637	0.406075	-0.707914	99
Es	-0.392278	0.896048	0.832119	99
Es	0.934597	0.021296	-0.640123	99
Es	1.381264	0.815423	0.193339	99
Es	-1.702193	0.194298	2.331814	99
Es	1.167269	-1.781760	-0.108476	99
Es	-1.668953	0.954075	-0.212578	99
Es	0.510855	-0.754202	-1.516265	99
Es	-1.119973	-0.053921	2.194096	99
Es	0.793702	1.248897	-0.770338	99
Es	-0.951811	0.796999	0.186376	99
Es	-0.424891	0.702769	0.488971	99
Es	-1.442586	0.134784	2.494742	99
Es	-2.225728	0.985272	0.244314	99
Es	1.070517	-0.637516	-1.016539	99
Es	0.820235	0.689585	-0.276906	99
Es	1.709249	-0.577788	-1.401470	99
Es	-0.441929	0.292264	1.807140	99
Es	1.106248	-1.291085	-0.510572	99
Es	-1.609804	1.602187	-0.577424	99
Es	0.098969	0.683504	0.159679	99
Es	1.243110	-2.286221	-0.450502	99
Es	0.615684	-1.855184	0.154717	99
Es	0.253608	0.174355	2.069696	99
Es	1.425189	-1.734250	0.130728	99
Es	-1.371086	0.049868	2.778797	99
Es	-1.096319	0.426061	2.331710	99
45
Properties=species:S:1:pos:R:3:Z:I:1 energy=-341.17588432278825 field_type=dipole dipole="0.000000 0.000000 0.000000" charge=0
C	-1.669130	0.954108	-0.212644	6
N	-0.424860	0.703078	0.488936	7
C	0.820400	0.689618	-0.276983	6
C	1.070520	-0.637442	-1.016653	6
N	1.167680	-1.781712	-0.108093	7
C	-0.441940	0.292208	1.807307	6
O	-1.442800	0.134748	2.494906	8
H	-2.516350	0.999548	0.477567	1
H	-1.842720	0.149988	-0.933003	1
H	-1.591740	1.909408	-0.740263	1
H	1.654140	0.881808	0.409046	1
H	0.790660	1.518238	-0.993213	1
H	2.005270	-0.558002	-1.581424	1
H	0.266490	-0.824812	-1.736513	1
H	0.267940	-1.909712	0.359077	1
H	1.318470	-2.632142	-0.650553	1
H	0.567970	0.111078	2.212507	1
Es	0.615572	-1.855280	0.154388	99
Es	1.070517	-0.637516	-1.016539	99
Es	-0.424912	0.702557	0.489044	99
Es	-2.225594	0.985267	0.244279	99
Es	-0.951903	0.796502	0.186368	99
Es	-1.703070	0.192749	2.334100	99
Es	-1.096631	0.425441	2.326103	99
Es	1.381202	0.815420	0.193319	99
Es	0.793712	1.248945	-0.770290	99
Es	-0.449106	0.346322	0.869518	99
Es	-1.784719	0.406008	-0.707919	99
Es	1.106420	-1.291136	-0.510565	99
Es	0.253659	0.174437	2.069777	99
Es	0.098938	0.683020	0.159615	99
Es	1.424858	-1.734105	0.130939	99
Es	-1.668949	0.954074	-0.212576	99
Es	0.820233	0.689586	-0.276905	99
Es	0.510795	-0.754131	-1.516183	99
Es	-1.367810	0.053666	2.780429	99
Es	-1.122103	-0.055654	2.195694	99
Es	1.709151	-0.577741	-1.401564	99
Es	-1.442583	0.134795	2.494743	99
Es	1.243484	-2.286300	-0.450396	99
Es	-0.392213	0.896619	0.831616	99
Es	-1.609833	1.602280	-0.577408	99
Es	0.934718	0.021249	-0.640145	99
Es	-0.441931	0.292266	1.807143	99
Es	1.167253	-1.781770	-0.108477	99
45
Properties=species:S:1:pos:R:3:Z:I:1 energy=-341.17588432278825 field_type=dipole dipole="0.000000 0.000000 0.000000" charge=0
C	-1.669130	0.954108	-0.212644	6
N	-0.424860	0.703078	0.488936	7
C	0.820400	0.689618	-0.276983	6
C	1.070520	-0.637442	-1.016653	6
N	1.167680	-1.781712	-0.108093	7
C	-0.441940	0.292208	1.807307	6
O	-1.442800	0.134748	2.494906	8
H	-2.516350	0.999548	0.477567	1
H	-1.842720	0.149988	-0.933003	1
H	-1.591740	1.909408	-0.740263	1
H	1.654140	0.881808	0.409046	1
H	0.790660	1.518238	-0.993213	1
H	2.005270	-0.558002	-1.581424	1
H	0.266490	-0.824812	-1.736513	1
H	0.267940	-1.909712	0.359077	1
H	1.318470	-2.632142	-0.650553	1
H	0.567970	0.111078	2.212507	1
Es	0.510818	-0.754122	-1.516172	99
Es	-0.392173	0.896544	0.821852	99
Es	0.820237	0.689586	-0.276906	99
Es	-1.442569	0.134788	2.494724	99
Es	1.243635	-2.286314	-0.450236	99
Es	0.253701	0.174329	2.069715	99
Es	-1.098086	0.426870	2.329836	99
Es	-1.609857	1.602282	-0.577348	99
Es	0.615636	-1.855405	0.154193	99
Es	1.709124	-0.577761	-1.401576	99
Es	-1.784672	0.406071	-0.707970	99
Es	0.098943	0.681777	0.159495	99
Es	-2.225634	0.985196	0.244277	99
Es	1.070517	-0.637519	-1.016538	99
Es	-1.120552	-0.053371	2.192826	99
Es	0.934766	0.021271	-0.640193	99
Es	-0.441929	0.292261	1.807138	99
Es	0.793737	1.248967	-0.770254	99
Es	-0.448950	0.348513	0.879672	99
Es	-0.424890	0.702790	0.488944	99
Es	1.424708	-1.733961	0.131070	99
Es	1.167313	-1.781780	-0.108428	99
Es	1.381162	0.815414	0.193303	99
Es	-1.367584	0.050231	2.778887	99
Es	-1.668954	0.954075	-0.212577	99
Es	1.106285	-1.291149	-0.510691	99
Es	-1.703384	0.192633	2.334852	99
Es	-0.952191	0.795356	0.186213	99
45
Properties=species:S:1:pos:R:3:Z:I:1 energy=-341.17588432278825 field_type=dipole dipole="0.000000 0.000000 0.000000" charge=0
C	-1.669130	0.954108	-0.212644	6
N	-0.424860	0.703078	0.488936	7
C	0.820400	0.689618	-0.276983	6
C	1.070520	-0.637442	-1.016653	6
N	1.167680	-1.781712	-0.108093	7
C	-0.441940	0.292208	1.807307	6
O	-1.442800	0.134748	2.494906	8
H	-2.516350	0.999548	0.477567	1
H	-1.842720	0.149988	-0.933003	1
H	-1.591740	1.909408	-0.740263	1
H	1.654140	0.881808	0.409046	1
H	0.790660	1.518238	-0.993213	1
H	2.005270	-0.558002	-1.581424	1
H	0.266490	-0.824812	-1.736513	1
H	0.267940	-1.909712	0.359077	1
H	1.318470	-2.632142	-0.650553	1
H	0.567970	0.111078	2.212507	1
Es	-2.225569	0.985236	0.244247	99
Es	-1.609868	1.602300	-0.577390	99
Es	0.934807	0.021254	-0.640231	99
Es	-0.392068	0.897028	0.824148	99
Es	0.253731	0.174280	2.069739	99
Es	1.381119	0.815413	0.193314	99
Es	-1.784745	0.406042	-0.707914	99
Es	-0.441928	0.292261	1.807139	99
Es	-0.424901	0.702730	0.488982	99
Es	0.615649	-1.855291	0.154568	99
Es	1.424556	-1.734221	0.130692	99
Es	0.793780	1.248978	-0.770203	99
Es	1.709093	-0.577731	-1.401589	99
Es	-0.952048	0.795429	0.186292	99
Es	-1.120734	-0.051335	2.189713	99
Es	-1.668952	0.954075	-0.212578	99
Es	1.243596	-2.286388	-0.450281	99
Es	1.167264	-1.781761	-0.108474	99
Es	0.820236	0.689583	-0.276909	99
Es	0.510838	-0.754076	-1.516157	99
Es	0.098683	0.681790	0.159405	99
Es	1.070517	-0.637516	-1.016541	99
Es	1.106517	-1.291011	-0.510594	99
Es	-1.361364	0.048914	2.776547	99
Es	-1.100806	0.428591	2.329757	99
Es	-1.442512	0.134797	2.494699	99
Es	-1.706768	0.190278	2.340405	99
Es	-0.448967	0.347926	0.877322	99
45
Properties=species:S:1:pos:R:3:Z:I:1 energy=-341.17588432278825 field_type=dipole dipole="0.000000 0.000000 0.000000" charge=0
C	-1.669130	0.954108	-0.212644	6
N	-0.424860	0.703078	0.488936	7
C	0.820400	0.689618	-0.276983	6
C	1.070520	-0.637442	-1.016653	6
N	1.167680	-1.781712	-0.108093	7
C	-0.441940	0.292208	1.807307	6
O	-1.442800	0.134748	2.494906	8
H	-2.516350	0.999548	0.477567	1
H	-1.842720	0.149988	-0.933003	1
H	-1.591740	1.909408	-0.740263	1
H	1.654140	0.881808	0.409046	1
H	0.790660	1.518238	-0.993213	1
H	2.005270	-0.558002	-1.581424	1
H	0.266490	-0.824812	-1.736513	1
H	0.267940	-1.909712	0.359077	1
H	1.318470	-2.632142	-0.650553	1
H	0.567970	0.111078	2.212507	1
Es	-1.097745	0.426624	2.329651	99
Es	-1.703919	0.192852	2.335418	99
Es	-0.449192	0.347287	0.874533	99
Es	-0.424870	0.702944	0.488935	99
Es	1.167261	-1.781763	-0.108475	99
Es	1.243554	-2.286399	-0.450211	99
Es	1.070517	-0.637514	-1.016541	99
Es	-0.441928	0.292264	1.807140	99
Es	-1.442542	0.134794	2.494679	99
Es	-1.784743	0.406011	-0.707890	99
Es	-1.120871	-0.053647	2.192909	99
Es	0.510908	-0.754120	-1.516163	99
Es	-0.392102	0.896613	0.826886	99
Es	1.424468	-1.734338	0.130715	99
Es	-1.367109	0.050545	2.778441	99
Es	0.934724	0.021263	-0.640244	99
Es	0.098799	0.682082	0.159574	99
Es	0.615639	-1.855244	0.154514	99
Es	1.106669	-1.290936	-0.510615	99
Es	1.381179	0.815492	0.193244	99
Es	-1.609917	1.602261	-0.577416	99
Es	-1.668953	0.954075	-0.212578	99
Es	0.253778	0.174347	2.069761	99
Es	0.820237	0.689586	-0.276907	99
Es	-2.225556	0.985248	0.244249	99
Es	0.793692	1.248919	-0.770218	99
Es	-0.951906	0.796043	0.186292	99
Es	1.709084	-0.577715	-1.401575	99
45
Properties=species:S:1:pos:R:3:Z:I:1 energy=-341.17588432278825 field_type=dipole dipole="0.000000 0.000000 0.000000" charge=0
C	-1.669130	0.954108	-0.212644	6
N	-0.424860	0.703078	0.488936	7
C	0.820400	0.689618	-0.276983	6
C	1.070520	-0.637442	-1.016653	6
N	1.167680	-1.781712	-0.108093	7
C	-0.441940	0.292208	1.807307	6
O	-1.442800	0.134748	2.494906	8
H	-2.516350	0.999548	0.477567	1
H	-1.842720	0.149988	-0.933003	1
H	-1.591740	1.909408	-0.740263	1
H	1.654140	0.881808	0.409046	1
H	0.790660	1.518238	-0.993213	1
H	2.005270	-0.558002	-1.581424	1
H	0.266490	-0.824812	-1.736513	1
H	0.267940	-1.909712	0.359077	1
H	1.318470	-2.632142	-0.650553	1
H	0.567970	0.111078	2.212507	1
Es	-1.369979	0.048906	2.779089	99
Es	-0.392035	0.896970	0.823518	99
Es	-0.449069	0.348255	0.878037	99
Es	1.070518	-0.637514	-1.016542	99
Es	1.167261	-1.781774	-0.108480	99
Es	0.253768	0.174412	2.069795	99
Es	0.098717	0.681448	0.159475	99
Es	-1.095041	0.424808	2.331046	99
Es	0.820237	0.689585	-0.276907	99
Es	-0.952019	0.795300	0.186225	99
Es	0.615642	-1.855321	0.154657	99
Es	-1.122710	-0.054285	2.192325	99
Es	0.510952	-0.754059	-1.516138	99
Es	-0.424878	0.702894	0.488920	99
Es	-1.668952	0.954074	-0.212578	99
Es	1.381147	0.815436	0.193274	99
Es	-1.442527	0.134779	2.494663	99
Es	-2.225577	0.985256	0.244228	99
Es	1.243686	-2.286392	-0.450111	99
Es	-1.701927	0.196933	2.333965	99
Es	-1.609869	1.602273	-0.577417	99
Es	-1.784774	0.406074	-0.707876	99
Es	1.106474	-1.291071	-0.510728	99
Es	1.424470	-1.734172	0.130584	99
Es	-0.441928	0.292265	1.807139	99
Es	0.934747	0.021292	-0.640244	99
Es	0.793754	1.248951	-0.770212	99
Es	1.709067	-0.577751	-1.401597	99
45
Properties=species:S:1:pos:R:3:Z:I:1 energy=-341.17588432278825 field_type=dipole dipole="0.000000 0.000000 0.000000" charge=0
C	-1.669130	0.954108	-0.212644	6
N	-0.424860	0.703078	0.488936	7
C	0.820400	0.689618	-0.276983	6
C	1.070520	-0.637442	-1.016653	6
N	1.167680	-1.781712	-0.108093	7
C	-0.441940	0.292208	1.807307	6
O	-1.442800	0.134748	2.494906	8
H	-2.516350	0.999548	0.477567	1
H	-1.842720	0.149988	-0.933003	1
H	-1.591740	1.909408	-0.740263	1
H	1.654140	0.881808	0.409046	1
H	0.790660	1.518238	-0.993213	1
H	2.005270	-0.558002	-1.581424	1
H	0.266490	-0.824812	-1.736513	1
H	0.267940	-1.909712	0.359077	1
H	1.318470	-2.632142	-0.650553	1
H	0.567970	0.111078	2.212507	1
Es	1.381155	0.815589	0.193223	99
Es	0.615731	-1.855289	0.154608	99
Es	-0.424876	0.702904	0.488942	99
Es	-0.441928	0.292262	1.807140	99
Es	0.793728	1.248813	-0.770126	99
Es	-1.120549	-0.054229	2.193181	99
Es	1.243659	-2.286464	-0.450190	99
Es	-0.952057	0.795454	0.186225	99
Es	-1.442554	0.134804	2.494674	99
Es	0.510927	-0.754087	-1.516174	99
Es	-1.368561	0.050916	2.778875	99
Es	1.424208	-1.734429	0.130550	99
Es	-0.392089	0.896789	0.824096	99
Es	0.098692	0.681680	0.159496	99
Es	-1.702786	0.192900	2.334613	99
Es	1.106759	-1.290798	-0.510582	99
Es	0.934856	0.021265	-0.640288	99
Es	1.070517	-0.637514	-1.016541	99
Es	-2.225534	0.985261	0.244260	99
Es	-1.668956	0.954076	-0.212580	99
Es	-1.609871	1.602291	-0.577400	99
Es	-1.097744	0.426803	2.329742	99
Es	0.820241	0.689589	-0.276907	99
Es	-0.449041	0.348060	0.877392	99
Es	1.708963	-0.577748	-1.401571	99
Es	1.167268	-1.781768	-0.108463	99
Es	-1.784787	0.406028	-0.707893	99
Es	0.253787	0.174413	2.069805	99
45
Properties=species:S:1:pos:R:3:Z:I:1 energy=-341.17588432278825 field_type=dipole dipole="0.000000 0.000000 0.000000" charge=0
C	-1.669130	0.954108	-0.212644	6
N	-0.424860	0.703078	0.488936	7
C	0.820400	0.689618	-0.276983	6
C	1.070520	-0.637442	-1.016653	6
N	1.167680	-1.781712	-0.108093	7
C	-0.441940	0.292208	1.807307	6
O	-1.442800	0.134748	2.494906	8
H	-2.516350	0.999548	0.477567	1
H	-1.842720	0.149988	-0.933003	1
H	-1.591740	1.909408	-0.740263	1
H	1.654140	0.881808	0.409046	1
H	0.790660	1.518238	-0.993213	1
H	2.005270	-0.558002	-1.581424	1
H	0.266490	-0.824812	-1.736513	1
H	0.267940	-1.909712	0.359077	1
H	1.318470	-2.632142	-0.650553	1
H	0.567970	0.111078	2.212507	1
Es	0.098854	0.681954	0.159574	99
Es	1.070517	-0.637514	-1.016543	99
Es	-0.392252	0.896565	0.823340	99
Es	-0.449031	0.348081	0.878094	99
Es	-1.119479	-0.053217	2.193199	99
Es	1.381079	0.815524	0.193194	99
Es	1.106637	-1.290653	-0.510521	99
Es	-0.424892	0.702777	0.488960	99
Es	-0.441931	0.292263	1.807142	99
Es	-0.951985	0.795433	0.186282	99
Es	-1.097952	0.427107	2.331223	99
Es	-1.702074	0.192764	2.332999	99
Es	-1.609876	1.602245	-0.577394	99
Es	-1.668955	0.954075	-0.212579	99
Es	1.167282	-1.781763	-0.108458	99
Es	0.615825	-1.855411	0.154647	99
Es	-2.225578	0.985282	0.244177	99
Es	1.243677	-2.286417	-0.450260	99
Es	0.511006	-0.754088	-1.516173	99
Es	-1.370155	0.049811	2.778941	99
Es	1.424153	-1.734520	0.130508	99
Es	0.820232	0.689585	-0.276903	99
Es	0.793760	1.248925	-0.770162	99
Es	-1.784788	0.406083	-0.707895	99
Es	-1.442527	0.134786	2.494715	99
Es	0.934764	0.021222	-0.640262	99
Es	1.709023	-0.577716	-1.401560	99
Es	0.253821	0.174392	2.069825	99
45
Properties=species:S:1:pos:R:3:Z:I:1 energy=-341.17588432278825 field_type=dipole dipole="0.000000 0.000000 0.000000" charge=0
C	-1.669130	0.954108	-0.212644	6
N	-0.424860	0.703078	0.488936	7
C	0.820400	0.689618	-0.276983	6
C	1.070520	-0.637442	-1.016653	6
N	1.167680	-1.781712	-0.108093	7
C	-0.441940	0.292208	1.807307	6
O	-1.442800	0.134748	2.494906	8
H	-2.516350	0.999548	0.477567	1
H	-1.842720	0.149988	-0.933003	1
H	-1.591740	1.909408	-0.740263	1
H	1.654140	0.881808	0.409046	1
H	0.790660	1.518238	-0.993213	1
H	2.005270	-0.558002	-1.581424	1
H	0.266490	-0.824812	-1.736513	1
H	0.267940	-1.909712	0.359077	1
H	1.318470	-2.632142	-0.650553	1
H	0.567970	0.111078	2.212507	1
Es	-0.424895	0.702747	0.488919	99
Es	1.070518	-0.637511	-1.016547	99
Es	0.820234	0.689587	-0.276905	99
Es	-0.952056	0.795214	0.186274	99
Es	0.511049	-0.754041	-1.516129	99
Es	0.934741	0.021248	-0.640310	99
Es	1.106774	-1.290768	-0.510578	99
Es	-1.442529	0.134789	2.494716	99
Es	1.381116	0.815512	0.193199	99
Es	0.253829	0.174313	2.069798	99
Es	1.424132	-1.734542	0.130773	99
Es	-0.392030	0.896843	0.822024	99
Es	-0.441929	0.292263	1.807141	99
Es	-1.367942	0.049273	2.777699	99
Es	-1.668954	0.954078	-0.212579	99
Es	-1.784860	0.406077	-0.707903	99
Es	1.243650	-2.286438	-0.450143	99
Es	0.793758	1.248902	-0.770156	99
Es	-2.225531	0.985325	0.244181	99
Es	0.098698	0.681285	0.159481	99
Es	-1.099699	0.428620	2.331702	99
Es	-1.118394	-0.051858	2.192433	99
Es	0.615723	-1.855322	0.154356	99
Es	1.167279	-1.781753	-0.108457	99
Es	-1.703617	0.190536	2.334558	99
Es	-1.609893	1.602220	-0.577372	99
Es	1.708997	-0.577703	-1.401597	99
Es	-0.449011	0.348675	0.879532	99
45
Properties=species:S:1:pos:R:3:Z:I:1 energy=-341.17588432278825 field_type=dipole dipole="0.000000 0.000000 0.000000" charge=0
C	-1.669130	0.954108	-0.212644	6
N	-0.424860	0.703078	0.488936	7
C	0.820400	0.689618	-0.276983	6
C	1.070520	-0.637442	-1.016653	6
N	1.167680	-1.781712	-0.108093	7
C	-0.441940	0.292208	1.807307	6
O	-1.442800	0.134748	2.494906	8
H	-2.516350	0.999548	0.477567	1
H	-1.842720	0.149988	-0.933003	1
H	-1.591740	1.909408	-0.740263	1
H	1.654140	0.881808	0.409046	1
H	0.790660	1.518238	-0.993213	1
H	2.005270	-0.558002	-1.581424	1
H	0.266490	-0.824812	-1.736513	1
H	0.267940	-1.909712	0.359077	1
H	1.318470	-2.632142	-0.650553	1
H	0.567970	0.111078	2.212507	1
Es	-0.951871	0.795717	0.186272	99
Es	1.709002	-0.577586	-1.401410	99
Es	-2.225533	0.985264	0.244181	99
Es	1.424003	-1.734133	0.130096	99
Es	-1.120445	-0.053869	2.193418	99
Es	1.381047	0.815511	0.193205	99
Es	0.615913	-1.855370	0.155047	99
Es	0.098939	0.682748	0.159649	99
Es	0.511164	-0.754142	-1.516309	99
Es	-1.442488	0.134788	2.494723	99
Es	0.820239	0.689587	-0.276907	99
Es	-1.784826	0.406084	-0.707829	99
Es	-1.609938	1.602252	-0.577443	99
Es	0.934612	0.021223	-0.640299	99
Es	-1.097199	0.427055	2.330547	99
Es	1.243979	-2.286638	-0.449938	99
Es	1.167261	-1.781761	-0.108482	99
Es	0.253864	0.174430	2.069863	99
Es	-0.441929	0.292264	1.807140	99
Es	-0.449009	0.347267	0.874493	99
Es	-1.702155	0.193116	2.333651	99
Es	1.106444	-1.290937	-0.510805	99
Es	-0.424887	0.702802	0.488962	99
Es	0.793804	1.248924	-0.770128	99
Es	1.070518	-0.637517	-1.016543	99
Es	-1.369925	0.050197	2.778717	99
Es	-0.392476	0.896223	0.826819	99
Es	-1.668954	0.954074	-0.212579	99
