45
Properties=species:S:1:pos:R:3:Z:I:1 energy=-341.14459501083337 field_type=dipole dipole="0.000000 0.000000 0.000000" charge=0
C	-1.954316	0.127392	0.371719	6
N	-0.510986	0.330062	0.377269	7
C	0.302604	-0.890818	0.438509	6
C	0.942384	-1.206688	-0.918691	6
O	1.964584	-0.271218	-1.249691	8
C	0.017984	1.590452	0.444549	6
N	1.252344	1.940022	0.497679	7
H	-2.504126	1.070812	0.288679	1
H	-2.270886	-0.363008	1.298249	1
H	-2.246316	-0.501798	-0.475351	1
H	-0.322456	-1.741138	0.736729	1
H	1.074114	-0.780538	1.209069	1
H	0.200244	-1.210338	-1.723511	1
H	1.409424	-2.195768	-0.881121	1
H	1.526304	0.595832	-1.365911	1
H	-0.745276	2.388072	0.426169	1
H	1.864374	1.118672	0.525649	1
Es	-0.326282	0.772276	0.609269	99
Es	-2.314350	0.772887	0.315114	99
Es	-0.514642	2.117713	0.430333	99
Es	-2.149424	-0.305597	-0.204999	99
Es	0.017845	1.590300	0.444529	99
Es	-2.168281	-0.211111	1.003195	99
Es	1.370828	2.277533	0.506740	99
Es	-0.163326	-0.182619	0.420279	99
Es	2.138631	-0.245538	-0.994401	99
Es	2.074725	-0.359516	-1.522333	99
Es	-0.134258	-1.461416	0.635469	99
Es	1.712222	0.175866	-1.311024	99
Es	1.252139	1.939583	0.497673	99
Es	1.602570	1.438144	0.515845	99
Es	0.942523	-1.206522	-0.918696	99
Es	0.614557	-1.041050	-0.232959	99
Es	-0.510969	0.330161	0.377716	99
Es	-1.954146	0.127424	0.371715	99
Es	-1.129508	0.249306	0.391031	99
Es	0.756991	1.783866	0.753703	99
Es	0.416771	-1.208979	-1.461937	99
Es	-0.410234	0.543404	0.115396	99
Es	0.789803	1.784733	0.186456	99
Es	1.964243	-0.271139	-1.249648	99
Es	0.302490	-0.890668	0.438481	99
Es	0.828734	-0.811168	0.954297	99
Es	1.257301	-1.885756	-0.885107	99
Es	1.556536	-0.609034	-1.122564	99
45
Properties=species:S:1:pos:R:3:Z:I:1 energy=-341.14459501083337 field_type=dipole dipole="0.000000 0.000000 0.000000" charge=0
C	-1.954316	0.127392	0.371719	6
N	-0.510986	0.330062	0.377269	7
C	0.302604	-0.890818	0.438509	6
C	0.942384	-1.206688	-0.918691	6
O	1.964584	-0.271218	-1.249691	8
C	0.017984	1.590452	0.444549	6
N	1.252344	1.940022	0.497679	7
H	-2.504126	1.070812	0.288679	1
H	-2.270886	-0.363008	1.298249	1
H	-2.246316	-0.501798	-0.475351	1
H	-0.322456	-1.741138	0.736729	1
H	1.074114	-0.780538	1.209069	1
H	0.200244	-1.210338	-1.723511	1
H	1.409424	-2.195768	-0.881121	1
H	1.526304	0.595832	-1.365911	1
H	-0.745276	2.388072	0.426169	1
H	1.864374	1.118672	0.525649	1
Es	-0.163359	-0.182466	0.420940	99
Es	1.371239	2.276830	0.507216	99
Es	2.073075	-0.359303	-1.521673	99
Es	-0.510980	0.330127	0.377604	99
Es	0.614471	-1.040993	-0.232929	99
Es	1.252130	1.939563	0.497661	99
Es	0.789765	1.785548	0.185836	99
Es	-1.954149	0.127423	0.371715	99
Es	0.756899	1.784240	0.753821	99
Es	-1.129445	0.249250	0.391252	99
Es	-0.134271	-1.461441	0.635438	99
Es	-0.514645	2.117661	0.430380	99
Es	1.257268	-1.885668	-0.885058	99
Es	-0.409188	0.545347	0.113763	99
Es	0.942523	-1.206519	-0.918697	99
Es	-0.327283	0.770212	0.610150	99
Es	0.302491	-0.890671	0.438481	99
Es	-2.149461	-0.305598	-0.204998	99
Es	1.712809	0.176672	-1.310927	99
Es	0.416851	-1.209111	-1.461969	99
Es	0.017848	1.590300	0.444526	99
Es	-2.168295	-0.211078	1.003165	99
Es	-2.314338	0.772876	0.315132	99
Es	1.964251	-0.271126	-1.249606	99
Es	0.828729	-0.811185	0.954298	99
Es	1.602284	1.437766	0.515848	99
Es	1.556314	-0.609401	-1.121916	99
Es	2.139954	-0.246175	-0.995880	99
45
Properties=species:S:1:pos:R:3:Z:I:1 energy=-341.14459501083337 field_type=dipole dipole="0.000000 0.000000 0.000000" charge=0
C	-1.954316	0.127392	0.371719	6
N	-0.510986	0.330062	0.377269	7
C	0.302604	-0.890818	0.438509	6
C	0.942384	-1.206688	-0.918691	6
O	1.964584	-0.271218	-1.249691	8
C	0.017984	1.590452	0.444549	6
N	1.252344	1.940022	0.497679	7
H	-2.504126	1.070812	0.288679	1
H	-2.270886	-0.363008	1.298249	1
H	-2.246316	-0.501798	-0.475351	1
H	-0.322456	-1.741138	0.736729	1
H	1.074114	-0.780538	1.209069	1
H	0.200244	-1.210338	-1.723511	1
H	1.409424	-2.195768	-0.881121	1
H	1.526304	0.595832	-1.365911	1
H	-0.745276	2.388072	0.426169	1
H	1.864374	1.118672	0.525649	1
Es	1.370892	2.276748	0.508308	99
Es	0.756698	1.783648	0.753304	99
Es	2.074529	-0.359661	-1.520925	99
Es	1.712498	0.175888	-1.312499	99
Es	1.556232	-0.609519	-1.122240	99
Es	0.302490	-0.890666	0.438480	99
Es	-2.149504	-0.305550	-0.205013	99
Es	2.138902	-0.244878	-0.994734	99
Es	-0.514713	2.117702	0.430483	99
Es	0.790038	1.785999	0.185225	99
Es	-2.168269	-0.211119	1.003156	99
Es	-2.314339	0.772871	0.315198	99
Es	1.964244	-0.271142	-1.249625	99
Es	-0.410473	0.543090	0.115560	99
Es	1.257259	-1.885668	-0.885060	99
Es	-0.325993	0.772570	0.608726	99
Es	1.602560	1.437964	0.515748	99
Es	0.614482	-1.041028	-0.232978	99
Es	1.252137	1.939537	0.497675	99
Es	-0.510980	0.330111	0.377653	99
Es	0.017846	1.590299	0.444529	99
Es	0.828732	-0.811157	0.954238	99
Es	-1.129484	0.249346	0.391318	99
Es	0.416817	-1.209113	-1.461946	99
Es	0.942525	-1.206516	-0.918697	99
Es	-1.954146	0.127424	0.371715	99
Es	-0.163334	-0.182650	0.420475	99
Es	-0.134158	-1.461448	0.635501	99
45
Properties=species:S:1:pos:R:3:Z:I:1 energy=-341.14459501083337 field_type=dipole dipole="0.000000 0.000000 0.000000" charge=0
C	-1.954316	0.127392	0.371719	6
N	-0.510986	0.330062	0.377269	7
C	0.302604	-0.890818	0.438509	6
C	0.942384	-1.206688	-0.918691	6
O	1.964584	-0.271218	-1.249691	8
C	0.017984	1.590452	0.444549	6
N	1.252344	1.940022	0.497679	7
H	-2.504126	1.070812	0.288679	1
H	-2.270886	-0.363008	1.298249	1
H	-2.246316	-0.501798	-0.475351	1
H	-0.322456	-1.741138	0.736729	1
H	1.074114	-0.780538	1.209069	1
H	0.200244	-1.210338	-1.723511	1
H	1.409424	-2.195768	-0.881121	1
H	1.526304	0.595832	-1.365911	1
H	-0.745276	2.388072	0.426169	1
H	1.864374	1.118672	0.525649	1
Es	-1.954142	0.127424	0.371715	99
Es	1.252106	1.939557	0.497669	99
Es	-0.514619	2.117778	0.430311	99
Es	-0.331385	0.761570	0.615933	99
Es	2.071696	-0.358865	-1.521754	99
Es	0.757246	1.784108	0.753928	99
Es	2.141212	-0.246245	-0.997044	99
Es	1.556323	-0.609795	-1.121086	99
Es	-0.163405	-0.182742	0.418887	99
Es	-0.405126	0.554541	0.111470	99
Es	1.712939	0.176734	-1.310509	99
Es	-2.149518	-0.305574	-0.204981	99
Es	1.257233	-1.885688	-0.885087	99
Es	-2.168303	-0.211064	1.003166	99
Es	0.302492	-0.890669	0.438479	99
Es	0.789452	1.785522	0.185819	99
Es	0.416877	-1.209113	-1.461912	99
Es	0.017844	1.590299	0.444537	99
Es	-1.129388	0.249080	0.389749	99
Es	0.942524	-1.206522	-0.918697	99
Es	-2.314333	0.772841	0.315151	99
Es	1.964256	-0.271115	-1.249641	99
Es	-0.510995	0.330095	0.377624	99
Es	0.614522	-1.041157	-0.232938	99
Es	-0.134191	-1.461390	0.635584	99
Es	1.602483	1.437972	0.515614	99
Es	1.371080	2.276653	0.507364	99
Es	0.828611	-0.811154	0.954225	99
45
Properties=species:S:1:pos:R:3:Z:I:1 energy=-341.14459501083337 field_type=dipole dipole="0.000000 0.000000 0.000000" charge=0
C	-1.954316	0.127392	0.371719	6
N	-0.510986	0.330062	0.377269	7
C	0.302604	-0.890818	0.438509	6
C	0.942384	-1.206688	-0.918691	6
O	1.964584	-0.271218	-1.249691	8
C	0.017984	1.590452	0.444549	6
N	1.252344	1.940022	0.497679	7
H	-2.504126	1.070812	0.288679	1
H	-2.270886	-0.363008	1.298249	1
H	-2.246316	-0.501798	-0.475351	1
H	-0.322456	-1.741138	0.736729	1
H	1.074114	-0.780538	1.209069	1
H	0.200244	-1.210338	-1.723511	1
H	1.409424	-2.195768	-0.881121	1
H	1.526304	0.595832	-1.365911	1
H	-0.745276	2.388072	0.426169	1
H	1.864374	1.118672	0.525649	1
Es	-2.314381	0.772835	0.315181	99
Es	-1.954146	0.127424	0.371715	99
Es	-0.514708	2.117846	0.430325	99
Es	2.137745	-0.245348	-0.995466	99
Es	0.942520	-1.206525	-0.918695	99
Es	0.614509	-1.041028	-0.232945	99
Es	0.416899	-1.209134	-1.461912	99
Es	-0.327117	0.770150	0.609981	99
Es	-0.163366	-0.182696	0.420610	99
Es	1.964359	-0.271173	-1.249658	99
Es	1.257200	-1.885675	-0.885072	99
Es	-2.168318	-0.211099	1.003090	99
Es	0.828599	-0.811215	0.954216	99
Es	-0.510951	0.330203	0.377719	99
Es	0.757169	1.784401	0.754232	99
Es	1.712953	0.176379	-1.311379	99
Es	0.789412	1.785580	0.185838	99
Es	1.602785	1.438004	0.515588	99
Es	1.252120	1.939563	0.497663	99
Es	-1.129394	0.249549	0.391394	99
Es	0.017842	1.590295	0.444526	99
Es	-2.149466	-0.305566	-0.205008	99
Es	0.302487	-0.890671	0.438481	99
Es	-0.409320	0.545357	0.114158	99
Es	2.075302	-0.359375	-1.521354	99
Es	-0.134207	-1.461477	0.635494	99
Es	1.556110	-0.609753	-1.122177	99
Es	1.370853	2.276230	0.507027	99
45
Properties=species:S:1:pos:R:3:Z:I:1 energy=-341.14459501083337 field_type=dipole dipole="0.000000 0.000000 0.000000" charge=0
C	-1.954316	0.127392	0.371719	6
N	-0.510986	0.330062	0.377269	7
C	0.302604	-0.890818	0.438509	6
C	0.942384	-1.206688	-0.918691	6
O	1.964584	-0.271218	-1.249691	8
C	0.017984	1.590452	0.444549	6
N	1.252344	1.940022	0.497679	7
H	-2.504126	1.070812	0.288679	1
H	-2.270886	-0.363008	1.298249	1
H	-2.246316	-0.501798	-0.475351	1
H	-0.322456	-1.741138	0.736729	1
H	1.074114	-0.780538	1.209069	1
H	0.200244	-1.210338	-1.723511	1
H	1.409424	-2.195768	-0.881121	1
H	1.526304	0.595832	-1.365911	1
H	-0.745276	2.388072	0.426169	1
H	1.864374	1.118672	0.525649	1
Es	-0.327149	0.770521	0.609599	99
Es	0.756374	1.783806	0.753576	99
Es	-2.149492	-0.305709	-0.204983	99
Es	0.828582	-0.811251	0.954196	99
Es	0.614462	-1.041046	-0.232943	99
Es	0.017845	1.590299	0.444535	99
Es	0.416954	-1.209164	-1.461889	99
Es	1.602663	1.437881	0.515557	99
Es	1.713006	0.176735	-1.311698	99
Es	-0.409563	0.545005	0.113775	99
Es	0.790272	1.786186	0.185466	99
Es	-1.129341	0.249421	0.391768	99
Es	0.942521	-1.206525	-0.918695	99
Es	1.556275	-0.609869	-1.120958	99
Es	0.302490	-0.890663	0.438480	99
Es	2.074131	-0.359651	-1.521036	99
Es	-0.514718	2.117892	0.430396	99
Es	-2.168248	-0.210978	1.003199	99
Es	-2.314407	0.772730	0.315125	99
Es	-1.954145	0.127424	0.371715	99
Es	-0.134174	-1.461465	0.635498	99
Es	1.257184	-1.885678	-0.885072	99
Es	1.964217	-0.271171	-1.249668	99
Es	2.138852	-0.245284	-0.996693	99
Es	-0.510955	0.330190	0.377667	99
Es	-0.163197	-0.182391	0.421019	99
Es	1.370928	2.276273	0.507981	99
Es	1.252120	1.939562	0.497659	99
45
Properties=species:S:1:pos:R:3:Z:I:1 energy=-341.14459501083337 field_type=dipole dipole="0.000000 0.000000 0.000000" charge=0
C	-1.954316	0.127392	0.371719	6
N	-0.510986	0.330062	0.377269	7
C	0.302604	-0.890818	0.438509	6
C	0.942384	-1.206688	-0.918691	6
O	1.964584	-0.271218	-1.249691	8
C	0.017984	1.590452	0.444549	6
N	1.252344	1.940022	0.497679	7
H	-2.504126	1.070812	0.288679	1
H	-2.270886	-0.363008	1.298249	1
H	-2.246316	-0.501798	-0.475351	1
H	-0.322456	-1.741138	0.736729	1
H	1.074114	-0.780538	1.209069	1
H	0.200244	-1.210338	-1.723511	1
H	1.409424	-2.195768	-0.881121	1
H	1.526304	0.595832	-1.365911	1
H	-0.745276	2.388072	0.426169	1
H	1.864374	1.118672	0.525649	1
Es	0.416956	-1.209151	-1.461818	99
Es	-0.325612	0.773498	0.607544	99
Es	-0.134202	-1.461390	0.635474	99
Es	-2.314389	0.772832	0.315148	99
Es	-2.149501	-0.305590	-0.204944	99
Es	-1.954147	0.127424	0.371715	99
Es	1.603075	1.438082	0.515724	99
Es	-0.411105	0.541981	0.115942	99
Es	0.942521	-1.206525	-0.918697	99
Es	-0.514781	2.117935	0.430389	99
Es	0.302490	-0.890669	0.438480	99
Es	0.614434	-1.041131	-0.232922	99
Es	2.073852	-0.359431	-1.520203	99
Es	1.257168	-1.885698	-0.885126	99
Es	0.828615	-0.811274	0.954252	99
Es	0.789987	1.786101	0.185193	99
Es	-1.129415	0.249413	0.391786	99
Es	0.017846	1.590299	0.444533	99
Es	-0.510931	0.330270	0.377910	99
Es	2.139145	-0.245712	-0.996138	99
Es	1.713456	0.176911	-1.312185	99
Es	1.252138	1.939624	0.497669	99
Es	1.964260	-0.271146	-1.249588	99
Es	0.756598	1.784217	0.754000	99
Es	-2.168316	-0.211053	1.003103	99
Es	-0.162973	-0.182562	0.420676	99
Es	1.555763	-0.609825	-1.121976	99
Es	1.370553	2.275651	0.507633	99
45
Properties=species:S:1:pos:R:3:Z:I:1 energy=-341.14459501083337 field_type=dipole dipole="0.000000 0.000000 0.000000" charge=0
C	-1.954316	0.127392	0.371719	6
N	-0.510986	0.330062	0.377269	7
C	0.302604	-0.890818	0.438509	6
C	0.942384	-1.206688	-0.918691	6
O	1.964584	-0.271218	-1.249691	8
C	0.017984	1.590452	0.444549	6
N	1.252344	1.940022	0.497679	7
H	-2.504126	1.070812	0.288679	1
H	-2.270886	-0.363008	1.298249	1
H	-2.246316	-0.501798	-0.475351	1
H	-0.322456	-1.741138	0.736729	1
H	1.074114	-0.780538	1.209069	1
H	0.200244	-1.210338	-1.723511	1
H	1.409424	-2.195768	-0.881121	1
H	1.526304	0.595832	-1.365911	1
H	-0.745276	2.388072	0.426169	1
H	1.864374	1.118672	0.525649	1
Es	1.964238	-0.271154	-1.249660	99
Es	-0.510972	0.330136	0.377514	99
Es	0.828543	-0.811297	0.954215	99
Es	0.416927	-1.209206	-1.461887	99
Es	-0.330526	0.763174	0.613570	99
Es	-0.163090	-0.182554	0.420393	99
Es	1.712544	0.176690	-1.311688	99
Es	-0.406090	0.552535	0.111094	99
Es	-2.149498	-0.305446	-0.204996	99
Es	2.073005	-0.358364	-1.520145	99
Es	0.756116	1.783709	0.753641	99
Es	1.257150	-1.885590	-0.885119	99
Es	-2.168357	-0.211177	1.003071	99
Es	-0.514758	2.117983	0.430343	99
Es	-2.314371	0.772831	0.315211	99
Es	1.603129	1.438218	0.515693	99
Es	0.942523	-1.206523	-0.918696	99
Es	-1.129365	0.249323	0.391355	99
Es	0.614499	-1.041198	-0.232902	99
Es	0.302489	-0.890667	0.438479	99
Es	0.790530	1.786451	0.184947	99
Es	-0.134203	-1.461398	0.635506	99
Es	0.017846	1.590298	0.444534	99
Es	2.140119	-0.245295	-0.997013	99
Es	1.556599	-0.611070	-1.121560	99
Es	1.252124	1.939550	0.497656	99
Es	-1.954148	0.127424	0.371715	99
Es	1.370486	2.275696	0.508301	99
45
Properties=species:S:1:pos:R:3:Z:I:1 energy=-341.14459501083337 field_type=dipole dipole="0.000000 0.000000 0.000000" charge=0
C	-1.954316	0.127392	0.371719	6
N	-0.510986	0.330062	0.377269	7
C	0.302604	-0.890818	0.438509	6
C	0.942384	-1.206688	-0.918691	6
O	1.964584	-0.271218	-1.249691	8
C	0.017984	1.590452	0.444549	6
N	1.252344	1.940022	0.497679	7
H	-2.504126	1.070812	0.288679	1
H	-2.270886	-0.363008	1.298249	1
H	-2.246316	-0.501798	-0.475351	1
H	-0.322456	-1.741138	0.736729	1
H	1.074114	-0.780538	1.209069	1
H	0.200244	-1.210338	-1.723511	1
H	1.409424	-2.195768	-0.881121	1
H	1.526304	0.595832	-1.365911	1
H	-0.745276	2.388072	0.426169	1
H	1.864374	1.118672	0.525649	1
Es	-1.129210	0.249185	0.390887	99
Es	1.964241	-0.271119	-1.249587	99
Es	-1.954151	0.127423	0.371715	99
Es	-2.149585	-0.305617	-0.204985	99
Es	1.713239	0.177023	-1.312456	99
Es	1.603415	1.438185	0.515567	99
Es	-2.168311	-0.210980	1.003068	99
Es	1.252158	1.939654	0.497661	99
Es	1.257118	-1.885686	-0.885100	99
Es	0.017846	1.590299	0.444532	99
Es	-0.163174	-0.182628	0.419801	99
Es	-0.514751	2.118042	0.430319	99
Es	2.074408	-0.359761	-1.520073	99
Es	-0.134168	-1.461428	0.635500	99
Es	2.138474	-0.244989	-0.997318	99
Es	0.302490	-0.890668	0.438481	99
Es	0.614439	-1.041113	-0.232947	99
Es	-0.510967	0.330170	0.377579	99
Es	0.828531	-0.811293	0.954202	99
Es	1.556170	-0.610331	-1.120662	99
Es	0.790118	1.786416	0.185119	99
Es	-0.406070	0.552840	0.111364	99
Es	0.756466	1.784119	0.754058	99
Es	0.942522	-1.206524	-0.918696	99
Es	0.417003	-1.209185	-1.461818	99
Es	-0.330655	0.763054	0.614299	99
Es	1.370241	2.275175	0.507850	99
Es	-2.314346	0.772819	0.315211	99
45
Properties=species:S:1:pos:R:3:Z:I:1 energy=-341.14459501083337 field_type=dipole dipole="0.000000 0.000000 0.000000" charge=0
C	-1.954316	0.127392	0.371719	6
N	-0.510986	0.330062	0.377269	7
C	0.302604	-0.890818	0.438509	6
C	0.942384	-1.206688	-0.918691	6
O	1.964584	-0.271218	-1.249691	8
C	0.017984	1.590452	0.444549	6
N	1.252344	1.940022	0.497679	7
H	-2.504126	1.070812	0.288679	1
H	-2.270886	-0.363008	1.298249	1
H	-2.246316	-0.501798	-0.475351	1
H	-0.322456	-1.741138	0.736729	1
H	1.074114	-0.780538	1.209069	1
H	0.200244	-1.210338	-1.723511	1
H	1.409424	-2.195768	-0.881121	1
H	1.526304	0.595832	-1.365911	1
H	-0.745276	2.388072	0.426169	1
H	1.864374	1.118672	0.525649	1
Es	0.828514	-0.811328	0.954140	99
Es	-1.954156	0.127422	0.371716	99
Es	0.756127	1.784148	0.754092	99
Es	-0.514806	2.118087	0.430323	99
Es	2.135446	-0.244095	-0.995906	99
Es	-0.510983	0.330119	0.377623	99
Es	2.077693	-0.359403	-1.518575	99
Es	-2.314377	0.772792	0.315195	99
Es	-2.149558	-0.305524	-0.204946	99
Es	1.712973	0.176797	-1.313560	99
Es	-2.168355	-0.211056	1.003049	99
Es	0.416977	-1.209221	-1.461795	99
Es	0.942524	-1.206522	-0.918697	99
Es	-0.134147	-1.461457	0.635508	99
Es	0.790391	1.786461	0.185257	99
Es	1.556137	-0.611295	-1.122403	99
Es	1.257115	-1.885670	-0.885078	99
Es	0.614463	-1.041086	-0.232958	99
Es	-1.129212	0.249407	0.392191	99
Es	0.302491	-0.890670	0.438481	99
Es	-0.163029	-0.182444	0.421178	99
Es	0.017846	1.590300	0.444533	99
Es	-0.327443	0.769725	0.609507	99
Es	1.252132	1.939557	0.497659	99
Es	-0.409295	0.545849	0.113536	99
Es	1.964281	-0.271156	-1.249697	99
Es	1.370127	2.275151	0.507696	99
Es	1.603612	1.438192	0.515504	99
45
Properties=species:S:1:pos:R:3:Z:I:1 energy=-341.14459501083337 field_type=dipole dipole="0.000000 0.000000 0.000000" charge=0
C	-1.954316	0.127392	0.371719	6
N	-0.510986	0.330062	0.377269	7
C	0.302604	-0.890818	0.438509	6
C	0.942384	-1.206688	-0.918691	6
O	1.964584	-0.271218	-1.249691	8
C	0.017984	1.590452	0.444549	6
N	1.252344	1.940022	0.497679	7
H	-2.504126	1.070812	0.288679	1
H	-2.270886	-0.363008	1.298249	1
H	-2.246316	-0.501798	-0.475351	1
H	-0.322456	-1.741138	0.736729	1
H	1.074114	-0.780538	1.209069	1
H	0.200244	-1.210338	-1.723511	1
H	1.409424	-2.195768	-0.881121	1
H	1.526304	0.595832	-1.365911	1
H	-0.745276	2.388072	0.426169	1
H	1.864374	1.118672	0.525649	1
Es	-0.510946	0.330223	0.377783	99
Es	-2.168347	-0.211013	1.003073	99
Es	-0.408260	0.547469	0.112522	99
Es	1.257064	-1.885664	-0.885228	99
Es	-0.328316	0.767938	0.610535	99
Es	0.757072	1.784606	0.754613	99
Es	1.603562	1.438287	0.515465	99
Es	2.072580	-0.358580	-1.520867	99
Es	-2.149557	-0.305574	-0.204951	99
Es	0.017846	1.590299	0.444534	99
Es	-0.134155	-1.461379	0.635552	99
Es	0.417034	-1.209171	-1.461740	99
Es	-1.129298	0.249346	0.391791	99
Es	-0.163068	-0.182285	0.421401	99
Es	1.964288	-0.271151	-1.249666	99
Es	0.942524	-1.206523	-0.918697	99
Es	0.828394	-0.811371	0.954153	99
Es	-1.954145	0.127424	0.371717	99
Es	0.302490	-0.890668	0.438480	99
Es	1.252113	1.939553	0.497658	99
Es	-0.514844	2.118137	0.430228	99
Es	1.370242	2.275176	0.506897	99
Es	0.789393	1.785867	0.185660	99
Es	1.713493	0.177437	-1.310496	99
Es	1.556152	-0.610485	-1.121090	99
Es	0.614511	-1.041239	-0.232915	99
Es	-2.314373	0.772782	0.315170	99
Es	2.140040	-0.246358	-0.998011	99
45
Properties=species:S:1:pos:R:3:Z:I:1 energy=-341.14459501083337 field_type=dipole dipole="0.000000 0.000000 0.000000" charge=0
C	-1.954316	0.127392	0.371719	6
N	-0.510986	0.330062	0.377269	7
C	0.302604	-0.890818	0.438509	6
C	0.942384	-1.206688	-0.918691	6
O	1.964584	-0.271218	-1.249691	8
C	0.017984	1.590452	0.444549	6
N	1.252344	1.940022	0.497679	7
H	-2.504126	1.070812	0.288679	1
H	-2.270886	-0.363008	1.298249	1
H	-2.246316	-0.501798	-0.475351	1
H	-0.322456	-1.741138	0.736729	1
H	1.074114	-0.780538	1.209069	1
H	0.200244	-1.210338	-1.723511	1
H	1.409424	-2.195768	-0.881121	1
H	1.526304	0.595832	-1.365911	1
H	-0.745276	2.388072	0.426169	1
H	1.864374	1.118672	0.525649	1
Es	-0.134102	-1.461422	0.635558	99
Es	0.790085	1.786399	0.185096	99
Es	-1.128932	0.249474	0.393625	99
Es	1.556089	-0.611365	-1.122059	99
Es	-0.514876	2.118225	0.430316	99
Es	2.137102	-0.245541	-0.997409	99
Es	-2.314345	0.772810	0.315211	99
Es	0.614419	-1.041190	-0.232929	99
Es	1.713472	0.177671	-1.311863	99
Es	-2.168383	-0.211036	1.003022	99
Es	0.417067	-1.209229	-1.461768	99
Es	1.252126	1.939576	0.497655	99
Es	-0.163189	-0.182229	0.422304	99
Es	0.017846	1.590299	0.444532	99
Es	0.302492	-0.890671	0.438481	99
Es	0.828453	-0.811311	0.954129	99
Es	0.756416	1.784127	0.753964	99
Es	-0.411222	0.541752	0.113620	99
Es	-0.325591	0.773309	0.606790	99
Es	1.603757	1.438331	0.515570	99
Es	-1.954146	0.127424	0.371715	99
Es	-2.149594	-0.305512	-0.204949	99
Es	0.942521	-1.206527	-0.918697	99
Es	1.257028	-1.885633	-0.885156	99
Es	1.369983	2.274980	0.507874	99
Es	2.075571	-0.358718	-1.519148	99
Es	-0.510927	0.330263	0.377749	99
Es	1.964369	-0.271175	-1.249662	99
45
Properties=species:S:1:pos:R:3:Z:I:1 energy=-341.14459501083337 field_type=dipole dipole="0.000000 0.000000 0.000000" charge=0
C	-1.954316	0.127392	0.371719	6
N	-0.510986	0.330062	0.377269	7
C	0.302604	-0.890818	0.438509	6
C	0.942384	-1.206688	-0.918691	6
O	1.964584	-0.271218	-1.249691	8
C	0.017984	1.590452	0.444549	6
N	1.252344	1.940022	0.497679	7
H	-2.504126	1.070812	0.288679	1
H	-2.270886	-0.363008	1.298249	1
H	-2.246316	-0.501798	-0.475351	1
H	-0.322456	-1.741138	0.736729	1
H	1.074114	-0.780538	1.209069	1
H	0.200244	-1.210338	-1.723511	1
H	1.409424	-2.195768	-0.881121	1
H	1.526304	0.595832	-1.365911	1
H	-0.745276	2.388072	0.426169	1
H	1.864374	1.118672	0.525649	1
Es	0.017846	1.590299	0.444539	99
Es	0.756814	1.784256	0.754426	99
Es	1.257047	-1.885611	-0.885110	99
Es	1.555989	-0.610982	-1.121262	99
Es	1.964582	-0.271209	-1.249679	99
Es	-2.149564	-0.305518	-0.204928	99
Es	-0.510948	0.330223	0.377861	99
Es	2.138229	-0.245183	-0.997547	99
Es	1.713599	0.177369	-1.312508	99
Es	0.417087	-1.209308	-1.461753	99
Es	-2.314388	0.772793	0.315187	99
Es	0.789643	1.786363	0.185368	99
Es	-1.128901	0.249374	0.392674	99
Es	-0.163098	-0.182390	0.421238	99
Es	-0.408584	0.547796	0.111766	99
Es	-0.514837	2.118249	0.430274	99
Es	2.074187	-0.359069	-1.519183	99
Es	-0.328365	0.767680	0.610538	99
Es	0.828419	-0.811374	0.954129	99
Es	0.942519	-1.206529	-0.918696	99
Es	-1.954151	0.127423	0.371716	99
Es	0.302492	-0.890672	0.438482	99
Es	1.370033	2.274849	0.507534	99
Es	-2.168376	-0.211051	1.003029	99
Es	1.603770	1.438356	0.515228	99
Es	0.614413	-1.041213	-0.232955	99
Es	1.252132	1.939543	0.497659	99
Es	-0.134102	-1.461386	0.635547	99
45
Properties=species:S:1:pos:R:3:Z:I:1 energy=-341.14459501083337 field_type=dipole dipole="0.000000 0.000000 0.000000" charge=0
C	-1.954316	0.127392	0.371719	6
N	-0.510986	0.330062	0.377269	7
C	0.302604	-0.890818	0.438509	6
C	0.942384	-1.206688	-0.918691	6
O	1.964584	-0.271218	-1.249691	8
C	0.017984	1.590452	0.444549	6
N	1.252344	1.940022	0.497679	7
H	-2.504126	1.070812	0.288679	1
H	-2.270886	-0.363008	1.298249	1
H	-2.246316	-0.501798	-0.475351	1
H	-0.322456	-1.741138	0.736729	1
H	1.074114	-0.780538	1.209069	1
H	0.200244	-1.210338	-1.723511	1
H	1.409424	-2.195768	-0.881121	1
H	1.526304	0.595832	-1.365911	1
H	-0.745276	2.388072	0.426169	1
H	1.864374	1.118672	0.525649	1
Es	0.942520	-1.206527	-0.918695	99
Es	-0.327332	0.769654	0.608974	99
Es	1.604214	1.438516	0.515582	99
Es	1.556088	-0.610910	-1.120392	99
Es	-1.954153	0.127423	0.371715	99
Es	-2.149584	-0.305521	-0.204933	99
Es	0.828366	-0.811305	0.954123	99
Es	1.257032	-1.885619	-0.885131	99
Es	2.140322	-0.246177	-0.999008	99
Es	-2.314355	0.772793	0.315186	99
Es	2.072110	-0.358684	-1.519891	99
Es	1.252117	1.939554	0.497660	99
Es	-0.134051	-1.461396	0.635600	99
Es	-0.163017	-0.182397	0.421598	99
Es	0.756899	1.784344	0.754189	99
Es	0.302494	-0.890674	0.438479	99
Es	-0.510979	0.330121	0.377545	99
Es	-0.409485	0.545760	0.112908	99
Es	0.614444	-1.041243	-0.232974	99
Es	1.713807	0.177857	-1.311204	99
Es	0.417099	-1.209291	-1.461748	99
Es	1.369571	2.274810	0.507432	99
Es	0.789589	1.786113	0.185312	99
Es	-2.168392	-0.211026	1.003035	99
Es	0.017845	1.590299	0.444532	99
Es	-0.514886	2.118293	0.430255	99
Es	1.964271	-0.271150	-1.249665	99
Es	-1.129068	0.249461	0.393092	99
45
Properties=species:S:1:pos:R:3:Z:I:1 energy=-341.14459501083337 field_type=dipole dipole="0.000000 0.000000 0.000000" charge=0
C	-1.954316	0.127392	0.371719	6
N	-0.510986	0.330062	0.377269	7
C	0.302604	-0.890818	0.438509	6
C	0.942384	-1.206688	-0.918691	6
O	1.964584	-0.271218	-1.249691	8
C	0.017984	1.590452	0.444549	6
N	1.252344	1.940022	0.497679	7
H	-2.504126	1.070812	0.288679	1
H	-2.270886	-0.363008	1.298249	1
H	-2.246316	-0.501798	-0.475351	1
H	-0.322456	-1.741138	0.736729	1
H	1.074114	-0.780538	1.209069	1
H	0.200244	-1.210338	-1.723511	1
H	1.409424	-2.195768	-0.881121	1
H	1.526304	0.595832	-1.365911	1
H	-0.745276	2.388072	0.426169	1
H	1.864374	1.118672	0.525649	1
Es	1.713586	0.177291	-1.312822	99
Es	1.369710	2.274648	0.507926	99
Es	0.417104	-1.209309	-1.461729	99
Es	0.756418	1.784110	0.754029	99
Es	-1.128912	0.249464	0.392934	99
Es	-0.510939	0.330239	0.377755	99
Es	0.942520	-1.206528	-0.918697	99
Es	2.076483	-0.358449	-1.518160	99
Es	-2.314395	0.772776	0.315202	99
Es	-0.163136	-0.182337	0.421704	99
Es	0.790082	1.786524	0.185063	99
Es	1.257060	-1.885613	-0.885157	99
Es	0.614468	-1.041259	-0.232925	99
Es	1.252118	1.939556	0.497660	99
Es	-0.514895	2.118347	0.430264	99
Es	1.604081	1.438423	0.515498	99
Es	0.828330	-0.811394	0.954155	99
Es	1.964263	-0.271139	-1.249597	99
Es	-2.149573	-0.305500	-0.204918	99
Es	-1.954152	0.127423	0.371715	99
Es	-0.327418	0.769659	0.609212	99
Es	0.017846	1.590300	0.444532	99
Es	-0.409428	0.545680	0.112525	99
Es	-0.134063	-1.461342	0.635545	99
Es	-2.168386	-0.211058	1.003003	99
Es	0.302492	-0.890672	0.438481	99
Es	2.136528	-0.244947	-0.996785	99
Es	1.555696	-0.611813	-1.122842	99
45
Properties=species:S:1:pos:R:3:Z:I:1 energy=-341.14459501083337 field_type=dipole dipole="0.000000 0.000000 0.000000" charge=0
C	-1.954316	0.127392	0.371719	6
N	-0.510986	0.330062	0.377269	7
C	0.302604	-0.890818	0.438509	6
C	0.942384	-1.206688	-0.918691	6
O	1.964584	-0.271218	-1.249691	8
C	0.017984	1.590452	0.444549	6
N	1.252344	1.940022	0.497679	7
H	-2.504126	1.070812	0.288679	1
H	-2.270886	-0.363008	1.298249	1
H	-2.246316	-0.501798	-0.475351	1
H	-0.322456	-1.741138	0.736729	1
H	1.074114	-0.780538	1.209069	1
H	0.200244	-1.210338	-1.723511	1
H	1.409424	-2.195768	-0.881121	1
H	1.526304	0.595832	-1.365911	1
H	-0.745276	2.388072	0.426169	1
H	1.864374	1.118672	0.525649	1
Es	-0.134080	-1.461358	0.635472	99
Es	2.137550	-0.245088	-0.997588	99
Es	0.302488	-0.890664	0.438481	99
Es	0.757044	1.784530	0.754716	99
Es	0.789315	1.786142	0.185782	99
Es	0.828353	-0.811500	0.954138	99
Es	-0.510976	0.330134	0.377582	99
Es	-2.168397	-0.211007	1.003008	99
Es	1.256970	-1.885607	-0.885192	99
Es	0.614409	-1.041227	-0.232903	99
Es	1.555779	-0.611503	-1.121849	99
Es	-0.514946	2.118385	0.430205	99
Es	0.017843	1.590296	0.444531	99
Es	0.417135	-1.209305	-1.461672	99
Es	1.369880	2.274629	0.506978	99
Es	-2.314411	0.772767	0.315160	99
Es	1.252118	1.939567	0.497659	99
Es	1.604013	1.438389	0.515049	99
Es	-1.954148	0.127423	0.371714	99
Es	1.713783	0.177595	-1.313076	99
Es	-0.323907	0.776832	0.603434	99
Es	2.075321	-0.358894	-1.518088	99
Es	0.942519	-1.206529	-0.918695	99
Es	-2.149560	-0.305548	-0.204892	99
Es	-0.163077	-0.181941	0.423996	99
Es	1.964203	-0.271149	-1.249634	99
Es	-1.128984	0.249811	0.394530	99
Es	-0.412748	0.537900	0.114727	99
45
Properties=species:S:1:pos:R:3:Z:I:1 energy=-341.14459501083337 field_type=dipole dipole="0.000000 0.000000 0.000000" charge=0
C	-1.954316	0.127392	0.371719	6
N	-0.510986	0.330062	0.377269	7
C	0.302604	-0.890818	0.438509	6
C	0.942384	-1.206688	-0.918691	6
O	1.964584	-0.271218	-1.249691	8
C	0.017984	1.590452	0.444549	6
N	1.252344	1.940022	0.497679	7
H	-2.504126	1.070812	0.288679	1
H	-2.270886	-0.363008	1.298249	1
H	-2.246316	-0.501798	-0.475351	1
H	-0.322456	-1.741138	0.736729	1
H	1.074114	-0.780538	1.209069	1
H	0.200244	-1.210338	-1.723511	1
H	1.409424	-2.195768	-0.881121	1
H	1.526304	0.595832	-1.365911	1
H	-0.745276	2.388072	0.426169	1
H	1.864374	1.118672	0.525649	1
Es	-0.162942	-0.182230	0.422351	99
Es	-0.410848	0.542917	0.113361	99
Es	2.135723	-0.244152	-0.996943	99
Es	0.614362	-1.041325	-0.232884	99
Es	2.077216	-0.359507	-1.517507	99
Es	0.017845	1.590301	0.444538	99
Es	-1.954154	0.127424	0.371716	99
Es	-1.128966	0.249639	0.394040	99
Es	-0.134022	-1.461381	0.635592	99
Es	-2.149554	-0.305552	-0.204906	99
Es	-0.514935	2.118443	0.430230	99
Es	1.555684	-0.611509	-1.121880	99
Es	-0.510945	0.330219	0.377728	99
Es	0.790129	1.786762	0.185030	99
Es	0.942523	-1.206524	-0.918696	99
Es	1.256958	-1.885621	-0.885272	99
Es	0.828354	-0.811397	0.954065	99
Es	-2.314405	0.772756	0.315159	99
Es	-0.326073	0.772178	0.606797	99
Es	-2.168410	-0.211001	1.002997	99
Es	1.964233	-0.271168	-1.249641	99
Es	1.713778	0.177338	-1.314246	99
Es	1.369666	2.274692	0.508470	99
Es	0.756401	1.783808	0.753610	99
Es	0.302493	-0.890676	0.438479	99
Es	1.252103	1.939569	0.497660	99
Es	0.417177	-1.209281	-1.461632	99
Es	1.604097	1.438354	0.515355	99
45
Properties=species:S:1:pos:R:3:Z:I:1 energy=-341.14459501083337 field_type=dipole dipole="0.000000 0.000000 0.000000" charge=0
C	-1.954316	0.127392	0.371719	6
N	-0.510986	0.330062	0.377269	7
C	0.302604	-0.890818	0.438509	6
C	0.942384	-1.206688	-0.918691	6
O	1.964584	-0.271218	-1.249691	8
C	0.017984	1.590452	0.444549	6
N	1.252344	1.940022	0.497679	7
H	-2.504126	1.070812	0.288679	1
H	-2.270886	-0.363008	1.298249	1
H	-2.246316	-0.501798	-0.475351	1
H	-0.322456	-1.741138	0.736729	1
H	1.074114	-0.780538	1.209069	1
H	0.200244	-1.210338	-1.723511	1
H	1.409424	-2.195768	-0.881121	1
H	1.526304	0.595832	-1.365911	1
H	-0.745276	2.388072	0.426169	1
H	1.864374	1.118672	0.525649	1
Es	0.828315	-0.811514	0.954084	99
Es	0.790214	1.786506	0.185269	99
Es	-2.168452	-0.211091	1.003003	99
Es	-0.134045	-1.461377	0.635494	99
Es	1.256941	-1.885595	-0.885241	99
Es	0.756283	1.783704	0.753893	99
Es	1.252121	1.939557	0.497661	99
Es	0.017844	1.590299	0.444529	99
Es	0.942519	-1.206530	-0.918700	99
Es	0.614400	-1.041267	-0.232869	99
Es	-1.128708	0.249560	0.395164	99
Es	1.713989	0.177823	-1.312294	99
Es	-0.325394	0.773546	0.605545	99
Es	0.417167	-1.209312	-1.461624	99
Es	-0.514952	2.118476	0.430258	99
Es	2.138726	-0.245565	-0.998569	99
Es	-0.163062	-0.181817	0.423547	99
Es	-0.411587	0.541250	0.112420	99
Es	1.555798	-0.611550	-1.121251	99
Es	2.073904	-0.358569	-1.518552	99
Es	1.368831	2.274529	0.508015	99
Es	-2.149542	-0.305438	-0.204865	99
Es	0.302493	-0.890675	0.438481	99
Es	1.604943	1.438851	0.515260	99
Es	1.964231	-0.271133	-1.249589	99
Es	-2.314401	0.772784	0.315143	99
Es	-0.510941	0.330206	0.377647	99
Es	-1.954150	0.127424	0.371715	99
45
Properties=species:S:1:pos:R:3:Z:I:1 energy=-341.14459501083337 field_type=dipole dipole="0.000000 0.000000 0.000000" charge=0
C	-1.954316	0.127392	0.371719	6
N	-0.510986	0.330062	0.377269	7
C	0.302604	-0.890818	0.438509	6
C	0.942384	-1.206688	-0.918691	6
O	1.964584	-0.271218	-1.249691	8
C	0.017984	1.590452	0.444549	6
N	1.252344	1.940022	0.497679	7
H	-2.504126	1.070812	0.288679	1
H	-2.270886	-0.363008	1.298249	1
H	-2.246316	-0.501798	-0.475351	1
H	-0.322456	-1.741138	0.736729	1
H	1.074114	-0.780538	1.209069	1
H	0.200244	-1.210338	-1.723511	1
H	1.409424	-2.195768	-0.881121	1
H	1.526304	0.595832	-1.365911	1
H	-0.745276	2.388072	0.426169	1
H	1.864374	1.118672	0.525649	1
Es	-0.510925	0.330233	0.377631	99
Es	-2.314413	0.772761	0.315154	99
Es	-2.168410	-0.210986	1.002986	99
Es	2.138724	-0.245152	-0.998735	99
Es	0.302493	-0.890674	0.438483	99
Es	-0.409766	0.545495	0.112447	99
Es	0.614523	-1.041256	-0.232882	99
Es	0.755835	1.783959	0.753445	99
Es	0.017849	1.590300	0.444521	99
Es	-0.134087	-1.461399	0.635482	99
Es	0.417123	-1.209286	-1.461617	99
Es	-1.128901	0.249570	0.393862	99
Es	1.369161	2.273993	0.508640	99
Es	0.790702	1.786956	0.184237	99
Es	1.604600	1.438635	0.516003	99
Es	-2.149577	-0.305544	-0.204874	99
Es	-0.514958	2.118498	0.430279	99
Es	0.828236	-0.811486	0.954120	99
Es	-0.162870	-0.182263	0.421957	99
Es	-1.954154	0.127422	0.371716	99
Es	-0.327214	0.769737	0.608490	99
Es	0.942520	-1.206528	-0.918696	99
Es	1.713702	0.177585	-1.312343	99
Es	2.073960	-0.358264	-1.518449	99
Es	1.256944	-1.885625	-0.885224	99
Es	1.964259	-0.271135	-1.249654	99
Es	1.252125	1.939559	0.497661	99
Es	1.556005	-0.612024	-1.121066	99
45
Properties=species:S:1:pos:R:3:Z:I:1 energy=-341.14459501083337 field_type=dipole dipole="0.000000 0.000000 0.000000" charge=0
C	-1.954316	0.127392	0.371719	6
N	-0.510986	0.330062	0.377269	7
C	0.302604	-0.890818	0.438509	6
C	0.942384	-1.206688	-0.918691	6
O	1.964584	-0.271218	-1.249691	8
C	0.017984	1.590452	0.444549	6
N	1.252344	1.940022	0.497679	7
H	-2.504126	1.070812	0.288679	1
H	-2.270886	-0.363008	1.298249	1
H	-2.246316	-0.501798	-0.475351	1
H	-0.322456	-1.741138	0.736729	1
H	1.074114	-0.780538	1.209069	1
H	0.200244	-1.210338	-1.723511	1
H	1.409424	-2.195768	-0.881121	1
H	1.526304	0.595832	-1.365911	1
H	-0.745276	2.388072	0.426169	1
H	1.864374	1.118672	0.525649	1
Es	2.136699	-0.244998	-0.998439	99
Es	-1.128812	0.249676	0.394691	99
Es	1.555730	-0.611799	-1.121287	99
Es	-0.134044	-1.461392	0.635570	99
Es	-0.325737	0.772667	0.606060	99
Es	0.942519	-1.206530	-0.918701	99
Es	1.256921	-1.885597	-0.885217	99
Es	0.828258	-0.811490	0.954022	99
Es	-2.149614	-0.305588	-0.204844	99
Es	2.075863	-0.359044	-1.517698	99
Es	0.017846	1.590301	0.444532	99
Es	0.789958	1.786623	0.184985	99
Es	-0.411202	0.542331	0.113063	99
Es	1.604691	1.438755	0.515373	99
Es	0.756465	1.784148	0.754256	99
Es	1.252126	1.939579	0.497669	99
Es	-0.514984	2.118560	0.430203	99
Es	-0.162879	-0.182078	0.422931	99
Es	0.302492	-0.890672	0.438480	99
Es	-1.954157	0.127425	0.371715	99
Es	0.417177	-1.209324	-1.461613	99
Es	1.369161	2.273966	0.507841	99
Es	-0.510967	0.330154	0.377602	99
Es	1.964236	-0.271170	-1.249698	99
Es	-2.168385	-0.210938	1.002966	99
Es	0.614412	-1.041292	-0.232914	99
Es	1.714141	0.178040	-1.313143	99
Es	-2.314424	0.772765	0.315166	99
