42
Properties=species:S:1:pos:R:3:Z:I:1 energy=-339.96630017871985 field_type=dipole dipole="0.000000 0.000000 0.000000" charge=0
C	-0.833258	-0.941892	2.271301	6
N	-1.363828	0.012818	1.300441	7
N	-0.820938	-0.236662	0.019981	7
C	0.226452	0.542228	-0.442209	6
O	0.771492	1.423218	0.215341	8
C	0.626202	0.201198	-1.831979	6
C	1.635472	0.852318	-2.427289	6
H	-1.269218	-0.742812	3.254681	1
H	0.255312	-0.860862	2.358871	1
H	-1.091888	-1.968492	1.992331	1
H	-1.046958	0.952148	1.580341	1
H	-1.296658	-0.901102	-0.582799	1
H	0.090162	-0.580982	-2.351669	1
H	2.183062	1.639498	-1.916209	1
H	1.934592	0.609378	-3.441139	1
Es	1.302005	0.293155	-1.984257	99
Es	-1.131718	-0.799153	2.937798	99
Es	-1.363115	0.012820	1.300393	99
Es	0.641717	1.450249	0.501474	99
Es	1.635533	0.852344	-2.427347	99
Es	-0.087010	-0.890729	2.329763	99
Es	0.226314	0.542108	-0.442199	99
Es	0.251879	-0.333577	-2.172730	99
Es	0.751373	0.966939	0.088766	99
Es	-0.383080	-0.265233	-0.008393	99
Es	-1.101537	-0.399358	1.709364	99
Es	-1.162985	0.558733	1.459050	99
Es	1.839646	0.690217	-3.111564	99
Es	-1.066754	-0.121020	0.641055	99
Es	-0.833319	-0.941807	2.271215	99
Es	-0.820997	-0.236481	0.019984	99
Es	-1.010747	-1.641331	2.073559	99
Es	0.413640	0.359165	-1.143668	99
Es	0.997572	1.558234	0.054673	99
Es	-1.105946	-0.626056	-0.335695	99
Es	0.429729	1.298906	-0.086938	99
Es	-1.722924	-0.013750	1.281014	99
Es	0.771335	1.422975	0.215169	99
Es	0.626116	0.201159	-1.831897	99
Es	2.004096	1.373675	-2.099123	99
Es	0.889956	0.726401	-2.210978	99
Es	-0.659255	0.166424	-0.215192	99
42
Properties=species:S:1:pos:R:3:Z:I:1 energy=-339.96630017871985 field_type=dipole dipole="0.000000 0.000000 0.000000" charge=0
C	-0.833258	-0.941892	2.271301	6
N	-1.363828	0.012818	1.300441	7
N	-0.820938	-0.236662	0.019981	7
C	0.226452	0.542228	-0.442209	6
O	0.771492	1.423218	0.215341	8
C	0.626202	0.201198	-1.831979	6
C	1.635472	0.852318	-2.427289	6
H	-1.269218	-0.742812	3.254681	1
H	0.255312	-0.860862	2.358871	1
H	-1.091888	-1.968492	1.992331	1
H	-1.046958	0.952148	1.580341	1
H	-1.296658	-0.901102	-0.582799	1
H	0.090162	-0.580982	-2.351669	1
H	2.183062	1.639498	-1.916209	1
H	1.934592	0.609378	-3.441139	1
Es	-1.010748	-1.641324	2.073628	99
Es	0.626110	0.201156	-1.831893	99
Es	-0.833316	-0.941810	2.271219	99
Es	-1.163674	0.559061	1.459053	99
Es	0.251841	-0.333528	-2.172812	99
Es	1.301983	0.293231	-1.984109	99
Es	0.637474	1.447979	0.499752	99
Es	-1.131715	-0.799157	2.937747	99
Es	1.839713	0.690107	-3.111605	99
Es	-0.655458	0.168320	-0.215707	99
Es	2.003930	1.373828	-2.099170	99
Es	0.999081	1.560078	0.059178	99
Es	0.431776	1.299391	-0.089562	99
Es	-1.101522	-0.399216	1.709466	99
Es	0.226321	0.542100	-0.442196	99
Es	0.413665	0.359050	-1.143715	99
Es	0.890123	0.726347	-2.210963	99
Es	-0.821001	-0.236494	0.019991	99
Es	-0.386684	-0.267347	-0.007678	99
Es	-0.086982	-0.890723	2.329788	99
Es	-1.363107	0.012823	1.300403	99
Es	1.635527	0.852348	-2.427349	99
Es	0.752021	0.966879	0.088541	99
Es	-1.106349	-0.625530	-0.335957	99
Es	-1.722919	-0.014370	1.280489	99
Es	0.771326	1.422972	0.215181	99
Es	-1.065896	-0.121160	0.641575	99
42
Properties=species:S:1:pos:R:3:Z:I:1 energy=-339.96630017871985 field_type=dipole dipole="0.000000 0.000000 0.000000" charge=0
C	-0.833258	-0.941892	2.271301	6
N	-1.363828	0.012818	1.300441	7
N	-0.820938	-0.236662	0.019981	7
C	0.226452	0.542228	-0.442209	6
O	0.771492	1.423218	0.215341	8
C	0.626202	0.201198	-1.831979	6
C	1.635472	0.852318	-2.427289	6
H	-1.269218	-0.742812	3.254681	1
H	0.255312	-0.860862	2.358871	1
H	-1.091888	-1.968492	1.992331	1
H	-1.046958	0.952148	1.580341	1
H	-1.296658	-0.901102	-0.582799	1
H	0.090162	-0.580982	-2.351669	1
H	2.183062	1.639498	-1.916209	1
H	1.934592	0.609378	-3.441139	1
Es	-0.820879	-0.236655	0.020070	99
Es	-0.381709	-0.263057	-0.009393	99
Es	-0.662062	0.166206	-0.215171	99
Es	0.771321	1.422972	0.215166	99
Es	1.635531	0.852341	-2.427346	99
Es	-0.833319	-0.941808	2.271215	99
Es	0.890108	0.726322	-2.210997	99
Es	1.301964	0.293328	-1.984128	99
Es	-1.010648	-1.641327	2.073592	99
Es	2.003927	1.373870	-2.099160	99
Es	0.226318	0.542107	-0.442197	99
Es	0.428185	1.299363	-0.085795	99
Es	1.839734	0.690016	-3.111608	99
Es	-1.105132	-0.626941	-0.335106	99
Es	-1.363111	0.012821	1.300399	99
Es	-1.101768	-0.399394	1.709603	99
Es	-1.163636	0.558896	1.459052	99
Es	0.996469	1.558533	0.054068	99
Es	0.626116	0.201158	-1.831896	99
Es	-0.087056	-0.890714	2.329847	99
Es	0.413776	0.359083	-1.143765	99
Es	0.751928	0.966522	0.088289	99
Es	-1.131737	-0.799227	2.937768	99
Es	0.251806	-0.333571	-2.172743	99
Es	-1.722709	-0.014001	1.280400	99
Es	0.643745	1.449866	0.501420	99
Es	-1.065638	-0.121697	0.641710	99
42
Properties=species:S:1:pos:R:3:Z:I:1 energy=-339.96630017871985 field_type=dipole dipole="0.000000 0.000000 0.000000" charge=0
C	-0.833258	-0.941892	2.271301	6
N	-1.363828	0.012818	1.300441	7
N	-0.820938	-0.236662	0.019981	7
C	0.226452	0.542228	-0.442209	6
O	0.771492	1.423218	0.215341	8
C	0.626202	0.201198	-1.831979	6
C	1.635472	0.852318	-2.427289	6
H	-1.269218	-0.742812	3.254681	1
H	0.255312	-0.860862	2.358871	1
H	-1.091888	-1.968492	1.992331	1
H	-1.046958	0.952148	1.580341	1
H	-1.296658	-0.901102	-0.582799	1
H	0.090162	-0.580982	-2.351669	1
H	2.183062	1.639498	-1.916209	1
H	1.934592	0.609378	-3.441139	1
Es	0.226318	0.542107	-0.442198	99
Es	-1.722496	-0.014032	1.280344	99
Es	-1.106701	-0.624816	-0.336430	99
Es	0.413689	0.359116	-1.143919	99
Es	1.302081	0.293292	-1.984168	99
Es	-1.163806	0.558974	1.459076	99
Es	0.751713	0.966215	0.089110	99
Es	-0.391427	-0.270364	-0.006275	99
Es	0.643724	1.452643	0.502383	99
Es	-1.363110	0.012821	1.300404	99
Es	-1.010546	-1.641333	2.073496	99
Es	-0.821062	-0.236400	0.019934	99
Es	1.839688	0.690081	-3.111624	99
Es	0.429194	1.298848	-0.086280	99
Es	0.771357	1.422975	0.215128	99
Es	0.626115	0.201158	-1.831895	99
Es	-1.066373	-0.120683	0.641317	99
Es	1.635529	0.852341	-2.427345	99
Es	2.003964	1.373844	-2.099117	99
Es	0.251782	-0.333551	-2.172770	99
Es	0.890105	0.726295	-2.210900	99
Es	0.995642	1.556512	0.052836	99
Es	-0.087131	-0.890684	2.329970	99
Es	-1.101760	-0.399404	1.709639	99
Es	-1.131834	-0.799304	2.937764	99
Es	-0.649816	0.170170	-0.216402	99
Es	-0.833319	-0.941808	2.271215	99
42
Properties=species:S:1:pos:R:3:Z:I:1 energy=-339.96630017871985 field_type=dipole dipole="0.000000 0.000000 0.000000" charge=0
C	-0.833258	-0.941892	2.271301	6
N	-1.363828	0.012818	1.300441	7
N	-0.820938	-0.236662	0.019981	7
C	0.226452	0.542228	-0.442209	6
O	0.771492	1.423218	0.215341	8
C	0.626202	0.201198	-1.831979	6
C	1.635472	0.852318	-2.427289	6
H	-1.269218	-0.742812	3.254681	1
H	0.255312	-0.860862	2.358871	1
H	-1.091888	-1.968492	1.992331	1
H	-1.046958	0.952148	1.580341	1
H	-1.296658	-0.901102	-0.582799	1
H	0.090162	-0.580982	-2.351669	1
H	2.183062	1.639498	-1.916209	1
H	1.934592	0.609378	-3.441139	1
Es	0.890232	0.726254	-2.210933	99
Es	-0.386707	-0.267112	-0.007883	99
Es	-1.106190	-0.625402	-0.335948	99
Es	0.641169	1.449478	0.500809	99
Es	0.771325	1.422947	0.215144	99
Es	0.626120	0.201155	-1.831895	99
Es	2.003998	1.373883	-2.099076	99
Es	-0.087071	-0.890856	2.329756	99
Es	1.301899	0.293388	-1.984254	99
Es	-1.163873	0.559025	1.459046	99
Es	-1.722420	-0.014050	1.280269	99
Es	-1.363106	0.012824	1.300408	99
Es	0.752546	0.967115	0.088971	99
Es	-0.821035	-0.236466	0.019974	99
Es	-1.010753	-1.641302	2.073749	99
Es	-0.833318	-0.941808	2.271216	99
Es	-1.101888	-0.399459	1.709637	99
Es	-0.655549	0.168187	-0.215711	99
Es	0.226317	0.542107	-0.442198	99
Es	-1.131622	-0.799108	2.937794	99
Es	0.413754	0.359086	-1.143822	99
Es	1.635529	0.852342	-2.427345	99
Es	0.251828	-0.333573	-2.172760	99
Es	1.839635	0.690043	-3.111656	99
Es	0.429396	1.298230	-0.087403	99
Es	0.997168	1.559404	0.055668	99
Es	-1.065861	-0.121322	0.641738	99
42
Properties=species:S:1:pos:R:3:Z:I:1 energy=-339.96630017871985 field_type=dipole dipole="0.000000 0.000000 0.000000" charge=0
C	-0.833258	-0.941892	2.271301	6
N	-1.363828	0.012818	1.300441	7
N	-0.820938	-0.236662	0.019981	7
C	0.226452	0.542228	-0.442209	6
O	0.771492	1.423218	0.215341	8
C	0.626202	0.201198	-1.831979	6
C	1.635472	0.852318	-2.427289	6
H	-1.269218	-0.742812	3.254681	1
H	0.255312	-0.860862	2.358871	1
H	-1.091888	-1.968492	1.992331	1
H	-1.046958	0.952148	1.580341	1
H	-1.296658	-0.901102	-0.582799	1
H	0.090162	-0.580982	-2.351669	1
H	2.183062	1.639498	-1.916209	1
H	1.934592	0.609378	-3.441139	1
Es	0.890266	0.726306	-2.210973	99
Es	-1.106316	-0.625034	-0.336004	99
Es	0.413650	0.359117	-1.143951	99
Es	-1.101709	-0.399312	1.709714	99
Es	0.626117	0.201162	-1.831896	99
Es	0.754459	0.967087	0.091084	99
Es	1.635529	0.852342	-2.427345	99
Es	-0.387357	-0.267967	-0.007480	99
Es	-0.654515	0.168421	-0.215916	99
Es	0.251862	-0.333565	-2.172760	99
Es	-0.820947	-0.236576	0.020041	99
Es	1.301903	0.293417	-1.984134	99
Es	-1.363151	0.012819	1.300388	99
Es	2.004036	1.373900	-2.099099	99
Es	-1.010604	-1.641320	2.073625	99
Es	0.640748	1.450944	0.499740	99
Es	0.428910	1.296555	-0.088443	99
Es	0.226318	0.542107	-0.442197	99
Es	1.839625	0.689948	-3.111649	99
Es	-0.087136	-0.890763	2.329868	99
Es	0.996140	1.559524	0.055656	99
Es	-1.066152	-0.120830	0.641480	99
Es	-1.164481	0.559285	1.459078	99
Es	-1.131705	-0.799249	2.937789	99
Es	-1.722005	-0.014487	1.280273	99
Es	0.771355	1.422990	0.215192	99
Es	-0.833318	-0.941809	2.271216	99
42
Properties=species:S:1:pos:R:3:Z:I:1 energy=-339.96630017871985 field_type=dipole dipole="0.000000 0.000000 0.000000" charge=0
C	-0.833258	-0.941892	2.271301	6
N	-1.363828	0.012818	1.300441	7
N	-0.820938	-0.236662	0.019981	7
C	0.226452	0.542228	-0.442209	6
O	0.771492	1.423218	0.215341	8
C	0.626202	0.201198	-1.831979	6
C	1.635472	0.852318	-2.427289	6
H	-1.269218	-0.742812	3.254681	1
H	0.255312	-0.860862	2.358871	1
H	-1.091888	-1.968492	1.992331	1
H	-1.046958	0.952148	1.580341	1
H	-1.296658	-0.901102	-0.582799	1
H	0.090162	-0.580982	-2.351669	1
H	2.183062	1.639498	-1.916209	1
H	1.934592	0.609378	-3.441139	1
Es	-0.087139	-0.890741	2.329876	99
Es	1.635529	0.852341	-2.427345	99
Es	-0.820987	-0.236492	0.019988	99
Es	-1.105540	-0.626038	-0.335482	99
Es	0.751778	0.966508	0.089008	99
Es	-1.164052	0.559259	1.458949	99
Es	0.226317	0.542107	-0.442198	99
Es	0.997199	1.558088	0.055584	99
Es	-0.657487	0.167830	-0.215793	99
Es	-1.101961	-0.399565	1.709861	99
Es	0.642103	1.450211	0.500835	99
Es	-1.363136	0.012819	1.300406	99
Es	-1.010556	-1.641291	2.073547	99
Es	1.839583	0.689994	-3.111709	99
Es	0.771320	1.422975	0.215197	99
Es	0.251790	-0.333484	-2.172726	99
Es	0.413832	0.358985	-1.143906	99
Es	-0.833318	-0.941809	2.271217	99
Es	0.890280	0.726315	-2.210903	99
Es	0.429117	1.299354	-0.087423	99
Es	1.301927	0.293369	-1.984284	99
Es	0.626118	0.201159	-1.831897	99
Es	-0.385579	-0.265764	-0.008405	99
Es	-1.721902	-0.014009	1.280238	99
Es	-1.066011	-0.121682	0.641869	99
Es	-1.131746	-0.799321	2.937820	99
Es	2.004041	1.373893	-2.099031	99
