46
Properties=species:S:1:pos:R:3:Z:I:1 energy=-325.1114453157055 field_type=dipole dipole="0.000000 0.000000 0.000000" charge=0
C	-1.207580	-2.674438	-0.986077	6
O	-1.355980	-1.371318	-0.441217	8
C	-0.096050	-0.715958	-0.197527	6
C	0.239930	0.421772	-1.122007	6
C	-0.215340	0.706832	0.286173	6
C	0.733320	1.216392	1.318263	6
N	0.650480	2.667652	1.336283	7
H	-2.202020	-3.080348	-1.189367	1
H	-0.701940	-3.326548	-0.267597	1
H	-0.642880	-2.635538	-1.922257	1
H	0.723570	-1.306288	0.201873	1
H	-0.450790	0.644272	-1.927237	1
H	1.281720	0.575232	-1.375327	1
H	-1.221820	1.084492	0.435033	1
H	1.763450	0.906472	1.109653	1
H	0.455640	0.820832	2.300743	1
H	0.929890	3.032222	0.427583	1
H	1.316400	3.034262	2.013003	1
Es	-1.207597	-2.674238	-0.985992	99
Es	0.130148	-0.269632	-0.808849	99
Es	0.714088	2.039778	1.323438	99
Es	0.651041	2.667466	1.336158	99
Es	0.733305	1.216527	1.318242	99
Es	1.447057	0.988693	1.167460	99
Es	0.544571	0.946490	1.991660	99
Es	-1.484000	-1.413084	-0.164985	99
Es	1.071235	2.879029	1.738115	99
Es	-0.215256	0.706708	0.286036	99
Es	-1.355823	-1.371381	-0.441259	99
Es	-0.890463	0.956077	0.375867	99
Es	-1.884003	-2.951083	-1.124579	99
Es	0.840067	2.874198	0.786787	99
Es	0.323886	2.773891	1.413724	99
Es	0.239893	0.421726	-1.121845	99
Es	0.038709	0.756129	-0.454818	99
Es	-0.854169	-1.154804	-0.360315	99
Es	0.458909	-1.127779	0.070887	99
Es	-0.096251	-0.715901	-0.197621	99
Es	-0.226202	0.566829	-1.662940	99
Es	-0.813907	-2.652666	-1.628916	99
Es	-0.852219	-3.125955	-0.495423	99
Es	0.952066	0.530076	-1.285639	99
Es	-1.261402	-1.862432	-0.651737	99
Es	0.272669	0.948698	0.787563	99
Es	-0.203231	-0.069744	0.212270	99
Es	-1.487493	-1.200825	-0.656977	99
46
Properties=species:S:1:pos:R:3:Z:I:1 energy=-325.1114453157055 field_type=dipole dipole="0.000000 0.000000 0.000000" charge=0
C	-1.207580	-2.674438	-0.986077	6
O	-1.355980	-1.371318	-0.441217	8
C	-0.096050	-0.715958	-0.197527	6
C	0.239930	0.421772	-1.122007	6
C	-0.215340	0.706832	0.286173	6
C	0.733320	1.216392	1.318263	6
N	0.650480	2.667652	1.336283	7
H	-2.202020	-3.080348	-1.189367	1
H	-0.701940	-3.326548	-0.267597	1
H	-0.642880	-2.635538	-1.922257	1
H	0.723570	-1.306288	0.201873	1
H	-0.450790	0.644272	-1.927237	1
H	1.281720	0.575232	-1.375327	1
H	-1.221820	1.084492	0.435033	1
H	1.763450	0.906472	1.109653	1
H	0.455640	0.820832	2.300743	1
H	0.929890	3.032222	0.427583	1
H	1.316400	3.034262	2.013003	1
Es	-0.813796	-2.652712	-1.629019	99
Es	-0.096255	-0.715901	-0.197612	99
Es	1.071413	2.878959	1.737812	99
Es	0.713839	2.039844	1.323703	99
Es	-0.215252	0.706715	0.286036	99
Es	0.840125	2.873941	0.786626	99
Es	-1.262117	-1.862909	-0.651326	99
Es	0.323874	2.774187	1.413901	99
Es	-0.890381	0.956154	0.375834	99
Es	-1.488892	-1.200045	-0.656427	99
Es	1.447000	0.988726	1.167324	99
Es	0.458807	-1.127732	0.070833	99
Es	0.951992	0.530052	-1.285680	99
Es	-0.852369	-3.125921	-0.495445	99
Es	0.239897	0.421724	-1.121851	99
Es	-1.355573	-1.371477	-0.441371	99
Es	-0.226079	0.566841	-1.662861	99
Es	0.272546	0.948659	0.787615	99
Es	0.733305	1.216526	1.318243	99
Es	0.651017	2.667478	1.336157	99
Es	-1.883914	-2.951096	-1.124511	99
Es	-0.203344	-0.069682	0.212724	99
Es	0.544730	0.946470	1.991707	99
Es	-0.853795	-1.154920	-0.359948	99
Es	0.130208	-0.269742	-0.809063	99
Es	0.038783	0.756058	-0.454946	99
Es	-1.207597	-2.674235	-0.985990	99
Es	-1.482547	-1.413169	-0.166149	99
46
Properties=species:S:1:pos:R:3:Z:I:1 energy=-325.1114453157055 field_type=dipole dipole="0.000000 0.000000 0.000000" charge=0
C	-1.207580	-2.674438	-0.986077	6
O	-1.355980	-1.371318	-0.441217	8
C	-0.096050	-0.715958	-0.197527	6
C	0.239930	0.421772	-1.122007	6
C	-0.215340	0.706832	0.286173	6
C	0.733320	1.216392	1.318263	6
N	0.650480	2.667652	1.336283	7
H	-2.202020	-3.080348	-1.189367	1
H	-0.701940	-3.326548	-0.267597	1
H	-0.642880	-2.635538	-1.922257	1
H	0.723570	-1.306288	0.201873	1
H	-0.450790	0.644272	-1.927237	1
H	1.281720	0.575232	-1.375327	1
H	-1.221820	1.084492	0.435033	1
H	1.763450	0.906472	1.109653	1
H	0.455640	0.820832	2.300743	1
H	0.929890	3.032222	0.427583	1
H	1.316400	3.034262	2.013003	1
Es	-1.207598	-2.674234	-0.985990	99
Es	-1.489652	-1.200555	-0.655516	99
Es	-1.883903	-2.951078	-1.124551	99
Es	0.651046	2.667465	1.336153	99
Es	-1.481876	-1.413651	-0.165853	99
Es	-0.203360	-0.069968	0.212564	99
Es	0.544648	0.946413	1.991619	99
Es	-1.355669	-1.371483	-0.441289	99
Es	0.038708	0.756552	-0.454774	99
Es	0.130362	-0.270036	-0.809115	99
Es	0.951864	0.530138	-1.285626	99
Es	0.272478	0.948706	0.787625	99
Es	0.239896	0.421721	-1.121851	99
Es	-0.096252	-0.715900	-0.197617	99
Es	-1.261881	-1.862766	-0.651740	99
Es	0.324333	2.774509	1.414330	99
Es	-0.853814	-1.154050	-0.360788	99
Es	1.071856	2.878811	1.737394	99
Es	1.447004	0.988673	1.167372	99
Es	0.733306	1.216527	1.318243	99
Es	0.713476	2.039594	1.323742	99
Es	-0.225991	0.566819	-1.662887	99
Es	0.458707	-1.127666	0.070834	99
Es	0.839585	2.874079	0.786653	99
Es	-0.215252	0.706711	0.286040	99
Es	-0.852375	-3.125965	-0.495479	99
Es	-0.890187	0.956152	0.375800	99
Es	-0.813833	-2.652727	-1.628981	99
46
Properties=species:S:1:pos:R:3:Z:I:1 energy=-325.1114453157055 field_type=dipole dipole="0.000000 0.000000 0.000000" charge=0
C	-1.207580	-2.674438	-0.986077	6
O	-1.355980	-1.371318	-0.441217	8
C	-0.096050	-0.715958	-0.197527	6
C	0.239930	0.421772	-1.122007	6
C	-0.215340	0.706832	0.286173	6
C	0.733320	1.216392	1.318263	6
N	0.650480	2.667652	1.336283	7
H	-2.202020	-3.080348	-1.189367	1
H	-0.701940	-3.326548	-0.267597	1
H	-0.642880	-2.635538	-1.922257	1
H	0.723570	-1.306288	0.201873	1
H	-0.450790	0.644272	-1.927237	1
H	1.281720	0.575232	-1.375327	1
H	-1.221820	1.084492	0.435033	1
H	1.763450	0.906472	1.109653	1
H	0.455640	0.820832	2.300743	1
H	0.929890	3.032222	0.427583	1
H	1.316400	3.034262	2.013003	1
Es	0.458665	-1.127616	0.070771	99
Es	1.071353	2.879138	1.737827	99
Es	-0.225844	0.566775	-1.662667	99
Es	-1.484117	-1.413045	-0.165828	99
Es	0.733306	1.216526	1.318242	99
Es	-0.890131	0.956114	0.375878	99
Es	-0.203381	-0.070021	0.212798	99
Es	-0.215253	0.706704	0.286037	99
Es	-1.883897	-2.951126	-1.124538	99
Es	-1.355628	-1.371456	-0.441385	99
Es	-0.852288	-3.125955	-0.495505	99
Es	0.038697	0.756835	-0.454882	99
Es	0.324407	2.774106	1.413851	99
Es	0.951802	0.530078	-1.285814	99
Es	0.839813	2.874121	0.786702	99
Es	-1.207597	-2.674236	-0.985991	99
Es	0.130304	-0.270131	-0.809205	99
Es	-1.261587	-1.862658	-0.652398	99
Es	0.713771	2.039626	1.323656	99
Es	0.544672	0.946478	1.991640	99
Es	0.272438	0.948640	0.787592	99
Es	-1.487563	-1.201586	-0.655455	99
Es	-0.813921	-2.652751	-1.628939	99
Es	0.239896	0.421726	-1.121848	99
Es	0.650979	2.667499	1.336157	99
Es	-0.853982	-1.153740	-0.360174	99
Es	1.446962	0.988649	1.167412	99
Es	-0.096249	-0.715896	-0.197621	99
46
Properties=species:S:1:pos:R:3:Z:I:1 energy=-325.1114453157055 field_type=dipole dipole="0.000000 0.000000 0.000000" charge=0
C	-1.207580	-2.674438	-0.986077	6
O	-1.355980	-1.371318	-0.441217	8
C	-0.096050	-0.715958	-0.197527	6
C	0.239930	0.421772	-1.122007	6
C	-0.215340	0.706832	0.286173	6
C	0.733320	1.216392	1.318263	6
N	0.650480	2.667652	1.336283	7
H	-2.202020	-3.080348	-1.189367	1
H	-0.701940	-3.326548	-0.267597	1
H	-0.642880	-2.635538	-1.922257	1
H	0.723570	-1.306288	0.201873	1
H	-0.450790	0.644272	-1.927237	1
H	1.281720	0.575232	-1.375327	1
H	-1.221820	1.084492	0.435033	1
H	1.763450	0.906472	1.109653	1
H	0.455640	0.820832	2.300743	1
H	0.929890	3.032222	0.427583	1
H	1.316400	3.034262	2.013003	1
Es	-0.852277	-3.125948	-0.495562	99
Es	0.038644	0.756675	-0.454849	99
Es	0.651002	2.667493	1.336160	99
Es	-0.096246	-0.715892	-0.197622	99
Es	-0.225729	0.566872	-1.662712	99
Es	-1.207597	-2.674240	-0.985993	99
Es	1.071414	2.879026	1.737681	99
Es	-0.853647	-1.154368	-0.359962	99
Es	-0.890046	0.956083	0.375817	99
Es	0.951671	0.530110	-1.285708	99
Es	0.544494	0.946402	1.991537	99
Es	-1.355695	-1.371429	-0.441334	99
Es	0.733306	1.216524	1.318243	99
Es	-0.203443	-0.069878	0.213095	99
Es	1.446968	0.988692	1.167646	99
Es	0.130453	-0.270358	-0.809498	99
Es	-1.488755	-1.200477	-0.655314	99
Es	0.272633	0.948726	0.787423	99
Es	-0.215255	0.706694	0.286039	99
Es	-0.813932	-2.652732	-1.628944	99
Es	0.713810	2.039664	1.323638	99
Es	0.458572	-1.127573	0.070734	99
Es	-1.262272	-1.862865	-0.652081	99
Es	0.239896	0.421725	-1.121847	99
Es	-1.482543	-1.413337	-0.166490	99
Es	0.324018	2.774374	1.413855	99
Es	0.840043	2.873998	0.786891	99
Es	-1.883860	-2.951170	-1.124530	99
46
Properties=species:S:1:pos:R:3:Z:I:1 energy=-325.1114453157055 field_type=dipole dipole="0.000000 0.000000 0.000000" charge=0
C	-1.207580	-2.674438	-0.986077	6
O	-1.355980	-1.371318	-0.441217	8
C	-0.096050	-0.715958	-0.197527	6
C	0.239930	0.421772	-1.122007	6
C	-0.215340	0.706832	0.286173	6
C	0.733320	1.216392	1.318263	6
N	0.650480	2.667652	1.336283	7
H	-2.202020	-3.080348	-1.189367	1
H	-0.701940	-3.326548	-0.267597	1
H	-0.642880	-2.635538	-1.922257	1
H	0.723570	-1.306288	0.201873	1
H	-0.450790	0.644272	-1.927237	1
H	1.281720	0.575232	-1.375327	1
H	-1.221820	1.084492	0.435033	1
H	1.763450	0.906472	1.109653	1
H	0.455640	0.820832	2.300743	1
H	0.929890	3.032222	0.427583	1
H	1.316400	3.034262	2.013003	1
Es	1.446957	0.988616	1.167572	99
Es	-0.853703	-1.154106	-0.359899	99
Es	0.839336	2.874371	0.786695	99
Es	-0.096252	-0.715897	-0.197616	99
Es	-0.203366	-0.070143	0.212788	99
Es	0.651003	2.667481	1.336162	99
Es	1.071625	2.879039	1.737523	99
Es	-0.225694	0.566737	-1.662700	99
Es	-1.355669	-1.371488	-0.441308	99
Es	-1.482751	-1.412949	-0.166802	99
Es	0.733304	1.216525	1.318240	99
Es	0.272416	0.948572	0.787540	99
Es	-0.852338	-3.126002	-0.495548	99
Es	-1.262153	-1.863168	-0.651832	99
Es	-0.889972	0.956034	0.375941	99
Es	-0.813930	-2.652767	-1.628945	99
Es	0.324337	2.774015	1.414353	99
Es	-1.488585	-1.200794	-0.655351	99
Es	-0.215253	0.706703	0.286037	99
Es	0.038634	0.757441	-0.454748	99
Es	0.544619	0.946451	1.991471	99
Es	0.239896	0.421724	-1.121846	99
Es	-1.883830	-2.951112	-1.124552	99
Es	0.951548	0.530072	-1.285786	99
Es	0.714016	2.039696	1.323532	99
Es	-1.207597	-2.674236	-0.985991	99
Es	0.130523	-0.270528	-0.809332	99
Es	0.458505	-1.127497	0.070712	99
46
Properties=species:S:1:pos:R:3:Z:I:1 energy=-325.1114453157055 field_type=dipole dipole="0.000000 0.000000 0.000000" charge=0
C	-1.207580	-2.674438	-0.986077	6
O	-1.355980	-1.371318	-0.441217	8
C	-0.096050	-0.715958	-0.197527	6
C	0.239930	0.421772	-1.122007	6
C	-0.215340	0.706832	0.286173	6
C	0.733320	1.216392	1.318263	6
N	0.650480	2.667652	1.336283	7
H	-2.202020	-3.080348	-1.189367	1
H	-0.701940	-3.326548	-0.267597	1
H	-0.642880	-2.635538	-1.922257	1
H	0.723570	-1.306288	0.201873	1
H	-0.450790	0.644272	-1.927237	1
H	1.281720	0.575232	-1.375327	1
H	-1.221820	1.084492	0.435033	1
H	1.763450	0.906472	1.109653	1
H	0.455640	0.820832	2.300743	1
H	0.929890	3.032222	0.427583	1
H	1.316400	3.034262	2.013003	1
Es	1.446794	0.988656	1.167306	99
Es	0.458437	-1.127450	0.070681	99
Es	0.951452	0.530251	-1.285846	99
Es	-0.225641	0.566679	-1.662588	99
Es	-0.889822	0.956091	0.375841	99
Es	0.651028	2.667477	1.336146	99
Es	-1.207597	-2.674237	-0.985991	99
Es	0.130686	-0.270620	-0.809441	99
Es	-0.852310	-3.125978	-0.495584	99
Es	-0.203491	-0.070282	0.213233	99
Es	-1.883816	-2.951145	-1.124499	99
Es	0.544919	0.946433	1.991618	99
Es	0.324452	2.774236	1.413728	99
Es	0.713717	2.039597	1.323732	99
Es	-0.813977	-2.652795	-1.628961	99
Es	0.272143	0.948623	0.787634	99
Es	-1.488919	-1.201015	-0.655224	99
Es	1.071250	2.879215	1.737834	99
Es	-1.482214	-1.412479	-0.166723	99
Es	0.239894	0.421727	-1.121842	99
Es	-1.355646	-1.371472	-0.441300	99
Es	-0.215252	0.706699	0.286034	99
Es	-0.096247	-0.715892	-0.197622	99
Es	-1.262460	-1.863536	-0.651314	99
Es	-0.853612	-1.153987	-0.360653	99
Es	0.733306	1.216525	1.318243	99
Es	0.038659	0.757362	-0.454918	99
Es	0.839894	2.874110	0.786790	99
