38
Properties=species:S:1:pos:R:3:Z:I:1 energy=-358.5966855983616 field_type=dipole dipole="0.000000 0.000000 0.000000" charge=0
C	-0.607677	-1.902232	0.291227	6
O	-1.333787	-0.718122	0.001917	8
C	-0.562457	0.382688	-0.125533	6
N	-1.210837	1.515338	-0.397533	7
O	-0.223767	2.486938	-0.480103	8
C	0.986364	1.914808	-0.256503	6
C	0.828173	0.572948	-0.024753	6
H	-1.324027	-2.725472	0.372927	1
H	-0.081537	-1.820892	1.248787	1
H	0.091123	-2.146322	-0.516523	1
H	1.832623	2.584528	-0.297213	1
H	1.605803	-0.144212	0.183307	1
Es	-0.562621	0.382469	-0.125507	99
Es	0.142486	0.401673	-0.058596	99
Es	-0.065716	2.361793	-0.689499	99
Es	-1.092365	-2.456216	0.346055	99
Es	-1.210195	1.515195	-0.397441	99
Es	1.553556	2.355086	-0.281409	99
Es	-0.122708	-2.060450	-0.257289	99
Es	-1.559636	1.621170	-0.450433	99
Es	-1.027260	-1.140400	0.109976	99
Es	-1.333263	-0.718116	0.001878	99
Es	-1.439752	-0.736593	-0.266441	99
Es	0.897480	1.078199	-0.426661	99
Es	0.842609	1.192572	0.175959	99
Es	-0.990253	-0.313246	-0.038607	99
Es	0.198242	2.286258	-0.278987	99
Es	-0.889021	1.027456	-0.567411	99
Es	-1.491521	-0.644696	0.233737	99
Es	-0.291402	2.781074	-0.428244	99
Es	-0.607796	-1.902011	0.291175	99
Es	-0.944271	1.129751	-0.011097	99
Es	0.828146	0.572922	-0.024745	99
Es	-0.223633	2.486496	-0.479958	99
Es	-0.611035	2.062589	-0.426778	99
Es	-0.239811	-1.839525	0.940653	99
Es	1.340142	0.086625	0.115019	99
Es	0.986173	1.914980	-0.256552	99
38
Properties=species:S:1:pos:R:3:Z:I:1 energy=-358.5966855983616 field_type=dipole dipole="0.000000 0.000000 0.000000" charge=0
C	-0.607677	-1.902232	0.291227	6
O	-1.333787	-0.718122	0.001917	8
C	-0.562457	0.382688	-0.125533	6
N	-1.210837	1.515338	-0.397533	7
O	-0.223767	2.486938	-0.480103	8
C	0.986364	1.914808	-0.256503	6
C	0.828173	0.572948	-0.024753	6
H	-1.324027	-2.725472	0.372927	1
H	-0.081537	-1.820892	1.248787	1
H	0.091123	-2.146322	-0.516523	1
H	1.832623	2.584528	-0.297213	1
H	1.605803	-0.144212	0.183307	1
Es	0.224301	2.242367	-0.508187	99
Es	-0.117298	2.453404	-0.216671	99
Es	-0.239836	-1.839561	0.940697	99
Es	-0.223598	2.486415	-0.480153	99
Es	-1.487362	-0.643537	0.236307	99
Es	-1.559475	1.620819	-0.450837	99
Es	0.142965	0.401100	-0.061498	99
Es	0.986172	1.914982	-0.256556	99
Es	0.828148	0.572923	-0.024768	99
Es	0.901213	1.082061	-0.425102	99
Es	-0.990364	-0.313945	-0.041416	99
Es	1.340126	0.086552	0.114631	99
Es	-0.943148	1.129135	-0.009568	99
Es	-1.444306	-0.737159	-0.265118	99
Es	-0.562619	0.382475	-0.125507	99
Es	-0.607794	-1.902015	0.291176	99
Es	-0.267897	2.737827	-0.648158	99
Es	-0.609332	2.058297	-0.451697	99
Es	-1.333398	-0.718117	0.001991	99
Es	-0.890076	1.028040	-0.566238	99
Es	-1.210211	1.515243	-0.397451	99
Es	-0.122697	-2.060381	-0.257201	99
Es	-1.026664	-1.140290	0.108689	99
Es	-1.092356	-2.456266	0.345934	99
Es	1.553772	2.354824	-0.282892	99
Es	0.838307	1.189862	0.178391	99
38
Properties=species:S:1:pos:R:3:Z:I:1 energy=-358.5966855983616 field_type=dipole dipole="0.000000 0.000000 0.000000" charge=0
C	-0.607677	-1.902232	0.291227	6
O	-1.333787	-0.718122	0.001917	8
C	-0.562457	0.382688	-0.125533	6
N	-1.210837	1.515338	-0.397533	7
O	-0.223767	2.486938	-0.480103	8
C	0.986364	1.914808	-0.256503	6
C	0.828173	0.572948	-0.024753	6
H	-1.324027	-2.725472	0.372927	1
H	-0.081537	-1.820892	1.248787	1
H	0.091123	-2.146322	-0.516523	1
H	1.832623	2.584528	-0.297213	1
H	1.605803	-0.144212	0.183307	1
Es	-0.223613	2.486473	-0.480076	99
Es	1.340138	0.086597	0.114750	99
Es	0.900893	1.081787	-0.424993	99
Es	-0.104963	2.442222	-0.214531	99
Es	1.553838	2.354743	-0.282803	99
Es	-0.122694	-2.060413	-0.257220	99
Es	-0.943403	1.129739	-0.009813	99
Es	-0.890581	1.027750	-0.566142	99
Es	-0.990833	-0.312675	-0.037734	99
Es	-0.607795	-1.902012	0.291175	99
Es	0.217917	2.243934	-0.523073	99
Es	-0.273030	2.747220	-0.635205	99
Es	-1.333349	-0.718152	0.001943	99
Es	-1.026912	-1.140389	0.110538	99
Es	-0.609207	2.058465	-0.452109	99
Es	-0.562619	0.382473	-0.125510	99
Es	-1.559411	1.620906	-0.450742	99
Es	-1.092345	-2.456247	0.345977	99
Es	-1.493484	-0.645334	0.232441	99
Es	0.143107	0.401103	-0.061472	99
Es	0.838180	1.189839	0.178165	99
Es	0.986173	1.914981	-0.256547	99
Es	-1.437556	-0.736496	-0.266684	99
Es	-1.210183	1.515181	-0.397458	99
Es	-0.239839	-1.839564	0.940671	99
Es	0.828147	0.572924	-0.024750	99
38
Properties=species:S:1:pos:R:3:Z:I:1 energy=-358.5966855983616 field_type=dipole dipole="0.000000 0.000000 0.000000" charge=0
C	-0.607677	-1.902232	0.291227	6
O	-1.333787	-0.718122	0.001917	8
C	-0.562457	0.382688	-0.125533	6
N	-1.210837	1.515338	-0.397533	7
O	-0.223767	2.486938	-0.480103	8
C	0.986364	1.914808	-0.256503	6
C	0.828173	0.572948	-0.024753	6
H	-1.324027	-2.725472	0.372927	1
H	-0.081537	-1.820892	1.248787	1
H	0.091123	-2.146322	-0.516523	1
H	1.832623	2.584528	-0.297213	1
H	1.605803	-0.144212	0.183307	1
Es	-0.268661	2.737374	-0.646903	99
Es	-1.442467	-0.736483	-0.265470	99
Es	0.221673	2.242878	-0.513494	99
Es	-0.990678	-0.312959	-0.039360	99
Es	-1.092338	-2.456261	0.345993	99
Es	1.553956	2.354774	-0.282823	99
Es	0.986172	1.914981	-0.256554	99
Es	-0.122659	-2.060434	-0.257172	99
Es	0.143188	0.401160	-0.061226	99
Es	-0.562619	0.382472	-0.125511	99
Es	0.838152	1.189998	0.178143	99
Es	-1.333357	-0.718110	0.001994	99
Es	-1.210228	1.515181	-0.397444	99
Es	0.900754	1.081960	-0.425228	99
Es	1.340138	0.086599	0.114703	99
Es	-0.239882	-1.839583	0.940630	99
Es	-0.609196	2.058386	-0.451668	99
Es	-1.559203	1.620792	-0.450669	99
Es	-0.113852	2.453697	-0.212689	99
Es	-0.890286	1.027855	-0.566311	99
Es	-1.026853	-1.140877	0.109285	99
Es	-0.223508	2.486374	-0.480191	99
Es	-0.607794	-1.902014	0.291175	99
Es	-0.943239	1.128965	-0.009698	99
Es	0.828147	0.572924	-0.024753	99
Es	-1.488782	-0.644591	0.234036	99
38
Properties=species:S:1:pos:R:3:Z:I:1 energy=-358.5966855983616 field_type=dipole dipole="0.000000 0.000000 0.000000" charge=0
C	-0.607677	-1.902232	0.291227	6
O	-1.333787	-0.718122	0.001917	8
C	-0.562457	0.382688	-0.125533	6
N	-1.210837	1.515338	-0.397533	7
O	-0.223767	2.486938	-0.480103	8
C	0.986364	1.914808	-0.256503	6
C	0.828173	0.572948	-0.024753	6
H	-1.324027	-2.725472	0.372927	1
H	-0.081537	-1.820892	1.248787	1
H	0.091123	-2.146322	-0.516523	1
H	1.832623	2.584528	-0.297213	1
H	1.605803	-0.144212	0.183307	1
Es	-1.210192	1.515207	-0.397445	99
Es	-0.990513	-0.313075	-0.040739	99
Es	-0.943713	1.129912	-0.009505	99
Es	-0.609978	2.058858	-0.452236	99
Es	-0.272090	2.746822	-0.635528	99
Es	-1.487301	-0.643895	0.234366	99
Es	-0.607793	-1.902017	0.291176	99
Es	1.340021	0.086524	0.114712	99
Es	0.828146	0.572926	-0.024755	99
Es	0.986175	1.914984	-0.256558	99
Es	0.837824	1.189878	0.178335	99
Es	-1.559076	1.620542	-0.451368	99
Es	-0.122736	-2.060501	-0.257202	99
Es	1.554018	2.354693	-0.282746	99
Es	-1.026995	-1.141119	0.109390	99
Es	-0.239813	-1.839552	0.940593	99
Es	0.219658	2.243798	-0.520300	99
Es	-0.223551	2.486423	-0.480129	99
Es	-1.092348	-2.456231	0.346077	99
Es	-0.890363	1.027127	-0.565594	99
Es	-0.107101	2.442888	-0.216831	99
Es	-0.562619	0.382474	-0.125509	99
Es	-1.443952	-0.736855	-0.264600	99
Es	-1.333384	-0.718094	0.001993	99
Es	0.143420	0.401198	-0.061606	99
Es	0.900830	1.082143	-0.425197	99
38
Properties=species:S:1:pos:R:3:Z:I:1 energy=-358.5966855983616 field_type=dipole dipole="0.000000 0.000000 0.000000" charge=0
C	-0.607677	-1.902232	0.291227	6
O	-1.333787	-0.718122	0.001917	8
C	-0.562457	0.382688	-0.125533	6
N	-1.210837	1.515338	-0.397533	7
O	-0.223767	2.486938	-0.480103	8
C	0.986364	1.914808	-0.256503	6
C	0.828173	0.572948	-0.024753	6
H	-1.324027	-2.725472	0.372927	1
H	-0.081537	-1.820892	1.248787	1
H	0.091123	-2.146322	-0.516523	1
H	1.832623	2.584528	-0.297213	1
H	1.605803	-0.144212	0.183307	1
Es	-0.889523	1.027177	-0.566947	99
Es	0.828147	0.572926	-0.024750	99
Es	-0.044956	2.343755	-0.678804	99
Es	-0.122702	-2.060405	-0.257139	99
Es	0.143208	0.401685	-0.058644	99
Es	-1.440584	-0.736894	-0.265866	99
Es	-0.239845	-1.839614	0.940601	99
Es	-1.490017	-0.644440	0.231817	99
Es	-1.027413	-1.141097	0.111413	99
Es	-0.613091	2.064194	-0.426628	99
Es	-0.223617	2.486499	-0.479877	99
Es	-0.945045	1.129795	-0.011159	99
Es	-0.293104	2.786168	-0.459019	99
Es	-1.210192	1.515216	-0.397447	99
Es	-0.607794	-1.902015	0.291176	99
Es	-0.990698	-0.312510	-0.038773	99
Es	0.182553	2.298555	-0.258854	99
Es	-1.092305	-2.456297	0.345973	99
Es	0.841692	1.192553	0.176002	99
Es	0.986173	1.914982	-0.256553	99
Es	-1.559023	1.620539	-0.450761	99
Es	1.340120	0.086619	0.114878	99
Es	0.896770	1.078447	-0.426678	99
Es	1.553968	2.354815	-0.281577	99
Es	-0.562619	0.382475	-0.125509	99
Es	-1.333527	-0.718072	0.001923	99
38
Properties=species:S:1:pos:R:3:Z:I:1 energy=-358.5966855983616 field_type=dipole dipole="0.000000 0.000000 0.000000" charge=0
C	-0.607677	-1.902232	0.291227	6
O	-1.333787	-0.718122	0.001917	8
C	-0.562457	0.382688	-0.125533	6
N	-1.210837	1.515338	-0.397533	7
O	-0.223767	2.486938	-0.480103	8
C	0.986364	1.914808	-0.256503	6
C	0.828173	0.572948	-0.024753	6
H	-1.324027	-2.725472	0.372927	1
H	-0.081537	-1.820892	1.248787	1
H	0.091123	-2.146322	-0.516523	1
H	1.832623	2.584528	-0.297213	1
H	1.605803	-0.144212	0.183307	1
Es	0.841513	1.192621	0.176051	99
Es	-1.027126	-1.141457	0.110277	99
Es	0.986172	1.914983	-0.256553	99
Es	-1.210188	1.515210	-0.397444	99
Es	0.896912	1.078766	-0.426807	99
Es	-0.562619	0.382476	-0.125512	99
Es	-0.613066	2.064546	-0.425446	99
Es	-1.092302	-2.456251	0.345916	99
Es	1.340059	0.086618	0.114935	99
Es	-0.051764	2.349264	-0.683347	99
Es	-1.489376	-0.644073	0.232908	99
Es	0.828147	0.572927	-0.024749	99
Es	-1.333463	-0.718105	0.001955	99
Es	-0.889303	1.026856	-0.566737	99
Es	0.143314	0.401732	-0.058670	99
Es	-1.441505	-0.736741	-0.264332	99
Es	1.554064	2.354843	-0.281529	99
Es	-0.122706	-2.060439	-0.257114	99
Es	-0.944980	1.129589	-0.011101	99
Es	-0.223610	2.486549	-0.479983	99
Es	-0.607795	-1.902014	0.291175	99
Es	-1.558886	1.620406	-0.450935	99
Es	-0.292040	2.784305	-0.449224	99
Es	-0.990772	-0.312618	-0.040315	99
Es	0.187769	2.294738	-0.265269	99
Es	-0.239874	-1.839673	0.940647	99
38
Properties=species:S:1:pos:R:3:Z:I:1 energy=-358.5966855983616 field_type=dipole dipole="0.000000 0.000000 0.000000" charge=0
C	-0.607677	-1.902232	0.291227	6
O	-1.333787	-0.718122	0.001917	8
C	-0.562457	0.382688	-0.125533	6
N	-1.210837	1.515338	-0.397533	7
O	-0.223767	2.486938	-0.480103	8
C	0.986364	1.914808	-0.256503	6
C	0.828173	0.572948	-0.024753	6
H	-1.324027	-2.725472	0.372927	1
H	-0.081537	-1.820892	1.248787	1
H	0.091123	-2.146322	-0.516523	1
H	1.832623	2.584528	-0.297213	1
H	1.605803	-0.144212	0.183307	1
Es	-0.610877	2.059588	-0.453700	99
Es	-0.890985	1.027151	-0.565831	99
Es	-1.092283	-2.456350	0.345914	99
Es	0.986171	1.914982	-0.256555	99
Es	-0.943827	1.129696	-0.009625	99
Es	-1.558666	1.620356	-0.450691	99
Es	0.837003	1.189670	0.178415	99
Es	-1.333361	-0.718105	0.001900	99
Es	-1.210190	1.515208	-0.397448	99
Es	0.213575	2.246153	-0.534969	99
Es	-0.990513	-0.313293	-0.043016	99
Es	-0.239807	-1.839646	0.940593	99
Es	-1.450251	-0.736920	-0.262550	99
Es	-1.027050	-1.141864	0.108317	99
Es	-0.276413	2.756224	-0.619555	99
Es	-0.562620	0.382475	-0.125503	99
Es	1.340073	0.086597	0.114728	99
Es	-0.607794	-1.902016	0.291176	99
Es	0.828146	0.572929	-0.024741	99
Es	-0.122746	-2.060368	-0.257068	99
Es	1.554256	2.354605	-0.282588	99
Es	-1.481128	-0.642828	0.235812	99
Es	0.143795	0.401073	-0.062086	99
Es	-0.095039	2.430754	-0.217030	99
Es	0.900684	1.082549	-0.424957	99
Es	-0.223578	2.486436	-0.480144	99
38
Properties=species:S:1:pos:R:3:Z:I:1 energy=-358.5966855983616 field_type=dipole dipole="0.000000 0.000000 0.000000" charge=0
C	-0.607677	-1.902232	0.291227	6
O	-1.333787	-0.718122	0.001917	8
C	-0.562457	0.382688	-0.125533	6
N	-1.210837	1.515338	-0.397533	7
O	-0.223767	2.486938	-0.480103	8
C	0.986364	1.914808	-0.256503	6
C	0.828173	0.572948	-0.024753	6
H	-1.324027	-2.725472	0.372927	1
H	-0.081537	-1.820892	1.248787	1
H	0.091123	-2.146322	-0.516523	1
H	1.832623	2.584528	-0.297213	1
H	1.605803	-0.144212	0.183307	1
Es	1.340088	0.086616	0.114943	99
Es	-0.607793	-1.902017	0.291176	99
Es	-0.239848	-1.839630	0.940539	99
Es	-0.990819	-0.312460	-0.039363	99
Es	-0.059121	2.354406	-0.682096	99
Es	0.828147	0.572928	-0.024750	99
Es	-0.122699	-2.060383	-0.257040	99
Es	0.896461	1.078695	-0.426983	99
Es	-0.889205	1.026726	-0.566953	99
Es	-1.333379	-0.718109	0.001954	99
Es	-1.441034	-0.736181	-0.264554	99
Es	-0.613397	2.064420	-0.426143	99
Es	-1.027293	-1.141746	0.110059	99
Es	0.986172	1.914982	-0.256553	99
Es	0.143522	0.401773	-0.058419	99
Es	-1.092316	-2.456371	0.345959	99
Es	0.194027	2.291049	-0.271648	99
Es	-1.210195	1.515208	-0.397446	99
Es	-1.489791	-0.644494	0.232389	99
Es	0.841576	1.193140	0.175941	99
Es	-0.291205	2.783504	-0.443632	99
Es	-0.944703	1.128997	-0.011160	99
Es	-0.223601	2.486491	-0.479876	99
Es	-0.562619	0.382473	-0.125523	99
Es	-1.558651	1.620182	-0.450486	99
Es	1.554250	2.354858	-0.281540	99
38
Properties=species:S:1:pos:R:3:Z:I:1 energy=-358.5966855983616 field_type=dipole dipole="0.000000 0.000000 0.000000" charge=0
C	-0.607677	-1.902232	0.291227	6
O	-1.333787	-0.718122	0.001917	8
C	-0.562457	0.382688	-0.125533	6
N	-1.210837	1.515338	-0.397533	7
O	-0.223767	2.486938	-0.480103	8
C	0.986364	1.914808	-0.256503	6
C	0.828173	0.572948	-0.024753	6
H	-1.324027	-2.725472	0.372927	1
H	-0.081537	-1.820892	1.248787	1
H	0.091123	-2.146322	-0.516523	1
H	1.832623	2.584528	-0.297213	1
H	1.605803	-0.144212	0.183307	1
Es	-1.092303	-2.456339	0.345994	99
Es	-1.210195	1.515203	-0.397444	99
Es	-1.333470	-0.718105	0.001938	99
Es	-0.562619	0.382475	-0.125507	99
Es	-0.239838	-1.839641	0.940527	99
Es	-0.223614	2.486498	-0.479916	99
Es	0.986172	1.914983	-0.256553	99
Es	-0.040759	2.344364	-0.682855	99
Es	0.178879	2.300342	-0.256056	99
Es	1.554316	2.354671	-0.281589	99
Es	-0.889697	1.026955	-0.566922	99
Es	-0.122721	-2.060430	-0.257054	99
Es	-1.486591	-0.643966	0.233398	99
Es	-0.990775	-0.312604	-0.040540	99
Es	-0.945134	1.129243	-0.011285	99
Es	0.143753	0.401732	-0.058592	99
Es	-0.613509	2.064435	-0.427453	99
Es	1.340108	0.086628	0.114859	99
Es	-0.293051	2.784377	-0.456998	99
Es	0.896124	1.078526	-0.426765	99
Es	0.828147	0.572928	-0.024750	99
Es	-1.027299	-1.142090	0.109311	99
Es	0.841187	1.192913	0.175966	99
Es	-1.558523	1.620189	-0.450473	99
Es	-0.607794	-1.902015	0.291176	99
Es	-1.444220	-0.736214	-0.263620	99
38
Properties=species:S:1:pos:R:3:Z:I:1 energy=-358.5966855983616 field_type=dipole dipole="0.000000 0.000000 0.000000" charge=0
C	-0.607677	-1.902232	0.291227	6
O	-1.333787	-0.718122	0.001917	8
C	-0.562457	0.382688	-0.125533	6
N	-1.210837	1.515338	-0.397533	7
O	-0.223767	2.486938	-0.480103	8
C	0.986364	1.914808	-0.256503	6
C	0.828173	0.572948	-0.024753	6
H	-1.324027	-2.725472	0.372927	1
H	-0.081537	-1.820892	1.248787	1
H	0.091123	-2.146322	-0.516523	1
H	1.832623	2.584528	-0.297213	1
H	1.605803	-0.144212	0.183307	1
Es	-0.990951	-0.312412	-0.038296	99
Es	0.899015	1.081144	-0.425314	99
Es	0.838266	1.191356	0.177729	99
Es	0.211193	2.246288	-0.537620	99
Es	0.143947	0.401341	-0.061078	99
Es	-0.562619	0.382474	-0.125511	99
Es	-1.210199	1.515229	-0.397465	99
Es	-0.239850	-1.839636	0.940538	99
Es	-0.223554	2.486464	-0.480085	99
Es	-0.611506	2.060030	-0.452710	99
Es	0.986173	1.914982	-0.256553	99
Es	-0.092789	2.433085	-0.213506	99
Es	-1.027385	-1.141807	0.110485	99
Es	-0.943871	1.129080	-0.009865	99
Es	-0.122705	-2.060388	-0.257011	99
Es	-0.890890	1.027122	-0.565635	99
Es	-1.494942	-0.645056	0.231000	99
Es	-0.275723	2.753767	-0.621430	99
Es	1.554462	2.354581	-0.282481	99
Es	1.340027	0.086592	0.114761	99
Es	-1.333356	-0.718087	0.002022	99
Es	0.828147	0.572929	-0.024754	99
Es	-1.092273	-2.456379	0.345953	99
Es	-1.435748	-0.735650	-0.264769	99
Es	-0.607792	-1.902018	0.291176	99
Es	-1.558500	1.620026	-0.450784	99
38
Properties=species:S:1:pos:R:3:Z:I:1 energy=-358.5966855983616 field_type=dipole dipole="0.000000 0.000000 0.000000" charge=0
C	-0.607677	-1.902232	0.291227	6
O	-1.333787	-0.718122	0.001917	8
C	-0.562457	0.382688	-0.125533	6
N	-1.210837	1.515338	-0.397533	7
O	-0.223767	2.486938	-0.480103	8
C	0.986364	1.914808	-0.256503	6
C	0.828173	0.572948	-0.024753	6
H	-1.324027	-2.725472	0.372927	1
H	-0.081537	-1.820892	1.248787	1
H	0.091123	-2.146322	-0.516523	1
H	1.832623	2.584528	-0.297213	1
H	1.605803	-0.144212	0.183307	1
Es	0.986172	1.914981	-0.256553	99
Es	-0.223588	2.486491	-0.479742	99
Es	-1.092285	-2.456435	0.345994	99
Es	-1.210200	1.515199	-0.397446	99
Es	-0.042812	2.344662	-0.680947	99
Es	-1.333331	-0.718117	0.001912	99
Es	-1.440305	-0.735883	-0.264232	99
Es	-0.562620	0.382474	-0.125508	99
Es	-0.889713	1.026462	-0.566608	99
Es	-1.558239	1.620078	-0.450765	99
Es	-0.292183	2.784552	-0.458035	99
Es	0.896076	1.078695	-0.426916	99
Es	1.554442	2.354670	-0.281611	99
Es	-1.490469	-0.644461	0.231887	99
Es	-0.607792	-1.902019	0.291176	99
Es	-0.239842	-1.839651	0.940439	99
Es	-0.122715	-2.060386	-0.256953	99
Es	0.180672	2.299551	-0.257382	99
Es	-1.027373	-1.142020	0.110153	99
Es	0.143882	0.401797	-0.058569	99
Es	-0.945340	1.129364	-0.011176	99
Es	0.841007	1.193038	0.175881	99
Es	-0.614135	2.064923	-0.427179	99
Es	-0.990951	-0.312458	-0.039246	99
Es	0.828147	0.572930	-0.024750	99
Es	1.340070	0.086617	0.114974	99
