46
Properties=species:S:1:pos:R:3:Z:I:1 energy=-325.0981524929998 field_type=dipole dipole="0.000000 0.000000 0.000000" charge=0
C	-1.111041	-2.325208	-1.141275	6
O	-0.849181	-1.737898	0.125065	8
C	0.019919	-0.580578	0.110785	6
C	-0.575351	0.755312	-0.391695	6
N	0.005679	1.458202	0.772255	7
C	1.297199	2.052162	0.426715	6
C	0.196029	0.158632	1.456145	6
H	-1.760471	-3.191748	-0.995045	1
H	-0.176541	-2.655738	-1.602785	1
H	-1.617611	-1.608428	-1.793005	1
H	0.984509	-0.825848	-0.355015	1
H	-1.671701	0.775672	-0.397765	1
H	-0.229681	1.079872	-1.379255	1
H	1.793629	2.415431	1.333505	1
H	1.144489	2.918772	-0.225815	1
H	1.982739	1.363512	-0.081065	1
H	1.160709	0.006602	1.952435	1
H	-0.593321	-0.058718	2.185815	1
Es	-0.343827	0.010940	1.944095	99
Es	-0.306512	0.046181	-0.228877	99
Es	-1.320862	0.762035	-0.390717	99
Es	1.638359	2.292967	1.046978	99
Es	0.196024	0.158723	1.456044	99
Es	-1.455349	-1.831040	-1.596474	99
Es	0.582714	1.684482	0.604626	99
Es	0.126998	-0.299132	0.822767	99
Es	-0.205616	1.698855	0.937969	99
Es	-1.552058	-2.913467	-1.042494	99
Es	1.192352	2.639115	-0.024782	99
Es	0.123123	0.911878	1.106578	99
Es	-0.849070	-1.737767	0.124737	99
Es	1.767028	1.566587	0.074148	99
Es	-0.575280	0.755348	-0.391600	99
Es	-0.697059	-1.950576	0.285075	99
Es	-0.330646	0.986601	-1.067652	99
Es	0.006076	1.457751	0.771948	99
Es	-1.110995	-2.325108	-1.141080	99
Es	-0.516826	-1.309001	0.073523	99
Es	-1.120175	-1.628839	0.221210	99
Es	-0.921326	-1.931712	-0.375982	99
Es	0.683314	-0.746126	-0.215838	99
Es	-0.243192	1.194769	0.230337	99
Es	1.297096	2.052105	0.426738	99
Es	0.019768	-0.580731	0.110796	99
Es	-0.466661	-2.548843	-1.466192	99
Es	0.863430	0.063977	1.791805	99
46
Properties=species:S:1:pos:R:3:Z:I:1 energy=-325.0981524929998 field_type=dipole dipole="0.000000 0.000000 0.000000" charge=0
C	-1.111041	-2.325208	-1.141275	6
O	-0.849181	-1.737898	0.125065	8
C	0.019919	-0.580578	0.110785	6
C	-0.575351	0.755312	-0.391695	6
N	0.005679	1.458202	0.772255	7
C	1.297199	2.052162	0.426715	6
C	0.196029	0.158632	1.456145	6
H	-1.760471	-3.191748	-0.995045	1
H	-0.176541	-2.655738	-1.602785	1
H	-1.617611	-1.608428	-1.793005	1
H	0.984509	-0.825848	-0.355015	1
H	-1.671701	0.775672	-0.397765	1
H	-0.229681	1.079872	-1.379255	1
H	1.793629	2.415431	1.333505	1
H	1.144489	2.918772	-0.225815	1
H	1.982739	1.363512	-0.081065	1
H	1.160709	0.006602	1.952435	1
H	-0.593321	-0.058718	2.185815	1
Es	1.766985	1.566668	0.074090	99
Es	-1.320841	0.761978	-0.390813	99
Es	-0.922472	-1.931621	-0.376362	99
Es	0.006057	1.457762	0.771965	99
Es	0.582835	1.683912	0.604206	99
Es	1.192346	2.639106	-0.024741	99
Es	-0.575279	0.755351	-0.391599	99
Es	0.683200	-0.746082	-0.215831	99
Es	-0.695861	-1.950415	0.284653	99
Es	-1.119146	-1.629781	0.222256	99
Es	-0.243842	1.194990	0.230610	99
Es	0.196025	0.158723	1.456045	99
Es	1.297094	2.052105	0.426739	99
Es	0.127250	-0.299274	0.822709	99
Es	0.019768	-0.580733	0.110797	99
Es	-0.204812	1.699150	0.937752	99
Es	-0.306483	0.046235	-0.228934	99
Es	-1.455318	-1.831034	-1.596431	99
Es	-1.552105	-2.913411	-1.042534	99
Es	0.122946	0.911995	1.107024	99
Es	-0.517880	-1.308424	0.073298	99
Es	-0.343902	0.011012	1.943919	99
Es	-1.110994	-2.325107	-1.141079	99
Es	-0.849086	-1.737727	0.124735	99
Es	-0.330701	0.986558	-1.067564	99
Es	-0.466672	-2.548883	-1.466235	99
Es	1.638439	2.292947	1.046970	99
Es	0.863277	0.063972	1.792039	99
46
Properties=species:S:1:pos:R:3:Z:I:1 energy=-325.0981524929998 field_type=dipole dipole="0.000000 0.000000 0.000000" charge=0
C	-1.111041	-2.325208	-1.141275	6
O	-0.849181	-1.737898	0.125065	8
C	0.019919	-0.580578	0.110785	6
C	-0.575351	0.755312	-0.391695	6
N	0.005679	1.458202	0.772255	7
C	1.297199	2.052162	0.426715	6
C	0.196029	0.158632	1.456145	6
H	-1.760471	-3.191748	-0.995045	1
H	-0.176541	-2.655738	-1.602785	1
H	-1.617611	-1.608428	-1.793005	1
H	0.984509	-0.825848	-0.355015	1
H	-1.671701	0.775672	-0.397765	1
H	-0.229681	1.079872	-1.379255	1
H	1.793629	2.415431	1.333505	1
H	1.144489	2.918772	-0.225815	1
H	1.982739	1.363512	-0.081065	1
H	1.160709	0.006602	1.952435	1
H	-0.593321	-0.058718	2.185815	1
Es	-1.110994	-2.325104	-1.141080	99
Es	0.019769	-0.580731	0.110795	99
Es	-0.466681	-2.549057	-1.466218	99
Es	1.192367	2.639100	-0.024784	99
Es	-0.517920	-1.308110	0.073677	99
Es	-0.306511	0.046222	-0.228985	99
Es	0.683155	-0.746087	-0.215814	99
Es	-1.118749	-1.630335	0.222693	99
Es	0.582782	1.684427	0.604771	99
Es	0.863254	0.064043	1.791941	99
Es	-0.575281	0.755350	-0.391601	99
Es	1.297097	2.052106	0.426739	99
Es	-0.205366	1.698795	0.937403	99
Es	0.127257	-0.299373	0.822711	99
Es	1.767013	1.566661	0.074156	99
Es	-0.343755	0.010968	1.944011	99
Es	-0.695906	-1.950263	0.284082	99
Es	-1.320813	0.762029	-0.390797	99
Es	0.006050	1.457772	0.771964	99
Es	-0.330746	0.986553	-1.067549	99
Es	-1.455293	-1.831060	-1.596490	99
Es	-0.243088	1.194763	0.230345	99
Es	-0.922837	-1.931394	-0.376683	99
Es	0.196024	0.158724	1.456044	99
Es	0.122757	0.912081	1.107119	99
Es	1.638408	2.292971	1.046937	99
Es	-1.552152	-2.913284	-1.042464	99
Es	-0.849010	-1.737798	0.124763	99
46
Properties=species:S:1:pos:R:3:Z:I:1 energy=-325.0981524929998 field_type=dipole dipole="0.000000 0.000000 0.000000" charge=0
C	-1.111041	-2.325208	-1.141275	6
O	-0.849181	-1.737898	0.125065	8
C	0.019919	-0.580578	0.110785	6
C	-0.575351	0.755312	-0.391695	6
N	0.005679	1.458202	0.772255	7
C	1.297199	2.052162	0.426715	6
C	0.196029	0.158632	1.456145	6
H	-1.760471	-3.191748	-0.995045	1
H	-0.176541	-2.655738	-1.602785	1
H	-1.617611	-1.608428	-1.793005	1
H	0.984509	-0.825848	-0.355015	1
H	-1.671701	0.775672	-0.397765	1
H	-0.229681	1.079872	-1.379255	1
H	1.793629	2.415431	1.333505	1
H	1.144489	2.918772	-0.225815	1
H	1.982739	1.363512	-0.081065	1
H	1.160709	0.006602	1.952435	1
H	-0.593321	-0.058718	2.185815	1
Es	-1.455318	-1.831115	-1.596424	99
Es	0.196025	0.158722	1.456045	99
Es	-1.320701	0.762063	-0.390798	99
Es	-0.306599	0.046166	-0.228956	99
Es	-0.575275	0.755349	-0.391594	99
Es	1.766996	1.566691	0.074201	99
Es	0.863223	0.064020	1.791992	99
Es	1.297098	2.052106	0.426739	99
Es	1.638424	2.292958	1.046921	99
Es	0.122842	0.911979	1.107361	99
Es	0.127283	-0.299418	0.822718	99
Es	1.192427	2.639098	-0.024806	99
Es	-0.922584	-1.931649	-0.376548	99
Es	-1.110993	-2.325107	-1.141078	99
Es	-1.119105	-1.630845	0.223209	99
Es	0.683089	-0.746031	-0.215812	99
Es	-0.343722	0.011001	1.943959	99
Es	-1.552091	-2.913379	-1.042558	99
Es	-0.466707	-2.548899	-1.466278	99
Es	0.582610	1.685031	0.604849	99
Es	0.019775	-0.580734	0.110792	99
Es	-0.517907	-1.307932	0.073757	99
Es	-0.849052	-1.737751	0.124752	99
Es	-0.330812	0.986484	-1.067594	99
Es	-0.243518	1.195104	0.230268	99
Es	0.006073	1.457761	0.771947	99
Es	-0.204884	1.698070	0.937192	99
Es	-0.695765	-1.949772	0.283430	99
46
Properties=species:S:1:pos:R:3:Z:I:1 energy=-325.0981524929998 field_type=dipole dipole="0.000000 0.000000 0.000000" charge=0
C	-1.111041	-2.325208	-1.141275	6
O	-0.849181	-1.737898	0.125065	8
C	0.019919	-0.580578	0.110785	6
C	-0.575351	0.755312	-0.391695	6
N	0.005679	1.458202	0.772255	7
C	1.297199	2.052162	0.426715	6
C	0.196029	0.158632	1.456145	6
H	-1.760471	-3.191748	-0.995045	1
H	-0.176541	-2.655738	-1.602785	1
H	-1.617611	-1.608428	-1.793005	1
H	0.984509	-0.825848	-0.355015	1
H	-1.671701	0.775672	-0.397765	1
H	-0.229681	1.079872	-1.379255	1
H	1.793629	2.415431	1.333505	1
H	1.144489	2.918772	-0.225815	1
H	1.982739	1.363512	-0.081065	1
H	1.160709	0.006602	1.952435	1
H	-0.593321	-0.058718	2.185815	1
Es	0.582554	1.685422	0.605004	99
Es	-0.243527	1.195109	0.230246	99
Es	0.122714	0.912061	1.107719	99
Es	1.192462	2.639050	-0.024762	99
Es	-0.330850	0.986553	-1.067465	99
Es	-0.517390	-1.308099	0.074033	99
Es	-0.575278	0.755349	-0.391600	99
Es	0.196026	0.158723	1.456042	99
Es	0.682968	-0.746039	-0.215817	99
Es	1.767000	1.566702	0.074176	99
Es	1.297099	2.052107	0.426738	99
Es	-1.320727	0.762016	-0.390871	99
Es	-0.343647	0.011031	1.943915	99
Es	-1.455262	-1.831112	-1.596455	99
Es	-0.466741	-2.548895	-1.466237	99
Es	-0.306458	0.046141	-0.229114	99
Es	-1.110995	-2.325108	-1.141083	99
Es	-0.923122	-1.931528	-0.376713	99
Es	1.638436	2.292987	1.046917	99
Es	0.127382	-0.299499	0.822763	99
Es	-0.696580	-1.950052	0.283838	99
Es	-1.552106	-2.913394	-1.042594	99
Es	-0.204750	1.697684	0.936746	99
Es	0.006066	1.457764	0.771952	99
Es	-0.849006	-1.737787	0.124751	99
Es	-1.118327	-1.630487	0.222712	99
Es	0.863119	0.064001	1.792048	99
Es	0.019770	-0.580728	0.110796	99
46
Properties=species:S:1:pos:R:3:Z:I:1 energy=-325.0981524929998 field_type=dipole dipole="0.000000 0.000000 0.000000" charge=0
C	-1.111041	-2.325208	-1.141275	6
O	-0.849181	-1.737898	0.125065	8
C	0.019919	-0.580578	0.110785	6
C	-0.575351	0.755312	-0.391695	6
N	0.005679	1.458202	0.772255	7
C	1.297199	2.052162	0.426715	6
C	0.196029	0.158632	1.456145	6
H	-1.760471	-3.191748	-0.995045	1
H	-0.176541	-2.655738	-1.602785	1
H	-1.617611	-1.608428	-1.793005	1
H	0.984509	-0.825848	-0.355015	1
H	-1.671701	0.775672	-0.397765	1
H	-0.229681	1.079872	-1.379255	1
H	1.793629	2.415431	1.333505	1
H	1.144489	2.918772	-0.225815	1
H	1.982739	1.363512	-0.081065	1
H	1.160709	0.006602	1.952435	1
H	-0.593321	-0.058718	2.185815	1
Es	-0.849077	-1.737770	0.124783	99
Es	-0.517907	-1.307613	0.074014	99
Es	-0.575278	0.755350	-0.391598	99
Es	-0.343561	0.010993	1.943938	99
Es	0.019773	-0.580723	0.110796	99
Es	1.192443	2.639121	-0.024860	99
Es	-1.455299	-1.831125	-1.596426	99
Es	-1.119255	-1.631592	0.223862	99
Es	-0.306416	0.046063	-0.229176	99
Es	-0.466760	-2.548853	-1.466278	99
Es	0.196025	0.158721	1.456045	99
Es	1.638427	2.292945	1.046880	99
Es	-0.244121	1.195311	0.230174	99
Es	-1.552072	-2.913416	-1.042604	99
Es	0.582689	1.685309	0.605071	99
Es	-0.330862	0.986563	-1.067425	99
Es	-0.204188	1.697451	0.936770	99
Es	1.766999	1.566768	0.074282	99
Es	0.006066	1.457769	0.771950	99
Es	0.682959	-0.746035	-0.215745	99
Es	0.122523	0.912229	1.107764	99
Es	-1.320654	0.762008	-0.390959	99
Es	0.127324	-0.299510	0.822798	99
Es	-0.922320	-1.932213	-0.376625	99
Es	1.297099	2.052106	0.426738	99
Es	0.863107	0.064020	1.792003	99
Es	-1.110995	-2.325109	-1.141083	99
Es	-0.695837	-1.948797	0.282594	99
