49
Properties=species:S:1:pos:R:3:Z:I:1 energy=-326.31925027177226 field_type=dipole dipole="0.000000 0.000000 0.000000" charge=0
C	-2.608536	-1.232334	1.047104	6
O	-1.413206	-0.462814	1.029834	8
C	-0.516676	-0.905904	0.011334	6
C	0.749114	-0.035774	0.026024	6
C	1.762884	-0.589944	-0.979396	6
C	0.393284	1.434356	-0.261376	6
N	1.566604	2.305616	-0.219236	7
H	-3.251526	-0.852264	1.845704	1
H	-2.384866	-2.284484	1.248994	1
H	-3.139766	-1.135424	0.095224	1
H	-1.011896	-0.843434	-0.965286	1
H	-0.251986	-1.952484	0.202674	1
H	1.188564	-0.088764	1.031644	1
H	1.378174	-0.529454	-2.002936	1
H	1.986475	-1.640284	-0.764206	1
H	2.708884	-0.041074	-0.938196	1
H	-0.332436	1.800086	0.474254	1
H	-0.072876	1.522296	-1.249366	1
H	1.982394	2.260056	0.712094	1
H	1.267394	3.272026	-0.344886	1
Es	-2.455579	-1.960344	1.179044	99
Es	-1.271002	-0.520840	1.295479	99
Es	1.253057	-0.313004	-0.483724	99
Es	1.054919	1.936559	-0.221462	99
Es	0.074133	1.490286	-0.944346	99
Es	1.811170	2.220266	-0.464189	99
Es	0.749089	-0.035786	0.025981	99
Es	0.107605	-0.468539	0.017591	99
Es	-0.108711	1.679593	0.243533	99
Es	1.492196	-0.548731	-1.676840	99
Es	-2.608351	-1.232218	1.047095	99
Es	1.368697	2.888122	-0.279593	99
Es	1.050893	-0.071730	0.714870	99
Es	2.399580	-0.222488	-0.948696	99
Es	1.797393	2.279974	0.355546	99
Es	0.575058	0.698036	-0.123266	99
Es	-0.516805	-0.905819	0.011496	99
Es	-1.857966	-0.776971	1.010119	99
Es	-1.098440	-0.654538	0.634510	99
Es	1.908027	-1.311130	-0.828501	99
Es	-0.334051	-1.633017	0.139312	99
Es	-2.973046	-1.172693	0.388058	99
Es	-3.048025	-0.975097	1.590440	99
Es	1.762849	-0.589950	-0.979376	99
Es	-0.858962	-0.863709	-0.667393	99
Es	0.393428	1.434408	-0.261378	99
Es	-1.413312	-0.463099	1.029603	99
Es	1.566219	2.305768	-0.218846	99
Es	-1.498782	-0.179531	0.948928	99
49
Properties=species:S:1:pos:R:3:Z:I:1 energy=-326.31925027177226 field_type=dipole dipole="0.000000 0.000000 0.000000" charge=0
C	-2.608536	-1.232334	1.047104	6
O	-1.413206	-0.462814	1.029834	8
C	-0.516676	-0.905904	0.011334	6
C	0.749114	-0.035774	0.026024	6
C	1.762884	-0.589944	-0.979396	6
C	0.393284	1.434356	-0.261376	6
N	1.566604	2.305616	-0.219236	7
H	-3.251526	-0.852264	1.845704	1
H	-2.384866	-2.284484	1.248994	1
H	-3.139766	-1.135424	0.095224	1
H	-1.011896	-0.843434	-0.965286	1
H	-0.251986	-1.952484	0.202674	1
H	1.188564	-0.088764	1.031644	1
H	1.378174	-0.529454	-2.002936	1
H	1.986475	-1.640284	-0.764206	1
H	2.708884	-0.041074	-0.938196	1
H	-0.332436	1.800086	0.474254	1
H	-0.072876	1.522296	-1.249366	1
H	1.982394	2.260056	0.712094	1
H	1.267394	3.272026	-0.344886	1
Es	0.574908	0.697943	-0.123432	99
Es	0.393429	1.434408	-0.261378	99
Es	2.399567	-0.222513	-0.948645	99
Es	1.762848	-0.589948	-0.979375	99
Es	0.107731	-0.468635	0.017725	99
Es	1.566226	2.305771	-0.218823	99
Es	0.074087	1.490413	-0.944406	99
Es	0.749089	-0.035786	0.025981	99
Es	-1.270786	-0.523606	1.294206	99
Es	-0.334087	-1.632950	0.139337	99
Es	1.253224	-0.313132	-0.483626	99
Es	-2.455554	-1.960320	1.179041	99
Es	-2.608352	-1.232220	1.047096	99
Es	1.908028	-1.311136	-0.828550	99
Es	-1.413267	-0.463145	1.029575	99
Es	-3.048033	-0.975121	1.590450	99
Es	1.492163	-0.548649	-1.676877	99
Es	-2.973056	-1.172730	0.388065	99
Es	-0.108632	1.679496	0.243466	99
Es	1.050824	-0.071496	0.714814	99
Es	-1.098879	-0.652346	0.632380	99
Es	1.797732	2.279937	0.355735	99
Es	1.810655	2.220291	-0.463892	99
Es	1.369014	2.888103	-0.279953	99
Es	-0.858947	-0.863803	-0.667393	99
Es	1.054779	1.936600	-0.221465	99
Es	-0.516806	-0.905817	0.011496	99
Es	-1.858843	-0.776315	1.009487	99
Es	-1.497782	-0.179520	0.952959	99
49
Properties=species:S:1:pos:R:3:Z:I:1 energy=-326.31925027177226 field_type=dipole dipole="0.000000 0.000000 0.000000" charge=0
C	-2.608536	-1.232334	1.047104	6
O	-1.413206	-0.462814	1.029834	8
C	-0.516676	-0.905904	0.011334	6
C	0.749114	-0.035774	0.026024	6
C	1.762884	-0.589944	-0.979396	6
C	0.393284	1.434356	-0.261376	6
N	1.566604	2.305616	-0.219236	7
H	-3.251526	-0.852264	1.845704	1
H	-2.384866	-2.284484	1.248994	1
H	-3.139766	-1.135424	0.095224	1
H	-1.011896	-0.843434	-0.965286	1
H	-0.251986	-1.952484	0.202674	1
H	1.188564	-0.088764	1.031644	1
H	1.378174	-0.529454	-2.002936	1
H	1.986475	-1.640284	-0.764206	1
H	2.708884	-0.041074	-0.938196	1
H	-0.332436	1.800086	0.474254	1
H	-0.072876	1.522296	-1.249366	1
H	1.982394	2.260056	0.712094	1
H	1.267394	3.272026	-0.344886	1
Es	1.566218	2.305763	-0.218834	99
Es	0.074047	1.490550	-0.944314	99
Es	-1.858269	-0.777290	1.010918	99
Es	1.054860	1.936290	-0.221589	99
Es	2.399549	-0.222547	-0.948660	99
Es	-0.108558	1.679502	0.243422	99
Es	-0.858942	-0.863823	-0.667314	99
Es	1.253091	-0.313122	-0.483837	99
Es	-1.413265	-0.463081	1.029603	99
Es	-1.098603	-0.653948	0.633712	99
Es	-2.455618	-1.960327	1.179018	99
Es	0.393428	1.434407	-0.261378	99
Es	1.492266	-0.548693	-1.676861	99
Es	-0.516803	-0.905819	0.011493	99
Es	1.908052	-1.311110	-0.828572	99
Es	1.762848	-0.589948	-0.979376	99
Es	0.749089	-0.035785	0.025982	99
Es	-0.334081	-1.632962	0.139293	99
Es	-2.973060	-1.172700	0.388103	99
Es	0.107709	-0.468460	0.017790	99
Es	1.369015	2.888083	-0.280157	99
Es	-1.270270	-0.519026	1.295875	99
Es	1.810610	2.220457	-0.463553	99
Es	-1.499108	-0.181628	0.948519	99
Es	0.574822	0.697843	-0.123273	99
Es	-3.048026	-0.975110	1.590449	99
Es	1.797762	2.280092	0.355748	99
Es	-2.608351	-1.232220	1.047096	99
Es	1.050869	-0.071614	0.714696	99
49
Properties=species:S:1:pos:R:3:Z:I:1 energy=-326.31925027177226 field_type=dipole dipole="0.000000 0.000000 0.000000" charge=0
C	-2.608536	-1.232334	1.047104	6
O	-1.413206	-0.462814	1.029834	8
C	-0.516676	-0.905904	0.011334	6
C	0.749114	-0.035774	0.026024	6
C	1.762884	-0.589944	-0.979396	6
C	0.393284	1.434356	-0.261376	6
N	1.566604	2.305616	-0.219236	7
H	-3.251526	-0.852264	1.845704	1
H	-2.384866	-2.284484	1.248994	1
H	-3.139766	-1.135424	0.095224	1
H	-1.011896	-0.843434	-0.965286	1
H	-0.251986	-1.952484	0.202674	1
H	1.188564	-0.088764	1.031644	1
H	1.378174	-0.529454	-2.002936	1
H	1.986475	-1.640284	-0.764206	1
H	2.708884	-0.041074	-0.938196	1
H	-0.332436	1.800086	0.474254	1
H	-0.072876	1.522296	-1.249366	1
H	1.982394	2.260056	0.712094	1
H	1.267394	3.272026	-0.344886	1
Es	-1.498116	-0.180855	0.949552	99
Es	0.574783	0.697864	-0.123227	99
Es	1.810429	2.220563	-0.463568	99
Es	-3.048050	-0.975148	1.590455	99
Es	1.492338	-0.548845	-1.676982	99
Es	-1.270968	-0.520116	1.295038	99
Es	-1.098294	-0.654143	0.633907	99
Es	-1.858899	-0.776711	1.010516	99
Es	-1.413250	-0.463139	1.029648	99
Es	1.253232	-0.313027	-0.483592	99
Es	1.762850	-0.589950	-0.979377	99
Es	0.749089	-0.035786	0.025984	99
Es	1.908334	-1.311094	-0.828359	99
Es	1.566215	2.305763	-0.218830	99
Es	-0.516805	-0.905818	0.011496	99
Es	1.054849	1.936406	-0.221735	99
Es	-0.334081	-1.632959	0.139243	99
Es	-2.455622	-1.960286	1.178998	99
Es	0.393427	1.434408	-0.261379	99
Es	0.074096	1.490352	-0.944275	99
Es	2.399249	-0.222522	-0.948750	99
Es	1.797933	2.279959	0.355753	99
Es	-0.108607	1.679607	0.243250	99
Es	-2.608354	-1.232221	1.047096	99
Es	1.050658	-0.071475	0.714693	99
Es	-0.858917	-0.863837	-0.667255	99
Es	-2.973059	-1.172732	0.388103	99
Es	0.107758	-0.468574	0.017673	99
Es	1.369062	2.888090	-0.280080	99
49
Properties=species:S:1:pos:R:3:Z:I:1 energy=-326.31925027177226 field_type=dipole dipole="0.000000 0.000000 0.000000" charge=0
C	-2.608536	-1.232334	1.047104	6
O	-1.413206	-0.462814	1.029834	8
C	-0.516676	-0.905904	0.011334	6
C	0.749114	-0.035774	0.026024	6
C	1.762884	-0.589944	-0.979396	6
C	0.393284	1.434356	-0.261376	6
N	1.566604	2.305616	-0.219236	7
H	-3.251526	-0.852264	1.845704	1
H	-2.384866	-2.284484	1.248994	1
H	-3.139766	-1.135424	0.095224	1
H	-1.011896	-0.843434	-0.965286	1
H	-0.251986	-1.952484	0.202674	1
H	1.188564	-0.088764	1.031644	1
H	1.378174	-0.529454	-2.002936	1
H	1.986475	-1.640284	-0.764206	1
H	2.708884	-0.041074	-0.938196	1
H	-0.332436	1.800086	0.474254	1
H	-0.072876	1.522296	-1.249366	1
H	1.982394	2.260056	0.712094	1
H	1.267394	3.272026	-0.344886	1
Es	1.050775	-0.071600	0.714684	99
Es	-3.048015	-0.975184	1.590442	99
Es	1.566218	2.305760	-0.218839	99
Es	1.492286	-0.548775	-1.676803	99
Es	2.399552	-0.222623	-0.948806	99
Es	-2.608355	-1.232222	1.047097	99
Es	-1.413271	-0.463121	1.029623	99
Es	0.749089	-0.035785	0.025981	99
Es	1.762851	-0.589949	-0.979376	99
Es	-0.516805	-0.905819	0.011493	99
Es	1.369027	2.888061	-0.279824	99
Es	-1.498141	-0.181282	0.949335	99
Es	-0.334214	-1.632850	0.139173	99
Es	-1.858955	-0.776679	1.010668	99
Es	0.574880	0.697912	-0.123276	99
Es	1.253069	-0.313093	-0.483539	99
Es	-0.858904	-0.863869	-0.667274	99
Es	0.393426	1.434407	-0.261379	99
Es	1.908093	-1.311037	-0.828626	99
Es	0.107854	-0.468534	0.017753	99
Es	-1.098194	-0.654211	0.633918	99
Es	-2.455630	-1.960276	1.179010	99
Es	-2.973106	-1.172738	0.388128	99
Es	1.797833	2.279932	0.355627	99
Es	-1.270970	-0.519637	1.295141	99
Es	1.810633	2.220581	-0.463777	99
Es	1.054786	1.936516	-0.221539	99
Es	0.074107	1.490424	-0.944263	99
Es	-0.108637	1.679467	0.243244	99
49
Properties=species:S:1:pos:R:3:Z:I:1 energy=-326.31925027177226 field_type=dipole dipole="0.000000 0.000000 0.000000" charge=0
C	-2.608536	-1.232334	1.047104	6
O	-1.413206	-0.462814	1.029834	8
C	-0.516676	-0.905904	0.011334	6
C	0.749114	-0.035774	0.026024	6
C	1.762884	-0.589944	-0.979396	6
C	0.393284	1.434356	-0.261376	6
N	1.566604	2.305616	-0.219236	7
H	-3.251526	-0.852264	1.845704	1
H	-2.384866	-2.284484	1.248994	1
H	-3.139766	-1.135424	0.095224	1
H	-1.011896	-0.843434	-0.965286	1
H	-0.251986	-1.952484	0.202674	1
H	1.188564	-0.088764	1.031644	1
H	1.378174	-0.529454	-2.002936	1
H	1.986475	-1.640284	-0.764206	1
H	2.708884	-0.041074	-0.938196	1
H	-0.332436	1.800086	0.474254	1
H	-0.072876	1.522296	-1.249366	1
H	1.982394	2.260056	0.712094	1
H	1.267394	3.272026	-0.344886	1
Es	-0.516806	-0.905817	0.011496	99
Es	1.566213	2.305766	-0.218833	99
Es	1.492351	-0.548800	-1.676841	99
Es	1.054654	1.936459	-0.222063	99
Es	0.074110	1.490420	-0.944261	99
Es	1.908093	-1.311027	-0.828582	99
Es	1.810202	2.220843	-0.463319	99
Es	-2.455670	-1.960332	1.179004	99
Es	0.574779	0.697845	-0.123269	99
Es	-1.498954	-0.184193	0.947220	99
Es	0.107922	-0.468532	0.017665	99
Es	-0.108621	1.679510	0.243188	99
Es	-0.858910	-0.863887	-0.667176	99
Es	-1.097534	-0.654188	0.634051	99
Es	1.050711	-0.071523	0.714711	99
Es	-1.413283	-0.463091	1.029614	99
Es	2.399536	-0.222626	-0.948760	99
Es	0.749089	-0.035784	0.025982	99
Es	0.393427	1.434407	-0.261379	99
Es	-1.858981	-0.777247	1.011246	99
Es	-0.334242	-1.632908	0.139165	99
Es	1.253104	-0.313063	-0.483554	99
Es	-2.973006	-1.172745	0.388173	99
Es	1.369390	2.887979	-0.280078	99
Es	-1.270750	-0.516205	1.296538	99
Es	-2.608355	-1.232222	1.047097	99
Es	1.762849	-0.589949	-0.979376	99
Es	-3.048095	-0.975103	1.590397	99
Es	1.798059	2.279789	0.355940	99
49
Properties=species:S:1:pos:R:3:Z:I:1 energy=-326.31925027177226 field_type=dipole dipole="0.000000 0.000000 0.000000" charge=0
C	-2.608536	-1.232334	1.047104	6
O	-1.413206	-0.462814	1.029834	8
C	-0.516676	-0.905904	0.011334	6
C	0.749114	-0.035774	0.026024	6
C	1.762884	-0.589944	-0.979396	6
C	0.393284	1.434356	-0.261376	6
N	1.566604	2.305616	-0.219236	7
H	-3.251526	-0.852264	1.845704	1
H	-2.384866	-2.284484	1.248994	1
H	-3.139766	-1.135424	0.095224	1
H	-1.011896	-0.843434	-0.965286	1
H	-0.251986	-1.952484	0.202674	1
H	1.188564	-0.088764	1.031644	1
H	1.378174	-0.529454	-2.002936	1
H	1.986475	-1.640284	-0.764206	1
H	2.708884	-0.041074	-0.938196	1
H	-0.332436	1.800086	0.474254	1
H	-0.072876	1.522296	-1.249366	1
H	1.982394	2.260056	0.712094	1
H	1.267394	3.272026	-0.344886	1
Es	-2.608355	-1.232222	1.047097	99
Es	-1.271973	-0.521910	1.293739	99
Es	-0.334261	-1.632866	0.139145	99
Es	-0.108642	1.679543	0.243114	99
Es	-0.858871	-0.863874	-0.667215	99
Es	1.810339	2.220616	-0.463164	99
Es	0.107942	-0.468548	0.017755	99
Es	-3.048065	-0.975181	1.590395	99
Es	2.399590	-0.222662	-0.948799	99
Es	1.369230	2.888156	-0.280317	99
Es	1.492326	-0.548806	-1.676811	99
Es	-1.413278	-0.463135	1.029607	99
Es	-0.516804	-0.905818	0.011494	99
Es	-2.455681	-1.960276	1.179003	99
Es	-1.496617	-0.180101	0.951737	99
Es	0.393426	1.434407	-0.261379	99
Es	1.566226	2.305755	-0.218846	99
Es	-2.973068	-1.172768	0.388173	99
Es	0.074120	1.490331	-0.944185	99
Es	1.908077	-1.310969	-0.828664	99
Es	1.762848	-0.589950	-0.979377	99
Es	0.749090	-0.035786	0.025982	99
Es	-1.859843	-0.775720	1.009907	99
Es	1.050723	-0.071599	0.714639	99
Es	1.797947	2.280081	0.355681	99
Es	1.054804	1.936303	-0.221770	99
Es	1.253101	-0.313056	-0.483577	99
Es	0.574743	0.697850	-0.123062	99
Es	-1.097791	-0.654022	0.633696	99
49
Properties=species:S:1:pos:R:3:Z:I:1 energy=-326.31925027177226 field_type=dipole dipole="0.000000 0.000000 0.000000" charge=0
C	-2.608536	-1.232334	1.047104	6
O	-1.413206	-0.462814	1.029834	8
C	-0.516676	-0.905904	0.011334	6
C	0.749114	-0.035774	0.026024	6
C	1.762884	-0.589944	-0.979396	6
C	0.393284	1.434356	-0.261376	6
N	1.566604	2.305616	-0.219236	7
H	-3.251526	-0.852264	1.845704	1
H	-2.384866	-2.284484	1.248994	1
H	-3.139766	-1.135424	0.095224	1
H	-1.011896	-0.843434	-0.965286	1
H	-0.251986	-1.952484	0.202674	1
H	1.188564	-0.088764	1.031644	1
H	1.378174	-0.529454	-2.002936	1
H	1.986475	-1.640284	-0.764206	1
H	2.708884	-0.041074	-0.938196	1
H	-0.332436	1.800086	0.474254	1
H	-0.072876	1.522296	-1.249366	1
H	1.982394	2.260056	0.712094	1
H	1.267394	3.272026	-0.344886	1
Es	1.050663	-0.071543	0.714634	99
Es	1.566215	2.305755	-0.218836	99
Es	1.908145	-1.310988	-0.828687	99
Es	-3.048057	-0.975233	1.590429	99
Es	-0.858889	-0.863956	-0.667199	99
Es	1.799213	2.280110	0.355046	99
Es	1.762848	-0.589949	-0.979376	99
Es	0.073978	1.490458	-0.944183	99
Es	-1.859346	-0.776833	1.011130	99
Es	-0.334294	-1.632793	0.139127	99
Es	-1.097519	-0.654088	0.633890	99
Es	1.054556	1.936274	-0.220729	99
Es	1.492359	-0.548782	-1.676815	99
Es	0.749089	-0.035786	0.025982	99
Es	0.574685	0.697820	-0.123183	99
Es	-1.271486	-0.519000	1.294336	99
Es	0.108013	-0.468509	0.017759	99
Es	0.393425	1.434407	-0.261378	99
Es	1.369230	2.888173	-0.280223	99
Es	1.809387	2.220599	-0.463626	99
Es	2.399507	-0.222718	-0.948843	99
Es	-2.608355	-1.232222	1.047097	99
Es	-2.455680	-1.960248	1.178957	99
Es	-1.497883	-0.181829	0.949745	99
Es	-1.413265	-0.463104	1.029627	99
Es	-0.108486	1.679456	0.243108	99
Es	-0.516804	-0.905819	0.011493	99
Es	1.253119	-0.313115	-0.483479	99
Es	-2.973090	-1.172762	0.388192	99
49
Properties=species:S:1:pos:R:3:Z:I:1 energy=-326.31925027177226 field_type=dipole dipole="0.000000 0.000000 0.000000" charge=0
C	-2.608536	-1.232334	1.047104	6
O	-1.413206	-0.462814	1.029834	8
C	-0.516676	-0.905904	0.011334	6
C	0.749114	-0.035774	0.026024	6
C	1.762884	-0.589944	-0.979396	6
C	0.393284	1.434356	-0.261376	6
N	1.566604	2.305616	-0.219236	7
H	-3.251526	-0.852264	1.845704	1
H	-2.384866	-2.284484	1.248994	1
H	-3.139766	-1.135424	0.095224	1
H	-1.011896	-0.843434	-0.965286	1
H	-0.251986	-1.952484	0.202674	1
H	1.188564	-0.088764	1.031644	1
H	1.378174	-0.529454	-2.002936	1
H	1.986475	-1.640284	-0.764206	1
H	2.708884	-0.041074	-0.938196	1
H	-0.332436	1.800086	0.474254	1
H	-0.072876	1.522296	-1.249366	1
H	1.982394	2.260056	0.712094	1
H	1.267394	3.272026	-0.344886	1
Es	1.798256	2.279890	0.355583	99
Es	1.369135	2.888100	-0.279982	99
Es	-1.097356	-0.653949	0.633740	99
Es	-1.271629	-0.518934	1.294217	99
Es	1.810129	2.221174	-0.463100	99
Es	1.908118	-1.310997	-0.828700	99
Es	-0.334277	-1.632845	0.139113	99
Es	-0.516803	-0.905819	0.011492	99
Es	0.574719	0.697822	-0.123155	99
Es	0.393424	1.434407	-0.261379	99
Es	-2.973029	-1.172816	0.388179	99
Es	-2.608352	-1.232221	1.047096	99
Es	2.399530	-0.222742	-0.948878	99
Es	-0.858864	-0.863934	-0.667142	99
Es	0.107978	-0.468500	0.017786	99
Es	-3.048115	-0.975186	1.590362	99
Es	1.253173	-0.313062	-0.483434	99
Es	0.749090	-0.035786	0.025982	99
Es	1.050601	-0.071528	0.714535	99
Es	-1.497861	-0.182011	0.949990	99
Es	1.492387	-0.548798	-1.676773	99
Es	-2.455734	-1.960235	1.179009	99
Es	1.054830	1.936047	-0.221996	99
Es	-0.108537	1.679436	0.243061	99
Es	0.074025	1.490454	-0.944156	99
Es	-1.859381	-0.776857	1.011129	99
Es	1.762849	-0.589949	-0.979376	99
Es	1.566224	2.305757	-0.218848	99
Es	-1.413249	-0.463142	1.029641	99
49
Properties=species:S:1:pos:R:3:Z:I:1 energy=-326.31925027177226 field_type=dipole dipole="0.000000 0.000000 0.000000" charge=0
C	-2.608536	-1.232334	1.047104	6
O	-1.413206	-0.462814	1.029834	8
C	-0.516676	-0.905904	0.011334	6
C	0.749114	-0.035774	0.026024	6
C	1.762884	-0.589944	-0.979396	6
C	0.393284	1.434356	-0.261376	6
N	1.566604	2.305616	-0.219236	7
H	-3.251526	-0.852264	1.845704	1
H	-2.384866	-2.284484	1.248994	1
H	-3.139766	-1.135424	0.095224	1
H	-1.011896	-0.843434	-0.965286	1
H	-0.251986	-1.952484	0.202674	1
H	1.188564	-0.088764	1.031644	1
H	1.378174	-0.529454	-2.002936	1
H	1.986475	-1.640284	-0.764206	1
H	2.708884	-0.041074	-0.938196	1
H	-0.332436	1.800086	0.474254	1
H	-0.072876	1.522296	-1.249366	1
H	1.982394	2.260056	0.712094	1
H	1.267394	3.272026	-0.344886	1
Es	1.566233	2.305764	-0.218842	99
Es	-1.861020	-0.774630	1.009050	99
Es	1.050601	-0.071572	0.714551	99
Es	0.749090	-0.035786	0.025983	99
Es	-1.098015	-0.652863	0.632683	99
Es	-2.608359	-1.232224	1.047097	99
Es	-0.516806	-0.905817	0.011496	99
Es	0.393424	1.434407	-0.261379	99
Es	1.798078	2.279913	0.355556	99
Es	1.492448	-0.548834	-1.676752	99
Es	-2.455707	-1.960230	1.178973	99
Es	1.908121	-1.310954	-0.828734	99
Es	1.810269	2.221050	-0.463087	99
Es	1.369340	2.888093	-0.279980	99
Es	-1.494761	-0.179297	0.955435	99
Es	0.107984	-0.468430	0.017748	99
Es	2.399545	-0.222763	-0.948895	99
Es	-1.272319	-0.525068	1.292098	99
Es	-0.858859	-0.863982	-0.667127	99
Es	-2.973070	-1.172817	0.388223	99
Es	1.762849	-0.589950	-0.979377	99
Es	-3.048096	-0.975233	1.590387	99
Es	-0.334271	-1.632792	0.139084	99
Es	1.054636	1.936166	-0.222018	99
Es	-1.413390	-0.463008	1.029453	99
Es	1.253090	-0.313045	-0.483476	99
Es	-0.108533	1.679439	0.243063	99
Es	0.574755	0.697761	-0.123115	99
Es	0.074023	1.490477	-0.944102	99
49
Properties=species:S:1:pos:R:3:Z:I:1 energy=-326.31925027177226 field_type=dipole dipole="0.000000 0.000000 0.000000" charge=0
C	-2.608536	-1.232334	1.047104	6
O	-1.413206	-0.462814	1.029834	8
C	-0.516676	-0.905904	0.011334	6
C	0.749114	-0.035774	0.026024	6
C	1.762884	-0.589944	-0.979396	6
C	0.393284	1.434356	-0.261376	6
N	1.566604	2.305616	-0.219236	7
H	-3.251526	-0.852264	1.845704	1
H	-2.384866	-2.284484	1.248994	1
H	-3.139766	-1.135424	0.095224	1
H	-1.011896	-0.843434	-0.965286	1
H	-0.251986	-1.952484	0.202674	1
H	1.188564	-0.088764	1.031644	1
H	1.378174	-0.529454	-2.002936	1
H	1.986475	-1.640284	-0.764206	1
H	2.708884	-0.041074	-0.938196	1
H	-0.332436	1.800086	0.474254	1
H	-0.072876	1.522296	-1.249366	1
H	1.982394	2.260056	0.712094	1
H	1.267394	3.272026	-0.344886	1
Es	0.749089	-0.035786	0.025982	99
Es	-1.497018	-0.181314	0.952058	99
Es	0.574792	0.697710	-0.123172	99
Es	0.074076	1.490518	-0.944043	99
Es	1.566235	2.305756	-0.218828	99
Es	-1.097809	-0.653282	0.632884	99
Es	2.399503	-0.222742	-0.948954	99
Es	-0.108571	1.679402	0.242968	99
Es	1.492492	-0.548877	-1.676699	99
Es	-2.455736	-1.960239	1.178885	99
Es	1.050600	-0.071545	0.714502	99
Es	1.810138	2.220735	-0.462583	99
Es	-2.608355	-1.232222	1.047097	99
Es	-0.334323	-1.632803	0.139083	99
Es	-2.973098	-1.172756	0.388265	99
Es	0.107984	-0.468451	0.017744	99
Es	1.369545	2.888016	-0.280842	99
Es	-0.858826	-0.864018	-0.667069	99
Es	-1.413226	-0.463185	1.029666	99
Es	1.798009	2.280425	0.355789	99
Es	1.054625	1.936129	-0.221848	99
Es	0.393421	1.434404	-0.261379	99
Es	-1.859930	-0.776532	1.011358	99
Es	-3.048077	-0.975286	1.590421	99
Es	-1.271518	-0.520509	1.292745	99
Es	1.253022	-0.313043	-0.483394	99
Es	-0.516801	-0.905820	0.011489	99
Es	1.908189	-1.310956	-0.828752	99
Es	1.762851	-0.589951	-0.979379	99
49
Properties=species:S:1:pos:R:3:Z:I:1 energy=-326.31925027177226 field_type=dipole dipole="0.000000 0.000000 0.000000" charge=0
C	-2.608536	-1.232334	1.047104	6
O	-1.413206	-0.462814	1.029834	8
C	-0.516676	-0.905904	0.011334	6
C	0.749114	-0.035774	0.026024	6
C	1.762884	-0.589944	-0.979396	6
C	0.393284	1.434356	-0.261376	6
N	1.566604	2.305616	-0.219236	7
H	-3.251526	-0.852264	1.845704	1
H	-2.384866	-2.284484	1.248994	1
H	-3.139766	-1.135424	0.095224	1
H	-1.011896	-0.843434	-0.965286	1
H	-0.251986	-1.952484	0.202674	1
H	1.188564	-0.088764	1.031644	1
H	1.378174	-0.529454	-2.002936	1
H	1.986475	-1.640284	-0.764206	1
H	2.708884	-0.041074	-0.938196	1
H	-0.332436	1.800086	0.474254	1
H	-0.072876	1.522296	-1.249366	1
H	1.982394	2.260056	0.712094	1
H	1.267394	3.272026	-0.344886	1
Es	-1.498094	-0.181880	0.950868	99
Es	1.369192	2.888219	-0.279952	99
Es	0.749090	-0.035784	0.025983	99
Es	-3.048107	-0.975258	1.590360	99
Es	-0.516802	-0.905816	0.011492	99
Es	-0.108483	1.679388	0.242978	99
Es	-2.455775	-1.960207	1.178959	99
Es	1.054840	1.935569	-0.222401	99
Es	-0.858838	-0.864081	-0.667056	99
Es	-1.097143	-0.653486	0.633358	99
Es	-2.608357	-1.232223	1.047097	99
Es	1.908160	-1.310953	-0.828753	99
Es	2.399511	-0.222796	-0.948964	99
Es	0.108065	-0.468420	0.017771	99
Es	1.050579	-0.071523	0.714491	99
Es	-2.973065	-1.172821	0.388246	99
Es	-1.859250	-0.777699	1.012314	99
Es	-1.271696	-0.518681	1.292601	99
Es	-0.334362	-1.632721	0.139046	99
Es	1.253050	-0.313053	-0.483392	99
Es	1.809711	2.221753	-0.462557	99
Es	0.073981	1.490496	-0.944054	99
Es	-1.413301	-0.463099	1.029613	99
Es	1.566223	2.305760	-0.218836	99
Es	0.574749	0.697744	-0.123151	99
Es	0.393423	1.434407	-0.261379	99
Es	1.762848	-0.589949	-0.979376	99
Es	1.798628	2.279759	0.355402	99
Es	1.492502	-0.548869	-1.676709	99
49
Properties=species:S:1:pos:R:3:Z:I:1 energy=-326.31925027177226 field_type=dipole dipole="0.000000 0.000000 0.000000" charge=0
C	-2.608536	-1.232334	1.047104	6
O	-1.413206	-0.462814	1.029834	8
C	-0.516676	-0.905904	0.011334	6
C	0.749114	-0.035774	0.026024	6
C	1.762884	-0.589944	-0.979396	6
C	0.393284	1.434356	-0.261376	6
N	1.566604	2.305616	-0.219236	7
H	-3.251526	-0.852264	1.845704	1
H	-2.384866	-2.284484	1.248994	1
H	-3.139766	-1.135424	0.095224	1
H	-1.011896	-0.843434	-0.965286	1
H	-0.251986	-1.952484	0.202674	1
H	1.188564	-0.088764	1.031644	1
H	1.378174	-0.529454	-2.002936	1
H	1.986475	-1.640284	-0.764206	1
H	2.708884	-0.041074	-0.938196	1
H	-0.332436	1.800086	0.474254	1
H	-0.072876	1.522296	-1.249366	1
H	1.982394	2.260056	0.712094	1
H	1.267394	3.272026	-0.344886	1
Es	-3.048128	-0.975264	1.590352	99
Es	1.050576	-0.071551	0.714450	99
Es	2.399488	-0.222831	-0.948991	99
Es	-0.858838	-0.864041	-0.667047	99
Es	-1.413304	-0.463113	1.029630	99
Es	0.574674	0.697710	-0.123050	99
Es	-2.455783	-1.960194	1.178953	99
Es	1.054650	1.935970	-0.222112	99
Es	-1.859780	-0.777076	1.012191	99
Es	1.566221	2.305758	-0.218834	99
Es	0.393423	1.434408	-0.261379	99
Es	-0.108523	1.679414	0.242895	99
Es	0.108136	-0.468424	0.017835	99
Es	1.798352	2.280005	0.355533	99
Es	-0.334390	-1.632726	0.139009	99
Es	0.074030	1.490481	-0.944009	99
Es	-2.608358	-1.232224	1.047097	99
Es	-1.095841	-0.655467	0.635061	99
Es	1.762850	-0.589950	-0.979377	99
Es	-1.273023	-0.516699	1.293151	99
Es	1.492513	-0.548922	-1.676748	99
Es	1.908185	-1.310907	-0.828713	99
Es	1.369506	2.888187	-0.280379	99
Es	-2.973052	-1.172839	0.388253	99
Es	-0.516801	-0.905820	0.011491	99
Es	0.749091	-0.035786	0.025982	99
Es	-1.497523	-0.182512	0.948726	99
Es	1.809873	2.221175	-0.462546	99
Es	1.253055	-0.312985	-0.483427	99
49
Properties=species:S:1:pos:R:3:Z:I:1 energy=-326.31925027177226 field_type=dipole dipole="0.000000 0.000000 0.000000" charge=0
C	-2.608536	-1.232334	1.047104	6
O	-1.413206	-0.462814	1.029834	8
C	-0.516676	-0.905904	0.011334	6
C	0.749114	-0.035774	0.026024	6
C	1.762884	-0.589944	-0.979396	6
C	0.393284	1.434356	-0.261376	6
N	1.566604	2.305616	-0.219236	7
H	-3.251526	-0.852264	1.845704	1
H	-2.384866	-2.284484	1.248994	1
H	-3.139766	-1.135424	0.095224	1
H	-1.011896	-0.843434	-0.965286	1
H	-0.251986	-1.952484	0.202674	1
H	1.188564	-0.088764	1.031644	1
H	1.378174	-0.529454	-2.002936	1
H	1.986475	-1.640284	-0.764206	1
H	2.708884	-0.041074	-0.938196	1
H	-0.332436	1.800086	0.474254	1
H	-0.072876	1.522296	-1.249366	1
H	1.982394	2.260056	0.712094	1
H	1.267394	3.272026	-0.344886	1
Es	1.492549	-0.548873	-1.676714	99
Es	-1.096937	-0.653659	0.633396	99
Es	0.108199	-0.468396	0.017839	99
Es	-0.516803	-0.905818	0.011494	99
Es	1.809820	2.221547	-0.462394	99
Es	-1.413304	-0.463039	1.029568	99
Es	-1.860110	-0.776619	1.011614	99
Es	1.253056	-0.313085	-0.483333	99
Es	1.050517	-0.071482	0.714468	99
Es	-3.048215	-0.975221	1.590220	99
Es	-2.455766	-1.960191	1.179085	99
Es	-1.272015	-0.518721	1.293204	99
Es	-2.608349	-1.232218	1.047095	99
Es	1.798448	2.279906	0.355367	99
Es	-0.334433	-1.632685	0.138997	99
Es	-2.972972	-1.172967	0.388228	99
Es	1.762849	-0.589950	-0.979375	99
Es	-0.858802	-0.864104	-0.667018	99
Es	0.073995	1.490520	-0.943962	99
Es	-1.497170	-0.182732	0.951004	99
Es	1.908236	-1.310893	-0.828837	99
Es	1.566213	2.305760	-0.218818	99
Es	1.054670	1.935683	-0.222323	99
Es	0.749087	-0.035783	0.025982	99
Es	0.574652	0.697626	-0.123124	99
Es	2.399464	-0.222851	-0.948999	99
Es	0.393423	1.434407	-0.261378	99
Es	1.369468	2.888236	-0.280165	99
Es	-0.108486	1.679376	0.242878	99
49
Properties=species:S:1:pos:R:3:Z:I:1 energy=-326.31925027177226 field_type=dipole dipole="0.000000 0.000000 0.000000" charge=0
C	-2.608536	-1.232334	1.047104	6
O	-1.413206	-0.462814	1.029834	8
C	-0.516676	-0.905904	0.011334	6
C	0.749114	-0.035774	0.026024	6
C	1.762884	-0.589944	-0.979396	6
C	0.393284	1.434356	-0.261376	6
N	1.566604	2.305616	-0.219236	7
H	-3.251526	-0.852264	1.845704	1
H	-2.384866	-2.284484	1.248994	1
H	-3.139766	-1.135424	0.095224	1
H	-1.011896	-0.843434	-0.965286	1
H	-0.251986	-1.952484	0.202674	1
H	1.188564	-0.088764	1.031644	1
H	1.378174	-0.529454	-2.002936	1
H	1.986475	-1.640284	-0.764206	1
H	2.708884	-0.041074	-0.938196	1
H	-0.332436	1.800086	0.474254	1
H	-0.072876	1.522296	-1.249366	1
H	1.982394	2.260056	0.712094	1
H	1.267394	3.272026	-0.344886	1
Es	1.253039	-0.313088	-0.483376	99
Es	0.074029	1.490487	-0.943890	99
Es	1.762844	-0.589946	-0.979371	99
Es	-0.858861	-0.864163	-0.666991	99
Es	-2.973039	-1.172881	0.388304	99
Es	0.393418	1.434403	-0.261379	99
Es	0.749093	-0.035786	0.025990	99
Es	1.050516	-0.071557	0.714381	99
Es	1.798621	2.279992	0.355448	99
Es	-1.860296	-0.776314	1.012100	99
Es	-0.334421	-1.632634	0.138983	99
Es	-1.496500	-0.181162	0.951786	99
Es	-0.516799	-0.905819	0.011490	99
Es	1.054528	1.935919	-0.222175	99
Es	1.908223	-1.310934	-0.828866	99
Es	-2.455759	-1.960164	1.178894	99
Es	-1.096836	-0.654459	0.633646	99
Es	-1.413268	-0.463078	1.029584	99
Es	2.399450	-0.222855	-0.948930	99
Es	1.809638	2.221329	-0.462473	99
Es	-2.608362	-1.232225	1.047099	99
Es	-1.272577	-0.519780	1.291686	99
Es	0.574715	0.697584	-0.122930	99
Es	-3.048173	-0.975323	1.590369	99
Es	1.492593	-0.548807	-1.676724	99
Es	0.108155	-0.468365	0.017772	99
Es	1.566223	2.305756	-0.218845	99
Es	1.369578	2.888164	-0.280365	99
Es	-0.108490	1.679481	0.242780	99
