45
Properties=species:S:1:pos:R:3:Z:I:1 energy=-341.1089840555504 field_type=dipole dipole="0.000000 0.000000 0.000000" charge=0
C	-0.917610	-2.021281	-0.675857	6
O	-1.218360	-1.127041	0.390173	8
C	-0.770460	0.200469	0.131233	6
C	-1.327661	1.098349	1.226583	6
C	0.745669	0.292289	0.157413	6
N	1.400079	0.728639	-0.872997	7
N	2.738949	0.733299	-0.689397	7
H	-1.397810	-2.980541	-0.461897	1
H	0.161549	-2.187571	-0.746857	1
H	-1.306311	-1.642501	-1.626327	1
H	-1.149151	0.541919	-0.839467	1
H	-1.010431	0.753709	2.217993	1
H	-2.422730	1.076569	1.219693	1
H	-0.995701	2.134369	1.102863	1
H	1.247300	-0.039321	1.086193	1
H	3.201149	0.962009	-1.573577	1
H	3.021529	1.476639	-0.045767	1
Es	-1.026256	-0.633831	0.260250	99
Es	-1.245261	-2.674174	-0.530096	99
Es	2.884460	1.187981	-0.305793	99
Es	-1.522547	-1.103885	0.397584	99
Es	2.073212	0.753931	-0.766925	99
Es	-1.055633	-1.222372	0.633236	99
Es	-1.095862	1.799537	1.134152	99
Es	1.257212	0.825365	-1.206063	99
Es	1.130375	0.269295	-0.500808	99
Es	-0.770459	0.200276	0.131336	99
Es	-1.327639	1.098341	1.226560	99
Es	-1.085589	-1.439795	-0.032832	99
Es	-1.040244	0.651005	0.682452	99
Es	-1.180688	-1.756765	-1.330084	99
Es	1.082419	0.073866	0.790045	99
Es	-1.101877	0.862871	1.895262	99
Es	-1.218235	-1.126960	0.389974	99
Es	0.004529	0.243204	0.141084	99
Es	-0.917662	-2.021132	-0.675681	99
Es	-0.177958	-2.131880	-0.730095	99
Es	2.738672	0.733858	-0.689612	99
Es	1.400367	0.728495	-0.872473	99
Es	0.745638	0.292332	0.157431	99
Es	2.827867	0.421175	-0.567848	99
Es	1.095710	0.817704	-0.311442	99
Es	-2.067193	1.085146	1.214579	99
Es	-1.023990	0.430901	-0.535216	99
Es	3.008084	0.888560	-1.223409	99
45
Properties=species:S:1:pos:R:3:Z:I:1 energy=-341.1089840555504 field_type=dipole dipole="0.000000 0.000000 0.000000" charge=0
C	-0.917610	-2.021281	-0.675857	6
O	-1.218360	-1.127041	0.390173	8
C	-0.770460	0.200469	0.131233	6
C	-1.327661	1.098349	1.226583	6
C	0.745669	0.292289	0.157413	6
N	1.400079	0.728639	-0.872997	7
N	2.738949	0.733299	-0.689397	7
H	-1.397810	-2.980541	-0.461897	1
H	0.161549	-2.187571	-0.746857	1
H	-1.306311	-1.642501	-1.626327	1
H	-1.149151	0.541919	-0.839467	1
H	-1.010431	0.753709	2.217993	1
H	-2.422730	1.076569	1.219693	1
H	-0.995701	2.134369	1.102863	1
H	1.247300	-0.039321	1.086193	1
H	3.201149	0.962009	-1.573577	1
H	3.021529	1.476639	-0.045767	1
Es	-1.327639	1.098341	1.226562	99
Es	-0.177990	-2.131896	-0.730104	99
Es	-1.245218	-2.674153	-0.530118	99
Es	1.095696	0.817902	-0.311472	99
Es	-1.023999	0.430957	-0.535159	99
Es	2.884630	1.187697	-0.305701	99
Es	-0.917663	-2.021138	-0.675688	99
Es	2.738685	0.733855	-0.689615	99
Es	-2.067220	1.085153	1.214588	99
Es	2.827786	0.421331	-0.568046	99
Es	-1.087567	-1.439806	-0.033698	99
Es	-1.095912	1.799474	1.134159	99
Es	1.130495	0.269681	-0.500372	99
Es	1.400366	0.728486	-0.872453	99
Es	-0.770458	0.200272	0.131337	99
Es	-1.053627	-1.222258	0.630671	99
Es	0.745642	0.292326	0.157420	99
Es	-1.101837	0.862914	1.895280	99
Es	-1.025819	-0.634039	0.260233	99
Es	0.004422	0.243105	0.140917	99
Es	1.256945	0.824905	-1.205900	99
Es	-1.218272	-1.126907	0.389787	99
Es	-1.522993	-1.103881	0.401244	99
Es	2.073298	0.754062	-0.767160	99
Es	-1.180712	-1.756750	-1.330108	99
Es	3.008091	0.888667	-1.223511	99
Es	1.082436	0.073707	0.789990	99
Es	-1.040118	0.651046	0.682487	99
45
Properties=species:S:1:pos:R:3:Z:I:1 energy=-341.1089840555504 field_type=dipole dipole="0.000000 0.000000 0.000000" charge=0
C	-0.917610	-2.021281	-0.675857	6
O	-1.218360	-1.127041	0.390173	8
C	-0.770460	0.200469	0.131233	6
C	-1.327661	1.098349	1.226583	6
C	0.745669	0.292289	0.157413	6
N	1.400079	0.728639	-0.872997	7
N	2.738949	0.733299	-0.689397	7
H	-1.397810	-2.980541	-0.461897	1
H	0.161549	-2.187571	-0.746857	1
H	-1.306311	-1.642501	-1.626327	1
H	-1.149151	0.541919	-0.839467	1
H	-1.010431	0.753709	2.217993	1
H	-2.422730	1.076569	1.219693	1
H	-0.995701	2.134369	1.102863	1
H	1.247300	-0.039321	1.086193	1
H	3.201149	0.962009	-1.573577	1
H	3.021529	1.476639	-0.045767	1
Es	2.884512	1.187764	-0.305722	99
Es	1.130346	0.269772	-0.500538	99
Es	1.082568	0.073754	0.790017	99
Es	0.745640	0.292327	0.157430	99
Es	1.256875	0.825232	-1.205922	99
Es	-0.917662	-2.021136	-0.675688	99
Es	-1.180660	-1.756795	-1.330072	99
Es	3.008381	0.888385	-1.223531	99
Es	2.738694	0.733842	-0.689609	99
Es	2.827669	0.421652	-0.567817	99
Es	-0.177999	-2.131909	-0.730123	99
Es	-1.024060	0.430987	-0.535085	99
Es	-0.770463	0.200263	0.131326	99
Es	-1.087166	-1.439986	-0.033640	99
Es	1.400353	0.728489	-0.872467	99
Es	-1.025053	-0.634111	0.260807	99
Es	-1.245267	-2.674167	-0.530116	99
Es	-1.327639	1.098340	1.226561	99
Es	-1.040015	0.651011	0.682531	99
Es	-2.067135	1.085065	1.214625	99
Es	-1.055411	-1.222759	0.631858	99
Es	-1.522461	-1.103032	0.399314	99
Es	1.095746	0.817551	-0.311556	99
Es	0.004427	0.243043	0.140866	99
Es	-1.101900	0.862923	1.895233	99
Es	-1.218179	-1.126951	0.389878	99
Es	-1.095964	1.799599	1.134184	99
Es	2.073273	0.753895	-0.767173	99
45
Properties=species:S:1:pos:R:3:Z:I:1 energy=-341.1089840555504 field_type=dipole dipole="0.000000 0.000000 0.000000" charge=0
C	-0.917610	-2.021281	-0.675857	6
O	-1.218360	-1.127041	0.390173	8
C	-0.770460	0.200469	0.131233	6
C	-1.327661	1.098349	1.226583	6
C	0.745669	0.292289	0.157413	6
N	1.400079	0.728639	-0.872997	7
N	2.738949	0.733299	-0.689397	7
H	-1.397810	-2.980541	-0.461897	1
H	0.161549	-2.187571	-0.746857	1
H	-1.306311	-1.642501	-1.626327	1
H	-1.149151	0.541919	-0.839467	1
H	-1.010431	0.753709	2.217993	1
H	-2.422730	1.076569	1.219693	1
H	-0.995701	2.134369	1.102863	1
H	1.247300	-0.039321	1.086193	1
H	3.201149	0.962009	-1.573577	1
H	3.021529	1.476639	-0.045767	1
Es	-1.040186	0.651039	0.682426	99
Es	-1.218222	-1.126968	0.389949	99
Es	-0.917661	-2.021131	-0.675685	99
Es	-1.025072	-0.633969	0.260788	99
Es	-0.177984	-2.131895	-0.730141	99
Es	-1.023906	0.430907	-0.535093	99
Es	-2.067202	1.085178	1.214716	99
Es	-1.521900	-1.102957	0.399133	99
Es	0.004312	0.243098	0.140818	99
Es	2.073381	0.753713	-0.767225	99
Es	1.082496	0.073653	0.789999	99
Es	1.257216	0.824691	-1.205707	99
Es	-1.087349	-1.440261	-0.033664	99
Es	1.095423	0.818053	-0.311718	99
Es	-1.180676	-1.756843	-1.330060	99
Es	1.130313	0.269928	-0.500425	99
Es	2.827477	0.421886	-0.568454	99
Es	-0.770458	0.200275	0.131334	99
Es	2.738707	0.733848	-0.689606	99
Es	-1.245250	-2.674166	-0.530099	99
Es	0.745639	0.292328	0.157430	99
Es	2.884739	1.187485	-0.305139	99
Es	1.400344	0.728488	-0.872464	99
Es	3.008390	0.888598	-1.223446	99
Es	-1.055723	-1.222732	0.631972	99
Es	-1.095949	1.799448	1.134124	99
Es	-1.327640	1.098339	1.226559	99
Es	-1.101805	0.863016	1.895249	99
45
Properties=species:S:1:pos:R:3:Z:I:1 energy=-341.1089840555504 field_type=dipole dipole="0.000000 0.000000 0.000000" charge=0
C	-0.917610	-2.021281	-0.675857	6
O	-1.218360	-1.127041	0.390173	8
C	-0.770460	0.200469	0.131233	6
C	-1.327661	1.098349	1.226583	6
C	0.745669	0.292289	0.157413	6
N	1.400079	0.728639	-0.872997	7
N	2.738949	0.733299	-0.689397	7
H	-1.397810	-2.980541	-0.461897	1
H	0.161549	-2.187571	-0.746857	1
H	-1.306311	-1.642501	-1.626327	1
H	-1.149151	0.541919	-0.839467	1
H	-1.010431	0.753709	2.217993	1
H	-2.422730	1.076569	1.219693	1
H	-0.995701	2.134369	1.102863	1
H	1.247300	-0.039321	1.086193	1
H	3.201149	0.962009	-1.573577	1
H	3.021529	1.476639	-0.045767	1
Es	1.082451	0.073703	0.790006	99
Es	-0.177963	-2.131844	-0.730212	99
Es	-1.180691	-1.756923	-1.329985	99
Es	2.073474	0.753875	-0.767412	99
Es	2.738695	0.733857	-0.689605	99
Es	-1.056522	-1.223643	0.632575	99
Es	-1.327639	1.098341	1.226561	99
Es	0.004182	0.243143	0.140862	99
Es	3.008666	0.888269	-1.223648	99
Es	1.095550	0.817789	-0.311653	99
Es	-2.067158	1.085255	1.214687	99
Es	0.745637	0.292317	0.157429	99
Es	-1.245187	-2.674168	-0.530170	99
Es	-1.218139	-1.126936	0.389906	99
Es	-1.521821	-1.101809	0.398400	99
Es	-1.023777	0.430842	-0.535168	99
Es	2.884513	1.187566	-0.305571	99
Es	-1.040277	0.651086	0.682388	99
Es	1.130267	0.269691	-0.500645	99
Es	1.400355	0.728489	-0.872462	99
Es	-0.770461	0.200272	0.131336	99
Es	-1.023790	-0.634503	0.261255	99
Es	-1.095900	1.799443	1.134163	99
Es	-1.088038	-1.439978	-0.033889	99
Es	2.827504	0.422135	-0.567901	99
Es	-1.101874	0.862967	1.895269	99
Es	1.257059	0.824949	-1.205258	99
Es	-0.917662	-2.021136	-0.675688	99
45
Properties=species:S:1:pos:R:3:Z:I:1 energy=-341.1089840555504 field_type=dipole dipole="0.000000 0.000000 0.000000" charge=0
C	-0.917610	-2.021281	-0.675857	6
O	-1.218360	-1.127041	0.390173	8
C	-0.770460	0.200469	0.131233	6
C	-1.327661	1.098349	1.226583	6
C	0.745669	0.292289	0.157413	6
N	1.400079	0.728639	-0.872997	7
N	2.738949	0.733299	-0.689397	7
H	-1.397810	-2.980541	-0.461897	1
H	0.161549	-2.187571	-0.746857	1
H	-1.306311	-1.642501	-1.626327	1
H	-1.149151	0.541919	-0.839467	1
H	-1.010431	0.753709	2.217993	1
H	-2.422730	1.076569	1.219693	1
H	-0.995701	2.134369	1.102863	1
H	1.247300	-0.039321	1.086193	1
H	3.201149	0.962009	-1.573577	1
H	3.021529	1.476639	-0.045767	1
Es	-1.101747	0.863217	1.895282	99
Es	1.095456	0.817750	-0.311760	99
Es	1.257150	0.824875	-1.205338	99
Es	-0.178059	-2.132026	-0.730092	99
Es	1.130155	0.269885	-0.500652	99
Es	-1.055682	-1.222632	0.631467	99
Es	-1.096105	1.799486	1.133972	99
Es	-1.023648	0.430787	-0.535143	99
Es	-1.040273	0.651110	0.682445	99
Es	-1.245357	-2.674133	-0.530249	99
Es	3.008582	0.888397	-1.223542	99
Es	2.884483	1.187609	-0.305534	99
Es	0.004103	0.243119	0.140961	99
Es	-1.521879	-1.102908	0.399859	99
Es	-1.327640	1.098342	1.226562	99
Es	0.745640	0.292314	0.157425	99
Es	2.073443	0.753545	-0.767275	99
Es	-1.180505	-1.756770	-1.330053	99
Es	-0.770459	0.200274	0.131335	99
Es	-1.087836	-1.440484	-0.033454	99
Es	2.738690	0.733861	-0.689611	99
Es	1.082574	0.073689	0.789956	99
Es	-1.024698	-0.633912	0.260518	99
Es	-0.917662	-2.021136	-0.675688	99
Es	-1.218178	-1.126948	0.389861	99
Es	-2.067153	1.085046	1.214799	99
Es	1.400358	0.728489	-0.872469	99
Es	2.827697	0.422204	-0.568013	99
45
Properties=species:S:1:pos:R:3:Z:I:1 energy=-341.1089840555504 field_type=dipole dipole="0.000000 0.000000 0.000000" charge=0
C	-0.917610	-2.021281	-0.675857	6
O	-1.218360	-1.127041	0.390173	8
C	-0.770460	0.200469	0.131233	6
C	-1.327661	1.098349	1.226583	6
C	0.745669	0.292289	0.157413	6
N	1.400079	0.728639	-0.872997	7
N	2.738949	0.733299	-0.689397	7
H	-1.397810	-2.980541	-0.461897	1
H	0.161549	-2.187571	-0.746857	1
H	-1.306311	-1.642501	-1.626327	1
H	-1.149151	0.541919	-0.839467	1
H	-1.010431	0.753709	2.217993	1
H	-2.422730	1.076569	1.219693	1
H	-0.995701	2.134369	1.102863	1
H	1.247300	-0.039321	1.086193	1
H	3.201149	0.962009	-1.573577	1
H	3.021529	1.476639	-0.045767	1
Es	1.256962	0.824757	-1.204840	99
Es	-1.521404	-1.101335	0.396276	99
Es	1.095456	0.817684	-0.311791	99
Es	0.004029	0.243155	0.140783	99
Es	1.082588	0.073674	0.789959	99
Es	-0.917662	-2.021139	-0.675690	99
Es	0.745641	0.292332	0.157427	99
Es	-2.067181	1.085299	1.214699	99
Es	-0.770458	0.200275	0.131335	99
Es	-1.101873	0.863044	1.895285	99
Es	-1.086305	-1.441078	-0.033031	99
Es	1.400359	0.728490	-0.872464	99
Es	-1.218236	-1.126904	0.389899	99
Es	-1.180647	-1.756911	-1.330047	99
Es	-1.059521	-1.223218	0.633183	99
Es	-0.178122	-2.131818	-0.730218	99
Es	-1.040236	0.651101	0.682471	99
Es	1.130182	0.269800	-0.500643	99
Es	3.008723	0.888079	-1.223708	99
Es	-1.095889	1.799382	1.134123	99
Es	-1.022772	-0.634329	0.261902	99
Es	2.884647	1.187515	-0.305605	99
Es	-1.023772	0.430838	-0.535076	99
Es	2.827326	0.422253	-0.567825	99
Es	-1.327639	1.098340	1.226560	99
Es	-1.245139	-2.674261	-0.530115	99
Es	2.073672	0.754232	-0.767663	99
Es	2.738721	0.733794	-0.689618	99
45
Properties=species:S:1:pos:R:3:Z:I:1 energy=-341.1089840555504 field_type=dipole dipole="0.000000 0.000000 0.000000" charge=0
C	-0.917610	-2.021281	-0.675857	6
O	-1.218360	-1.127041	0.390173	8
C	-0.770460	0.200469	0.131233	6
C	-1.327661	1.098349	1.226583	6
C	0.745669	0.292289	0.157413	6
N	1.400079	0.728639	-0.872997	7
N	2.738949	0.733299	-0.689397	7
H	-1.397810	-2.980541	-0.461897	1
H	0.161549	-2.187571	-0.746857	1
H	-1.306311	-1.642501	-1.626327	1
H	-1.149151	0.541919	-0.839467	1
H	-1.010431	0.753709	2.217993	1
H	-2.422730	1.076569	1.219693	1
H	-0.995701	2.134369	1.102863	1
H	1.247300	-0.039321	1.086193	1
H	3.201149	0.962009	-1.573577	1
H	3.021529	1.476639	-0.045767	1
Es	2.884810	1.187472	-0.305326	99
Es	-1.327640	1.098338	1.226571	99
Es	0.003932	0.243115	0.140804	99
Es	-0.770460	0.200277	0.131335	99
Es	1.256969	0.824771	-1.204867	99
Es	-2.067158	1.085227	1.214812	99
Es	0.745639	0.292338	0.157432	99
Es	-1.218219	-1.126885	0.389774	99
Es	-1.057265	-1.222538	0.631919	99
Es	-1.095992	1.799421	1.134181	99
Es	-1.520810	-1.102821	0.398989	99
Es	-1.023698	0.430796	-0.535109	99
Es	-1.245174	-2.674245	-0.530170	99
Es	2.738695	0.733844	-0.689611	99
Es	2.827289	0.422686	-0.568158	99
Es	3.008793	0.887971	-1.223640	99
Es	2.073535	0.753836	-0.767678	99
Es	-1.087235	-1.441071	-0.033560	99
Es	-1.040186	0.651192	0.682383	99
Es	-0.178121	-2.131846	-0.730258	99
Es	-1.101830	0.863071	1.895201	99
Es	1.082631	0.073651	0.789917	99
Es	-0.917662	-2.021138	-0.675689	99
Es	1.400332	0.728488	-0.872463	99
Es	1.130140	0.269953	-0.500618	99
Es	-1.024712	-0.633557	0.261188	99
Es	1.095497	0.817583	-0.311785	99
Es	-1.180647	-1.756877	-1.330007	99
45
Properties=species:S:1:pos:R:3:Z:I:1 energy=-341.1089840555504 field_type=dipole dipole="0.000000 0.000000 0.000000" charge=0
C	-0.917610	-2.021281	-0.675857	6
O	-1.218360	-1.127041	0.390173	8
C	-0.770460	0.200469	0.131233	6
C	-1.327661	1.098349	1.226583	6
C	0.745669	0.292289	0.157413	6
N	1.400079	0.728639	-0.872997	7
N	2.738949	0.733299	-0.689397	7
H	-1.397810	-2.980541	-0.461897	1
H	0.161549	-2.187571	-0.746857	1
H	-1.306311	-1.642501	-1.626327	1
H	-1.149151	0.541919	-0.839467	1
H	-1.010431	0.753709	2.217993	1
H	-2.422730	1.076569	1.219693	1
H	-0.995701	2.134369	1.102863	1
H	1.247300	-0.039321	1.086193	1
H	3.201149	0.962009	-1.573577	1
H	3.021529	1.476639	-0.045767	1
Es	-1.023687	0.430805	-0.535047	99
Es	0.003874	0.243062	0.140669	99
Es	1.082657	0.073647	0.789945	99
Es	0.745638	0.292329	0.157430	99
Es	-1.023108	-0.634152	0.261824	99
Es	1.400344	0.728495	-0.872475	99
Es	-1.520820	-1.101363	0.396682	99
Es	-1.095818	1.799359	1.134281	99
Es	-1.059528	-1.223060	0.633152	99
Es	-0.178085	-2.131877	-0.730234	99
Es	-0.770459	0.200275	0.131335	99
Es	-2.067180	1.085400	1.214673	99
Es	1.095441	0.817555	-0.311853	99
Es	1.256968	0.824788	-1.204676	99
Es	3.008772	0.888310	-1.223560	99
Es	-1.180594	-1.756911	-1.329980	99
Es	2.738690	0.733850	-0.689607	99
Es	-1.102027	0.863016	1.895219	99
Es	2.827323	0.422668	-0.568505	99
Es	-1.218083	-1.126972	0.389856	99
Es	2.073584	0.753767	-0.767717	99
Es	-1.086771	-1.441356	-0.033210	99
Es	-1.040140	0.651163	0.682423	99
Es	-1.245189	-2.674202	-0.530238	99
Es	-1.327640	1.098341	1.226565	99
Es	-0.917661	-2.021139	-0.675691	99
Es	2.884852	1.187215	-0.305056	99
Es	1.130099	0.270038	-0.500637	99
45
Properties=species:S:1:pos:R:3:Z:I:1 energy=-341.1089840555504 field_type=dipole dipole="0.000000 0.000000 0.000000" charge=0
C	-0.917610	-2.021281	-0.675857	6
O	-1.218360	-1.127041	0.390173	8
C	-0.770460	0.200469	0.131233	6
C	-1.327661	1.098349	1.226583	6
C	0.745669	0.292289	0.157413	6
N	1.400079	0.728639	-0.872997	7
N	2.738949	0.733299	-0.689397	7
H	-1.397810	-2.980541	-0.461897	1
H	0.161549	-2.187571	-0.746857	1
H	-1.306311	-1.642501	-1.626327	1
H	-1.149151	0.541919	-0.839467	1
H	-1.010431	0.753709	2.217993	1
H	-2.422730	1.076569	1.219693	1
H	-0.995701	2.134369	1.102863	1
H	1.247300	-0.039321	1.086193	1
H	3.201149	0.962009	-1.573577	1
H	3.021529	1.476639	-0.045767	1
Es	1.082685	0.073602	0.789916	99
Es	-1.095968	1.799361	1.134206	99
Es	-1.245171	-2.674227	-0.530242	99
Es	0.745639	0.292326	0.157428	99
Es	-1.218233	-1.126932	0.389828	99
Es	-1.101904	0.863093	1.895259	99
Es	-1.521239	-1.103179	0.399603	99
Es	-1.057072	-1.221818	0.631214	99
Es	2.738692	0.733872	-0.689613	99
Es	-0.178175	-2.131896	-0.730187	99
Es	-1.024802	-0.633544	0.260796	99
Es	0.003830	0.243053	0.140726	99
Es	1.095533	0.817442	-0.311841	99
Es	-0.917662	-2.021137	-0.675688	99
Es	1.256609	0.824612	-1.204513	99
Es	-1.180540	-1.756874	-1.330049	99
Es	2.073867	0.754302	-0.768218	99
Es	3.009073	0.888028	-1.223658	99
Es	-1.086952	-1.441453	-0.033104	99
Es	-0.770458	0.200278	0.131335	99
Es	2.826646	0.422818	-0.568751	99
Es	-1.040239	0.651271	0.682324	99
Es	2.885100	1.186965	-0.304619	99
Es	-1.023558	0.430721	-0.535052	99
Es	1.400338	0.728487	-0.872460	99
Es	-2.067140	1.085315	1.214761	99
Es	1.130193	0.270226	-0.500392	99
Es	-1.327639	1.098341	1.226561	99
45
Properties=species:S:1:pos:R:3:Z:I:1 energy=-341.1089840555504 field_type=dipole dipole="0.000000 0.000000 0.000000" charge=0
C	-0.917610	-2.021281	-0.675857	6
O	-1.218360	-1.127041	0.390173	8
C	-0.770460	0.200469	0.131233	6
C	-1.327661	1.098349	1.226583	6
C	0.745669	0.292289	0.157413	6
N	1.400079	0.728639	-0.872997	7
N	2.738949	0.733299	-0.689397	7
H	-1.397810	-2.980541	-0.461897	1
H	0.161549	-2.187571	-0.746857	1
H	-1.306311	-1.642501	-1.626327	1
H	-1.149151	0.541919	-0.839467	1
H	-1.010431	0.753709	2.217993	1
H	-2.422730	1.076569	1.219693	1
H	-0.995701	2.134369	1.102863	1
H	1.247300	-0.039321	1.086193	1
H	3.201149	0.962009	-1.573577	1
H	3.021529	1.476639	-0.045767	1
Es	2.738688	0.733856	-0.689600	99
Es	2.884973	1.187209	-0.304964	99
Es	-1.180545	-1.756918	-1.330028	99
Es	1.256917	0.824353	-1.204507	99
Es	-0.770459	0.200278	0.131335	99
Es	-1.025374	-0.632945	0.261042	99
Es	0.003759	0.243106	0.140589	99
Es	1.095283	0.817604	-0.311997	99
Es	-1.023636	0.430748	-0.534982	99
Es	-0.917661	-2.021140	-0.675692	99
Es	1.082704	0.073543	0.789898	99
Es	1.400354	0.728489	-0.872463	99
Es	-1.040144	0.651233	0.682466	99
Es	-1.520885	-1.104042	0.402435	99
Es	-1.088203	-1.441381	-0.033986	99
Es	2.073650	0.753652	-0.767794	99
Es	-1.055560	-1.221605	0.628993	99
Es	-1.327640	1.098342	1.226562	99
Es	-1.245143	-2.674241	-0.530242	99
Es	2.826955	0.423586	-0.568412	99
Es	-1.095897	1.799386	1.134251	99
Es	-1.101920	0.863114	1.895128	99
Es	-2.067220	1.085301	1.214818	99
Es	-0.178186	-2.131867	-0.730222	99
Es	3.009167	0.887663	-1.223814	99
Es	0.745641	0.292330	0.157425	99
Es	-1.218261	-1.126919	0.389825	99
Es	1.130095	0.270318	-0.500490	99
45
Properties=species:S:1:pos:R:3:Z:I:1 energy=-341.1089840555504 field_type=dipole dipole="0.000000 0.000000 0.000000" charge=0
C	-0.917610	-2.021281	-0.675857	6
O	-1.218360	-1.127041	0.390173	8
C	-0.770460	0.200469	0.131233	6
C	-1.327661	1.098349	1.226583	6
C	0.745669	0.292289	0.157413	6
N	1.400079	0.728639	-0.872997	7
N	2.738949	0.733299	-0.689397	7
H	-1.397810	-2.980541	-0.461897	1
H	0.161549	-2.187571	-0.746857	1
H	-1.306311	-1.642501	-1.626327	1
H	-1.149151	0.541919	-0.839467	1
H	-1.010431	0.753709	2.217993	1
H	-2.422730	1.076569	1.219693	1
H	-0.995701	2.134369	1.102863	1
H	1.247300	-0.039321	1.086193	1
H	3.201149	0.962009	-1.573577	1
H	3.021529	1.476639	-0.045767	1
Es	-2.067119	1.085313	1.214764	99
Es	-1.096016	1.799338	1.134182	99
Es	-1.327639	1.098342	1.226563	99
Es	-1.520332	-1.103040	0.399176	99
Es	1.256783	0.824784	-1.204261	99
Es	-0.770459	0.200279	0.131334	99
Es	0.003701	0.242949	0.140556	99
Es	1.130005	0.270236	-0.500601	99
Es	-1.245178	-2.674240	-0.530279	99
Es	-0.917661	-2.021139	-0.675691	99
Es	-1.101934	0.863179	1.895281	99
Es	2.073761	0.754167	-0.767946	99
Es	-0.178187	-2.131888	-0.730255	99
Es	1.095427	0.817375	-0.311951	99
Es	-1.218165	-1.126923	0.389840	99
Es	-1.040098	0.651222	0.682441	99
Es	3.008990	0.888087	-1.223610	99
Es	-1.023594	0.430767	-0.534992	99
Es	1.400352	0.728489	-0.872468	99
Es	2.826460	0.423244	-0.569437	99
Es	2.738690	0.733833	-0.689602	99
Es	2.885612	1.186587	-0.304127	99
Es	-1.057544	-1.222387	0.631704	99
Es	-1.087340	-1.441214	-0.033592	99
Es	1.082717	0.073623	0.789913	99
Es	-1.024901	-0.633333	0.261180	99
Es	0.745640	0.292331	0.157426	99
Es	-1.180517	-1.756930	-1.329980	99
45
Properties=species:S:1:pos:R:3:Z:I:1 energy=-341.1089840555504 field_type=dipole dipole="0.000000 0.000000 0.000000" charge=0
C	-0.917610	-2.021281	-0.675857	6
O	-1.218360	-1.127041	0.390173	8
C	-0.770460	0.200469	0.131233	6
C	-1.327661	1.098349	1.226583	6
C	0.745669	0.292289	0.157413	6
N	1.400079	0.728639	-0.872997	7
N	2.738949	0.733299	-0.689397	7
H	-1.397810	-2.980541	-0.461897	1
H	0.161549	-2.187571	-0.746857	1
H	-1.306311	-1.642501	-1.626327	1
H	-1.149151	0.541919	-0.839467	1
H	-1.010431	0.753709	2.217993	1
H	-2.422730	1.076569	1.219693	1
H	-0.995701	2.134369	1.102863	1
H	1.247300	-0.039321	1.086193	1
H	3.201149	0.962009	-1.573577	1
H	3.021529	1.476639	-0.045767	1
Es	-1.520482	-1.104433	0.402481	99
Es	1.400348	0.728489	-0.872468	99
Es	1.082790	0.073591	0.789911	99
Es	-2.067078	1.085229	1.214762	99
Es	3.009081	0.887754	-1.223694	99
Es	-1.026048	-0.632693	0.260674	99
Es	2.827087	0.423481	-0.568437	99
Es	1.095389	0.817290	-0.312032	99
Es	0.003617	0.242905	0.140557	99
Es	0.745637	0.292331	0.157429	99
Es	-1.023478	0.430700	-0.535001	99
Es	-1.096069	1.799415	1.134204	99
Es	-1.327641	1.098342	1.226563	99
Es	2.073742	0.753745	-0.768087	99
Es	1.130067	0.270458	-0.500427	99
Es	-1.101958	0.863176	1.895265	99
Es	-0.770458	0.200287	0.131336	99
Es	2.738683	0.733846	-0.689622	99
Es	1.256653	0.824556	-1.204217	99
Es	2.884999	1.187218	-0.305014	99
Es	-0.178190	-2.131924	-0.730278	99
Es	-1.218207	-1.126932	0.389823	99
Es	-1.180516	-1.756922	-1.329955	99
Es	-1.040095	0.651340	0.682419	99
Es	-1.088046	-1.441551	-0.033814	99
Es	-1.055513	-1.221287	0.629187	99
Es	-1.245202	-2.674216	-0.530298	99
Es	-0.917661	-2.021143	-0.675696	99
45
Properties=species:S:1:pos:R:3:Z:I:1 energy=-341.1089840555504 field_type=dipole dipole="0.000000 0.000000 0.000000" charge=0
C	-0.917610	-2.021281	-0.675857	6
O	-1.218360	-1.127041	0.390173	8
C	-0.770460	0.200469	0.131233	6
C	-1.327661	1.098349	1.226583	6
C	0.745669	0.292289	0.157413	6
N	1.400079	0.728639	-0.872997	7
N	2.738949	0.733299	-0.689397	7
H	-1.397810	-2.980541	-0.461897	1
H	0.161549	-2.187571	-0.746857	1
H	-1.306311	-1.642501	-1.626327	1
H	-1.149151	0.541919	-0.839467	1
H	-1.010431	0.753709	2.217993	1
H	-2.422730	1.076569	1.219693	1
H	-0.995701	2.134369	1.102863	1
H	1.247300	-0.039321	1.086193	1
H	3.201149	0.962009	-1.573577	1
H	3.021529	1.476639	-0.045767	1
Es	-1.519777	-1.103104	0.399455	99
Es	0.745641	0.292333	0.157427	99
Es	1.400349	0.728491	-0.872474	99
Es	-1.245187	-2.674230	-0.530307	99
Es	-0.178247	-2.131922	-0.730255	99
Es	2.827247	0.423584	-0.568169	99
Es	2.738701	0.733833	-0.689606	99
Es	-1.024625	-0.632910	0.261648	99
Es	-1.095996	1.799305	1.134274	99
Es	3.009218	0.887752	-1.223699	99
Es	-0.770454	0.200283	0.131335	99
Es	-2.067170	1.085344	1.214813	99
Es	-1.023501	0.430686	-0.534927	99
Es	2.073777	0.753550	-0.768213	99
Es	-1.218238	-1.126927	0.389847	99
Es	-1.040098	0.651371	0.682393	99
Es	1.256692	0.824509	-1.204078	99
Es	-1.327639	1.098341	1.226561	99
Es	1.130036	0.270459	-0.500493	99
Es	0.003560	0.242950	0.140449	99
Es	1.082779	0.073592	0.789894	99
Es	-1.058187	-1.222318	0.631046	99
Es	-0.917659	-2.021149	-0.675696	99
Es	-1.101934	0.863172	1.895208	99
Es	-1.087447	-1.441644	-0.033641	99
Es	1.095377	0.817292	-0.312023	99
Es	-1.180475	-1.756922	-1.329989	99
Es	2.884711	1.187326	-0.305209	99
