46
Properties=species:S:1:pos:R:3:Z:I:1 energy=-325.1276877210381 field_type=dipole dipole="0.000000 0.000000 0.000000" charge=0
C	0.179260	-2.247800	0.397409	6
O	-0.236089	-0.968890	0.860239	8
C	-0.356209	-0.000570	-0.196241	6
C	-1.196189	1.186520	0.350079	6
N	-0.623249	1.817620	1.550939	7
C	1.014371	0.443440	-0.639391	6
C	1.484820	0.335070	-1.890471	6
H	0.141491	-2.943570	1.240319	1
H	1.208691	-2.215020	0.029059	1
H	-0.491489	-2.616330	-0.384771	1
H	-0.916429	-0.445710	-1.028771	1
H	-2.188509	0.807130	0.621879	1
H	-1.328679	1.948770	-0.425391	1
H	-0.370729	1.062450	2.193539	1
H	-1.342709	2.365670	2.017269	1
H	1.645541	0.883930	0.129659	1
H	0.891661	-0.093790	-2.691191	1
H	2.484451	0.681080	-2.134161	1
Es	-1.283620	1.701356	-0.187304	99
Es	1.126875	0.680292	-1.347143	99
Es	1.484849	0.335066	-1.890571	99
Es	1.368049	0.088137	-1.208824	99
Es	1.084192	0.043282	-2.437992	99
Es	-0.492400	1.362414	1.936370	99
Es	2.160709	0.567095	-2.064696	99
Es	1.434173	0.733717	-0.117284	99
Es	-0.882149	1.533452	1.036575	99
Es	-0.737065	-0.307171	-0.774379	99
Es	-0.280597	-2.497975	-0.147414	99
Es	0.337557	0.222584	-0.427882	99
Es	-0.356164	-0.000669	-0.196057	99
Es	-0.522740	-1.006324	0.967867	99
Es	-0.011118	-0.864734	1.039248	99
Es	-0.753876	0.599001	0.082098	99
Es	-1.882825	0.916750	0.523842	99
Es	0.179182	-2.247594	0.397479	99
Es	-1.074130	2.133299	1.827693	99
Es	-0.338642	2.018365	1.474664	99
Es	1.014303	0.443433	-0.639303	99
Es	-0.265676	-0.628315	0.435415	99
Es	0.880796	-2.227672	0.138904	99
Es	0.152160	-2.721421	0.971243	99
Es	-0.236057	-0.968887	0.860085	99
Es	-1.196084	1.186541	0.350181	99
Es	-0.074514	-1.439999	0.649341	99
Es	-0.623673	1.817314	1.551032	99
46
Properties=species:S:1:pos:R:3:Z:I:1 energy=-325.1276877210381 field_type=dipole dipole="0.000000 0.000000 0.000000" charge=0
C	0.179260	-2.247800	0.397409	6
O	-0.236089	-0.968890	0.860239	8
C	-0.356209	-0.000570	-0.196241	6
C	-1.196189	1.186520	0.350079	6
N	-0.623249	1.817620	1.550939	7
C	1.014371	0.443440	-0.639391	6
C	1.484820	0.335070	-1.890471	6
H	0.141491	-2.943570	1.240319	1
H	1.208691	-2.215020	0.029059	1
H	-0.491489	-2.616330	-0.384771	1
H	-0.916429	-0.445710	-1.028771	1
H	-2.188509	0.807130	0.621879	1
H	-1.328679	1.948770	-0.425391	1
H	-0.370729	1.062450	2.193539	1
H	-1.342709	2.365670	2.017269	1
H	1.645541	0.883930	0.129659	1
H	0.891661	-0.093790	-2.691191	1
H	2.484451	0.681080	-2.134161	1
Es	0.152174	-2.721436	0.971228	99
Es	0.337451	0.222727	-0.427820	99
Es	-1.283600	1.701312	-0.187315	99
Es	-0.236034	-0.968962	0.859913	99
Es	-1.882828	0.916793	0.523820	99
Es	-0.753931	0.598971	0.082079	99
Es	-0.492884	1.362579	1.936399	99
Es	-0.264903	-0.628264	0.435577	99
Es	1.434264	0.733930	-0.117329	99
Es	-0.882512	1.533223	1.036947	99
Es	1.484849	0.335068	-1.890573	99
Es	-0.522825	-1.006844	0.965090	99
Es	2.160641	0.567259	-2.064787	99
Es	-0.356163	-0.000672	-0.196052	99
Es	-1.073825	2.133898	1.827665	99
Es	-0.280597	-2.497972	-0.147364	99
Es	1.126877	0.679878	-1.346979	99
Es	-0.074300	-1.439871	0.649357	99
Es	0.880790	-2.227681	0.138854	99
Es	1.014311	0.443423	-0.639305	99
Es	0.179182	-2.247594	0.397482	99
Es	-0.737007	-0.307206	-0.774429	99
Es	-0.623688	1.817314	1.551050	99
Es	-0.012007	-0.864305	1.042062	99
Es	1.084097	0.043408	-2.437985	99
Es	-0.338077	2.017866	1.474292	99
Es	1.368150	0.087958	-1.208871	99
Es	-1.196089	1.186539	0.350179	99
46
Properties=species:S:1:pos:R:3:Z:I:1 energy=-325.1276877210381 field_type=dipole dipole="0.000000 0.000000 0.000000" charge=0
C	0.179260	-2.247800	0.397409	6
O	-0.236089	-0.968890	0.860239	8
C	-0.356209	-0.000570	-0.196241	6
C	-1.196189	1.186520	0.350079	6
N	-0.623249	1.817620	1.550939	7
C	1.014371	0.443440	-0.639391	6
C	1.484820	0.335070	-1.890471	6
H	0.141491	-2.943570	1.240319	1
H	1.208691	-2.215020	0.029059	1
H	-0.491489	-2.616330	-0.384771	1
H	-0.916429	-0.445710	-1.028771	1
H	-2.188509	0.807130	0.621879	1
H	-1.328679	1.948770	-0.425391	1
H	-0.370729	1.062450	2.193539	1
H	-1.342709	2.365670	2.017269	1
H	1.645541	0.883930	0.129659	1
H	0.891661	-0.093790	-2.691191	1
H	2.484451	0.681080	-2.134161	1
Es	-1.283609	1.701257	-0.187289	99
Es	-0.492738	1.362390	1.936487	99
Es	2.160676	0.567202	-2.064685	99
Es	-0.356161	-0.000675	-0.196050	99
Es	1.368046	0.088132	-1.208882	99
Es	1.084185	0.043303	-2.438025	99
Es	-0.881753	1.533726	1.035924	99
Es	-0.623688	1.817302	1.551029	99
Es	-0.753954	0.598911	0.081985	99
Es	-0.075545	-1.440245	0.649216	99
Es	1.014310	0.443429	-0.639309	99
Es	-0.736983	-0.307213	-0.774405	99
Es	-1.882815	0.916834	0.523782	99
Es	-0.011368	-0.864595	1.042252	99
Es	0.152228	-2.721466	0.971251	99
Es	1.434315	0.733856	-0.117373	99
Es	-0.521890	-1.006373	0.964914	99
Es	1.484847	0.335065	-1.890567	99
Es	-0.236054	-0.968925	0.860071	99
Es	-0.338770	2.018167	1.475445	99
Es	-1.074040	2.133342	1.827504	99
Es	-1.196088	1.186541	0.350180	99
Es	0.179184	-2.247596	0.397480	99
Es	-0.280567	-2.497988	-0.147355	99
Es	0.880725	-2.227665	0.138829	99
Es	-0.265303	-0.628048	0.435582	99
Es	1.126898	0.679951	-1.347012	99
Es	0.337428	0.222722	-0.427793	99
46
Properties=species:S:1:pos:R:3:Z:I:1 energy=-325.1276877210381 field_type=dipole dipole="0.000000 0.000000 0.000000" charge=0
C	0.179260	-2.247800	0.397409	6
O	-0.236089	-0.968890	0.860239	8
C	-0.356209	-0.000570	-0.196241	6
C	-1.196189	1.186520	0.350079	6
N	-0.623249	1.817620	1.550939	7
C	1.014371	0.443440	-0.639391	6
C	1.484820	0.335070	-1.890471	6
H	0.141491	-2.943570	1.240319	1
H	1.208691	-2.215020	0.029059	1
H	-0.491489	-2.616330	-0.384771	1
H	-0.916429	-0.445710	-1.028771	1
H	-2.188509	0.807130	0.621879	1
H	-1.328679	1.948770	-0.425391	1
H	-0.370729	1.062450	2.193539	1
H	-1.342709	2.365670	2.017269	1
H	1.645541	0.883930	0.129659	1
H	0.891661	-0.093790	-2.691191	1
H	2.484451	0.681080	-2.134161	1
Es	-0.236071	-0.968983	0.859872	99
Es	1.084128	0.043335	-2.438002	99
Es	-1.283613	1.701219	-0.187285	99
Es	1.367977	0.088323	-1.208886	99
Es	-0.523057	-1.007840	0.961165	99
Es	-1.882810	0.916834	0.523756	99
Es	1.484847	0.335065	-1.890568	99
Es	-0.280539	-2.497967	-0.147370	99
Es	1.014308	0.443432	-0.639313	99
Es	-0.338893	2.018251	1.475252	99
Es	-1.196089	1.186540	0.350179	99
Es	-0.356164	-0.000672	-0.196055	99
Es	-1.073934	2.133322	1.827489	99
Es	0.152197	-2.721488	0.971220	99
Es	-0.753954	0.599041	0.082018	99
Es	-0.072459	-1.439762	0.649903	99
Es	0.880700	-2.227721	0.138862	99
Es	-0.736915	-0.307198	-0.774426	99
Es	0.337281	0.222499	-0.427809	99
Es	-0.015417	-0.864243	1.045322	99
Es	1.434353	0.733788	-0.117333	99
Es	-0.623699	1.817279	1.551054	99
Es	-0.263052	-0.627373	0.435777	99
Es	1.126945	0.679924	-1.347030	99
Es	-0.492547	1.362553	1.936596	99
Es	2.160724	0.567217	-2.064709	99
Es	0.179183	-2.247595	0.397483	99
Es	-0.881912	1.533559	1.036026	99
46
Properties=species:S:1:pos:R:3:Z:I:1 energy=-325.1276877210381 field_type=dipole dipole="0.000000 0.000000 0.000000" charge=0
C	0.179260	-2.247800	0.397409	6
O	-0.236089	-0.968890	0.860239	8
C	-0.356209	-0.000570	-0.196241	6
C	-1.196189	1.186520	0.350079	6
N	-0.623249	1.817620	1.550939	7
C	1.014371	0.443440	-0.639391	6
C	1.484820	0.335070	-1.890471	6
H	0.141491	-2.943570	1.240319	1
H	1.208691	-2.215020	0.029059	1
H	-0.491489	-2.616330	-0.384771	1
H	-0.916429	-0.445710	-1.028771	1
H	-2.188509	0.807130	0.621879	1
H	-1.328679	1.948770	-0.425391	1
H	-0.370729	1.062450	2.193539	1
H	-1.342709	2.365670	2.017269	1
H	1.645541	0.883930	0.129659	1
H	0.891661	-0.093790	-2.691191	1
H	2.484451	0.681080	-2.134161	1
Es	2.160732	0.567204	-2.064696	99
Es	-0.881898	1.533749	1.035906	99
Es	-0.236089	-0.968969	0.859858	99
Es	-0.264433	-0.627364	0.435676	99
Es	-1.882734	0.916824	0.523724	99
Es	-0.736874	-0.307172	-0.774375	99
Es	1.084108	0.043292	-2.438010	99
Es	-0.339148	2.017728	1.475381	99
Es	0.337250	0.222497	-0.427873	99
Es	-1.283705	1.701189	-0.187232	99
Es	1.484847	0.335065	-1.890565	99
Es	0.179184	-2.247598	0.397480	99
Es	-1.196092	1.186541	0.350178	99
Es	-0.623694	1.817282	1.551026	99
Es	1.367958	0.088447	-1.208907	99
Es	1.127001	0.679852	-1.346993	99
Es	-0.522247	-1.008033	0.962031	99
Es	-0.492522	1.362449	1.936653	99
Es	1.434380	0.733804	-0.117322	99
Es	-0.280526	-2.497981	-0.147343	99
Es	0.152222	-2.721493	0.971203	99
Es	-0.014630	-0.864052	1.044675	99
Es	-1.073725	2.133797	1.827511	99
Es	-0.753998	0.599038	0.081941	99
Es	-0.356162	-0.000675	-0.196051	99
Es	-0.072669	-1.439772	0.649781	99
Es	0.880667	-2.227745	0.138844	99
Es	1.014314	0.443432	-0.639313	99
46
Properties=species:S:1:pos:R:3:Z:I:1 energy=-325.1276877210381 field_type=dipole dipole="0.000000 0.000000 0.000000" charge=0
C	0.179260	-2.247800	0.397409	6
O	-0.236089	-0.968890	0.860239	8
C	-0.356209	-0.000570	-0.196241	6
C	-1.196189	1.186520	0.350079	6
N	-0.623249	1.817620	1.550939	7
C	1.014371	0.443440	-0.639391	6
C	1.484820	0.335070	-1.890471	6
H	0.141491	-2.943570	1.240319	1
H	1.208691	-2.215020	0.029059	1
H	-0.491489	-2.616330	-0.384771	1
H	-0.916429	-0.445710	-1.028771	1
H	-2.188509	0.807130	0.621879	1
H	-1.328679	1.948770	-0.425391	1
H	-0.370729	1.062450	2.193539	1
H	-1.342709	2.365670	2.017269	1
H	1.645541	0.883930	0.129659	1
H	0.891661	-0.093790	-2.691191	1
H	2.484451	0.681080	-2.134161	1
Es	1.014309	0.443426	-0.639305	99
Es	-1.196091	1.186540	0.350177	99
Es	1.367891	0.088625	-1.208964	99
Es	-1.073974	2.133194	1.827631	99
Es	0.179184	-2.247598	0.397480	99
Es	-0.881747	1.533716	1.035794	99
Es	1.484848	0.335064	-1.890569	99
Es	0.880722	-2.227778	0.138784	99
Es	1.127050	0.679666	-1.346940	99
Es	1.084041	0.043240	-2.437983	99
Es	1.434436	0.733862	-0.117325	99
Es	-0.264681	-0.627159	0.435611	99
Es	2.160804	0.567209	-2.064703	99
Es	-0.356163	-0.000671	-0.196055	99
Es	-0.013951	-0.864773	1.042435	99
Es	-0.623671	1.817293	1.551068	99
Es	-0.339284	2.018234	1.475538	99
Es	-0.280524	-2.498009	-0.147235	99
Es	-0.492305	1.362605	1.936501	99
Es	-0.073775	-1.440474	0.649819	99
Es	-1.283666	1.701129	-0.187239	99
Es	0.152199	-2.721467	0.971137	99
Es	-1.882738	0.916883	0.523664	99
Es	-0.754058	0.599125	0.081912	99
Es	0.337177	0.222385	-0.427976	99
Es	-0.521634	-1.006840	0.964165	99
Es	-0.736826	-0.307160	-0.774284	99
Es	-0.236057	-0.968929	0.860051	99
46
Properties=species:S:1:pos:R:3:Z:I:1 energy=-325.1276877210381 field_type=dipole dipole="0.000000 0.000000 0.000000" charge=0
C	0.179260	-2.247800	0.397409	6
O	-0.236089	-0.968890	0.860239	8
C	-0.356209	-0.000570	-0.196241	6
C	-1.196189	1.186520	0.350079	6
N	-0.623249	1.817620	1.550939	7
C	1.014371	0.443440	-0.639391	6
C	1.484820	0.335070	-1.890471	6
H	0.141491	-2.943570	1.240319	1
H	1.208691	-2.215020	0.029059	1
H	-0.491489	-2.616330	-0.384771	1
H	-0.916429	-0.445710	-1.028771	1
H	-2.188509	0.807130	0.621879	1
H	-1.328679	1.948770	-0.425391	1
H	-0.370729	1.062450	2.193539	1
H	-1.342709	2.365670	2.017269	1
H	1.645541	0.883930	0.129659	1
H	0.891661	-0.093790	-2.691191	1
H	2.484451	0.681080	-2.134161	1
Es	-0.340032	2.018151	1.475327	99
Es	-0.754133	0.599097	0.081869	99
Es	0.880641	-2.227750	0.138799	99
Es	1.434438	0.733928	-0.117411	99
Es	-1.283657	1.701121	-0.187224	99
Es	-0.521030	-1.007148	0.962021	99
Es	1.084196	0.043245	-2.438115	99
Es	-0.264637	-0.627274	0.435598	99
Es	0.337003	0.222407	-0.427956	99
Es	-0.014348	-0.864280	1.044649	99
Es	-0.736731	-0.307186	-0.774264	99
Es	-1.073807	2.133269	1.827776	99
Es	-0.356164	-0.000671	-0.196056	99
Es	0.179184	-2.247598	0.397480	99
Es	1.014308	0.443432	-0.639307	99
Es	-0.882001	1.533618	1.035750	99
Es	1.367971	0.088574	-1.208967	99
Es	-0.623700	1.817300	1.551045	99
Es	1.127026	0.679513	-1.346883	99
Es	-1.882725	0.916935	0.523633	99
Es	2.160725	0.567328	-2.064558	99
Es	-0.491469	1.362712	1.936653	99
Es	-1.196092	1.186540	0.350177	99
Es	-0.280481	-2.497997	-0.147281	99
Es	0.152248	-2.721523	0.971165	99
Es	1.484848	0.335066	-1.890568	99
Es	-0.074006	-1.440548	0.649817	99
Es	-0.236057	-0.968921	0.860019	99
46
Properties=species:S:1:pos:R:3:Z:I:1 energy=-325.1276877210381 field_type=dipole dipole="0.000000 0.000000 0.000000" charge=0
C	0.179260	-2.247800	0.397409	6
O	-0.236089	-0.968890	0.860239	8
C	-0.356209	-0.000570	-0.196241	6
C	-1.196189	1.186520	0.350079	6
N	-0.623249	1.817620	1.550939	7
C	1.014371	0.443440	-0.639391	6
C	1.484820	0.335070	-1.890471	6
H	0.141491	-2.943570	1.240319	1
H	1.208691	-2.215020	0.029059	1
H	-0.491489	-2.616330	-0.384771	1
H	-0.916429	-0.445710	-1.028771	1
H	-2.188509	0.807130	0.621879	1
H	-1.328679	1.948770	-0.425391	1
H	-0.370729	1.062450	2.193539	1
H	-1.342709	2.365670	2.017269	1
H	1.645541	0.883930	0.129659	1
H	0.891661	-0.093790	-2.691191	1
H	2.484451	0.681080	-2.134161	1
Es	-0.339966	2.017734	1.475916	99
Es	-1.073833	2.133648	1.827342	99
Es	1.127072	0.679712	-1.346941	99
Es	-0.520582	-1.006425	0.963277	99
Es	-0.623718	1.817278	1.551058	99
Es	-1.283675	1.701102	-0.187229	99
Es	0.337055	0.222200	-0.427977	99
Es	1.014308	0.443433	-0.639308	99
Es	1.484847	0.335062	-1.890570	99
Es	-0.356164	-0.000671	-0.196056	99
Es	-1.196090	1.186540	0.350178	99
Es	-0.264657	-0.626845	0.435609	99
Es	-0.492070	1.362614	1.936911	99
Es	-0.074565	-1.441015	0.649863	99
Es	0.880580	-2.227756	0.138812	99
Es	-0.236079	-0.968967	0.859841	99
Es	-0.754089	0.599204	0.081831	99
Es	1.367897	0.088718	-1.208931	99
Es	1.084080	0.043251	-2.437954	99
Es	-0.280488	-2.497976	-0.147325	99
Es	-0.014220	-0.864920	1.043587	99
Es	0.179185	-2.247596	0.397480	99
Es	2.160746	0.567167	-2.064749	99
Es	1.434510	0.733850	-0.117360	99
Es	-0.881391	1.533789	1.035343	99
Es	-0.736744	-0.307149	-0.774241	99
Es	-1.882716	0.916913	0.523632	99
Es	0.152286	-2.721556	0.971148	99
46
Properties=species:S:1:pos:R:3:Z:I:1 energy=-325.1276877210381 field_type=dipole dipole="0.000000 0.000000 0.000000" charge=0
C	0.179260	-2.247800	0.397409	6
O	-0.236089	-0.968890	0.860239	8
C	-0.356209	-0.000570	-0.196241	6
C	-1.196189	1.186520	0.350079	6
N	-0.623249	1.817620	1.550939	7
C	1.014371	0.443440	-0.639391	6
C	1.484820	0.335070	-1.890471	6
H	0.141491	-2.943570	1.240319	1
H	1.208691	-2.215020	0.029059	1
H	-0.491489	-2.616330	-0.384771	1
H	-0.916429	-0.445710	-1.028771	1
H	-2.188509	0.807130	0.621879	1
H	-1.328679	1.948770	-0.425391	1
H	-0.370729	1.062450	2.193539	1
H	-1.342709	2.365670	2.017269	1
H	1.645541	0.883930	0.129659	1
H	0.891661	-0.093790	-2.691191	1
H	2.484451	0.681080	-2.134161	1
Es	-0.492110	1.362599	1.936653	99
Es	1.014307	0.443436	-0.639309	99
Es	-0.013355	-0.865291	1.040516	99
Es	1.434472	0.733846	-0.117397	99
Es	-0.881758	1.533865	1.035382	99
Es	-0.235957	-0.968934	0.859858	99
Es	2.160760	0.567180	-2.064710	99
Es	-0.356164	-0.000668	-0.196058	99
Es	0.880635	-2.227781	0.138808	99
Es	-0.754081	0.599002	0.081856	99
Es	-0.265078	-0.627114	0.435371	99
Es	-0.736746	-0.307159	-0.774325	99
Es	-0.520781	-1.005567	0.966355	99
Es	-1.283668	1.701106	-0.187191	99
Es	1.484848	0.335065	-1.890562	99
Es	0.179185	-2.247599	0.397480	99
Es	1.127145	0.679657	-1.346903	99
Es	-0.280469	-2.498011	-0.147270	99
Es	0.336979	0.222289	-0.427890	99
Es	-1.196091	1.186541	0.350178	99
Es	1.367926	0.088689	-1.208944	99
Es	1.084039	0.043325	-2.438006	99
Es	-1.073673	2.133570	1.827643	99
Es	-1.882659	0.917039	0.523551	99
Es	-0.623717	1.817279	1.551061	99
Es	-0.339800	2.017748	1.475888	99
Es	-0.074912	-1.441260	0.650015	99
Es	0.152242	-2.721511	0.971139	99
46
Properties=species:S:1:pos:R:3:Z:I:1 energy=-325.1276877210381 field_type=dipole dipole="0.000000 0.000000 0.000000" charge=0
C	0.179260	-2.247800	0.397409	6
O	-0.236089	-0.968890	0.860239	8
C	-0.356209	-0.000570	-0.196241	6
C	-1.196189	1.186520	0.350079	6
N	-0.623249	1.817620	1.550939	7
C	1.014371	0.443440	-0.639391	6
C	1.484820	0.335070	-1.890471	6
H	0.141491	-2.943570	1.240319	1
H	1.208691	-2.215020	0.029059	1
H	-0.491489	-2.616330	-0.384771	1
H	-0.916429	-0.445710	-1.028771	1
H	-2.188509	0.807130	0.621879	1
H	-1.328679	1.948770	-0.425391	1
H	-0.370729	1.062450	2.193539	1
H	-1.342709	2.365670	2.017269	1
H	1.645541	0.883930	0.129659	1
H	0.891661	-0.093790	-2.691191	1
H	2.484451	0.681080	-2.134161	1
Es	-1.882669	0.916980	0.523505	99
Es	-0.236011	-0.968957	0.859968	99
Es	0.336845	0.222249	-0.428069	99
Es	2.160714	0.567411	-2.064733	99
Es	-0.492264	1.362688	1.936742	99
Es	1.367993	0.088609	-1.208972	99
Es	-1.283689	1.700989	-0.187173	99
Es	-0.623707	1.817284	1.551052	99
Es	-0.074299	-1.441206	0.649902	99
Es	-0.339614	2.017411	1.475609	99
Es	-0.280365	-2.497945	-0.147336	99
Es	0.179186	-2.247603	0.397479	99
Es	1.434529	0.734021	-0.117386	99
Es	-1.073410	2.133987	1.827612	99
Es	-0.882052	1.533798	1.035658	99
Es	1.127162	0.679202	-1.346766	99
Es	-0.356164	-0.000670	-0.196056	99
Es	1.484852	0.335067	-1.890565	99
Es	-1.196092	1.186538	0.350174	99
Es	-0.265107	-0.626589	0.435642	99
Es	-0.520721	-1.005832	0.966590	99
Es	1.014307	0.443433	-0.639308	99
Es	-0.754127	0.599178	0.081803	99
Es	1.084030	0.043417	-2.438022	99
Es	-0.013914	-0.865596	1.040038	99
Es	0.880600	-2.227813	0.138885	99
Es	-0.736658	-0.307121	-0.774203	99
Es	0.152164	-2.721591	0.971118	99
46
Properties=species:S:1:pos:R:3:Z:I:1 energy=-325.1276877210381 field_type=dipole dipole="0.000000 0.000000 0.000000" charge=0
C	0.179260	-2.247800	0.397409	6
O	-0.236089	-0.968890	0.860239	8
C	-0.356209	-0.000570	-0.196241	6
C	-1.196189	1.186520	0.350079	6
N	-0.623249	1.817620	1.550939	7
C	1.014371	0.443440	-0.639391	6
C	1.484820	0.335070	-1.890471	6
H	0.141491	-2.943570	1.240319	1
H	1.208691	-2.215020	0.029059	1
H	-0.491489	-2.616330	-0.384771	1
H	-0.916429	-0.445710	-1.028771	1
H	-2.188509	0.807130	0.621879	1
H	-1.328679	1.948770	-0.425391	1
H	-0.370729	1.062450	2.193539	1
H	-1.342709	2.365670	2.017269	1
H	1.645541	0.883930	0.129659	1
H	0.891661	-0.093790	-2.691191	1
H	2.484451	0.681080	-2.134161	1
Es	-0.356164	-0.000669	-0.196058	99
Es	-1.073964	2.132797	1.827450	99
Es	-0.074636	-1.441433	0.650144	99
Es	-0.236023	-0.968968	0.859915	99
Es	1.484844	0.335065	-1.890568	99
Es	0.152168	-2.721544	0.971125	99
Es	-0.265622	-0.626925	0.435302	99
Es	-0.754183	0.599152	0.081811	99
Es	-0.519872	-1.005912	0.965301	99
Es	-0.338881	2.018483	1.476380	99
Es	-0.492965	1.362615	1.936470	99
Es	-1.196090	1.186540	0.350177	99
Es	-0.881472	1.534019	1.035346	99
Es	1.367801	0.088801	-1.209004	99
Es	-0.736635	-0.307113	-0.774217	99
Es	1.127185	0.679406	-1.346814	99
Es	0.336787	0.222186	-0.428028	99
Es	-1.882683	0.917065	0.523479	99
Es	-0.013922	-0.864929	1.041419	99
Es	1.434621	0.733888	-0.117384	99
Es	0.179186	-2.247601	0.397479	99
Es	1.014308	0.443430	-0.639312	99
Es	-0.280355	-2.498001	-0.147312	99
Es	2.160789	0.567234	-2.064688	99
Es	1.084077	0.043374	-2.438007	99
Es	-0.623737	1.817263	1.551053	99
Es	-1.283648	1.700954	-0.187174	99
Es	0.880605	-2.227837	0.138903	99
46
Properties=species:S:1:pos:R:3:Z:I:1 energy=-325.1276877210381 field_type=dipole dipole="0.000000 0.000000 0.000000" charge=0
C	0.179260	-2.247800	0.397409	6
O	-0.236089	-0.968890	0.860239	8
C	-0.356209	-0.000570	-0.196241	6
C	-1.196189	1.186520	0.350079	6
N	-0.623249	1.817620	1.550939	7
C	1.014371	0.443440	-0.639391	6
C	1.484820	0.335070	-1.890471	6
H	0.141491	-2.943570	1.240319	1
H	1.208691	-2.215020	0.029059	1
H	-0.491489	-2.616330	-0.384771	1
H	-0.916429	-0.445710	-1.028771	1
H	-2.188509	0.807130	0.621879	1
H	-1.328679	1.948770	-0.425391	1
H	-0.370729	1.062450	2.193539	1
H	-1.342709	2.365670	2.017269	1
H	1.645541	0.883930	0.129659	1
H	0.891661	-0.093790	-2.691191	1
H	2.484451	0.681080	-2.134161	1
Es	-0.754112	0.599221	0.081698	99
Es	-0.881931	1.533708	1.035523	99
Es	1.484846	0.335068	-1.890568	99
Es	-0.491846	1.362829	1.936712	99
Es	0.179188	-2.247606	0.397478	99
Es	-0.265349	-0.626508	0.435518	99
Es	1.434623	0.733833	-0.117384	99
Es	0.880521	-2.227827	0.138781	99
Es	-0.519588	-1.005942	0.964769	99
Es	-0.236013	-0.968935	0.859988	99
Es	0.152249	-2.721613	0.971105	99
Es	-1.283756	1.700985	-0.187100	99
Es	-1.882630	0.916999	0.523507	99
Es	-1.073609	2.133466	1.827688	99
Es	-0.280382	-2.497963	-0.147248	99
Es	1.367813	0.088935	-1.208992	99
Es	-0.339960	2.017857	1.475737	99
Es	0.336803	0.222094	-0.428052	99
Es	1.127175	0.679482	-1.346845	99
Es	-1.196095	1.186540	0.350175	99
Es	-0.014248	-0.865310	1.041905	99
Es	-0.356165	-0.000668	-0.196058	99
Es	1.084064	0.043280	-2.438041	99
Es	-0.623675	1.817309	1.551034	99
Es	-0.736639	-0.307089	-0.774166	99
Es	-0.074837	-1.441468	0.649997	99
Es	2.160758	0.567229	-2.064661	99
Es	1.014314	0.443434	-0.639313	99
46
Properties=species:S:1:pos:R:3:Z:I:1 energy=-325.1276877210381 field_type=dipole dipole="0.000000 0.000000 0.000000" charge=0
C	0.179260	-2.247800	0.397409	6
O	-0.236089	-0.968890	0.860239	8
C	-0.356209	-0.000570	-0.196241	6
C	-1.196189	1.186520	0.350079	6
N	-0.623249	1.817620	1.550939	7
C	1.014371	0.443440	-0.639391	6
C	1.484820	0.335070	-1.890471	6
H	0.141491	-2.943570	1.240319	1
H	1.208691	-2.215020	0.029059	1
H	-0.491489	-2.616330	-0.384771	1
H	-0.916429	-0.445710	-1.028771	1
H	-2.188509	0.807130	0.621879	1
H	-1.328679	1.948770	-0.425391	1
H	-0.370729	1.062450	2.193539	1
H	-1.342709	2.365670	2.017269	1
H	1.645541	0.883930	0.129659	1
H	0.891661	-0.093790	-2.691191	1
H	2.484451	0.681080	-2.134161	1
Es	1.084046	0.043300	-2.438029	99
Es	1.127180	0.679285	-1.346816	99
Es	-1.196093	1.186541	0.350176	99
Es	-1.283689	1.700928	-0.187142	99
Es	0.880521	-2.227826	0.138818	99
Es	-0.339971	2.017688	1.476138	99
Es	1.484848	0.335066	-1.890568	99
Es	-0.073842	-1.441296	0.650204	99
Es	-0.736492	-0.307054	-0.774109	99
Es	-0.236030	-0.968938	0.860013	99
Es	2.160770	0.567303	-2.064676	99
Es	-1.882628	0.917074	0.523425	99
Es	-0.519710	-1.006479	0.964815	99
Es	1.014308	0.443429	-0.639312	99
Es	-0.881736	1.533890	1.035268	99
Es	-0.623653	1.817324	1.551024	99
Es	-0.280360	-2.498003	-0.147262	99
Es	1.367778	0.088999	-1.209009	99
Es	-0.356166	-0.000668	-0.196061	99
Es	0.336770	0.222103	-0.427996	99
Es	-0.492091	1.362777	1.936687	99
Es	1.434716	0.733896	-0.117446	99
Es	0.152263	-2.721589	0.971102	99
Es	-1.073568	2.133520	1.827655	99
Es	-0.015010	-0.865305	1.041597	99
Es	0.179187	-2.247603	0.397479	99
Es	-0.265512	-0.626204	0.435513	99
Es	-0.754317	0.599181	0.081699	99
46
Properties=species:S:1:pos:R:3:Z:I:1 energy=-325.1276877210381 field_type=dipole dipole="0.000000 0.000000 0.000000" charge=0
C	0.179260	-2.247800	0.397409	6
O	-0.236089	-0.968890	0.860239	8
C	-0.356209	-0.000570	-0.196241	6
C	-1.196189	1.186520	0.350079	6
N	-0.623249	1.817620	1.550939	7
C	1.014371	0.443440	-0.639391	6
C	1.484820	0.335070	-1.890471	6
H	0.141491	-2.943570	1.240319	1
H	1.208691	-2.215020	0.029059	1
H	-0.491489	-2.616330	-0.384771	1
H	-0.916429	-0.445710	-1.028771	1
H	-2.188509	0.807130	0.621879	1
H	-1.328679	1.948770	-0.425391	1
H	-0.370729	1.062450	2.193539	1
H	-1.342709	2.365670	2.017269	1
H	1.645541	0.883930	0.129659	1
H	0.891661	-0.093790	-2.691191	1
H	2.484451	0.681080	-2.134161	1
Es	0.336625	0.222044	-0.428096	99
Es	-0.356166	-0.000666	-0.196061	99
Es	-0.519027	-1.005958	0.965788	99
Es	-1.882617	0.917091	0.523400	99
Es	1.084052	0.043305	-2.438015	99
Es	1.127237	0.679285	-1.346776	99
Es	-1.283696	1.700903	-0.187122	99
Es	1.434689	0.733932	-0.117384	99
Es	1.014308	0.443432	-0.639310	99
Es	-0.280372	-2.498039	-0.147253	99
Es	-0.736597	-0.307094	-0.774178	99
Es	-0.074808	-1.441527	0.649817	99
Es	2.160750	0.567243	-2.064697	99
Es	0.179186	-2.247602	0.397479	99
Es	0.152374	-2.721608	0.971147	99
Es	1.367804	0.089052	-1.208997	99
Es	-0.623694	1.817286	1.551040	99
Es	-0.265748	-0.625803	0.435663	99
Es	-0.881732	1.533920	1.035149	99
Es	-0.340136	2.017792	1.476211	99
Es	-0.236060	-0.968944	0.860077	99
Es	-0.754169	0.599183	0.081743	99
Es	1.484849	0.335063	-1.890574	99
Es	-0.491902	1.362830	1.936650	99
Es	0.880401	-2.227821	0.138777	99
Es	-0.014351	-0.865902	1.040803	99
Es	-1.196093	1.186539	0.350174	99
Es	-1.073589	2.133403	1.827733	99
46
Properties=species:S:1:pos:R:3:Z:I:1 energy=-325.1276877210381 field_type=dipole dipole="0.000000 0.000000 0.000000" charge=0
C	0.179260	-2.247800	0.397409	6
O	-0.236089	-0.968890	0.860239	8
C	-0.356209	-0.000570	-0.196241	6
C	-1.196189	1.186520	0.350079	6
N	-0.623249	1.817620	1.550939	7
C	1.014371	0.443440	-0.639391	6
C	1.484820	0.335070	-1.890471	6
H	0.141491	-2.943570	1.240319	1
H	1.208691	-2.215020	0.029059	1
H	-0.491489	-2.616330	-0.384771	1
H	-0.916429	-0.445710	-1.028771	1
H	-2.188509	0.807130	0.621879	1
H	-1.328679	1.948770	-0.425391	1
H	-0.370729	1.062450	2.193539	1
H	-1.342709	2.365670	2.017269	1
H	1.645541	0.883930	0.129659	1
H	0.891661	-0.093790	-2.691191	1
H	2.484451	0.681080	-2.134161	1
Es	-0.074235	-1.441759	0.650444	99
Es	-1.882599	0.917068	0.523393	99
Es	-0.340282	2.017502	1.475825	99
Es	0.152285	-2.721606	0.971089	99
Es	-0.623705	1.817287	1.551049	99
Es	-0.736519	-0.307095	-0.774193	99
Es	0.880469	-2.227854	0.138819	99
Es	2.160775	0.567259	-2.064684	99
Es	-0.235962	-0.968967	0.859912	99
Es	-0.014939	-0.865116	1.041213	99
Es	1.434741	0.733862	-0.117363	99
Es	-0.356165	-0.000667	-0.196060	99
Es	-1.196095	1.186540	0.350175	99
Es	1.084046	0.043287	-2.438015	99
Es	1.367737	0.089161	-1.209028	99
Es	-0.265973	-0.626339	0.435303	99
Es	-0.881972	1.533618	1.035394	99
Es	-0.754185	0.599277	0.081771	99
Es	0.179186	-2.247604	0.397479	99
Es	-0.518942	-1.005960	0.965309	99
Es	1.484846	0.335066	-1.890563	99
Es	-0.280328	-2.498016	-0.147249	99
Es	0.336543	0.221958	-0.428092	99
Es	1.014309	0.443434	-0.639308	99
Es	-0.491639	1.363094	1.936751	99
Es	-1.283693	1.700868	-0.187185	99
Es	1.127280	0.679264	-1.346769	99
Es	-1.073468	2.133774	1.827771	99
46
Properties=species:S:1:pos:R:3:Z:I:1 energy=-325.1276877210381 field_type=dipole dipole="0.000000 0.000000 0.000000" charge=0
C	0.179260	-2.247800	0.397409	6
O	-0.236089	-0.968890	0.860239	8
C	-0.356209	-0.000570	-0.196241	6
C	-1.196189	1.186520	0.350079	6
N	-0.623249	1.817620	1.550939	7
C	1.014371	0.443440	-0.639391	6
C	1.484820	0.335070	-1.890471	6
H	0.141491	-2.943570	1.240319	1
H	1.208691	-2.215020	0.029059	1
H	-0.491489	-2.616330	-0.384771	1
H	-0.916429	-0.445710	-1.028771	1
H	-2.188509	0.807130	0.621879	1
H	-1.328679	1.948770	-0.425391	1
H	-0.370729	1.062450	2.193539	1
H	-1.342709	2.365670	2.017269	1
H	1.645541	0.883930	0.129659	1
H	0.891661	-0.093790	-2.691191	1
H	2.484451	0.681080	-2.134161	1
Es	1.014309	0.443431	-0.639311	99
Es	0.152319	-2.721632	0.971062	99
Es	-0.236072	-0.968983	0.859842	99
Es	1.127250	0.679183	-1.346768	99
Es	1.084038	0.043266	-2.438010	99
Es	-1.882589	0.917125	0.523387	99
Es	0.880426	-2.227837	0.138836	99
Es	0.179186	-2.247604	0.397479	99
Es	-1.073683	2.133193	1.827694	99
Es	-1.283739	1.700810	-0.187084	99
Es	1.434806	0.733908	-0.117452	99
Es	1.484846	0.335064	-1.890565	99
Es	-0.340297	2.017873	1.476682	99
Es	-1.196097	1.186541	0.350177	99
Es	0.336509	0.221894	-0.428016	99
Es	-0.881432	1.534172	1.034750	99
Es	-0.356165	-0.000663	-0.196062	99
Es	1.367705	0.089249	-1.209040	99
Es	-0.517729	-1.005013	0.968507	99
Es	-0.267649	-0.626576	0.435179	99
Es	-0.754153	0.599254	0.081636	99
Es	-0.623696	1.817288	1.551034	99
Es	-0.491951	1.362803	1.936628	99
Es	2.160798	0.567266	-2.064677	99
Es	-0.013030	-0.865412	1.038522	99
Es	-0.736492	-0.307089	-0.774170	99
Es	-0.075585	-1.442159	0.650217	99
Es	-0.280317	-2.498011	-0.147288	99
46
Properties=species:S:1:pos:R:3:Z:I:1 energy=-325.1276877210381 field_type=dipole dipole="0.000000 0.000000 0.000000" charge=0
C	0.179260	-2.247800	0.397409	6
O	-0.236089	-0.968890	0.860239	8
C	-0.356209	-0.000570	-0.196241	6
C	-1.196189	1.186520	0.350079	6
N	-0.623249	1.817620	1.550939	7
C	1.014371	0.443440	-0.639391	6
C	1.484820	0.335070	-1.890471	6
H	0.141491	-2.943570	1.240319	1
H	1.208691	-2.215020	0.029059	1
H	-0.491489	-2.616330	-0.384771	1
H	-0.916429	-0.445710	-1.028771	1
H	-2.188509	0.807130	0.621879	1
H	-1.328679	1.948770	-0.425391	1
H	-0.370729	1.062450	2.193539	1
H	-1.342709	2.365670	2.017269	1
H	1.645541	0.883930	0.129659	1
H	0.891661	-0.093790	-2.691191	1
H	2.484451	0.681080	-2.134161	1
Es	-0.264761	-0.626073	0.435207	99
Es	-1.882560	0.917079	0.523326	99
Es	1.014310	0.443434	-0.639315	99
Es	1.434803	0.733947	-0.117416	99
Es	0.880422	-2.227857	0.138805	99
Es	-1.196092	1.186542	0.350179	99
Es	1.367733	0.089295	-1.209038	99
Es	-0.075164	-1.442577	0.650961	99
Es	2.160777	0.567280	-2.064687	99
Es	-0.754187	0.599314	0.081618	99
Es	-0.235987	-0.968947	0.859867	99
Es	0.336500	0.221867	-0.428078	99
Es	-0.736455	-0.307041	-0.774130	99
Es	-0.015796	-0.865389	1.042747	99
Es	-1.283773	1.700798	-0.187052	99
Es	-0.280286	-2.497993	-0.147239	99
Es	0.179195	-2.247613	0.397477	99
Es	-0.518337	-1.005188	0.963438	99
Es	1.484847	0.335064	-1.890565	99
Es	-0.340473	2.017578	1.476329	99
Es	0.152287	-2.721654	0.971044	99
Es	-1.073475	2.133554	1.827753	99
Es	-0.881720	1.533944	1.035002	99
Es	-0.623702	1.817285	1.551051	99
Es	1.083995	0.043276	-2.438025	99
Es	-0.491704	1.362971	1.936730	99
Es	1.127288	0.679109	-1.346736	99
Es	-0.356166	-0.000667	-0.196065	99
