40
Properties=species:S:1:pos:R:3:Z:I:1 energy=-322.74366703877877 field_type=dipole dipole="0.000000 0.000000 0.000000" charge=0
C	-0.664932	-2.098608	0.546522	6
O	-0.713032	-1.355058	-0.666498	8
N	-0.159222	-0.097218	-0.436928	7
C	-0.869652	1.009022	-0.074538	6
C	0.018698	2.060652	0.013392	6
C	1.300458	1.561792	-0.340018	6
C	1.152588	0.221542	-0.632318	6
H	-1.103902	-3.082338	0.358262	1
H	-1.250052	-1.607208	1.330952	1
H	0.369118	-2.242818	0.876892	1
H	-1.936252	0.954402	0.088602	1
H	-0.229572	3.078882	0.285832	1
H	2.224858	2.122722	-0.390798	1
H	1.860898	-0.525768	-0.959358	1
Es	-0.963417	-2.761944	0.411008	99
Es	-1.060683	-1.759632	1.081531	99
Es	1.624140	-0.286402	-0.848969	99
Es	1.300474	1.561799	-0.340021	99
Es	1.924124	1.942950	-0.373347	99
Es	-0.869633	1.008802	-0.074585	99
Es	-0.664941	-2.098485	0.546314	99
Es	-0.435973	1.613889	-0.326680	99
Es	-0.503563	0.354522	-0.396872	99
Es	0.018689	2.060670	0.013383	99
Es	0.362800	0.017035	-0.634487	99
Es	1.149951	0.996260	-0.764316	99
Es	-0.146749	2.749446	0.197572	99
Es	0.040764	-2.192144	0.772684	99
Es	-0.036007	0.040804	-0.180626	99
Es	1.152415	0.221394	-0.632306	99
Es	1.261915	0.862203	-0.170332	99
Es	0.682338	1.863300	-0.154622	99
Es	-1.585894	0.964443	0.036675	99
Es	-0.516889	-1.491285	-0.863700	99
Es	-0.679430	-1.606085	-0.194070	99
Es	-0.454143	-0.779958	-0.542309	99
Es	-0.323472	1.480110	0.266887	99
Es	-0.159329	-0.097145	-0.437399	99
Es	-1.012370	-1.298743	-0.727697	99
Es	-0.712815	-1.354952	-0.666116	99
40
Properties=species:S:1:pos:R:3:Z:I:1 energy=-322.74366703877877 field_type=dipole dipole="0.000000 0.000000 0.000000" charge=0
C	-0.664932	-2.098608	0.546522	6
O	-0.713032	-1.355058	-0.666498	8
N	-0.159222	-0.097218	-0.436928	7
C	-0.869652	1.009022	-0.074538	6
C	0.018698	2.060652	0.013392	6
C	1.300458	1.561792	-0.340018	6
C	1.152588	0.221542	-0.632318	6
H	-1.103902	-3.082338	0.358262	1
H	-1.250052	-1.607208	1.330952	1
H	0.369118	-2.242818	0.876892	1
H	-1.936252	0.954402	0.088602	1
H	-0.229572	3.078882	0.285832	1
H	2.224858	2.122722	-0.390798	1
H	1.860898	-0.525768	-0.959358	1
Es	-0.159144	-0.097361	-0.436460	99
Es	-0.678785	-1.606295	-0.194449	99
Es	0.018690	2.060671	0.013383	99
Es	0.683774	1.861509	-0.146453	99
Es	-0.115539	0.146937	-0.622145	99
Es	-0.712951	-1.354973	-0.666242	99
Es	1.624403	-0.286498	-0.848389	99
Es	-0.464440	0.300804	-0.170944	99
Es	-0.869633	1.008800	-0.074580	99
Es	1.152415	0.221395	-0.632310	99
Es	0.040706	-2.192012	0.772759	99
Es	-0.335529	1.482237	0.261517	99
Es	-1.585797	0.964352	0.037537	99
Es	-1.060769	-1.759686	1.081484	99
Es	1.300474	1.561798	-0.340020	99
Es	-0.963295	-2.762022	0.410999	99
Es	1.141405	1.003950	-0.768175	99
Es	-0.664943	-2.098490	0.546318	99
Es	-0.517168	-1.491090	-0.863896	99
Es	0.404969	-0.037701	-0.410776	99
Es	-0.146664	2.749314	0.198142	99
Es	-0.426247	1.614997	-0.335882	99
Es	-0.452484	-0.781987	-0.533449	99
Es	1.924235	1.942817	-0.372994	99
Es	-1.012683	-1.298794	-0.727120	99
Es	1.267301	0.858177	-0.180252	99
40
Properties=species:S:1:pos:R:3:Z:I:1 energy=-322.74366703877877 field_type=dipole dipole="0.000000 0.000000 0.000000" charge=0
C	-0.664932	-2.098608	0.546522	6
O	-0.713032	-1.355058	-0.666498	8
N	-0.159222	-0.097218	-0.436928	7
C	-0.869652	1.009022	-0.074538	6
C	0.018698	2.060652	0.013392	6
C	1.300458	1.561792	-0.340018	6
C	1.152588	0.221542	-0.632318	6
H	-1.103902	-3.082338	0.358262	1
H	-1.250052	-1.607208	1.330952	1
H	0.369118	-2.242818	0.876892	1
H	-1.936252	0.954402	0.088602	1
H	-0.229572	3.078882	0.285832	1
H	2.224858	2.122722	-0.390798	1
H	1.860898	-0.525768	-0.959358	1
Es	-0.664942	-2.098488	0.546318	99
Es	-1.060683	-1.759688	1.081498	99
Es	-0.463975	0.300476	-0.170300	99
Es	-0.426095	1.614892	-0.335525	99
Es	-0.452626	-0.781584	-0.533484	99
Es	-0.159142	-0.097380	-0.436410	99
Es	-1.585875	0.964451	0.037455	99
Es	1.924298	1.942833	-0.372676	99
Es	-0.335360	1.482231	0.261352	99
Es	0.404939	-0.037538	-0.411475	99
Es	-0.963337	-2.762054	0.411021	99
Es	0.040696	-2.192009	0.772723	99
Es	-0.146808	2.749363	0.198039	99
Es	-0.116260	0.147142	-0.622113	99
Es	-0.712842	-1.354921	-0.666103	99
Es	1.267874	0.857617	-0.181054	99
Es	1.300474	1.561789	-0.340018	99
Es	1.624544	-0.286531	-0.848330	99
Es	1.152415	0.221396	-0.632309	99
Es	1.140792	1.004675	-0.767931	99
Es	0.018693	2.060668	0.013401	99
Es	0.683748	1.861380	-0.146328	99
Es	-0.518033	-1.490744	-0.864462	99
Es	-0.869633	1.008796	-0.074575	99
Es	-0.679296	-1.607097	-0.194156	99
Es	-1.011265	-1.298826	-0.726957	99
40
Properties=species:S:1:pos:R:3:Z:I:1 energy=-322.74366703877877 field_type=dipole dipole="0.000000 0.000000 0.000000" charge=0
C	-0.664932	-2.098608	0.546522	6
O	-0.713032	-1.355058	-0.666498	8
N	-0.159222	-0.097218	-0.436928	7
C	-0.869652	1.009022	-0.074538	6
C	0.018698	2.060652	0.013392	6
C	1.300458	1.561792	-0.340018	6
C	1.152588	0.221542	-0.632318	6
H	-1.103902	-3.082338	0.358262	1
H	-1.250052	-1.607208	1.330952	1
H	0.369118	-2.242818	0.876892	1
H	-1.936252	0.954402	0.088602	1
H	-0.229572	3.078882	0.285832	1
H	2.224858	2.122722	-0.390798	1
H	1.860898	-0.525768	-0.959358	1
Es	0.018691	2.060668	0.013395	99
Es	-0.323103	1.479990	0.266574	99
Es	1.924257	1.942886	-0.373435	99
Es	-0.503553	0.354508	-0.396221	99
Es	0.682232	1.863555	-0.155143	99
Es	0.040679	-2.192016	0.772713	99
Es	-0.963295	-2.762042	0.411019	99
Es	-0.435878	1.613583	-0.326205	99
Es	1.150279	0.995962	-0.763720	99
Es	-0.159323	-0.097156	-0.437378	99
Es	-0.664942	-2.098488	0.546319	99
Es	-0.679937	-1.606378	-0.193840	99
Es	-1.011092	-1.298688	-0.727043	99
Es	-0.035298	0.040126	-0.181249	99
Es	-0.454052	-0.779724	-0.542435	99
Es	-1.586087	0.964651	0.036834	99
Es	1.300474	1.561798	-0.340020	99
Es	-0.146925	2.749473	0.197569	99
Es	-0.517888	-1.491442	-0.864318	99
Es	0.362328	0.017337	-0.634988	99
Es	-1.060706	-1.759708	1.081523	99
Es	1.152414	0.221394	-0.632308	99
Es	1.624496	-0.286369	-0.849040	99
Es	1.260921	0.863081	-0.170290	99
Es	-0.712762	-1.354956	-0.666130	99
Es	-0.869631	1.008805	-0.074581	99
40
Properties=species:S:1:pos:R:3:Z:I:1 energy=-322.74366703877877 field_type=dipole dipole="0.000000 0.000000 0.000000" charge=0
C	-0.664932	-2.098608	0.546522	6
O	-0.713032	-1.355058	-0.666498	8
N	-0.159222	-0.097218	-0.436928	7
C	-0.869652	1.009022	-0.074538	6
C	0.018698	2.060652	0.013392	6
C	1.300458	1.561792	-0.340018	6
C	1.152588	0.221542	-0.632318	6
H	-1.103902	-3.082338	0.358262	1
H	-1.250052	-1.607208	1.330952	1
H	0.369118	-2.242818	0.876892	1
H	-1.936252	0.954402	0.088602	1
H	-0.229572	3.078882	0.285832	1
H	2.224858	2.122722	-0.390798	1
H	1.860898	-0.525768	-0.959358	1
Es	1.267363	0.858095	-0.180979	99
Es	1.624744	-0.286477	-0.848472	99
Es	-1.060681	-1.759731	1.081465	99
Es	0.683924	1.861524	-0.146153	99
Es	1.924416	1.942703	-0.372940	99
Es	-0.869632	1.008798	-0.074579	99
Es	-0.115473	0.147300	-0.623942	99
Es	1.300476	1.561796	-0.340010	99
Es	-0.159220	-0.097393	-0.436679	99
Es	0.018692	2.060667	0.013399	99
Es	-0.335307	1.482219	0.260946	99
Es	-0.963313	-2.762082	0.411035	99
Es	1.140680	1.004603	-0.767563	99
Es	-0.678963	-1.607113	-0.194251	99
Es	-0.463659	0.300247	-0.170358	99
Es	0.404142	-0.037814	-0.409424	99
Es	-0.452437	-0.781658	-0.533558	99
Es	1.152413	0.221393	-0.632311	99
Es	-1.586030	0.964626	0.037508	99
Es	-0.712835	-1.354960	-0.666155	99
Es	-0.664942	-2.098488	0.546319	99
Es	0.040658	-2.191973	0.772767	99
Es	-0.518891	-1.491012	-0.865490	99
Es	-1.011025	-1.298485	-0.725653	99
Es	-0.425932	1.614697	-0.335455	99
Es	-0.146864	2.749366	0.198133	99
40
Properties=species:S:1:pos:R:3:Z:I:1 energy=-322.74366703877877 field_type=dipole dipole="0.000000 0.000000 0.000000" charge=0
C	-0.664932	-2.098608	0.546522	6
O	-0.713032	-1.355058	-0.666498	8
N	-0.159222	-0.097218	-0.436928	7
C	-0.869652	1.009022	-0.074538	6
C	0.018698	2.060652	0.013392	6
C	1.300458	1.561792	-0.340018	6
C	1.152588	0.221542	-0.632318	6
H	-1.103902	-3.082338	0.358262	1
H	-1.250052	-1.607208	1.330952	1
H	0.369118	-2.242818	0.876892	1
H	-1.936252	0.954402	0.088602	1
H	-0.229572	3.078882	0.285832	1
H	2.224858	2.122722	-0.390798	1
H	1.860898	-0.525768	-0.959358	1
Es	0.018692	2.060666	0.013400	99
Es	-0.425467	1.614907	-0.335175	99
Es	-0.679068	-1.607296	-0.194202	99
Es	1.924454	1.942698	-0.372939	99
Es	0.406033	-0.036758	-0.416205	99
Es	-1.060641	-1.759718	1.081483	99
Es	1.267132	0.857863	-0.180801	99
Es	-0.518929	-1.490751	-0.864993	99
Es	1.300475	1.561797	-0.340017	99
Es	-0.869632	1.008799	-0.074578	99
Es	-0.712806	-1.354967	-0.666148	99
Es	-1.586107	0.964722	0.037468	99
Es	-1.010816	-1.298751	-0.726185	99
Es	-0.120609	0.147889	-0.619996	99
Es	-0.146924	2.749369	0.198166	99
Es	-0.963336	-2.762070	0.411054	99
Es	1.152417	0.221395	-0.632302	99
Es	0.040634	-2.192013	0.772743	99
Es	-0.159151	-0.097353	-0.436475	99
Es	0.683854	1.861644	-0.146501	99
Es	-0.461762	0.298980	-0.167671	99
Es	1.141084	1.003866	-0.767605	99
Es	-0.452476	-0.781549	-0.533530	99
Es	1.624808	-0.286490	-0.848495	99
Es	-0.664942	-2.098488	0.546319	99
Es	-0.334617	1.482459	0.260784	99
40
Properties=species:S:1:pos:R:3:Z:I:1 energy=-322.74366703877877 field_type=dipole dipole="0.000000 0.000000 0.000000" charge=0
C	-0.664932	-2.098608	0.546522	6
O	-0.713032	-1.355058	-0.666498	8
N	-0.159222	-0.097218	-0.436928	7
C	-0.869652	1.009022	-0.074538	6
C	0.018698	2.060652	0.013392	6
C	1.300458	1.561792	-0.340018	6
C	1.152588	0.221542	-0.632318	6
H	-1.103902	-3.082338	0.358262	1
H	-1.250052	-1.607208	1.330952	1
H	0.369118	-2.242818	0.876892	1
H	-1.936252	0.954402	0.088602	1
H	-0.229572	3.078882	0.285832	1
H	2.224858	2.122722	-0.390798	1
H	1.860898	-0.525768	-0.959358	1
Es	-1.060606	-1.759730	1.081481	99
Es	-0.035585	0.040057	-0.179253	99
Es	-0.664942	-2.098489	0.546320	99
Es	1.624832	-0.286363	-0.849077	99
Es	-0.678951	-1.607480	-0.194197	99
Es	-0.454507	-0.779198	-0.542297	99
Es	-0.322753	1.480038	0.266069	99
Es	-0.963356	-2.762055	0.411090	99
Es	-0.159321	-0.097272	-0.437215	99
Es	1.260505	0.863246	-0.170582	99
Es	0.040613	-2.192039	0.772750	99
Es	0.018691	2.060667	0.013395	99
Es	-0.519107	-1.490596	-0.865120	99
Es	1.149994	0.995919	-0.763111	99
Es	-0.712947	-1.354940	-0.666207	99
Es	1.152415	0.221394	-0.632308	99
Es	1.300474	1.561798	-0.340021	99
Es	0.682300	1.863686	-0.155163	99
Es	-0.147103	2.749526	0.197534	99
Es	1.924435	1.942813	-0.373561	99
Es	0.361493	0.017587	-0.635448	99
Es	-0.502771	0.354250	-0.398200	99
Es	-0.869633	1.008800	-0.074581	99
Es	-1.586314	0.964867	0.036999	99
Es	-0.435303	1.613454	-0.325796	99
Es	-1.010251	-1.299092	-0.725898	99
40
Properties=species:S:1:pos:R:3:Z:I:1 energy=-322.74366703877877 field_type=dipole dipole="0.000000 0.000000 0.000000" charge=0
C	-0.664932	-2.098608	0.546522	6
O	-0.713032	-1.355058	-0.666498	8
N	-0.159222	-0.097218	-0.436928	7
C	-0.869652	1.009022	-0.074538	6
C	0.018698	2.060652	0.013392	6
C	1.300458	1.561792	-0.340018	6
C	1.152588	0.221542	-0.632318	6
H	-1.103902	-3.082338	0.358262	1
H	-1.250052	-1.607208	1.330952	1
H	0.369118	-2.242818	0.876892	1
H	-1.936252	0.954402	0.088602	1
H	-0.229572	3.078882	0.285832	1
H	2.224858	2.122722	-0.390798	1
H	1.860898	-0.525768	-0.959358	1
Es	-0.869633	1.008799	-0.074581	99
Es	-0.963349	-2.762088	0.411077	99
Es	1.624886	-0.286382	-0.849045	99
Es	-1.009968	-1.298653	-0.724337	99
Es	-0.435515	1.613562	-0.325556	99
Es	1.924445	1.942766	-0.373577	99
Es	-0.502361	0.354384	-0.399960	99
Es	0.018694	2.060662	0.013415	99
Es	-1.060604	-1.759730	1.081476	99
Es	-0.147135	2.749514	0.197599	99
Es	0.040599	-2.192010	0.772755	99
Es	1.149600	0.996114	-0.763185	99
Es	1.260931	0.862582	-0.171056	99
Es	-0.678382	-1.607695	-0.194167	99
Es	-0.712924	-1.354972	-0.666183	99
Es	1.152415	0.221396	-0.632308	99
Es	-0.453912	-0.779345	-0.542632	99
Es	-0.321696	1.480301	0.265817	99
Es	-1.586339	0.964941	0.036992	99
Es	0.364265	0.016373	-0.631914	99
Es	-0.039664	0.041241	-0.180620	99
Es	-0.520536	-1.490779	-0.866260	99
Es	-0.664942	-2.098490	0.546321	99
Es	-0.159324	-0.097171	-0.437350	99
Es	1.300473	1.561795	-0.340019	99
Es	0.682276	1.863734	-0.155103	99
40
Properties=species:S:1:pos:R:3:Z:I:1 energy=-322.74366703877877 field_type=dipole dipole="0.000000 0.000000 0.000000" charge=0
C	-0.664932	-2.098608	0.546522	6
O	-0.713032	-1.355058	-0.666498	8
N	-0.159222	-0.097218	-0.436928	7
C	-0.869652	1.009022	-0.074538	6
C	0.018698	2.060652	0.013392	6
C	1.300458	1.561792	-0.340018	6
C	1.152588	0.221542	-0.632318	6
H	-1.103902	-3.082338	0.358262	1
H	-1.250052	-1.607208	1.330952	1
H	0.369118	-2.242818	0.876892	1
H	-1.936252	0.954402	0.088602	1
H	-0.229572	3.078882	0.285832	1
H	2.224858	2.122722	-0.390798	1
H	1.860898	-0.525768	-0.959358	1
Es	1.152415	0.221394	-0.632307	99
Es	-0.322837	1.480057	0.265725	99
Es	-0.664942	-2.098490	0.546321	99
Es	-0.159319	-0.097153	-0.437369	99
Es	-0.869631	1.008798	-0.074569	99
Es	-0.435087	1.613297	-0.325755	99
Es	-0.680455	-1.607095	-0.193588	99
Es	-0.963300	-2.762105	0.411065	99
Es	1.625013	-0.286357	-0.849051	99
Es	1.260379	0.863499	-0.170908	99
Es	-1.009759	-1.299925	-0.728896	99
Es	-0.035337	0.039369	-0.181954	99
Es	1.149761	0.996246	-0.762864	99
Es	0.018691	2.060666	0.013396	99
Es	1.300474	1.561797	-0.340020	99
Es	-0.712991	-1.354887	-0.666082	99
Es	-0.518237	-1.490514	-0.862439	99
Es	0.040579	-2.191975	0.772772	99
Es	0.361806	0.017621	-0.635047	99
Es	-1.060628	-1.759776	1.081474	99
Es	0.682342	1.863713	-0.155000	99
Es	1.924496	1.942739	-0.373558	99
Es	-1.586393	0.964997	0.037059	99
Es	-0.147194	2.749533	0.197587	99
Es	-0.503196	0.354433	-0.395883	99
Es	-0.454350	-0.779033	-0.542508	99
40
Properties=species:S:1:pos:R:3:Z:I:1 energy=-322.74366703877877 field_type=dipole dipole="0.000000 0.000000 0.000000" charge=0
C	-0.664932	-2.098608	0.546522	6
O	-0.713032	-1.355058	-0.666498	8
N	-0.159222	-0.097218	-0.436928	7
C	-0.869652	1.009022	-0.074538	6
C	0.018698	2.060652	0.013392	6
C	1.300458	1.561792	-0.340018	6
C	1.152588	0.221542	-0.632318	6
H	-1.103902	-3.082338	0.358262	1
H	-1.250052	-1.607208	1.330952	1
H	0.369118	-2.242818	0.876892	1
H	-1.936252	0.954402	0.088602	1
H	-0.229572	3.078882	0.285832	1
H	2.224858	2.122722	-0.390798	1
H	1.860898	-0.525768	-0.959358	1
Es	0.040571	-2.192050	0.772750	99
Es	-0.869632	1.008800	-0.074580	99
Es	-0.712878	-1.354962	-0.666172	99
Es	-0.664942	-2.098491	0.546322	99
Es	-0.462143	0.299232	-0.168980	99
Es	-1.586370	0.965028	0.037525	99
Es	0.018691	2.060665	0.013402	99
Es	-0.963398	-2.762082	0.411086	99
Es	1.300474	1.561795	-0.340016	99
Es	-0.147184	2.749391	0.198282	99
Es	-1.060539	-1.759744	1.081475	99
Es	1.152416	0.221395	-0.632307	99
Es	-0.519284	-1.490375	-0.863807	99
Es	-1.010015	-1.299202	-0.727277	99
Es	-0.452314	-0.781199	-0.533799	99
Es	1.140477	1.004468	-0.766802	99
Es	1.924679	1.942570	-0.372961	99
Es	0.683978	1.861764	-0.146260	99
Es	-0.159192	-0.097368	-0.436602	99
Es	-0.334612	1.482294	0.260104	99
Es	-0.679660	-1.607639	-0.193974	99
Es	1.625204	-0.286412	-0.848615	99
Es	-0.117659	0.147513	-0.623970	99
Es	1.266740	0.858375	-0.181468	99
Es	0.404149	-0.037398	-0.410906	99
Es	-0.425255	1.614482	-0.334849	99
40
Properties=species:S:1:pos:R:3:Z:I:1 energy=-322.74366703877877 field_type=dipole dipole="0.000000 0.000000 0.000000" charge=0
C	-0.664932	-2.098608	0.546522	6
O	-0.713032	-1.355058	-0.666498	8
N	-0.159222	-0.097218	-0.436928	7
C	-0.869652	1.009022	-0.074538	6
C	0.018698	2.060652	0.013392	6
C	1.300458	1.561792	-0.340018	6
C	1.152588	0.221542	-0.632318	6
H	-1.103902	-3.082338	0.358262	1
H	-1.250052	-1.607208	1.330952	1
H	0.369118	-2.242818	0.876892	1
H	-1.936252	0.954402	0.088602	1
H	-0.229572	3.078882	0.285832	1
H	2.224858	2.122722	-0.390798	1
H	1.860898	-0.525768	-0.959358	1
Es	-0.521207	-1.490828	-0.865845	99
Es	0.682375	1.863813	-0.154985	99
Es	-0.147407	2.749544	0.197657	99
Es	-1.060627	-1.759821	1.081428	99
Es	1.149692	0.996229	-0.762571	99
Es	-1.008863	-1.298654	-0.724794	99
Es	0.040545	-2.191920	0.772824	99
Es	1.260146	0.863593	-0.171161	99
Es	0.361838	0.017535	-0.634683	99
Es	1.924569	1.942693	-0.373549	99
Es	-0.433757	1.613205	-0.325725	99
Es	1.300473	1.561800	-0.340023	99
Es	-0.664942	-2.098491	0.546323	99
Es	-0.963275	-2.762146	0.411081	99
Es	1.152417	0.221392	-0.632304	99
Es	0.018691	2.060666	0.013396	99
Es	-0.712992	-1.354917	-0.666117	99
Es	-0.679326	-1.607884	-0.193906	99
Es	-0.502694	0.354283	-0.397176	99
Es	-0.159309	-0.097165	-0.437336	99
Es	-0.869639	1.008800	-0.074581	99
Es	-0.453404	-0.779257	-0.542775	99
Es	1.625239	-0.286356	-0.848967	99
Es	-0.036131	0.039479	-0.181185	99
Es	-1.586503	0.965133	0.037190	99
Es	-0.323608	1.480120	0.265384	99
