39
Properties=species:S:1:pos:R:3:Z:I:1 energy=-338.73650187505035 field_type=dipole dipole="0.000000 0.000000 0.000000" charge=0
C	-0.394259	-2.141734	0.469732	6
O	-0.736219	-1.311594	-0.632258	8
N	-0.153579	-0.067124	-0.437478	7
C	-0.818759	1.072196	-0.110888	6
C	0.134711	2.063676	-0.090718	6
C	1.333261	1.406996	-0.441108	6
N	1.154591	0.100766	-0.660708	7
H	-0.926909	-3.090534	0.356992	1
H	-0.703859	-1.688064	1.417522	1
H	0.679621	-2.355264	0.482602	1
H	-1.882999	1.072616	0.067032	1
H	-0.011319	3.110936	0.129642	1
H	2.325721	1.827126	-0.550368	1
Es	-0.590799	-1.593373	-0.205212	99
Es	1.236199	0.611009	-0.293045	99
Es	0.756623	1.789295	-0.257566	99
Es	1.136790	0.714078	-0.818707	99
Es	0.038551	2.768727	0.058034	99
Es	1.999975	1.699753	-0.511424	99
Es	1.367715	-0.188959	-0.753651	99
Es	0.331791	-2.282527	0.482547	99
Es	0.134701	2.063694	-0.090711	99
Es	1.154130	0.101174	-0.660531	99
Es	-0.380336	0.347198	-0.593043	99
Es	-1.527711	1.068649	0.009669	99
Es	-0.735999	-1.311480	-0.631943	99
Es	-0.759672	-2.779658	0.385582	99
Es	0.466390	-0.001315	-0.549864	99
Es	-0.166949	1.561229	0.173605	99
Es	-1.041594	-1.252275	-0.612994	99
Es	-0.394335	-2.141592	0.469545	99
Es	-0.266536	1.668749	-0.397437	99
Es	-0.818741	1.071965	-0.110916	99
Es	-0.604393	-1.826224	1.115073	99
Es	1.333273	1.406920	-0.441117	99
Es	-0.595981	-1.423117	-0.881081	99
Es	-0.153604	-0.067231	-0.437526	99
Es	-0.256103	0.221448	-0.071235	99
Es	-0.454909	-0.742020	-0.520753	99
39
Properties=species:S:1:pos:R:3:Z:I:1 energy=-338.73650187505035 field_type=dipole dipole="0.000000 0.000000 0.000000" charge=0
C	-0.394259	-2.141734	0.469732	6
O	-0.736219	-1.311594	-0.632258	8
N	-0.153579	-0.067124	-0.437478	7
C	-0.818759	1.072196	-0.110888	6
C	0.134711	2.063676	-0.090718	6
C	1.333261	1.406996	-0.441108	6
N	1.154591	0.100766	-0.660708	7
H	-0.926909	-3.090534	0.356992	1
H	-0.703859	-1.688064	1.417522	1
H	0.679621	-2.355264	0.482602	1
H	-1.882999	1.072616	0.067032	1
H	-0.011319	3.110936	0.129642	1
H	2.325721	1.827126	-0.550368	1
Es	-0.818742	1.071968	-0.110926	99
Es	-0.591401	-1.593374	-0.204788	99
Es	0.466578	-0.001531	-0.549303	99
Es	-0.267657	1.668517	-0.397195	99
Es	1.237024	0.611282	-0.293325	99
Es	0.331744	-2.282476	0.482618	99
Es	-1.041358	-1.252861	-0.614738	99
Es	-0.165557	1.561230	0.173594	99
Es	1.154169	0.101102	-0.660556	99
Es	-0.736125	-1.311408	-0.631793	99
Es	-1.527795	1.068669	0.009605	99
Es	1.367641	-0.188704	-0.753751	99
Es	1.135965	0.714032	-0.818788	99
Es	0.134696	2.063682	-0.090710	99
Es	0.038563	2.768660	0.058079	99
Es	2.000024	1.699733	-0.511366	99
Es	-0.382056	0.348322	-0.592312	99
Es	0.756530	1.789401	-0.257769	99
Es	-0.455303	-0.741681	-0.520636	99
Es	-0.153609	-0.067226	-0.437494	99
Es	-0.759623	-2.779708	0.385528	99
Es	-0.595078	-1.422975	-0.880079	99
Es	-0.394333	-2.141590	0.469545	99
Es	-0.254641	0.220380	-0.072095	99
Es	1.333272	1.406920	-0.441122	99
Es	-0.604451	-1.826245	1.115075	99
39
Properties=species:S:1:pos:R:3:Z:I:1 energy=-338.73650187505035 field_type=dipole dipole="0.000000 0.000000 0.000000" charge=0
C	-0.394259	-2.141734	0.469732	6
O	-0.736219	-1.311594	-0.632258	8
N	-0.153579	-0.067124	-0.437478	7
C	-0.818759	1.072196	-0.110888	6
C	0.134711	2.063676	-0.090718	6
C	1.333261	1.406996	-0.441108	6
N	1.154591	0.100766	-0.660708	7
H	-0.926909	-3.090534	0.356992	1
H	-0.703859	-1.688064	1.417522	1
H	0.679621	-2.355264	0.482602	1
H	-1.882999	1.072616	0.067032	1
H	-0.011319	3.110936	0.129642	1
H	2.325721	1.827126	-0.550368	1
Es	-0.253061	0.219357	-0.072491	99
Es	1.154132	0.101154	-0.660539	99
Es	0.756371	1.789665	-0.258233	99
Es	1.236682	0.611659	-0.293348	99
Es	-0.394335	-2.141593	0.469546	99
Es	0.038466	2.768663	0.057997	99
Es	-0.383251	0.348839	-0.591154	99
Es	0.134699	2.063685	-0.090712	99
Es	-0.454880	-0.741733	-0.521151	99
Es	-0.759669	-2.779673	0.385590	99
Es	-0.604389	-1.826238	1.115056	99
Es	1.136426	0.714285	-0.818440	99
Es	0.466304	-0.001171	-0.550311	99
Es	1.333272	1.406921	-0.441122	99
Es	-0.818744	1.071970	-0.110926	99
Es	-0.153612	-0.067228	-0.437556	99
Es	-1.527921	1.068749	0.009673	99
Es	-0.736048	-1.311539	-0.631965	99
Es	1.367835	-0.188841	-0.753560	99
Es	2.000078	1.699699	-0.511418	99
Es	-0.164451	1.561000	0.173623	99
Es	-0.590706	-1.593765	-0.205169	99
Es	-1.041004	-1.252428	-0.613094	99
Es	-0.596720	-1.422881	-0.880735	99
Es	0.331742	-2.282532	0.482596	99
Es	-0.268740	1.668095	-0.396860	99
39
Properties=species:S:1:pos:R:3:Z:I:1 energy=-338.73650187505035 field_type=dipole dipole="0.000000 0.000000 0.000000" charge=0
C	-0.394259	-2.141734	0.469732	6
O	-0.736219	-1.311594	-0.632258	8
N	-0.153579	-0.067124	-0.437478	7
C	-0.818759	1.072196	-0.110888	6
C	0.134711	2.063676	-0.090718	6
C	1.333261	1.406996	-0.441108	6
N	1.154591	0.100766	-0.660708	7
H	-0.926909	-3.090534	0.356992	1
H	-0.703859	-1.688064	1.417522	1
H	0.679621	-2.355264	0.482602	1
H	-1.882999	1.072616	0.067032	1
H	-0.011319	3.110936	0.129642	1
H	2.325721	1.827126	-0.550368	1
Es	-0.818743	1.071969	-0.110926	99
Es	1.368055	-0.188604	-0.753366	99
Es	-0.266380	1.668251	-0.397656	99
Es	1.236590	0.611831	-0.293760	99
Es	0.756417	1.789385	-0.257040	99
Es	-0.735993	-1.311483	-0.631909	99
Es	1.136468	0.714403	-0.818398	99
Es	-0.253405	0.219395	-0.073028	99
Es	-0.759743	-2.779688	0.385633	99
Es	-0.604336	-1.826258	1.114975	99
Es	-1.041002	-1.252681	-0.613443	99
Es	0.331780	-2.282534	0.482613	99
Es	-1.528016	1.068819	0.009751	99
Es	-0.455003	-0.741588	-0.520931	99
Es	-0.166781	1.560792	0.173505	99
Es	1.333272	1.406921	-0.441120	99
Es	-0.153584	-0.067262	-0.437460	99
Es	0.038604	2.768743	0.057887	99
Es	2.000109	1.699677	-0.511496	99
Es	-0.590648	-1.594030	-0.205305	99
Es	-0.596771	-1.422591	-0.880427	99
Es	-0.394334	-2.141591	0.469543	99
Es	0.134695	2.063684	-0.090716	99
Es	0.466346	-0.001474	-0.550009	99
Es	-0.383253	0.348856	-0.591082	99
Es	1.154134	0.101176	-0.660534	99
39
Properties=species:S:1:pos:R:3:Z:I:1 energy=-338.73650187505035 field_type=dipole dipole="0.000000 0.000000 0.000000" charge=0
C	-0.394259	-2.141734	0.469732	6
O	-0.736219	-1.311594	-0.632258	8
N	-0.153579	-0.067124	-0.437478	7
C	-0.818759	1.072196	-0.110888	6
C	0.134711	2.063676	-0.090718	6
C	1.333261	1.406996	-0.441108	6
N	1.154591	0.100766	-0.660708	7
H	-0.926909	-3.090534	0.356992	1
H	-0.703859	-1.688064	1.417522	1
H	0.679621	-2.355264	0.482602	1
H	-1.882999	1.072616	0.067032	1
H	-0.011319	3.110936	0.129642	1
H	2.325721	1.827126	-0.550368	1
Es	1.236910	0.611871	-0.293669	99
Es	-0.253798	0.219676	-0.073039	99
Es	-0.818744	1.071970	-0.110926	99
Es	0.038448	2.768671	0.058079	99
Es	-0.759606	-2.779686	0.385605	99
Es	-0.454845	-0.741574	-0.521024	99
Es	1.136486	0.714503	-0.818247	99
Es	-0.268861	1.667753	-0.396692	99
Es	0.466361	-0.001346	-0.549626	99
Es	-1.040915	-1.252673	-0.613486	99
Es	1.367784	-0.188655	-0.753613	99
Es	-0.596986	-1.422660	-0.880156	99
Es	1.154150	0.101178	-0.660536	99
Es	0.331710	-2.282507	0.482633	99
Es	-0.382951	0.348637	-0.591268	99
Es	2.000183	1.699616	-0.511515	99
Es	-0.735978	-1.311510	-0.631968	99
Es	-0.604405	-1.826269	1.115055	99
Es	-1.528128	1.068859	0.009773	99
Es	-0.163819	1.560675	0.173446	99
Es	0.756161	1.789865	-0.258435	99
Es	1.333270	1.406922	-0.441129	99
Es	-0.394335	-2.141591	0.469543	99
Es	0.134703	2.063693	-0.090708	99
Es	-0.590716	-1.594056	-0.205302	99
Es	-0.153602	-0.067242	-0.437495	99
39
Properties=species:S:1:pos:R:3:Z:I:1 energy=-338.73650187505035 field_type=dipole dipole="0.000000 0.000000 0.000000" charge=0
C	-0.394259	-2.141734	0.469732	6
O	-0.736219	-1.311594	-0.632258	8
N	-0.153579	-0.067124	-0.437478	7
C	-0.818759	1.072196	-0.110888	6
C	0.134711	2.063676	-0.090718	6
C	1.333261	1.406996	-0.441108	6
N	1.154591	0.100766	-0.660708	7
H	-0.926909	-3.090534	0.356992	1
H	-0.703859	-1.688064	1.417522	1
H	0.679621	-2.355264	0.482602	1
H	-1.882999	1.072616	0.067032	1
H	-0.011319	3.110936	0.129642	1
H	2.325721	1.827126	-0.550368	1
Es	-0.604331	-1.826301	1.114996	99
Es	-0.735952	-1.311501	-0.631924	99
Es	-0.385304	0.349985	-0.589459	99
Es	-0.394334	-2.141593	0.469546	99
Es	1.333272	1.406920	-0.441122	99
Es	0.466182	-0.001244	-0.550953	99
Es	-0.153611	-0.067229	-0.437558	99
Es	1.154137	0.101172	-0.660534	99
Es	-0.268965	1.667444	-0.396651	99
Es	-0.759681	-2.779736	0.385609	99
Es	-0.250949	0.217805	-0.073664	99
Es	1.236731	0.612343	-0.293597	99
Es	0.331684	-2.282503	0.482659	99
Es	-0.455101	-0.741372	-0.521321	99
Es	0.134696	2.063683	-0.090713	99
Es	-0.590402	-1.594375	-0.205306	99
Es	1.367978	-0.188557	-0.753426	99
Es	-0.818743	1.071971	-0.110924	99
Es	1.136590	0.714761	-0.818192	99
Es	-0.163753	1.560428	0.173345	99
Es	-0.597681	-1.422375	-0.880369	99
Es	2.000206	1.699606	-0.511475	99
Es	0.756080	1.789888	-0.258361	99
Es	0.038373	2.768772	0.058009	99
Es	-1.528232	1.068891	0.009902	99
Es	-1.040415	-1.252763	-0.613219	99
39
Properties=species:S:1:pos:R:3:Z:I:1 energy=-338.73650187505035 field_type=dipole dipole="0.000000 0.000000 0.000000" charge=0
C	-0.394259	-2.141734	0.469732	6
O	-0.736219	-1.311594	-0.632258	8
N	-0.153579	-0.067124	-0.437478	7
C	-0.818759	1.072196	-0.110888	6
C	0.134711	2.063676	-0.090718	6
C	1.333261	1.406996	-0.441108	6
N	1.154591	0.100766	-0.660708	7
H	-0.926909	-3.090534	0.356992	1
H	-0.703859	-1.688064	1.417522	1
H	0.679621	-2.355264	0.482602	1
H	-1.882999	1.072616	0.067032	1
H	-0.011319	3.110936	0.129642	1
H	2.325721	1.827126	-0.550368	1
Es	-0.163976	1.560284	0.173369	99
Es	-0.394334	-2.141594	0.469547	99
Es	1.367767	-0.188410	-0.754015	99
Es	0.466418	-0.001494	-0.549783	99
Es	-0.590925	-1.594497	-0.204999	99
Es	0.331668	-2.282481	0.482635	99
Es	-0.153610	-0.067231	-0.437562	99
Es	1.333272	1.406920	-0.441121	99
Es	-0.253910	0.219634	-0.073366	99
Es	0.756116	1.790042	-0.258251	99
Es	-0.604301	-1.826276	1.115003	99
Es	-0.818744	1.071971	-0.110926	99
Es	-0.382698	0.348454	-0.590961	99
Es	-0.759660	-2.779758	0.385640	99
Es	-0.596794	-1.422168	-0.879325	99
Es	1.154128	0.101176	-0.660525	99
Es	-0.455311	-0.741235	-0.520994	99
Es	-1.528325	1.069007	0.009827	99
Es	-0.268570	1.667304	-0.396822	99
Es	1.237090	0.612256	-0.293370	99
Es	2.000256	1.699556	-0.511488	99
Es	-0.736031	-1.311483	-0.631924	99
Es	0.038310	2.768724	0.057983	99
Es	0.134699	2.063684	-0.090711	99
Es	1.136454	0.714856	-0.817912	99
Es	-1.040512	-1.253123	-0.614650	99
39
Properties=species:S:1:pos:R:3:Z:I:1 energy=-338.73650187505035 field_type=dipole dipole="0.000000 0.000000 0.000000" charge=0
C	-0.394259	-2.141734	0.469732	6
O	-0.736219	-1.311594	-0.632258	8
N	-0.153579	-0.067124	-0.437478	7
C	-0.818759	1.072196	-0.110888	6
C	0.134711	2.063676	-0.090718	6
C	1.333261	1.406996	-0.441108	6
N	1.154591	0.100766	-0.660708	7
H	-0.926909	-3.090534	0.356992	1
H	-0.703859	-1.688064	1.417522	1
H	0.679621	-2.355264	0.482602	1
H	-1.882999	1.072616	0.067032	1
H	-0.011319	3.110936	0.129642	1
H	2.325721	1.827126	-0.550368	1
Es	1.368122	-0.188287	-0.753613	99
Es	-0.604300	-1.826291	1.115003	99
Es	-0.454906	-0.741308	-0.520914	99
Es	-0.736056	-1.311599	-0.631956	99
Es	0.134696	2.063682	-0.090711	99
Es	1.237373	0.612378	-0.294630	99
Es	0.038349	2.768694	0.058179	99
Es	-0.597595	-1.421762	-0.879096	99
Es	-0.375390	0.344250	-0.595427	99
Es	-0.590519	-1.594917	-0.205233	99
Es	-0.168780	1.560036	0.172881	99
Es	-0.759663	-2.779753	0.385633	99
Es	-0.263669	1.667842	-0.398658	99
Es	2.000319	1.699549	-0.511485	99
Es	-1.528394	1.069035	0.009927	99
Es	-0.818744	1.071971	-0.110926	99
Es	1.135857	0.714972	-0.818187	99
Es	1.154138	0.101174	-0.660534	99
Es	-0.262371	0.224811	-0.072448	99
Es	-1.040427	-1.252999	-0.614412	99
Es	-0.153601	-0.067239	-0.437488	99
Es	0.331649	-2.282493	0.482648	99
Es	-0.394334	-2.141594	0.469547	99
Es	0.756380	1.789648	-0.256113	99
Es	0.467070	-0.002599	-0.545569	99
Es	1.333272	1.406920	-0.441121	99
39
Properties=species:S:1:pos:R:3:Z:I:1 energy=-338.73650187505035 field_type=dipole dipole="0.000000 0.000000 0.000000" charge=0
C	-0.394259	-2.141734	0.469732	6
O	-0.736219	-1.311594	-0.632258	8
N	-0.153579	-0.067124	-0.437478	7
C	-0.818759	1.072196	-0.110888	6
C	0.134711	2.063676	-0.090718	6
C	1.333261	1.406996	-0.441108	6
N	1.154591	0.100766	-0.660708	7
H	-0.926909	-3.090534	0.356992	1
H	-0.703859	-1.688064	1.417522	1
H	0.679621	-2.355264	0.482602	1
H	-1.882999	1.072616	0.067032	1
H	-0.011319	3.110936	0.129642	1
H	2.325721	1.827126	-0.550368	1
Es	-0.455242	-0.741134	-0.520765	99
Es	0.466712	-0.002445	-0.547862	99
Es	-0.591837	-1.594329	-0.204562	99
Es	-0.604318	-1.826313	1.114987	99
Es	1.154145	0.101172	-0.660534	99
Es	-0.818744	1.071970	-0.110925	99
Es	-0.266073	1.667337	-0.397829	99
Es	1.237006	0.612761	-0.294536	99
Es	-0.153589	-0.067255	-0.437453	99
Es	-0.394333	-2.141595	0.469548	99
Es	2.000372	1.699537	-0.511473	99
Es	-0.595925	-1.422262	-0.878108	99
Es	0.134696	2.063681	-0.090712	99
Es	-0.166243	1.559865	0.173013	99
Es	-1.040491	-1.253429	-0.616390	99
Es	0.756073	1.789960	-0.257207	99
Es	-1.528511	1.069054	0.009970	99
Es	1.136130	0.715151	-0.817948	99
Es	0.038270	2.768718	0.058172	99
Es	0.331636	-2.282480	0.482683	99
Es	-0.736073	-1.311439	-0.631836	99
Es	1.368400	-0.187997	-0.753353	99
Es	-0.378602	0.345955	-0.593069	99
Es	-0.258600	0.222476	-0.073015	99
Es	-0.759654	-2.779763	0.385625	99
Es	1.333272	1.406922	-0.441121	99
39
Properties=species:S:1:pos:R:3:Z:I:1 energy=-338.73650187505035 field_type=dipole dipole="0.000000 0.000000 0.000000" charge=0
C	-0.394259	-2.141734	0.469732	6
O	-0.736219	-1.311594	-0.632258	8
N	-0.153579	-0.067124	-0.437478	7
C	-0.818759	1.072196	-0.110888	6
C	0.134711	2.063676	-0.090718	6
C	1.333261	1.406996	-0.441108	6
N	1.154591	0.100766	-0.660708	7
H	-0.926909	-3.090534	0.356992	1
H	-0.703859	-1.688064	1.417522	1
H	0.679621	-2.355264	0.482602	1
H	-1.882999	1.072616	0.067032	1
H	-0.011319	3.110936	0.129642	1
H	2.325721	1.827126	-0.550368	1
Es	-0.604289	-1.826301	1.115004	99
Es	0.755912	1.790182	-0.258135	99
Es	-0.818744	1.071971	-0.110926	99
Es	2.000397	1.699509	-0.511577	99
Es	-0.591038	-1.594940	-0.204891	99
Es	-1.528578	1.069136	0.009912	99
Es	1.333271	1.406920	-0.441122	99
Es	1.136829	0.715320	-0.817469	99
Es	-0.153608	-0.067230	-0.437516	99
Es	0.466115	-0.001645	-0.550216	99
Es	0.331635	-2.282509	0.482652	99
Es	-0.597793	-1.422023	-0.879160	99
Es	-0.164166	1.559757	0.173210	99
Es	-0.455213	-0.740981	-0.521524	99
Es	0.038263	2.768700	0.058010	99
Es	-0.385016	0.349851	-0.589268	99
Es	-0.268205	1.666910	-0.396944	99
Es	1.368249	-0.188085	-0.753542	99
Es	0.134695	2.063682	-0.090715	99
Es	1.154131	0.101171	-0.660537	99
Es	-0.394333	-2.141596	0.469549	99
Es	-1.039686	-1.253104	-0.614558	99
Es	-0.759651	-2.779740	0.385655	99
Es	1.236787	0.612893	-0.294076	99
Es	-0.735979	-1.311506	-0.631952	99
Es	-0.251510	0.217775	-0.074565	99
39
Properties=species:S:1:pos:R:3:Z:I:1 energy=-338.73650187505035 field_type=dipole dipole="0.000000 0.000000 0.000000" charge=0
C	-0.394259	-2.141734	0.469732	6
O	-0.736219	-1.311594	-0.632258	8
N	-0.153579	-0.067124	-0.437478	7
C	-0.818759	1.072196	-0.110888	6
C	0.134711	2.063676	-0.090718	6
C	1.333261	1.406996	-0.441108	6
N	1.154591	0.100766	-0.660708	7
H	-0.926909	-3.090534	0.356992	1
H	-0.703859	-1.688064	1.417522	1
H	0.679621	-2.355264	0.482602	1
H	-1.882999	1.072616	0.067032	1
H	-0.011319	3.110936	0.129642	1
H	2.325721	1.827126	-0.550368	1
Es	-0.394333	-2.141596	0.469548	99
Es	-0.153622	-0.067208	-0.437579	99
Es	1.236956	0.613161	-0.294271	99
Es	-0.604256	-1.826311	1.114982	99
Es	-1.528667	1.069184	0.009973	99
Es	-0.736103	-1.311460	-0.631894	99
Es	-1.039664	-1.253441	-0.615504	99
Es	-0.759656	-2.779777	0.385663	99
Es	-0.380614	0.347080	-0.591734	99
Es	1.333272	1.406920	-0.441122	99
Es	-0.164159	1.559672	0.173039	99
Es	1.154138	0.101172	-0.660535	99
Es	-0.455270	-0.740879	-0.521145	99
Es	0.331599	-2.282487	0.482670	99
Es	0.755875	1.790170	-0.258205	99
Es	1.136706	0.715591	-0.817404	99
Es	2.000443	1.699477	-0.511573	99
Es	-0.591277	-1.595057	-0.204803	99
Es	1.368318	-0.188005	-0.753543	99
Es	-0.818744	1.071971	-0.110924	99
Es	0.134695	2.063681	-0.090712	99
Es	-0.597375	-1.421805	-0.878382	99
Es	-0.256122	0.220763	-0.073768	99
Es	0.466400	-0.002080	-0.548601	99
Es	0.038238	2.768761	0.057959	99
Es	-0.268303	1.666622	-0.396837	99
