43
Properties=species:S:1:pos:R:3:Z:I:1 energy=-323.90610376765477 field_type=dipole dipole="0.000000 0.000000 0.000000" charge=0
C	3.090383	-1.588779	0.190852	6
O	2.137303	-0.777229	-0.485268	8
N	0.911533	-0.878539	0.189413	7
C	0.026473	-0.188979	-0.454848	6
C	-1.401047	-0.121349	0.022512	6
C	-1.703027	1.288191	0.435093	6
C	-2.623447	2.064561	-0.152317	6
H	4.041252	-1.524579	-0.344007	1
H	2.761163	-2.632429	0.200092	1
H	3.235703	-1.229589	1.214683	1
H	0.275503	0.362221	-1.379107	1
H	-1.545017	-0.796209	0.871842	1
H	-2.046547	-0.450949	-0.798097	1
H	-1.135987	1.683881	1.276512	1
H	-3.222347	1.713431	-0.987247	1
H	-2.801897	3.076341	0.199892	1
Es	-1.702944	1.288085	0.435123	99
Es	3.090237	-1.588644	0.190733	99
Es	2.080381	-0.904047	-0.761191	99
Es	0.188196	0.182634	-1.073977	99
Es	1.603282	-0.827473	-0.182445	99
Es	0.898732	-1.089112	0.504668	99
Es	3.191751	-1.346908	0.892996	99
Es	3.735373	-1.541293	-0.177189	99
Es	-0.679829	-0.153753	-0.210301	99
Es	-2.749266	2.750719	0.080462	99
Es	-3.031195	1.828752	-0.719723	99
Es	-1.546270	0.580423	0.219446	99
Es	-2.623518	2.064619	-0.152363	99
Es	-1.830511	-0.337200	-0.536660	99
Es	-1.940053	1.791730	-0.075030	99
Es	-1.400979	-0.121298	0.022490	99
Es	-1.497040	-0.565656	0.593002	99
Es	2.867732	-2.304110	0.200466	99
Es	2.480906	-1.091584	-0.209034	99
Es	2.216729	-0.480359	-0.453079	99
Es	-2.393032	1.569101	0.339752	99
Es	0.456678	-0.812179	-0.249011	99
Es	0.026424	-0.188974	-0.454828	99
Es	0.590044	-0.340852	0.069935	99
Es	0.911603	-0.878206	0.188891	99
Es	2.137254	-0.777465	-0.484967	99
Es	-1.312655	1.546018	1.003688	99
43
Properties=species:S:1:pos:R:3:Z:I:1 energy=-323.90610376765477 field_type=dipole dipole="0.000000 0.000000 0.000000" charge=0
C	3.090383	-1.588779	0.190852	6
O	2.137303	-0.777229	-0.485268	8
N	0.911533	-0.878539	0.189413	7
C	0.026473	-0.188979	-0.454848	6
C	-1.401047	-0.121349	0.022512	6
C	-1.703027	1.288191	0.435093	6
C	-2.623447	2.064561	-0.152317	6
H	4.041252	-1.524579	-0.344007	1
H	2.761163	-2.632429	0.200092	1
H	3.235703	-1.229589	1.214683	1
H	0.275503	0.362221	-1.379107	1
H	-1.545017	-0.796209	0.871842	1
H	-2.046547	-0.450949	-0.798097	1
H	-1.135987	1.683881	1.276512	1
H	-3.222347	1.713431	-0.987247	1
H	-2.801897	3.076341	0.199892	1
Es	-0.679890	-0.153772	-0.210246	99
Es	-2.623516	2.064617	-0.152363	99
Es	2.137257	-0.777441	-0.485014	99
Es	-2.393242	1.569064	0.339860	99
Es	-2.749278	2.750741	0.080447	99
Es	2.867794	-2.304134	0.200435	99
Es	-1.830457	-0.337236	-0.536672	99
Es	3.191677	-1.346947	0.892984	99
Es	-1.497068	-0.565640	0.593024	99
Es	2.480502	-1.092660	-0.210006	99
Es	3.090237	-1.588642	0.190732	99
Es	0.589982	-0.340951	0.069935	99
Es	0.188252	0.182654	-1.073963	99
Es	0.898678	-1.088862	0.504540	99
Es	-1.312477	1.546188	1.003552	99
Es	0.456643	-0.812268	-0.248910	99
Es	2.216533	-0.482704	-0.448407	99
Es	-1.546222	0.580418	0.219304	99
Es	0.911628	-0.878215	0.188906	99
Es	-3.030987	1.828822	-0.719897	99
Es	-1.940299	1.791521	-0.074716	99
Es	0.026425	-0.188969	-0.454825	99
Es	3.735406	-1.541238	-0.177094	99
Es	-1.702944	1.288086	0.435121	99
Es	1.602995	-0.827880	-0.182726	99
Es	2.081383	-0.900288	-0.764635	99
Es	-1.400981	-0.121297	0.022490	99
43
Properties=species:S:1:pos:R:3:Z:I:1 energy=-323.90610376765477 field_type=dipole dipole="0.000000 0.000000 0.000000" charge=0
C	3.090383	-1.588779	0.190852	6
O	2.137303	-0.777229	-0.485268	8
N	0.911533	-0.878539	0.189413	7
C	0.026473	-0.188979	-0.454848	6
C	-1.401047	-0.121349	0.022512	6
C	-1.703027	1.288191	0.435093	6
C	-2.623447	2.064561	-0.152317	6
H	4.041252	-1.524579	-0.344007	1
H	2.761163	-2.632429	0.200092	1
H	3.235703	-1.229589	1.214683	1
H	0.275503	0.362221	-1.379107	1
H	-1.545017	-0.796209	0.871842	1
H	-2.046547	-0.450949	-0.798097	1
H	-1.135987	1.683881	1.276512	1
H	-3.222347	1.713431	-0.987247	1
H	-2.801897	3.076341	0.199892	1
Es	2.480629	-1.092692	-0.209930	99
Es	-1.830470	-0.337153	-0.536661	99
Es	0.898546	-1.088970	0.504372	99
Es	-1.497085	-0.565703	0.592962	99
Es	2.867786	-2.304055	0.200428	99
Es	2.216978	-0.482414	-0.450446	99
Es	-2.393232	1.569059	0.339817	99
Es	2.137267	-0.777419	-0.484953	99
Es	0.456712	-0.811986	-0.248805	99
Es	3.191715	-1.346955	0.893041	99
Es	1.603210	-0.826950	-0.182162	99
Es	-2.749154	2.750787	0.080485	99
Es	2.080696	-0.901511	-0.763266	99
Es	-1.546198	0.580374	0.219350	99
Es	-1.400980	-0.121297	0.022490	99
Es	0.026428	-0.188965	-0.454821	99
Es	-0.679961	-0.153803	-0.210331	99
Es	3.090239	-1.588645	0.190734	99
Es	-1.702945	1.288085	0.435124	99
Es	-1.312472	1.546207	1.003551	99
Es	-3.031002	1.828871	-0.719958	99
Es	-2.623515	2.064616	-0.152361	99
Es	3.735387	-1.541302	-0.177166	99
Es	0.188353	0.182622	-1.073967	99
Es	0.589914	-0.341048	0.070037	99
Es	0.911630	-0.878216	0.188903	99
Es	-1.940447	1.791429	-0.074612	99
43
Properties=species:S:1:pos:R:3:Z:I:1 energy=-323.90610376765477 field_type=dipole dipole="0.000000 0.000000 0.000000" charge=0
C	3.090383	-1.588779	0.190852	6
O	2.137303	-0.777229	-0.485268	8
N	0.911533	-0.878539	0.189413	7
C	0.026473	-0.188979	-0.454848	6
C	-1.401047	-0.121349	0.022512	6
C	-1.703027	1.288191	0.435093	6
C	-2.623447	2.064561	-0.152317	6
H	4.041252	-1.524579	-0.344007	1
H	2.761163	-2.632429	0.200092	1
H	3.235703	-1.229589	1.214683	1
H	0.275503	0.362221	-1.379107	1
H	-1.545017	-0.796209	0.871842	1
H	-2.046547	-0.450949	-0.798097	1
H	-1.135987	1.683881	1.276512	1
H	-3.222347	1.713431	-0.987247	1
H	-2.801897	3.076341	0.199892	1
Es	2.216620	-0.482392	-0.450610	99
Es	3.191728	-1.347010	0.892998	99
Es	0.026420	-0.188973	-0.454832	99
Es	-1.546280	0.580341	0.219358	99
Es	2.081396	-0.901627	-0.763158	99
Es	-1.400981	-0.121298	0.022490	99
Es	0.456675	-0.812136	-0.248728	99
Es	-1.830452	-0.337188	-0.536623	99
Es	0.188361	0.182665	-1.073920	99
Es	0.589843	-0.341164	0.069998	99
Es	1.603043	-0.827574	-0.182534	99
Es	2.867816	-2.304101	0.200405	99
Es	-2.749254	2.750762	0.080498	99
Es	-2.393110	1.569128	0.339742	99
Es	-3.030963	1.828850	-0.719943	99
Es	-1.940411	1.791478	-0.074574	99
Es	0.911578	-0.878203	0.188907	99
Es	2.480692	-1.091942	-0.209458	99
Es	-0.680036	-0.153731	-0.210282	99
Es	3.735376	-1.541259	-0.177110	99
Es	0.898476	-1.088737	0.504131	99
Es	-1.702945	1.288086	0.435121	99
Es	3.090239	-1.588645	0.190734	99
Es	-1.312517	1.546235	1.003577	99
Es	-1.497011	-0.565736	0.592949	99
Es	-2.623513	2.064619	-0.152364	99
Es	2.137239	-0.777480	-0.484915	99
43
Properties=species:S:1:pos:R:3:Z:I:1 energy=-323.90610376765477 field_type=dipole dipole="0.000000 0.000000 0.000000" charge=0
C	3.090383	-1.588779	0.190852	6
O	2.137303	-0.777229	-0.485268	8
N	0.911533	-0.878539	0.189413	7
C	0.026473	-0.188979	-0.454848	6
C	-1.401047	-0.121349	0.022512	6
C	-1.703027	1.288191	0.435093	6
C	-2.623447	2.064561	-0.152317	6
H	4.041252	-1.524579	-0.344007	1
H	2.761163	-2.632429	0.200092	1
H	3.235703	-1.229589	1.214683	1
H	0.275503	0.362221	-1.379107	1
H	-1.545017	-0.796209	0.871842	1
H	-2.046547	-0.450949	-0.798097	1
H	-1.135987	1.683881	1.276512	1
H	-3.222347	1.713431	-0.987247	1
H	-2.801897	3.076341	0.199892	1
Es	0.026423	-0.188971	-0.454829	99
Es	-1.940526	1.791388	-0.074460	99
Es	2.216757	-0.482760	-0.450913	99
Es	3.090240	-1.588645	0.190735	99
Es	-3.030918	1.828722	-0.719937	99
Es	2.867832	-2.304113	0.200408	99
Es	-2.393017	1.569263	0.339739	99
Es	-1.312410	1.546268	1.003580	99
Es	-1.497002	-0.565639	0.592965	99
Es	0.898255	-1.088865	0.503967	99
Es	2.137275	-0.777417	-0.484970	99
Es	0.188410	0.182575	-1.073945	99
Es	-1.546328	0.580252	0.219299	99
Es	0.456755	-0.811788	-0.248691	99
Es	0.911597	-0.878203	0.188899	99
Es	-2.749289	2.750833	0.080419	99
Es	-1.830513	-0.337261	-0.536736	99
Es	2.481099	-1.092826	-0.210110	99
Es	-1.702945	1.288091	0.435121	99
Es	-2.623521	2.064614	-0.152358	99
Es	-0.680106	-0.153709	-0.210186	99
Es	2.080860	-0.900916	-0.762489	99
Es	3.191708	-1.347031	0.892977	99
Es	3.735391	-1.541244	-0.177071	99
Es	0.589869	-0.341196	0.070115	99
Es	-1.400982	-0.121296	0.022489	99
Es	1.603118	-0.827159	-0.182160	99
43
Properties=species:S:1:pos:R:3:Z:I:1 energy=-323.90610376765477 field_type=dipole dipole="0.000000 0.000000 0.000000" charge=0
C	3.090383	-1.588779	0.190852	6
O	2.137303	-0.777229	-0.485268	8
N	0.911533	-0.878539	0.189413	7
C	0.026473	-0.188979	-0.454848	6
C	-1.401047	-0.121349	0.022512	6
C	-1.703027	1.288191	0.435093	6
C	-2.623447	2.064561	-0.152317	6
H	4.041252	-1.524579	-0.344007	1
H	2.761163	-2.632429	0.200092	1
H	3.235703	-1.229589	1.214683	1
H	0.275503	0.362221	-1.379107	1
H	-1.545017	-0.796209	0.871842	1
H	-2.046547	-0.450949	-0.798097	1
H	-1.135987	1.683881	1.276512	1
H	-3.222347	1.713431	-0.987247	1
H	-2.801897	3.076341	0.199892	1
Es	-1.830504	-0.337255	-0.536613	99
Es	0.898367	-1.088520	0.503902	99
Es	3.090239	-1.588645	0.190734	99
Es	-1.546106	0.580323	0.219169	99
Es	2.137295	-0.777412	-0.484918	99
Es	3.191598	-1.347115	0.893038	99
Es	-1.496980	-0.565660	0.592992	99
Es	-1.940476	1.791487	-0.074419	99
Es	3.735415	-1.541169	-0.176950	99
Es	-2.623514	2.064618	-0.152364	99
Es	-2.392979	1.569156	0.339593	99
Es	-1.400980	-0.121298	0.022490	99
Es	0.188419	0.182624	-1.073934	99
Es	1.602841	-0.827482	-0.182276	99
Es	0.911607	-0.878201	0.188895	99
Es	0.589818	-0.341266	0.070040	99
Es	-1.312614	1.546315	1.003669	99
Es	2.216577	-0.482471	-0.451995	99
Es	-2.749264	2.750730	0.080514	99
Es	-1.702948	1.288087	0.435120	99
Es	0.456663	-0.812062	-0.248638	99
Es	2.081066	-0.901394	-0.761523	99
Es	0.026420	-0.188968	-0.454830	99
Es	-0.680187	-0.153811	-0.210223	99
Es	-3.031050	1.828794	-0.719910	99
Es	2.481376	-1.092330	-0.209996	99
Es	2.867934	-2.304110	0.200293	99
43
Properties=species:S:1:pos:R:3:Z:I:1 energy=-323.90610376765477 field_type=dipole dipole="0.000000 0.000000 0.000000" charge=0
C	3.090383	-1.588779	0.190852	6
O	2.137303	-0.777229	-0.485268	8
N	0.911533	-0.878539	0.189413	7
C	0.026473	-0.188979	-0.454848	6
C	-1.401047	-0.121349	0.022512	6
C	-1.703027	1.288191	0.435093	6
C	-2.623447	2.064561	-0.152317	6
H	4.041252	-1.524579	-0.344007	1
H	2.761163	-2.632429	0.200092	1
H	3.235703	-1.229589	1.214683	1
H	0.275503	0.362221	-1.379107	1
H	-1.545017	-0.796209	0.871842	1
H	-2.046547	-0.450949	-0.798097	1
H	-1.135987	1.683881	1.276512	1
H	-3.222347	1.713431	-0.987247	1
H	-2.801897	3.076341	0.199892	1
Es	-3.031019	1.828795	-0.719881	99
Es	-1.312579	1.546331	1.003623	99
Es	0.911610	-0.878205	0.188897	99
Es	0.026423	-0.188971	-0.454829	99
Es	-1.497083	-0.565679	0.592955	99
Es	-1.400982	-0.121299	0.022490	99
Es	0.898202	-1.088413	0.503676	99
Es	-2.623513	2.064619	-0.152366	99
Es	1.602664	-0.827808	-0.182584	99
Es	0.456630	-0.812056	-0.248536	99
Es	0.589810	-0.341266	0.070114	99
Es	2.081605	-0.899694	-0.762080	99
Es	2.137196	-0.777560	-0.484998	99
Es	2.216682	-0.483076	-0.450555	99
Es	-0.680086	-0.153739	-0.210223	99
Es	-1.546350	0.580165	0.219245	99
Es	2.481158	-1.093071	-0.210398	99
Es	-2.392854	1.569254	0.339556	99
Es	-1.940422	1.791506	-0.074497	99
Es	2.867837	-2.304061	0.200478	99
Es	3.735405	-1.541300	-0.177096	99
Es	0.188451	0.182575	-1.073934	99
Es	-2.749357	2.750718	0.080560	99
Es	3.090242	-1.588647	0.190736	99
Es	-1.702946	1.288086	0.435121	99
Es	3.191736	-1.347034	0.892949	99
Es	-1.830428	-0.337203	-0.536567	99
43
Properties=species:S:1:pos:R:3:Z:I:1 energy=-323.90610376765477 field_type=dipole dipole="0.000000 0.000000 0.000000" charge=0
C	3.090383	-1.588779	0.190852	6
O	2.137303	-0.777229	-0.485268	8
N	0.911533	-0.878539	0.189413	7
C	0.026473	-0.188979	-0.454848	6
C	-1.401047	-0.121349	0.022512	6
C	-1.703027	1.288191	0.435093	6
C	-2.623447	2.064561	-0.152317	6
H	4.041252	-1.524579	-0.344007	1
H	2.761163	-2.632429	0.200092	1
H	3.235703	-1.229589	1.214683	1
H	0.275503	0.362221	-1.379107	1
H	-1.545017	-0.796209	0.871842	1
H	-2.046547	-0.450949	-0.798097	1
H	-1.135987	1.683881	1.276512	1
H	-3.222347	1.713431	-0.987247	1
H	-2.801897	3.076341	0.199892	1
Es	-1.497159	-0.565662	0.592984	99
Es	3.191674	-1.347095	0.892958	99
Es	1.602763	-0.826906	-0.182079	99
Es	-1.940779	1.791281	-0.074117	99
Es	2.867879	-2.304068	0.200424	99
Es	-1.830444	-0.337156	-0.536648	99
Es	2.137303	-0.777389	-0.484880	99
Es	-2.392974	1.569299	0.339667	99
Es	-2.623507	2.064615	-0.152362	99
Es	2.080641	-0.904175	-0.758067	99
Es	2.216420	-0.481652	-0.456676	99
Es	-2.749149	2.750858	0.080474	99
Es	0.898297	-1.087968	0.503808	99
Es	0.456555	-0.812387	-0.248323	99
Es	0.026421	-0.188986	-0.454836	99
Es	3.735436	-1.541241	-0.177039	99
Es	-1.312504	1.546383	1.003531	99
Es	2.482246	-1.091067	-0.208982	99
Es	-1.546120	0.580151	0.219060	99
Es	3.090245	-1.588650	0.190737	99
Es	-1.400981	-0.121298	0.022490	99
Es	0.188510	0.182556	-1.073916	99
Es	-1.702946	1.288088	0.435122	99
Es	0.911620	-0.878206	0.188894	99
Es	0.589710	-0.341420	0.069726	99
Es	-3.030932	1.828803	-0.720026	99
Es	-0.680192	-0.153739	-0.210067	99
43
Properties=species:S:1:pos:R:3:Z:I:1 energy=-323.90610376765477 field_type=dipole dipole="0.000000 0.000000 0.000000" charge=0
C	3.090383	-1.588779	0.190852	6
O	2.137303	-0.777229	-0.485268	8
N	0.911533	-0.878539	0.189413	7
C	0.026473	-0.188979	-0.454848	6
C	-1.401047	-0.121349	0.022512	6
C	-1.703027	1.288191	0.435093	6
C	-2.623447	2.064561	-0.152317	6
H	4.041252	-1.524579	-0.344007	1
H	2.761163	-2.632429	0.200092	1
H	3.235703	-1.229589	1.214683	1
H	0.275503	0.362221	-1.379107	1
H	-1.545017	-0.796209	0.871842	1
H	-2.046547	-0.450949	-0.798097	1
H	-1.135987	1.683881	1.276512	1
H	-3.222347	1.713431	-0.987247	1
H	-2.801897	3.076341	0.199892	1
Es	-1.940764	1.791320	-0.074147	99
Es	2.481902	-1.092556	-0.210233	99
Es	2.216506	-0.483482	-0.452399	99
Es	0.589719	-0.341438	0.070123	99
Es	0.898104	-1.088189	0.503351	99
Es	-0.680194	-0.153825	-0.210057	99
Es	0.456654	-0.812031	-0.248436	99
Es	1.602932	-0.827021	-0.181819	99
Es	2.867850	-2.304048	0.200388	99
Es	0.026420	-0.188976	-0.454832	99
Es	3.191744	-1.347074	0.893032	99
Es	-1.830400	-0.337239	-0.536628	99
Es	0.188493	0.182619	-1.073868	99
Es	-3.030984	1.828739	-0.719951	99
Es	2.081002	-0.900735	-0.761089	99
Es	-1.400981	-0.121298	0.022491	99
Es	-2.392796	1.569335	0.339548	99
Es	-1.312519	1.546472	1.003559	99
Es	-2.623514	2.064617	-0.152363	99
Es	-1.546224	0.580121	0.219063	99
Es	-1.702946	1.288088	0.435121	99
Es	2.137245	-0.777459	-0.485021	99
Es	-2.749259	2.750817	0.080512	99
Es	0.911578	-0.878213	0.188921	99
Es	3.735363	-1.541305	-0.177089	99
Es	3.090239	-1.588645	0.190735	99
Es	-1.497139	-0.565627	0.592945	99
