43
Properties=species:S:1:pos:R:3:Z:I:1 energy=-323.9486095086812 field_type=dipole dipole="0.000000 0.000000 0.000000" charge=0
N	-1.899679	-0.492356	-0.519502	7
C	-0.598359	-0.179416	0.084428	6
C	0.188891	-1.333956	0.652528	6
C	0.647711	-0.618106	-0.586902	6
C	1.616721	0.507514	-0.509212	6
O	0.874611	1.667114	-0.089222	8
C	-0.323529	1.220604	0.575418	6
H	-2.227209	0.281914	-1.100952	1
H	-2.609199	-0.629086	0.201888	1
H	-0.205789	-2.337436	0.532668	1
H	0.735681	-1.183806	1.574898	1
H	0.596071	-1.105216	-1.548602	1
H	2.407141	0.313824	0.223518	1
H	2.078231	0.723974	-1.475832	1
H	-0.155229	1.243314	1.656468	1
H	-1.126069	1.921124	0.328408	1
Es	-0.479722	0.510717	0.357206	99
Es	-0.879866	1.690441	0.404310	99
Es	-0.004828	-0.300791	-0.388746	99
Es	-2.319076	-0.550572	-0.071576	99
Es	1.045983	1.832199	0.110722	99
Es	-0.335310	-0.764867	0.531650	99
Es	1.616585	0.507671	-0.509145	99
Es	1.149172	-0.082061	-0.535174	99
Es	0.770680	1.784642	-0.349718	99
Es	0.563210	-1.222968	1.277043	99
Es	-1.873182	-0.782974	-0.706304	99
Es	0.647645	-0.618136	-0.586751	99
Es	1.140299	1.211372	-0.228032	99
Es	-0.210959	1.231416	1.322620	99
Es	-1.899708	-0.491876	-0.519178	99
Es	0.614414	-0.957470	-1.230791	99
Es	2.162727	0.368437	-0.003242	99
Es	0.874530	1.666793	-0.089139	99
Es	-1.344639	-0.330034	-0.242110	99
Es	1.930403	0.649166	-1.172137	99
Es	0.188874	-1.333820	0.652405	99
Es	0.584836	-1.084044	0.030760	99
Es	-0.323346	1.220640	0.575309	99
Es	-2.089285	-0.008884	-0.853533	99
Es	0.431980	1.469609	0.168794	99
Es	-0.081376	-2.005056	0.569418	99
Es	-0.598385	-0.179561	0.084401	99
43
Properties=species:S:1:pos:R:3:Z:I:1 energy=-323.9486095086812 field_type=dipole dipole="0.000000 0.000000 0.000000" charge=0
N	-1.899679	-0.492356	-0.519502	7
C	-0.598359	-0.179416	0.084428	6
C	0.188891	-1.333956	0.652528	6
C	0.647711	-0.618106	-0.586902	6
C	1.616721	0.507514	-0.509212	6
O	0.874611	1.667114	-0.089222	8
C	-0.323529	1.220604	0.575418	6
H	-2.227209	0.281914	-1.100952	1
H	-2.609199	-0.629086	0.201888	1
H	-0.205789	-2.337436	0.532668	1
H	0.735681	-1.183806	1.574898	1
H	0.596071	-1.105216	-1.548602	1
H	2.407141	0.313824	0.223518	1
H	2.078231	0.723974	-1.475832	1
H	-0.155229	1.243314	1.656468	1
H	-1.126069	1.921124	0.328408	1
Es	-0.335440	-0.764596	0.531735	99
Es	-1.874215	-0.783120	-0.707033	99
Es	-0.081588	-2.004887	0.569526	99
Es	-2.318817	-0.549984	-0.071153	99
Es	0.647648	-0.618140	-0.586748	99
Es	2.162717	0.368359	-0.003245	99
Es	-2.088981	-0.008413	-0.852626	99
Es	0.431543	1.469912	0.168527	99
Es	1.930397	0.649121	-1.172154	99
Es	-1.344127	-0.330925	-0.242777	99
Es	0.585004	-1.084385	0.030747	99
Es	1.045844	1.832662	0.110509	99
Es	1.140525	1.211329	-0.227816	99
Es	0.614372	-0.957372	-1.230730	99
Es	-0.004629	-0.300647	-0.388861	99
Es	-0.479665	0.510653	0.357300	99
Es	0.188869	-1.333807	0.652391	99
Es	0.874444	1.666737	-0.089257	99
Es	-1.899713	-0.491856	-0.519166	99
Es	-0.598370	-0.179562	0.084391	99
Es	-0.879914	1.690259	0.404223	99
Es	0.771156	1.784127	-0.349319	99
Es	0.563167	-1.223106	1.276991	99
Es	1.616586	0.507670	-0.509144	99
Es	-0.323345	1.220640	0.575309	99
Es	-0.211072	1.231476	1.322658	99
Es	1.149261	-0.082153	-0.535213	99
43
Properties=species:S:1:pos:R:3:Z:I:1 energy=-323.9486095086812 field_type=dipole dipole="0.000000 0.000000 0.000000" charge=0
N	-1.899679	-0.492356	-0.519502	7
C	-0.598359	-0.179416	0.084428	6
C	0.188891	-1.333956	0.652528	6
C	0.647711	-0.618106	-0.586902	6
C	1.616721	0.507514	-0.509212	6
O	0.874611	1.667114	-0.089222	8
C	-0.323529	1.220604	0.575418	6
H	-2.227209	0.281914	-1.100952	1
H	-2.609199	-0.629086	0.201888	1
H	-0.205789	-2.337436	0.532668	1
H	0.735681	-1.183806	1.574898	1
H	0.596071	-1.105216	-1.548602	1
H	2.407141	0.313824	0.223518	1
H	2.078231	0.723974	-1.475832	1
H	-0.155229	1.243314	1.656468	1
H	-1.126069	1.921124	0.328408	1
Es	-0.323345	1.220641	0.575307	99
Es	-1.873922	-0.783222	-0.706729	99
Es	0.188874	-1.333820	0.652406	99
Es	-0.211041	1.231485	1.322536	99
Es	2.162627	0.368279	-0.003212	99
Es	0.563068	-1.223134	1.276918	99
Es	0.614456	-0.957412	-1.230580	99
Es	0.585191	-1.084302	0.030650	99
Es	-1.899700	-0.491890	-0.519185	99
Es	-2.089188	-0.008569	-0.852966	99
Es	1.149268	-0.082142	-0.535363	99
Es	1.045875	1.829914	0.111729	99
Es	0.771955	1.787049	-0.348364	99
Es	-0.081426	-2.004824	0.569573	99
Es	1.139959	1.211341	-0.229567	99
Es	0.431343	1.469717	0.168118	99
Es	0.647640	-0.618137	-0.586746	99
Es	-2.318758	-0.550091	-0.071359	99
Es	-0.479786	0.510542	0.357341	99
Es	1.930482	0.649088	-1.172137	99
Es	0.874415	1.666725	-0.089326	99
Es	-1.344287	-0.330512	-0.242568	99
Es	-0.335797	-0.764556	0.531991	99
Es	-0.598387	-0.179555	0.084394	99
Es	-0.879900	1.690360	0.404319	99
Es	1.616586	0.507670	-0.509144	99
Es	-0.004547	-0.300654	-0.388971	99
43
Properties=species:S:1:pos:R:3:Z:I:1 energy=-323.9486095086812 field_type=dipole dipole="0.000000 0.000000 0.000000" charge=0
N	-1.899679	-0.492356	-0.519502	7
C	-0.598359	-0.179416	0.084428	6
C	0.188891	-1.333956	0.652528	6
C	0.647711	-0.618106	-0.586902	6
C	1.616721	0.507514	-0.509212	6
O	0.874611	1.667114	-0.089222	8
C	-0.323529	1.220604	0.575418	6
H	-2.227209	0.281914	-1.100952	1
H	-2.609199	-0.629086	0.201888	1
H	-0.205789	-2.337436	0.532668	1
H	0.735681	-1.183806	1.574898	1
H	0.596071	-1.105216	-1.548602	1
H	2.407141	0.313824	0.223518	1
H	2.078231	0.723974	-1.475832	1
H	-0.155229	1.243314	1.656468	1
H	-1.126069	1.921124	0.328408	1
Es	0.614473	-0.957277	-1.230507	99
Es	-0.004819	-0.300468	-0.389041	99
Es	-1.873446	-0.783962	-0.708171	99
Es	2.162703	0.368377	-0.003306	99
Es	-0.335716	-0.764514	0.531863	99
Es	0.431308	1.469952	0.168751	99
Es	-0.598379	-0.179557	0.084391	99
Es	0.188873	-1.333819	0.652405	99
Es	-0.211104	1.231440	1.322588	99
Es	0.647642	-0.618136	-0.586750	99
Es	1.149262	-0.082288	-0.535344	99
Es	1.045365	1.829791	0.110794	99
Es	1.140487	1.211324	-0.229070	99
Es	-1.899711	-0.491841	-0.519147	99
Es	0.874549	1.666786	-0.089113	99
Es	-0.323345	1.220640	0.575307	99
Es	0.771890	1.786911	-0.348755	99
Es	0.562982	-1.223156	1.276890	99
Es	1.930422	0.649116	-1.172079	99
Es	-0.879861	1.690311	0.404317	99
Es	-2.089151	-0.008096	-0.851707	99
Es	-0.479813	0.510532	0.357316	99
Es	0.585481	-1.084629	0.030588	99
Es	-0.081432	-2.004745	0.569652	99
Es	-1.344961	-0.330071	-0.242143	99
Es	-2.318627	-0.550300	-0.071521	99
Es	1.616585	0.507671	-0.509144	99
43
Properties=species:S:1:pos:R:3:Z:I:1 energy=-323.9486095086812 field_type=dipole dipole="0.000000 0.000000 0.000000" charge=0
N	-1.899679	-0.492356	-0.519502	7
C	-0.598359	-0.179416	0.084428	6
C	0.188891	-1.333956	0.652528	6
C	0.647711	-0.618106	-0.586902	6
C	1.616721	0.507514	-0.509212	6
O	0.874611	1.667114	-0.089222	8
C	-0.323529	1.220604	0.575418	6
H	-2.227209	0.281914	-1.100952	1
H	-2.609199	-0.629086	0.201888	1
H	-0.205789	-2.337436	0.532668	1
H	0.735681	-1.183806	1.574898	1
H	0.596071	-1.105216	-1.548602	1
H	2.407141	0.313824	0.223518	1
H	2.078231	0.723974	-1.475832	1
H	-0.155229	1.243314	1.656468	1
H	-1.126069	1.921124	0.328408	1
Es	1.140162	1.211012	-0.227965	99
Es	0.188873	-1.333817	0.652404	99
Es	-2.089155	-0.008606	-0.852913	99
Es	0.585595	-1.084737	0.030493	99
Es	-2.318912	-0.550300	-0.071461	99
Es	1.930449	0.649082	-1.172082	99
Es	-0.335754	-0.764471	0.532008	99
Es	-0.081439	-2.004660	0.569739	99
Es	1.149309	-0.082416	-0.535317	99
Es	0.614595	-0.957274	-1.230412	99
Es	0.562995	-1.223237	1.276766	99
Es	2.162663	0.368342	-0.003338	99
Es	-0.323344	1.220640	0.575308	99
Es	-0.479833	0.510462	0.357293	99
Es	0.773336	1.786417	-0.349089	99
Es	-1.344287	-0.330475	-0.242321	99
Es	1.616587	0.507670	-0.509145	99
Es	1.045473	1.829412	0.110638	99
Es	0.430041	1.471060	0.168228	99
Es	-1.899717	-0.491849	-0.519161	99
Es	0.874567	1.666932	-0.089192	99
Es	-1.873840	-0.783021	-0.706802	99
Es	-0.005002	-0.300212	-0.389174	99
Es	-0.211085	1.231382	1.322527	99
Es	-0.598380	-0.179558	0.084391	99
Es	0.647641	-0.618136	-0.586748	99
Es	-0.879882	1.690348	0.404390	99
43
Properties=species:S:1:pos:R:3:Z:I:1 energy=-323.9486095086812 field_type=dipole dipole="0.000000 0.000000 0.000000" charge=0
N	-1.899679	-0.492356	-0.519502	7
C	-0.598359	-0.179416	0.084428	6
C	0.188891	-1.333956	0.652528	6
C	0.647711	-0.618106	-0.586902	6
C	1.616721	0.507514	-0.509212	6
O	0.874611	1.667114	-0.089222	8
C	-0.323529	1.220604	0.575418	6
H	-2.227209	0.281914	-1.100952	1
H	-2.609199	-0.629086	0.201888	1
H	-0.205789	-2.337436	0.532668	1
H	0.735681	-1.183806	1.574898	1
H	0.596071	-1.105216	-1.548602	1
H	2.407141	0.313824	0.223518	1
H	2.078231	0.723974	-1.475832	1
H	-0.155229	1.243314	1.656468	1
H	-1.126069	1.921124	0.328408	1
Es	0.562951	-1.223264	1.276721	99
Es	-0.479857	0.510437	0.357277	99
Es	1.930452	0.649105	-1.172025	99
Es	1.140638	1.211239	-0.229534	99
Es	-0.081253	-2.004626	0.569732	99
Es	1.044988	1.828698	0.111138	99
Es	2.162676	0.368374	-0.003385	99
Es	1.149225	-0.082409	-0.535420	99
Es	0.585968	-1.084655	0.030152	99
Es	1.616586	0.507671	-0.509143	99
Es	-0.211134	1.231433	1.322556	99
Es	0.188871	-1.333815	0.652403	99
Es	-1.873376	-0.783569	-0.707743	99
Es	-0.005028	-0.300449	-0.389019	99
Es	0.874524	1.666775	-0.089152	99
Es	-0.879836	1.690254	0.404383	99
Es	-0.323346	1.220640	0.575309	99
Es	0.647640	-0.618135	-0.586748	99
Es	-2.318734	-0.550493	-0.071512	99
Es	-2.089329	-0.008430	-0.852043	99
Es	-0.598380	-0.179558	0.084391	99
Es	0.430528	1.470248	0.168165	99
Es	0.614530	-0.957142	-1.230387	99
Es	0.772926	1.787912	-0.348034	99
Es	-1.899701	-0.491931	-0.519216	99
Es	-1.344758	-0.329803	-0.242085	99
Es	-0.336112	-0.764516	0.532281	99
43
Properties=species:S:1:pos:R:3:Z:I:1 energy=-323.9486095086812 field_type=dipole dipole="0.000000 0.000000 0.000000" charge=0
N	-1.899679	-0.492356	-0.519502	7
C	-0.598359	-0.179416	0.084428	6
C	0.188891	-1.333956	0.652528	6
C	0.647711	-0.618106	-0.586902	6
C	1.616721	0.507514	-0.509212	6
O	0.874611	1.667114	-0.089222	8
C	-0.323529	1.220604	0.575418	6
H	-2.227209	0.281914	-1.100952	1
H	-2.609199	-0.629086	0.201888	1
H	-0.205789	-2.337436	0.532668	1
H	0.735681	-1.183806	1.574898	1
H	0.596071	-1.105216	-1.548602	1
H	2.407141	0.313824	0.223518	1
H	2.078231	0.723974	-1.475832	1
H	-0.155229	1.243314	1.656468	1
H	-1.126069	1.921124	0.328408	1
Es	0.562820	-1.223253	1.276602	99
Es	0.647638	-0.618133	-0.586751	99
Es	0.770821	1.781395	-0.348255	99
Es	1.930461	0.649053	-1.172025	99
Es	-0.879812	1.690304	0.404408	99
Es	-0.081287	-2.004697	0.569799	99
Es	0.874551	1.666881	-0.089175	99
Es	1.141878	1.211418	-0.227500	99
Es	1.149317	-0.082525	-0.535340	99
Es	0.188872	-1.333818	0.652405	99
Es	0.431222	1.470463	0.169993	99
Es	-0.211174	1.231371	1.322539	99
Es	0.585944	-1.084803	0.030355	99
Es	-2.089258	-0.008469	-0.852517	99
Es	-0.323345	1.220640	0.575307	99
Es	-0.479891	0.510403	0.357154	99
Es	-1.899714	-0.491875	-0.519172	99
Es	-1.344357	-0.330367	-0.242199	99
Es	2.162650	0.368350	-0.003421	99
Es	0.614685	-0.957132	-1.230280	99
Es	1.045157	1.834760	0.107594	99
Es	-2.318658	-0.550143	-0.071481	99
Es	1.616585	0.507672	-0.509145	99
Es	-0.005166	-0.300122	-0.389324	99
Es	-0.335960	-0.764439	0.532277	99
Es	-1.873951	-0.783383	-0.707175	99
Es	-0.598373	-0.179560	0.084389	99
43
Properties=species:S:1:pos:R:3:Z:I:1 energy=-323.9486095086812 field_type=dipole dipole="0.000000 0.000000 0.000000" charge=0
N	-1.899679	-0.492356	-0.519502	7
C	-0.598359	-0.179416	0.084428	6
C	0.188891	-1.333956	0.652528	6
C	0.647711	-0.618106	-0.586902	6
C	1.616721	0.507514	-0.509212	6
O	0.874611	1.667114	-0.089222	8
C	-0.323529	1.220604	0.575418	6
H	-2.227209	0.281914	-1.100952	1
H	-2.609199	-0.629086	0.201888	1
H	-0.205789	-2.337436	0.532668	1
H	0.735681	-1.183806	1.574898	1
H	0.596071	-1.105216	-1.548602	1
H	2.407141	0.313824	0.223518	1
H	2.078231	0.723974	-1.475832	1
H	-0.155229	1.243314	1.656468	1
H	-1.126069	1.921124	0.328408	1
Es	0.614750	-0.957145	-1.230177	99
Es	0.774635	1.791559	-0.347128	99
Es	-0.879876	1.690229	0.404370	99
Es	-0.479863	0.510276	0.357454	99
Es	-0.005060	-0.300027	-0.389465	99
Es	1.149287	-0.082643	-0.535402	99
Es	-0.323344	1.220639	0.575308	99
Es	-2.318763	-0.550368	-0.071533	99
Es	-2.089289	-0.008537	-0.852997	99
Es	-1.899724	-0.491878	-0.519191	99
Es	1.140763	1.211397	-0.230806	99
Es	-1.343977	-0.330670	-0.242341	99
Es	-0.211172	1.231508	1.322485	99
Es	-0.336305	-0.764386	0.532244	99
Es	0.874512	1.666785	-0.089182	99
Es	-1.874149	-0.782727	-0.706544	99
Es	0.586145	-1.085018	0.030314	99
Es	1.044045	1.825133	0.112593	99
Es	1.616585	0.507672	-0.509146	99
Es	2.162649	0.368390	-0.003440	99
Es	0.188874	-1.333816	0.652401	99
Es	-0.598377	-0.179561	0.084396	99
Es	0.562756	-1.223325	1.276626	99
Es	0.647640	-0.618135	-0.586749	99
Es	0.429662	1.470042	0.167073	99
Es	1.930469	0.649044	-1.171997	99
Es	-0.081213	-2.004446	0.569896	99
43
Properties=species:S:1:pos:R:3:Z:I:1 energy=-323.9486095086812 field_type=dipole dipole="0.000000 0.000000 0.000000" charge=0
N	-1.899679	-0.492356	-0.519502	7
C	-0.598359	-0.179416	0.084428	6
C	0.188891	-1.333956	0.652528	6
C	0.647711	-0.618106	-0.586902	6
C	1.616721	0.507514	-0.509212	6
O	0.874611	1.667114	-0.089222	8
C	-0.323529	1.220604	0.575418	6
H	-2.227209	0.281914	-1.100952	1
H	-2.609199	-0.629086	0.201888	1
H	-0.205789	-2.337436	0.532668	1
H	0.735681	-1.183806	1.574898	1
H	0.596071	-1.105216	-1.548602	1
H	2.407141	0.313824	0.223518	1
H	2.078231	0.723974	-1.475832	1
H	-0.155229	1.243314	1.656468	1
H	-1.126069	1.921124	0.328408	1
Es	-1.344266	-0.330206	-0.242155	99
Es	-0.211176	1.231421	1.322428	99
Es	-0.323345	1.220640	0.575309	99
Es	1.930502	0.649052	-1.171981	99
Es	-2.089171	-0.008643	-0.852593	99
Es	-2.318818	-0.550115	-0.071571	99
Es	1.044398	1.832130	0.108357	99
Es	-1.899720	-0.491859	-0.519195	99
Es	-1.873935	-0.783338	-0.707079	99
Es	1.141951	1.211169	-0.227632	99
Es	0.874458	1.666750	-0.089286	99
Es	0.188870	-1.333811	0.652399	99
Es	-0.879866	1.690265	0.404471	99
Es	2.162598	0.368388	-0.003534	99
Es	0.647638	-0.618136	-0.586745	99
Es	0.562678	-1.223422	1.276590	99
Es	-0.598371	-0.179561	0.084391	99
Es	0.586352	-1.085047	0.030190	99
Es	1.149361	-0.082765	-0.535453	99
Es	0.773038	1.783880	-0.347699	99
Es	-0.005104	-0.300017	-0.389508	99
Es	-0.081270	-2.004387	0.569894	99
Es	-0.479888	0.510245	0.357328	99
Es	-0.336383	-0.764301	0.532444	99
Es	0.614742	-0.957092	-1.230045	99
Es	0.429798	1.471081	0.168883	99
Es	1.616588	0.507669	-0.509146	99
43
Properties=species:S:1:pos:R:3:Z:I:1 energy=-323.9486095086812 field_type=dipole dipole="0.000000 0.000000 0.000000" charge=0
N	-1.899679	-0.492356	-0.519502	7
C	-0.598359	-0.179416	0.084428	6
C	0.188891	-1.333956	0.652528	6
C	0.647711	-0.618106	-0.586902	6
C	1.616721	0.507514	-0.509212	6
O	0.874611	1.667114	-0.089222	8
C	-0.323529	1.220604	0.575418	6
H	-2.227209	0.281914	-1.100952	1
H	-2.609199	-0.629086	0.201888	1
H	-0.205789	-2.337436	0.532668	1
H	0.735681	-1.183806	1.574898	1
H	0.596071	-1.105216	-1.548602	1
H	2.407141	0.313824	0.223518	1
H	2.078231	0.723974	-1.475832	1
H	-0.155229	1.243314	1.656468	1
H	-1.126069	1.921124	0.328408	1
Es	0.586504	-1.085073	0.030045	99
Es	0.874468	1.666780	-0.089252	99
Es	1.930480	0.649021	-1.171950	99
Es	-0.336408	-0.764385	0.532579	99
Es	0.562701	-1.223479	1.276523	99
Es	0.647636	-0.618138	-0.586741	99
Es	0.773993	1.788511	-0.346851	99
Es	0.429731	1.470740	0.168161	99
Es	-0.598375	-0.179560	0.084390	99
Es	-0.323347	1.220639	0.575309	99
Es	2.162628	0.368321	-0.003494	99
Es	-0.879767	1.690198	0.404454	99
Es	0.188873	-1.333815	0.652401	99
Es	1.149362	-0.082748	-0.535521	99
Es	-1.874159	-0.783331	-0.706765	99
Es	-1.899715	-0.491871	-0.519175	99
Es	-2.318774	-0.549858	-0.071552	99
Es	-0.480038	0.510166	0.357307	99
Es	-0.211254	1.231478	1.322468	99
Es	-2.089171	-0.008793	-0.852888	99
Es	1.044193	1.827809	0.110489	99
Es	1.141301	1.211192	-0.229956	99
Es	-1.344117	-0.330353	-0.242137	99
Es	-0.005348	-0.299761	-0.389552	99
Es	-0.081115	-2.004324	0.569890	99
Es	1.616588	0.507668	-0.509145	99
Es	0.614787	-0.957041	-1.229974	99
43
Properties=species:S:1:pos:R:3:Z:I:1 energy=-323.9486095086812 field_type=dipole dipole="0.000000 0.000000 0.000000" charge=0
N	-1.899679	-0.492356	-0.519502	7
C	-0.598359	-0.179416	0.084428	6
C	0.188891	-1.333956	0.652528	6
C	0.647711	-0.618106	-0.586902	6
C	1.616721	0.507514	-0.509212	6
O	0.874611	1.667114	-0.089222	8
C	-0.323529	1.220604	0.575418	6
H	-2.227209	0.281914	-1.100952	1
H	-2.609199	-0.629086	0.201888	1
H	-0.205789	-2.337436	0.532668	1
H	0.735681	-1.183806	1.574898	1
H	0.596071	-1.105216	-1.548602	1
H	2.407141	0.313824	0.223518	1
H	2.078231	0.723974	-1.475832	1
H	-0.155229	1.243314	1.656468	1
H	-1.126069	1.921124	0.328408	1
Es	-1.899713	-0.491857	-0.519168	99
Es	0.647633	-0.618135	-0.586743	99
Es	1.149278	-0.082602	-0.535572	99
Es	-1.344216	-0.330237	-0.242078	99
Es	0.874515	1.666813	-0.089173	99
Es	-1.873965	-0.783235	-0.706855	99
Es	-2.089200	-0.008695	-0.852833	99
Es	0.188874	-1.333819	0.652405	99
Es	-0.323351	1.220639	0.575312	99
Es	-0.005404	-0.299944	-0.389448	99
Es	0.774107	1.789358	-0.347067	99
Es	1.616589	0.507666	-0.509146	99
Es	-2.318819	-0.550120	-0.071605	99
Es	-0.879830	1.690163	0.404448	99
Es	0.429717	1.470825	0.168469	99
Es	0.562708	-1.223579	1.276422	99
Es	-0.081091	-2.004265	0.569902	99
Es	1.043624	1.826848	0.110190	99
Es	1.930423	0.648966	-1.171984	99
Es	0.614777	-0.957031	-1.229943	99
Es	0.586743	-1.085150	0.030006	99
Es	-0.479935	0.510217	0.357337	99
Es	-0.336602	-0.764260	0.532692	99
Es	2.162666	0.368285	-0.003496	99
Es	1.141719	1.211223	-0.229877	99
Es	-0.598369	-0.179566	0.084401	99
Es	-0.211220	1.231485	1.322465	99
43
Properties=species:S:1:pos:R:3:Z:I:1 energy=-323.9486095086812 field_type=dipole dipole="0.000000 0.000000 0.000000" charge=0
N	-1.899679	-0.492356	-0.519502	7
C	-0.598359	-0.179416	0.084428	6
C	0.188891	-1.333956	0.652528	6
C	0.647711	-0.618106	-0.586902	6
C	1.616721	0.507514	-0.509212	6
O	0.874611	1.667114	-0.089222	8
C	-0.323529	1.220604	0.575418	6
H	-2.227209	0.281914	-1.100952	1
H	-2.609199	-0.629086	0.201888	1
H	-0.205789	-2.337436	0.532668	1
H	0.735681	-1.183806	1.574898	1
H	0.596071	-1.105216	-1.548602	1
H	2.407141	0.313824	0.223518	1
H	2.078231	0.723974	-1.475832	1
H	-0.155229	1.243314	1.656468	1
H	-1.126069	1.921124	0.328408	1
Es	-0.081167	-2.004184	0.569978	99
Es	1.140745	1.211067	-0.230699	99
Es	0.614847	-0.956982	-1.229830	99
Es	-2.318902	-0.550265	-0.071689	99
Es	0.586787	-1.085356	0.030056	99
Es	-2.089192	-0.008694	-0.852766	99
Es	0.647634	-0.618135	-0.586743	99
Es	0.874518	1.666791	-0.089164	99
Es	0.188874	-1.333817	0.652406	99
Es	-0.479949	0.510064	0.357254	99
Es	-0.211269	1.231422	1.322402	99
Es	0.430001	1.471175	0.169265	99
Es	1.044941	1.828173	0.109568	99
Es	0.773483	1.787927	-0.346378	99
Es	-0.336678	-0.764069	0.532790	99
Es	-1.344226	-0.330201	-0.241947	99
Es	1.149391	-0.082891	-0.535588	99
Es	-0.598357	-0.179568	0.084392	99
Es	1.930514	0.648978	-1.171888	99
Es	-1.873939	-0.783080	-0.706907	99
Es	2.162590	0.368350	-0.003571	99
Es	-1.899716	-0.491864	-0.519178	99
Es	0.562636	-1.223641	1.276352	99
Es	1.616589	0.507664	-0.509146	99
Es	-0.323348	1.220639	0.575310	99
Es	-0.005335	-0.299713	-0.389717	99
Es	-0.879814	1.690202	0.404502	99
43
Properties=species:S:1:pos:R:3:Z:I:1 energy=-323.9486095086812 field_type=dipole dipole="0.000000 0.000000 0.000000" charge=0
N	-1.899679	-0.492356	-0.519502	7
C	-0.598359	-0.179416	0.084428	6
C	0.188891	-1.333956	0.652528	6
C	0.647711	-0.618106	-0.586902	6
C	1.616721	0.507514	-0.509212	6
O	0.874611	1.667114	-0.089222	8
C	-0.323529	1.220604	0.575418	6
H	-2.227209	0.281914	-1.100952	1
H	-2.609199	-0.629086	0.201888	1
H	-0.205789	-2.337436	0.532668	1
H	0.735681	-1.183806	1.574898	1
H	0.596071	-1.105216	-1.548602	1
H	2.407141	0.313824	0.223518	1
H	2.078231	0.723974	-1.475832	1
H	-0.155229	1.243314	1.656468	1
H	-1.126069	1.921124	0.328408	1
Es	-1.874067	-0.782919	-0.706676	99
Es	0.188873	-1.333814	0.652400	99
Es	-0.336780	-0.764068	0.532796	99
Es	-2.318894	-0.550251	-0.071643	99
Es	-1.899714	-0.491852	-0.519162	99
Es	0.614894	-0.956924	-1.229765	99
Es	0.562526	-1.223611	1.276236	99
Es	0.874542	1.666784	-0.089165	99
Es	-0.479993	0.510020	0.357354	99
Es	-0.081108	-2.004240	0.570045	99
Es	-0.323350	1.220640	0.575315	99
Es	2.162602	0.368388	-0.003625	99
Es	0.774229	1.788889	-0.346080	99
Es	-0.598369	-0.179563	0.084394	99
Es	1.043907	1.827249	0.109861	99
Es	1.141535	1.211153	-0.230642	99
Es	1.930503	0.648991	-1.171870	99
Es	-0.005317	-0.299603	-0.389849	99
Es	1.149361	-0.082991	-0.535594	99
Es	-1.344021	-0.330251	-0.242063	99
Es	0.647634	-0.618134	-0.586745	99
Es	0.586928	-1.085449	0.030144	99
Es	0.429483	1.471068	0.168610	99
Es	-0.211278	1.231439	1.322362	99
Es	-0.879815	1.690180	0.404529	99
Es	-2.089243	-0.008805	-0.852960	99
Es	1.616589	0.507666	-0.509146	99
43
Properties=species:S:1:pos:R:3:Z:I:1 energy=-323.9486095086812 field_type=dipole dipole="0.000000 0.000000 0.000000" charge=0
N	-1.899679	-0.492356	-0.519502	7
C	-0.598359	-0.179416	0.084428	6
C	0.188891	-1.333956	0.652528	6
C	0.647711	-0.618106	-0.586902	6
C	1.616721	0.507514	-0.509212	6
O	0.874611	1.667114	-0.089222	8
C	-0.323529	1.220604	0.575418	6
H	-2.227209	0.281914	-1.100952	1
H	-2.609199	-0.629086	0.201888	1
H	-0.205789	-2.337436	0.532668	1
H	0.735681	-1.183806	1.574898	1
H	0.596071	-1.105216	-1.548602	1
H	2.407141	0.313824	0.223518	1
H	2.078231	0.723974	-1.475832	1
H	-0.155229	1.243314	1.656468	1
H	-1.126069	1.921124	0.328408	1
Es	-0.081122	-2.004064	0.570130	99
Es	1.149409	-0.083208	-0.535543	99
Es	0.647631	-0.618135	-0.586743	99
Es	0.188871	-1.333812	0.652399	99
Es	-0.005426	-0.299330	-0.389973	99
Es	1.142002	1.211249	-0.230258	99
Es	-1.873582	-0.782679	-0.707126	99
Es	-0.598365	-0.179565	0.084395	99
Es	0.614946	-0.956903	-1.229695	99
Es	2.162624	0.368410	-0.003696	99
Es	-1.899722	-0.491876	-0.519173	99
Es	-0.211340	1.231439	1.322357	99
Es	-0.323349	1.220640	0.575311	99
Es	-0.879806	1.690163	0.404506	99
Es	0.874557	1.666797	-0.089098	99
Es	-0.479996	0.509954	0.357387	99
Es	1.043718	1.828401	0.108934	99
Es	0.773903	1.787646	-0.345981	99
Es	1.930466	0.648973	-1.171870	99
Es	-2.089409	-0.008637	-0.852554	99
Es	0.587071	-1.085662	0.030051	99
Es	1.616591	0.507664	-0.509147	99
Es	0.562492	-1.223657	1.276257	99
Es	-1.344261	-0.329914	-0.241692	99
Es	0.429553	1.471084	0.169034	99
Es	-2.318989	-0.550949	-0.071889	99
Es	-0.336810	-0.764037	0.532740	99
43
Properties=species:S:1:pos:R:3:Z:I:1 energy=-323.9486095086812 field_type=dipole dipole="0.000000 0.000000 0.000000" charge=0
N	-1.899679	-0.492356	-0.519502	7
C	-0.598359	-0.179416	0.084428	6
C	0.188891	-1.333956	0.652528	6
C	0.647711	-0.618106	-0.586902	6
C	1.616721	0.507514	-0.509212	6
O	0.874611	1.667114	-0.089222	8
C	-0.323529	1.220604	0.575418	6
H	-2.227209	0.281914	-1.100952	1
H	-2.609199	-0.629086	0.201888	1
H	-0.205789	-2.337436	0.532668	1
H	0.735681	-1.183806	1.574898	1
H	0.596071	-1.105216	-1.548602	1
H	2.407141	0.313824	0.223518	1
H	2.078231	0.723974	-1.475832	1
H	-0.155229	1.243314	1.656468	1
H	-1.126069	1.921124	0.328408	1
Es	-1.899717	-0.491868	-0.519176	99
Es	0.647630	-0.618135	-0.586740	99
Es	0.429521	1.471164	0.169072	99
Es	-1.873969	-0.782823	-0.706850	99
Es	-0.598366	-0.179562	0.084389	99
Es	0.562471	-1.223691	1.276201	99
Es	1.616590	0.507668	-0.509147	99
Es	-0.480020	0.509885	0.357427	99
Es	-2.318970	-0.550410	-0.071670	99
Es	-0.323350	1.220638	0.575312	99
Es	-2.089227	-0.008786	-0.852784	99
Es	-0.879804	1.690161	0.404526	99
Es	-0.080999	-2.004037	0.570125	99
Es	1.149415	-0.083072	-0.535658	99
Es	0.614975	-0.956879	-1.229636	99
Es	1.043586	1.826511	0.109469	99
Es	0.874553	1.666898	-0.089195	99
Es	-0.005484	-0.299490	-0.389856	99
Es	-0.337062	-0.764022	0.532915	99
Es	2.162536	0.368309	-0.003653	99
Es	0.188873	-1.333811	0.652397	99
Es	0.587233	-1.085571	0.029815	99
Es	1.930561	0.648973	-1.171819	99
Es	0.774307	1.789415	-0.345695	99
Es	-1.344074	-0.330167	-0.241981	99
Es	1.141800	1.211226	-0.231036	99
Es	-0.211349	1.231469	1.322311	99
43
Properties=species:S:1:pos:R:3:Z:I:1 energy=-323.9486095086812 field_type=dipole dipole="0.000000 0.000000 0.000000" charge=0
N	-1.899679	-0.492356	-0.519502	7
C	-0.598359	-0.179416	0.084428	6
C	0.188891	-1.333956	0.652528	6
C	0.647711	-0.618106	-0.586902	6
C	1.616721	0.507514	-0.509212	6
O	0.874611	1.667114	-0.089222	8
C	-0.323529	1.220604	0.575418	6
H	-2.227209	0.281914	-1.100952	1
H	-2.609199	-0.629086	0.201888	1
H	-0.205789	-2.337436	0.532668	1
H	0.735681	-1.183806	1.574898	1
H	0.596071	-1.105216	-1.548602	1
H	2.407141	0.313824	0.223518	1
H	2.078231	0.723974	-1.475832	1
H	-0.155229	1.243314	1.656468	1
H	-1.126069	1.921124	0.328408	1
Es	0.874589	1.666793	-0.089172	99
Es	0.562453	-1.223747	1.276100	99
Es	0.615066	-0.956891	-1.229504	99
Es	-0.480081	0.509855	0.357349	99
Es	1.930543	0.648946	-1.171795	99
Es	0.188875	-1.333804	0.652388	99
Es	-0.337016	-0.764068	0.533050	99
Es	-0.598363	-0.179567	0.084401	99
Es	-0.879796	1.690185	0.404663	99
Es	0.776023	1.791111	-0.345196	99
Es	-2.318764	-0.549711	-0.071671	99
Es	1.043050	1.824852	0.110819	99
Es	-0.005533	-0.299162	-0.390201	99
Es	-1.344023	-0.330117	-0.241945	99
Es	0.647635	-0.618136	-0.586743	99
Es	0.428295	1.471330	0.167342	99
Es	-0.211297	1.231376	1.322278	99
Es	1.141778	1.211198	-0.231240	99
Es	1.616590	0.507665	-0.509146	99
Es	1.149438	-0.083265	-0.535651	99
Es	-1.899694	-0.491860	-0.519173	99
Es	0.587179	-1.085682	0.029935	99
Es	2.162552	0.368369	-0.003715	99
Es	-0.080996	-2.003967	0.570198	99
Es	-1.874309	-0.783381	-0.706606	99
Es	-0.323352	1.220639	0.575312	99
Es	-2.089182	-0.008968	-0.853013	99
43
Properties=species:S:1:pos:R:3:Z:I:1 energy=-323.9486095086812 field_type=dipole dipole="0.000000 0.000000 0.000000" charge=0
N	-1.899679	-0.492356	-0.519502	7
C	-0.598359	-0.179416	0.084428	6
C	0.188891	-1.333956	0.652528	6
C	0.647711	-0.618106	-0.586902	6
C	1.616721	0.507514	-0.509212	6
O	0.874611	1.667114	-0.089222	8
C	-0.323529	1.220604	0.575418	6
H	-2.227209	0.281914	-1.100952	1
H	-2.609199	-0.629086	0.201888	1
H	-0.205789	-2.337436	0.532668	1
H	0.735681	-1.183806	1.574898	1
H	0.596071	-1.105216	-1.548602	1
H	2.407141	0.313824	0.223518	1
H	2.078231	0.723974	-1.475832	1
H	-0.155229	1.243314	1.656468	1
H	-1.126069	1.921124	0.328408	1
Es	1.149393	-0.083228	-0.535621	99
Es	0.587610	-1.085750	0.029840	99
Es	-0.005607	-0.299303	-0.390078	99
Es	-0.879768	1.690144	0.404636	99
Es	-0.337221	-0.764101	0.533033	99
Es	1.616588	0.507668	-0.509145	99
Es	-1.873516	-0.782696	-0.707226	99
Es	0.562167	-1.223678	1.276125	99
Es	-0.211364	1.231402	1.322279	99
Es	-1.899717	-0.491840	-0.519153	99
Es	1.142665	1.211229	-0.230116	99
Es	-0.323354	1.220637	0.575314	99
Es	-1.344349	-0.329848	-0.241605	99
Es	-0.598363	-0.179563	0.084387	99
Es	0.874518	1.666829	-0.089194	99
Es	0.647631	-0.618135	-0.586741	99
Es	0.188876	-1.333810	0.652394	99
Es	-2.319085	-0.550982	-0.071922	99
Es	1.043262	1.828809	0.108135	99
Es	0.429280	1.471469	0.169281	99
Es	0.774053	1.786985	-0.345506	99
Es	2.162608	0.368388	-0.003768	99
Es	-0.080853	-2.003967	0.570218	99
Es	-2.089304	-0.008626	-0.852504	99
Es	1.930477	0.648928	-1.171792	99
Es	-0.480044	0.509814	0.357283	99
Es	0.615074	-0.956784	-1.229489	99
43
Properties=species:S:1:pos:R:3:Z:I:1 energy=-323.9486095086812 field_type=dipole dipole="0.000000 0.000000 0.000000" charge=0
N	-1.899679	-0.492356	-0.519502	7
C	-0.598359	-0.179416	0.084428	6
C	0.188891	-1.333956	0.652528	6
C	0.647711	-0.618106	-0.586902	6
C	1.616721	0.507514	-0.509212	6
O	0.874611	1.667114	-0.089222	8
C	-0.323529	1.220604	0.575418	6
H	-2.227209	0.281914	-1.100952	1
H	-2.609199	-0.629086	0.201888	1
H	-0.205789	-2.337436	0.532668	1
H	0.735681	-1.183806	1.574898	1
H	0.596071	-1.105216	-1.548602	1
H	2.407141	0.313824	0.223518	1
H	2.078231	0.723974	-1.475832	1
H	-0.155229	1.243314	1.656468	1
H	-1.126069	1.921124	0.328408	1
Es	-0.879770	1.690108	0.404616	99
Es	0.188872	-1.333810	0.652396	99
Es	0.775397	1.790320	-0.344858	99
Es	-2.318862	-0.550182	-0.071782	99
Es	-0.211388	1.231458	1.322262	99
Es	-0.337322	-0.763907	0.533177	99
Es	1.043138	1.825562	0.109598	99
Es	0.562323	-1.223814	1.276036	99
Es	-2.089296	-0.008919	-0.852915	99
Es	0.874495	1.666779	-0.089193	99
Es	1.616591	0.507664	-0.509146	99
Es	1.142026	1.211199	-0.231487	99
Es	2.162548	0.368360	-0.003761	99
Es	-1.344058	-0.329942	-0.241800	99
Es	-1.874036	-0.783064	-0.706719	99
Es	1.149427	-0.083277	-0.535708	99
Es	0.587580	-1.085860	0.029787	99
Es	0.647630	-0.618134	-0.586740	99
Es	0.615109	-0.956784	-1.229385	99
Es	-0.598360	-0.179566	0.084390	99
Es	0.428723	1.471470	0.168515	99
Es	-0.005591	-0.299256	-0.390192	99
Es	-0.323351	1.220638	0.575312	99
Es	-0.080928	-2.003865	0.570237	99
Es	-0.480063	0.509756	0.357358	99
Es	1.930541	0.648936	-1.171756	99
Es	-1.899717	-0.491879	-0.519178	99
43
Properties=species:S:1:pos:R:3:Z:I:1 energy=-323.9486095086812 field_type=dipole dipole="0.000000 0.000000 0.000000" charge=0
N	-1.899679	-0.492356	-0.519502	7
C	-0.598359	-0.179416	0.084428	6
C	0.188891	-1.333956	0.652528	6
C	0.647711	-0.618106	-0.586902	6
C	1.616721	0.507514	-0.509212	6
O	0.874611	1.667114	-0.089222	8
C	-0.323529	1.220604	0.575418	6
H	-2.227209	0.281914	-1.100952	1
H	-2.609199	-0.629086	0.201888	1
H	-0.205789	-2.337436	0.532668	1
H	0.735681	-1.183806	1.574898	1
H	0.596071	-1.105216	-1.548602	1
H	2.407141	0.313824	0.223518	1
H	2.078231	0.723974	-1.475832	1
H	-0.155229	1.243314	1.656468	1
H	-1.126069	1.921124	0.328408	1
Es	-0.080815	-2.003811	0.570209	99
Es	1.616591	0.507662	-0.509146	99
Es	-0.337488	-0.763838	0.533265	99
Es	-0.598360	-0.179566	0.084390	99
Es	0.615172	-0.956792	-1.229276	99
Es	1.149415	-0.083302	-0.535795	99
Es	-0.211415	1.231391	1.322355	99
Es	-0.480119	0.509795	0.357237	99
Es	-2.318893	-0.550156	-0.071798	99
Es	0.587702	-1.085887	0.029810	99
Es	1.042357	1.826250	0.109469	99
Es	0.647628	-0.618135	-0.586735	99
Es	-2.089259	-0.008937	-0.852835	99
Es	-0.005675	-0.299224	-0.390258	99
Es	1.142776	1.211184	-0.230078	99
Es	0.562317	-1.223896	1.275969	99
Es	-1.344088	-0.329886	-0.241756	99
Es	1.930551	0.648949	-1.171725	99
Es	0.776056	1.789559	-0.345303	99
Es	-1.899708	-0.491903	-0.519194	99
Es	0.188872	-1.333808	0.652397	99
Es	-0.323352	1.220639	0.575312	99
Es	0.428075	1.471618	0.167667	99
Es	-0.879695	1.690078	0.404633	99
Es	-1.874024	-0.783101	-0.706802	99
Es	2.162540	0.368355	-0.003800	99
Es	0.874498	1.666753	-0.089146	99
