43
Properties=species:S:1:pos:R:3:Z:I:1 energy=-323.94082056633886 field_type=dipole dipole="0.000000 0.000000 0.000000" charge=0
N	-1.416334	0.159509	1.202184	7
C	0.003276	-0.057081	0.931194	6
C	0.336596	-1.473561	0.409674	6
O	0.581616	-1.378161	-1.007466	8
C	0.863306	0.002149	-1.326006	6
C	-0.298764	0.928789	-1.488396	6
C	0.438876	0.853979	-0.170346	6
H	-1.556224	1.114009	1.527064	1
H	-1.723394	-0.456641	1.951504	1
H	0.564806	0.134109	1.852394	1
H	-0.460135	-2.200281	0.595834	1
H	1.254996	-1.844621	0.878474	1
H	1.787025	0.236269	-1.839676	1
H	-0.159514	1.815089	-2.095456	1
H	-1.289634	0.495779	-1.559456	1
H	1.073506	1.670669	0.138484	1
Es	-1.609201	0.098296	0.914334	99
Es	0.683857	-0.843723	-1.108840	99
Es	0.336626	-1.473511	0.409463	99
Es	-1.481000	0.734414	1.415450	99
Es	0.151301	-0.774392	0.683248	99
Es	-0.956840	0.638788	-1.533917	99
Es	1.490755	0.150886	-1.681456	99
Es	-1.416011	0.159598	1.202693	99
Es	-0.193413	1.531310	-1.892509	99
Es	0.003137	-0.057086	0.931184	99
Es	0.799725	0.403702	-0.656357	99
Es	0.492049	-1.383319	-0.469223	99
Es	0.863132	0.002023	-1.325907	99
Es	-0.798860	0.062534	1.111174	99
Es	-0.298618	0.928759	-1.488264	99
Es	0.255880	0.405717	-1.598843	99
Es	-0.210163	-1.965749	0.541657	99
Es	0.317864	-1.442224	-1.143337	99
Es	-1.584249	-0.207545	1.673514	99
Es	0.402689	0.076099	1.562601	99
Es	-0.057923	1.017836	-0.728810	99
Es	0.837889	-1.533263	-1.062839	99
Es	0.581659	-1.377838	-1.007192	99
Es	0.438851	0.853924	-0.170496	99
Es	0.864175	1.419026	0.034371	99
Es	0.968863	-1.723140	0.742557	99
Es	0.201405	0.416873	0.376456	99
43
Properties=species:S:1:pos:R:3:Z:I:1 energy=-323.94082056633886 field_type=dipole dipole="0.000000 0.000000 0.000000" charge=0
N	-1.416334	0.159509	1.202184	7
C	0.003276	-0.057081	0.931194	6
C	0.336596	-1.473561	0.409674	6
O	0.581616	-1.378161	-1.007466	8
C	0.863306	0.002149	-1.326006	6
C	-0.298764	0.928789	-1.488396	6
C	0.438876	0.853979	-0.170346	6
H	-1.556224	1.114009	1.527064	1
H	-1.723394	-0.456641	1.951504	1
H	0.564806	0.134109	1.852394	1
H	-0.460135	-2.200281	0.595834	1
H	1.254996	-1.844621	0.878474	1
H	1.787025	0.236269	-1.839676	1
H	-0.159514	1.815089	-2.095456	1
H	-1.289634	0.495779	-1.559456	1
H	1.073506	1.670669	0.138484	1
Es	-0.210175	-1.965775	0.541676	99
Es	0.003137	-0.057087	0.931184	99
Es	0.402642	0.076076	1.562538	99
Es	0.863125	0.002019	-1.325915	99
Es	1.490651	0.150855	-1.681385	99
Es	-0.298608	0.928745	-1.488273	99
Es	0.684979	-0.843712	-1.109052	99
Es	0.151411	-0.774313	0.683232	99
Es	0.799899	0.403601	-0.656163	99
Es	0.491257	-1.383508	-0.469053	99
Es	-0.798810	0.062270	1.111002	99
Es	0.837081	-1.532776	-1.061801	99
Es	-0.193411	1.531201	-1.892594	99
Es	0.968840	-1.723136	0.742520	99
Es	0.581722	-1.377896	-1.007219	99
Es	0.864119	1.419015	0.034360	99
Es	0.318291	-1.442537	-1.144316	99
Es	0.201373	0.417099	0.376467	99
Es	0.336627	-1.473511	0.409463	99
Es	-0.956688	0.638669	-1.534162	99
Es	-1.416038	0.159588	1.202638	99
Es	0.255991	0.405774	-1.598833	99
Es	-0.058139	1.017991	-0.728650	99
Es	-1.608942	0.099050	0.914628	99
Es	0.438842	0.853927	-0.170506	99
Es	-1.584832	-0.207944	1.673131	99
Es	-1.480769	0.734308	1.415794	99
43
Properties=species:S:1:pos:R:3:Z:I:1 energy=-323.94082056633886 field_type=dipole dipole="0.000000 0.000000 0.000000" charge=0
N	-1.416334	0.159509	1.202184	7
C	0.003276	-0.057081	0.931194	6
C	0.336596	-1.473561	0.409674	6
O	0.581616	-1.378161	-1.007466	8
C	0.863306	0.002149	-1.326006	6
C	-0.298764	0.928789	-1.488396	6
C	0.438876	0.853979	-0.170346	6
H	-1.556224	1.114009	1.527064	1
H	-1.723394	-0.456641	1.951504	1
H	0.564806	0.134109	1.852394	1
H	-0.460135	-2.200281	0.595834	1
H	1.254996	-1.844621	0.878474	1
H	1.787025	0.236269	-1.839676	1
H	-0.159514	1.815089	-2.095456	1
H	-1.289634	0.495779	-1.559456	1
H	1.073506	1.670669	0.138484	1
Es	-0.798802	0.062481	1.110313	99
Es	-0.956708	0.638912	-1.533972	99
Es	-1.608827	0.098434	0.915456	99
Es	-0.298618	0.928764	-1.488256	99
Es	0.968729	-1.723098	0.742475	99
Es	-1.416057	0.159633	1.202655	99
Es	0.438837	0.853930	-0.170502	99
Es	0.151474	-0.774306	0.683269	99
Es	0.336626	-1.473511	0.409463	99
Es	0.863133	0.002027	-1.325902	99
Es	-1.584389	-0.207845	1.673487	99
Es	0.003138	-0.057086	0.931183	99
Es	0.317940	-1.441523	-1.143367	99
Es	0.256029	0.405490	-1.599212	99
Es	-0.193509	1.531149	-1.892469	99
Es	1.490500	0.150804	-1.681472	99
Es	0.492145	-1.383838	-0.468895	99
Es	0.581573	-1.377877	-1.007232	99
Es	0.685255	-0.843667	-1.108959	99
Es	0.836490	-1.533505	-1.062999	99
Es	0.402584	0.076075	1.562558	99
Es	-1.481366	0.734593	1.415207	99
Es	0.863951	1.418882	0.034328	99
Es	-0.210118	-1.965845	0.541691	99
Es	0.800133	0.403604	-0.656471	99
Es	-0.057994	1.018189	-0.728315	99
Es	0.201428	0.417128	0.376650	99
43
Properties=species:S:1:pos:R:3:Z:I:1 energy=-323.94082056633886 field_type=dipole dipole="0.000000 0.000000 0.000000" charge=0
N	-1.416334	0.159509	1.202184	7
C	0.003276	-0.057081	0.931194	6
C	0.336596	-1.473561	0.409674	6
O	0.581616	-1.378161	-1.007466	8
C	0.863306	0.002149	-1.326006	6
C	-0.298764	0.928789	-1.488396	6
C	0.438876	0.853979	-0.170346	6
H	-1.556224	1.114009	1.527064	1
H	-1.723394	-0.456641	1.951504	1
H	0.564806	0.134109	1.852394	1
H	-0.460135	-2.200281	0.595834	1
H	1.254996	-1.844621	0.878474	1
H	1.787025	0.236269	-1.839676	1
H	-0.159514	1.815089	-2.095456	1
H	-1.289634	0.495779	-1.559456	1
H	1.073506	1.670669	0.138484	1
Es	-0.798685	0.062453	1.111071	99
Es	0.684459	-0.843411	-1.109449	99
Es	-1.481399	0.734529	1.415189	99
Es	0.402631	0.076061	1.562450	99
Es	0.003139	-0.057086	0.931184	99
Es	0.336626	-1.473512	0.409466	99
Es	-1.416041	0.159588	1.202687	99
Es	0.490073	-1.383742	-0.469018	99
Es	-1.584960	-0.207984	1.673229	99
Es	-0.956628	0.638973	-1.533972	99
Es	0.256091	0.405472	-1.599334	99
Es	0.438845	0.853932	-0.170491	99
Es	0.151386	-0.774319	0.683346	99
Es	0.837359	-1.530284	-1.059512	99
Es	0.863845	1.418763	0.034344	99
Es	1.490433	0.150796	-1.681414	99
Es	-0.298616	0.928757	-1.488266	99
Es	0.800395	0.403572	-0.656200	99
Es	0.319788	-1.445189	-1.146381	99
Es	0.201319	0.417235	0.376557	99
Es	-1.608359	0.098700	0.915075	99
Es	-0.058043	1.018322	-0.728500	99
Es	-0.193584	1.531080	-1.892445	99
Es	0.581658	-1.377844	-1.007208	99
Es	0.968762	-1.723124	0.742504	99
Es	-0.210048	-1.965780	0.541698	99
Es	0.863132	0.002037	-1.325899	99
43
Properties=species:S:1:pos:R:3:Z:I:1 energy=-323.94082056633886 field_type=dipole dipole="0.000000 0.000000 0.000000" charge=0
N	-1.416334	0.159509	1.202184	7
C	0.003276	-0.057081	0.931194	6
C	0.336596	-1.473561	0.409674	6
O	0.581616	-1.378161	-1.007466	8
C	0.863306	0.002149	-1.326006	6
C	-0.298764	0.928789	-1.488396	6
C	0.438876	0.853979	-0.170346	6
H	-1.556224	1.114009	1.527064	1
H	-1.723394	-0.456641	1.951504	1
H	0.564806	0.134109	1.852394	1
H	-0.460135	-2.200281	0.595834	1
H	1.254996	-1.844621	0.878474	1
H	1.787025	0.236269	-1.839676	1
H	-0.159514	1.815089	-2.095456	1
H	-1.289634	0.495779	-1.559456	1
H	1.073506	1.670669	0.138484	1
Es	0.318828	-1.441840	-1.143378	99
Es	0.800456	0.403637	-0.656155	99
Es	0.438844	0.853926	-0.170506	99
Es	0.863131	0.002031	-1.325903	99
Es	0.863763	1.418717	0.034338	99
Es	-1.480612	0.734018	1.415984	99
Es	0.336627	-1.473512	0.409467	99
Es	0.968671	-1.723157	0.742461	99
Es	-0.956584	0.639021	-1.534000	99
Es	-1.416036	0.159575	1.202642	99
Es	0.835923	-1.533173	-1.062748	99
Es	-0.210028	-1.965793	0.541701	99
Es	0.256086	0.405383	-1.599678	99
Es	-0.798574	0.062016	1.109733	99
Es	0.685260	-0.843442	-1.109604	99
Es	0.003142	-0.057086	0.931183	99
Es	-1.584964	-0.208143	1.673108	99
Es	-0.298615	0.928756	-1.488264	99
Es	0.491744	-1.384136	-0.468626	99
Es	-0.058099	1.018360	-0.728237	99
Es	-1.609284	0.099834	0.915796	99
Es	0.402609	0.076035	1.562422	99
Es	-0.193606	1.531044	-1.892413	99
Es	1.490352	0.150769	-1.681334	99
Es	0.581646	-1.377893	-1.007234	99
Es	0.151441	-0.774248	0.683387	99
Es	0.201455	0.417296	0.376573	99
43
Properties=species:S:1:pos:R:3:Z:I:1 energy=-323.94082056633886 field_type=dipole dipole="0.000000 0.000000 0.000000" charge=0
N	-1.416334	0.159509	1.202184	7
C	0.003276	-0.057081	0.931194	6
C	0.336596	-1.473561	0.409674	6
O	0.581616	-1.378161	-1.007466	8
C	0.863306	0.002149	-1.326006	6
C	-0.298764	0.928789	-1.488396	6
C	0.438876	0.853979	-0.170346	6
H	-1.556224	1.114009	1.527064	1
H	-1.723394	-0.456641	1.951504	1
H	0.564806	0.134109	1.852394	1
H	-0.460135	-2.200281	0.595834	1
H	1.254996	-1.844621	0.878474	1
H	1.787025	0.236269	-1.839676	1
H	-0.159514	1.815089	-2.095456	1
H	-1.289634	0.495779	-1.559456	1
H	1.073506	1.670669	0.138484	1
Es	0.800991	0.403270	-0.656299	99
Es	0.581666	-1.377920	-1.007245	99
Es	0.863754	1.418505	0.034203	99
Es	0.255956	0.405473	-1.599448	99
Es	0.438839	0.853927	-0.170508	99
Es	-0.058132	1.018751	-0.727964	99
Es	-0.956529	0.639098	-1.534039	99
Es	0.201328	0.417604	0.376803	99
Es	1.490074	0.150725	-1.681553	99
Es	-0.298614	0.928756	-1.488263	99
Es	-0.193615	1.530898	-1.892442	99
Es	0.836589	-1.530758	-1.060879	99
Es	0.684147	-0.843130	-1.110037	99
Es	0.490621	-1.384467	-0.468518	99
Es	-0.798577	0.062189	1.110476	99
Es	-0.209979	-1.965752	0.541717	99
Es	0.003139	-0.057086	0.931184	99
Es	0.151466	-0.774260	0.683318	99
Es	-1.608570	0.098860	0.915773	99
Es	-1.416028	0.159588	1.202680	99
Es	0.968668	-1.723183	0.742469	99
Es	0.336627	-1.473511	0.409462	99
Es	0.863134	0.002025	-1.325904	99
Es	0.320364	-1.444237	-1.145025	99
Es	0.402590	0.075958	1.562367	99
Es	-1.481421	0.734610	1.415317	99
Es	-1.584911	-0.207941	1.673067	99
43
Properties=species:S:1:pos:R:3:Z:I:1 energy=-323.94082056633886 field_type=dipole dipole="0.000000 0.000000 0.000000" charge=0
N	-1.416334	0.159509	1.202184	7
C	0.003276	-0.057081	0.931194	6
C	0.336596	-1.473561	0.409674	6
O	0.581616	-1.378161	-1.007466	8
C	0.863306	0.002149	-1.326006	6
C	-0.298764	0.928789	-1.488396	6
C	0.438876	0.853979	-0.170346	6
H	-1.556224	1.114009	1.527064	1
H	-1.723394	-0.456641	1.951504	1
H	0.564806	0.134109	1.852394	1
H	-0.460135	-2.200281	0.595834	1
H	1.254996	-1.844621	0.878474	1
H	1.787025	0.236269	-1.839676	1
H	-0.159514	1.815089	-2.095456	1
H	-1.289634	0.495779	-1.559456	1
H	1.073506	1.670669	0.138484	1
Es	0.835714	-1.531466	-1.061533	99
Es	-0.209934	-1.965774	0.541687	99
Es	0.151449	-0.774244	0.683434	99
Es	-0.058166	1.018717	-0.727796	99
Es	0.402596	0.076011	1.562340	99
Es	-0.798606	0.062232	1.110699	99
Es	0.336625	-1.473511	0.409457	99
Es	1.490089	0.150708	-1.681356	99
Es	0.438842	0.853927	-0.170506	99
Es	-1.608666	0.098877	0.915557	99
Es	0.201388	0.417501	0.376650	99
Es	-0.193685	1.530854	-1.892394	99
Es	0.320079	-1.443594	-1.144380	99
Es	-1.584902	-0.207866	1.673140	99
Es	-1.416074	0.159583	1.202574	99
Es	-0.956448	0.639147	-1.534069	99
Es	0.003139	-0.057086	0.931184	99
Es	0.491228	-1.384429	-0.468398	99
Es	0.863580	1.418580	0.034313	99
Es	0.256112	0.405309	-1.599894	99
Es	0.684711	-0.843100	-1.110189	99
Es	0.968607	-1.723177	0.742476	99
Es	0.800948	0.403469	-0.656276	99
Es	-0.298612	0.928754	-1.488263	99
Es	-1.481274	0.734459	1.415363	99
Es	0.581709	-1.377914	-1.007200	99
Es	0.863128	0.002028	-1.325908	99
43
Properties=species:S:1:pos:R:3:Z:I:1 energy=-323.94082056633886 field_type=dipole dipole="0.000000 0.000000 0.000000" charge=0
N	-1.416334	0.159509	1.202184	7
C	0.003276	-0.057081	0.931194	6
C	0.336596	-1.473561	0.409674	6
O	0.581616	-1.378161	-1.007466	8
C	0.863306	0.002149	-1.326006	6
C	-0.298764	0.928789	-1.488396	6
C	0.438876	0.853979	-0.170346	6
H	-1.556224	1.114009	1.527064	1
H	-1.723394	-0.456641	1.951504	1
H	0.564806	0.134109	1.852394	1
H	-0.460135	-2.200281	0.595834	1
H	1.254996	-1.844621	0.878474	1
H	1.787025	0.236269	-1.839676	1
H	-0.159514	1.815089	-2.095456	1
H	-1.289634	0.495779	-1.559456	1
H	1.073506	1.670669	0.138484	1
Es	-0.058174	1.018659	-0.727547	99
Es	0.438842	0.853928	-0.170501	99
Es	-0.956327	0.639135	-1.534161	99
Es	0.968564	-1.723136	0.742451	99
Es	0.003138	-0.057085	0.931185	99
Es	-0.298615	0.928760	-1.488259	99
Es	-1.608570	0.099265	0.915388	99
Es	0.834287	-1.533954	-1.063701	99
Es	0.151394	-0.774247	0.683444	99
Es	0.863127	0.002037	-1.325903	99
Es	0.492237	-1.384665	-0.468222	99
Es	0.318961	-1.440514	-1.142392	99
Es	0.686354	-0.843414	-1.110092	99
Es	0.256153	0.405278	-1.600214	99
Es	-1.416019	0.159595	1.202677	99
Es	0.801011	0.403559	-0.656243	99
Es	-0.209857	-1.965815	0.541708	99
Es	0.201462	0.417583	0.376697	99
Es	-0.798529	0.062239	1.110769	99
Es	-0.193753	1.530897	-1.892308	99
Es	0.336626	-1.473512	0.409468	99
Es	-1.585242	-0.208076	1.672977	99
Es	-1.481142	0.734301	1.415522	99
Es	0.581620	-1.378010	-1.007356	99
Es	0.402549	0.075961	1.562323	99
Es	0.863456	1.418527	0.034301	99
Es	1.490025	0.150699	-1.681299	99
43
Properties=species:S:1:pos:R:3:Z:I:1 energy=-323.94082056633886 field_type=dipole dipole="0.000000 0.000000 0.000000" charge=0
N	-1.416334	0.159509	1.202184	7
C	0.003276	-0.057081	0.931194	6
C	0.336596	-1.473561	0.409674	6
O	0.581616	-1.378161	-1.007466	8
C	0.863306	0.002149	-1.326006	6
C	-0.298764	0.928789	-1.488396	6
C	0.438876	0.853979	-0.170346	6
H	-1.556224	1.114009	1.527064	1
H	-1.723394	-0.456641	1.951504	1
H	0.564806	0.134109	1.852394	1
H	-0.460135	-2.200281	0.595834	1
H	1.254996	-1.844621	0.878474	1
H	1.787025	0.236269	-1.839676	1
H	-0.159514	1.815089	-2.095456	1
H	-1.289634	0.495779	-1.559456	1
H	1.073506	1.670669	0.138484	1
Es	0.003140	-0.057086	0.931183	99
Es	-0.298616	0.928757	-1.488265	99
Es	0.492273	-1.384688	-0.468161	99
Es	-1.585038	-0.208011	1.673132	99
Es	0.863128	0.002042	-1.325899	99
Es	0.256366	0.405106	-1.600253	99
Es	0.319401	-1.439708	-1.141365	99
Es	-1.608502	0.098968	0.915757	99
Es	-0.058348	1.018948	-0.727468	99
Es	0.801152	0.403391	-0.656285	99
Es	-0.193729	1.530752	-1.892337	99
Es	0.581554	-1.377889	-1.007261	99
Es	0.438846	0.853923	-0.170513	99
Es	0.336626	-1.473513	0.409468	99
Es	-0.209803	-1.965843	0.541708	99
Es	-0.956288	0.639217	-1.534212	99
Es	0.402502	0.075961	1.562256	99
Es	-0.798585	0.062309	1.110558	99
Es	-1.481443	0.734459	1.415231	99
Es	0.968574	-1.723071	0.742486	99
Es	0.863358	1.418497	0.034274	99
Es	-1.416026	0.159592	1.202666	99
Es	0.686712	-0.843208	-1.110600	99
Es	1.489972	0.150685	-1.681156	99
Es	0.201401	0.417746	0.376734	99
Es	0.833564	-1.535082	-1.064433	99
Es	0.151386	-0.774260	0.683468	99
43
Properties=species:S:1:pos:R:3:Z:I:1 energy=-323.94082056633886 field_type=dipole dipole="0.000000 0.000000 0.000000" charge=0
N	-1.416334	0.159509	1.202184	7
C	0.003276	-0.057081	0.931194	6
C	0.336596	-1.473561	0.409674	6
O	0.581616	-1.378161	-1.007466	8
C	0.863306	0.002149	-1.326006	6
C	-0.298764	0.928789	-1.488396	6
C	0.438876	0.853979	-0.170346	6
H	-1.556224	1.114009	1.527064	1
H	-1.723394	-0.456641	1.951504	1
H	0.564806	0.134109	1.852394	1
H	-0.460135	-2.200281	0.595834	1
H	1.254996	-1.844621	0.878474	1
H	1.787025	0.236269	-1.839676	1
H	-0.159514	1.815089	-2.095456	1
H	-1.289634	0.495779	-1.559456	1
H	1.073506	1.670669	0.138484	1
Es	0.438845	0.853924	-0.170510	99
Es	-0.209826	-1.965750	0.541711	99
Es	0.581618	-1.377898	-1.007235	99
Es	-0.956251	0.639298	-1.534116	99
Es	0.968503	-1.723210	0.742444	99
Es	0.491232	-1.384856	-0.468097	99
Es	0.201431	0.417695	0.376700	99
Es	-1.585084	-0.207943	1.673043	99
Es	0.003140	-0.057086	0.931184	99
Es	-0.193815	1.530670	-1.892344	99
Es	-1.481452	0.734451	1.415272	99
Es	0.863127	0.002041	-1.325900	99
Es	0.685022	-0.842978	-1.110713	99
Es	1.489798	0.150632	-1.681312	99
Es	0.834935	-1.532104	-1.062271	99
Es	0.320661	-1.442754	-1.143543	99
Es	-0.798502	0.062247	1.110628	99
Es	-0.298612	0.928754	-1.488264	99
Es	0.801460	0.403422	-0.656216	99
Es	-0.058300	1.019105	-0.727389	99
Es	0.402547	0.075991	1.562201	99
Es	0.336626	-1.473513	0.409469	99
Es	-1.416028	0.159591	1.202664	99
Es	0.256226	0.405134	-1.600338	99
Es	0.863316	1.418368	0.034300	99
Es	0.151492	-0.774219	0.683543	99
Es	-1.608531	0.098982	0.915800	99
43
Properties=species:S:1:pos:R:3:Z:I:1 energy=-323.94082056633886 field_type=dipole dipole="0.000000 0.000000 0.000000" charge=0
N	-1.416334	0.159509	1.202184	7
C	0.003276	-0.057081	0.931194	6
C	0.336596	-1.473561	0.409674	6
O	0.581616	-1.378161	-1.007466	8
C	0.863306	0.002149	-1.326006	6
C	-0.298764	0.928789	-1.488396	6
C	0.438876	0.853979	-0.170346	6
H	-1.556224	1.114009	1.527064	1
H	-1.723394	-0.456641	1.951504	1
H	0.564806	0.134109	1.852394	1
H	-0.460135	-2.200281	0.595834	1
H	1.254996	-1.844621	0.878474	1
H	1.787025	0.236269	-1.839676	1
H	-0.159514	1.815089	-2.095456	1
H	-1.289634	0.495779	-1.559456	1
H	1.073506	1.670669	0.138484	1
Es	-0.058396	1.019366	-0.727151	99
Es	0.834353	-1.532293	-1.062965	99
Es	-1.608598	0.099196	0.915829	99
Es	0.801297	0.403346	-0.656307	99
Es	-0.956182	0.639258	-1.534160	99
Es	0.581569	-1.377833	-1.007212	99
Es	0.256404	0.405077	-1.600407	99
Es	0.685131	-0.842934	-1.110759	99
Es	-1.481350	0.734330	1.415420	99
Es	-0.298612	0.928753	-1.488265	99
Es	0.320703	-1.442349	-1.143097	99
Es	-0.798469	0.062205	1.110544	99
Es	0.491733	-1.385222	-0.467902	99
Es	1.489754	0.150625	-1.681246	99
Es	0.863122	0.002044	-1.325903	99
Es	-1.585132	-0.208013	1.672993	99
Es	0.003141	-0.057087	0.931183	99
Es	0.402509	0.076009	1.562177	99
Es	0.968428	-1.723253	0.742409	99
Es	0.201400	0.417843	0.376811	99
Es	0.863455	1.418289	0.034189	99
Es	-0.193889	1.530585	-1.892355	99
Es	-0.209791	-1.965726	0.541726	99
Es	0.151574	-0.774208	0.683587	99
Es	0.336626	-1.473513	0.409469	99
Es	-1.416054	0.159577	1.202624	99
Es	0.438848	0.853919	-0.170520	99
43
Properties=species:S:1:pos:R:3:Z:I:1 energy=-323.94082056633886 field_type=dipole dipole="0.000000 0.000000 0.000000" charge=0
N	-1.416334	0.159509	1.202184	7
C	0.003276	-0.057081	0.931194	6
C	0.336596	-1.473561	0.409674	6
O	0.581616	-1.378161	-1.007466	8
C	0.863306	0.002149	-1.326006	6
C	-0.298764	0.928789	-1.488396	6
C	0.438876	0.853979	-0.170346	6
H	-1.556224	1.114009	1.527064	1
H	-1.723394	-0.456641	1.951504	1
H	0.564806	0.134109	1.852394	1
H	-0.460135	-2.200281	0.595834	1
H	1.254996	-1.844621	0.878474	1
H	1.787025	0.236269	-1.839676	1
H	-0.159514	1.815089	-2.095456	1
H	-1.289634	0.495779	-1.559456	1
H	1.073506	1.670669	0.138484	1
Es	-0.058402	1.019388	-0.727010	99
Es	-0.193883	1.530547	-1.892323	99
Es	0.438844	0.853924	-0.170513	99
Es	0.834444	-1.531507	-1.062062	99
Es	0.581570	-1.377903	-1.007266	99
Es	1.489456	0.150629	-1.681154	99
Es	0.685102	-0.842937	-1.111078	99
Es	0.402520	0.075969	1.562126	99
Es	0.256339	0.405001	-1.600734	99
Es	0.151508	-0.774196	0.683599	99
Es	0.801799	0.403429	-0.656251	99
Es	0.863125	0.002046	-1.325898	99
Es	-1.416033	0.159590	1.202663	99
Es	-0.209750	-1.965731	0.541715	99
Es	0.968434	-1.723234	0.742434	99
Es	-0.298610	0.928753	-1.488263	99
Es	0.003141	-0.057086	0.931184	99
Es	-0.956132	0.639402	-1.534152	99
Es	0.336626	-1.473513	0.409470	99
Es	-1.608499	0.099000	0.915921	99
Es	0.491436	-1.385153	-0.467909	99
Es	-1.481563	0.734421	1.415278	99
Es	-0.798440	0.062276	1.110626	99
Es	0.201461	0.417841	0.376732	99
Es	-1.585110	-0.207953	1.672965	99
Es	0.863177	1.418220	0.034281	99
Es	0.321017	-1.443229	-1.143667	99
43
Properties=species:S:1:pos:R:3:Z:I:1 energy=-323.94082056633886 field_type=dipole dipole="0.000000 0.000000 0.000000" charge=0
N	-1.416334	0.159509	1.202184	7
C	0.003276	-0.057081	0.931194	6
C	0.336596	-1.473561	0.409674	6
O	0.581616	-1.378161	-1.007466	8
C	0.863306	0.002149	-1.326006	6
C	-0.298764	0.928789	-1.488396	6
C	0.438876	0.853979	-0.170346	6
H	-1.556224	1.114009	1.527064	1
H	-1.723394	-0.456641	1.951504	1
H	0.564806	0.134109	1.852394	1
H	-0.460135	-2.200281	0.595834	1
H	1.254996	-1.844621	0.878474	1
H	1.787025	0.236269	-1.839676	1
H	-0.159514	1.815089	-2.095456	1
H	-1.289634	0.495779	-1.559456	1
H	1.073506	1.670669	0.138484	1
Es	-0.193906	1.530472	-1.892280	99
Es	1.489517	0.150571	-1.681272	99
Es	0.863071	1.418175	0.034278	99
Es	0.491388	-1.385498	-0.467647	99
Es	0.256320	0.404966	-1.600734	99
Es	-0.956094	0.639452	-1.534185	99
Es	-0.798420	0.062235	1.110645	99
Es	0.581613	-1.378025	-1.007339	99
Es	0.968402	-1.723244	0.742431	99
Es	0.201446	0.417900	0.376747	99
Es	0.320909	-1.440050	-1.141914	99
Es	0.402512	0.075976	1.562077	99
Es	0.833197	-1.534002	-1.064124	99
Es	-1.608497	0.099057	0.915959	99
Es	0.003141	-0.057086	0.931183	99
Es	-0.209723	-1.965719	0.541719	99
Es	0.151530	-0.774196	0.683637	99
Es	-0.058427	1.019481	-0.726968	99
Es	0.801939	0.403360	-0.656211	99
Es	-0.298611	0.928753	-1.488263	99
Es	0.438846	0.853922	-0.170513	99
Es	-1.481531	0.734387	1.415267	99
Es	0.686414	-0.843088	-1.110969	99
Es	-1.416041	0.159587	1.202656	99
Es	0.336626	-1.473513	0.409471	99
Es	0.863125	0.002046	-1.325898	99
Es	-1.585169	-0.207928	1.672958	99
43
Properties=species:S:1:pos:R:3:Z:I:1 energy=-323.94082056633886 field_type=dipole dipole="0.000000 0.000000 0.000000" charge=0
N	-1.416334	0.159509	1.202184	7
C	0.003276	-0.057081	0.931194	6
C	0.336596	-1.473561	0.409674	6
O	0.581616	-1.378161	-1.007466	8
C	0.863306	0.002149	-1.326006	6
C	-0.298764	0.928789	-1.488396	6
C	0.438876	0.853979	-0.170346	6
H	-1.556224	1.114009	1.527064	1
H	-1.723394	-0.456641	1.951504	1
H	0.564806	0.134109	1.852394	1
H	-0.460135	-2.200281	0.595834	1
H	1.254996	-1.844621	0.878474	1
H	1.787025	0.236269	-1.839676	1
H	-0.159514	1.815089	-2.095456	1
H	-1.289634	0.495779	-1.559456	1
H	1.073506	1.670669	0.138484	1
Es	-0.209615	-1.965804	0.541736	99
Es	-1.608437	0.099003	0.916124	99
Es	0.863012	1.418101	0.034271	99
Es	0.684675	-0.842623	-1.111439	99
Es	0.968394	-1.723145	0.742421	99
Es	-0.798406	0.062126	1.110584	99
Es	0.003144	-0.057086	0.931183	99
Es	0.863125	0.002047	-1.325896	99
Es	-0.956036	0.639503	-1.534129	99
Es	0.491318	-1.385526	-0.467680	99
Es	0.834082	-1.531563	-1.062498	99
Es	-1.416055	0.159571	1.202666	99
Es	0.151457	-0.774200	0.683623	99
Es	-0.298610	0.928753	-1.488263	99
Es	-0.193977	1.530438	-1.892283	99
Es	0.402484	0.075947	1.562054	99
Es	0.321767	-1.443086	-1.143229	99
Es	0.256332	0.404919	-1.600929	99
Es	1.489449	0.150542	-1.681222	99
Es	0.336626	-1.473513	0.409468	99
Es	0.438846	0.853921	-0.170516	99
Es	0.581672	-1.377872	-1.007207	99
Es	-0.058409	1.019613	-0.726734	99
Es	-1.481575	0.734472	1.415115	99
Es	0.201493	0.417947	0.376804	99
Es	0.802025	0.403350	-0.656324	99
Es	-1.585203	-0.207839	1.673013	99
43
Properties=species:S:1:pos:R:3:Z:I:1 energy=-323.94082056633886 field_type=dipole dipole="0.000000 0.000000 0.000000" charge=0
N	-1.416334	0.159509	1.202184	7
C	0.003276	-0.057081	0.931194	6
C	0.336596	-1.473561	0.409674	6
O	0.581616	-1.378161	-1.007466	8
C	0.863306	0.002149	-1.326006	6
C	-0.298764	0.928789	-1.488396	6
C	0.438876	0.853979	-0.170346	6
H	-1.556224	1.114009	1.527064	1
H	-1.723394	-0.456641	1.951504	1
H	0.564806	0.134109	1.852394	1
H	-0.460135	-2.200281	0.595834	1
H	1.254996	-1.844621	0.878474	1
H	1.787025	0.236269	-1.839676	1
H	-0.159514	1.815089	-2.095456	1
H	-1.289634	0.495779	-1.559456	1
H	1.073506	1.670669	0.138484	1
Es	0.802017	0.403360	-0.656129	99
Es	-0.058613	1.019800	-0.726709	99
Es	0.151538	-0.774177	0.683627	99
Es	0.003142	-0.057085	0.931182	99
Es	-0.298613	0.928754	-1.488266	99
Es	-1.481619	0.734380	1.415209	99
Es	-1.416033	0.159590	1.202657	99
Es	0.684169	-0.842443	-1.111914	99
Es	0.323000	-1.444002	-1.143823	99
Es	0.863004	1.417940	0.034257	99
Es	0.581655	-1.377909	-1.007228	99
Es	0.336626	-1.473513	0.409473	99
Es	-1.608403	0.099109	0.916115	99
Es	0.863123	0.002048	-1.325898	99
Es	-0.209644	-1.965714	0.541711	99
Es	-1.585269	-0.207971	1.672926	99
Es	0.201382	0.418175	0.376846	99
Es	-0.193940	1.530436	-1.892280	99
Es	-0.798371	0.062218	1.110581	99
Es	0.490182	-1.385509	-0.467693	99
Es	0.402431	0.075915	1.562039	99
Es	0.256639	0.404693	-1.600918	99
Es	0.968359	-1.723246	0.742437	99
Es	1.489391	0.150516	-1.681249	99
Es	-0.955890	0.639548	-1.534287	99
Es	0.834473	-1.530844	-1.061445	99
Es	0.438839	0.853926	-0.170509	99
43
Properties=species:S:1:pos:R:3:Z:I:1 energy=-323.94082056633886 field_type=dipole dipole="0.000000 0.000000 0.000000" charge=0
N	-1.416334	0.159509	1.202184	7
C	0.003276	-0.057081	0.931194	6
C	0.336596	-1.473561	0.409674	6
O	0.581616	-1.378161	-1.007466	8
C	0.863306	0.002149	-1.326006	6
C	-0.298764	0.928789	-1.488396	6
C	0.438876	0.853979	-0.170346	6
H	-1.556224	1.114009	1.527064	1
H	-1.723394	-0.456641	1.951504	1
H	0.564806	0.134109	1.852394	1
H	-0.460135	-2.200281	0.595834	1
H	1.254996	-1.844621	0.878474	1
H	1.787025	0.236269	-1.839676	1
H	-0.159514	1.815089	-2.095456	1
H	-1.289634	0.495779	-1.559456	1
H	1.073506	1.670669	0.138484	1
Es	0.438849	0.853916	-0.170529	99
Es	1.489255	0.150516	-1.681241	99
Es	-0.798326	0.062016	1.110278	99
Es	0.863123	0.002053	-1.325894	99
Es	-1.585548	-0.208194	1.672694	99
Es	0.336626	-1.473515	0.409474	99
Es	-1.608398	0.099615	0.916385	99
Es	0.862862	1.417963	0.034255	99
Es	0.151540	-0.774144	0.683752	99
Es	0.201491	0.418131	0.376812	99
Es	-0.209599	-1.965710	0.541693	99
Es	0.835286	-1.526150	-1.057445	99
Es	0.683174	-0.842231	-1.112235	99
Es	0.581539	-1.377880	-1.007262	99
Es	0.802371	0.403248	-0.656237	99
Es	0.324157	-1.449002	-1.147451	99
Es	-1.416031	0.159605	1.202669	99
Es	-0.955907	0.639614	-1.534179	99
Es	-1.481397	0.734290	1.415506	99
Es	0.489383	-1.385393	-0.467769	99
Es	-0.058548	1.019862	-0.726541	99
Es	0.402456	0.075905	1.562008	99
Es	0.968307	-1.723303	0.742384	99
Es	0.003143	-0.057086	0.931184	99
Es	-0.298609	0.928752	-1.488262	99
Es	0.256427	0.404790	-1.601104	99
Es	-0.194048	1.530323	-1.892232	99
43
Properties=species:S:1:pos:R:3:Z:I:1 energy=-323.94082056633886 field_type=dipole dipole="0.000000 0.000000 0.000000" charge=0
N	-1.416334	0.159509	1.202184	7
C	0.003276	-0.057081	0.931194	6
C	0.336596	-1.473561	0.409674	6
O	0.581616	-1.378161	-1.007466	8
C	0.863306	0.002149	-1.326006	6
C	-0.298764	0.928789	-1.488396	6
C	0.438876	0.853979	-0.170346	6
H	-1.556224	1.114009	1.527064	1
H	-1.723394	-0.456641	1.951504	1
H	0.564806	0.134109	1.852394	1
H	-0.460135	-2.200281	0.595834	1
H	1.254996	-1.844621	0.878474	1
H	1.787025	0.236269	-1.839676	1
H	-0.159514	1.815089	-2.095456	1
H	-1.289634	0.495779	-1.559456	1
H	1.073506	1.670669	0.138484	1
Es	0.336626	-1.473514	0.409478	99
Es	0.581604	-1.377960	-1.007307	99
Es	-0.058552	1.019799	-0.726628	99
Es	0.201399	0.418191	0.376819	99
Es	0.438845	0.853923	-0.170513	99
Es	-1.481364	0.734239	1.415466	99
Es	-1.416068	0.159609	1.202610	99
Es	0.968288	-1.723285	0.742403	99
Es	-1.608388	0.099496	0.916108	99
Es	0.802611	0.403250	-0.655999	99
Es	-0.298607	0.928750	-1.488261	99
Es	-0.955833	0.639660	-1.534271	99
Es	0.256341	0.404817	-1.601252	99
Es	0.151565	-0.774162	0.683745	99
Es	0.863122	0.002052	-1.325894	99
Es	0.402480	0.075955	1.561923	99
Es	0.862749	1.417932	0.034237	99
Es	0.003140	-0.057085	0.931183	99
Es	1.489192	0.150471	-1.681205	99
Es	-0.798347	0.062086	1.110692	99
Es	-0.194028	1.530289	-1.892215	99
Es	-1.585557	-0.208080	1.672725	99
Es	0.683239	-0.842197	-1.112245	99
Es	0.835140	-1.527957	-1.059043	99
Es	-0.209577	-1.965683	0.541733	99
Es	0.324166	-1.446958	-1.145828	99
Es	0.489391	-1.385646	-0.467746	99
43
Properties=species:S:1:pos:R:3:Z:I:1 energy=-323.94082056633886 field_type=dipole dipole="0.000000 0.000000 0.000000" charge=0
N	-1.416334	0.159509	1.202184	7
C	0.003276	-0.057081	0.931194	6
C	0.336596	-1.473561	0.409674	6
O	0.581616	-1.378161	-1.007466	8
C	0.863306	0.002149	-1.326006	6
C	-0.298764	0.928789	-1.488396	6
C	0.438876	0.853979	-0.170346	6
H	-1.556224	1.114009	1.527064	1
H	-1.723394	-0.456641	1.951504	1
H	0.564806	0.134109	1.852394	1
H	-0.460135	-2.200281	0.595834	1
H	1.254996	-1.844621	0.878474	1
H	1.787025	0.236269	-1.839676	1
H	-0.159514	1.815089	-2.095456	1
H	-1.289634	0.495779	-1.559456	1
H	1.073506	1.670669	0.138484	1
Es	0.336626	-1.473514	0.409474	99
Es	0.863122	0.002053	-1.325895	99
Es	0.256470	0.404704	-1.601435	99
Es	-0.194089	1.530212	-1.892194	99
Es	0.003143	-0.057085	0.931183	99
Es	-0.798288	0.062171	1.110645	99
Es	-0.955826	0.639669	-1.534245	99
Es	1.489088	0.150470	-1.681164	99
Es	0.862718	1.417866	0.034225	99
Es	-0.209580	-1.965686	0.541712	99
Es	-0.298608	0.928751	-1.488261	99
Es	0.581784	-1.377873	-1.007177	99
Es	-1.585395	-0.207939	1.672852	99
Es	-0.058581	1.020007	-0.726341	99
Es	0.201488	0.418229	0.376850	99
Es	0.495730	-1.386785	-0.466730	99
Es	0.151575	-0.774136	0.683751	99
Es	0.827832	-1.540302	-1.071608	99
Es	0.438847	0.853920	-0.170518	99
Es	0.689204	-0.843199	-1.111407	99
Es	-1.481672	0.734375	1.415164	99
Es	0.319088	-1.432594	-1.135245	99
Es	-1.416045	0.159586	1.202626	99
Es	0.968221	-1.723288	0.742419	99
Es	0.802611	0.403295	-0.656190	99
Es	0.402454	0.075916	1.561900	99
Es	-1.608340	0.099172	0.916323	99
43
Properties=species:S:1:pos:R:3:Z:I:1 energy=-323.94082056633886 field_type=dipole dipole="0.000000 0.000000 0.000000" charge=0
N	-1.416334	0.159509	1.202184	7
C	0.003276	-0.057081	0.931194	6
C	0.336596	-1.473561	0.409674	6
O	0.581616	-1.378161	-1.007466	8
C	0.863306	0.002149	-1.326006	6
C	-0.298764	0.928789	-1.488396	6
C	0.438876	0.853979	-0.170346	6
H	-1.556224	1.114009	1.527064	1
H	-1.723394	-0.456641	1.951504	1
H	0.564806	0.134109	1.852394	1
H	-0.460135	-2.200281	0.595834	1
H	1.254996	-1.844621	0.878474	1
H	1.787025	0.236269	-1.839676	1
H	-0.159514	1.815089	-2.095456	1
H	-1.289634	0.495779	-1.559456	1
H	1.073506	1.670669	0.138484	1
Es	0.802566	0.403230	-0.656297	99
Es	0.686686	-0.842638	-1.112047	99
Es	0.830283	-1.535658	-1.067008	99
Es	-0.298607	0.928751	-1.488261	99
Es	0.256502	0.404669	-1.601441	99
Es	-0.194132	1.530160	-1.892180	99
Es	0.493070	-1.386501	-0.466948	99
Es	-0.058589	1.020096	-0.726176	99
Es	-0.209539	-1.965674	0.541726	99
Es	-1.481793	0.734431	1.415107	99
Es	-0.798307	0.062222	1.110499	99
Es	-1.416036	0.159589	1.202657	99
Es	0.863121	0.002055	-1.325894	99
Es	0.321738	-1.438102	-1.139056	99
Es	-1.585464	-0.208111	1.672825	99
Es	0.862625	1.417829	0.034220	99
Es	0.003143	-0.057085	0.931183	99
Es	0.402443	0.075910	1.561868	99
Es	-0.955765	0.639695	-1.534255	99
Es	0.151582	-0.774133	0.683774	99
Es	0.581805	-1.377845	-1.007148	99
Es	0.336626	-1.473514	0.409475	99
Es	0.438847	0.853919	-0.170519	99
Es	0.968206	-1.723298	0.742404	99
Es	0.201501	0.418265	0.376867	99
Es	-1.608156	0.099241	0.916540	99
Es	1.489221	0.150490	-1.681202	99
