43
Properties=species:S:1:pos:R:3:Z:I:1 energy=-323.96276343169217 field_type=dipole dipole="0.000000 0.000000 0.000000" charge=0
N	-1.796681	0.489437	-0.636108	7
C	-0.343261	0.466747	-0.582998	6
C	0.263619	1.545897	0.312733	6
O	1.590179	1.084978	0.609513	8
C	1.492719	-0.341403	0.765752	6
C	0.248079	-0.758103	0.040383	6
C	-0.248241	-2.004703	0.043862	6
H	-2.111061	-0.207622	-1.308228	1
H	-2.107181	1.389167	-0.998028	1
H	0.068379	0.571217	-1.594827	1
H	-0.280691	1.667297	1.257822	1
H	0.317649	2.518988	-0.185618	1
H	2.392169	-0.795642	0.341112	1
H	1.429389	-0.565933	1.835472	1
H	-1.174311	-2.249292	-0.465218	1
H	0.259239	-2.811032	0.564372	1
Es	-0.874342	-2.174410	-0.303996	99
Es	0.298023	2.211655	-0.030790	99
Es	1.528819	0.544201	0.671232	99
Es	0.094672	-2.553008	0.395605	99
Es	-0.069936	-0.169311	-0.280937	99
Es	-1.160893	0.481729	-0.632898	99
Es	1.440035	-0.507385	1.491546	99
Es	1.745070	1.123590	0.347663	99
Es	0.248149	-0.757983	0.040375	99
Es	-0.067502	1.017235	-0.141901	99
Es	-1.936610	0.432798	-0.319864	99
Es	0.872509	-0.568295	0.398779	99
Es	-0.343386	0.466723	-0.582960	99
Es	-1.964873	1.032278	-0.873831	99
Es	0.164222	-1.469944	-0.238769	99
Es	1.678873	1.208172	0.876791	99
Es	-1.971253	0.076047	-1.056219	99
Es	-0.248267	-2.004779	0.043852	99
Es	-0.120789	1.621257	0.955980	99
Es	-0.178965	-1.333740	0.308809	99
Es	0.263824	1.545806	0.312746	99
Es	2.097758	-0.657692	0.477487	99
Es	1.076774	1.241484	0.502571	99
Es	-1.796435	0.489542	-0.636626	99
Es	1.492693	-0.341189	0.765699	99
Es	-0.050148	0.531648	-1.269174	99
Es	1.589841	1.084789	0.609562	99
43
Properties=species:S:1:pos:R:3:Z:I:1 energy=-323.96276343169217 field_type=dipole dipole="0.000000 0.000000 0.000000" charge=0
N	-1.796681	0.489437	-0.636108	7
C	-0.343261	0.466747	-0.582998	6
C	0.263619	1.545897	0.312733	6
O	1.590179	1.084978	0.609513	8
C	1.492719	-0.341403	0.765752	6
C	0.248079	-0.758103	0.040383	6
C	-0.248241	-2.004703	0.043862	6
H	-2.111061	-0.207622	-1.308228	1
H	-2.107181	1.389167	-0.998028	1
H	0.068379	0.571217	-1.594827	1
H	-0.280691	1.667297	1.257822	1
H	0.317649	2.518988	-0.185618	1
H	2.392169	-0.795642	0.341112	1
H	1.429389	-0.565933	1.835472	1
H	-1.174311	-2.249292	-0.465218	1
H	0.259239	-2.811032	0.564372	1
Es	0.248142	-0.757982	0.040385	99
Es	-0.067519	1.017188	-0.141931	99
Es	-1.160845	0.481671	-0.633212	99
Es	0.298009	2.211661	-0.030738	99
Es	0.872652	-0.568301	0.398964	99
Es	1.076828	1.241555	0.501874	99
Es	-1.937291	0.432638	-0.319075	99
Es	-1.796436	0.489546	-0.636641	99
Es	-0.178926	-1.333691	0.308641	99
Es	0.164192	-1.469932	-0.238767	99
Es	-0.874302	-2.174490	-0.303947	99
Es	1.589873	1.084785	0.609524	99
Es	0.263825	1.545802	0.312747	99
Es	1.528767	0.544346	0.671762	99
Es	-0.120788	1.621243	0.955929	99
Es	-0.050135	0.531697	-1.269149	99
Es	-1.971027	0.076657	-1.056341	99
Es	-0.070041	-0.169345	-0.280990	99
Es	1.492692	-0.341189	0.765700	99
Es	-0.343384	0.466724	-0.582959	99
Es	0.094630	-2.552940	0.395633	99
Es	1.745414	1.123240	0.347982	99
Es	2.097605	-0.657670	0.477325	99
Es	-1.964490	1.031941	-0.874180	99
Es	1.440133	-0.507522	1.491617	99
Es	-0.248261	-2.004777	0.043849	99
Es	1.678548	1.208361	0.876733	99
43
Properties=species:S:1:pos:R:3:Z:I:1 energy=-323.96276343169217 field_type=dipole dipole="0.000000 0.000000 0.000000" charge=0
N	-1.796681	0.489437	-0.636108	7
C	-0.343261	0.466747	-0.582998	6
C	0.263619	1.545897	0.312733	6
O	1.590179	1.084978	0.609513	8
C	1.492719	-0.341403	0.765752	6
C	0.248079	-0.758103	0.040383	6
C	-0.248241	-2.004703	0.043862	6
H	-2.111061	-0.207622	-1.308228	1
H	-2.107181	1.389167	-0.998028	1
H	0.068379	0.571217	-1.594827	1
H	-0.280691	1.667297	1.257822	1
H	0.317649	2.518988	-0.185618	1
H	2.392169	-0.795642	0.341112	1
H	1.429389	-0.565933	1.835472	1
H	-1.174311	-2.249292	-0.465218	1
H	0.259239	-2.811032	0.564372	1
Es	0.263813	1.545807	0.312745	99
Es	-0.874322	-2.174443	-0.303985	99
Es	-0.050140	0.531517	-1.269046	99
Es	1.589859	1.084773	0.609524	99
Es	1.076760	1.241906	0.501085	99
Es	1.492692	-0.341188	0.765700	99
Es	0.297929	2.211745	-0.030657	99
Es	1.440108	-0.507460	1.491533	99
Es	0.248144	-0.757993	0.040379	99
Es	-0.343384	0.466724	-0.582961	99
Es	-0.248258	-2.004777	0.043844	99
Es	0.164143	-1.469843	-0.238647	99
Es	2.097642	-0.657707	0.477430	99
Es	-0.069969	-0.169320	-0.281038	99
Es	1.529360	0.543775	0.670045	99
Es	-1.796439	0.489542	-0.636625	99
Es	1.746598	1.124942	0.349824	99
Es	-1.936139	0.432957	-0.320106	99
Es	0.094642	-2.552972	0.395673	99
Es	-1.971628	0.075891	-1.055679	99
Es	-1.160647	0.481737	-0.633353	99
Es	1.676918	1.206943	0.877351	99
Es	-0.067498	1.017343	-0.141950	99
Es	-0.179013	-1.333733	0.308600	99
Es	0.872662	-0.568394	0.398964	99
Es	-1.965254	1.032296	-0.873785	99
Es	-0.120716	1.621150	0.955867	99
43
Properties=species:S:1:pos:R:3:Z:I:1 energy=-323.96276343169217 field_type=dipole dipole="0.000000 0.000000 0.000000" charge=0
N	-1.796681	0.489437	-0.636108	7
C	-0.343261	0.466747	-0.582998	6
C	0.263619	1.545897	0.312733	6
O	1.590179	1.084978	0.609513	8
C	1.492719	-0.341403	0.765752	6
C	0.248079	-0.758103	0.040383	6
C	-0.248241	-2.004703	0.043862	6
H	-2.111061	-0.207622	-1.308228	1
H	-2.107181	1.389167	-0.998028	1
H	0.068379	0.571217	-1.594827	1
H	-0.280691	1.667297	1.257822	1
H	0.317649	2.518988	-0.185618	1
H	2.392169	-0.795642	0.341112	1
H	1.429389	-0.565933	1.835472	1
H	-1.174311	-2.249292	-0.465218	1
H	0.259239	-2.811032	0.564372	1
Es	0.248147	-0.757984	0.040378	99
Es	1.076357	1.242258	0.502515	99
Es	1.440133	-0.507488	1.491478	99
Es	0.263820	1.545806	0.312747	99
Es	-1.965345	1.032388	-0.873641	99
Es	-1.796436	0.489546	-0.636643	99
Es	0.298005	2.211647	-0.030635	99
Es	-0.069926	-0.169333	-0.281097	99
Es	-0.067582	1.017336	-0.142113	99
Es	1.529461	0.543908	0.671367	99
Es	1.678979	1.207766	0.875783	99
Es	-0.874342	-2.174483	-0.303876	99
Es	2.097611	-0.657729	0.477424	99
Es	-1.936232	0.432689	-0.320206	99
Es	-0.178860	-1.333690	0.308433	99
Es	-0.248269	-2.004775	0.043860	99
Es	0.094639	-2.552925	0.395727	99
Es	-0.343381	0.466725	-0.582960	99
Es	-1.160698	0.481716	-0.633233	99
Es	1.744817	1.123567	0.348741	99
Es	-0.050223	0.531585	-1.268924	99
Es	1.492692	-0.341185	0.765700	99
Es	0.164176	-1.469940	-0.238699	99
Es	-0.120720	1.621299	0.955837	99
Es	-1.971475	0.076070	-1.055819	99
Es	1.589920	1.084842	0.609516	99
Es	0.872595	-0.568400	0.399073	99
43
Properties=species:S:1:pos:R:3:Z:I:1 energy=-323.96276343169217 field_type=dipole dipole="0.000000 0.000000 0.000000" charge=0
N	-1.796681	0.489437	-0.636108	7
C	-0.343261	0.466747	-0.582998	6
C	0.263619	1.545897	0.312733	6
O	1.590179	1.084978	0.609513	8
C	1.492719	-0.341403	0.765752	6
C	0.248079	-0.758103	0.040383	6
C	-0.248241	-2.004703	0.043862	6
H	-2.111061	-0.207622	-1.308228	1
H	-2.107181	1.389167	-0.998028	1
H	0.068379	0.571217	-1.594827	1
H	-0.280691	1.667297	1.257822	1
H	0.317649	2.518988	-0.185618	1
H	2.392169	-0.795642	0.341112	1
H	1.429389	-0.565933	1.835472	1
H	-1.174311	-2.249292	-0.465218	1
H	0.259239	-2.811032	0.564372	1
Es	1.440177	-0.507506	1.491468	99
Es	1.676558	1.206662	0.876522	99
Es	-0.874286	-2.174539	-0.303917	99
Es	-1.971164	0.076549	-1.056156	99
Es	0.248146	-0.757978	0.040380	99
Es	-0.050094	0.531599	-1.269017	99
Es	-0.067533	1.017259	-0.141980	99
Es	0.164030	-1.469847	-0.238555	99
Es	-1.965451	1.032358	-0.873372	99
Es	2.097579	-0.657710	0.477421	99
Es	1.747048	1.124929	0.350006	99
Es	1.529419	0.543735	0.670767	99
Es	-1.936232	0.432047	-0.319354	99
Es	0.298028	2.211589	-0.030633	99
Es	0.872731	-0.568450	0.399113	99
Es	1.076609	1.242265	0.501139	99
Es	0.094701	-2.552909	0.395758	99
Es	-0.178889	-1.333719	0.308322	99
Es	-0.120783	1.621315	0.955872	99
Es	0.263817	1.545809	0.312747	99
Es	-0.248260	-2.004761	0.043850	99
Es	1.589883	1.084789	0.609485	99
Es	1.492692	-0.341187	0.765699	99
Es	-1.796417	0.489543	-0.636680	99
Es	-0.070148	-0.169289	-0.281200	99
Es	-0.343379	0.466724	-0.582960	99
Es	-1.160918	0.481940	-0.633992	99
43
Properties=species:S:1:pos:R:3:Z:I:1 energy=-323.96276343169217 field_type=dipole dipole="0.000000 0.000000 0.000000" charge=0
N	-1.796681	0.489437	-0.636108	7
C	-0.343261	0.466747	-0.582998	6
C	0.263619	1.545897	0.312733	6
O	1.590179	1.084978	0.609513	8
C	1.492719	-0.341403	0.765752	6
C	0.248079	-0.758103	0.040383	6
C	-0.248241	-2.004703	0.043862	6
H	-2.111061	-0.207622	-1.308228	1
H	-2.107181	1.389167	-0.998028	1
H	0.068379	0.571217	-1.594827	1
H	-0.280691	1.667297	1.257822	1
H	0.317649	2.518988	-0.185618	1
H	2.392169	-0.795642	0.341112	1
H	1.429389	-0.565933	1.835472	1
H	-1.174311	-2.249292	-0.465218	1
H	0.259239	-2.811032	0.564372	1
Es	-0.343380	0.466724	-0.582960	99
Es	-0.874323	-2.174464	-0.303854	99
Es	0.094558	-2.552928	0.395711	99
Es	-1.971645	0.075968	-1.055672	99
Es	0.298005	2.211432	-0.030533	99
Es	-1.796433	0.489545	-0.636643	99
Es	-0.120845	1.621371	0.955926	99
Es	0.263822	1.545805	0.312747	99
Es	1.492692	-0.341187	0.765699	99
Es	-0.178678	-1.333694	0.308293	99
Es	-0.050065	0.531537	-1.269041	99
Es	1.440200	-0.507502	1.491424	99
Es	-0.070279	-0.169120	-0.281311	99
Es	0.164114	-1.469918	-0.238496	99
Es	-0.248263	-2.004774	0.043854	99
Es	1.076433	1.243175	0.501913	99
Es	-1.965288	1.032399	-0.873705	99
Es	1.529741	0.543178	0.670228	99
Es	-1.936183	0.432898	-0.320369	99
Es	2.097562	-0.657686	0.477489	99
Es	0.248145	-0.757986	0.040379	99
Es	0.872711	-0.568559	0.399123	99
Es	1.676301	1.205483	0.875612	99
Es	-1.160702	0.481603	-0.633125	99
Es	1.589864	1.084807	0.609533	99
Es	-0.067477	1.017289	-0.142104	99
Es	1.747279	1.125821	0.350613	99
43
Properties=species:S:1:pos:R:3:Z:I:1 energy=-323.96276343169217 field_type=dipole dipole="0.000000 0.000000 0.000000" charge=0
N	-1.796681	0.489437	-0.636108	7
C	-0.343261	0.466747	-0.582998	6
C	0.263619	1.545897	0.312733	6
O	1.590179	1.084978	0.609513	8
C	1.492719	-0.341403	0.765752	6
C	0.248079	-0.758103	0.040383	6
C	-0.248241	-2.004703	0.043862	6
H	-2.111061	-0.207622	-1.308228	1
H	-2.107181	1.389167	-0.998028	1
H	0.068379	0.571217	-1.594827	1
H	-0.280691	1.667297	1.257822	1
H	0.317649	2.518988	-0.185618	1
H	2.392169	-0.795642	0.341112	1
H	1.429389	-0.565933	1.835472	1
H	-1.174311	-2.249292	-0.465218	1
H	0.259239	-2.811032	0.564372	1
Es	1.492692	-0.341191	0.765700	99
Es	-1.971442	0.075993	-1.055732	99
Es	1.440202	-0.507503	1.491373	99
Es	-0.343377	0.466724	-0.582960	99
Es	-0.248264	-2.004773	0.043853	99
Es	0.164081	-1.469849	-0.238382	99
Es	-0.120732	1.621339	0.955765	99
Es	2.097531	-0.657754	0.477464	99
Es	-0.067534	1.017216	-0.141898	99
Es	-1.160620	0.481697	-0.632867	99
Es	0.263820	1.545807	0.312746	99
Es	0.094569	-2.552905	0.395819	99
Es	-0.178634	-1.333805	0.308262	99
Es	-1.936391	0.432840	-0.320571	99
Es	0.248146	-0.757985	0.040378	99
Es	-0.874401	-2.174441	-0.303914	99
Es	-0.050079	0.531594	-1.268966	99
Es	1.076557	1.242725	0.500749	99
Es	1.589968	1.084820	0.609498	99
Es	-1.796435	0.489546	-0.636641	99
Es	0.297958	2.211573	-0.030568	99
Es	1.747198	1.125083	0.350884	99
Es	-0.070264	-0.169170	-0.281418	99
Es	0.872733	-0.568523	0.399063	99
Es	1.529834	0.543420	0.670936	99
Es	1.676130	1.206416	0.875903	99
Es	-1.965379	1.032326	-0.873746	99
43
Properties=species:S:1:pos:R:3:Z:I:1 energy=-323.96276343169217 field_type=dipole dipole="0.000000 0.000000 0.000000" charge=0
N	-1.796681	0.489437	-0.636108	7
C	-0.343261	0.466747	-0.582998	6
C	0.263619	1.545897	0.312733	6
O	1.590179	1.084978	0.609513	8
C	1.492719	-0.341403	0.765752	6
C	0.248079	-0.758103	0.040383	6
C	-0.248241	-2.004703	0.043862	6
H	-2.111061	-0.207622	-1.308228	1
H	-2.107181	1.389167	-0.998028	1
H	0.068379	0.571217	-1.594827	1
H	-0.280691	1.667297	1.257822	1
H	0.317649	2.518988	-0.185618	1
H	2.392169	-0.795642	0.341112	1
H	1.429389	-0.565933	1.835472	1
H	-1.174311	-2.249292	-0.465218	1
H	0.259239	-2.811032	0.564372	1
Es	-1.160514	0.481660	-0.633140	99
Es	0.164022	-1.469734	-0.238178	99
Es	1.440198	-0.507511	1.491366	99
Es	1.492692	-0.341191	0.765700	99
Es	0.094660	-2.552972	0.395626	99
Es	1.589934	1.084860	0.609476	99
Es	-1.971660	0.076047	-1.055657	99
Es	-0.248262	-2.004767	0.043851	99
Es	2.097515	-0.657740	0.477502	99
Es	0.872786	-0.568531	0.399197	99
Es	0.297979	2.211549	-0.030529	99
Es	0.248139	-0.757983	0.040387	99
Es	-0.050119	0.531719	-1.268886	99
Es	1.530024	0.543309	0.671030	99
Es	-1.936136	0.432765	-0.320670	99
Es	-1.796437	0.489542	-0.636636	99
Es	1.673795	1.205484	0.875942	99
Es	1.749295	1.126275	0.351786	99
Es	-0.874312	-2.174453	-0.303973	99
Es	0.263819	1.545806	0.312746	99
Es	1.076647	1.242549	0.499765	99
Es	-0.343378	0.466724	-0.582960	99
Es	-0.067539	1.017167	-0.141799	99
Es	-0.120735	1.621382	0.955722	99
Es	-1.965520	1.032406	-0.873500	99
Es	-0.178649	-1.333833	0.308256	99
Es	-0.070379	-0.169311	-0.281695	99
43
Properties=species:S:1:pos:R:3:Z:I:1 energy=-323.96276343169217 field_type=dipole dipole="0.000000 0.000000 0.000000" charge=0
N	-1.796681	0.489437	-0.636108	7
C	-0.343261	0.466747	-0.582998	6
C	0.263619	1.545897	0.312733	6
O	1.590179	1.084978	0.609513	8
C	1.492719	-0.341403	0.765752	6
C	0.248079	-0.758103	0.040383	6
C	-0.248241	-2.004703	0.043862	6
H	-2.111061	-0.207622	-1.308228	1
H	-2.107181	1.389167	-0.998028	1
H	0.068379	0.571217	-1.594827	1
H	-0.280691	1.667297	1.257822	1
H	0.317649	2.518988	-0.185618	1
H	2.392169	-0.795642	0.341112	1
H	1.429389	-0.565933	1.835472	1
H	-1.174311	-2.249292	-0.465218	1
H	0.259239	-2.811032	0.564372	1
Es	-0.178578	-1.333811	0.308088	99
Es	-1.936020	0.432741	-0.320774	99
Es	1.674444	1.205582	0.875250	99
Es	1.589830	1.084719	0.609347	99
Es	1.076579	1.243131	0.499911	99
Es	-1.796437	0.489545	-0.636643	99
Es	0.163896	-1.469713	-0.238170	99
Es	0.248143	-0.757985	0.040379	99
Es	0.297960	2.211517	-0.030537	99
Es	-0.050078	0.531446	-1.268903	99
Es	-1.160588	0.481687	-0.633111	99
Es	1.748788	1.125993	0.352182	99
Es	1.492692	-0.341194	0.765702	99
Es	-0.070392	-0.169159	-0.281465	99
Es	-0.120681	1.621435	0.955735	99
Es	-0.067603	1.017308	-0.141991	99
Es	1.530073	0.543078	0.671270	99
Es	2.097497	-0.657742	0.477531	99
Es	-0.248262	-2.004771	0.043850	99
Es	-1.965567	1.032484	-0.873395	99
Es	0.094667	-2.553026	0.395671	99
Es	0.263822	1.545807	0.312744	99
Es	-0.343379	0.466725	-0.582960	99
Es	0.872880	-0.568635	0.399238	99
Es	-1.971677	0.075969	-1.055696	99
Es	-0.874336	-2.174386	-0.303864	99
Es	1.440188	-0.507527	1.491341	99
43
Properties=species:S:1:pos:R:3:Z:I:1 energy=-323.96276343169217 field_type=dipole dipole="0.000000 0.000000 0.000000" charge=0
N	-1.796681	0.489437	-0.636108	7
C	-0.343261	0.466747	-0.582998	6
C	0.263619	1.545897	0.312733	6
O	1.590179	1.084978	0.609513	8
C	1.492719	-0.341403	0.765752	6
C	0.248079	-0.758103	0.040383	6
C	-0.248241	-2.004703	0.043862	6
H	-2.111061	-0.207622	-1.308228	1
H	-2.107181	1.389167	-0.998028	1
H	0.068379	0.571217	-1.594827	1
H	-0.280691	1.667297	1.257822	1
H	0.317649	2.518988	-0.185618	1
H	2.392169	-0.795642	0.341112	1
H	1.429389	-0.565933	1.835472	1
H	-1.174311	-2.249292	-0.465218	1
H	0.259239	-2.811032	0.564372	1
Es	1.676368	1.205965	0.874934	99
Es	1.530332	0.542988	0.670680	99
Es	-0.874429	-2.174430	-0.303858	99
Es	-1.965581	1.032390	-0.873246	99
Es	0.094575	-2.552900	0.395826	99
Es	-0.120698	1.621385	0.955678	99
Es	-0.067637	1.017346	-0.142039	99
Es	0.248145	-0.757984	0.040380	99
Es	-0.248260	-2.004773	0.043848	99
Es	-0.343385	0.466726	-0.582961	99
Es	1.492692	-0.341194	0.765701	99
Es	1.746859	1.125659	0.351265	99
Es	0.297944	2.211536	-0.030461	99
Es	0.163945	-1.469969	-0.238160	99
Es	1.076337	1.243146	0.501556	99
Es	-0.070469	-0.169086	-0.281467	99
Es	1.589857	1.084784	0.609552	99
Es	2.097490	-0.657747	0.477548	99
Es	1.440193	-0.507522	1.491312	99
Es	0.872868	-0.568647	0.399381	99
Es	0.263818	1.545808	0.312746	99
Es	-1.971760	0.076086	-1.055774	99
Es	-0.050061	0.531456	-1.268898	99
Es	-1.160448	0.481604	-0.633109	99
Es	-0.178305	-1.333662	0.307786	99
Es	-1.796442	0.489535	-0.636606	99
Es	-1.936083	0.432720	-0.320881	99
43
Properties=species:S:1:pos:R:3:Z:I:1 energy=-323.96276343169217 field_type=dipole dipole="0.000000 0.000000 0.000000" charge=0
N	-1.796681	0.489437	-0.636108	7
C	-0.343261	0.466747	-0.582998	6
C	0.263619	1.545897	0.312733	6
O	1.590179	1.084978	0.609513	8
C	1.492719	-0.341403	0.765752	6
C	0.248079	-0.758103	0.040383	6
C	-0.248241	-2.004703	0.043862	6
H	-2.111061	-0.207622	-1.308228	1
H	-2.107181	1.389167	-0.998028	1
H	0.068379	0.571217	-1.594827	1
H	-0.280691	1.667297	1.257822	1
H	0.317649	2.518988	-0.185618	1
H	2.392169	-0.795642	0.341112	1
H	1.429389	-0.565933	1.835472	1
H	-1.174311	-2.249292	-0.465218	1
H	0.259239	-2.811032	0.564372	1
Es	0.163947	-1.469703	-0.238037	99
Es	1.492692	-0.341194	0.765700	99
Es	-1.796443	0.489538	-0.636614	99
Es	1.674669	1.205044	0.875137	99
Es	1.076336	1.243311	0.500565	99
Es	-0.874346	-2.174443	-0.303911	99
Es	-0.067575	1.017307	-0.142012	99
Es	1.589855	1.084781	0.609558	99
Es	0.094593	-2.552935	0.395768	99
Es	-1.936028	0.432933	-0.320987	99
Es	-1.971816	0.075908	-1.055530	99
Es	-0.248262	-2.004772	0.043852	99
Es	0.872922	-0.568718	0.399311	99
Es	2.097465	-0.657747	0.477576	99
Es	0.297928	2.211528	-0.030433	99
Es	0.263818	1.545807	0.312746	99
Es	1.748284	1.126680	0.352560	99
Es	-0.070480	-0.169122	-0.281636	99
Es	-1.965593	1.032400	-0.873460	99
Es	-0.120681	1.621396	0.955649	99
Es	0.248145	-0.757985	0.040380	99
Es	-0.050078	0.531458	-1.268808	99
Es	-1.160483	0.481630	-0.633063	99
Es	-0.343377	0.466725	-0.582959	99
Es	-0.178486	-1.333840	0.307903	99
Es	1.530658	0.542772	0.670204	99
Es	1.440201	-0.507542	1.491272	99
43
Properties=species:S:1:pos:R:3:Z:I:1 energy=-323.96276343169217 field_type=dipole dipole="0.000000 0.000000 0.000000" charge=0
N	-1.796681	0.489437	-0.636108	7
C	-0.343261	0.466747	-0.582998	6
C	0.263619	1.545897	0.312733	6
O	1.590179	1.084978	0.609513	8
C	1.492719	-0.341403	0.765752	6
C	0.248079	-0.758103	0.040383	6
C	-0.248241	-2.004703	0.043862	6
H	-2.111061	-0.207622	-1.308228	1
H	-2.107181	1.389167	-0.998028	1
H	0.068379	0.571217	-1.594827	1
H	-0.280691	1.667297	1.257822	1
H	0.317649	2.518988	-0.185618	1
H	2.392169	-0.795642	0.341112	1
H	1.429389	-0.565933	1.835472	1
H	-1.174311	-2.249292	-0.465218	1
H	0.259239	-2.811032	0.564372	1
Es	-0.178460	-1.333865	0.307854	99
Es	-1.936039	0.432878	-0.321220	99
Es	-0.343380	0.466724	-0.582960	99
Es	-0.120648	1.621412	0.955611	99
Es	-0.050099	0.531428	-1.268794	99
Es	1.675706	1.205447	0.874747	99
Es	0.094580	-2.552913	0.395775	99
Es	1.440211	-0.507561	1.491268	99
Es	0.163943	-1.469661	-0.237965	99
Es	-1.160400	0.481553	-0.632888	99
Es	-1.796420	0.489551	-0.636682	99
Es	-0.067586	1.017324	-0.141994	99
Es	1.492692	-0.341193	0.765700	99
Es	0.263816	1.545809	0.312746	99
Es	1.589865	1.084792	0.609551	99
Es	-0.874349	-2.174459	-0.303914	99
Es	-1.971853	0.075957	-1.055531	99
Es	0.872967	-0.568771	0.399340	99
Es	2.097422	-0.657758	0.477579	99
Es	-1.965672	1.032451	-0.873323	99
Es	-0.070488	-0.169084	-0.281708	99
Es	1.530820	0.542674	0.670231	99
Es	1.076213	1.243536	0.500919	99
Es	1.747236	1.126167	0.352570	99
Es	0.248136	-0.757980	0.040392	99
Es	0.297913	2.211530	-0.030425	99
Es	-0.248261	-2.004770	0.043852	99
43
Properties=species:S:1:pos:R:3:Z:I:1 energy=-323.96276343169217 field_type=dipole dipole="0.000000 0.000000 0.000000" charge=0
N	-1.796681	0.489437	-0.636108	7
C	-0.343261	0.466747	-0.582998	6
C	0.263619	1.545897	0.312733	6
O	1.590179	1.084978	0.609513	8
C	1.492719	-0.341403	0.765752	6
C	0.248079	-0.758103	0.040383	6
C	-0.248241	-2.004703	0.043862	6
H	-2.111061	-0.207622	-1.308228	1
H	-2.107181	1.389167	-0.998028	1
H	0.068379	0.571217	-1.594827	1
H	-0.280691	1.667297	1.257822	1
H	0.317649	2.518988	-0.185618	1
H	2.392169	-0.795642	0.341112	1
H	1.429389	-0.565933	1.835472	1
H	-1.174311	-2.249292	-0.465218	1
H	0.259239	-2.811032	0.564372	1
Es	0.263816	1.545809	0.312746	99
Es	1.589781	1.084767	0.609677	99
Es	1.746610	1.125696	0.353009	99
Es	1.676384	1.205833	0.874095	99
Es	-1.796441	0.489543	-0.636631	99
Es	-0.070574	-0.169075	-0.281779	99
Es	-1.971875	0.075925	-1.055491	99
Es	-1.965696	1.032414	-0.873352	99
Es	0.163930	-1.469656	-0.237944	99
Es	-0.067617	1.017319	-0.142078	99
Es	-0.343377	0.466725	-0.582960	99
Es	1.530892	0.542578	0.670507	99
Es	0.248145	-0.757985	0.040380	99
Es	0.297923	2.211412	-0.030322	99
Es	0.094556	-2.552883	0.395768	99
Es	-0.248262	-2.004771	0.043852	99
Es	-0.050071	0.531406	-1.268748	99
Es	2.097427	-0.657756	0.477611	99
Es	-0.120653	1.621495	0.955608	99
Es	1.076235	1.243807	0.500773	99
Es	0.872994	-0.568801	0.399383	99
Es	-1.160418	0.481601	-0.633032	99
Es	-1.935983	0.432908	-0.321181	99
Es	1.492692	-0.341194	0.765700	99
Es	-0.874331	-2.174493	-0.303879	99
Es	-0.178439	-1.333845	0.307811	99
Es	1.440217	-0.507558	1.491210	99
43
Properties=species:S:1:pos:R:3:Z:I:1 energy=-323.96276343169217 field_type=dipole dipole="0.000000 0.000000 0.000000" charge=0
N	-1.796681	0.489437	-0.636108	7
C	-0.343261	0.466747	-0.582998	6
C	0.263619	1.545897	0.312733	6
O	1.590179	1.084978	0.609513	8
C	1.492719	-0.341403	0.765752	6
C	0.248079	-0.758103	0.040383	6
C	-0.248241	-2.004703	0.043862	6
H	-2.111061	-0.207622	-1.308228	1
H	-2.107181	1.389167	-0.998028	1
H	0.068379	0.571217	-1.594827	1
H	-0.280691	1.667297	1.257822	1
H	0.317649	2.518988	-0.185618	1
H	2.392169	-0.795642	0.341112	1
H	1.429389	-0.565933	1.835472	1
H	-1.174311	-2.249292	-0.465218	1
H	0.259239	-2.811032	0.564372	1
Es	-1.971975	0.075899	-1.055444	99
Es	-0.874347	-2.174436	-0.303923	99
Es	1.589882	1.084703	0.609335	99
Es	-1.160434	0.481616	-0.633127	99
Es	-0.120620	1.621430	0.955532	99
Es	-0.067608	1.017291	-0.142062	99
Es	-0.178370	-1.333880	0.307672	99
Es	-0.050069	0.531410	-1.268712	99
Es	0.248145	-0.757985	0.040380	99
Es	0.297891	2.211508	-0.030323	99
Es	-1.796445	0.489553	-0.636636	99
Es	1.674564	1.205178	0.874380	99
Es	1.530520	0.542726	0.671086	99
Es	1.748519	1.126080	0.353561	99
Es	1.076422	1.244002	0.499738	99
Es	-1.935865	0.432914	-0.321197	99
Es	1.492687	-0.341197	0.765697	99
Es	-1.965749	1.032408	-0.873276	99
Es	2.097407	-0.657756	0.477627	99
Es	-0.343378	0.466725	-0.582959	99
Es	-0.248262	-2.004771	0.043853	99
Es	-0.070552	-0.169019	-0.281800	99
Es	0.163853	-1.469615	-0.237829	99
Es	0.094592	-2.552934	0.395808	99
Es	0.873026	-0.568864	0.399412	99
Es	1.440212	-0.507577	1.491192	99
Es	0.263820	1.545808	0.312747	99
43
Properties=species:S:1:pos:R:3:Z:I:1 energy=-323.96276343169217 field_type=dipole dipole="0.000000 0.000000 0.000000" charge=0
N	-1.796681	0.489437	-0.636108	7
C	-0.343261	0.466747	-0.582998	6
C	0.263619	1.545897	0.312733	6
O	1.590179	1.084978	0.609513	8
C	1.492719	-0.341403	0.765752	6
C	0.248079	-0.758103	0.040383	6
C	-0.248241	-2.004703	0.043862	6
H	-2.111061	-0.207622	-1.308228	1
H	-2.107181	1.389167	-0.998028	1
H	0.068379	0.571217	-1.594827	1
H	-0.280691	1.667297	1.257822	1
H	0.317649	2.518988	-0.185618	1
H	2.392169	-0.795642	0.341112	1
H	1.429389	-0.565933	1.835472	1
H	-1.174311	-2.249292	-0.465218	1
H	0.259239	-2.811032	0.564372	1
Es	1.589911	1.084750	0.609438	99
Es	-1.796447	0.489542	-0.636622	99
Es	0.263814	1.545808	0.312744	99
Es	1.747946	1.127058	0.353769	99
Es	-1.935960	0.432902	-0.321463	99
Es	-0.067573	1.017338	-0.142062	99
Es	-0.050063	0.531378	-1.268655	99
Es	-0.343375	0.466726	-0.582960	99
Es	0.163786	-1.469613	-0.237688	99
Es	-1.965832	1.032396	-0.873243	99
Es	1.076139	1.243899	0.500578	99
Es	0.873097	-0.568874	0.399366	99
Es	-0.178241	-1.333881	0.307700	99
Es	0.248146	-0.757986	0.040377	99
Es	2.097415	-0.657773	0.477726	99
Es	1.531269	0.542344	0.669727	99
Es	-0.120644	1.621430	0.955528	99
Es	-0.874389	-2.174411	-0.303894	99
Es	0.297908	2.211493	-0.030291	99
Es	1.492691	-0.341192	0.765700	99
Es	-1.971926	0.075943	-1.055437	99
Es	-1.160303	0.481648	-0.632974	99
Es	-0.248267	-2.004770	0.043858	99
Es	0.094630	-2.552957	0.395717	99
Es	1.440168	-0.507530	1.491177	99
Es	1.674661	1.204642	0.874528	99
Es	-0.070698	-0.169092	-0.281912	99
43
Properties=species:S:1:pos:R:3:Z:I:1 energy=-323.96276343169217 field_type=dipole dipole="0.000000 0.000000 0.000000" charge=0
N	-1.796681	0.489437	-0.636108	7
C	-0.343261	0.466747	-0.582998	6
C	0.263619	1.545897	0.312733	6
O	1.590179	1.084978	0.609513	8
C	1.492719	-0.341403	0.765752	6
C	0.248079	-0.758103	0.040383	6
C	-0.248241	-2.004703	0.043862	6
H	-2.111061	-0.207622	-1.308228	1
H	-2.107181	1.389167	-0.998028	1
H	0.068379	0.571217	-1.594827	1
H	-0.280691	1.667297	1.257822	1
H	0.317649	2.518988	-0.185618	1
H	2.392169	-0.795642	0.341112	1
H	1.429389	-0.565933	1.835472	1
H	-1.174311	-2.249292	-0.465218	1
H	0.259239	-2.811032	0.564372	1
Es	-1.160386	0.481671	-0.633325	99
Es	1.531238	0.542358	0.670747	99
Es	0.263809	1.545815	0.312742	99
Es	1.492692	-0.341194	0.765701	99
Es	-1.972003	0.075953	-1.055433	99
Es	0.163813	-1.469572	-0.237694	99
Es	-0.874354	-2.174437	-0.303904	99
Es	1.675962	1.205569	0.873727	99
Es	0.094563	-2.552918	0.395833	99
Es	1.076134	1.244163	0.500751	99
Es	0.248144	-0.757985	0.040382	99
Es	1.440205	-0.507584	1.491084	99
Es	1.746799	1.125945	0.353407	99
Es	-1.796453	0.489533	-0.636587	99
Es	0.297881	2.211375	-0.030301	99
Es	-1.965893	1.032419	-0.873130	99
Es	-0.178259	-1.333898	0.307523	99
Es	2.097415	-0.657771	0.477696	99
Es	0.873067	-0.568977	0.399461	99
Es	-0.067649	1.017298	-0.142067	99
Es	1.589852	1.084768	0.609509	99
Es	-0.050039	0.531267	-1.268633	99
Es	-0.070714	-0.168943	-0.281868	99
Es	-0.120562	1.621582	0.955512	99
Es	-0.343374	0.466725	-0.582961	99
Es	-0.248263	-2.004770	0.043855	99
Es	-1.935761	0.432826	-0.321292	99
43
Properties=species:S:1:pos:R:3:Z:I:1 energy=-323.96276343169217 field_type=dipole dipole="0.000000 0.000000 0.000000" charge=0
N	-1.796681	0.489437	-0.636108	7
C	-0.343261	0.466747	-0.582998	6
C	0.263619	1.545897	0.312733	6
O	1.590179	1.084978	0.609513	8
C	1.492719	-0.341403	0.765752	6
C	0.248079	-0.758103	0.040383	6
C	-0.248241	-2.004703	0.043862	6
H	-2.111061	-0.207622	-1.308228	1
H	-2.107181	1.389167	-0.998028	1
H	0.068379	0.571217	-1.594827	1
H	-0.280691	1.667297	1.257822	1
H	0.317649	2.518988	-0.185618	1
H	2.392169	-0.795642	0.341112	1
H	1.429389	-0.565933	1.835472	1
H	-1.174311	-2.249292	-0.465218	1
H	0.259239	-2.811032	0.564372	1
Es	0.163808	-1.469557	-0.237607	99
Es	1.492692	-0.341198	0.765700	99
Es	-1.971950	0.075950	-1.055526	99
Es	1.589940	1.084787	0.609486	99
Es	-0.050066	0.531346	-1.268620	99
Es	-0.343376	0.466725	-0.582960	99
Es	-0.248261	-2.004771	0.043853	99
Es	1.440287	-0.507572	1.491128	99
Es	0.873086	-0.568958	0.399597	99
Es	0.248142	-0.757984	0.040380	99
Es	-1.936002	0.432898	-0.321647	99
Es	-1.160292	0.481616	-0.632791	99
Es	1.674497	1.204473	0.874008	99
Es	1.531444	0.542191	0.669999	99
Es	1.076167	1.244242	0.500570	99
Es	-1.796442	0.489545	-0.636646	99
Es	1.747969	1.127061	0.354031	99
Es	0.297876	2.211453	-0.030261	99
Es	-1.965827	1.032399	-0.873134	99
Es	2.097317	-0.657787	0.477646	99
Es	-0.070741	-0.169018	-0.281998	99
Es	-0.120602	1.621481	0.955463	99
Es	-0.874381	-2.174433	-0.303898	99
Es	-0.067604	1.017342	-0.142054	99
Es	-0.178199	-1.333914	0.307433	99
Es	0.263814	1.545809	0.312745	99
Es	0.094566	-2.552908	0.395835	99
43
Properties=species:S:1:pos:R:3:Z:I:1 energy=-323.96276343169217 field_type=dipole dipole="0.000000 0.000000 0.000000" charge=0
N	-1.796681	0.489437	-0.636108	7
C	-0.343261	0.466747	-0.582998	6
C	0.263619	1.545897	0.312733	6
O	1.590179	1.084978	0.609513	8
C	1.492719	-0.341403	0.765752	6
C	0.248079	-0.758103	0.040383	6
C	-0.248241	-2.004703	0.043862	6
H	-2.111061	-0.207622	-1.308228	1
H	-2.107181	1.389167	-0.998028	1
H	0.068379	0.571217	-1.594827	1
H	-0.280691	1.667297	1.257822	1
H	0.317649	2.518988	-0.185618	1
H	2.392169	-0.795642	0.341112	1
H	1.429389	-0.565933	1.835472	1
H	-1.174311	-2.249292	-0.465218	1
H	0.259239	-2.811032	0.564372	1
Es	1.748297	1.127467	0.354785	99
Es	-0.874373	-2.174418	-0.303896	99
Es	2.097345	-0.657779	0.477708	99
Es	0.873148	-0.568992	0.399553	99
Es	-0.248260	-2.004766	0.043854	99
Es	0.094561	-2.552922	0.395859	99
Es	1.076065	1.244230	0.500115	99
Es	0.248142	-0.757984	0.040384	99
Es	-0.343376	0.466725	-0.582959	99
Es	-1.965891	1.032440	-0.873137	99
Es	1.673980	1.204310	0.873856	99
Es	-0.178144	-1.333920	0.307359	99
Es	-0.050061	0.531319	-1.268584	99
Es	0.297881	2.211435	-0.030240	99
Es	-1.935969	0.432824	-0.321663	99
Es	1.531810	0.542012	0.669910	99
Es	-0.120606	1.621497	0.955456	99
Es	-1.160287	0.481586	-0.632876	99
Es	0.163770	-1.469546	-0.237550	99
Es	-1.971937	0.075997	-1.055462	99
Es	1.492693	-0.341196	0.765701	99
Es	-1.796448	0.489552	-0.636630	99
Es	-0.067606	1.017364	-0.142090	99
Es	1.589876	1.084765	0.609479	99
Es	1.440232	-0.507587	1.491074	99
Es	-0.070790	-0.169003	-0.282018	99
Es	0.263814	1.545809	0.312745	99
43
Properties=species:S:1:pos:R:3:Z:I:1 energy=-323.96276343169217 field_type=dipole dipole="0.000000 0.000000 0.000000" charge=0
N	-1.796681	0.489437	-0.636108	7
C	-0.343261	0.466747	-0.582998	6
C	0.263619	1.545897	0.312733	6
O	1.590179	1.084978	0.609513	8
C	1.492719	-0.341403	0.765752	6
C	0.248079	-0.758103	0.040383	6
C	-0.248241	-2.004703	0.043862	6
H	-2.111061	-0.207622	-1.308228	1
H	-2.107181	1.389167	-0.998028	1
H	0.068379	0.571217	-1.594827	1
H	-0.280691	1.667297	1.257822	1
H	0.317649	2.518988	-0.185618	1
H	2.392169	-0.795642	0.341112	1
H	1.429389	-0.565933	1.835472	1
H	-1.174311	-2.249292	-0.465218	1
H	0.259239	-2.811032	0.564372	1
Es	1.075805	1.244322	0.501137	99
Es	0.163763	-1.469539	-0.237466	99
Es	-0.070840	-0.169030	-0.282125	99
Es	-1.796437	0.489529	-0.636603	99
Es	0.263816	1.545808	0.312746	99
Es	-0.120614	1.621540	0.955431	99
Es	-0.178093	-1.333924	0.307272	99
Es	-0.050085	0.531281	-1.268558	99
Es	1.440238	-0.507595	1.491040	99
Es	-1.972117	0.075812	-1.055239	99
Es	0.873173	-0.568971	0.399606	99
Es	0.297894	2.211398	-0.030229	99
Es	-0.067577	1.017377	-0.142104	99
Es	-0.874401	-2.174407	-0.303882	99
Es	-0.343372	0.466724	-0.582962	99
Es	1.532021	0.542114	0.672088	99
Es	-1.160233	0.481614	-0.632980	99
Es	0.248145	-0.757988	0.040384	99
Es	1.590012	1.084891	0.609495	99
Es	2.097340	-0.657790	0.477700	99
Es	-0.248254	-2.004764	0.043853	99
Es	1.492690	-0.341204	0.765698	99
Es	1.677473	1.206839	0.872098	99
Es	0.094540	-2.552908	0.395894	99
Es	1.744739	1.124642	0.353380	99
Es	-1.966022	1.032435	-0.873133	99
Es	-1.935741	0.433011	-0.321809	99
