42
Properties=species:S:1:pos:R:3:Z:I:1 energy=-339.97884156480205 field_type=dipole dipole="0.000000 0.000000 0.000000" charge=0
N	-2.321711	-0.121833	0.999704	7
C	-1.136261	-0.118173	0.489704	6
C	-0.333190	-1.417163	0.400524	6
O	0.669310	-1.413503	-0.619546	8
C	1.461589	-0.221893	-0.554156	6
C	0.597809	1.022267	-0.794076	6
N	-0.553530	1.065197	0.094934	7
H	-2.683400	0.830327	0.942014	1
H	-1.001301	-2.261793	0.226854	1
H	0.163159	-1.571843	1.371004	1
H	1.967609	-0.174883	0.416364	1
H	2.227609	-0.289763	-1.331086	1
H	1.195809	1.932737	-0.673306	1
H	0.218469	1.006057	-1.822616	1
H	-0.471971	1.734257	0.853684	1
Es	-2.507228	-0.407069	1.146073	99
Es	-0.743072	0.534787	0.289147	99
Es	0.669300	-1.413263	-0.619338	99
Es	1.461425	-0.222050	-0.554167	99
Es	-2.528686	0.460089	0.970759	99
Es	-0.491452	1.437077	0.559265	99
Es	0.855000	-1.645622	-0.551024	99
Es	-1.717760	-0.065515	1.042121	99
Es	0.346160	1.004642	-1.496657	99
Es	0.517506	-1.391888	-0.886101	99
Es	-0.553127	1.064896	0.095265	99
Es	-0.794447	1.133540	-0.057694	99
Es	-1.136114	-0.118100	0.489600	99
Es	-2.321406	-0.121459	0.999522	99
Es	-0.782189	-1.978080	0.280867	99
Es	0.951609	-0.948762	-0.566260	99
Es	1.028244	0.405830	-0.664863	99
Es	0.597700	1.022253	-0.793935	99
Es	-0.730266	-0.751051	0.416243	99
Es	1.982065	-0.263796	-1.084161	99
Es	-0.333038	-1.417050	0.400360	99
Es	-0.001132	-1.499848	1.065977	99
Es	1.801643	-0.180939	0.122381	99
Es	1.006411	1.640199	-0.702375	99
Es	0.294994	-1.376482	-0.221153	99
Es	-0.036151	1.025384	-0.254465	99
Es	-1.963481	-0.163282	0.536158	99
42
Properties=species:S:1:pos:R:3:Z:I:1 energy=-339.97884156480205 field_type=dipole dipole="0.000000 0.000000 0.000000" charge=0
N	-2.321711	-0.121833	0.999704	7
C	-1.136261	-0.118173	0.489704	6
C	-0.333190	-1.417163	0.400524	6
O	0.669310	-1.413503	-0.619546	8
C	1.461589	-0.221893	-0.554156	6
C	0.597809	1.022267	-0.794076	6
N	-0.553530	1.065197	0.094934	7
H	-2.683400	0.830327	0.942014	1
H	-1.001301	-2.261793	0.226854	1
H	0.163159	-1.571843	1.371004	1
H	1.967609	-0.174883	0.416364	1
H	2.227609	-0.289763	-1.331086	1
H	1.195809	1.932737	-0.673306	1
H	0.218469	1.006057	-1.822616	1
H	-0.471971	1.734257	0.853684	1
Es	-0.036002	1.025245	-0.254304	99
Es	-1.136110	-0.118099	0.489612	99
Es	-0.730296	-0.751158	0.416278	99
Es	-0.491266	1.436619	0.559512	99
Es	1.461426	-0.222048	-0.554165	99
Es	-1.963721	-0.163640	0.536241	99
Es	-1.717692	-0.065417	1.041749	99
Es	-0.001171	-1.499800	1.065906	99
Es	-2.529116	0.460211	0.970904	99
Es	1.006343	1.640160	-0.702437	99
Es	-0.553137	1.064896	0.095255	99
Es	0.853767	-1.643580	-0.550224	99
Es	0.952575	-0.949342	-0.565600	99
Es	1.801660	-0.180967	0.122308	99
Es	-0.743959	0.534773	0.288462	99
Es	1.028340	0.405848	-0.664804	99
Es	0.669262	-1.413307	-0.619375	99
Es	-0.782161	-1.978165	0.280899	99
Es	0.597700	1.022254	-0.793938	99
Es	-0.333041	-1.417052	0.400356	99
Es	1.982069	-0.263787	-1.084188	99
Es	-2.506561	-0.406833	1.146344	99
Es	0.518109	-1.392996	-0.887806	99
Es	-0.794000	1.134200	-0.057515	99
Es	-2.321396	-0.121463	0.999516	99
Es	0.294710	-1.376780	-0.220816	99
Es	0.346175	1.004669	-1.496624	99
42
Properties=species:S:1:pos:R:3:Z:I:1 energy=-339.97884156480205 field_type=dipole dipole="0.000000 0.000000 0.000000" charge=0
N	-2.321711	-0.121833	0.999704	7
C	-1.136261	-0.118173	0.489704	6
C	-0.333190	-1.417163	0.400524	6
O	0.669310	-1.413503	-0.619546	8
C	1.461589	-0.221893	-0.554156	6
C	0.597809	1.022267	-0.794076	6
N	-0.553530	1.065197	0.094934	7
H	-2.683400	0.830327	0.942014	1
H	-1.001301	-2.261793	0.226854	1
H	0.163159	-1.571843	1.371004	1
H	1.967609	-0.174883	0.416364	1
H	2.227609	-0.289763	-1.331086	1
H	1.195809	1.932737	-0.673306	1
H	0.218469	1.006057	-1.822616	1
H	-0.471971	1.734257	0.853684	1
Es	1.006322	1.640264	-0.702496	99
Es	0.346194	1.004578	-1.496550	99
Es	-0.553058	1.064799	0.095365	99
Es	-2.529029	0.460316	0.971183	99
Es	0.517173	-1.391214	-0.885700	99
Es	-1.964338	-0.163657	0.536196	99
Es	-1.136097	-0.118100	0.489609	99
Es	1.461422	-0.222053	-0.554165	99
Es	-0.794882	1.133548	-0.057936	99
Es	-1.717301	-0.065701	1.041387	99
Es	-0.742813	0.534974	0.289254	99
Es	-0.036054	1.025423	-0.254437	99
Es	1.801678	-0.180979	0.122267	99
Es	-0.333036	-1.417050	0.400359	99
Es	0.295358	-1.376566	-0.220646	99
Es	-0.782159	-1.978093	0.280899	99
Es	1.982060	-0.263740	-1.084190	99
Es	-0.001227	-1.499791	1.065978	99
Es	0.669264	-1.413216	-0.619295	99
Es	-2.321406	-0.121469	0.999520	99
Es	-0.491554	1.436951	0.559167	99
Es	1.028374	0.405875	-0.664729	99
Es	-0.730336	-0.751330	0.416269	99
Es	0.597705	1.022255	-0.793942	99
Es	0.952044	-0.949097	-0.566204	99
Es	0.854632	-1.645946	-0.552031	99
Es	-2.506428	-0.406540	1.146412	99
42
Properties=species:S:1:pos:R:3:Z:I:1 energy=-339.97884156480205 field_type=dipole dipole="0.000000 0.000000 0.000000" charge=0
N	-2.321711	-0.121833	0.999704	7
C	-1.136261	-0.118173	0.489704	6
C	-0.333190	-1.417163	0.400524	6
O	0.669310	-1.413503	-0.619546	8
C	1.461589	-0.221893	-0.554156	6
C	0.597809	1.022267	-0.794076	6
N	-0.553530	1.065197	0.094934	7
H	-2.683400	0.830327	0.942014	1
H	-1.001301	-2.261793	0.226854	1
H	0.163159	-1.571843	1.371004	1
H	1.967609	-0.174883	0.416364	1
H	2.227609	-0.289763	-1.331086	1
H	1.195809	1.932737	-0.673306	1
H	0.218469	1.006057	-1.822616	1
H	-0.471971	1.734257	0.853684	1
Es	0.952176	-0.948730	-0.566679	99
Es	-0.333040	-1.417051	0.400361	99
Es	-2.321407	-0.121462	0.999520	99
Es	-0.553131	1.064769	0.095342	99
Es	0.346213	1.004724	-1.496620	99
Es	0.854105	-1.643948	-0.549541	99
Es	0.518757	-1.393929	-0.886840	99
Es	-0.492278	1.438026	0.558667	99
Es	-2.506046	-0.406356	1.146586	99
Es	-2.529270	0.460310	0.971260	99
Es	1.028316	0.405856	-0.664775	99
Es	-1.136110	-0.118099	0.489614	99
Es	0.669239	-1.413279	-0.619369	99
Es	-0.036020	1.025485	-0.254433	99
Es	-0.782182	-1.978028	0.280870	99
Es	-0.795864	1.131938	-0.058555	99
Es	-0.741101	0.535586	0.290466	99
Es	-0.001228	-1.499814	1.066029	99
Es	-1.964692	-0.163850	0.536153	99
Es	1.006380	1.640139	-0.702398	99
Es	0.294190	-1.376186	-0.221484	99
Es	1.461425	-0.222049	-0.554166	99
Es	-0.730283	-0.751414	0.416270	99
Es	1.982044	-0.263729	-1.084149	99
Es	1.801692	-0.180989	0.122237	99
Es	-1.717078	-0.065731	1.041119	99
Es	0.597701	1.022253	-0.793938	99
42
Properties=species:S:1:pos:R:3:Z:I:1 energy=-339.97884156480205 field_type=dipole dipole="0.000000 0.000000 0.000000" charge=0
N	-2.321711	-0.121833	0.999704	7
C	-1.136261	-0.118173	0.489704	6
C	-0.333190	-1.417163	0.400524	6
O	0.669310	-1.413503	-0.619546	8
C	1.461589	-0.221893	-0.554156	6
C	0.597809	1.022267	-0.794076	6
N	-0.553530	1.065197	0.094934	7
H	-2.683400	0.830327	0.942014	1
H	-1.001301	-2.261793	0.226854	1
H	0.163159	-1.571843	1.371004	1
H	1.967609	-0.174883	0.416364	1
H	2.227609	-0.289763	-1.331086	1
H	1.195809	1.932737	-0.673306	1
H	0.218469	1.006057	-1.822616	1
H	-0.471971	1.734257	0.853684	1
Es	-0.730227	-0.751404	0.416237	99
Es	-2.506172	-0.406215	1.146045	99
Es	-0.553100	1.064868	0.095294	99
Es	-1.136110	-0.118100	0.489610	99
Es	0.346204	1.004792	-1.496602	99
Es	0.952274	-0.948761	-0.566618	99
Es	-0.333039	-1.417053	0.400362	99
Es	0.597702	1.022253	-0.793940	99
Es	-1.717301	-0.065642	1.042008	99
Es	-1.964024	-0.163926	0.536266	99
Es	1.982094	-0.263731	-1.084109	99
Es	1.006415	1.640067	-0.702412	99
Es	0.669291	-1.413249	-0.619243	99
Es	-0.742132	0.535428	0.289647	99
Es	-2.529544	0.460154	0.970923	99
Es	1.028293	0.405825	-0.664841	99
Es	-0.001233	-1.499766	1.065961	99
Es	-0.782265	-1.978059	0.280935	99
Es	-0.491607	1.436957	0.559178	99
Es	-0.795658	1.133242	-0.058414	99
Es	0.854233	-1.645143	-0.552007	99
Es	1.461425	-0.222049	-0.554166	99
Es	0.517872	-1.392035	-0.885374	99
Es	-0.035938	1.025390	-0.254213	99
Es	1.801642	-0.180963	0.122196	99
Es	0.294802	-1.376960	-0.220691	99
Es	-2.321389	-0.121475	0.999516	99
42
Properties=species:S:1:pos:R:3:Z:I:1 energy=-339.97884156480205 field_type=dipole dipole="0.000000 0.000000 0.000000" charge=0
N	-2.321711	-0.121833	0.999704	7
C	-1.136261	-0.118173	0.489704	6
C	-0.333190	-1.417163	0.400524	6
O	0.669310	-1.413503	-0.619546	8
C	1.461589	-0.221893	-0.554156	6
C	0.597809	1.022267	-0.794076	6
N	-0.553530	1.065197	0.094934	7
H	-2.683400	0.830327	0.942014	1
H	-1.001301	-2.261793	0.226854	1
H	0.163159	-1.571843	1.371004	1
H	1.967609	-0.174883	0.416364	1
H	2.227609	-0.289763	-1.331086	1
H	1.195809	1.932737	-0.673306	1
H	0.218469	1.006057	-1.822616	1
H	-0.471971	1.734257	0.853684	1
Es	0.597702	1.022254	-0.793940	99
Es	-1.717008	-0.065847	1.041175	99
Es	1.461426	-0.222048	-0.554166	99
Es	-2.321403	-0.121465	0.999519	99
Es	-2.505577	-0.405957	1.146457	99
Es	1.006377	1.640136	-0.702479	99
Es	-1.136110	-0.118099	0.489615	99
Es	-0.035943	1.025478	-0.254402	99
Es	0.854048	-1.645436	-0.552787	99
Es	0.346214	1.004724	-1.496543	99
Es	-0.333041	-1.417052	0.400363	99
Es	0.518005	-1.392013	-0.884027	99
Es	0.669218	-1.413205	-0.619309	99
Es	1.801641	-0.180999	0.122146	99
Es	1.028360	0.405916	-0.664827	99
Es	-0.730304	-0.751490	0.416343	99
Es	1.982103	-0.263755	-1.084048	99
Es	0.294730	-1.377252	-0.220577	99
Es	0.952490	-0.948234	-0.567251	99
Es	-0.491534	1.436744	0.559132	99
Es	-0.796095	1.133260	-0.058425	99
Es	-0.001276	-1.499816	1.065955	99
Es	-0.553092	1.064850	0.095314	99
Es	-2.529659	0.460344	0.971418	99
Es	-0.741773	0.535563	0.289883	99
Es	-0.782201	-1.978036	0.280936	99
Es	-1.964790	-0.164123	0.536071	99
42
Properties=species:S:1:pos:R:3:Z:I:1 energy=-339.97884156480205 field_type=dipole dipole="0.000000 0.000000 0.000000" charge=0
N	-2.321711	-0.121833	0.999704	7
C	-1.136261	-0.118173	0.489704	6
C	-0.333190	-1.417163	0.400524	6
O	0.669310	-1.413503	-0.619546	8
C	1.461589	-0.221893	-0.554156	6
C	0.597809	1.022267	-0.794076	6
N	-0.553530	1.065197	0.094934	7
H	-2.683400	0.830327	0.942014	1
H	-1.001301	-2.261793	0.226854	1
H	0.163159	-1.571843	1.371004	1
H	1.967609	-0.174883	0.416364	1
H	2.227609	-0.289763	-1.331086	1
H	1.195809	1.932737	-0.673306	1
H	0.218469	1.006057	-1.822616	1
H	-0.471971	1.734257	0.853684	1
Es	0.854404	-1.643006	-0.548774	99
Es	-0.491477	1.436688	0.559201	99
Es	-1.136111	-0.118100	0.489615	99
Es	0.597705	1.022253	-0.793942	99
Es	-0.333043	-1.417051	0.400365	99
Es	-0.741890	0.535519	0.289752	99
Es	-2.529832	0.460282	0.971264	99
Es	-1.717526	-0.065788	1.041939	99
Es	0.951572	-0.948116	-0.567576	99
Es	1.006337	1.640131	-0.702490	99
Es	0.519635	-1.395459	-0.886617	99
Es	-2.505674	-0.405883	1.145953	99
Es	1.801651	-0.180957	0.122137	99
Es	0.346261	1.004717	-1.496543	99
Es	1.461423	-0.222048	-0.554166	99
Es	-0.730334	-0.751565	0.416306	99
Es	-0.553149	1.064929	0.095233	99
Es	-2.321409	-0.121467	0.999526	99
Es	1.982090	-0.263753	-1.084013	99
Es	-1.963951	-0.164168	0.536032	99
Es	-0.782160	-1.977995	0.280957	99
Es	-0.036108	1.025613	-0.254761	99
Es	-0.795918	1.133146	-0.057973	99
Es	0.293599	-1.376318	-0.221705	99
Es	1.028425	0.405940	-0.664857	99
Es	0.669293	-1.413274	-0.619293	99
Es	-0.001304	-1.499826	1.065974	99
42
Properties=species:S:1:pos:R:3:Z:I:1 energy=-339.97884156480205 field_type=dipole dipole="0.000000 0.000000 0.000000" charge=0
N	-2.321711	-0.121833	0.999704	7
C	-1.136261	-0.118173	0.489704	6
C	-0.333190	-1.417163	0.400524	6
O	0.669310	-1.413503	-0.619546	8
C	1.461589	-0.221893	-0.554156	6
C	0.597809	1.022267	-0.794076	6
N	-0.553530	1.065197	0.094934	7
H	-2.683400	0.830327	0.942014	1
H	-1.001301	-2.261793	0.226854	1
H	0.163159	-1.571843	1.371004	1
H	1.967609	-0.174883	0.416364	1
H	2.227609	-0.289763	-1.331086	1
H	1.195809	1.932737	-0.673306	1
H	0.218469	1.006057	-1.822616	1
H	-0.471971	1.734257	0.853684	1
Es	-1.963641	-0.164076	0.536151	99
Es	-2.505846	-0.405681	1.145257	99
Es	0.346265	1.004772	-1.496532	99
Es	1.982093	-0.263724	-1.084045	99
Es	0.853353	-1.647130	-0.555502	99
Es	-2.321415	-0.121469	0.999524	99
Es	-0.782188	-1.978007	0.280967	99
Es	-0.553049	1.064792	0.095383	99
Es	1.801658	-0.180978	0.122090	99
Es	0.517689	-1.389100	-0.882920	99
Es	1.461427	-0.222048	-0.554166	99
Es	1.006348	1.640108	-0.702471	99
Es	-1.136112	-0.118099	0.489614	99
Es	0.669178	-1.413141	-0.619344	99
Es	0.597702	1.022253	-0.793940	99
Es	-0.730360	-0.751628	0.416262	99
Es	-1.717575	-0.066141	1.042497	99
Es	-0.490812	1.435663	0.559484	99
Es	1.028392	0.405910	-0.664815	99
Es	-0.036109	1.025572	-0.254809	99
Es	0.953507	-0.949238	-0.565978	99
Es	-0.741725	0.535737	0.289699	99
Es	-0.001325	-1.499795	1.065968	99
Es	0.294808	-1.377596	-0.220211	99
Es	-0.333044	-1.417052	0.400367	99
Es	-2.529875	0.460375	0.971322	99
Es	-0.796837	1.134163	-0.058305	99
42
Properties=species:S:1:pos:R:3:Z:I:1 energy=-339.97884156480205 field_type=dipole dipole="0.000000 0.000000 0.000000" charge=0
N	-2.321711	-0.121833	0.999704	7
C	-1.136261	-0.118173	0.489704	6
C	-0.333190	-1.417163	0.400524	6
O	0.669310	-1.413503	-0.619546	8
C	1.461589	-0.221893	-0.554156	6
C	0.597809	1.022267	-0.794076	6
N	-0.553530	1.065197	0.094934	7
H	-2.683400	0.830327	0.942014	1
H	-1.001301	-2.261793	0.226854	1
H	0.163159	-1.571843	1.371004	1
H	1.967609	-0.174883	0.416364	1
H	2.227609	-0.289763	-1.331086	1
H	1.195809	1.932737	-0.673306	1
H	0.218469	1.006057	-1.822616	1
H	-0.471971	1.734257	0.853684	1
Es	-2.321399	-0.121463	0.999518	99
Es	-0.553086	1.064809	0.095343	99
Es	0.519444	-1.394742	-0.886033	99
Es	1.801811	-0.180994	0.122094	99
Es	-0.491505	1.436381	0.559263	99
Es	-1.136113	-0.118100	0.489608	99
Es	-2.505390	-0.405599	1.145756	99
Es	1.461429	-0.222046	-0.554167	99
Es	-0.741691	0.535865	0.289845	99
Es	1.006389	1.640096	-0.702432	99
Es	1.028332	0.405842	-0.664818	99
Es	-0.333040	-1.417051	0.400360	99
Es	0.346301	1.004835	-1.496508	99
Es	-0.796464	1.133502	-0.058639	99
Es	1.981939	-0.263665	-1.084075	99
Es	0.669305	-1.413241	-0.619245	99
Es	-1.717215	-0.065968	1.041840	99
Es	-0.782202	-1.977982	0.281014	99
Es	0.597702	1.022253	-0.793939	99
Es	0.853588	-1.642911	-0.550320	99
Es	-0.035812	1.025419	-0.254346	99
Es	0.952441	-0.948255	-0.567290	99
Es	-0.730340	-0.751743	0.416368	99
Es	-1.964275	-0.164227	0.536077	99
Es	0.293771	-1.377082	-0.221141	99
Es	-0.001319	-1.499771	1.065972	99
Es	-2.530093	0.460280	0.971438	99
42
Properties=species:S:1:pos:R:3:Z:I:1 energy=-339.97884156480205 field_type=dipole dipole="0.000000 0.000000 0.000000" charge=0
N	-2.321711	-0.121833	0.999704	7
C	-1.136261	-0.118173	0.489704	6
C	-0.333190	-1.417163	0.400524	6
O	0.669310	-1.413503	-0.619546	8
C	1.461589	-0.221893	-0.554156	6
C	0.597809	1.022267	-0.794076	6
N	-0.553530	1.065197	0.094934	7
H	-2.683400	0.830327	0.942014	1
H	-1.001301	-2.261793	0.226854	1
H	0.163159	-1.571843	1.371004	1
H	1.967609	-0.174883	0.416364	1
H	2.227609	-0.289763	-1.331086	1
H	1.195809	1.932737	-0.673306	1
H	0.218469	1.006057	-1.822616	1
H	-0.471971	1.734257	0.853684	1
Es	-1.136111	-0.118099	0.489615	99
Es	0.952431	-0.948156	-0.567311	99
Es	-0.035804	1.025518	-0.254360	99
Es	0.853487	-1.642446	-0.549839	99
Es	0.669266	-1.413241	-0.619295	99
Es	-2.530146	0.460297	0.971610	99
Es	-2.321404	-0.121460	0.999518	99
Es	-1.716852	-0.065985	1.041210	99
Es	-0.001376	-1.499779	1.065988	99
Es	0.293111	-1.377095	-0.221448	99
Es	1.801704	-0.180989	0.121993	99
Es	-2.504997	-0.405391	1.146269	99
Es	-0.333042	-1.417054	0.400365	99
Es	1.028465	0.405982	-0.664722	99
Es	-0.730355	-0.751799	0.416372	99
Es	0.597707	1.022252	-0.793943	99
Es	-0.492246	1.437403	0.558713	99
Es	1.461430	-0.222043	-0.554166	99
Es	-0.796877	1.132148	-0.058977	99
Es	-0.740483	0.536221	0.290745	99
Es	1.006290	1.640118	-0.702523	99
Es	0.346309	1.004730	-1.496513	99
Es	-0.782221	-1.977963	0.280980	99
Es	1.982061	-0.263701	-1.084048	99
Es	-1.964963	-0.164424	0.535995	99
Es	0.520271	-1.395305	-0.886070	99
Es	-0.553145	1.064703	0.095388	99
42
Properties=species:S:1:pos:R:3:Z:I:1 energy=-339.97884156480205 field_type=dipole dipole="0.000000 0.000000 0.000000" charge=0
N	-2.321711	-0.121833	0.999704	7
C	-1.136261	-0.118173	0.489704	6
C	-0.333190	-1.417163	0.400524	6
O	0.669310	-1.413503	-0.619546	8
C	1.461589	-0.221893	-0.554156	6
C	0.597809	1.022267	-0.794076	6
N	-0.553530	1.065197	0.094934	7
H	-2.683400	0.830327	0.942014	1
H	-1.001301	-2.261793	0.226854	1
H	0.163159	-1.571843	1.371004	1
H	1.967609	-0.174883	0.416364	1
H	2.227609	-0.289763	-1.331086	1
H	1.195809	1.932737	-0.673306	1
H	0.218469	1.006057	-1.822616	1
H	-0.471971	1.734257	0.853684	1
Es	1.028465	0.405907	-0.664839	99
Es	-0.001391	-1.499766	1.065969	99
Es	0.953216	-0.948482	-0.567014	99
Es	-0.782187	-1.977970	0.281023	99
Es	-0.797625	1.132788	-0.059306	99
Es	1.982085	-0.263692	-1.083995	99
Es	-1.136111	-0.118099	0.489615	99
Es	0.294023	-1.377720	-0.220542	99
Es	0.597703	1.022253	-0.793941	99
Es	-0.740363	0.536355	0.290548	99
Es	-0.491759	1.436618	0.559083	99
Es	-2.321410	-0.121471	0.999527	99
Es	1.801665	-0.180960	0.122015	99
Es	-0.553096	1.064815	0.095325	99
Es	-0.333043	-1.417053	0.400365	99
Es	-1.717302	-0.066114	1.042042	99
Es	-1.964122	-0.164332	0.536063	99
Es	1.006334	1.640063	-0.702530	99
Es	0.518998	-1.392586	-0.884190	99
Es	-0.035746	1.025473	-0.254153	99
Es	1.461428	-0.222046	-0.554167	99
Es	0.346310	1.004814	-1.496472	99
Es	0.852979	-1.644212	-0.553092	99
Es	-2.530349	0.460327	0.971560	99
Es	-2.505123	-0.405361	1.145485	99
Es	0.669355	-1.413269	-0.619176	99
Es	-0.730429	-0.751838	0.416343	99
42
Properties=species:S:1:pos:R:3:Z:I:1 energy=-339.97884156480205 field_type=dipole dipole="0.000000 0.000000 0.000000" charge=0
N	-2.321711	-0.121833	0.999704	7
C	-1.136261	-0.118173	0.489704	6
C	-0.333190	-1.417163	0.400524	6
O	0.669310	-1.413503	-0.619546	8
C	1.461589	-0.221893	-0.554156	6
C	0.597809	1.022267	-0.794076	6
N	-0.553530	1.065197	0.094934	7
H	-2.683400	0.830327	0.942014	1
H	-1.001301	-2.261793	0.226854	1
H	0.163159	-1.571843	1.371004	1
H	1.967609	-0.174883	0.416364	1
H	2.227609	-0.289763	-1.331086	1
H	1.195809	1.932737	-0.673306	1
H	0.218469	1.006057	-1.822616	1
H	-0.471971	1.734257	0.853684	1
Es	-1.717277	-0.066143	1.042101	99
Es	1.801671	-0.180994	0.121959	99
Es	0.669292	-1.413254	-0.619272	99
Es	0.597704	1.022253	-0.793941	99
Es	-0.333043	-1.417053	0.400366	99
Es	-1.136111	-0.118099	0.489615	99
Es	1.982085	-0.263705	-1.083943	99
Es	0.293704	-1.377658	-0.220697	99
Es	-0.553093	1.064781	0.095356	99
Es	-0.001415	-1.499779	1.065974	99
Es	0.346311	1.004812	-1.496460	99
Es	-2.530498	0.460309	0.971570	99
Es	-0.797423	1.132679	-0.059005	99
Es	0.852990	-1.643467	-0.552153	99
Es	-0.782210	-1.977943	0.281021	99
Es	-2.505010	-0.405246	1.145383	99
Es	0.519466	-1.393567	-0.884616	99
Es	-0.491847	1.436709	0.558936	99
Es	1.461429	-0.222046	-0.554166	99
Es	-2.321404	-0.121465	0.999521	99
Es	0.953136	-0.948358	-0.567294	99
Es	-0.730402	-0.751895	0.416323	99
Es	1.006311	1.640075	-0.702537	99
Es	1.028490	0.405984	-0.664836	99
Es	-0.035756	1.025542	-0.254410	99
Es	-0.740499	0.536348	0.290630	99
Es	-1.964092	-0.164378	0.536122	99
42
Properties=species:S:1:pos:R:3:Z:I:1 energy=-339.97884156480205 field_type=dipole dipole="0.000000 0.000000 0.000000" charge=0
N	-2.321711	-0.121833	0.999704	7
C	-1.136261	-0.118173	0.489704	6
C	-0.333190	-1.417163	0.400524	6
O	0.669310	-1.413503	-0.619546	8
C	1.461589	-0.221893	-0.554156	6
C	0.597809	1.022267	-0.794076	6
N	-0.553530	1.065197	0.094934	7
H	-2.683400	0.830327	0.942014	1
H	-1.001301	-2.261793	0.226854	1
H	0.163159	-1.571843	1.371004	1
H	1.967609	-0.174883	0.416364	1
H	2.227609	-0.289763	-1.331086	1
H	1.195809	1.932737	-0.673306	1
H	0.218469	1.006057	-1.822616	1
H	-0.471971	1.734257	0.853684	1
Es	-0.035669	1.025531	-0.254174	99
Es	0.953295	-0.948696	-0.566799	99
Es	0.852714	-1.642889	-0.552141	99
Es	1.461429	-0.222045	-0.554166	99
Es	-1.964137	-0.164454	0.536124	99
Es	-2.321407	-0.121473	0.999521	99
Es	0.597704	1.022253	-0.793941	99
Es	-0.730429	-0.751950	0.416371	99
Es	-1.136111	-0.118099	0.489615	99
Es	0.293859	-1.377945	-0.220537	99
Es	-0.553120	1.064868	0.095281	99
Es	-0.492051	1.436879	0.558709	99
Es	0.669321	-1.413208	-0.619262	99
Es	-2.504841	-0.405098	1.145336	99
Es	0.519391	-1.393619	-0.885352	99
Es	1.801678	-0.180978	0.121924	99
Es	-1.717242	-0.066194	1.042094	99
Es	-0.333041	-1.417054	0.400363	99
Es	-2.530632	0.460329	0.971621	99
Es	-0.001433	-1.499729	1.065898	99
Es	1.006307	1.640108	-0.702561	99
Es	-0.782204	-1.977979	0.281114	99
Es	-0.798073	1.132218	-0.059481	99
Es	1.982074	-0.263680	-1.083895	99
Es	0.346326	1.004795	-1.496419	99
Es	-0.739738	0.536550	0.291166	99
Es	1.028537	0.405999	-0.664863	99
