44
Properties=species:S:1:pos:R:3:Z:I:1 energy=-360.9600017721314 field_type=dipole dipole="0.000000 0.000000 0.000000" charge=0
N	-1.509465	-0.114276	0.252417	7
C	-0.045815	-0.045526	-0.009873	6
C	0.291245	-0.015666	-1.483523	6
O	-0.480985	1.001014	-2.122113	8
C	0.581875	1.019404	0.913377	6
O	0.879125	-0.000136	1.914767	8
C	0.694445	-1.036536	0.909507	6
H	-1.732285	-0.009296	1.247307	1
H	-1.930225	-1.005566	-0.015843	1
H	0.049575	-0.970096	-1.963613	1
H	1.350845	0.193084	-1.659513	1
H	-1.351345	0.982394	-1.674163	1
H	-0.082205	1.796444	1.303977	1
H	1.505715	1.483144	0.551407	1
H	1.661655	-1.395336	0.542037	1
H	0.117845	-1.883056	1.293847	1
Es	0.879054	-0.000149	1.914424	99
Es	0.581915	1.019217	0.913514	99
Es	0.694481	-1.036366	0.909654	99
Es	1.174623	0.015192	2.009136	99
Es	-0.481058	1.000851	-2.121923	99
Es	-1.735020	-0.667061	0.097041	99
Es	0.294450	-1.618800	1.165918	99
Es	1.212985	1.329955	0.653781	99
Es	-0.934218	0.974557	-1.883068	99
Es	-0.200328	0.603994	-1.866844	99
Es	0.291107	-0.015512	-1.483575	99
Es	-0.045953	-0.045537	-0.009813	99
Es	-0.515730	0.919040	-2.416101	99
Es	0.824478	-0.415818	1.551137	99
Es	-0.877598	-0.114559	0.152831	99
Es	-0.350023	1.263301	-2.036318	99
Es	0.779678	0.407810	1.554220	99
Es	0.630352	-0.014919	2.096090	99
Es	1.016177	0.123626	-1.588761	99
Es	0.319090	-0.615745	0.383131	99
Es	0.124534	1.548281	1.177105	99
Es	-1.618234	-0.063563	0.850056	99
Es	0.240701	0.554097	0.385405	99
Es	1.358507	-1.280249	0.646331	99
Es	0.126034	-0.685338	-1.797747	99
Es	-1.670800	0.147196	0.061334	99
Es	0.118452	-0.038827	-0.740929	99
Es	-1.509193	-0.114697	0.252684	99
44
Properties=species:S:1:pos:R:3:Z:I:1 energy=-360.9600017721314 field_type=dipole dipole="0.000000 0.000000 0.000000" charge=0
N	-1.509465	-0.114276	0.252417	7
C	-0.045815	-0.045526	-0.009873	6
C	0.291245	-0.015666	-1.483523	6
O	-0.480985	1.001014	-2.122113	8
C	0.581875	1.019404	0.913377	6
O	0.879125	-0.000136	1.914767	8
C	0.694445	-1.036536	0.909507	6
H	-1.732285	-0.009296	1.247307	1
H	-1.930225	-1.005566	-0.015843	1
H	0.049575	-0.970096	-1.963613	1
H	1.350845	0.193084	-1.659513	1
H	-1.351345	0.982394	-1.674163	1
H	-0.082205	1.796444	1.303977	1
H	1.505715	1.483144	0.551407	1
H	1.661655	-1.395336	0.542037	1
H	0.117845	-1.883056	1.293847	1
Es	0.118437	-0.038796	-0.740972	99
Es	-0.934851	0.974583	-1.883576	99
Es	0.291109	-0.015514	-1.483573	99
Es	1.358459	-1.280236	0.646320	99
Es	0.124652	1.548325	1.177093	99
Es	1.212921	1.329904	0.653776	99
Es	-1.671403	0.147077	0.062020	99
Es	-0.515383	0.917900	-2.414869	99
Es	0.780845	0.407863	1.554369	99
Es	0.824547	-0.415360	1.550755	99
Es	-1.509226	-0.114646	0.252654	99
Es	-1.617997	-0.064324	0.850153	99
Es	0.581916	1.019217	0.913515	99
Es	-0.199885	0.604563	-1.866010	99
Es	0.694485	-1.036362	0.909659	99
Es	0.879058	-0.000135	1.914442	99
Es	1.174752	0.014609	2.012131	99
Es	-0.877418	-0.113917	0.152271	99
Es	0.629019	-0.014816	2.093385	99
Es	0.319083	-0.615822	0.383105	99
Es	0.240625	0.554094	0.385356	99
Es	-0.481091	1.000802	-2.121860	99
Es	0.294505	-1.618814	1.165928	99
Es	1.016212	0.123636	-1.588696	99
Es	-1.734820	-0.666858	0.096829	99
Es	-0.350155	1.263915	-2.037952	99
Es	0.126021	-0.685370	-1.797720	99
Es	-0.045953	-0.045538	-0.009815	99
44
Properties=species:S:1:pos:R:3:Z:I:1 energy=-360.9600017721314 field_type=dipole dipole="0.000000 0.000000 0.000000" charge=0
N	-1.509465	-0.114276	0.252417	7
C	-0.045815	-0.045526	-0.009873	6
C	0.291245	-0.015666	-1.483523	6
O	-0.480985	1.001014	-2.122113	8
C	0.581875	1.019404	0.913377	6
O	0.879125	-0.000136	1.914767	8
C	0.694445	-1.036536	0.909507	6
H	-1.732285	-0.009296	1.247307	1
H	-1.930225	-1.005566	-0.015843	1
H	0.049575	-0.970096	-1.963613	1
H	1.350845	0.193084	-1.659513	1
H	-1.351345	0.982394	-1.674163	1
H	-0.082205	1.796444	1.303977	1
H	1.505715	1.483144	0.551407	1
H	1.661655	-1.395336	0.542037	1
H	0.117845	-1.883056	1.293847	1
Es	-1.670853	0.147619	0.062115	99
Es	-0.045957	-0.045541	-0.009813	99
Es	0.630803	-0.014667	2.093940	99
Es	-1.617975	-0.064413	0.850076	99
Es	0.581915	1.019221	0.913512	99
Es	1.016142	0.123629	-1.588653	99
Es	0.779595	0.408030	1.553919	99
Es	0.291106	-0.015510	-1.483575	99
Es	-0.934368	0.975457	-1.882580	99
Es	-0.481144	1.000678	-2.121907	99
Es	-0.517418	0.914035	-2.412094	99
Es	-1.735307	-0.666801	0.096356	99
Es	1.358432	-1.280271	0.646348	99
Es	0.124688	1.548310	1.177063	99
Es	0.878971	-0.000144	1.914440	99
Es	1.212855	1.329915	0.653790	99
Es	0.319236	-0.615800	0.383048	99
Es	0.294510	-1.618775	1.165866	99
Es	-0.877569	-0.114497	0.152677	99
Es	0.240543	0.554158	0.385290	99
Es	-0.199200	0.605599	-1.864993	99
Es	1.173666	0.015851	2.011270	99
Es	-0.349261	1.266035	-2.042728	99
Es	-1.509189	-0.114695	0.252683	99
Es	0.694482	-1.036368	0.909654	99
Es	0.825225	-0.416929	1.551643	99
Es	0.126088	-0.685397	-1.797728	99
Es	0.118448	-0.038748	-0.740903	99
44
Properties=species:S:1:pos:R:3:Z:I:1 energy=-360.9600017721314 field_type=dipole dipole="0.000000 0.000000 0.000000" charge=0
N	-1.509465	-0.114276	0.252417	7
C	-0.045815	-0.045526	-0.009873	6
C	0.291245	-0.015666	-1.483523	6
O	-0.480985	1.001014	-2.122113	8
C	0.581875	1.019404	0.913377	6
O	0.879125	-0.000136	1.914767	8
C	0.694445	-1.036536	0.909507	6
H	-1.732285	-0.009296	1.247307	1
H	-1.930225	-1.005566	-0.015843	1
H	0.049575	-0.970096	-1.963613	1
H	1.350845	0.193084	-1.659513	1
H	-1.351345	0.982394	-1.674163	1
H	-0.082205	1.796444	1.303977	1
H	1.505715	1.483144	0.551407	1
H	1.661655	-1.395336	0.542037	1
H	0.117845	-1.883056	1.293847	1
Es	-1.617864	-0.064535	0.849953	99
Es	-0.515175	0.918322	-2.415023	99
Es	0.694482	-1.036368	0.909652	99
Es	1.212831	1.329820	0.653792	99
Es	0.118530	-0.038692	-0.740871	99
Es	-0.045954	-0.045538	-0.009813	99
Es	0.630482	-0.014761	2.094034	99
Es	-1.671200	0.147289	0.062565	99
Es	0.126055	-0.685377	-1.797664	99
Es	0.581915	1.019221	0.913512	99
Es	-0.350986	1.263800	-2.037725	99
Es	-0.934785	0.974230	-1.883966	99
Es	0.780537	0.408646	1.554322	99
Es	-0.877283	-0.114075	0.152220	99
Es	0.879049	-0.000130	1.914430	99
Es	1.358341	-1.280215	0.646343	99
Es	0.294668	-1.618814	1.165887	99
Es	0.291110	-0.015514	-1.483573	99
Es	0.124805	1.548388	1.177047	99
Es	0.240582	0.554123	0.385340	99
Es	1.016132	0.123574	-1.588722	99
Es	-1.735378	-0.666721	0.096481	99
Es	0.825080	-0.416597	1.551192	99
Es	-0.481106	1.000781	-2.121881	99
Es	0.319023	-0.615863	0.382905	99
Es	1.173133	0.014976	2.011329	99
Es	-0.199362	0.604684	-1.865727	99
Es	-1.509197	-0.114675	0.252679	99
44
Properties=species:S:1:pos:R:3:Z:I:1 energy=-360.9600017721314 field_type=dipole dipole="0.000000 0.000000 0.000000" charge=0
N	-1.509465	-0.114276	0.252417	7
C	-0.045815	-0.045526	-0.009873	6
C	0.291245	-0.015666	-1.483523	6
O	-0.480985	1.001014	-2.122113	8
C	0.581875	1.019404	0.913377	6
O	0.879125	-0.000136	1.914767	8
C	0.694445	-1.036536	0.909507	6
H	-1.732285	-0.009296	1.247307	1
H	-1.930225	-1.005566	-0.015843	1
H	0.049575	-0.970096	-1.963613	1
H	1.350845	0.193084	-1.659513	1
H	-1.351345	0.982394	-1.674163	1
H	-0.082205	1.796444	1.303977	1
H	1.505715	1.483144	0.551407	1
H	1.661655	-1.395336	0.542037	1
H	0.117845	-1.883056	1.293847	1
Es	1.212784	1.329950	0.653881	99
Es	0.118452	-0.038801	-0.740842	99
Es	1.016133	0.123564	-1.588673	99
Es	0.319086	-0.615886	0.382903	99
Es	-0.518633	0.915456	-2.412330	99
Es	0.694480	-1.036367	0.909652	99
Es	-1.735556	-0.666807	0.096400	99
Es	1.358348	-1.280391	0.646366	99
Es	-0.481093	1.000805	-2.121865	99
Es	0.294602	-1.618651	1.165869	99
Es	0.879071	-0.000147	1.914483	99
Es	-1.670595	0.146778	0.062475	99
Es	0.825549	-0.416804	1.551054	99
Es	0.581915	1.019223	0.913510	99
Es	0.240623	0.554194	0.385161	99
Es	0.124814	1.548273	1.177028	99
Es	-1.618339	-0.063863	0.849963	99
Es	0.631042	-0.015294	2.092942	99
Es	-0.349821	1.265419	-2.042262	99
Es	0.126112	-0.685355	-1.797654	99
Es	1.172889	0.015284	2.012182	99
Es	0.779792	0.409110	1.554684	99
Es	0.291106	-0.015513	-1.483575	99
Es	-0.045955	-0.045539	-0.009813	99
Es	-0.877235	-0.114138	0.152409	99
Es	-0.198335	0.604612	-1.866141	99
Es	-1.509210	-0.114687	0.252669	99
Es	-0.933561	0.975552	-1.881761	99
44
Properties=species:S:1:pos:R:3:Z:I:1 energy=-360.9600017721314 field_type=dipole dipole="0.000000 0.000000 0.000000" charge=0
N	-1.509465	-0.114276	0.252417	7
C	-0.045815	-0.045526	-0.009873	6
C	0.291245	-0.015666	-1.483523	6
O	-0.480985	1.001014	-2.122113	8
C	0.581875	1.019404	0.913377	6
O	0.879125	-0.000136	1.914767	8
C	0.694445	-1.036536	0.909507	6
H	-1.732285	-0.009296	1.247307	1
H	-1.930225	-1.005566	-0.015843	1
H	0.049575	-0.970096	-1.963613	1
H	1.350845	0.193084	-1.659513	1
H	-1.351345	0.982394	-1.674163	1
H	-0.082205	1.796444	1.303977	1
H	1.505715	1.483144	0.551407	1
H	1.661655	-1.395336	0.542037	1
H	0.117845	-1.883056	1.293847	1
Es	1.212781	1.329932	0.653861	99
Es	0.294731	-1.618743	1.165830	99
Es	0.694481	-1.036366	0.909653	99
Es	0.319088	-0.615904	0.382796	99
Es	0.126117	-0.685338	-1.797647	99
Es	-1.618089	-0.064165	0.849851	99
Es	-0.350947	1.262792	-2.037677	99
Es	0.124869	1.548280	1.176995	99
Es	-0.877250	-0.114217	0.152375	99
Es	-1.735469	-0.666783	0.096584	99
Es	-0.481084	1.000859	-2.121920	99
Es	-1.509228	-0.114651	0.252664	99
Es	1.172556	0.015835	2.010131	99
Es	1.358286	-1.280281	0.646422	99
Es	0.240608	0.554249	0.385148	99
Es	-1.670941	0.147077	0.062418	99
Es	-0.515241	0.919103	-2.414997	99
Es	-0.199369	0.603982	-1.865866	99
Es	-0.045954	-0.045538	-0.009812	99
Es	1.016116	0.123538	-1.588678	99
Es	0.879060	-0.000147	1.914494	99
Es	0.291108	-0.015514	-1.483574	99
Es	0.779088	0.408949	1.554507	99
Es	0.118481	-0.038830	-0.740778	99
Es	0.631895	-0.015234	2.094844	99
Es	0.825678	-0.417276	1.551481	99
Es	0.581915	1.019220	0.913512	99
Es	-0.934823	0.975152	-1.883903	99
44
Properties=species:S:1:pos:R:3:Z:I:1 energy=-360.9600017721314 field_type=dipole dipole="0.000000 0.000000 0.000000" charge=0
N	-1.509465	-0.114276	0.252417	7
C	-0.045815	-0.045526	-0.009873	6
C	0.291245	-0.015666	-1.483523	6
O	-0.480985	1.001014	-2.122113	8
C	0.581875	1.019404	0.913377	6
O	0.879125	-0.000136	1.914767	8
C	0.694445	-1.036536	0.909507	6
H	-1.732285	-0.009296	1.247307	1
H	-1.930225	-1.005566	-0.015843	1
H	0.049575	-0.970096	-1.963613	1
H	1.350845	0.193084	-1.659513	1
H	-1.351345	0.982394	-1.674163	1
H	-0.082205	1.796444	1.303977	1
H	1.505715	1.483144	0.551407	1
H	1.661655	-1.395336	0.542037	1
H	0.117845	-1.883056	1.293847	1
Es	0.294682	-1.618733	1.165786	99
Es	1.016048	0.123537	-1.588687	99
Es	-0.515572	0.918335	-2.414555	99
Es	0.631889	-0.014984	2.093900	99
Es	-1.509200	-0.114676	0.252674	99
Es	-1.617854	-0.064374	0.849788	99
Es	0.118495	-0.038829	-0.740675	99
Es	0.825443	-0.417440	1.551351	99
Es	-1.735214	-0.666893	0.096826	99
Es	-0.351161	1.263216	-2.038728	99
Es	-0.045952	-0.045538	-0.009812	99
Es	0.780015	0.409514	1.554629	99
Es	0.879028	-0.000141	1.914420	99
Es	0.240618	0.554244	0.385052	99
Es	-0.934761	0.975031	-1.883615	99
Es	-0.198918	0.604580	-1.865588	99
Es	0.126206	-0.685312	-1.797646	99
Es	1.358250	-1.280310	0.646483	99
Es	1.212794	1.330047	0.653925	99
Es	1.171872	0.015194	2.011207	99
Es	0.694481	-1.036369	0.909651	99
Es	0.581914	1.019220	0.913513	99
Es	-1.671450	0.147133	0.062442	99
Es	-0.877300	-0.113888	0.152155	99
Es	0.319214	-0.615970	0.382729	99
Es	0.291110	-0.015517	-1.483572	99
Es	0.124901	1.548161	1.176971	99
Es	-0.481114	1.000743	-2.121911	99
44
Properties=species:S:1:pos:R:3:Z:I:1 energy=-360.9600017721314 field_type=dipole dipole="0.000000 0.000000 0.000000" charge=0
N	-1.509465	-0.114276	0.252417	7
C	-0.045815	-0.045526	-0.009873	6
C	0.291245	-0.015666	-1.483523	6
O	-0.480985	1.001014	-2.122113	8
C	0.581875	1.019404	0.913377	6
O	0.879125	-0.000136	1.914767	8
C	0.694445	-1.036536	0.909507	6
H	-1.732285	-0.009296	1.247307	1
H	-1.930225	-1.005566	-0.015843	1
H	0.049575	-0.970096	-1.963613	1
H	1.350845	0.193084	-1.659513	1
H	-1.351345	0.982394	-1.674163	1
H	-0.082205	1.796444	1.303977	1
H	1.505715	1.483144	0.551407	1
H	1.661655	-1.395336	0.542037	1
H	0.117845	-1.883056	1.293847	1
Es	0.878935	-0.000145	1.914402	99
Es	0.118414	-0.038969	-0.740686	99
Es	-1.671125	0.146870	0.062253	99
Es	0.124934	1.548270	1.176943	99
Es	-0.481099	1.000802	-2.121827	99
Es	1.171153	0.015665	2.011185	99
Es	1.016068	0.123562	-1.588630	99
Es	0.319258	-0.615934	0.382698	99
Es	-0.935149	0.974372	-1.884347	99
Es	0.694481	-1.036369	0.909652	99
Es	1.212653	1.329945	0.653907	99
Es	-1.618169	-0.063961	0.849782	99
Es	0.632035	-0.015540	2.094004	99
Es	0.581915	1.019219	0.913511	99
Es	0.779672	0.409765	1.554715	99
Es	0.126237	-0.685272	-1.797707	99
Es	-0.877214	-0.114162	0.152316	99
Es	0.240667	0.554281	0.385015	99
Es	-0.351528	1.262497	-2.036486	99
Es	-0.199108	0.603600	-1.866550	99
Es	1.358182	-1.280351	0.646444	99
Es	-1.735328	-0.666826	0.096885	99
Es	-1.509201	-0.114683	0.252676	99
Es	0.291116	-0.015520	-1.483573	99
Es	0.294658	-1.618705	1.165770	99
Es	0.826615	-0.417566	1.551317	99
Es	-0.514653	0.920673	-2.415139	99
Es	-0.045953	-0.045539	-0.009813	99
44
Properties=species:S:1:pos:R:3:Z:I:1 energy=-360.9600017721314 field_type=dipole dipole="0.000000 0.000000 0.000000" charge=0
N	-1.509465	-0.114276	0.252417	7
C	-0.045815	-0.045526	-0.009873	6
C	0.291245	-0.015666	-1.483523	6
O	-0.480985	1.001014	-2.122113	8
C	0.581875	1.019404	0.913377	6
O	0.879125	-0.000136	1.914767	8
C	0.694445	-1.036536	0.909507	6
H	-1.732285	-0.009296	1.247307	1
H	-1.930225	-1.005566	-0.015843	1
H	0.049575	-0.970096	-1.963613	1
H	1.350845	0.193084	-1.659513	1
H	-1.351345	0.982394	-1.674163	1
H	-0.082205	1.796444	1.303977	1
H	1.505715	1.483144	0.551407	1
H	1.661655	-1.395336	0.542037	1
H	0.117845	-1.883056	1.293847	1
Es	1.212623	1.330018	0.653980	99
Es	-1.671508	0.146866	0.062445	99
Es	0.291110	-0.015516	-1.483573	99
Es	-0.877127	-0.114017	0.151954	99
Es	-0.198374	0.604754	-1.865145	99
Es	-0.934972	0.975484	-1.883641	99
Es	1.016035	0.123503	-1.588618	99
Es	0.780064	0.410079	1.554946	99
Es	0.319201	-0.616009	0.382650	99
Es	-0.481007	1.000790	-2.121886	99
Es	-0.045950	-0.045541	-0.009809	99
Es	-1.509197	-0.114679	0.252673	99
Es	0.240628	0.554298	0.384915	99
Es	0.694481	-1.036366	0.909654	99
Es	0.118465	-0.038843	-0.740616	99
Es	0.632737	-0.014962	2.094355	99
Es	0.124986	1.548200	1.176927	99
Es	-0.516028	0.917257	-2.413214	99
Es	0.825532	-0.417964	1.551379	99
Es	-0.351125	1.263679	-2.040535	99
Es	0.879056	-0.000164	1.914425	99
Es	0.294781	-1.618667	1.165764	99
Es	-1.617919	-0.064135	0.849684	99
Es	1.358207	-1.280352	0.646470	99
Es	1.170961	0.015173	2.010571	99
Es	0.581915	1.019220	0.913511	99
Es	0.126213	-0.685319	-1.797650	99
Es	-1.735321	-0.666803	0.097099	99
44
Properties=species:S:1:pos:R:3:Z:I:1 energy=-360.9600017721314 field_type=dipole dipole="0.000000 0.000000 0.000000" charge=0
N	-1.509465	-0.114276	0.252417	7
C	-0.045815	-0.045526	-0.009873	6
C	0.291245	-0.015666	-1.483523	6
O	-0.480985	1.001014	-2.122113	8
C	0.581875	1.019404	0.913377	6
O	0.879125	-0.000136	1.914767	8
C	0.694445	-1.036536	0.909507	6
H	-1.732285	-0.009296	1.247307	1
H	-1.930225	-1.005566	-0.015843	1
H	0.049575	-0.970096	-1.963613	1
H	1.350845	0.193084	-1.659513	1
H	-1.351345	0.982394	-1.674163	1
H	-0.082205	1.796444	1.303977	1
H	1.505715	1.483144	0.551407	1
H	1.661655	-1.395336	0.542037	1
H	0.117845	-1.883056	1.293847	1
Es	0.240655	0.554340	0.384943	99
Es	-1.670701	0.146801	0.062726	99
Es	1.358118	-1.280382	0.646516	99
Es	1.169481	0.014952	2.016293	99
Es	0.827449	-0.418013	1.551072	99
Es	-0.349349	1.263366	-2.041882	99
Es	-1.735961	-0.666638	0.096627	99
Es	1.016033	0.123464	-1.588601	99
Es	0.879010	-0.000146	1.914439	99
Es	-0.481082	1.000821	-2.121825	99
Es	0.126254	-0.685280	-1.797604	99
Es	0.118436	-0.038895	-0.740615	99
Es	-0.934647	0.977214	-1.882243	99
Es	-0.877079	-0.114404	0.152150	99
Es	-1.618157	-0.063830	0.849692	99
Es	0.294826	-1.618647	1.165763	99
Es	0.781804	0.410668	1.554761	99
Es	-0.517351	0.916679	-2.412482	99
Es	-0.199128	0.603920	-1.866031	99
Es	0.581915	1.019221	0.913511	99
Es	0.291107	-0.015512	-1.483575	99
Es	1.212563	1.329981	0.653944	99
Es	0.630704	-0.015284	2.089191	99
Es	-1.509180	-0.114713	0.252686	99
Es	0.319173	-0.616021	0.382501	99
Es	0.125040	1.548226	1.176918	99
Es	-0.045950	-0.045539	-0.009810	99
Es	0.694481	-1.036369	0.909650	99
44
Properties=species:S:1:pos:R:3:Z:I:1 energy=-360.9600017721314 field_type=dipole dipole="0.000000 0.000000 0.000000" charge=0
N	-1.509465	-0.114276	0.252417	7
C	-0.045815	-0.045526	-0.009873	6
C	0.291245	-0.015666	-1.483523	6
O	-0.480985	1.001014	-2.122113	8
C	0.581875	1.019404	0.913377	6
O	0.879125	-0.000136	1.914767	8
C	0.694445	-1.036536	0.909507	6
H	-1.732285	-0.009296	1.247307	1
H	-1.930225	-1.005566	-0.015843	1
H	0.049575	-0.970096	-1.963613	1
H	1.350845	0.193084	-1.659513	1
H	-1.351345	0.982394	-1.674163	1
H	-0.082205	1.796444	1.303977	1
H	1.505715	1.483144	0.551407	1
H	1.661655	-1.395336	0.542037	1
H	0.117845	-1.883056	1.293847	1
Es	0.126263	-0.685338	-1.797637	99
Es	0.633003	-0.014996	2.093644	99
Es	0.125087	1.548218	1.176901	99
Es	0.319232	-0.616044	0.382489	99
Es	1.358082	-1.280382	0.646541	99
Es	-1.671126	0.146855	0.062660	99
Es	0.694481	-1.036369	0.909650	99
Es	-1.735531	-0.666661	0.096692	99
Es	0.294862	-1.618640	1.165721	99
Es	0.879036	-0.000143	1.914441	99
Es	-0.877126	-0.114113	0.152113	99
Es	1.212532	1.329986	0.653964	99
Es	1.170186	0.015165	2.011232	99
Es	-0.481093	1.000771	-2.121893	99
Es	0.581915	1.019220	0.913510	99
Es	0.780276	0.410508	1.554927	99
Es	-0.934677	0.975417	-1.883803	99
Es	1.015957	0.123475	-1.588595	99
Es	-0.516169	0.917686	-2.413323	99
Es	0.825948	-0.418362	1.551595	99
Es	-1.618125	-0.064194	0.849718	99
Es	0.118492	-0.038846	-0.740533	99
Es	-0.351510	1.263610	-2.040320	99
Es	0.291110	-0.015517	-1.483573	99
Es	-0.198093	0.604536	-1.865120	99
Es	-1.509209	-0.114679	0.252667	99
Es	-0.045950	-0.045539	-0.009811	99
Es	0.240612	0.554356	0.384854	99
44
Properties=species:S:1:pos:R:3:Z:I:1 energy=-360.9600017721314 field_type=dipole dipole="0.000000 0.000000 0.000000" charge=0
N	-1.509465	-0.114276	0.252417	7
C	-0.045815	-0.045526	-0.009873	6
C	0.291245	-0.015666	-1.483523	6
O	-0.480985	1.001014	-2.122113	8
C	0.581875	1.019404	0.913377	6
O	0.879125	-0.000136	1.914767	8
C	0.694445	-1.036536	0.909507	6
H	-1.732285	-0.009296	1.247307	1
H	-1.930225	-1.005566	-0.015843	1
H	0.049575	-0.970096	-1.963613	1
H	1.350845	0.193084	-1.659513	1
H	-1.351345	0.982394	-1.674163	1
H	-0.082205	1.796444	1.303977	1
H	1.505715	1.483144	0.551407	1
H	1.661655	-1.395336	0.542037	1
H	0.117845	-1.883056	1.293847	1
Es	1.169847	0.015002	2.010288	99
Es	0.780228	0.410844	1.555111	99
Es	0.125105	1.548140	1.176848	99
Es	-1.617912	-0.064414	0.849664	99
Es	0.633758	-0.014980	2.094443	99
Es	1.212488	1.330051	0.654001	99
Es	-0.517592	0.915901	-2.411428	99
Es	-1.671413	0.146779	0.062987	99
Es	0.240657	0.554343	0.384787	99
Es	-0.197919	0.604483	-1.865302	99
Es	-0.877156	-0.113691	0.151896	99
Es	-0.934648	0.976659	-1.882709	99
Es	0.694481	-1.036370	0.909650	99
Es	0.581916	1.019228	0.913506	99
Es	1.358057	-1.280408	0.646589	99
Es	-1.509220	-0.114634	0.252649	99
Es	0.291109	-0.015515	-1.483574	99
Es	-0.481067	1.000840	-2.121894	99
Es	0.825691	-0.418528	1.551656	99
Es	-1.735458	-0.666806	0.096669	99
Es	0.878939	-0.000149	1.914436	99
Es	0.319227	-0.616094	0.382391	99
Es	0.126275	-0.685267	-1.797592	99
Es	-0.045944	-0.045538	-0.009811	99
Es	1.016001	0.123440	-1.588608	99
Es	0.118446	-0.038884	-0.740494	99
Es	0.294924	-1.618602	1.165702	99
Es	-0.350358	1.264148	-2.043149	99
44
Properties=species:S:1:pos:R:3:Z:I:1 energy=-360.9600017721314 field_type=dipole dipole="0.000000 0.000000 0.000000" charge=0
N	-1.509465	-0.114276	0.252417	7
C	-0.045815	-0.045526	-0.009873	6
C	0.291245	-0.015666	-1.483523	6
O	-0.480985	1.001014	-2.122113	8
C	0.581875	1.019404	0.913377	6
O	0.879125	-0.000136	1.914767	8
C	0.694445	-1.036536	0.909507	6
H	-1.732285	-0.009296	1.247307	1
H	-1.930225	-1.005566	-0.015843	1
H	0.049575	-0.970096	-1.963613	1
H	1.350845	0.193084	-1.659513	1
H	-1.351345	0.982394	-1.674163	1
H	-0.082205	1.796444	1.303977	1
H	1.505715	1.483144	0.551407	1
H	1.661655	-1.395336	0.542037	1
H	0.117845	-1.883056	1.293847	1
Es	-0.514779	0.919646	-2.413330	99
Es	0.780173	0.410960	1.555073	99
Es	0.633835	-0.014940	2.094072	99
Es	0.240620	0.554384	0.384762	99
Es	-1.617878	-0.064564	0.849575	99
Es	-0.481065	1.000846	-2.121857	99
Es	1.212447	1.330020	0.654020	99
Es	0.125153	1.548178	1.176866	99
Es	-0.198142	0.603918	-1.865857	99
Es	-0.935640	0.974675	-1.884829	99
Es	0.581915	1.019220	0.913509	99
Es	0.319212	-0.616048	0.382398	99
Es	0.126349	-0.685298	-1.797631	99
Es	0.291110	-0.015517	-1.483572	99
Es	-0.877128	-0.114074	0.151990	99
Es	0.826092	-0.418958	1.551809	99
Es	1.358056	-1.280442	0.646544	99
Es	-1.735573	-0.666659	0.096666	99
Es	-1.671420	0.147123	0.062914	99
Es	-0.351978	1.262944	-2.038614	99
Es	0.879064	-0.000144	1.914503	99
Es	0.694480	-1.036369	0.909649	99
Es	-1.509201	-0.114687	0.252673	99
Es	0.118490	-0.038919	-0.740452	99
Es	1.015956	0.123494	-1.588558	99
Es	0.294952	-1.618547	1.165668	99
Es	-0.045951	-0.045539	-0.009811	99
Es	1.169314	0.015276	2.010534	99
44
Properties=species:S:1:pos:R:3:Z:I:1 energy=-360.9600017721314 field_type=dipole dipole="0.000000 0.000000 0.000000" charge=0
N	-1.509465	-0.114276	0.252417	7
C	-0.045815	-0.045526	-0.009873	6
C	0.291245	-0.015666	-1.483523	6
O	-0.480985	1.001014	-2.122113	8
C	0.581875	1.019404	0.913377	6
O	0.879125	-0.000136	1.914767	8
C	0.694445	-1.036536	0.909507	6
H	-1.732285	-0.009296	1.247307	1
H	-1.930225	-1.005566	-0.015843	1
H	0.049575	-0.970096	-1.963613	1
H	1.350845	0.193084	-1.659513	1
H	-1.351345	0.982394	-1.674163	1
H	-0.082205	1.796444	1.303977	1
H	1.505715	1.483144	0.551407	1
H	1.661655	-1.395336	0.542037	1
H	0.117845	-1.883056	1.293847	1
Es	1.169441	0.015705	2.011117	99
Es	0.240703	0.554457	0.384689	99
Es	-1.671106	0.146600	0.062639	99
Es	0.125114	1.548079	1.176840	99
Es	0.694481	-1.036369	0.909649	99
Es	-0.935146	0.976694	-1.883380	99
Es	0.879045	-0.000125	1.914415	99
Es	1.212438	1.330120	0.654063	99
Es	0.581914	1.019230	0.913508	99
Es	-0.516526	0.917113	-2.412085	99
Es	-1.735547	-0.666602	0.096827	99
Es	1.015988	0.123408	-1.588581	99
Es	0.118448	-0.038928	-0.740398	99
Es	-0.350845	1.263120	-2.041918	99
Es	-0.198040	0.604283	-1.865205	99
Es	0.634048	-0.015914	2.093490	99
Es	-1.618284	-0.064008	0.849662	99
Es	0.126311	-0.685244	-1.797569	99
Es	1.357963	-1.280411	0.646575	99
Es	-0.045949	-0.045539	-0.009809	99
Es	0.295006	-1.618588	1.165676	99
Es	-0.481054	1.000860	-2.121929	99
Es	0.319237	-0.616115	0.382308	99
Es	-0.877043	-0.114155	0.152036	99
Es	-1.509225	-0.114671	0.252652	99
Es	0.779052	0.411158	1.555533	99
Es	0.291110	-0.015518	-1.483571	99
Es	0.826931	-0.418663	1.551479	99
44
Properties=species:S:1:pos:R:3:Z:I:1 energy=-360.9600017721314 field_type=dipole dipole="0.000000 0.000000 0.000000" charge=0
N	-1.509465	-0.114276	0.252417	7
C	-0.045815	-0.045526	-0.009873	6
C	0.291245	-0.015666	-1.483523	6
O	-0.480985	1.001014	-2.122113	8
C	0.581875	1.019404	0.913377	6
O	0.879125	-0.000136	1.914767	8
C	0.694445	-1.036536	0.909507	6
H	-1.732285	-0.009296	1.247307	1
H	-1.930225	-1.005566	-0.015843	1
H	0.049575	-0.970096	-1.963613	1
H	1.350845	0.193084	-1.659513	1
H	-1.351345	0.982394	-1.674163	1
H	-0.082205	1.796444	1.303977	1
H	1.505715	1.483144	0.551407	1
H	1.661655	-1.395336	0.542037	1
H	0.117845	-1.883056	1.293847	1
Es	0.637141	-0.015749	2.097024	99
Es	0.777486	0.411683	1.556262	99
Es	0.291112	-0.015519	-1.483572	99
Es	-0.045947	-0.045538	-0.009809	99
Es	0.581914	1.019224	0.913507	99
Es	-0.481065	1.000891	-2.121946	99
Es	-1.671100	0.146743	0.062850	99
Es	1.015945	0.123394	-1.588557	99
Es	-0.936011	0.974403	-1.885494	99
Es	0.319264	-0.616125	0.382272	99
Es	0.295024	-1.618574	1.165637	99
Es	-0.513958	0.921330	-2.413665	99
Es	0.126335	-0.685252	-1.797570	99
Es	-0.198150	0.603340	-1.866339	99
Es	1.212413	1.330012	0.654056	99
Es	0.824978	-0.419116	1.551712	99
Es	1.169739	0.015488	2.006700	99
Es	0.125286	1.548159	1.176815	99
Es	0.240605	0.554446	0.384641	99
Es	-1.618211	-0.064214	0.849610	99
Es	1.357957	-1.280414	0.646625	99
Es	-0.876973	-0.114203	0.152027	99
Es	0.118461	-0.038931	-0.740394	99
Es	-1.509208	-0.114676	0.252671	99
Es	-1.735741	-0.666464	0.096677	99
Es	0.694481	-1.036371	0.909649	99
Es	0.879118	-0.000126	1.914422	99
Es	-0.352431	1.262139	-2.037096	99
