39
Properties=species:S:1:pos:R:3:Z:I:1 energy=-338.82068942921364 field_type=dipole dipole="0.000000 0.000000 0.000000" charge=0
N	-2.591467	-0.037895	0.015948	7
C	-1.306227	-0.050945	0.008168	6
N	-0.557157	-1.179625	0.020098	7
C	0.799423	-1.220125	0.014868	6
C	1.499963	-0.086775	-0.006142	6
C	0.781183	1.225295	-0.024592	6
O	-0.666937	1.141755	-0.013112	8
H	-2.857937	0.953215	0.003388	1
H	-1.073827	-2.049155	0.036618	1
H	1.252303	-2.205675	0.028698	1
H	2.583753	-0.094165	-0.010612	1
H	1.074473	1.817705	0.847888	1
H	1.062453	1.786395	-0.921222	1
Es	0.982384	1.620597	0.568767	99
Es	0.974267	1.599237	-0.634234	99
Es	1.180930	-0.630825	-0.325693	99
Es	-2.813012	-0.327113	0.021666	99
Es	-0.556834	-1.178388	0.022671	99
Es	1.090841	-1.888939	0.024361	99
Es	-0.850733	0.653895	-0.003898	99
Es	-0.666762	1.141476	-0.013134	99
Es	-0.129446	1.112954	-0.016374	99
Es	2.227879	-0.077194	-0.009445	99
Es	-2.742809	0.555655	0.008557	99
Es	0.799182	-1.220231	0.014870	99
Es	-0.857685	-1.693384	0.039167	99
Es	-2.591063	-0.037555	0.015938	99
Es	1.499970	-0.086662	-0.006129	99
Es	0.030953	-1.187593	0.040105	99
Es	-0.767348	1.234972	-0.264229	99
Es	1.129396	0.562689	-0.015150	99
Es	-1.305863	-0.050870	0.008162	99
Es	-0.766323	1.248305	0.235488	99
Es	1.184054	-0.620422	0.333252	99
Es	-2.093212	-0.036517	0.296793	99
Es	-2.096608	-0.044899	-0.271451	99
Es	-0.540046	-1.110560	-0.043826	99
Es	-0.864416	-0.674100	0.042665	99
Es	0.780924	1.225196	-0.024588	99
39
Properties=species:S:1:pos:R:3:Z:I:1 energy=-338.82068942921364 field_type=dipole dipole="0.000000 0.000000 0.000000" charge=0
N	-2.591467	-0.037895	0.015948	7
C	-1.306227	-0.050945	0.008168	6
N	-0.557157	-1.179625	0.020098	7
C	0.799423	-1.220125	0.014868	6
C	1.499963	-0.086775	-0.006142	6
C	0.781183	1.225295	-0.024592	6
O	-0.666937	1.141755	-0.013112	8
H	-2.857937	0.953215	0.003388	1
H	-1.073827	-2.049155	0.036618	1
H	1.252303	-2.205675	0.028698	1
H	2.583753	-0.094165	-0.010612	1
H	1.074473	1.817705	0.847888	1
H	1.062453	1.786395	-0.921222	1
Es	-2.743091	0.555612	0.008103	99
Es	-0.850513	0.654068	-0.000830	99
Es	-0.766960	1.231893	-0.266042	99
Es	-0.865093	-0.673363	0.033191	99
Es	-0.541663	-1.117603	-0.027041	99
Es	0.780932	1.225199	-0.024589	99
Es	-0.857892	-1.693759	0.036079	99
Es	1.499966	-0.086670	-0.006146	99
Es	-0.129463	1.113070	-0.015852	99
Es	-2.097010	-0.045462	-0.271921	99
Es	-0.766978	1.251224	0.233676	99
Es	0.974244	1.599228	-0.634212	99
Es	-2.812709	-0.327112	0.023079	99
Es	0.799181	-1.220233	0.014870	99
Es	0.031770	-1.187464	0.032950	99
Es	1.180949	-0.630787	-0.325680	99
Es	-0.666718	1.141412	-0.013059	99
Es	1.090866	-1.888973	0.024345	99
Es	-0.555184	-1.171886	0.025568	99
Es	-2.591083	-0.037558	0.015932	99
Es	0.982416	1.620597	0.568747	99
Es	-1.305853	-0.050869	0.008163	99
Es	2.227896	-0.077086	-0.009531	99
Es	-2.092783	-0.035923	0.296310	99
Es	1.184108	-0.620458	0.333165	99
Es	1.129283	0.562629	-0.014962	99
39
Properties=species:S:1:pos:R:3:Z:I:1 energy=-338.82068942921364 field_type=dipole dipole="0.000000 0.000000 0.000000" charge=0
N	-2.591467	-0.037895	0.015948	7
C	-1.306227	-0.050945	0.008168	6
N	-0.557157	-1.179625	0.020098	7
C	0.799423	-1.220125	0.014868	6
C	1.499963	-0.086775	-0.006142	6
C	0.781183	1.225295	-0.024592	6
O	-0.666937	1.141755	-0.013112	8
H	-2.857937	0.953215	0.003388	1
H	-1.073827	-2.049155	0.036618	1
H	1.252303	-2.205675	0.028698	1
H	2.583753	-0.094165	-0.010612	1
H	1.074473	1.817705	0.847888	1
H	1.062453	1.786395	-0.921222	1
Es	-0.850430	0.653924	-0.009150	99
Es	-0.764592	1.239485	0.237623	99
Es	1.090882	-1.888994	0.024399	99
Es	0.982399	1.620570	0.568711	99
Es	-0.557074	-1.179315	0.018737	99
Es	1.499963	-0.086669	-0.006136	99
Es	-0.865066	-0.673341	0.034347	99
Es	-2.097057	-0.045170	-0.271792	99
Es	2.227916	-0.077116	-0.009434	99
Es	-0.128787	1.113990	-0.016500	99
Es	-0.857868	-1.693685	0.036874	99
Es	-0.770127	1.242934	-0.260950	99
Es	-0.539902	-1.110077	-0.022351	99
Es	0.974298	1.599234	-0.634214	99
Es	0.031795	-1.187542	0.033126	99
Es	-0.666712	1.141352	-0.013206	99
Es	-2.812793	-0.326705	0.021978	99
Es	-2.591076	-0.037556	0.015932	99
Es	1.184035	-0.620452	0.333097	99
Es	0.799180	-1.220231	0.014855	99
Es	-2.092780	-0.036582	0.297039	99
Es	-2.742957	0.555585	0.008424	99
Es	0.780925	1.225197	-0.024589	99
Es	1.129239	0.562670	-0.015120	99
Es	1.181066	-0.630910	-0.325554	99
Es	-1.305861	-0.050871	0.008165	99
39
Properties=species:S:1:pos:R:3:Z:I:1 energy=-338.82068942921364 field_type=dipole dipole="0.000000 0.000000 0.000000" charge=0
N	-2.591467	-0.037895	0.015948	7
C	-1.306227	-0.050945	0.008168	6
N	-0.557157	-1.179625	0.020098	7
C	0.799423	-1.220125	0.014868	6
C	1.499963	-0.086775	-0.006142	6
C	0.781183	1.225295	-0.024592	6
O	-0.666937	1.141755	-0.013112	8
H	-2.857937	0.953215	0.003388	1
H	-1.073827	-2.049155	0.036618	1
H	1.252303	-2.205675	0.028698	1
H	2.583753	-0.094165	-0.010612	1
H	1.074473	1.817705	0.847888	1
H	1.062453	1.786395	-0.921222	1
Es	0.982486	1.620630	0.568734	99
Es	0.974222	1.599164	-0.634138	99
Es	1.499968	-0.086669	-0.006136	99
Es	-1.305861	-0.050869	0.008177	99
Es	-2.591093	-0.037583	0.015941	99
Es	-2.812137	-0.326751	0.021790	99
Es	-0.666719	1.141407	-0.013134	99
Es	2.227886	-0.077215	-0.009631	99
Es	-2.092945	-0.036649	0.297430	99
Es	-0.769761	1.241088	-0.261754	99
Es	-2.743685	0.555301	0.008409	99
Es	0.799181	-1.220232	0.014870	99
Es	-0.863414	-0.677401	-0.026989	99
Es	-0.128860	1.113890	-0.016569	99
Es	-0.857360	-1.693170	0.014503	99
Es	-0.556987	-1.178955	0.018361	99
Es	1.129371	0.562726	-0.015389	99
Es	0.028828	-1.188291	-0.014881	99
Es	1.090999	-1.888986	0.024066	99
Es	-2.096780	-0.044774	-0.271778	99
Es	-0.764788	1.241431	0.236768	99
Es	-0.539250	-1.106177	0.109113	99
Es	0.780926	1.225198	-0.024590	99
Es	-0.850574	0.653907	-0.007478	99
Es	1.181089	-0.631345	-0.324956	99
Es	1.183878	-0.619953	0.333573	99
39
Properties=species:S:1:pos:R:3:Z:I:1 energy=-338.82068942921364 field_type=dipole dipole="0.000000 0.000000 0.000000" charge=0
N	-2.591467	-0.037895	0.015948	7
C	-1.306227	-0.050945	0.008168	6
N	-0.557157	-1.179625	0.020098	7
C	0.799423	-1.220125	0.014868	6
C	1.499963	-0.086775	-0.006142	6
C	0.781183	1.225295	-0.024592	6
O	-0.666937	1.141755	-0.013112	8
H	-2.857937	0.953215	0.003388	1
H	-1.073827	-2.049155	0.036618	1
H	1.252303	-2.205675	0.028698	1
H	2.583753	-0.094165	-0.010612	1
H	1.074473	1.817705	0.847888	1
H	1.062453	1.786395	-0.921222	1
Es	-0.851150	0.653923	-0.005357	99
Es	-0.540382	-1.110361	0.103030	99
Es	0.029487	-1.188202	-0.011489	99
Es	0.974309	1.599401	-0.634079	99
Es	-0.556060	-1.175249	0.016342	99
Es	2.227927	-0.077093	-0.009519	99
Es	-0.666722	1.141355	-0.012966	99
Es	0.780925	1.225197	-0.024588	99
Es	-2.591067	-0.037555	0.015949	99
Es	1.499965	-0.086672	-0.006140	99
Es	-2.812125	-0.326538	0.021051	99
Es	-2.096252	-0.044725	-0.271515	99
Es	0.982431	1.620377	0.568774	99
Es	-0.765652	1.245312	0.235168	99
Es	1.181205	-0.631247	-0.325038	99
Es	1.091053	-1.889034	0.024164	99
Es	-1.305866	-0.050871	0.008166	99
Es	-0.863810	-0.676919	-0.023767	99
Es	-2.743656	0.555390	0.008433	99
Es	-0.857468	-1.693267	0.016017	99
Es	-0.768449	1.237535	-0.262483	99
Es	-2.093503	-0.036998	0.297901	99
Es	1.183847	-0.620107	0.333219	99
Es	1.129204	0.562709	-0.015258	99
Es	0.799184	-1.220232	0.014871	99
Es	-0.128755	1.113594	-0.016576	99
39
Properties=species:S:1:pos:R:3:Z:I:1 energy=-338.82068942921364 field_type=dipole dipole="0.000000 0.000000 0.000000" charge=0
N	-2.591467	-0.037895	0.015948	7
C	-1.306227	-0.050945	0.008168	6
N	-0.557157	-1.179625	0.020098	7
C	0.799423	-1.220125	0.014868	6
C	1.499963	-0.086775	-0.006142	6
C	0.781183	1.225295	-0.024592	6
O	-0.666937	1.141755	-0.013112	8
H	-2.857937	0.953215	0.003388	1
H	-1.073827	-2.049155	0.036618	1
H	1.252303	-2.205675	0.028698	1
H	2.583753	-0.094165	-0.010612	1
H	1.074473	1.817705	0.847888	1
H	1.062453	1.786395	-0.921222	1
Es	-0.858015	-1.693977	0.032629	99
Es	0.780927	1.225197	-0.024589	99
Es	-2.743683	0.555407	0.008376	99
Es	-0.551855	-1.158742	0.029487	99
Es	-0.545008	-1.131001	-0.006886	99
Es	-2.812032	-0.326194	0.021522	99
Es	-2.093118	-0.036888	0.297747	99
Es	-2.096665	-0.045173	-0.272013	99
Es	-2.591073	-0.037546	0.015941	99
Es	-0.765423	1.245396	0.234744	99
Es	-0.850725	0.654000	-0.003883	99
Es	-1.305863	-0.050871	0.008169	99
Es	-0.769230	1.236960	-0.262946	99
Es	1.129177	0.562758	-0.015148	99
Es	1.183887	-0.620322	0.332801	99
Es	-0.666724	1.141372	-0.013215	99
Es	0.974310	1.599196	-0.634138	99
Es	0.982456	1.620559	0.568688	99
Es	2.227922	-0.077111	-0.009385	99
Es	-0.128636	1.114026	-0.016846	99
Es	0.799183	-1.220231	0.014869	99
Es	1.181135	-0.630861	-0.325298	99
Es	-0.865668	-0.672964	0.022020	99
Es	0.032296	-1.187528	0.023381	99
Es	1.499963	-0.086673	-0.006143	99
Es	1.091081	-1.889066	0.024432	99
39
Properties=species:S:1:pos:R:3:Z:I:1 energy=-338.82068942921364 field_type=dipole dipole="0.000000 0.000000 0.000000" charge=0
N	-2.591467	-0.037895	0.015948	7
C	-1.306227	-0.050945	0.008168	6
N	-0.557157	-1.179625	0.020098	7
C	0.799423	-1.220125	0.014868	6
C	1.499963	-0.086775	-0.006142	6
C	0.781183	1.225295	-0.024592	6
O	-0.666937	1.141755	-0.013112	8
H	-2.857937	0.953215	0.003388	1
H	-1.073827	-2.049155	0.036618	1
H	1.252303	-2.205675	0.028698	1
H	2.583753	-0.094165	-0.010612	1
H	1.074473	1.817705	0.847888	1
H	1.062453	1.786395	-0.921222	1
Es	-2.591077	-0.037558	0.015944	99
Es	-0.768575	1.236382	-0.263097	99
Es	0.780930	1.225198	-0.024588	99
Es	1.499964	-0.086672	-0.006144	99
Es	-2.096578	-0.045231	-0.272067	99
Es	-0.550263	-1.152265	0.008063	99
Es	-0.858049	-1.694026	0.028158	99
Es	-2.093239	-0.037072	0.298036	99
Es	0.982421	1.620535	0.568651	99
Es	-0.865828	-0.673041	0.009161	99
Es	-0.128823	1.113462	-0.016853	99
Es	-2.811788	-0.325987	0.021379	99
Es	1.091135	-1.889108	0.024290	99
Es	1.181134	-0.630923	-0.325083	99
Es	2.227892	-0.077130	-0.009405	99
Es	-0.666708	1.141399	-0.013154	99
Es	-2.743876	0.555418	0.008346	99
Es	0.799183	-1.220231	0.014871	99
Es	0.974334	1.599228	-0.634103	99
Es	-0.850559	0.654348	-0.004695	99
Es	1.129185	0.562799	-0.015120	99
Es	-0.546459	-1.137161	0.041358	99
Es	-1.305862	-0.050870	0.008165	99
Es	-0.766075	1.246178	0.235632	99
Es	0.032319	-1.187732	0.013722	99
Es	1.183880	-0.620215	0.332848	99
39
Properties=species:S:1:pos:R:3:Z:I:1 energy=-338.82068942921364 field_type=dipole dipole="0.000000 0.000000 0.000000" charge=0
N	-2.591467	-0.037895	0.015948	7
C	-1.306227	-0.050945	0.008168	6
N	-0.557157	-1.179625	0.020098	7
C	0.799423	-1.220125	0.014868	6
C	1.499963	-0.086775	-0.006142	6
C	0.781183	1.225295	-0.024592	6
O	-0.666937	1.141755	-0.013112	8
H	-2.857937	0.953215	0.003388	1
H	-1.073827	-2.049155	0.036618	1
H	1.252303	-2.205675	0.028698	1
H	2.583753	-0.094165	-0.010612	1
H	1.074473	1.817705	0.847888	1
H	1.062453	1.786395	-0.921222	1
Es	-2.744109	0.555371	0.008335	99
Es	-0.128281	1.114507	-0.016758	99
Es	-2.093447	-0.037373	0.298400	99
Es	-0.538960	-1.099410	0.162678	99
Es	-0.765091	1.242216	0.235440	99
Es	0.974321	1.599195	-0.634097	99
Es	1.129147	0.562825	-0.015288	99
Es	1.499965	-0.086672	-0.006154	99
Es	0.022985	-1.188545	-0.034729	99
Es	-0.769886	1.239663	-0.261441	99
Es	0.982472	1.620540	0.568646	99
Es	-0.856291	-1.691465	0.005638	99
Es	-2.811523	-0.325825	0.021077	99
Es	1.181445	-0.631613	-0.324503	99
Es	-0.850849	0.654000	-0.006382	99
Es	1.183691	-0.619950	0.333120	99
Es	2.227895	-0.077146	-0.009442	99
Es	-2.096394	-0.045043	-0.271802	99
Es	0.780931	1.225199	-0.024588	99
Es	-2.591090	-0.037559	0.015940	99
Es	-1.305862	-0.050870	0.008164	99
Es	-0.666742	1.141420	-0.013065	99
Es	0.799183	-1.220231	0.014871	99
Es	-0.859032	-0.685025	-0.053222	99
Es	-0.557114	-1.179467	0.019344	99
Es	1.091253	-1.889016	0.024130	99
39
Properties=species:S:1:pos:R:3:Z:I:1 energy=-338.82068942921364 field_type=dipole dipole="0.000000 0.000000 0.000000" charge=0
N	-2.591467	-0.037895	0.015948	7
C	-1.306227	-0.050945	0.008168	6
N	-0.557157	-1.179625	0.020098	7
C	0.799423	-1.220125	0.014868	6
C	1.499963	-0.086775	-0.006142	6
C	0.781183	1.225295	-0.024592	6
O	-0.666937	1.141755	-0.013112	8
H	-2.857937	0.953215	0.003388	1
H	-1.073827	-2.049155	0.036618	1
H	1.252303	-2.205675	0.028698	1
H	2.583753	-0.094165	-0.010612	1
H	1.074473	1.817705	0.847888	1
H	1.062453	1.786395	-0.921222	1
Es	1.181401	-0.631679	-0.324395	99
Es	0.780931	1.225200	-0.024588	99
Es	1.499964	-0.086673	-0.006145	99
Es	-0.858156	-0.686592	-0.057327	99
Es	0.982479	1.620488	0.568628	99
Es	1.183682	-0.619859	0.333111	99
Es	1.129182	0.562914	-0.015330	99
Es	-0.762236	1.236571	0.237301	99
Es	1.091301	-1.889025	0.024112	99
Es	-1.305860	-0.050869	0.008166	99
Es	-0.666728	1.141360	-0.013121	99
Es	2.227885	-0.077197	-0.009437	99
Es	-0.539884	-1.099147	0.168978	99
Es	0.022470	-1.188581	-0.035596	99
Es	-2.591089	-0.037561	0.015944	99
Es	0.974344	1.599227	-0.634100	99
Es	0.799182	-1.220233	0.014866	99
Es	-2.744195	0.555503	0.008196	99
Es	-2.093252	-0.037516	0.298472	99
Es	-2.096661	-0.045317	-0.271873	99
Es	-0.850859	0.654177	-0.008208	99
Es	-2.811347	-0.325538	0.021226	99
Es	-0.556826	-1.178228	0.018197	99
Es	-0.856048	-1.691383	0.005386	99
Es	-0.772998	1.245087	-0.259029	99
Es	-0.128061	1.114594	-0.019120	99
39
Properties=species:S:1:pos:R:3:Z:I:1 energy=-338.82068942921364 field_type=dipole dipole="0.000000 0.000000 0.000000" charge=0
N	-2.591467	-0.037895	0.015948	7
C	-1.306227	-0.050945	0.008168	6
N	-0.557157	-1.179625	0.020098	7
C	0.799423	-1.220125	0.014868	6
C	1.499963	-0.086775	-0.006142	6
C	0.781183	1.225295	-0.024592	6
O	-0.666937	1.141755	-0.013112	8
H	-2.857937	0.953215	0.003388	1
H	-1.073827	-2.049155	0.036618	1
H	1.252303	-2.205675	0.028698	1
H	2.583753	-0.094165	-0.010612	1
H	1.074473	1.817705	0.847888	1
H	1.062453	1.786395	-0.921222	1
Es	-0.666829	1.141551	-0.013110	99
Es	-0.850679	0.654180	-0.008703	99
Es	0.974350	1.599209	-0.634041	99
Es	-1.305862	-0.050870	0.008165	99
Es	1.499962	-0.086674	-0.006144	99
Es	-0.857963	-0.686704	-0.057721	99
Es	0.982469	1.620514	0.568608	99
Es	1.129183	0.562874	-0.015304	99
Es	-0.856041	-1.691173	0.004347	99
Es	-2.744302	0.555372	0.008255	99
Es	2.227906	-0.077201	-0.009536	99
Es	-0.539857	-1.098526	0.170446	99
Es	-0.763758	1.237668	0.236822	99
Es	0.022334	-1.188632	-0.035957	99
Es	1.091365	-1.889032	0.024091	99
Es	-2.096419	-0.045350	-0.272070	99
Es	0.799185	-1.220231	0.014871	99
Es	-0.556973	-1.178871	0.018523	99
Es	-2.093474	-0.037491	0.298620	99
Es	0.780932	1.225199	-0.024588	99
Es	-2.811252	-0.325395	0.021244	99
Es	1.183683	-0.619935	0.333070	99
Es	-0.771663	1.243471	-0.259581	99
Es	1.181372	-0.631636	-0.324274	99
Es	-2.591081	-0.037559	0.015941	99
Es	-0.127970	1.114967	-0.017660	99
39
Properties=species:S:1:pos:R:3:Z:I:1 energy=-338.82068942921364 field_type=dipole dipole="0.000000 0.000000 0.000000" charge=0
N	-2.591467	-0.037895	0.015948	7
C	-1.306227	-0.050945	0.008168	6
N	-0.557157	-1.179625	0.020098	7
C	0.799423	-1.220125	0.014868	6
C	1.499963	-0.086775	-0.006142	6
C	0.781183	1.225295	-0.024592	6
O	-0.666937	1.141755	-0.013112	8
H	-2.857937	0.953215	0.003388	1
H	-1.073827	-2.049155	0.036618	1
H	1.252303	-2.205675	0.028698	1
H	2.583753	-0.094165	-0.010612	1
H	1.074473	1.817705	0.847888	1
H	1.062453	1.786395	-0.921222	1
Es	0.974362	1.599172	-0.634048	99
Es	-2.097004	-0.046006	-0.272856	99
Es	1.184156	-0.621102	0.331876	99
Es	-0.127713	1.115201	-0.015125	99
Es	1.129140	0.562921	-0.015016	99
Es	-0.851337	0.654027	-0.000518	99
Es	-1.305862	-0.050869	0.008165	99
Es	1.091415	-1.889044	0.024539	99
Es	0.780932	1.225199	-0.024588	99
Es	-2.591081	-0.037558	0.015943	99
Es	-2.092910	-0.037086	0.297879	99
Es	1.180903	-0.630518	-0.325291	99
Es	0.021496	-1.186901	0.074815	99
Es	-0.666774	1.141459	-0.013087	99
Es	1.499961	-0.086676	-0.006143	99
Es	0.982489	1.620528	0.568585	99
Es	-0.855550	-1.689917	0.056545	99
Es	-0.556931	-1.178714	0.021734	99
Es	0.799183	-1.220231	0.014871	99
Es	-0.769054	1.252676	0.230432	99
Es	-0.766069	1.228517	-0.263829	99
Es	-2.744469	0.555426	0.008361	99
Es	-2.811035	-0.325242	0.021911	99
Es	-0.855964	-0.686376	0.091420	99
Es	2.227906	-0.077206	-0.009283	99
Es	-0.541572	-1.101957	-0.142978	99
39
Properties=species:S:1:pos:R:3:Z:I:1 energy=-338.82068942921364 field_type=dipole dipole="0.000000 0.000000 0.000000" charge=0
N	-2.591467	-0.037895	0.015948	7
C	-1.306227	-0.050945	0.008168	6
N	-0.557157	-1.179625	0.020098	7
C	0.799423	-1.220125	0.014868	6
C	1.499963	-0.086775	-0.006142	6
C	0.781183	1.225295	-0.024592	6
O	-0.666937	1.141755	-0.013112	8
H	-2.857937	0.953215	0.003388	1
H	-1.073827	-2.049155	0.036618	1
H	1.252303	-2.205675	0.028698	1
H	2.583753	-0.094165	-0.010612	1
H	1.074473	1.817705	0.847888	1
H	1.062453	1.786395	-0.921222	1
Es	-0.851063	0.654156	-0.001066	99
Es	-2.093212	-0.037423	0.298406	99
Es	0.799184	-1.220231	0.014871	99
Es	2.227874	-0.077241	-0.009407	99
Es	-0.666744	1.141398	-0.013030	99
Es	-2.810947	-0.325314	0.021439	99
Es	1.129153	0.562985	-0.015170	99
Es	-2.096620	-0.045611	-0.272428	99
Es	1.181131	-0.631011	-0.324620	99
Es	-0.768647	1.251389	0.230927	99
Es	-0.766670	1.229854	-0.263793	99
Es	-0.865648	-0.673600	0.002550	99
Es	-2.744575	0.555435	0.008311	99
Es	0.780934	1.225200	-0.024588	99
Es	-0.858122	-1.694033	0.025379	99
Es	0.031967	-1.187597	0.007950	99
Es	-0.127759	1.115108	-0.015191	99
Es	-2.591082	-0.037559	0.015941	99
Es	-0.544449	-1.128750	0.053054	99
Es	-0.552239	-1.160149	0.011446	99
Es	0.974354	1.599177	-0.634025	99
Es	1.091393	-1.889236	0.024283	99
Es	1.499962	-0.086676	-0.006144	99
Es	-1.305863	-0.050870	0.008165	99
Es	0.982502	1.620517	0.568570	99
Es	1.183808	-0.620196	0.332483	99
39
Properties=species:S:1:pos:R:3:Z:I:1 energy=-338.82068942921364 field_type=dipole dipole="0.000000 0.000000 0.000000" charge=0
N	-2.591467	-0.037895	0.015948	7
C	-1.306227	-0.050945	0.008168	6
N	-0.557157	-1.179625	0.020098	7
C	0.799423	-1.220125	0.014868	6
C	1.499963	-0.086775	-0.006142	6
C	0.781183	1.225295	-0.024592	6
O	-0.666937	1.141755	-0.013112	8
H	-2.857937	0.953215	0.003388	1
H	-1.073827	-2.049155	0.036618	1
H	1.252303	-2.205675	0.028698	1
H	2.583753	-0.094165	-0.010612	1
H	1.074473	1.817705	0.847888	1
H	1.062453	1.786395	-0.921222	1
Es	1.091427	-1.889253	0.024332	99
Es	0.032334	-1.187501	0.017018	99
Es	0.780928	1.225199	-0.024588	99
Es	-0.770555	1.241229	-0.259130	99
Es	-2.744758	0.555257	0.008283	99
Es	-2.096968	-0.045903	-0.272991	99
Es	-2.092867	-0.037313	0.298531	99
Es	1.129105	0.562990	-0.015060	99
Es	-0.666728	1.141370	-0.013031	99
Es	1.181153	-0.630778	-0.324691	99
Es	-2.810739	-0.324967	0.021884	99
Es	-0.851237	0.653960	-0.008017	99
Es	-0.546939	-1.138904	0.035100	99
Es	-2.591078	-0.037559	0.015937	99
Es	0.799183	-1.220230	0.014871	99
Es	0.982537	1.620574	0.568535	99
Es	1.183759	-0.620324	0.332245	99
Es	-0.858261	-1.694063	0.029014	99
Es	1.499959	-0.086679	-0.006148	99
Es	0.974345	1.599102	-0.634032	99
Es	2.227905	-0.077237	-0.009347	99
Es	-0.865749	-0.673034	0.014120	99
Es	-1.305863	-0.050870	0.008165	99
Es	-0.549895	-1.150723	0.005296	99
Es	-0.127516	1.115448	-0.017081	99
Es	-0.764864	1.239933	0.235097	99
