37
Properties=species:S:1:pos:R:3:Z:I:1 energy=-321.6281881398294 field_type=dipole dipole="0.000000 0.000000 0.000000" charge=0
N	-2.874315	0.306212	0.893906	7
C	-1.723305	0.306212	0.893906	6
C	-0.279305	0.306212	0.893906	6
C	0.286975	-0.942208	0.199086	6
C	0.757854	-0.382528	-1.091064	6
C	0.701294	0.941662	-1.016384	6
O	0.226315	1.463352	0.168366	8
H	0.096235	0.369682	1.921636	1
H	-0.449625	-1.740878	0.066766	1
H	1.140965	-1.346858	0.753686	1
H	1.117614	-0.953518	-1.932894	1
H	0.999305	1.672662	-1.750914	1
Es	-0.030706	-0.316100	0.565288	99
Es	0.426884	0.242300	-1.208485	99
Es	0.862248	-1.206873	0.578726	99
Es	0.899753	1.437835	-1.505229	99
Es	0.391038	1.247750	-0.284100	99
Es	-0.213811	-1.469902	0.116482	99
Es	1.042078	0.251656	-0.961520	99
Es	-0.279396	0.306387	0.893748	99
Es	0.701206	0.941891	-1.016167	99
Es	-2.873865	0.306208	0.893907	99
Es	0.000290	1.646734	0.103446	99
Es	-1.046285	0.310271	0.889176	99
Es	0.286955	-0.942120	0.199098	99
Es	0.996889	-0.772755	-1.648991	99
Es	-0.053147	0.348572	1.582922	99
Es	-3.242293	0.303554	0.894339	99
Es	0.226313	1.463026	0.168233	99
Es	0.517091	-0.694591	-0.457224	99
Es	0.022926	1.008869	0.431354	99
Es	-2.346215	0.305970	0.584993	99
Es	0.477759	1.534999	0.299524	99
Es	-1.722948	0.306214	0.893909	99
Es	-2.353835	0.570512	1.052400	99
Es	0.757829	-0.382630	-1.091029	99
Es	-2.333589	0.032978	1.047026	99
37
Properties=species:S:1:pos:R:3:Z:I:1 energy=-321.6281881398294 field_type=dipole dipole="0.000000 0.000000 0.000000" charge=0
N	-2.874315	0.306212	0.893906	7
C	-1.723305	0.306212	0.893906	6
C	-0.279305	0.306212	0.893906	6
C	0.286975	-0.942208	0.199086	6
C	0.757854	-0.382528	-1.091064	6
C	0.701294	0.941662	-1.016384	6
O	0.226315	1.463352	0.168366	8
H	0.096235	0.369682	1.921636	1
H	-0.449625	-1.740878	0.066766	1
H	1.140965	-1.346858	0.753686	1
H	1.117614	-0.953518	-1.932894	1
H	0.999305	1.672662	-1.750914	1
Es	0.022847	1.009036	0.431902	99
Es	0.000276	1.644786	0.102047	99
Es	-2.348020	0.273092	0.586372	99
Es	0.426995	0.242279	-1.208312	99
Es	0.286955	-0.942122	0.199098	99
Es	-0.053243	0.348602	1.582945	99
Es	0.757827	-0.382631	-1.091030	99
Es	-0.213763	-1.469881	0.116435	99
Es	0.517051	-0.694615	-0.457186	99
Es	-3.242331	0.303205	0.894324	99
Es	0.226321	1.463082	0.168249	99
Es	0.391413	1.247378	-0.283731	99
Es	0.899772	1.437872	-1.505265	99
Es	-2.873867	0.306207	0.893907	99
Es	0.996740	-0.772679	-1.649113	99
Es	0.701196	0.941898	-1.016165	99
Es	0.477520	1.537121	0.299970	99
Es	-0.030842	-0.316311	0.565280	99
Es	0.862299	-1.206912	0.578699	99
Es	-2.333007	0.051056	1.075684	99
Es	-0.279396	0.306382	0.893754	99
Es	-2.352598	0.585674	1.022499	99
Es	-1.046071	0.310361	0.889130	99
Es	-1.722952	0.306198	0.893904	99
Es	1.042045	0.251679	-0.961574	99
37
Properties=species:S:1:pos:R:3:Z:I:1 energy=-321.6281881398294 field_type=dipole dipole="0.000000 0.000000 0.000000" charge=0
N	-2.874315	0.306212	0.893906	7
C	-1.723305	0.306212	0.893906	6
C	-0.279305	0.306212	0.893906	6
C	0.286975	-0.942208	0.199086	6
C	0.757854	-0.382528	-1.091064	6
C	0.701294	0.941662	-1.016384	6
O	0.226315	1.463352	0.168366	8
H	0.096235	0.369682	1.921636	1
H	-0.449625	-1.740878	0.066766	1
H	1.140965	-1.346858	0.753686	1
H	1.117614	-0.953518	-1.932894	1
H	0.999305	1.672662	-1.750914	1
Es	0.899901	1.437815	-1.505335	99
Es	-2.347581	0.282665	0.585210	99
Es	-2.873867	0.306209	0.893906	99
Es	0.517473	-0.694612	-0.457002	99
Es	1.041798	0.251653	-0.961720	99
Es	-0.030708	-0.316256	0.565339	99
Es	0.996784	-0.772709	-1.648978	99
Es	0.757844	-0.382630	-1.091023	99
Es	-1.046038	0.310277	0.889179	99
Es	0.023885	1.008703	0.432662	99
Es	-2.333223	0.045330	1.067785	99
Es	-1.722954	0.306213	0.893907	99
Es	-0.279396	0.306389	0.893749	99
Es	0.476673	1.537983	0.299366	99
Es	-0.213798	-1.469838	0.116323	99
Es	-3.242087	0.303452	0.894383	99
Es	0.000026	1.643930	0.102439	99
Es	0.701200	0.941897	-1.016165	99
Es	0.286956	-0.942125	0.199096	99
Es	0.226312	1.463085	0.168284	99
Es	0.391421	1.247880	-0.284286	99
Es	0.426845	0.242265	-1.208373	99
Es	-2.353063	0.581569	1.031437	99
Es	0.862113	-1.207006	0.578735	99
Es	-0.053349	0.348619	1.582906	99
37
Properties=species:S:1:pos:R:3:Z:I:1 energy=-321.6281881398294 field_type=dipole dipole="0.000000 0.000000 0.000000" charge=0
N	-2.874315	0.306212	0.893906	7
C	-1.723305	0.306212	0.893906	6
C	-0.279305	0.306212	0.893906	6
C	0.286975	-0.942208	0.199086	6
C	0.757854	-0.382528	-1.091064	6
C	0.701294	0.941662	-1.016384	6
O	0.226315	1.463352	0.168366	8
H	0.096235	0.369682	1.921636	1
H	-0.449625	-1.740878	0.066766	1
H	1.140965	-1.346858	0.753686	1
H	1.117614	-0.953518	-1.932894	1
H	0.999305	1.672662	-1.750914	1
Es	-2.336244	0.545022	0.705822	99
Es	0.427179	0.242307	-1.208403	99
Es	-1.045803	0.309910	0.889492	99
Es	0.899871	1.437817	-1.505390	99
Es	-3.241958	0.305176	0.893762	99
Es	-2.348921	0.345187	1.199815	99
Es	-0.030871	-0.316300	0.565274	99
Es	-2.873862	0.306205	0.893906	99
Es	0.701197	0.941898	-1.016166	99
Es	0.226290	1.463029	0.168222	99
Es	0.757833	-0.382630	-1.091027	99
Es	0.022653	1.008621	0.432173	99
Es	1.041757	0.251617	-0.961575	99
Es	0.862321	-1.206795	0.578603	99
Es	0.286955	-0.942124	0.199098	99
Es	0.392271	1.248149	-0.284297	99
Es	-2.349011	0.018175	0.779188	99
Es	0.516833	-0.694797	-0.457122	99
Es	-0.279397	0.306385	0.893750	99
Es	0.001048	1.645139	0.102804	99
Es	-0.053353	0.348595	1.582816	99
Es	-0.213700	-1.469998	0.116525	99
Es	0.476106	1.536591	0.299628	99
Es	-1.722952	0.306209	0.893900	99
Es	0.996925	-0.772631	-1.648971	99
37
Properties=species:S:1:pos:R:3:Z:I:1 energy=-321.6281881398294 field_type=dipole dipole="0.000000 0.000000 0.000000" charge=0
N	-2.874315	0.306212	0.893906	7
C	-1.723305	0.306212	0.893906	6
C	-0.279305	0.306212	0.893906	6
C	0.286975	-0.942208	0.199086	6
C	0.757854	-0.382528	-1.091064	6
C	0.701294	0.941662	-1.016384	6
O	0.226315	1.463352	0.168366	8
H	0.096235	0.369682	1.921636	1
H	-0.449625	-1.740878	0.066766	1
H	1.140965	-1.346858	0.753686	1
H	1.117614	-0.953518	-1.932894	1
H	0.999305	1.672662	-1.750914	1
Es	0.701231	0.941888	-1.016155	99
Es	-0.053471	0.348647	1.582927	99
Es	0.022223	1.008549	0.431995	99
Es	-2.353786	0.575088	1.045217	99
Es	-3.241556	0.303512	0.894639	99
Es	0.226372	1.462943	0.168243	99
Es	-2.347018	0.297660	0.584205	99
Es	-0.279397	0.306384	0.893751	99
Es	-0.030875	-0.316371	0.565303	99
Es	-1.722953	0.306206	0.893922	99
Es	0.517152	-0.694829	-0.457064	99
Es	0.475718	1.538029	0.300324	99
Es	-2.333616	0.036716	1.054734	99
Es	0.392882	1.248258	-0.283913	99
Es	0.286955	-0.942124	0.199098	99
Es	0.899894	1.437796	-1.505500	99
Es	0.862124	-1.206963	0.578672	99
Es	0.001138	1.643911	0.101808	99
Es	1.041543	0.251608	-0.961686	99
Es	0.757830	-0.382628	-1.091025	99
Es	-0.213720	-1.469867	0.116421	99
Es	-1.045787	0.310407	0.889271	99
Es	0.427285	0.242308	-1.208206	99
Es	0.996863	-0.772580	-1.649062	99
Es	-2.873863	0.306208	0.893906	99
37
Properties=species:S:1:pos:R:3:Z:I:1 energy=-321.6281881398294 field_type=dipole dipole="0.000000 0.000000 0.000000" charge=0
N	-2.874315	0.306212	0.893906	7
C	-1.723305	0.306212	0.893906	6
C	-0.279305	0.306212	0.893906	6
C	0.286975	-0.942208	0.199086	6
C	0.757854	-0.382528	-1.091064	6
C	0.701294	0.941662	-1.016384	6
O	0.226315	1.463352	0.168366	8
H	0.096235	0.369682	1.921636	1
H	-0.449625	-1.740878	0.066766	1
H	1.140965	-1.346858	0.753686	1
H	1.117614	-0.953518	-1.932894	1
H	0.999305	1.672662	-1.750914	1
Es	-1.045653	0.310414	0.889179	99
Es	-2.333446	0.046922	1.070727	99
Es	-0.213628	-1.469883	0.116474	99
Es	-1.722952	0.306209	0.893906	99
Es	0.392885	1.248246	-0.284378	99
Es	0.286956	-0.942123	0.199096	99
Es	0.701188	0.941888	-1.016179	99
Es	0.996820	-0.772567	-1.648962	99
Es	-0.030913	-0.316528	0.565332	99
Es	0.022897	1.008624	0.432892	99
Es	-0.279396	0.306386	0.893751	99
Es	0.001233	1.643304	0.102030	99
Es	0.899926	1.437780	-1.505508	99
Es	0.516939	-0.694887	-0.457029	99
Es	0.862228	-1.206936	0.578612	99
Es	-2.873871	0.306209	0.893907	99
Es	-2.348043	0.278926	0.584648	99
Es	-0.053658	0.348722	1.582896	99
Es	-2.353093	0.583556	1.029067	99
Es	0.226250	1.462981	0.168186	99
Es	1.041602	0.251568	-0.961705	99
Es	0.427373	0.242331	-1.208301	99
Es	0.757832	-0.382618	-1.091027	99
Es	0.475063	1.538627	0.299722	99
Es	-3.241370	0.303607	0.894489	99
37
Properties=species:S:1:pos:R:3:Z:I:1 energy=-321.6281881398294 field_type=dipole dipole="0.000000 0.000000 0.000000" charge=0
N	-2.874315	0.306212	0.893906	7
C	-1.723305	0.306212	0.893906	6
C	-0.279305	0.306212	0.893906	6
C	0.286975	-0.942208	0.199086	6
C	0.757854	-0.382528	-1.091064	6
C	0.701294	0.941662	-1.016384	6
O	0.226315	1.463352	0.168366	8
H	0.096235	0.369682	1.921636	1
H	-0.449625	-1.740878	0.066766	1
H	1.140965	-1.346858	0.753686	1
H	1.117614	-0.953518	-1.932894	1
H	0.999305	1.672662	-1.750914	1
Es	0.427511	0.242364	-1.208176	99
Es	0.899928	1.437769	-1.505591	99
Es	-2.349309	0.017985	0.776589	99
Es	-2.336496	0.547439	0.708203	99
Es	-1.722941	0.306216	0.893900	99
Es	0.226410	1.462938	0.168262	99
Es	0.021192	1.008899	0.432514	99
Es	-0.279396	0.306384	0.893752	99
Es	-0.053615	0.348665	1.582887	99
Es	0.757832	-0.382625	-1.091027	99
Es	-0.030871	-0.316424	0.565345	99
Es	0.004027	1.649217	0.106583	99
Es	0.517048	-0.694993	-0.457084	99
Es	1.041440	0.251510	-0.961711	99
Es	-2.349155	0.343011	1.200222	99
Es	0.389277	1.248851	-0.285795	99
Es	-2.873868	0.306208	0.893907	99
Es	0.862113	-1.206979	0.578594	99
Es	0.701201	0.941897	-1.016165	99
Es	-1.045460	0.309837	0.889438	99
Es	0.477409	1.531849	0.296965	99
Es	0.286956	-0.942124	0.199098	99
Es	-0.213675	-1.469841	0.116528	99
Es	0.996824	-0.772491	-1.649037	99
Es	-3.241217	0.305193	0.893624	99
37
Properties=species:S:1:pos:R:3:Z:I:1 energy=-321.6281881398294 field_type=dipole dipole="0.000000 0.000000 0.000000" charge=0
N	-2.874315	0.306212	0.893906	7
C	-1.723305	0.306212	0.893906	6
C	-0.279305	0.306212	0.893906	6
C	0.286975	-0.942208	0.199086	6
C	0.757854	-0.382528	-1.091064	6
C	0.701294	0.941662	-1.016384	6
O	0.226315	1.463352	0.168366	8
H	0.096235	0.369682	1.921636	1
H	-0.449625	-1.740878	0.066766	1
H	1.140965	-1.346858	0.753686	1
H	1.117614	-0.953518	-1.932894	1
H	0.999305	1.672662	-1.750914	1
Es	0.226266	1.463007	0.168183	99
Es	-2.873865	0.306208	0.893907	99
Es	-1.722952	0.306209	0.893905	99
Es	0.899913	1.437746	-1.505666	99
Es	-3.240949	0.303959	0.895027	99
Es	-2.333718	0.084763	1.116277	99
Es	-0.053708	0.348677	1.582964	99
Es	-1.045409	0.310322	0.889134	99
Es	0.478112	1.527157	0.295328	99
Es	0.020331	1.009110	0.432051	99
Es	-2.351280	0.220595	0.594557	99
Es	0.005238	1.653484	0.108907	99
Es	0.516998	-0.695066	-0.457125	99
Es	-2.350060	0.603794	0.973150	99
Es	1.041441	0.251406	-0.961721	99
Es	0.701204	0.941897	-1.016164	99
Es	0.388327	1.249186	-0.286028	99
Es	0.286955	-0.942123	0.199098	99
Es	-0.279396	0.306386	0.893749	99
Es	0.427626	0.242459	-1.208135	99
Es	0.757834	-0.382625	-1.091027	99
Es	-0.030928	-0.316494	0.565302	99
Es	0.996773	-0.772484	-1.649003	99
Es	0.862078	-1.207019	0.578579	99
Es	-0.213664	-1.469796	0.116575	99
37
Properties=species:S:1:pos:R:3:Z:I:1 energy=-321.6281881398294 field_type=dipole dipole="0.000000 0.000000 0.000000" charge=0
N	-2.874315	0.306212	0.893906	7
C	-1.723305	0.306212	0.893906	6
C	-0.279305	0.306212	0.893906	6
C	0.286975	-0.942208	0.199086	6
C	0.757854	-0.382528	-1.091064	6
C	0.701294	0.941662	-1.016384	6
O	0.226315	1.463352	0.168366	8
H	0.096235	0.369682	1.921636	1
H	-0.449625	-1.740878	0.066766	1
H	1.140965	-1.346858	0.753686	1
H	1.117614	-0.953518	-1.932894	1
H	0.999305	1.672662	-1.750914	1
Es	0.226333	1.462993	0.168276	99
Es	0.862048	-1.206970	0.578529	99
Es	-2.348971	0.267539	0.585265	99
Es	0.517061	-0.695087	-0.457065	99
Es	-3.240738	0.303508	0.894792	99
Es	0.427713	0.242264	-1.208056	99
Es	1.041212	0.251590	-0.961811	99
Es	-1.722958	0.306213	0.893908	99
Es	-0.030954	-0.316608	0.565380	99
Es	0.757837	-0.382626	-1.091026	99
Es	-0.053816	0.348752	1.582949	99
Es	-2.333501	0.053231	1.080774	99
Es	-1.045304	0.310354	0.889272	99
Es	0.286954	-0.942122	0.199098	99
Es	0.476704	1.531662	0.296797	99
Es	-2.873865	0.306208	0.893907	99
Es	0.899969	1.437735	-1.505709	99
Es	-0.279395	0.306386	0.893752	99
Es	0.004082	1.649518	0.106137	99
Es	0.390177	1.248881	-0.285378	99
Es	0.701200	0.941900	-1.016163	99
Es	-2.352793	0.588797	1.018067	99
Es	-0.213602	-1.469863	0.116572	99
Es	0.996812	-0.772438	-1.649054	99
Es	0.020963	1.008938	0.432611	99
37
Properties=species:S:1:pos:R:3:Z:I:1 energy=-321.6281881398294 field_type=dipole dipole="0.000000 0.000000 0.000000" charge=0
N	-2.874315	0.306212	0.893906	7
C	-1.723305	0.306212	0.893906	6
C	-0.279305	0.306212	0.893906	6
C	0.286975	-0.942208	0.199086	6
C	0.757854	-0.382528	-1.091064	6
C	0.701294	0.941662	-1.016384	6
O	0.226315	1.463352	0.168366	8
H	0.096235	0.369682	1.921636	1
H	-0.449625	-1.740878	0.066766	1
H	1.140965	-1.346858	0.753686	1
H	1.117614	-0.953518	-1.932894	1
H	0.999305	1.672662	-1.750914	1
Es	0.757836	-0.382622	-1.091025	99
Es	0.862013	-1.207034	0.578555	99
Es	0.701203	0.941894	-1.016164	99
Es	0.001281	1.640804	0.099962	99
Es	0.472936	1.541221	0.299861	99
Es	0.427660	0.242164	-1.208108	99
Es	-3.240489	0.305397	0.893944	99
Es	1.040925	0.251651	-0.961865	99
Es	0.022927	1.008358	0.434032	99
Es	0.394878	1.248376	-0.283649	99
Es	-2.873927	0.306205	0.893907	99
Es	-0.279397	0.306383	0.893752	99
Es	0.226321	1.463237	0.168319	99
Es	0.517133	-0.695130	-0.457001	99
Es	0.286957	-0.942126	0.199098	99
Es	-0.030960	-0.316625	0.565405	99
Es	-1.722948	0.306209	0.893905	99
Es	-2.347221	0.311254	1.203312	99
Es	-1.045118	0.309802	0.889420	99
Es	0.900095	1.437716	-1.505742	99
Es	-2.351195	0.031296	0.746646	99
Es	-0.213604	-1.469799	0.116549	99
Es	-0.053886	0.348725	1.582904	99
Es	-2.337222	0.565776	0.734798	99
Es	0.996968	-0.772377	-1.648991	99
37
Properties=species:S:1:pos:R:3:Z:I:1 energy=-321.6281881398294 field_type=dipole dipole="0.000000 0.000000 0.000000" charge=0
N	-2.874315	0.306212	0.893906	7
C	-1.723305	0.306212	0.893906	6
C	-0.279305	0.306212	0.893906	6
C	0.286975	-0.942208	0.199086	6
C	0.757854	-0.382528	-1.091064	6
C	0.701294	0.941662	-1.016384	6
O	0.226315	1.463352	0.168366	8
H	0.096235	0.369682	1.921636	1
H	-0.449625	-1.740878	0.066766	1
H	1.140965	-1.346858	0.753686	1
H	1.117614	-0.953518	-1.932894	1
H	0.999305	1.672662	-1.750914	1
Es	-2.350987	0.600379	0.984543	99
Es	0.286956	-0.942125	0.199097	99
Es	0.002240	1.644654	0.102540	99
Es	0.226276	1.463025	0.168204	99
Es	-0.053995	0.348793	1.582885	99
Es	-0.213635	-1.469746	0.116582	99
Es	0.474769	1.537403	0.297852	99
Es	-0.030914	-0.316749	0.565351	99
Es	-1.045147	0.310322	0.889259	99
Es	1.040996	0.251548	-0.961897	99
Es	-2.333691	0.075599	1.108512	99
Es	-1.722950	0.306212	0.893906	99
Es	0.517053	-0.695206	-0.456986	99
Es	-0.279396	0.306383	0.893752	99
Es	-2.350998	0.233218	0.590547	99
Es	-2.873864	0.306208	0.893908	99
Es	0.427854	0.242268	-1.208008	99
Es	0.899991	1.437711	-1.505819	99
Es	-3.240334	0.303975	0.895372	99
Es	0.392327	1.248516	-0.284143	99
Es	0.757831	-0.382621	-1.091027	99
Es	0.022650	1.008527	0.433999	99
Es	0.701206	0.941896	-1.016163	99
Es	0.862058	-1.207079	0.578562	99
Es	0.996872	-0.772356	-1.649005	99
37
Properties=species:S:1:pos:R:3:Z:I:1 energy=-321.6281881398294 field_type=dipole dipole="0.000000 0.000000 0.000000" charge=0
N	-2.874315	0.306212	0.893906	7
C	-1.723305	0.306212	0.893906	6
C	-0.279305	0.306212	0.893906	6
C	0.286975	-0.942208	0.199086	6
C	0.757854	-0.382528	-1.091064	6
C	0.701294	0.941662	-1.016384	6
O	0.226315	1.463352	0.168366	8
H	0.096235	0.369682	1.921636	1
H	-0.449625	-1.740878	0.066766	1
H	1.140965	-1.346858	0.753686	1
H	1.117614	-0.953518	-1.932894	1
H	0.999305	1.672662	-1.750914	1
Es	0.996886	-0.772283	-1.649068	99
Es	-1.722952	0.306211	0.893906	99
Es	-0.279395	0.306381	0.893754	99
Es	-0.053999	0.348747	1.582933	99
Es	0.021572	1.008773	0.433509	99
Es	0.427997	0.242351	-1.207917	99
Es	1.040822	0.251464	-0.961841	99
Es	0.392187	1.248764	-0.284711	99
Es	-2.347065	0.304968	0.582598	99
Es	-0.031068	-0.316762	0.565317	99
Es	0.286957	-0.942125	0.199097	99
Es	0.861977	-1.207047	0.578523	99
Es	-3.239999	0.303246	0.894503	99
Es	0.900086	1.437687	-1.505884	99
Es	-0.213563	-1.469791	0.116587	99
Es	0.003300	1.645879	0.103592	99
Es	-2.873866	0.306208	0.893907	99
Es	0.226335	1.462980	0.168236	99
Es	0.701201	0.941895	-1.016166	99
Es	0.517029	-0.695290	-0.457042	99
Es	0.757830	-0.382621	-1.091026	99
Es	0.474871	1.535817	0.297855	99
Es	-2.354737	0.572414	1.051641	99
Es	-1.045032	0.310430	0.889449	99
Es	-2.334205	0.032460	1.050071	99
37
Properties=species:S:1:pos:R:3:Z:I:1 energy=-321.6281881398294 field_type=dipole dipole="0.000000 0.000000 0.000000" charge=0
N	-2.874315	0.306212	0.893906	7
C	-1.723305	0.306212	0.893906	6
C	-0.279305	0.306212	0.893906	6
C	0.286975	-0.942208	0.199086	6
C	0.757854	-0.382528	-1.091064	6
C	0.701294	0.941662	-1.016384	6
O	0.226315	1.463352	0.168366	8
H	0.096235	0.369682	1.921636	1
H	-0.449625	-1.740878	0.066766	1
H	1.140965	-1.346858	0.753686	1
H	1.117614	-0.953518	-1.932894	1
H	0.999305	1.672662	-1.750914	1
Es	0.003633	1.645595	0.104101	99
Es	0.757830	-0.382620	-1.091027	99
Es	-0.030995	-0.316817	0.565352	99
Es	0.021869	1.008673	0.433993	99
Es	-2.333834	0.050785	1.078552	99
Es	-3.239908	0.303567	0.894666	99
Es	-0.054159	0.348827	1.582988	99
Es	-0.213589	-1.469738	0.116582	99
Es	0.701203	0.941890	-1.016167	99
Es	0.286957	-0.942126	0.199096	99
Es	-2.873868	0.306208	0.893907	99
Es	0.391300	1.248994	-0.285113	99
Es	0.996785	-0.772274	-1.648968	99
Es	-1.722953	0.306212	0.893906	99
Es	-0.279396	0.306382	0.893754	99
Es	0.226368	1.462953	0.168255	99
Es	0.900132	1.437680	-1.505921	99
Es	1.040818	0.251531	-0.961961	99
Es	0.517064	-0.695333	-0.456941	99
Es	-2.349051	0.270669	0.584284	99
Es	0.861969	-1.207110	0.578514	99
Es	-1.044861	0.310423	0.889318	99
Es	0.475057	1.536048	0.297224	99
Es	0.428030	0.242281	-1.207958	99
Es	-2.353234	0.588058	1.021388	99
37
Properties=species:S:1:pos:R:3:Z:I:1 energy=-321.6281881398294 field_type=dipole dipole="0.000000 0.000000 0.000000" charge=0
N	-2.874315	0.306212	0.893906	7
C	-1.723305	0.306212	0.893906	6
C	-0.279305	0.306212	0.893906	6
C	0.286975	-0.942208	0.199086	6
C	0.757854	-0.382528	-1.091064	6
C	0.701294	0.941662	-1.016384	6
O	0.226315	1.463352	0.168366	8
H	0.096235	0.369682	1.921636	1
H	-0.449625	-1.740878	0.066766	1
H	1.140965	-1.346858	0.753686	1
H	1.117614	-0.953518	-1.932894	1
H	0.999305	1.672662	-1.750914	1
Es	-0.213530	-1.469810	0.116577	99
Es	0.428217	0.242340	-1.207768	99
Es	0.022079	1.008535	0.434374	99
Es	-1.722950	0.306212	0.893906	99
Es	0.757831	-0.382619	-1.091025	99
Es	-0.279396	0.306380	0.893755	99
Es	-0.054183	0.348773	1.582945	99
Es	1.040800	0.251471	-0.961935	99
Es	-3.239752	0.303400	0.894153	99
Es	-2.346217	0.320112	0.583394	99
Es	0.701190	0.941897	-1.016167	99
Es	-0.031127	-0.316871	0.565319	99
Es	0.517081	-0.695341	-0.456985	99
Es	-2.334735	0.024765	1.036338	99
Es	0.226327	1.463118	0.168280	99
Es	0.474596	1.538764	0.298097	99
Es	0.900062	1.437665	-1.505979	99
Es	0.391627	1.249288	-0.285220	99
Es	-2.355304	0.564793	1.064876	99
Es	-2.873868	0.306208	0.893906	99
Es	0.003636	1.642629	0.102973	99
Es	0.996736	-0.772259	-1.649096	99
Es	0.286957	-0.942124	0.199097	99
Es	0.861923	-1.207042	0.578515	99
Es	-1.044835	0.310472	0.889495	99
37
Properties=species:S:1:pos:R:3:Z:I:1 energy=-321.6281881398294 field_type=dipole dipole="0.000000 0.000000 0.000000" charge=0
N	-2.874315	0.306212	0.893906	7
C	-1.723305	0.306212	0.893906	6
C	-0.279305	0.306212	0.893906	6
C	0.286975	-0.942208	0.199086	6
C	0.757854	-0.382528	-1.091064	6
C	0.701294	0.941662	-1.016384	6
O	0.226315	1.463352	0.168366	8
H	0.096235	0.369682	1.921636	1
H	-0.449625	-1.740878	0.066766	1
H	1.140965	-1.346858	0.753686	1
H	1.117614	-0.953518	-1.932894	1
H	0.999305	1.672662	-1.750914	1
Es	1.040688	0.251513	-0.961990	99
Es	0.701198	0.941895	-1.016168	99
Es	0.286957	-0.942125	0.199095	99
Es	0.226390	1.462967	0.168263	99
Es	0.393308	1.248576	-0.284482	99
Es	0.900115	1.437673	-1.505997	99
Es	-0.279394	0.306380	0.893755	99
Es	-0.054228	0.348822	1.582927	99
Es	-2.873865	0.306208	0.893906	99
Es	-3.239688	0.303471	0.894562	99
Es	-2.334208	0.036269	1.056999	99
Es	-1.722954	0.306211	0.893907	99
Es	0.757830	-0.382621	-1.091025	99
Es	0.861952	-1.207023	0.578475	99
Es	-2.354431	0.576892	1.044616	99
Es	0.516976	-0.695503	-0.456993	99
Es	-1.044714	0.310507	0.889491	99
Es	-2.347699	0.296421	0.582657	99
Es	0.428306	0.242301	-1.207771	99
Es	0.003364	1.643240	0.102028	99
Es	0.021583	1.008911	0.434197	99
Es	0.996727	-0.772184	-1.649093	99
Es	0.473594	1.538649	0.298479	99
Es	-0.031141	-0.316892	0.565312	99
Es	-0.213498	-1.469801	0.116674	99
