48
Properties=species:S:1:pos:R:3:Z:I:1 energy=-289.29198518380446 field_type=dipole dipole="0.000000 0.000000 0.000000" charge=0
C	-2.245450	-0.456472	0.063220	6
C	-0.756830	-0.442432	0.305080	6
C	-0.378740	-0.525503	1.761871	6
C	0.132241	-1.139863	-0.703040	6
C	0.094450	0.368208	-0.664009	6
C	1.290980	1.152358	-0.233049	6
N	2.118761	1.376477	-1.410179	7
H	-2.488950	-0.398542	-1.003209	1
H	-2.718930	0.395238	0.562810	1
H	-2.687600	-1.377582	0.457140	1
H	0.689920	-0.707902	1.908900	1
H	-0.916189	-1.346102	2.248620	1
H	-0.640740	0.406078	2.273690	1
H	-0.328630	-1.630352	-1.554039	1
H	1.024160	-1.645562	-0.348720	1
H	-0.431190	0.879318	-1.466760	1
H	1.881270	0.632448	0.527231	1
H	0.973140	2.114177	0.180750	1
H	2.424040	0.474387	-1.774059	1
H	2.964280	1.871627	-1.132249	1
Es	1.691099	0.786188	0.300070	99
Es	0.094416	0.368048	-0.663921	99
Es	0.132199	-1.139717	-0.702986	99
Es	-2.245437	-0.456470	0.063224	99
Es	-2.405325	-0.416525	-0.665856	99
Es	1.779090	1.269663	-0.888477	99
Es	-2.565558	0.125074	0.407139	99
Es	2.636960	1.663391	-1.226180	99
Es	-0.185962	-1.473286	-1.280634	99
Es	2.310508	0.824008	-1.608418	99
Es	2.119038	1.376194	-1.409783	99
Es	-0.378744	-0.525499	1.761851	99
Es	1.944396	1.557183	-1.661023	99
Es	-0.559739	0.110974	2.109949	99
Es	1.291043	1.152366	-0.233169	99
Es	-0.388640	0.131008	-0.094222	99
Es	-2.544980	-1.085857	0.335291	99
Es	0.691790	0.742922	-0.427977	99
Es	-0.756729	-0.442434	0.304971	99
Es	-0.553373	-0.480998	1.031408	99
Es	0.743408	-1.477526	-0.456198	99
Es	0.242896	-0.387030	-0.826046	99
Es	-0.364176	-0.969823	-0.144285	99
Es	-1.501370	-0.450264	0.174545	99
Es	0.351172	-0.647188	1.856201	99
Es	1.074804	1.813065	0.051195	99
Es	-0.269722	0.707024	-1.207767	99
Es	-0.748707	-1.084927	2.088719	99
48
Properties=species:S:1:pos:R:3:Z:I:1 energy=-289.29198518380446 field_type=dipole dipole="0.000000 0.000000 0.000000" charge=0
C	-2.245450	-0.456472	0.063220	6
C	-0.756830	-0.442432	0.305080	6
C	-0.378740	-0.525503	1.761871	6
C	0.132241	-1.139863	-0.703040	6
C	0.094450	0.368208	-0.664009	6
C	1.290980	1.152358	-0.233049	6
N	2.118761	1.376477	-1.410179	7
H	-2.488950	-0.398542	-1.003209	1
H	-2.718930	0.395238	0.562810	1
H	-2.687600	-1.377582	0.457140	1
H	0.689920	-0.707902	1.908900	1
H	-0.916189	-1.346102	2.248620	1
H	-0.640740	0.406078	2.273690	1
H	-0.328630	-1.630352	-1.554039	1
H	1.024160	-1.645562	-0.348720	1
H	-0.431190	0.879318	-1.466760	1
H	1.881270	0.632448	0.527231	1
H	0.973140	2.114177	0.180750	1
H	2.424040	0.474387	-1.774059	1
H	2.964280	1.871627	-1.132249	1
Es	-0.553617	-0.480971	1.031455	99
Es	0.743406	-1.477458	-0.456171	99
Es	1.691055	0.786198	0.300072	99
Es	-2.245436	-0.456470	0.063223	99
Es	-1.501211	-0.450358	0.174600	99
Es	0.691816	0.742932	-0.428056	99
Es	2.636907	1.663621	-1.226361	99
Es	-2.565569	0.125065	0.407095	99
Es	2.119057	1.376178	-1.409771	99
Es	0.351238	-0.647190	1.856111	99
Es	-0.364308	-0.970016	-0.144322	99
Es	-0.269602	0.706978	-1.207602	99
Es	-0.559754	0.110965	2.109992	99
Es	-0.388859	0.131226	-0.093980	99
Es	-0.378745	-0.525499	1.761852	99
Es	-2.405248	-0.416463	-0.665808	99
Es	1.944500	1.556962	-1.660747	99
Es	1.074745	1.813093	0.051198	99
Es	-0.185681	-1.473273	-1.280512	99
Es	-0.748653	-1.084918	2.088704	99
Es	-2.545113	-1.085843	0.335197	99
Es	1.291043	1.152368	-0.233172	99
Es	2.310545	0.824023	-1.608607	99
Es	0.094418	0.368041	-0.663924	99
Es	-0.756729	-0.442434	0.304971	99
Es	0.242928	-0.387078	-0.826393	99
Es	1.779018	1.269613	-0.888436	99
Es	0.132202	-1.139728	-0.702988	99
48
Properties=species:S:1:pos:R:3:Z:I:1 energy=-289.29198518380446 field_type=dipole dipole="0.000000 0.000000 0.000000" charge=0
C	-2.245450	-0.456472	0.063220	6
C	-0.756830	-0.442432	0.305080	6
C	-0.378740	-0.525503	1.761871	6
C	0.132241	-1.139863	-0.703040	6
C	0.094450	0.368208	-0.664009	6
C	1.290980	1.152358	-0.233049	6
N	2.118761	1.376477	-1.410179	7
H	-2.488950	-0.398542	-1.003209	1
H	-2.718930	0.395238	0.562810	1
H	-2.687600	-1.377582	0.457140	1
H	0.689920	-0.707902	1.908900	1
H	-0.916189	-1.346102	2.248620	1
H	-0.640740	0.406078	2.273690	1
H	-0.328630	-1.630352	-1.554039	1
H	1.024160	-1.645562	-0.348720	1
H	-0.431190	0.879318	-1.466760	1
H	1.881270	0.632448	0.527231	1
H	0.973140	2.114177	0.180750	1
H	2.424040	0.474387	-1.774059	1
H	2.964280	1.871627	-1.132249	1
Es	1.944553	1.557033	-1.660850	99
Es	2.636969	1.663472	-1.226350	99
Es	0.132199	-1.139721	-0.702985	99
Es	-0.269559	0.706963	-1.207536	99
Es	0.094426	0.368040	-0.663931	99
Es	1.779036	1.269628	-0.888311	99
Es	1.074791	1.813070	0.051265	99
Es	-2.245434	-0.456470	0.063220	99
Es	-2.565530	0.125016	0.407157	99
Es	-2.544967	-1.085816	0.335310	99
Es	-0.364368	-0.970001	-0.144004	99
Es	-0.388821	0.131332	-0.094057	99
Es	0.691667	0.742986	-0.428091	99
Es	-1.501259	-0.450382	0.174540	99
Es	1.291044	1.152366	-0.233171	99
Es	-0.378744	-0.525499	1.761852	99
Es	-0.553769	-0.480963	1.031288	99
Es	0.743299	-1.477496	-0.456317	99
Es	2.310483	0.824136	-1.608584	99
Es	-0.559572	0.110958	2.110087	99
Es	-0.748612	-1.084919	2.088798	99
Es	0.351124	-0.647240	1.855999	99
Es	0.243212	-0.387083	-0.826677	99
Es	2.119055	1.376178	-1.409770	99
Es	-2.405393	-0.416510	-0.665894	99
Es	1.690990	0.786187	0.300018	99
Es	-0.756727	-0.442420	0.304971	99
Es	-0.185739	-1.473281	-1.280355	99
48
Properties=species:S:1:pos:R:3:Z:I:1 energy=-289.29198518380446 field_type=dipole dipole="0.000000 0.000000 0.000000" charge=0
C	-2.245450	-0.456472	0.063220	6
C	-0.756830	-0.442432	0.305080	6
C	-0.378740	-0.525503	1.761871	6
C	0.132241	-1.139863	-0.703040	6
C	0.094450	0.368208	-0.664009	6
C	1.290980	1.152358	-0.233049	6
N	2.118761	1.376477	-1.410179	7
H	-2.488950	-0.398542	-1.003209	1
H	-2.718930	0.395238	0.562810	1
H	-2.687600	-1.377582	0.457140	1
H	0.689920	-0.707902	1.908900	1
H	-0.916189	-1.346102	2.248620	1
H	-0.640740	0.406078	2.273690	1
H	-0.328630	-1.630352	-1.554039	1
H	1.024160	-1.645562	-0.348720	1
H	-0.431190	0.879318	-1.466760	1
H	1.881270	0.632448	0.527231	1
H	0.973140	2.114177	0.180750	1
H	2.424040	0.474387	-1.774059	1
H	2.964280	1.871627	-1.132249	1
Es	0.243249	-0.386898	-0.826851	99
Es	0.351146	-0.647267	1.856110	99
Es	-0.185674	-1.473316	-1.280281	99
Es	0.691604	0.743005	-0.428115	99
Es	0.743213	-1.477394	-0.456463	99
Es	1.074845	1.813003	0.051271	99
Es	-0.388896	0.131305	-0.093842	99
Es	-2.545100	-1.085886	0.335171	99
Es	-2.565622	0.125057	0.407074	99
Es	-2.245437	-0.456471	0.063223	99
Es	1.779018	1.269870	-0.888464	99
Es	1.291042	1.152365	-0.233170	99
Es	-1.501159	-0.450303	0.174624	99
Es	-0.553754	-0.480920	1.031220	99
Es	2.310647	0.824146	-1.607647	99
Es	-0.748623	-1.084848	2.088751	99
Es	2.119055	1.376169	-1.409746	99
Es	-2.405243	-0.416465	-0.665743	99
Es	-0.378746	-0.525500	1.761850	99
Es	0.094426	0.368042	-0.663931	99
Es	-0.756727	-0.442436	0.304969	99
Es	-0.559612	0.110919	2.110082	99
Es	-0.269556	0.706959	-1.207405	99
Es	-0.364320	-0.970329	-0.143979	99
Es	0.132203	-1.139730	-0.702990	99
Es	1.690991	0.786220	0.300018	99
Es	1.944370	1.556631	-1.661616	99
Es	2.637012	1.663633	-1.226500	99
48
Properties=species:S:1:pos:R:3:Z:I:1 energy=-289.29198518380446 field_type=dipole dipole="0.000000 0.000000 0.000000" charge=0
C	-2.245450	-0.456472	0.063220	6
C	-0.756830	-0.442432	0.305080	6
C	-0.378740	-0.525503	1.761871	6
C	0.132241	-1.139863	-0.703040	6
C	0.094450	0.368208	-0.664009	6
C	1.290980	1.152358	-0.233049	6
N	2.118761	1.376477	-1.410179	7
H	-2.488950	-0.398542	-1.003209	1
H	-2.718930	0.395238	0.562810	1
H	-2.687600	-1.377582	0.457140	1
H	0.689920	-0.707902	1.908900	1
H	-0.916189	-1.346102	2.248620	1
H	-0.640740	0.406078	2.273690	1
H	-0.328630	-1.630352	-1.554039	1
H	1.024160	-1.645562	-0.348720	1
H	-0.431190	0.879318	-1.466760	1
H	1.881270	0.632448	0.527231	1
H	0.973140	2.114177	0.180750	1
H	2.424040	0.474387	-1.774059	1
H	2.964280	1.871627	-1.132249	1
Es	1.690938	0.786241	0.300008	99
Es	-0.269444	0.706935	-1.207344	99
Es	1.291043	1.152366	-0.233169	99
Es	2.119038	1.376194	-1.409786	99
Es	-0.553815	-0.480909	1.031193	99
Es	0.743122	-1.477440	-0.456457	99
Es	0.243411	-0.386940	-0.827067	99
Es	1.074880	1.812950	0.051290	99
Es	-2.405301	-0.416477	-0.665771	99
Es	-2.545044	-1.085844	0.335161	99
Es	1.944638	1.557080	-1.660801	99
Es	-0.378742	-0.525500	1.761854	99
Es	-2.565653	0.125006	0.407103	99
Es	2.636952	1.663365	-1.226447	99
Es	-0.389000	0.131493	-0.093805	99
Es	0.094424	0.368037	-0.663930	99
Es	0.351149	-0.647273	1.856095	99
Es	-2.245435	-0.456470	0.063223	99
Es	-0.364498	-0.970443	-0.143926	99
Es	-0.748635	-1.084841	2.088772	99
Es	1.779098	1.269708	-0.888320	99
Es	0.132198	-1.139715	-0.702984	99
Es	-0.756727	-0.442435	0.304969	99
Es	-0.559589	0.110913	2.110072	99
Es	2.310436	0.824125	-1.608646	99
Es	-0.185528	-1.473263	-1.280191	99
Es	-1.501071	-0.450304	0.174662	99
Es	0.691510	0.743004	-0.428137	99
48
Properties=species:S:1:pos:R:3:Z:I:1 energy=-289.29198518380446 field_type=dipole dipole="0.000000 0.000000 0.000000" charge=0
C	-2.245450	-0.456472	0.063220	6
C	-0.756830	-0.442432	0.305080	6
C	-0.378740	-0.525503	1.761871	6
C	0.132241	-1.139863	-0.703040	6
C	0.094450	0.368208	-0.664009	6
C	1.290980	1.152358	-0.233049	6
N	2.118761	1.376477	-1.410179	7
H	-2.488950	-0.398542	-1.003209	1
H	-2.718930	0.395238	0.562810	1
H	-2.687600	-1.377582	0.457140	1
H	0.689920	-0.707902	1.908900	1
H	-0.916189	-1.346102	2.248620	1
H	-0.640740	0.406078	2.273690	1
H	-0.328630	-1.630352	-1.554039	1
H	1.024160	-1.645562	-0.348720	1
H	-0.431190	0.879318	-1.466760	1
H	1.881270	0.632448	0.527231	1
H	0.973140	2.114177	0.180750	1
H	2.424040	0.474387	-1.774059	1
H	2.964280	1.871627	-1.132249	1
Es	2.636967	1.663322	-1.226458	99
Es	-2.565655	0.125015	0.407057	99
Es	-2.405270	-0.416508	-0.665795	99
Es	1.778734	1.269891	-0.888344	99
Es	1.690896	0.786214	0.299984	99
Es	1.291043	1.152365	-0.233169	99
Es	-0.559697	0.110869	2.110100	99
Es	-0.756725	-0.442435	0.304967	99
Es	-2.245436	-0.456470	0.063223	99
Es	0.351159	-0.647179	1.856137	99
Es	2.119053	1.376188	-1.409783	99
Es	2.310379	0.824139	-1.608782	99
Es	-0.378744	-0.525499	1.761852	99
Es	0.691383	0.743079	-0.428178	99
Es	1.945065	1.556965	-1.660659	99
Es	1.074937	1.812896	0.051332	99
Es	0.094423	0.368037	-0.663929	99
Es	-0.388869	0.131686	-0.093897	99
Es	0.243510	-0.386873	-0.826913	99
Es	-0.269430	0.706926	-1.207260	99
Es	-0.553816	-0.480906	1.031141	99
Es	0.742934	-1.477460	-0.456442	99
Es	-0.748549	-1.084885	2.088735	99
Es	-0.364661	-0.970865	-0.143932	99
Es	-1.501037	-0.450236	0.174750	99
Es	-2.545070	-1.085813	0.335179	99
Es	-0.185367	-1.473176	-1.280310	99
Es	0.132197	-1.139724	-0.702984	99
48
Properties=species:S:1:pos:R:3:Z:I:1 energy=-289.29198518380446 field_type=dipole dipole="0.000000 0.000000 0.000000" charge=0
C	-2.245450	-0.456472	0.063220	6
C	-0.756830	-0.442432	0.305080	6
C	-0.378740	-0.525503	1.761871	6
C	0.132241	-1.139863	-0.703040	6
C	0.094450	0.368208	-0.664009	6
C	1.290980	1.152358	-0.233049	6
N	2.118761	1.376477	-1.410179	7
H	-2.488950	-0.398542	-1.003209	1
H	-2.718930	0.395238	0.562810	1
H	-2.687600	-1.377582	0.457140	1
H	0.689920	-0.707902	1.908900	1
H	-0.916189	-1.346102	2.248620	1
H	-0.640740	0.406078	2.273690	1
H	-0.328630	-1.630352	-1.554039	1
H	1.024160	-1.645562	-0.348720	1
H	-0.431190	0.879318	-1.466760	1
H	1.881270	0.632448	0.527231	1
H	0.973140	2.114177	0.180750	1
H	2.424040	0.474387	-1.774059	1
H	2.964280	1.871627	-1.132249	1
Es	-2.245436	-0.456470	0.063223	99
Es	1.944785	1.556373	-1.660839	99
Es	0.243673	-0.386845	-0.827467	99
Es	-0.748604	-1.084808	2.088795	99
Es	-0.378744	-0.525499	1.761853	99
Es	2.310767	0.824175	-1.608379	99
Es	-1.500888	-0.450298	0.174746	99
Es	-0.364623	-0.970767	-0.143837	99
Es	-0.559599	0.110853	2.110067	99
Es	-0.389181	0.131687	-0.093662	99
Es	0.132197	-1.139715	-0.702984	99
Es	2.636754	1.663894	-1.226830	99
Es	-0.269327	0.706904	-1.207184	99
Es	-2.405310	-0.416518	-0.665736	99
Es	-2.545093	-1.085796	0.335174	99
Es	-0.185371	-1.473249	-1.279991	99
Es	0.351144	-0.647242	1.856162	99
Es	1.778865	1.269843	-0.888233	99
Es	2.119068	1.376192	-1.409767	99
Es	-0.756727	-0.442434	0.304969	99
Es	0.691407	0.743023	-0.428181	99
Es	-0.553893	-0.480903	1.031074	99
Es	-2.565668	0.125002	0.407025	99
Es	1.690862	0.786271	0.299980	99
Es	1.074893	1.812910	0.051326	99
Es	1.291042	1.152366	-0.233169	99
Es	0.742937	-1.477427	-0.456583	99
Es	0.094425	0.368037	-0.663931	99
48
Properties=species:S:1:pos:R:3:Z:I:1 energy=-289.29198518380446 field_type=dipole dipole="0.000000 0.000000 0.000000" charge=0
C	-2.245450	-0.456472	0.063220	6
C	-0.756830	-0.442432	0.305080	6
C	-0.378740	-0.525503	1.761871	6
C	0.132241	-1.139863	-0.703040	6
C	0.094450	0.368208	-0.664009	6
C	1.290980	1.152358	-0.233049	6
N	2.118761	1.376477	-1.410179	7
H	-2.488950	-0.398542	-1.003209	1
H	-2.718930	0.395238	0.562810	1
H	-2.687600	-1.377582	0.457140	1
H	0.689920	-0.707902	1.908900	1
H	-0.916189	-1.346102	2.248620	1
H	-0.640740	0.406078	2.273690	1
H	-0.328630	-1.630352	-1.554039	1
H	1.024160	-1.645562	-0.348720	1
H	-0.431190	0.879318	-1.466760	1
H	1.881270	0.632448	0.527231	1
H	0.973140	2.114177	0.180750	1
H	2.424040	0.474387	-1.774059	1
H	2.964280	1.871627	-1.132249	1
Es	-0.748594	-1.084824	2.088794	99
Es	-0.559598	0.110857	2.110077	99
Es	2.310546	0.824070	-1.608769	99
Es	-1.500867	-0.450325	0.174790	99
Es	1.074912	1.812866	0.051338	99
Es	0.691352	0.743022	-0.428224	99
Es	-0.378744	-0.525499	1.761852	99
Es	1.291042	1.152366	-0.233168	99
Es	0.132195	-1.139710	-0.702981	99
Es	-2.545102	-1.085797	0.335167	99
Es	-2.245437	-0.456469	0.063224	99
Es	-2.405306	-0.416506	-0.665742	99
Es	-2.565666	0.124989	0.407023	99
Es	-0.269245	0.706867	-1.207134	99
Es	-0.553915	-0.480900	1.031025	99
Es	0.094423	0.368036	-0.663929	99
Es	2.636810	1.663485	-1.226537	99
Es	0.243792	-0.386823	-0.827632	99
Es	0.742845	-1.477395	-0.456657	99
Es	-0.364695	-0.970891	-0.143717	99
Es	1.778721	1.269938	-0.888371	99
Es	2.119023	1.376215	-1.409805	99
Es	-0.389263	0.131829	-0.093590	99
Es	-0.185290	-1.473246	-1.279915	99
Es	1.690833	0.786291	0.299977	99
Es	-0.756724	-0.442434	0.304965	99
Es	1.945180	1.556787	-1.660593	99
Es	0.351125	-0.647234	1.856154	99
48
Properties=species:S:1:pos:R:3:Z:I:1 energy=-289.29198518380446 field_type=dipole dipole="0.000000 0.000000 0.000000" charge=0
C	-2.245450	-0.456472	0.063220	6
C	-0.756830	-0.442432	0.305080	6
C	-0.378740	-0.525503	1.761871	6
C	0.132241	-1.139863	-0.703040	6
C	0.094450	0.368208	-0.664009	6
C	1.290980	1.152358	-0.233049	6
N	2.118761	1.376477	-1.410179	7
H	-2.488950	-0.398542	-1.003209	1
H	-2.718930	0.395238	0.562810	1
H	-2.687600	-1.377582	0.457140	1
H	0.689920	-0.707902	1.908900	1
H	-0.916189	-1.346102	2.248620	1
H	-0.640740	0.406078	2.273690	1
H	-0.328630	-1.630352	-1.554039	1
H	1.024160	-1.645562	-0.348720	1
H	-0.431190	0.879318	-1.466760	1
H	1.881270	0.632448	0.527231	1
H	0.973140	2.114177	0.180750	1
H	2.424040	0.474387	-1.774059	1
H	2.964280	1.871627	-1.132249	1
Es	0.691346	0.743095	-0.428334	99
Es	-1.500825	-0.450235	0.174868	99
Es	-2.245435	-0.456471	0.063225	99
Es	-0.553939	-0.481055	1.030933	99
Es	1.291042	1.152366	-0.233169	99
Es	-0.185055	-1.473181	-1.279895	99
Es	-0.269164	0.706781	-1.207065	99
Es	-0.364996	-0.971167	-0.143612	99
Es	2.310572	0.824203	-1.608655	99
Es	1.690790	0.786233	0.299938	99
Es	1.945235	1.556452	-1.660617	99
Es	0.243796	-0.386747	-0.827729	99
Es	1.074973	1.812860	0.051394	99
Es	-0.756724	-0.442436	0.304963	99
Es	2.119042	1.376194	-1.409783	99
Es	-0.559666	0.110884	2.110074	99
Es	-2.545045	-1.085780	0.335213	99
Es	-0.389288	0.132011	-0.093506	99
Es	-2.405298	-0.416577	-0.665776	99
Es	-0.748546	-1.084742	2.088764	99
Es	0.351136	-0.647257	1.856230	99
Es	2.636871	1.663712	-1.226714	99
Es	0.132200	-1.139718	-0.702988	99
Es	-0.378744	-0.525500	1.761854	99
Es	1.778572	1.269932	-0.888334	99
Es	-2.565709	0.124988	0.406985	99
Es	0.094422	0.368033	-0.663928	99
Es	0.742790	-1.477315	-0.456715	99
