44
Properties=species:S:1:pos:R:3:Z:I:1 energy=-360.96024536305515 field_type=dipole dipole="0.000000 0.000000 0.000000" charge=0
N	-2.032871	-0.195282	0.731389	7
C	-1.001521	-0.893362	-0.027441	6
C	0.215369	-0.022892	-0.172951	6
C	1.037839	0.190198	1.068559	6
O	2.241909	0.901338	0.786679	8
C	0.811369	0.171648	-1.555531	6
O	-0.000051	1.180878	-0.940011	8
H	-2.889220	-0.747692	0.718699	1
H	-2.252970	0.674178	0.241409	1
H	-1.404641	-1.169342	-1.008371	1
H	-0.735871	-1.823892	0.485939	1
H	1.318979	-0.771802	1.510399	1
H	0.478250	0.760168	1.818950	1
H	1.953479	1.747128	0.391649	1
H	0.387039	-0.365642	-2.395111	1
H	1.872910	0.364368	-1.654261	1
Es	-0.284942	1.175593	-1.063970	99
Es	1.523734	0.312479	-1.629346	99
Es	-0.391260	-0.454054	-0.100725	99
Es	1.222087	-0.470814	1.359423	99
Es	1.038009	0.190295	1.068450	99
Es	-2.167285	0.313845	0.420017	99
Es	0.017801	0.772887	-0.578179	99
Es	2.391870	0.743024	0.565981	99
Es	0.000089	1.180564	-0.939992	99
Es	-2.033041	-0.195406	0.730820	99
Es	0.624202	0.080974	0.435731	99
Es	2.073052	1.347541	0.577351	99
Es	-2.546948	-0.534818	0.702922	99
Es	1.770554	0.644360	0.880628	99
Es	0.215315	-0.022643	-0.173137	99
Es	0.515122	-0.189601	-2.128432	99
Es	0.319560	0.864322	-1.260743	99
Es	-1.928024	-0.129948	1.064086	99
Es	-1.001581	-0.893274	-0.027359	99
Es	0.811171	0.171851	-1.555370	99
Es	-1.592482	-0.501341	0.384489	99
Es	0.623288	-0.151101	-0.847100	99
Es	-1.267062	-1.082672	-0.710567	99
Es	2.241600	0.901432	0.786596	99
Es	2.364740	0.967498	1.058197	99
Es	0.185946	1.406017	-0.825428	99
Es	-0.811789	-1.524874	0.324393	99
Es	0.643979	0.574932	1.567743	99
44
Properties=species:S:1:pos:R:3:Z:I:1 energy=-360.96024536305515 field_type=dipole dipole="0.000000 0.000000 0.000000" charge=0
N	-2.032871	-0.195282	0.731389	7
C	-1.001521	-0.893362	-0.027441	6
C	0.215369	-0.022892	-0.172951	6
C	1.037839	0.190198	1.068559	6
O	2.241909	0.901338	0.786679	8
C	0.811369	0.171648	-1.555531	6
O	-0.000051	1.180878	-0.940011	8
H	-2.889220	-0.747692	0.718699	1
H	-2.252970	0.674178	0.241409	1
H	-1.404641	-1.169342	-1.008371	1
H	-0.735871	-1.823892	0.485939	1
H	1.318979	-0.771802	1.510399	1
H	0.478250	0.760168	1.818950	1
H	1.953479	1.747128	0.391649	1
H	0.387039	-0.365642	-2.395111	1
H	1.872910	0.364368	-1.654261	1
Es	-1.267028	-1.082613	-0.710589	99
Es	-1.927115	-0.129046	1.063999	99
Es	2.388345	0.743665	0.564192	99
Es	1.038011	0.190296	1.068451	99
Es	0.318597	0.864148	-1.261690	99
Es	2.368502	0.966047	1.057442	99
Es	-0.284613	1.179182	-1.063491	99
Es	0.187849	1.403348	-0.824936	99
Es	-1.592870	-0.501155	0.384005	99
Es	-0.811838	-1.524919	0.324382	99
Es	0.000112	1.180590	-0.939983	99
Es	-0.391145	-0.454079	-0.100607	99
Es	1.770592	0.644755	0.882161	99
Es	0.811175	0.171846	-1.555375	99
Es	-1.001582	-0.893269	-0.027359	99
Es	0.643982	0.574891	1.567740	99
Es	1.222053	-0.470798	1.359404	99
Es	2.072868	1.347929	0.578292	99
Es	-2.547051	-0.535139	0.703895	99
Es	0.624122	0.081008	0.435675	99
Es	0.515209	-0.189465	-2.128328	99
Es	1.523718	0.312481	-1.629419	99
Es	0.623365	-0.151413	-0.847138	99
Es	0.215313	-0.022640	-0.173139	99
Es	-2.167720	0.313064	0.419571	99
Es	0.016327	0.772255	-0.578200	99
Es	2.241552	0.901483	0.786682	99
Es	-2.033024	-0.195386	0.730842	99
44
Properties=species:S:1:pos:R:3:Z:I:1 energy=-360.96024536305515 field_type=dipole dipole="0.000000 0.000000 0.000000" charge=0
N	-2.032871	-0.195282	0.731389	7
C	-1.001521	-0.893362	-0.027441	6
C	0.215369	-0.022892	-0.172951	6
C	1.037839	0.190198	1.068559	6
O	2.241909	0.901338	0.786679	8
C	0.811369	0.171648	-1.555531	6
O	-0.000051	1.180878	-0.940011	8
H	-2.889220	-0.747692	0.718699	1
H	-2.252970	0.674178	0.241409	1
H	-1.404641	-1.169342	-1.008371	1
H	-0.735871	-1.823892	0.485939	1
H	1.318979	-0.771802	1.510399	1
H	0.478250	0.760168	1.818950	1
H	1.953479	1.747128	0.391649	1
H	0.387039	-0.365642	-2.395111	1
H	1.872910	0.364368	-1.654261	1
Es	0.644006	0.574861	1.567697	99
Es	2.241574	0.901456	0.786665	99
Es	1.770706	0.643785	0.880909	99
Es	0.515205	-0.189529	-2.128386	99
Es	1.038013	0.190297	1.068448	99
Es	0.811171	0.171849	-1.555373	99
Es	2.072845	1.348599	0.578974	99
Es	2.367602	0.965427	1.057574	99
Es	2.389142	0.744649	0.564636	99
Es	0.624115	0.081005	0.435703	99
Es	-0.811723	-1.524995	0.324305	99
Es	-1.928215	-0.130077	1.063758	99
Es	-0.284931	1.179202	-1.062692	99
Es	0.623385	-0.151449	-0.846925	99
Es	0.318949	0.865469	-1.262771	99
Es	1.523575	0.312455	-1.629412	99
Es	0.186789	1.402492	-0.825252	99
Es	0.017468	0.771907	-0.577765	99
Es	-0.391196	-0.454065	-0.100690	99
Es	-2.033013	-0.195394	0.730858	99
Es	-1.592349	-0.501401	0.384525	99
Es	-1.001580	-0.893275	-0.027362	99
Es	0.215313	-0.022641	-0.173137	99
Es	-2.547029	-0.534770	0.703020	99
Es	1.222045	-0.470835	1.359431	99
Es	-2.167238	0.313983	0.420236	99
Es	0.000077	1.180599	-0.939977	99
Es	-1.267001	-1.082537	-0.710518	99
44
Properties=species:S:1:pos:R:3:Z:I:1 energy=-360.96024536305515 field_type=dipole dipole="0.000000 0.000000 0.000000" charge=0
N	-2.032871	-0.195282	0.731389	7
C	-1.001521	-0.893362	-0.027441	6
C	0.215369	-0.022892	-0.172951	6
C	1.037839	0.190198	1.068559	6
O	2.241909	0.901338	0.786679	8
C	0.811369	0.171648	-1.555531	6
O	-0.000051	1.180878	-0.940011	8
H	-2.889220	-0.747692	0.718699	1
H	-2.252970	0.674178	0.241409	1
H	-1.404641	-1.169342	-1.008371	1
H	-0.735871	-1.823892	0.485939	1
H	1.318979	-0.771802	1.510399	1
H	0.478250	0.760168	1.818950	1
H	1.953479	1.747128	0.391649	1
H	0.387039	-0.365642	-2.395111	1
H	1.872910	0.364368	-1.654261	1
Es	0.319203	0.864212	-1.262166	99
Es	-2.033025	-0.195393	0.730835	99
Es	0.624045	0.080995	0.435628	99
Es	0.811173	0.171856	-1.555370	99
Es	-1.592504	-0.501317	0.384247	99
Es	0.186497	1.403628	-0.825813	99
Es	-0.811804	-1.524928	0.324346	99
Es	-1.266932	-1.082589	-0.710594	99
Es	-2.167211	0.313956	0.420381	99
Es	-2.547016	-0.534678	0.702815	99
Es	-1.001582	-0.893272	-0.027357	99
Es	2.370317	0.964655	1.057326	99
Es	0.016094	0.772925	-0.577105	99
Es	-0.283577	1.178445	-1.063245	99
Es	-0.391164	-0.454063	-0.100514	99
Es	2.386489	0.745444	0.563975	99
Es	1.770549	0.643772	0.881686	99
Es	-1.928114	-0.130202	1.064046	99
Es	1.523487	0.312476	-1.629468	99
Es	0.515283	-0.189380	-2.128376	99
Es	0.623539	-0.151775	-0.846994	99
Es	1.222039	-0.470811	1.359365	99
Es	0.215313	-0.022634	-0.173136	99
Es	0.644009	0.574808	1.567755	99
Es	2.241620	0.901432	0.786625	99
Es	0.000045	1.180567	-0.940008	99
Es	1.038011	0.190302	1.068449	99
Es	2.072919	1.348635	0.579147	99
44
Properties=species:S:1:pos:R:3:Z:I:1 energy=-360.96024536305515 field_type=dipole dipole="0.000000 0.000000 0.000000" charge=0
N	-2.032871	-0.195282	0.731389	7
C	-1.001521	-0.893362	-0.027441	6
C	0.215369	-0.022892	-0.172951	6
C	1.037839	0.190198	1.068559	6
O	2.241909	0.901338	0.786679	8
C	0.811369	0.171648	-1.555531	6
O	-0.000051	1.180878	-0.940011	8
H	-2.889220	-0.747692	0.718699	1
H	-2.252970	0.674178	0.241409	1
H	-1.404641	-1.169342	-1.008371	1
H	-0.735871	-1.823892	0.485939	1
H	1.318979	-0.771802	1.510399	1
H	0.478250	0.760168	1.818950	1
H	1.953479	1.747128	0.391649	1
H	0.387039	-0.365642	-2.395111	1
H	1.872910	0.364368	-1.654261	1
Es	-1.266907	-1.082641	-0.710482	99
Es	0.811168	0.171851	-1.555370	99
Es	-0.391110	-0.454037	-0.100585	99
Es	1.523411	0.312484	-1.629440	99
Es	-2.167650	0.313524	0.419644	99
Es	-1.927761	-0.129325	1.063525	99
Es	2.073368	1.348588	0.578572	99
Es	0.215315	-0.022642	-0.173139	99
Es	-2.546906	-0.534883	0.703951	99
Es	0.643958	0.574863	1.567599	99
Es	-0.811744	-1.524911	0.324310	99
Es	-1.001579	-0.893274	-0.027362	99
Es	0.515363	-0.189332	-2.128407	99
Es	0.000092	1.180583	-0.939988	99
Es	2.241588	0.901435	0.786616	99
Es	-1.592636	-0.501517	0.384389	99
Es	2.388347	0.745098	0.565192	99
Es	0.623572	-0.151902	-0.847007	99
Es	2.368331	0.965292	1.057282	99
Es	1.770308	0.643523	0.881114	99
Es	-2.033001	-0.195403	0.730857	99
Es	0.015843	0.772406	-0.577111	99
Es	0.624088	0.080909	0.435581	99
Es	-0.283277	1.179321	-1.062576	99
Es	1.038008	0.190296	1.068450	99
Es	1.221984	-0.470774	1.359513	99
Es	0.186822	1.402970	-0.825580	99
Es	0.318710	0.864564	-1.263068	99
44
Properties=species:S:1:pos:R:3:Z:I:1 energy=-360.96024536305515 field_type=dipole dipole="0.000000 0.000000 0.000000" charge=0
N	-2.032871	-0.195282	0.731389	7
C	-1.001521	-0.893362	-0.027441	6
C	0.215369	-0.022892	-0.172951	6
C	1.037839	0.190198	1.068559	6
O	2.241909	0.901338	0.786679	8
C	0.811369	0.171648	-1.555531	6
O	-0.000051	1.180878	-0.940011	8
H	-2.889220	-0.747692	0.718699	1
H	-2.252970	0.674178	0.241409	1
H	-1.404641	-1.169342	-1.008371	1
H	-0.735871	-1.823892	0.485939	1
H	1.318979	-0.771802	1.510399	1
H	0.478250	0.760168	1.818950	1
H	1.953479	1.747128	0.391649	1
H	0.387039	-0.365642	-2.395111	1
H	1.872910	0.364368	-1.654261	1
Es	0.015663	0.771742	-0.576899	99
Es	1.770491	0.643266	0.881425	99
Es	0.215313	-0.022635	-0.173140	99
Es	-0.282279	1.177781	-1.063212	99
Es	1.523283	0.312503	-1.629532	99
Es	-0.811801	-1.524926	0.324265	99
Es	-1.001579	-0.893278	-0.027364	99
Es	-2.033010	-0.195389	0.730867	99
Es	-2.167381	0.313885	0.420106	99
Es	2.368551	0.965486	1.057025	99
Es	0.000040	1.180474	-0.940020	99
Es	0.623735	-0.152164	-0.846841	99
Es	1.221972	-0.470742	1.359496	99
Es	-0.391057	-0.454043	-0.100583	99
Es	2.073091	1.348511	0.578467	99
Es	0.643918	0.574842	1.567605	99
Es	2.388276	0.745268	0.565220	99
Es	-1.592368	-0.501534	0.384464	99
Es	-1.928179	-0.129906	1.063661	99
Es	0.320466	0.866260	-1.263184	99
Es	-1.266993	-1.082597	-0.710474	99
Es	0.184344	1.403675	-0.825078	99
Es	0.811174	0.171844	-1.555369	99
Es	2.241563	0.901451	0.786610	99
Es	0.623963	0.080860	0.435559	99
Es	0.515441	-0.189177	-2.128359	99
Es	-2.546943	-0.534685	0.703316	99
Es	1.038012	0.190296	1.068449	99
44
Properties=species:S:1:pos:R:3:Z:I:1 energy=-360.96024536305515 field_type=dipole dipole="0.000000 0.000000 0.000000" charge=0
N	-2.032871	-0.195282	0.731389	7
C	-1.001521	-0.893362	-0.027441	6
C	0.215369	-0.022892	-0.172951	6
C	1.037839	0.190198	1.068559	6
O	2.241909	0.901338	0.786679	8
C	0.811369	0.171648	-1.555531	6
O	-0.000051	1.180878	-0.940011	8
H	-2.889220	-0.747692	0.718699	1
H	-2.252970	0.674178	0.241409	1
H	-1.404641	-1.169342	-1.008371	1
H	-0.735871	-1.823892	0.485939	1
H	1.318979	-0.771802	1.510399	1
H	0.478250	0.760168	1.818950	1
H	1.953479	1.747128	0.391649	1
H	0.387039	-0.365642	-2.395111	1
H	1.872910	0.364368	-1.654261	1
Es	2.369322	0.965239	1.056096	99
Es	0.319995	0.864776	-1.263326	99
Es	0.515404	-0.189277	-2.128306	99
Es	-2.167372	0.313915	0.420259	99
Es	0.623743	-0.152161	-0.846943	99
Es	1.770344	0.643151	0.882384	99
Es	0.643938	0.574789	1.567652	99
Es	-0.811798	-1.524904	0.324245	99
Es	0.624079	0.080909	0.435514	99
Es	-1.266864	-1.082614	-0.710479	99
Es	1.523250	0.312493	-1.629589	99
Es	0.015438	0.773194	-0.575975	99
Es	-2.033019	-0.195394	0.730855	99
Es	1.221968	-0.470765	1.359421	99
Es	2.387611	0.745508	0.564823	99
Es	2.241581	0.901435	0.786592	99
Es	-1.592339	-0.501426	0.384439	99
Es	-0.391048	-0.454148	-0.100452	99
Es	-1.928244	-0.129919	1.063448	99
Es	-0.282156	1.177992	-1.062741	99
Es	1.038011	0.190297	1.068450	99
Es	-2.547016	-0.534696	0.703412	99
Es	-1.001580	-0.893275	-0.027362	99
Es	0.184830	1.403355	-0.826284	99
Es	0.215315	-0.022640	-0.173141	99
Es	0.000012	1.180712	-0.939997	99
Es	0.811172	0.171849	-1.555371	99
Es	2.073128	1.348676	0.578854	99
44
Properties=species:S:1:pos:R:3:Z:I:1 energy=-360.96024536305515 field_type=dipole dipole="0.000000 0.000000 0.000000" charge=0
N	-2.032871	-0.195282	0.731389	7
C	-1.001521	-0.893362	-0.027441	6
C	0.215369	-0.022892	-0.172951	6
C	1.037839	0.190198	1.068559	6
O	2.241909	0.901338	0.786679	8
C	0.811369	0.171648	-1.555531	6
O	-0.000051	1.180878	-0.940011	8
H	-2.889220	-0.747692	0.718699	1
H	-2.252970	0.674178	0.241409	1
H	-1.404641	-1.169342	-1.008371	1
H	-0.735871	-1.823892	0.485939	1
H	1.318979	-0.771802	1.510399	1
H	0.478250	0.760168	1.818950	1
H	1.953479	1.747128	0.391649	1
H	0.387039	-0.365642	-2.395111	1
H	1.872910	0.364368	-1.654261	1
Es	1.523146	0.312498	-1.629610	99
Es	0.515507	-0.189192	-2.128274	99
Es	0.623903	-0.152421	-0.846836	99
Es	-2.546909	-0.534468	0.703495	99
Es	1.770234	0.643828	0.882758	99
Es	-1.001579	-0.893275	-0.027363	99
Es	0.319989	0.865326	-1.263505	99
Es	0.623942	0.080932	0.435589	99
Es	2.371699	0.963629	1.055991	99
Es	2.073520	1.349354	0.579432	99
Es	2.241574	0.901418	0.786568	99
Es	0.013909	0.772267	-0.576290	99
Es	-0.811695	-1.524820	0.324228	99
Es	0.811171	0.171848	-1.555371	99
Es	2.384986	0.745841	0.564003	99
Es	-2.033031	-0.195392	0.730828	99
Es	0.215315	-0.022640	-0.173141	99
Es	-0.281843	1.181205	-1.063209	99
Es	-0.391075	-0.454095	-0.100504	99
Es	-1.266841	-1.082680	-0.710514	99
Es	-2.167346	0.314024	0.420107	99
Es	1.038011	0.190297	1.068449	99
Es	-1.592435	-0.501779	0.384569	99
Es	1.221950	-0.470791	1.359427	99
Es	0.643936	0.574734	1.567607	99
Es	0.185967	1.400859	-0.825397	99
Es	-1.928331	-0.129969	1.063451	99
Es	0.000033	1.180528	-0.940012	99
44
Properties=species:S:1:pos:R:3:Z:I:1 energy=-360.96024536305515 field_type=dipole dipole="0.000000 0.000000 0.000000" charge=0
N	-2.032871	-0.195282	0.731389	7
C	-1.001521	-0.893362	-0.027441	6
C	0.215369	-0.022892	-0.172951	6
C	1.037839	0.190198	1.068559	6
O	2.241909	0.901338	0.786679	8
C	0.811369	0.171648	-1.555531	6
O	-0.000051	1.180878	-0.940011	8
H	-2.889220	-0.747692	0.718699	1
H	-2.252970	0.674178	0.241409	1
H	-1.404641	-1.169342	-1.008371	1
H	-0.735871	-1.823892	0.485939	1
H	1.318979	-0.771802	1.510399	1
H	0.478250	0.760168	1.818950	1
H	1.953479	1.747128	0.391649	1
H	0.387039	-0.365642	-2.395111	1
H	1.872910	0.364368	-1.654261	1
Es	0.515537	-0.189107	-2.128261	99
Es	2.073672	1.348780	0.578315	99
Es	-2.032996	-0.195387	0.730911	99
Es	1.221917	-0.470782	1.359454	99
Es	0.014975	0.772768	-0.575667	99
Es	-2.167397	0.313908	0.420410	99
Es	-1.592254	-0.501503	0.384400	99
Es	2.241633	0.901431	0.786624	99
Es	1.523112	0.312492	-1.629638	99
Es	-1.928402	-0.129919	1.063231	99
Es	0.215315	-0.022644	-0.173135	99
Es	0.623837	0.080935	0.435575	99
Es	1.770180	0.643129	0.881308	99
Es	2.368531	0.965191	1.056694	99
Es	-1.001580	-0.893276	-0.027363	99
Es	-0.811720	-1.524893	0.324208	99
Es	-2.547042	-0.534631	0.703483	99
Es	0.319408	0.865262	-1.264164	99
Es	1.038010	0.190296	1.068450	99
Es	0.000054	1.180645	-0.939990	99
Es	2.388030	0.745534	0.565782	99
Es	-1.266793	-1.082625	-0.710445	99
Es	0.643997	0.574720	1.567591	99
Es	0.623934	-0.152613	-0.846771	99
Es	-0.391019	-0.454102	-0.100522	99
Es	0.811172	0.171848	-1.555370	99
Es	-0.281555	1.179286	-1.062216	99
Es	0.185149	1.402328	-0.826414	99
44
Properties=species:S:1:pos:R:3:Z:I:1 energy=-360.96024536305515 field_type=dipole dipole="0.000000 0.000000 0.000000" charge=0
N	-2.032871	-0.195282	0.731389	7
C	-1.001521	-0.893362	-0.027441	6
C	0.215369	-0.022892	-0.172951	6
C	1.037839	0.190198	1.068559	6
O	2.241909	0.901338	0.786679	8
C	0.811369	0.171648	-1.555531	6
O	-0.000051	1.180878	-0.940011	8
H	-2.889220	-0.747692	0.718699	1
H	-2.252970	0.674178	0.241409	1
H	-1.404641	-1.169342	-1.008371	1
H	-0.735871	-1.823892	0.485939	1
H	1.318979	-0.771802	1.510399	1
H	0.478250	0.760168	1.818950	1
H	1.953479	1.747128	0.391649	1
H	0.387039	-0.365642	-2.395111	1
H	1.872910	0.364368	-1.654261	1
Es	-0.811714	-1.524884	0.324171	99
Es	2.241570	0.901498	0.786700	99
Es	0.319647	0.865278	-1.264295	99
Es	0.515577	-0.189048	-2.128244	99
Es	0.000003	1.180501	-0.940038	99
Es	0.811173	0.171847	-1.555370	99
Es	2.368908	0.964895	1.056125	99
Es	2.387746	0.745845	0.565847	99
Es	-0.281175	1.179603	-1.062183	99
Es	0.014689	0.772999	-0.575268	99
Es	2.073659	1.349006	0.578465	99
Es	-1.266759	-1.082626	-0.710423	99
Es	-0.390987	-0.454104	-0.100503	99
Es	-1.001580	-0.893277	-0.027363	99
Es	0.215315	-0.022640	-0.173142	99
Es	-1.592219	-0.501549	0.384560	99
Es	-2.546981	-0.534567	0.703282	99
Es	0.623824	0.080922	0.435562	99
Es	0.184828	1.402004	-0.826667	99
Es	1.221893	-0.470781	1.359441	99
Es	1.523040	0.312492	-1.629670	99
Es	-1.928555	-0.129766	1.063461	99
Es	1.038010	0.190296	1.068450	99
Es	-2.033004	-0.195381	0.730924	99
Es	-2.167379	0.313739	0.420229	99
Es	0.624003	-0.152772	-0.846745	99
Es	1.770189	0.642825	0.881590	99
Es	0.643982	0.574714	1.567585	99
44
Properties=species:S:1:pos:R:3:Z:I:1 energy=-360.96024536305515 field_type=dipole dipole="0.000000 0.000000 0.000000" charge=0
N	-2.032871	-0.195282	0.731389	7
C	-1.001521	-0.893362	-0.027441	6
C	0.215369	-0.022892	-0.172951	6
C	1.037839	0.190198	1.068559	6
O	2.241909	0.901338	0.786679	8
C	0.811369	0.171648	-1.555531	6
O	-0.000051	1.180878	-0.940011	8
H	-2.889220	-0.747692	0.718699	1
H	-2.252970	0.674178	0.241409	1
H	-1.404641	-1.169342	-1.008371	1
H	-0.735871	-1.823892	0.485939	1
H	1.318979	-0.771802	1.510399	1
H	0.478250	0.760168	1.818950	1
H	1.953479	1.747128	0.391649	1
H	0.387039	-0.365642	-2.395111	1
H	1.872910	0.364368	-1.654261	1
Es	0.184618	1.401629	-0.826784	99
Es	0.623773	0.080950	0.435547	99
Es	-0.280986	1.179635	-1.061810	99
Es	0.644006	0.574677	1.567604	99
Es	2.241604	0.901415	0.786640	99
Es	0.319481	0.865627	-1.264763	99
Es	0.624147	-0.152963	-0.846800	99
Es	1.770100	0.642728	0.881196	99
Es	-1.928427	-0.129923	1.063122	99
Es	2.368967	0.964383	1.056215	99
Es	2.073942	1.349395	0.578746	99
Es	-2.547128	-0.534652	0.703539	99
Es	-1.001579	-0.893277	-0.027363	99
Es	-2.167334	0.313935	0.420482	99
Es	-1.266708	-1.082603	-0.710424	99
Es	1.221874	-0.470796	1.359399	99
Es	-0.390908	-0.454171	-0.100431	99
Es	1.038009	0.190295	1.068451	99
Es	0.215316	-0.022641	-0.173141	99
Es	0.515622	-0.188984	-2.128211	99
Es	-2.033020	-0.195394	0.730851	99
Es	0.811171	0.171847	-1.555368	99
Es	-1.592258	-0.501425	0.384450	99
Es	-0.811798	-1.524892	0.324145	99
Es	1.522950	0.312522	-1.629738	99
Es	0.000040	1.180694	-0.939995	99
Es	2.387487	0.746168	0.565917	99
Es	0.014741	0.772889	-0.574996	99
44
Properties=species:S:1:pos:R:3:Z:I:1 energy=-360.96024536305515 field_type=dipole dipole="0.000000 0.000000 0.000000" charge=0
N	-2.032871	-0.195282	0.731389	7
C	-1.001521	-0.893362	-0.027441	6
C	0.215369	-0.022892	-0.172951	6
C	1.037839	0.190198	1.068559	6
O	2.241909	0.901338	0.786679	8
C	0.811369	0.171648	-1.555531	6
O	-0.000051	1.180878	-0.940011	8
H	-2.889220	-0.747692	0.718699	1
H	-2.252970	0.674178	0.241409	1
H	-1.404641	-1.169342	-1.008371	1
H	-0.735871	-1.823892	0.485939	1
H	1.318979	-0.771802	1.510399	1
H	0.478250	0.760168	1.818950	1
H	1.953479	1.747128	0.391649	1
H	0.387039	-0.365642	-2.395111	1
H	1.872910	0.364368	-1.654261	1
Es	-1.928586	-0.130041	1.063104	99
Es	1.770113	0.642326	0.881204	99
Es	1.221865	-0.470794	1.359442	99
Es	0.644003	0.574655	1.567545	99
Es	2.387511	0.746449	0.566490	99
Es	-0.390991	-0.454113	-0.100485	99
Es	0.215315	-0.022642	-0.173141	99
Es	0.181965	1.404149	-0.827828	99
Es	1.522900	0.312486	-1.629722	99
Es	1.038008	0.190294	1.068453	99
Es	0.623761	0.080918	0.435522	99
Es	-2.547042	-0.534549	0.703476	99
Es	-0.280066	1.176201	-1.062477	99
Es	-1.266678	-1.082622	-0.710384	99
Es	0.000100	1.180620	-0.939979	99
Es	0.015040	0.773920	-0.574064	99
Es	-2.167368	0.314026	0.420590	99
Es	-2.033017	-0.195393	0.730858	99
Es	0.624135	-0.153071	-0.846690	99
Es	0.515658	-0.188943	-2.128216	99
Es	2.073850	1.349090	0.578225	99
Es	2.369078	0.964736	1.056079	99
Es	-1.001579	-0.893277	-0.027363	99
Es	-1.592200	-0.501506	0.384419	99
Es	0.320879	0.865683	-1.264114	99
Es	2.241554	0.901524	0.786735	99
Es	0.811171	0.171847	-1.555369	99
Es	-0.811675	-1.524905	0.324169	99
