45
Properties=species:S:1:pos:R:3:Z:I:1 energy=-341.12057476085266 field_type=dipole dipole="0.000000 0.000000 0.000000" charge=0
N	-0.903154	-1.723887	-1.060408	7
C	-0.616134	-1.134407	0.254472	6
C	0.200546	0.139532	0.119992	6
N	1.424586	-0.007707	-0.710358	7
C	-0.521464	1.449012	-0.265558	6
O	0.191376	2.177123	0.777432	8
C	0.554476	0.913803	1.406582	6
H	-1.450544	-2.574127	-0.925258	1
H	-0.014244	-2.037218	-1.455138	1
H	-0.073764	-1.871167	0.858232	1
H	-1.563314	-0.932717	0.766502	1
H	1.982986	0.849163	-0.735048	1
H	1.192026	-0.194268	-1.686968	1
H	-1.600954	1.473032	-0.081538	1
H	-0.317344	1.856043	-1.260598	1
H	1.601556	0.900393	1.724652	1
H	-0.086634	0.717402	2.273012	1
Es	-0.521353	1.449128	-0.265379	99
Es	-1.222654	-2.241923	-0.963377	99
Es	1.424229	-0.007257	-0.710582	99
Es	-0.003676	2.340310	0.955649	99
Es	0.405210	0.443070	0.804925	99
Es	0.450466	2.282901	0.646655	99
Es	0.554401	0.913984	1.406469	99
Es	-0.363725	-1.919881	-1.283956	99
Es	1.733187	0.520155	-0.722458	99
Es	0.335493	1.712330	1.044181	99
Es	0.108143	0.767755	1.996115	99
Es	1.263118	-0.105256	-1.297658	99
Es	-1.261932	-0.987211	0.604549	99
Es	-0.092791	1.929168	0.375041	99
Es	1.623209	-0.276702	-0.584850	99
Es	0.200665	0.139535	0.119928	99
Es	-1.265221	1.457185	-0.135596	99
Es	-0.216821	0.751386	-0.141418	99
Es	-0.379635	1.723355	-0.951093	99
Es	1.270746	0.899488	1.622493	99
Es	-0.616146	-1.134433	0.254327	99
Es	-1.067870	-1.491636	-1.278203	99
Es	-0.236950	-1.632933	0.678858	99
Es	-0.202948	-0.501523	0.177778	99
Es	-0.902880	-1.724233	-1.060043	99
Es	-0.770189	-1.483744	-0.483991	99
Es	0.885887	0.073905	-0.370103	99
Es	0.191269	2.176786	0.777416	99
45
Properties=species:S:1:pos:R:3:Z:I:1 energy=-341.12057476085266 field_type=dipole dipole="0.000000 0.000000 0.000000" charge=0
N	-0.903154	-1.723887	-1.060408	7
C	-0.616134	-1.134407	0.254472	6
C	0.200546	0.139532	0.119992	6
N	1.424586	-0.007707	-0.710358	7
C	-0.521464	1.449012	-0.265558	6
O	0.191376	2.177123	0.777432	8
C	0.554476	0.913803	1.406582	6
H	-1.450544	-2.574127	-0.925258	1
H	-0.014244	-2.037218	-1.455138	1
H	-0.073764	-1.871167	0.858232	1
H	-1.563314	-0.932717	0.766502	1
H	1.982986	0.849163	-0.735048	1
H	1.192026	-0.194268	-1.686968	1
H	-1.600954	1.473032	-0.081538	1
H	-0.317344	1.856043	-1.260598	1
H	1.601556	0.900393	1.724652	1
H	-0.086634	0.717402	2.273012	1
Es	-0.002126	2.343605	0.955382	99
Es	1.424259	-0.007282	-0.710569	99
Es	0.335155	1.712194	1.045044	99
Es	-0.363800	-1.919267	-1.284413	99
Es	-1.261855	-0.987179	0.604536	99
Es	1.270671	0.899482	1.622479	99
Es	0.885853	0.073827	-0.370013	99
Es	-0.216816	0.751251	-0.141575	99
Es	-0.379724	1.723413	-0.951023	99
Es	1.623522	-0.276943	-0.585018	99
Es	-1.265230	1.457200	-0.135542	99
Es	0.405159	0.443073	0.804964	99
Es	1.262995	-0.105014	-1.297402	99
Es	0.108227	0.767785	1.996136	99
Es	-0.202905	-0.501507	0.177832	99
Es	0.449586	2.279481	0.646211	99
Es	-0.521356	1.449129	-0.265383	99
Es	-0.770079	-1.484267	-0.483822	99
Es	1.733011	0.520238	-0.722671	99
Es	-0.236969	-1.632917	0.678907	99
Es	0.200666	0.139534	0.119924	99
Es	-1.222360	-2.242228	-0.963632	99
Es	0.554400	0.913984	1.406470	99
Es	-0.902880	-1.724237	-1.060080	99
Es	0.191319	2.176808	0.777363	99
Es	-0.093100	1.929435	0.374919	99
Es	-1.068240	-1.491455	-1.277673	99
Es	-0.616147	-1.134434	0.254325	99
45
Properties=species:S:1:pos:R:3:Z:I:1 energy=-341.12057476085266 field_type=dipole dipole="0.000000 0.000000 0.000000" charge=0
N	-0.903154	-1.723887	-1.060408	7
C	-0.616134	-1.134407	0.254472	6
C	0.200546	0.139532	0.119992	6
N	1.424586	-0.007707	-0.710358	7
C	-0.521464	1.449012	-0.265558	6
O	0.191376	2.177123	0.777432	8
C	0.554476	0.913803	1.406582	6
H	-1.450544	-2.574127	-0.925258	1
H	-0.014244	-2.037218	-1.455138	1
H	-0.073764	-1.871167	0.858232	1
H	-1.563314	-0.932717	0.766502	1
H	1.982986	0.849163	-0.735048	1
H	1.192026	-0.194268	-1.686968	1
H	-1.600954	1.473032	-0.081538	1
H	-0.317344	1.856043	-1.260598	1
H	1.601556	0.900393	1.724652	1
H	-0.086634	0.717402	2.273012	1
Es	-0.770274	-1.483698	-0.483923	99
Es	-1.222642	-2.241980	-0.963555	99
Es	-0.236980	-1.632845	0.678851	99
Es	0.405171	0.442963	0.804988	99
Es	1.424248	-0.007284	-0.710565	99
Es	-0.094203	1.929909	0.374812	99
Es	-0.001971	2.340359	0.955844	99
Es	0.449358	2.282503	0.646724	99
Es	-1.067794	-1.491848	-1.278055	99
Es	0.885749	0.073771	-0.370145	99
Es	-0.616145	-1.134433	0.254331	99
Es	0.191291	2.176789	0.777387	99
Es	1.732872	0.520172	-0.722541	99
Es	-0.902874	-1.724243	-1.060050	99
Es	-0.379661	1.723288	-0.951044	99
Es	0.200666	0.139536	0.119927	99
Es	0.108289	0.767798	1.996140	99
Es	0.554399	0.913983	1.406472	99
Es	1.270584	0.899496	1.622497	99
Es	-0.363762	-1.919719	-1.284075	99
Es	-1.261860	-0.987241	0.604587	99
Es	1.263185	-0.104947	-1.297508	99
Es	-0.202897	-0.501430	0.177861	99
Es	-0.521354	1.449128	-0.265381	99
Es	0.336382	1.712076	1.044134	99
Es	-0.217001	0.751146	-0.141430	99
Es	1.623610	-0.276909	-0.584950	99
Es	-1.265150	1.457366	-0.135654	99
45
Properties=species:S:1:pos:R:3:Z:I:1 energy=-341.12057476085266 field_type=dipole dipole="0.000000 0.000000 0.000000" charge=0
N	-0.903154	-1.723887	-1.060408	7
C	-0.616134	-1.134407	0.254472	6
C	0.200546	0.139532	0.119992	6
N	1.424586	-0.007707	-0.710358	7
C	-0.521464	1.449012	-0.265558	6
O	0.191376	2.177123	0.777432	8
C	0.554476	0.913803	1.406582	6
H	-1.450544	-2.574127	-0.925258	1
H	-0.014244	-2.037218	-1.455138	1
H	-0.073764	-1.871167	0.858232	1
H	-1.563314	-0.932717	0.766502	1
H	1.982986	0.849163	-0.735048	1
H	1.192026	-0.194268	-1.686968	1
H	-1.600954	1.473032	-0.081538	1
H	-0.317344	1.856043	-1.260598	1
H	1.601556	0.900393	1.724652	1
H	-0.086634	0.717402	2.273012	1
Es	0.191312	2.176814	0.777363	99
Es	0.554398	0.913988	1.406466	99
Es	-1.067795	-1.491884	-1.278113	99
Es	-1.222597	-2.241938	-0.963580	99
Es	-0.001040	2.343316	0.955078	99
Es	1.263155	-0.105341	-1.297432	99
Es	-0.236971	-1.632825	0.678893	99
Es	-0.202966	-0.501360	0.177903	99
Es	-0.379743	1.723344	-0.950896	99
Es	-0.216859	0.751137	-0.141625	99
Es	-0.902878	-1.724242	-1.060057	99
Es	1.623980	-0.276387	-0.584944	99
Es	0.335432	1.712504	1.045430	99
Es	0.200663	0.139537	0.119929	99
Es	0.885781	0.073567	-0.369884	99
Es	-1.265207	1.457302	-0.135656	99
Es	-0.616146	-1.134433	0.254330	99
Es	1.424350	-0.007431	-0.710482	99
Es	-1.261809	-0.987290	0.604552	99
Es	0.405175	0.442957	0.804989	99
Es	1.732396	0.520355	-0.722960	99
Es	-0.363840	-1.919765	-1.284070	99
Es	-0.094037	1.929553	0.374751	99
Es	-0.770238	-1.483687	-0.483872	99
Es	0.449218	2.279533	0.646322	99
Es	0.108330	0.767791	1.996093	99
Es	-0.521360	1.449125	-0.265387	99
Es	1.270530	0.899466	1.622538	99
45
Properties=species:S:1:pos:R:3:Z:I:1 energy=-341.12057476085266 field_type=dipole dipole="0.000000 0.000000 0.000000" charge=0
N	-0.903154	-1.723887	-1.060408	7
C	-0.616134	-1.134407	0.254472	6
C	0.200546	0.139532	0.119992	6
N	1.424586	-0.007707	-0.710358	7
C	-0.521464	1.449012	-0.265558	6
O	0.191376	2.177123	0.777432	8
C	0.554476	0.913803	1.406582	6
H	-1.450544	-2.574127	-0.925258	1
H	-0.014244	-2.037218	-1.455138	1
H	-0.073764	-1.871167	0.858232	1
H	-1.563314	-0.932717	0.766502	1
H	1.982986	0.849163	-0.735048	1
H	1.192026	-0.194268	-1.686968	1
H	-1.600954	1.473032	-0.081538	1
H	-0.317344	1.856043	-1.260598	1
H	1.601556	0.900393	1.724652	1
H	-0.086634	0.717402	2.273012	1
Es	1.270478	0.899466	1.622520	99
Es	-1.222689	-2.241960	-0.963685	99
Es	0.447374	2.281543	0.646711	99
Es	-0.216949	0.751086	-0.141664	99
Es	0.337712	1.712351	1.045306	99
Es	-0.202847	-0.501371	0.177893	99
Es	-0.902886	-1.724237	-1.060061	99
Es	-0.770310	-1.483587	-0.483853	99
Es	-0.379767	1.723403	-0.950839	99
Es	-0.237028	-1.632786	0.678886	99
Es	1.733021	0.520100	-0.722665	99
Es	-1.067656	-1.492112	-1.277926	99
Es	1.623531	-0.276771	-0.585107	99
Es	0.554400	0.913982	1.406471	99
Es	-0.363836	-1.919665	-1.284214	99
Es	0.405144	0.442833	0.805041	99
Es	-1.265195	1.457317	-0.135682	99
Es	-0.094484	1.929585	0.374584	99
Es	0.200664	0.139537	0.119927	99
Es	-0.616146	-1.134433	0.254329	99
Es	0.191333	2.176804	0.777357	99
Es	-1.261775	-0.987240	0.604588	99
Es	1.263162	-0.105040	-1.297427	99
Es	-0.001036	2.341436	0.955008	99
Es	-0.521356	1.449126	-0.265382	99
Es	0.108398	0.767827	1.996111	99
Es	1.424249	-0.007285	-0.710565	99
Es	0.885728	0.073799	-0.369984	99
45
Properties=species:S:1:pos:R:3:Z:I:1 energy=-341.12057476085266 field_type=dipole dipole="0.000000 0.000000 0.000000" charge=0
N	-0.903154	-1.723887	-1.060408	7
C	-0.616134	-1.134407	0.254472	6
C	0.200546	0.139532	0.119992	6
N	1.424586	-0.007707	-0.710358	7
C	-0.521464	1.449012	-0.265558	6
O	0.191376	2.177123	0.777432	8
C	0.554476	0.913803	1.406582	6
H	-1.450544	-2.574127	-0.925258	1
H	-0.014244	-2.037218	-1.455138	1
H	-0.073764	-1.871167	0.858232	1
H	-1.563314	-0.932717	0.766502	1
H	1.982986	0.849163	-0.735048	1
H	1.192026	-0.194268	-1.686968	1
H	-1.600954	1.473032	-0.081538	1
H	-0.317344	1.856043	-1.260598	1
H	1.601556	0.900393	1.724652	1
H	-0.086634	0.717402	2.273012	1
Es	0.200663	0.139540	0.119930	99
Es	-0.001269	2.341848	0.954445	99
Es	-0.237075	-1.632770	0.678955	99
Es	0.554399	0.913982	1.406470	99
Es	-0.616146	-1.134433	0.254329	99
Es	-1.261736	-0.987202	0.604534	99
Es	-0.521357	1.449127	-0.265384	99
Es	0.405033	0.442785	0.805074	99
Es	1.424237	-0.007275	-0.710576	99
Es	1.623705	-0.276871	-0.584833	99
Es	-0.379767	1.723303	-0.950836	99
Es	0.108508	0.767840	1.996117	99
Es	1.263195	-0.105077	-1.297457	99
Es	-1.067001	-1.492439	-1.278023	99
Es	-0.902883	-1.724238	-1.060056	99
Es	0.191337	2.176807	0.777346	99
Es	-0.093815	1.929737	0.374384	99
Es	-0.217014	0.751019	-0.141628	99
Es	-1.265135	1.457343	-0.135760	99
Es	-0.770522	-1.483195	-0.483832	99
Es	1.732811	0.520103	-0.722734	99
Es	0.885763	0.073941	-0.370133	99
Es	-0.363841	-1.919835	-1.283924	99
Es	0.336046	1.712422	1.045855	99
Es	-1.223125	-2.241899	-0.963935	99
Es	-0.202806	-0.501372	0.177872	99
Es	1.270441	0.899441	1.622485	99
Es	0.448588	2.281077	0.646995	99
45
Properties=species:S:1:pos:R:3:Z:I:1 energy=-341.12057476085266 field_type=dipole dipole="0.000000 0.000000 0.000000" charge=0
N	-0.903154	-1.723887	-1.060408	7
C	-0.616134	-1.134407	0.254472	6
C	0.200546	0.139532	0.119992	6
N	1.424586	-0.007707	-0.710358	7
C	-0.521464	1.449012	-0.265558	6
O	0.191376	2.177123	0.777432	8
C	0.554476	0.913803	1.406582	6
H	-1.450544	-2.574127	-0.925258	1
H	-0.014244	-2.037218	-1.455138	1
H	-0.073764	-1.871167	0.858232	1
H	-1.563314	-0.932717	0.766502	1
H	1.982986	0.849163	-0.735048	1
H	1.192026	-0.194268	-1.686968	1
H	-1.600954	1.473032	-0.081538	1
H	-0.317344	1.856043	-1.260598	1
H	1.601556	0.900393	1.724652	1
H	-0.086634	0.717402	2.273012	1
Es	0.108553	0.767880	1.996115	99
Es	-0.379815	1.723304	-0.950779	99
Es	1.623780	-0.276863	-0.585223	99
Es	0.000078	2.342517	0.954541	99
Es	1.732855	0.520076	-0.722755	99
Es	-1.067313	-1.492554	-1.277637	99
Es	0.200663	0.139537	0.119927	99
Es	-1.222906	-2.241875	-0.963995	99
Es	-0.902883	-1.724236	-1.060062	99
Es	0.447858	2.280272	0.646392	99
Es	-0.237071	-1.632703	0.678912	99
Es	0.554401	0.913980	1.406473	99
Es	-0.616146	-1.134433	0.254330	99
Es	0.405059	0.442673	0.805073	99
Es	-0.770469	-1.483385	-0.483724	99
Es	1.270334	0.899476	1.622528	99
Es	0.336770	1.712566	1.045975	99
Es	-0.521352	1.449126	-0.265379	99
Es	-0.202799	-0.501284	0.177920	99
Es	0.191305	2.176785	0.777358	99
Es	-1.265123	1.457339	-0.135787	99
Es	0.885669	0.073724	-0.369943	99
Es	-0.095103	1.929826	0.374740	99
Es	1.424249	-0.007292	-0.710559	99
Es	1.263183	-0.104863	-1.297309	99
Es	-0.363804	-1.919589	-1.284400	99
Es	-0.217016	0.750955	-0.141644	99
Es	-1.261721	-0.987253	0.604589	99
45
Properties=species:S:1:pos:R:3:Z:I:1 energy=-341.12057476085266 field_type=dipole dipole="0.000000 0.000000 0.000000" charge=0
N	-0.903154	-1.723887	-1.060408	7
C	-0.616134	-1.134407	0.254472	6
C	0.200546	0.139532	0.119992	6
N	1.424586	-0.007707	-0.710358	7
C	-0.521464	1.449012	-0.265558	6
O	0.191376	2.177123	0.777432	8
C	0.554476	0.913803	1.406582	6
H	-1.450544	-2.574127	-0.925258	1
H	-0.014244	-2.037218	-1.455138	1
H	-0.073764	-1.871167	0.858232	1
H	-1.563314	-0.932717	0.766502	1
H	1.982986	0.849163	-0.735048	1
H	1.192026	-0.194268	-1.686968	1
H	-1.600954	1.473032	-0.081538	1
H	-0.317344	1.856043	-1.260598	1
H	1.601556	0.900393	1.724652	1
H	-0.086634	0.717402	2.273012	1
Es	-0.363937	-1.919595	-1.284584	99
Es	-1.261699	-0.987222	0.604596	99
Es	0.447489	2.282068	0.647715	99
Es	-0.770210	-1.483807	-0.483669	99
Es	0.405085	0.442628	0.805103	99
Es	0.191407	2.176751	0.777293	99
Es	-0.202763	-0.501287	0.177898	99
Es	1.424244	-0.007277	-0.710573	99
Es	-0.237086	-1.632697	0.678917	99
Es	0.337064	1.712345	1.045851	99
Es	-0.379935	1.723332	-0.950767	99
Es	-0.000732	2.340711	0.954342	99
Es	-0.902903	-1.724210	-1.060082	99
Es	-0.094319	1.930190	0.373844	99
Es	1.733105	0.520025	-0.722699	99
Es	-0.217043	0.750925	-0.141642	99
Es	-1.223054	-2.241798	-0.964116	99
Es	0.885623	0.073723	-0.369903	99
Es	-0.521356	1.449127	-0.265382	99
Es	0.554400	0.913981	1.406470	99
Es	1.623485	-0.276602	-0.585290	99
Es	-0.616146	-1.134434	0.254330	99
Es	1.270334	0.899452	1.622572	99
Es	-1.067290	-1.492239	-1.277388	99
Es	1.263269	-0.105073	-1.297367	99
Es	0.108569	0.767838	1.996043	99
Es	-1.265032	1.457317	-0.135762	99
Es	0.200664	0.139532	0.119927	99
45
Properties=species:S:1:pos:R:3:Z:I:1 energy=-341.12057476085266 field_type=dipole dipole="0.000000 0.000000 0.000000" charge=0
N	-0.903154	-1.723887	-1.060408	7
C	-0.616134	-1.134407	0.254472	6
C	0.200546	0.139532	0.119992	6
N	1.424586	-0.007707	-0.710358	7
C	-0.521464	1.449012	-0.265558	6
O	0.191376	2.177123	0.777432	8
C	0.554476	0.913803	1.406582	6
H	-1.450544	-2.574127	-0.925258	1
H	-0.014244	-2.037218	-1.455138	1
H	-0.073764	-1.871167	0.858232	1
H	-1.563314	-0.932717	0.766502	1
H	1.982986	0.849163	-0.735048	1
H	1.192026	-0.194268	-1.686968	1
H	-1.600954	1.473032	-0.081538	1
H	-0.317344	1.856043	-1.260598	1
H	1.601556	0.900393	1.724652	1
H	-0.086634	0.717402	2.273012	1
Es	1.270267	0.899461	1.622593	99
Es	-1.067065	-1.492716	-1.277641	99
Es	-1.261656	-0.987239	0.604602	99
Es	1.424249	-0.007287	-0.710564	99
Es	-0.216975	0.750865	-0.141650	99
Es	0.336058	1.712372	1.046791	99
Es	-0.770373	-1.483210	-0.483684	99
Es	0.108611	0.767844	1.996034	99
Es	-0.096190	1.930615	0.374882	99
Es	1.263383	-0.105204	-1.297455	99
Es	-0.521355	1.449127	-0.265382	99
Es	1.623344	-0.276468	-0.585219	99
Es	-0.616146	-1.134434	0.254331	99
Es	0.405093	0.442592	0.805100	99
Es	0.554400	0.913979	1.406471	99
Es	0.191205	2.176753	0.777425	99
Es	1.733182	0.519959	-0.722646	99
Es	0.002332	2.344855	0.954038	99
Es	-0.237108	-1.632665	0.678922	99
Es	0.200663	0.139539	0.119928	99
Es	-0.202827	-0.501255	0.177917	99
Es	-0.363989	-1.919734	-1.284442	99
Es	0.447474	2.277569	0.645930	99
Es	0.885591	0.073775	-0.369965	99
Es	-1.223110	-2.241780	-0.964050	99
Es	-0.902876	-1.724248	-1.060049	99
Es	-1.265012	1.457326	-0.135846	99
Es	-0.379935	1.723314	-0.950694	99
45
Properties=species:S:1:pos:R:3:Z:I:1 energy=-341.12057476085266 field_type=dipole dipole="0.000000 0.000000 0.000000" charge=0
N	-0.903154	-1.723887	-1.060408	7
C	-0.616134	-1.134407	0.254472	6
C	0.200546	0.139532	0.119992	6
N	1.424586	-0.007707	-0.710358	7
C	-0.521464	1.449012	-0.265558	6
O	0.191376	2.177123	0.777432	8
C	0.554476	0.913803	1.406582	6
H	-1.450544	-2.574127	-0.925258	1
H	-0.014244	-2.037218	-1.455138	1
H	-0.073764	-1.871167	0.858232	1
H	-1.563314	-0.932717	0.766502	1
H	1.982986	0.849163	-0.735048	1
H	1.192026	-0.194268	-1.686968	1
H	-1.600954	1.473032	-0.081538	1
H	-0.317344	1.856043	-1.260598	1
H	1.601556	0.900393	1.724652	1
H	-0.086634	0.717402	2.273012	1
Es	-0.202798	-0.501210	0.177945	99
Es	-1.222825	-2.241878	-0.963930	99
Es	0.405089	0.442554	0.805171	99
Es	0.885516	0.073667	-0.369769	99
Es	-0.237097	-1.632632	0.678958	99
Es	-0.364008	-1.919658	-1.284377	99
Es	1.263409	-0.105146	-1.297461	99
Es	1.622826	-0.276214	-0.585654	99
Es	-0.217058	0.750799	-0.141723	99
Es	0.337301	1.712381	1.046378	99
Es	0.554400	0.913983	1.406470	99
Es	-0.094417	1.930484	0.373396	99
Es	1.733675	0.519793	-0.722458	99
Es	0.447074	2.282407	0.648178	99
Es	-0.521357	1.449126	-0.265384	99
Es	0.191339	2.176831	0.777365	99
Es	0.200659	0.139541	0.119932	99
Es	0.108663	0.767859	1.996064	99
Es	-1.261597	-0.987225	0.604602	99
Es	-0.770415	-1.483215	-0.483753	99
Es	-0.902908	-1.724213	-1.060077	99
Es	-0.379981	1.723310	-0.950659	99
Es	1.270218	0.899436	1.622555	99
Es	-0.000369	2.340111	0.953754	99
Es	-0.616146	-1.134433	0.254331	99
Es	-1.067279	-1.492753	-1.277796	99
Es	-1.264985	1.457358	-0.135848	99
Es	1.424304	-0.007354	-0.710534	99
45
Properties=species:S:1:pos:R:3:Z:I:1 energy=-341.12057476085266 field_type=dipole dipole="0.000000 0.000000 0.000000" charge=0
N	-0.903154	-1.723887	-1.060408	7
C	-0.616134	-1.134407	0.254472	6
C	0.200546	0.139532	0.119992	6
N	1.424586	-0.007707	-0.710358	7
C	-0.521464	1.449012	-0.265558	6
O	0.191376	2.177123	0.777432	8
C	0.554476	0.913803	1.406582	6
H	-1.450544	-2.574127	-0.925258	1
H	-0.014244	-2.037218	-1.455138	1
H	-0.073764	-1.871167	0.858232	1
H	-1.563314	-0.932717	0.766502	1
H	1.982986	0.849163	-0.735048	1
H	1.192026	-0.194268	-1.686968	1
H	-1.600954	1.473032	-0.081538	1
H	-0.317344	1.856043	-1.260598	1
H	1.601556	0.900393	1.724652	1
H	-0.086634	0.717402	2.273012	1
Es	1.424256	-0.007331	-0.710553	99
Es	-0.521358	1.449125	-0.265385	99
Es	-1.264974	1.457407	-0.135902	99
Es	1.270176	0.899427	1.622694	99
Es	1.733280	0.519776	-0.722859	99
Es	-0.379961	1.723262	-0.950627	99
Es	0.447020	2.282082	0.648335	99
Es	1.263492	-0.105171	-1.297251	99
Es	-0.770451	-1.483118	-0.483663	99
Es	0.554402	0.913975	1.406478	99
Es	-0.902876	-1.724241	-1.060057	99
Es	0.200661	0.139539	0.119930	99
Es	0.191262	2.176783	0.777393	99
Es	-0.237253	-1.632666	0.678925	99
Es	0.405130	0.442386	0.805157	99
Es	1.623374	-0.276469	-0.585325	99
Es	-0.000039	2.340403	0.953556	99
Es	-1.261602	-0.987134	0.604613	99
Es	-1.222880	-2.241804	-0.964062	99
Es	0.885342	0.073973	-0.369885	99
Es	-0.202668	-0.501307	0.177950	99
Es	-0.363974	-1.919557	-1.284676	99
Es	-0.616146	-1.134433	0.254329	99
Es	-0.094402	1.930620	0.373222	99
Es	-0.217107	0.750876	-0.141638	99
Es	-1.067261	-1.492982	-1.277503	99
Es	0.337146	1.712388	1.046539	99
Es	0.108649	0.767899	1.995941	99
45
Properties=species:S:1:pos:R:3:Z:I:1 energy=-341.12057476085266 field_type=dipole dipole="0.000000 0.000000 0.000000" charge=0
N	-0.903154	-1.723887	-1.060408	7
C	-0.616134	-1.134407	0.254472	6
C	0.200546	0.139532	0.119992	6
N	1.424586	-0.007707	-0.710358	7
C	-0.521464	1.449012	-0.265558	6
O	0.191376	2.177123	0.777432	8
C	0.554476	0.913803	1.406582	6
H	-1.450544	-2.574127	-0.925258	1
H	-0.014244	-2.037218	-1.455138	1
H	-0.073764	-1.871167	0.858232	1
H	-1.563314	-0.932717	0.766502	1
H	1.982986	0.849163	-0.735048	1
H	1.192026	-0.194268	-1.686968	1
H	-1.600954	1.473032	-0.081538	1
H	-0.317344	1.856043	-1.260598	1
H	1.601556	0.900393	1.724652	1
H	-0.086634	0.717402	2.273012	1
Es	0.446445	2.282190	0.648516	99
Es	0.405070	0.442347	0.805041	99
Es	-0.094701	1.930780	0.373054	99
Es	1.270033	0.899488	1.622614	99
Es	-0.237151	-1.632559	0.678956	99
Es	-0.364021	-1.919622	-1.284460	99
Es	0.000367	2.340206	0.953344	99
Es	-1.222978	-2.241833	-0.964128	99
Es	0.191324	2.176798	0.777360	99
Es	-1.261530	-0.987250	0.604624	99
Es	-1.067045	-1.493025	-1.277654	99
Es	-0.521358	1.449124	-0.265385	99
Es	-0.616147	-1.134436	0.254328	99
Es	-0.217135	0.750754	-0.141677	99
Es	1.622845	-0.276941	-0.585728	99
Es	1.263553	-0.104478	-1.297308	99
Es	-0.902887	-1.724229	-1.060065	99
Es	-0.380010	1.723270	-0.950614	99
Es	0.337552	1.712360	1.046838	99
Es	0.885290	0.073968	-0.370066	99
Es	1.424302	-0.007320	-0.710546	99
Es	0.200658	0.139543	0.119933	99
Es	-1.264940	1.457398	-0.135898	99
Es	1.733833	0.519541	-0.722260	99
Es	0.554401	0.913978	1.406472	99
Es	-0.770532	-1.483079	-0.483677	99
Es	-0.202775	-0.501176	0.178008	99
Es	0.108772	0.767910	1.996055	99
45
Properties=species:S:1:pos:R:3:Z:I:1 energy=-341.12057476085266 field_type=dipole dipole="0.000000 0.000000 0.000000" charge=0
N	-0.903154	-1.723887	-1.060408	7
C	-0.616134	-1.134407	0.254472	6
C	0.200546	0.139532	0.119992	6
N	1.424586	-0.007707	-0.710358	7
C	-0.521464	1.449012	-0.265558	6
O	0.191376	2.177123	0.777432	8
C	0.554476	0.913803	1.406582	6
H	-1.450544	-2.574127	-0.925258	1
H	-0.014244	-2.037218	-1.455138	1
H	-0.073764	-1.871167	0.858232	1
H	-1.563314	-0.932717	0.766502	1
H	1.982986	0.849163	-0.735048	1
H	1.192026	-0.194268	-1.686968	1
H	-1.600954	1.473032	-0.081538	1
H	-0.317344	1.856043	-1.260598	1
H	1.601556	0.900393	1.724652	1
H	-0.086634	0.717402	2.273012	1
Es	0.405087	0.442314	0.805172	99
Es	0.554400	0.913981	1.406471	99
Es	1.623627	-0.276924	-0.585991	99
Es	1.424258	-0.007291	-0.710557	99
Es	0.000621	2.340263	0.953046	99
Es	-0.380007	1.723250	-0.950566	99
Es	-0.237195	-1.632533	0.678936	99
Es	0.200662	0.139541	0.119930	99
Es	-1.066782	-1.493112	-1.278350	99
Es	-1.222945	-2.241665	-0.964182	99
Es	-0.902879	-1.724231	-1.060054	99
Es	1.270061	0.899458	1.622635	99
Es	-0.616145	-1.134433	0.254334	99
Es	1.733254	0.519728	-0.722664	99
Es	-1.261510	-0.987249	0.604643	99
Es	0.108801	0.767889	1.995995	99
Es	0.885571	0.073558	-0.369544	99
Es	-0.094625	1.930935	0.372681	99
Es	0.191310	2.176807	0.777379	99
Es	-1.264927	1.457419	-0.135955	99
Es	-0.202767	-0.501117	0.177983	99
Es	0.337199	1.712424	1.047121	99
Es	-0.521359	1.449124	-0.265386	99
Es	0.446449	2.281980	0.648896	99
Es	-0.217122	0.750746	-0.141682	99
Es	-0.770908	-1.482778	-0.483678	99
Es	1.263062	-0.104352	-1.297177	99
Es	-0.363958	-1.920025	-1.283758	99
