46
Properties=species:S:1:pos:R:3:Z:I:1 energy=-325.1273077844109 field_type=dipole dipole="0.000000 0.000000 0.000000" charge=0
N	-2.690254	-1.274961	-0.269964	7
C	-1.239654	-1.161281	-0.351824	6
C	-0.723504	-0.128071	0.647016	6
C	0.794176	-0.039470	0.566406	6
C	1.403456	0.677520	-0.648124	6
C	2.099146	1.552739	0.388976	6
O	1.297256	0.995379	1.456366	8
H	-3.024594	-1.922421	-0.982354	1
H	-3.122024	-0.374210	-0.473624	1
H	-0.954774	-0.882390	-1.372074	1
H	-0.791744	-2.139631	-0.145934	1
H	-1.017354	-0.417630	1.663766	1
H	-1.175114	0.852179	0.448426	1
H	1.282396	-0.994321	0.800976	1
H	0.694056	1.214289	-1.284394	1
H	2.068506	0.067469	-1.263944	1
H	3.162396	1.346649	0.542626	1
H	1.937626	2.628159	0.277676	1
Es	-2.690102	-1.274759	-0.270493	99
Es	-2.791193	-1.384086	0.048668	99
Es	1.297337	0.995341	1.456040	99
Es	1.856738	0.260611	-1.072778	99
Es	1.796960	1.150799	-0.204160	99
Es	1.062672	1.189775	1.499130	99
Es	2.832446	1.408790	0.487229	99
Es	1.125367	-0.703000	0.719486	99
Es	0.794241	-0.039289	0.566509	99
Es	-1.239785	-1.161266	-0.351797	99
Es	-0.916593	-0.328351	1.333933	99
Es	-0.930187	-1.832245	-0.210074	99
Es	-1.030729	-0.962406	-1.058525	99
Es	1.477053	0.875012	1.680321	99
Es	0.914554	1.042727	-1.076983	99
Es	-0.723481	-0.128097	0.646972	99
Es	-2.063223	-1.216615	-0.330176	99
Es	-1.029173	0.541890	0.498637	99
Es	-2.880490	-1.655618	-0.719132	99
Es	1.403465	0.677522	-0.648088	99
Es	2.099007	1.552633	0.389114	99
Es	-2.935858	-0.725883	-0.413762	99
Es	1.101990	0.589432	1.143740	99
Es	1.060835	0.263256	-0.110612	99
Es	0.031555	-0.087137	0.598465	99
Es	1.993166	2.293636	0.310232	99
Es	-0.979550	-0.642403	0.145329	99
Es	1.619490	1.224982	1.071880	99
46
Properties=species:S:1:pos:R:3:Z:I:1 energy=-325.1273077844109 field_type=dipole dipole="0.000000 0.000000 0.000000" charge=0
N	-2.690254	-1.274961	-0.269964	7
C	-1.239654	-1.161281	-0.351824	6
C	-0.723504	-0.128071	0.647016	6
C	0.794176	-0.039470	0.566406	6
C	1.403456	0.677520	-0.648124	6
C	2.099146	1.552739	0.388976	6
O	1.297256	0.995379	1.456366	8
H	-3.024594	-1.922421	-0.982354	1
H	-3.122024	-0.374210	-0.473624	1
H	-0.954774	-0.882390	-1.372074	1
H	-0.791744	-2.139631	-0.145934	1
H	-1.017354	-0.417630	1.663766	1
H	-1.175114	0.852179	0.448426	1
H	1.282396	-0.994321	0.800976	1
H	0.694056	1.214289	-1.284394	1
H	2.068506	0.067469	-1.263944	1
H	3.162396	1.346649	0.542626	1
H	1.937626	2.628159	0.277676	1
Es	1.060845	0.263143	-0.110586	99
Es	-1.030757	-0.962432	-1.058448	99
Es	1.618584	1.226096	1.071423	99
Es	-0.979554	-0.642430	0.145271	99
Es	-2.880747	-1.655935	-0.718365	99
Es	0.914576	1.042595	-1.076951	99
Es	-0.723481	-0.128097	0.646973	99
Es	2.099007	1.552633	0.389112	99
Es	-1.239783	-1.161266	-0.351797	99
Es	-0.930132	-1.832226	-0.210112	99
Es	1.102151	0.588951	1.144032	99
Es	2.832437	1.408911	0.487258	99
Es	1.125355	-0.702948	0.719426	99
Es	0.794243	-0.039288	0.566511	99
Es	1.993156	2.293548	0.310256	99
Es	1.797158	1.150947	-0.204291	99
Es	-2.935803	-0.726067	-0.414448	99
Es	0.031536	-0.087173	0.598539	99
Es	-2.063309	-1.216650	-0.330989	99
Es	-2.790989	-1.383590	0.049434	99
Es	1.856553	0.260714	-1.072805	99
Es	1.062245	1.189535	1.502708	99
Es	-0.916604	-0.328269	1.333909	99
Es	-2.690068	-1.274760	-0.270548	99
Es	-1.029128	0.541873	0.498635	99
Es	1.403465	0.677522	-0.648089	99
Es	1.478126	0.874701	1.677015	99
Es	1.297430	0.995213	1.456030	99
46
Properties=species:S:1:pos:R:3:Z:I:1 energy=-325.1273077844109 field_type=dipole dipole="0.000000 0.000000 0.000000" charge=0
N	-2.690254	-1.274961	-0.269964	7
C	-1.239654	-1.161281	-0.351824	6
C	-0.723504	-0.128071	0.647016	6
C	0.794176	-0.039470	0.566406	6
C	1.403456	0.677520	-0.648124	6
C	2.099146	1.552739	0.388976	6
O	1.297256	0.995379	1.456366	8
H	-3.024594	-1.922421	-0.982354	1
H	-3.122024	-0.374210	-0.473624	1
H	-0.954774	-0.882390	-1.372074	1
H	-0.791744	-2.139631	-0.145934	1
H	-1.017354	-0.417630	1.663766	1
H	-1.175114	0.852179	0.448426	1
H	1.282396	-0.994321	0.800976	1
H	0.694056	1.214289	-1.284394	1
H	2.068506	0.067469	-1.263944	1
H	3.162396	1.346649	0.542626	1
H	1.937626	2.628159	0.277676	1
Es	1.856471	0.260806	-1.072813	99
Es	-0.979514	-0.642426	0.145277	99
Es	0.794243	-0.039290	0.566508	99
Es	1.100132	0.590336	1.143631	99
Es	1.620881	1.224465	1.072117	99
Es	-2.062911	-1.216746	-0.330355	99
Es	1.403460	0.677525	-0.648089	99
Es	-2.935847	-0.726094	-0.414339	99
Es	-1.030723	-0.962504	-1.058438	99
Es	-1.029125	0.541900	0.498669	99
Es	0.031564	-0.087197	0.598506	99
Es	0.914635	1.042582	-1.076943	99
Es	2.832331	1.408943	0.487231	99
Es	2.099009	1.552634	0.389111	99
Es	1.475631	0.874807	1.682054	99
Es	-0.723481	-0.128097	0.646973	99
Es	-2.880852	-1.656052	-0.718365	99
Es	-2.791251	-1.383288	0.048618	99
Es	1.297307	0.995289	1.456059	99
Es	-0.930198	-1.832207	-0.210115	99
Es	-0.916552	-0.328279	1.333907	99
Es	1.064581	1.189684	1.497425	99
Es	1.125261	-0.702907	0.719536	99
Es	1.993251	2.293528	0.310285	99
Es	1.797231	1.150943	-0.204369	99
Es	-2.690088	-1.274779	-0.270493	99
Es	-1.239786	-1.161265	-0.351797	99
Es	1.060850	0.262942	-0.110686	99
46
Properties=species:S:1:pos:R:3:Z:I:1 energy=-325.1273077844109 field_type=dipole dipole="0.000000 0.000000 0.000000" charge=0
N	-2.690254	-1.274961	-0.269964	7
C	-1.239654	-1.161281	-0.351824	6
C	-0.723504	-0.128071	0.647016	6
C	0.794176	-0.039470	0.566406	6
C	1.403456	0.677520	-0.648124	6
C	2.099146	1.552739	0.388976	6
O	1.297256	0.995379	1.456366	8
H	-3.024594	-1.922421	-0.982354	1
H	-3.122024	-0.374210	-0.473624	1
H	-0.954774	-0.882390	-1.372074	1
H	-0.791744	-2.139631	-0.145934	1
H	-1.017354	-0.417630	1.663766	1
H	-1.175114	0.852179	0.448426	1
H	1.282396	-0.994321	0.800976	1
H	0.694056	1.214289	-1.284394	1
H	2.068506	0.067469	-1.263944	1
H	3.162396	1.346649	0.542626	1
H	1.937626	2.628159	0.277676	1
Es	1.060757	0.262862	-0.110643	99
Es	-2.935742	-0.726119	-0.414536	99
Es	1.797255	1.150924	-0.204432	99
Es	-0.930175	-1.832173	-0.210183	99
Es	0.794242	-0.039291	0.566509	99
Es	1.064335	1.187427	1.495395	99
Es	-2.690106	-1.274809	-0.270409	99
Es	-0.916564	-0.328250	1.333880	99
Es	0.031552	-0.087185	0.598564	99
Es	-1.239783	-1.161266	-0.351798	99
Es	1.125261	-0.702874	0.719463	99
Es	2.099009	1.552635	0.389111	99
Es	-1.030729	-0.962498	-1.058376	99
Es	1.856480	0.260879	-1.072764	99
Es	1.475327	0.877369	1.683717	99
Es	-0.979503	-0.642457	0.145238	99
Es	-2.791208	-1.383210	0.048870	99
Es	1.619759	1.226101	1.071642	99
Es	-2.063084	-1.216773	-0.330580	99
Es	1.101836	0.588376	1.144491	99
Es	2.832295	1.409018	0.487250	99
Es	1.297300	0.995300	1.456121	99
Es	1.993251	2.293495	0.310283	99
Es	-1.029101	0.541870	0.498713	99
Es	0.914717	1.042567	-1.077002	99
Es	-2.880854	-1.656094	-0.718307	99
Es	1.403465	0.677522	-0.648087	99
Es	-0.723481	-0.128097	0.646973	99
46
Properties=species:S:1:pos:R:3:Z:I:1 energy=-325.1273077844109 field_type=dipole dipole="0.000000 0.000000 0.000000" charge=0
N	-2.690254	-1.274961	-0.269964	7
C	-1.239654	-1.161281	-0.351824	6
C	-0.723504	-0.128071	0.647016	6
C	0.794176	-0.039470	0.566406	6
C	1.403456	0.677520	-0.648124	6
C	2.099146	1.552739	0.388976	6
O	1.297256	0.995379	1.456366	8
H	-3.024594	-1.922421	-0.982354	1
H	-3.122024	-0.374210	-0.473624	1
H	-0.954774	-0.882390	-1.372074	1
H	-0.791744	-2.139631	-0.145934	1
H	-1.017354	-0.417630	1.663766	1
H	-1.175114	0.852179	0.448426	1
H	1.282396	-0.994321	0.800976	1
H	0.694056	1.214289	-1.284394	1
H	2.068506	0.067469	-1.263944	1
H	3.162396	1.346649	0.542626	1
H	1.937626	2.628159	0.277676	1
Es	-0.723481	-0.128097	0.646973	99
Es	-1.029174	0.541875	0.498852	99
Es	-0.930169	-1.832121	-0.210138	99
Es	1.060773	0.262785	-0.110748	99
Es	2.832324	1.409034	0.487250	99
Es	-2.880891	-1.656022	-0.718173	99
Es	1.297327	0.995294	1.456062	99
Es	1.856483	0.260909	-1.072837	99
Es	-0.916405	-0.328416	1.333958	99
Es	1.797200	1.151059	-0.204411	99
Es	-2.063083	-1.216799	-0.330855	99
Es	1.101142	0.588666	1.144286	99
Es	-2.690091	-1.274779	-0.270492	99
Es	1.620302	1.225727	1.071932	99
Es	1.125206	-0.702833	0.719479	99
Es	-0.979580	-0.642251	0.145247	99
Es	1.993305	2.293395	0.310321	99
Es	-2.791059	-1.383363	0.048935	99
Es	1.063816	1.189132	1.499895	99
Es	2.099008	1.552633	0.389109	99
Es	-1.030695	-0.962580	-1.058354	99
Es	-2.935899	-0.726080	-0.414428	99
Es	-1.239783	-1.161266	-0.351797	99
Es	0.914761	1.042509	-1.076926	99
Es	1.403465	0.677522	-0.648091	99
Es	0.794243	-0.039290	0.566509	99
Es	0.031532	-0.087177	0.598293	99
Es	1.475938	0.875786	1.679255	99
46
Properties=species:S:1:pos:R:3:Z:I:1 energy=-325.1273077844109 field_type=dipole dipole="0.000000 0.000000 0.000000" charge=0
N	-2.690254	-1.274961	-0.269964	7
C	-1.239654	-1.161281	-0.351824	6
C	-0.723504	-0.128071	0.647016	6
C	0.794176	-0.039470	0.566406	6
C	1.403456	0.677520	-0.648124	6
C	2.099146	1.552739	0.388976	6
O	1.297256	0.995379	1.456366	8
H	-3.024594	-1.922421	-0.982354	1
H	-3.122024	-0.374210	-0.473624	1
H	-0.954774	-0.882390	-1.372074	1
H	-0.791744	-2.139631	-0.145934	1
H	-1.017354	-0.417630	1.663766	1
H	-1.175114	0.852179	0.448426	1
H	1.282396	-0.994321	0.800976	1
H	0.694056	1.214289	-1.284394	1
H	2.068506	0.067469	-1.263944	1
H	3.162396	1.346649	0.542626	1
H	1.937626	2.628159	0.277676	1
Es	1.125175	-0.702757	0.719494	99
Es	-1.239783	-1.161265	-0.351798	99
Es	-2.881030	-1.655834	-0.718401	99
Es	2.832204	1.409053	0.487292	99
Es	-2.935679	-0.726177	-0.414269	99
Es	0.794243	-0.039290	0.566508	99
Es	-0.916458	-0.328218	1.333852	99
Es	1.100939	0.588768	1.144142	99
Es	-1.029115	0.541848	0.498816	99
Es	1.063624	1.189398	1.502490	99
Es	-1.030728	-0.962576	-1.058359	99
Es	0.914772	1.042493	-1.076846	99
Es	1.620152	1.226142	1.071911	99
Es	-0.930138	-1.832034	-0.210206	99
Es	-2.063003	-1.216962	-0.330690	99
Es	1.856336	0.260831	-1.072905	99
Es	1.060773	0.262810	-0.110743	99
Es	1.797415	1.151052	-0.204585	99
Es	1.993384	2.293428	0.310351	99
Es	1.297342	0.995281	1.456078	99
Es	0.031557	-0.087204	0.598553	99
Es	1.476456	0.875008	1.676808	99
Es	-2.690094	-1.274780	-0.270482	99
Es	2.099011	1.552635	0.389109	99
Es	-2.791257	-1.383376	0.048879	99
Es	-0.979570	-0.642447	0.145220	99
Es	1.403466	0.677523	-0.648088	99
Es	-0.723480	-0.128097	0.646972	99
46
Properties=species:S:1:pos:R:3:Z:I:1 energy=-325.1273077844109 field_type=dipole dipole="0.000000 0.000000 0.000000" charge=0
N	-2.690254	-1.274961	-0.269964	7
C	-1.239654	-1.161281	-0.351824	6
C	-0.723504	-0.128071	0.647016	6
C	0.794176	-0.039470	0.566406	6
C	1.403456	0.677520	-0.648124	6
C	2.099146	1.552739	0.388976	6
O	1.297256	0.995379	1.456366	8
H	-3.024594	-1.922421	-0.982354	1
H	-3.122024	-0.374210	-0.473624	1
H	-0.954774	-0.882390	-1.372074	1
H	-0.791744	-2.139631	-0.145934	1
H	-1.017354	-0.417630	1.663766	1
H	-1.175114	0.852179	0.448426	1
H	1.282396	-0.994321	0.800976	1
H	0.694056	1.214289	-1.284394	1
H	2.068506	0.067469	-1.263944	1
H	3.162396	1.346649	0.542626	1
H	1.937626	2.628159	0.277676	1
Es	1.064329	1.188597	1.501625	99
Es	-0.723482	-0.128096	0.646973	99
Es	-1.239783	-1.161266	-0.351798	99
Es	1.476009	0.875996	1.677318	99
Es	0.914775	1.042363	-1.076933	99
Es	-0.916506	-0.328127	1.333826	99
Es	1.797440	1.151197	-0.204653	99
Es	-1.029074	0.541817	0.498778	99
Es	1.297288	0.995331	1.456237	99
Es	1.125129	-0.702713	0.719473	99
Es	1.993418	2.293362	0.310365	99
Es	1.100749	0.588073	1.144635	99
Es	1.620150	1.226622	1.071729	99
Es	-2.791346	-1.383435	0.048972	99
Es	-0.979519	-0.642530	0.145224	99
Es	0.031591	-0.087230	0.598616	99
Es	1.403465	0.677523	-0.648087	99
Es	1.856270	0.260994	-1.072817	99
Es	-0.930193	-1.832087	-0.210240	99
Es	0.794242	-0.039291	0.566507	99
Es	-1.030696	-0.962597	-1.058283	99
Es	-2.935847	-0.726237	-0.414498	99
Es	2.099010	1.552635	0.389110	99
Es	-2.690087	-1.274776	-0.270486	99
Es	1.060808	0.262622	-0.110747	99
Es	2.832190	1.409095	0.487268	99
Es	-2.063039	-1.216733	-0.330728	99
Es	-2.880779	-1.655857	-0.718281	99
46
Properties=species:S:1:pos:R:3:Z:I:1 energy=-325.1273077844109 field_type=dipole dipole="0.000000 0.000000 0.000000" charge=0
N	-2.690254	-1.274961	-0.269964	7
C	-1.239654	-1.161281	-0.351824	6
C	-0.723504	-0.128071	0.647016	6
C	0.794176	-0.039470	0.566406	6
C	1.403456	0.677520	-0.648124	6
C	2.099146	1.552739	0.388976	6
O	1.297256	0.995379	1.456366	8
H	-3.024594	-1.922421	-0.982354	1
H	-3.122024	-0.374210	-0.473624	1
H	-0.954774	-0.882390	-1.372074	1
H	-0.791744	-2.139631	-0.145934	1
H	-1.017354	-0.417630	1.663766	1
H	-1.175114	0.852179	0.448426	1
H	1.282396	-0.994321	0.800976	1
H	0.694056	1.214289	-1.284394	1
H	2.068506	0.067469	-1.263944	1
H	3.162396	1.346649	0.542626	1
H	1.937626	2.628159	0.277676	1
Es	-2.790685	-1.383954	0.048987	99
Es	1.475286	0.877004	1.679076	99
Es	1.993478	2.293342	0.310401	99
Es	-1.239782	-1.161266	-0.351798	99
Es	2.099013	1.552637	0.389107	99
Es	-2.690096	-1.274785	-0.270486	99
Es	-0.916450	-0.328131	1.333858	99
Es	-0.930222	-1.832007	-0.210205	99
Es	-0.723480	-0.128098	0.646973	99
Es	0.914868	1.042329	-1.076956	99
Es	1.297322	0.995279	1.456032	99
Es	-1.030657	-0.962735	-1.058255	99
Es	1.060708	0.262561	-0.110850	99
Es	1.797418	1.151238	-0.204680	99
Es	-0.979529	-0.642434	0.145203	99
Es	1.064996	1.187955	1.499871	99
Es	-2.063178	-1.216487	-0.331476	99
Es	1.403465	0.677523	-0.648088	99
Es	0.031587	-0.087254	0.598621	99
Es	0.794242	-0.039291	0.566507	99
Es	-2.881011	-1.655610	-0.718497	99
Es	1.856260	0.260990	-1.072794	99
Es	1.620313	1.226785	1.071870	99
Es	-1.029070	0.541795	0.498826	99
Es	1.125069	-0.702635	0.719467	99
Es	1.100692	0.587633	1.144770	99
Es	2.832127	1.409105	0.487233	99
Es	-2.936171	-0.726238	-0.413611	99
46
Properties=species:S:1:pos:R:3:Z:I:1 energy=-325.1273077844109 field_type=dipole dipole="0.000000 0.000000 0.000000" charge=0
N	-2.690254	-1.274961	-0.269964	7
C	-1.239654	-1.161281	-0.351824	6
C	-0.723504	-0.128071	0.647016	6
C	0.794176	-0.039470	0.566406	6
C	1.403456	0.677520	-0.648124	6
C	2.099146	1.552739	0.388976	6
O	1.297256	0.995379	1.456366	8
H	-3.024594	-1.922421	-0.982354	1
H	-3.122024	-0.374210	-0.473624	1
H	-0.954774	-0.882390	-1.372074	1
H	-0.791744	-2.139631	-0.145934	1
H	-1.017354	-0.417630	1.663766	1
H	-1.175114	0.852179	0.448426	1
H	1.282396	-0.994321	0.800976	1
H	0.694056	1.214289	-1.284394	1
H	2.068506	0.067469	-1.263944	1
H	3.162396	1.346649	0.542626	1
H	1.937626	2.628159	0.277676	1
Es	-2.062965	-1.216798	-0.330848	99
Es	1.993427	2.293307	0.310355	99
Es	1.125107	-0.702593	0.719403	99
Es	-2.935909	-0.726259	-0.414356	99
Es	-0.979492	-0.642575	0.145206	99
Es	1.100180	0.588189	1.144468	99
Es	1.297323	0.995306	1.456065	99
Es	0.794242	-0.039291	0.566505	99
Es	-2.690093	-1.274780	-0.270481	99
Es	1.797603	1.151170	-0.204644	99
Es	0.914937	1.042353	-1.076913	99
Es	1.475003	0.876047	1.677818	99
Es	1.060626	0.262607	-0.110906	99
Es	1.620978	1.226776	1.072122	99
Es	1.403467	0.677521	-0.648084	99
Es	-1.030712	-0.962666	-1.058179	99
Es	1.065067	1.188300	1.501197	99
Es	2.832117	1.409217	0.487295	99
Es	-2.791155	-1.383217	0.048734	99
Es	-0.723480	-0.128098	0.646972	99
Es	0.031656	-0.087306	0.598830	99
Es	-2.881043	-1.656020	-0.718122	99
Es	2.099008	1.552634	0.389109	99
Es	1.856180	0.260974	-1.072834	99
Es	-0.930213	-1.832040	-0.210353	99
Es	-1.239782	-1.161267	-0.351798	99
Es	-0.916510	-0.328036	1.333663	99
Es	-1.029057	0.541797	0.498877	99
46
Properties=species:S:1:pos:R:3:Z:I:1 energy=-325.1273077844109 field_type=dipole dipole="0.000000 0.000000 0.000000" charge=0
N	-2.690254	-1.274961	-0.269964	7
C	-1.239654	-1.161281	-0.351824	6
C	-0.723504	-0.128071	0.647016	6
C	0.794176	-0.039470	0.566406	6
C	1.403456	0.677520	-0.648124	6
C	2.099146	1.552739	0.388976	6
O	1.297256	0.995379	1.456366	8
H	-3.024594	-1.922421	-0.982354	1
H	-3.122024	-0.374210	-0.473624	1
H	-0.954774	-0.882390	-1.372074	1
H	-0.791744	-2.139631	-0.145934	1
H	-1.017354	-0.417630	1.663766	1
H	-1.175114	0.852179	0.448426	1
H	1.282396	-0.994321	0.800976	1
H	0.694056	1.214289	-1.284394	1
H	2.068506	0.067469	-1.263944	1
H	3.162396	1.346649	0.542626	1
H	1.937626	2.628159	0.277676	1
Es	-2.791347	-1.382918	0.048377	99
Es	1.993505	2.293217	0.310422	99
Es	-0.723480	-0.128097	0.646972	99
Es	1.620429	1.227425	1.071962	99
Es	1.403466	0.677522	-0.648087	99
Es	-2.880980	-1.656254	-0.718104	99
Es	-2.062805	-1.216757	-0.330392	99
Es	1.065172	1.187774	1.501883	99
Es	1.475352	0.876232	1.677268	99
Es	2.099007	1.552633	0.389108	99
Es	1.797570	1.151324	-0.204791	99
Es	-0.916491	-0.328106	1.333791	99
Es	1.125004	-0.702590	0.719457	99
Es	-1.239781	-1.161266	-0.351797	99
Es	-2.935967	-0.726400	-0.414466	99
Es	-0.979400	-0.642521	0.145155	99
Es	-1.029063	0.541792	0.498837	99
Es	2.832099	1.409248	0.487304	99
Es	0.794242	-0.039291	0.566506	99
Es	1.856172	0.261073	-1.072878	99
Es	1.297269	0.995333	1.456036	99
Es	1.100311	0.587873	1.144569	99
Es	-0.930176	-1.832004	-0.210351	99
Es	0.031574	-0.087217	0.598732	99
Es	0.914950	1.042264	-1.076868	99
Es	-1.030720	-0.962687	-1.058157	99
Es	1.060692	0.262435	-0.110893	99
Es	-2.690093	-1.274786	-0.270489	99
