46
Properties=species:S:1:pos:R:3:Z:I:1 energy=-325.140020064935 field_type=dipole dipole="0.000000 0.000000 0.000000" charge=0
N	-1.729281	-0.343692	1.026908	7
C	-1.583691	0.120218	-0.356292	6
C	-0.285851	0.908948	-0.583302	6
C	0.974899	0.076518	-0.464542	6
C	1.568849	-0.448312	-1.551492	6
C	1.571509	-0.082752	0.909208	6
O	0.877769	-1.077782	1.640858	8
H	-2.581791	-0.905102	1.093218	1
H	-1.887891	0.461968	1.635438	1
H	-2.440701	0.757748	-0.602212	1
H	-1.618861	-0.744112	-1.028892	1
H	-0.233591	1.761068	0.105888	1
H	-0.333341	1.351918	-1.587471	1
H	1.152029	-0.325932	-2.545922	1
H	2.476089	-1.039142	-1.466402	1
H	1.529399	0.860358	1.463388	1
H	2.623869	-0.378002	0.858978	1
H	-0.079421	-0.953912	1.452638	1
Es	-0.253711	1.481985	-0.102007	99
Es	-1.682255	-0.133648	0.437595	99
Es	2.293842	-0.282552	0.864036	99
Es	0.927215	-1.011674	1.937638	99
Es	1.264866	0.004820	0.208566	99
Es	1.568887	-0.448359	-1.551575	99
Es	-0.322584	1.201188	-1.268414	99
Es	0.877621	-1.077502	1.640702	99
Es	1.536832	0.581821	1.277808	99
Es	1.571365	-0.082886	0.909264	99
Es	-0.285863	0.908914	-0.583287	99
Es	-1.422900	-0.535225	1.139020	99
Es	-1.606385	-0.470455	-0.811359	99
Es	0.335758	0.483604	-0.513137	99
Es	2.185476	-0.847816	-1.500397	99
Es	-0.919921	0.505986	-0.455833	99
Es	-2.248705	-0.669390	1.058071	99
Es	0.403659	-0.999913	1.533290	99
Es	-1.729679	-0.343414	1.026740	99
Es	0.965021	-1.342930	1.513668	99
Es	-1.583670	0.120192	-0.356130	99
Es	1.286230	-0.366323	-2.231607	99
Es	-1.834943	0.149833	1.379716	99
Es	0.974816	0.076593	-0.464457	99
Es	1.456614	0.086272	-1.062016	99
Es	1.101904	-0.461921	-0.981998	99
Es	-2.172568	0.566742	-0.530427	99
Es	1.125256	-0.681584	1.345491	99
46
Properties=species:S:1:pos:R:3:Z:I:1 energy=-325.140020064935 field_type=dipole dipole="0.000000 0.000000 0.000000" charge=0
N	-1.729281	-0.343692	1.026908	7
C	-1.583691	0.120218	-0.356292	6
C	-0.285851	0.908948	-0.583302	6
C	0.974899	0.076518	-0.464542	6
C	1.568849	-0.448312	-1.551492	6
C	1.571509	-0.082752	0.909208	6
O	0.877769	-1.077782	1.640858	8
H	-2.581791	-0.905102	1.093218	1
H	-1.887891	0.461968	1.635438	1
H	-2.440701	0.757748	-0.602212	1
H	-1.618861	-0.744112	-1.028892	1
H	-0.233591	1.761068	0.105888	1
H	-0.333341	1.351918	-1.587471	1
H	1.152029	-0.325932	-2.545922	1
H	2.476089	-1.039142	-1.466402	1
H	1.529399	0.860358	1.463388	1
H	2.623869	-0.378002	0.858978	1
H	-0.079421	-0.953912	1.452638	1
Es	0.877608	-1.077572	1.640567	99
Es	-0.285861	0.908906	-0.583285	99
Es	-1.834567	0.149633	1.379826	99
Es	0.403843	-0.999602	1.532877	99
Es	0.926889	-1.011259	1.937846	99
Es	-1.606365	-0.470353	-0.811305	99
Es	-1.682057	-0.133603	0.437474	99
Es	1.571368	-0.082886	0.909263	99
Es	1.101950	-0.461798	-0.982003	99
Es	1.456501	0.086165	-1.062034	99
Es	0.335698	0.483598	-0.513084	99
Es	-1.729695	-0.343411	1.026739	99
Es	-0.919802	0.506000	-0.455852	99
Es	0.974816	0.076588	-0.464459	99
Es	-0.253695	1.482124	-0.101967	99
Es	-0.322621	1.201071	-1.268414	99
Es	1.568880	-0.448358	-1.551576	99
Es	-2.248942	-0.669318	1.058149	99
Es	0.964514	-1.343008	1.514342	99
Es	1.536846	0.581768	1.277784	99
Es	-2.172597	0.566678	-0.530483	99
Es	2.185476	-0.847716	-1.500397	99
Es	-1.583670	0.120194	-0.356128	99
Es	1.286182	-0.366288	-2.231696	99
Es	1.265005	0.004703	0.208536	99
Es	1.125893	-0.682134	1.345174	99
Es	-1.423270	-0.535217	1.138967	99
Es	2.293852	-0.282551	0.864098	99
46
Properties=species:S:1:pos:R:3:Z:I:1 energy=-325.140020064935 field_type=dipole dipole="0.000000 0.000000 0.000000" charge=0
N	-1.729281	-0.343692	1.026908	7
C	-1.583691	0.120218	-0.356292	6
C	-0.285851	0.908948	-0.583302	6
C	0.974899	0.076518	-0.464542	6
C	1.568849	-0.448312	-1.551492	6
C	1.571509	-0.082752	0.909208	6
O	0.877769	-1.077782	1.640858	8
H	-2.581791	-0.905102	1.093218	1
H	-1.887891	0.461968	1.635438	1
H	-2.440701	0.757748	-0.602212	1
H	-1.618861	-0.744112	-1.028892	1
H	-0.233591	1.761068	0.105888	1
H	-0.333341	1.351918	-1.587471	1
H	1.152029	-0.325932	-2.545922	1
H	2.476089	-1.039142	-1.466402	1
H	1.529399	0.860358	1.463388	1
H	2.623869	-0.378002	0.858978	1
H	-0.079421	-0.953912	1.452638	1
Es	1.102126	-0.461623	-0.981962	99
Es	1.568878	-0.448356	-1.551575	99
Es	0.963964	-1.342622	1.512702	99
Es	0.928045	-1.013208	1.937180	99
Es	1.286144	-0.366239	-2.231725	99
Es	0.335632	0.483719	-0.513236	99
Es	-1.606355	-0.470348	-0.811367	99
Es	-1.424619	-0.535790	1.139343	99
Es	-1.583670	0.120194	-0.356133	99
Es	0.974818	0.076595	-0.464459	99
Es	-2.249105	-0.668552	1.057763	99
Es	2.185474	-0.847738	-1.500393	99
Es	1.456461	0.085904	-1.061936	99
Es	-1.729660	-0.343426	1.026748	99
Es	1.571368	-0.082883	0.909263	99
Es	-1.834215	0.149903	1.380208	99
Es	0.877623	-1.077527	1.640656	99
Es	1.125616	-0.681168	1.345797	99
Es	-0.285861	0.908906	-0.583286	99
Es	2.293872	-0.282542	0.864049	99
Es	-0.322532	1.201155	-1.268318	99
Es	-0.253703	1.482043	-0.102022	99
Es	-2.172568	0.566651	-0.530449	99
Es	0.403417	-0.999083	1.534517	99
Es	1.536858	0.581782	1.277708	99
Es	-1.680930	-0.134078	0.437105	99
Es	-0.919979	0.505994	-0.455873	99
Es	1.265079	0.004694	0.208656	99
46
Properties=species:S:1:pos:R:3:Z:I:1 energy=-325.140020064935 field_type=dipole dipole="0.000000 0.000000 0.000000" charge=0
N	-1.729281	-0.343692	1.026908	7
C	-1.583691	0.120218	-0.356292	6
C	-0.285851	0.908948	-0.583302	6
C	0.974899	0.076518	-0.464542	6
C	1.568849	-0.448312	-1.551492	6
C	1.571509	-0.082752	0.909208	6
O	0.877769	-1.077782	1.640858	8
H	-2.581791	-0.905102	1.093218	1
H	-1.887891	0.461968	1.635438	1
H	-2.440701	0.757748	-0.602212	1
H	-1.618861	-0.744112	-1.028892	1
H	-0.233591	1.761068	0.105888	1
H	-0.333341	1.351918	-1.587471	1
H	1.152029	-0.325932	-2.545922	1
H	2.476089	-1.039142	-1.466402	1
H	1.529399	0.860358	1.463388	1
H	2.623869	-0.378002	0.858978	1
H	-0.079421	-0.953912	1.452638	1
Es	-1.583670	0.120194	-0.356131	99
Es	-1.729691	-0.343393	1.026757	99
Es	0.877708	-1.077669	1.640743	99
Es	1.102115	-0.461693	-0.981935	99
Es	1.286196	-0.366230	-2.231676	99
Es	-1.835245	0.149693	1.379705	99
Es	-0.253655	1.482086	-0.102027	99
Es	1.456456	0.085944	-1.061941	99
Es	0.335541	0.483652	-0.513239	99
Es	-0.285861	0.908907	-0.583285	99
Es	1.536995	0.581757	1.277758	99
Es	0.974813	0.076587	-0.464457	99
Es	0.929921	-1.016999	1.937875	99
Es	1.568888	-0.448349	-1.551580	99
Es	1.125944	-0.680391	1.346937	99
Es	-1.423261	-0.534928	1.139353	99
Es	-0.322594	1.201107	-1.268344	99
Es	1.265054	0.004758	0.208609	99
Es	1.571367	-0.082884	0.909263	99
Es	-1.682193	-0.133770	0.437064	99
Es	-1.606304	-0.470356	-0.811333	99
Es	-0.919944	0.506099	-0.455813	99
Es	2.293779	-0.282559	0.863986	99
Es	0.403209	-0.997844	1.535979	99
Es	0.961860	-1.340742	1.509342	99
Es	2.185509	-0.847673	-1.500444	99
Es	-2.248229	-0.669494	1.058341	99
Es	-2.172529	0.566551	-0.530545	99
46
Properties=species:S:1:pos:R:3:Z:I:1 energy=-325.140020064935 field_type=dipole dipole="0.000000 0.000000 0.000000" charge=0
N	-1.729281	-0.343692	1.026908	7
C	-1.583691	0.120218	-0.356292	6
C	-0.285851	0.908948	-0.583302	6
C	0.974899	0.076518	-0.464542	6
C	1.568849	-0.448312	-1.551492	6
C	1.571509	-0.082752	0.909208	6
O	0.877769	-1.077782	1.640858	8
H	-2.581791	-0.905102	1.093218	1
H	-1.887891	0.461968	1.635438	1
H	-2.440701	0.757748	-0.602212	1
H	-1.618861	-0.744112	-1.028892	1
H	-0.233591	1.761068	0.105888	1
H	-0.333341	1.351918	-1.587471	1
H	1.152029	-0.325932	-2.545922	1
H	2.476089	-1.039142	-1.466402	1
H	1.529399	0.860358	1.463388	1
H	2.623869	-0.378002	0.858978	1
H	-0.079421	-0.953912	1.452638	1
Es	1.456318	0.085732	-1.061898	99
Es	2.185562	-0.847652	-1.500489	99
Es	1.571368	-0.082884	0.909264	99
Es	1.536934	0.581801	1.277680	99
Es	1.102238	-0.461546	-0.981921	99
Es	-1.682479	-0.133458	0.437627	99
Es	-2.172471	0.566578	-0.530533	99
Es	-0.322548	1.201224	-1.268327	99
Es	0.964217	-1.342945	1.514625	99
Es	0.402980	-0.999412	1.534460	99
Es	-1.834272	0.149619	1.380285	99
Es	0.927468	-1.012231	1.935967	99
Es	1.286141	-0.366161	-2.231670	99
Es	1.265192	0.004655	0.208709	99
Es	0.335510	0.483761	-0.513292	99
Es	-0.285861	0.908907	-0.583285	99
Es	0.974814	0.076591	-0.464458	99
Es	1.126354	-0.681602	1.345165	99
Es	-2.248762	-0.669768	1.058302	99
Es	0.877616	-1.077476	1.640697	99
Es	-1.583671	0.120193	-0.356130	99
Es	-1.606433	-0.470261	-0.811302	99
Es	-1.729668	-0.343418	1.026724	99
Es	-0.253598	1.481937	-0.102154	99
Es	-0.919996	0.505981	-0.455797	99
Es	-1.423464	-0.534925	1.138319	99
Es	1.568878	-0.448361	-1.551576	99
Es	2.293811	-0.282523	0.863969	99
46
Properties=species:S:1:pos:R:3:Z:I:1 energy=-325.140020064935 field_type=dipole dipole="0.000000 0.000000 0.000000" charge=0
N	-1.729281	-0.343692	1.026908	7
C	-1.583691	0.120218	-0.356292	6
C	-0.285851	0.908948	-0.583302	6
C	0.974899	0.076518	-0.464542	6
C	1.568849	-0.448312	-1.551492	6
C	1.571509	-0.082752	0.909208	6
O	0.877769	-1.077782	1.640858	8
H	-2.581791	-0.905102	1.093218	1
H	-1.887891	0.461968	1.635438	1
H	-2.440701	0.757748	-0.602212	1
H	-1.618861	-0.744112	-1.028892	1
H	-0.233591	1.761068	0.105888	1
H	-0.333341	1.351918	-1.587471	1
H	1.152029	-0.325932	-2.545922	1
H	2.476089	-1.039142	-1.466402	1
H	1.529399	0.860358	1.463388	1
H	2.623869	-0.378002	0.858978	1
H	-0.079421	-0.953912	1.452638	1
Es	0.974815	0.076589	-0.464458	99
Es	1.265270	0.004611	0.208681	99
Es	-0.920015	0.505922	-0.455876	99
Es	-0.285860	0.908908	-0.583286	99
Es	1.102239	-0.461425	-0.981978	99
Es	1.571369	-0.082882	0.909263	99
Es	-1.834933	0.149627	1.379786	99
Es	0.877671	-1.077576	1.640718	99
Es	-0.253588	1.481939	-0.102128	99
Es	-2.248686	-0.668950	1.057988	99
Es	0.927255	-1.010404	1.936597	99
Es	-0.322503	1.201237	-1.268289	99
Es	-1.729698	-0.343401	1.026740	99
Es	1.568887	-0.448359	-1.551583	99
Es	-1.681712	-0.133832	0.437212	99
Es	0.403219	-1.000466	1.533830	99
Es	1.456259	0.085678	-1.061877	99
Es	2.185572	-0.847665	-1.500411	99
Es	0.964618	-1.342804	1.515942	99
Es	-2.172478	0.566593	-0.530516	99
Es	1.286181	-0.366224	-2.231678	99
Es	-1.423593	-0.535438	1.139541	99
Es	-1.583670	0.120193	-0.356130	99
Es	0.335486	0.483846	-0.513358	99
Es	-1.606468	-0.470202	-0.811297	99
Es	1.536892	0.581767	1.277673	99
Es	1.125843	-0.682466	1.343804	99
Es	2.293804	-0.282460	0.864052	99
46
Properties=species:S:1:pos:R:3:Z:I:1 energy=-325.140020064935 field_type=dipole dipole="0.000000 0.000000 0.000000" charge=0
N	-1.729281	-0.343692	1.026908	7
C	-1.583691	0.120218	-0.356292	6
C	-0.285851	0.908948	-0.583302	6
C	0.974899	0.076518	-0.464542	6
C	1.568849	-0.448312	-1.551492	6
C	1.571509	-0.082752	0.909208	6
O	0.877769	-1.077782	1.640858	8
H	-2.581791	-0.905102	1.093218	1
H	-1.887891	0.461968	1.635438	1
H	-2.440701	0.757748	-0.602212	1
H	-1.618861	-0.744112	-1.028892	1
H	-0.233591	1.761068	0.105888	1
H	-0.333341	1.351918	-1.587471	1
H	1.152029	-0.325932	-2.545922	1
H	2.476089	-1.039142	-1.466402	1
H	1.529399	0.860358	1.463388	1
H	2.623869	-0.378002	0.858978	1
H	-0.079421	-0.953912	1.452638	1
Es	1.568880	-0.448357	-1.551576	99
Es	1.571369	-0.082882	0.909263	99
Es	-0.322488	1.201227	-1.268278	99
Es	0.926612	-1.011119	1.935690	99
Es	-0.285861	0.908907	-0.583286	99
Es	-1.583670	0.120194	-0.356131	99
Es	-1.729520	-0.343524	1.026798	99
Es	0.403122	-1.000409	1.533936	99
Es	0.335387	0.483811	-0.513360	99
Es	1.102307	-0.461390	-0.981939	99
Es	1.265335	0.004606	0.208679	99
Es	2.293802	-0.282446	0.864041	99
Es	-2.172428	0.566511	-0.530545	99
Es	1.126098	-0.681439	1.344881	99
Es	1.456184	0.085561	-1.061876	99
Es	0.965140	-1.343232	1.515743	99
Es	-1.834917	0.149575	1.379935	99
Es	2.185605	-0.847627	-1.500421	99
Es	0.877621	-1.077520	1.640684	99
Es	-1.682180	-0.133661	0.437228	99
Es	-1.606483	-0.470197	-0.811285	99
Es	-0.920021	0.505981	-0.455907	99
Es	-2.248450	-0.669377	1.058233	99
Es	1.536911	0.581763	1.277631	99
Es	-0.253574	1.481949	-0.102139	99
Es	1.286185	-0.366156	-2.231699	99
Es	0.974816	0.076590	-0.464459	99
Es	-1.423603	-0.534982	1.139120	99
46
Properties=species:S:1:pos:R:3:Z:I:1 energy=-325.140020064935 field_type=dipole dipole="0.000000 0.000000 0.000000" charge=0
N	-1.729281	-0.343692	1.026908	7
C	-1.583691	0.120218	-0.356292	6
C	-0.285851	0.908948	-0.583302	6
C	0.974899	0.076518	-0.464542	6
C	1.568849	-0.448312	-1.551492	6
C	1.571509	-0.082752	0.909208	6
O	0.877769	-1.077782	1.640858	8
H	-2.581791	-0.905102	1.093218	1
H	-1.887891	0.461968	1.635438	1
H	-2.440701	0.757748	-0.602212	1
H	-1.618861	-0.744112	-1.028892	1
H	-0.233591	1.761068	0.105888	1
H	-0.333341	1.351918	-1.587471	1
H	1.152029	-0.325932	-2.545922	1
H	2.476089	-1.039142	-1.466402	1
H	1.529399	0.860358	1.463388	1
H	2.623869	-0.378002	0.858978	1
H	-0.079421	-0.953912	1.452638	1
Es	0.929068	-1.013926	1.936441	99
Es	0.877617	-1.077430	1.640725	99
Es	1.571369	-0.082883	0.909263	99
Es	1.102302	-0.461428	-0.981957	99
Es	2.293793	-0.282401	0.864044	99
Es	-1.583671	0.120194	-0.356133	99
Es	-1.729672	-0.343423	1.026738	99
Es	1.568880	-0.448354	-1.551575	99
Es	-2.172402	0.566473	-0.530589	99
Es	-0.322412	1.201246	-1.268267	99
Es	0.974816	0.076587	-0.464461	99
Es	-1.682007	-0.133765	0.437217	99
Es	-1.834987	0.149622	1.379848	99
Es	1.126332	-0.681648	1.344683	99
Es	0.335375	0.483883	-0.513345	99
Es	2.185673	-0.847532	-1.500414	99
Es	-0.285861	0.908908	-0.583286	99
Es	-2.248477	-0.669192	1.058160	99
Es	0.402915	-0.998859	1.535820	99
Es	-1.423554	-0.535191	1.139403	99
Es	-1.606509	-0.470167	-0.811236	99
Es	-0.920042	0.505955	-0.455993	99
Es	-0.253616	1.481919	-0.102181	99
Es	1.536906	0.581757	1.277601	99
Es	0.962642	-1.341896	1.513287	99
Es	1.265433	0.004613	0.208712	99
Es	1.456018	0.085374	-1.061827	99
Es	1.286251	-0.366081	-2.231718	99
46
Properties=species:S:1:pos:R:3:Z:I:1 energy=-325.140020064935 field_type=dipole dipole="0.000000 0.000000 0.000000" charge=0
N	-1.729281	-0.343692	1.026908	7
C	-1.583691	0.120218	-0.356292	6
C	-0.285851	0.908948	-0.583302	6
C	0.974899	0.076518	-0.464542	6
C	1.568849	-0.448312	-1.551492	6
C	1.571509	-0.082752	0.909208	6
O	0.877769	-1.077782	1.640858	8
H	-2.581791	-0.905102	1.093218	1
H	-1.887891	0.461968	1.635438	1
H	-2.440701	0.757748	-0.602212	1
H	-1.618861	-0.744112	-1.028892	1
H	-0.233591	1.761068	0.105888	1
H	-0.333341	1.351918	-1.587471	1
H	1.152029	-0.325932	-2.545922	1
H	2.476089	-1.039142	-1.466402	1
H	1.529399	0.860358	1.463388	1
H	2.623869	-0.378002	0.858978	1
H	-0.079421	-0.953912	1.452638	1
Es	1.102371	-0.461196	-0.981957	99
Es	-1.606527	-0.470110	-0.811289	99
Es	1.571371	-0.082881	0.909262	99
Es	-2.172375	0.566398	-0.530538	99
Es	1.126159	-0.681747	1.344576	99
Es	0.974816	0.076592	-0.464462	99
Es	0.335303	0.483877	-0.513417	99
Es	2.293778	-0.282380	0.864070	99
Es	1.286207	-0.366103	-2.231687	99
Es	-0.285861	0.908907	-0.583286	99
Es	1.456014	0.085328	-1.061851	99
Es	-0.920108	0.506057	-0.455954	99
Es	0.403136	-1.001560	1.532708	99
Es	-0.253528	1.481919	-0.102210	99
Es	-1.729635	-0.343443	1.026757	99
Es	-2.248348	-0.669580	1.058214	99
Es	1.536928	0.581711	1.277596	99
Es	1.568878	-0.448357	-1.551575	99
Es	0.924518	-1.008210	1.934286	99
Es	-1.423502	-0.534792	1.139415	99
Es	0.967009	-1.344586	1.518577	99
Es	-0.322435	1.201254	-1.268205	99
Es	2.185697	-0.847595	-1.500408	99
Es	-1.583670	0.120194	-0.356134	99
Es	0.877721	-1.077671	1.640817	99
Es	1.265487	0.004544	0.208675	99
Es	-1.682011	-0.133816	0.437219	99
Es	-1.835217	0.149603	1.379763	99
46
Properties=species:S:1:pos:R:3:Z:I:1 energy=-325.140020064935 field_type=dipole dipole="0.000000 0.000000 0.000000" charge=0
N	-1.729281	-0.343692	1.026908	7
C	-1.583691	0.120218	-0.356292	6
C	-0.285851	0.908948	-0.583302	6
C	0.974899	0.076518	-0.464542	6
C	1.568849	-0.448312	-1.551492	6
C	1.571509	-0.082752	0.909208	6
O	0.877769	-1.077782	1.640858	8
H	-2.581791	-0.905102	1.093218	1
H	-1.887891	0.461968	1.635438	1
H	-2.440701	0.757748	-0.602212	1
H	-1.618861	-0.744112	-1.028892	1
H	-0.233591	1.761068	0.105888	1
H	-0.333341	1.351918	-1.587471	1
H	1.152029	-0.325932	-2.545922	1
H	2.476089	-1.039142	-1.466402	1
H	1.529399	0.860358	1.463388	1
H	2.623869	-0.378002	0.858978	1
H	-0.079421	-0.953912	1.452638	1
Es	-1.583671	0.120194	-0.356133	99
Es	0.402686	-0.999585	1.535233	99
Es	-1.423846	-0.535192	1.139432	99
Es	1.265504	0.004444	0.208685	99
Es	1.456077	0.085330	-1.061805	99
Es	-1.681869	-0.133735	0.437019	99
Es	0.877637	-1.077556	1.640652	99
Es	-0.920119	0.506027	-0.455955	99
Es	0.928959	-1.014881	1.936923	99
Es	0.974819	0.076584	-0.464477	99
Es	1.126699	-0.681260	1.345103	99
Es	1.536906	0.581769	1.277498	99
Es	0.962549	-1.340511	1.513129	99
Es	1.571372	-0.082880	0.909264	99
Es	-0.253481	1.481899	-0.102221	99
Es	-2.248405	-0.669144	1.058179	99
Es	-0.285860	0.908908	-0.583286	99
Es	1.568881	-0.448354	-1.551575	99
Es	-1.606553	-0.470115	-0.811251	99
Es	1.102517	-0.461169	-0.981870	99
Es	-1.729673	-0.343418	1.026756	99
Es	-2.172361	0.566408	-0.530566	99
Es	-0.322408	1.201268	-1.268212	99
Es	2.185670	-0.847547	-1.500449	99
Es	2.293745	-0.282330	0.864101	99
Es	0.335183	0.483825	-0.513499	99
Es	1.286156	-0.366118	-2.231703	99
Es	-1.834936	0.149496	1.379990	99
46
Properties=species:S:1:pos:R:3:Z:I:1 energy=-325.140020064935 field_type=dipole dipole="0.000000 0.000000 0.000000" charge=0
N	-1.729281	-0.343692	1.026908	7
C	-1.583691	0.120218	-0.356292	6
C	-0.285851	0.908948	-0.583302	6
C	0.974899	0.076518	-0.464542	6
C	1.568849	-0.448312	-1.551492	6
C	1.571509	-0.082752	0.909208	6
O	0.877769	-1.077782	1.640858	8
H	-2.581791	-0.905102	1.093218	1
H	-1.887891	0.461968	1.635438	1
H	-2.440701	0.757748	-0.602212	1
H	-1.618861	-0.744112	-1.028892	1
H	-0.233591	1.761068	0.105888	1
H	-0.333341	1.351918	-1.587471	1
H	1.152029	-0.325932	-2.545922	1
H	2.476089	-1.039142	-1.466402	1
H	1.529399	0.860358	1.463388	1
H	2.623869	-0.378002	0.858978	1
H	-0.079421	-0.953912	1.452638	1
Es	2.293748	-0.282333	0.864016	99
Es	1.265523	0.004511	0.208776	99
Es	-0.285861	0.908908	-0.583286	99
Es	1.536956	0.581735	1.277534	99
Es	0.974817	0.076590	-0.464459	99
Es	0.963992	-1.340685	1.513565	99
Es	-1.423831	-0.535213	1.139457	99
Es	1.286146	-0.366070	-2.231746	99
Es	-0.920104	0.505964	-0.455954	99
Es	-1.682014	-0.133703	0.436991	99
Es	0.928149	-1.014366	1.936492	99
Es	-0.322420	1.201287	-1.268225	99
Es	0.335195	0.483901	-0.513522	99
Es	-1.834912	0.149415	1.379941	99
Es	-1.606511	-0.470074	-0.811229	99
Es	2.185725	-0.847543	-1.500393	99
Es	1.102545	-0.461039	-0.981904	99
Es	1.568880	-0.448356	-1.551576	99
Es	-1.583673	0.120193	-0.356132	99
Es	1.571370	-0.082881	0.909262	99
Es	1.455939	0.085145	-1.061823	99
Es	0.402637	-1.000742	1.534712	99
Es	-2.172366	0.566385	-0.530619	99
Es	-2.248386	-0.669060	1.058267	99
Es	1.126118	-0.680494	1.345603	99
Es	0.877627	-1.077546	1.640662	99
Es	-1.729609	-0.343450	1.026762	99
Es	-0.253503	1.481880	-0.102210	99
46
Properties=species:S:1:pos:R:3:Z:I:1 energy=-325.140020064935 field_type=dipole dipole="0.000000 0.000000 0.000000" charge=0
N	-1.729281	-0.343692	1.026908	7
C	-1.583691	0.120218	-0.356292	6
C	-0.285851	0.908948	-0.583302	6
C	0.974899	0.076518	-0.464542	6
C	1.568849	-0.448312	-1.551492	6
C	1.571509	-0.082752	0.909208	6
O	0.877769	-1.077782	1.640858	8
H	-2.581791	-0.905102	1.093218	1
H	-1.887891	0.461968	1.635438	1
H	-2.440701	0.757748	-0.602212	1
H	-1.618861	-0.744112	-1.028892	1
H	-0.233591	1.761068	0.105888	1
H	-0.333341	1.351918	-1.587471	1
H	1.152029	-0.325932	-2.545922	1
H	2.476089	-1.039142	-1.466402	1
H	1.529399	0.860358	1.463388	1
H	2.623869	-0.378002	0.858978	1
H	-0.079421	-0.953912	1.452638	1
Es	0.974815	0.076583	-0.464460	99
Es	-1.834865	0.149422	1.380034	99
Es	-1.583673	0.120195	-0.356136	99
Es	2.185709	-0.847577	-1.500390	99
Es	0.335171	0.483921	-0.513496	99
Es	1.265610	0.004470	0.208768	99
Es	1.102569	-0.460943	-0.981918	99
Es	-2.248368	-0.669259	1.058291	99
Es	-0.253554	1.481820	-0.102247	99
Es	-2.172306	0.566384	-0.530573	99
Es	0.877620	-1.077456	1.640695	99
Es	0.928268	-1.014257	1.935651	99
Es	2.293734	-0.282383	0.864012	99
Es	0.402556	-1.000085	1.535493	99
Es	1.536992	0.581753	1.277538	99
Es	-1.606596	-0.470047	-0.811254	99
Es	-0.285865	0.908906	-0.583285	99
Es	1.568881	-0.448353	-1.551575	99
Es	-1.424079	-0.535008	1.139443	99
Es	1.126512	-0.680652	1.345303	99
Es	-1.681789	-0.133770	0.436904	99
Es	1.455892	0.085101	-1.061813	99
Es	1.571372	-0.082879	0.909261	99
Es	0.963537	-1.341352	1.513886	99
Es	-0.322410	1.201341	-1.268213	99
Es	-0.920077	0.505968	-0.455986	99
Es	1.286191	-0.366067	-2.231720	99
Es	-1.729669	-0.343420	1.026749	99
46
Properties=species:S:1:pos:R:3:Z:I:1 energy=-325.140020064935 field_type=dipole dipole="0.000000 0.000000 0.000000" charge=0
N	-1.729281	-0.343692	1.026908	7
C	-1.583691	0.120218	-0.356292	6
C	-0.285851	0.908948	-0.583302	6
C	0.974899	0.076518	-0.464542	6
C	1.568849	-0.448312	-1.551492	6
C	1.571509	-0.082752	0.909208	6
O	0.877769	-1.077782	1.640858	8
H	-2.581791	-0.905102	1.093218	1
H	-1.887891	0.461968	1.635438	1
H	-2.440701	0.757748	-0.602212	1
H	-1.618861	-0.744112	-1.028892	1
H	-0.233591	1.761068	0.105888	1
H	-0.333341	1.351918	-1.587471	1
H	1.152029	-0.325932	-2.545922	1
H	2.476089	-1.039142	-1.466402	1
H	1.529399	0.860358	1.463388	1
H	2.623869	-0.378002	0.858978	1
H	-0.079421	-0.953912	1.452638	1
Es	1.568881	-0.448355	-1.551575	99
Es	-1.681662	-0.133821	0.436907	99
Es	0.402715	-1.001145	1.533983	99
Es	1.286194	-0.366014	-2.231721	99
Es	2.293720	-0.282344	0.863985	99
Es	-1.424158	-0.535275	1.139668	99
Es	-2.248524	-0.668935	1.058215	99
Es	-0.285861	0.908905	-0.583285	99
Es	-1.583671	0.120193	-0.356131	99
Es	-1.834805	0.149415	1.379933	99
Es	1.537021	0.581732	1.277491	99
Es	0.974819	0.076592	-0.464456	99
Es	-2.172302	0.566304	-0.530638	99
Es	-0.322409	1.201282	-1.268175	99
Es	1.126724	-0.680295	1.345867	99
Es	1.571371	-0.082880	0.909262	99
Es	-1.729668	-0.343416	1.026736	99
Es	-0.253531	1.481891	-0.102230	99
Es	1.455799	0.084938	-1.061718	99
Es	0.964519	-1.341098	1.514749	99
Es	-0.920065	0.505916	-0.456025	99
Es	1.102635	-0.460941	-0.981919	99
Es	0.926842	-1.013705	1.935809	99
Es	-1.606580	-0.470005	-0.811200	99
Es	0.335117	0.484055	-0.513631	99
Es	2.185758	-0.847503	-1.500425	99
Es	1.265629	0.004453	0.208807	99
Es	0.877669	-1.077589	1.640680	99
46
Properties=species:S:1:pos:R:3:Z:I:1 energy=-325.140020064935 field_type=dipole dipole="0.000000 0.000000 0.000000" charge=0
N	-1.729281	-0.343692	1.026908	7
C	-1.583691	0.120218	-0.356292	6
C	-0.285851	0.908948	-0.583302	6
C	0.974899	0.076518	-0.464542	6
C	1.568849	-0.448312	-1.551492	6
C	1.571509	-0.082752	0.909208	6
O	0.877769	-1.077782	1.640858	8
H	-2.581791	-0.905102	1.093218	1
H	-1.887891	0.461968	1.635438	1
H	-2.440701	0.757748	-0.602212	1
H	-1.618861	-0.744112	-1.028892	1
H	-0.233591	1.761068	0.105888	1
H	-0.333341	1.351918	-1.587471	1
H	1.152029	-0.325932	-2.545922	1
H	2.476089	-1.039142	-1.466402	1
H	1.529399	0.860358	1.463388	1
H	2.623869	-0.378002	0.858978	1
H	-0.079421	-0.953912	1.452638	1
Es	-2.248340	-0.669224	1.058314	99
Es	2.185743	-0.847536	-1.500345	99
Es	-0.253502	1.481825	-0.102298	99
Es	0.929097	-1.015777	1.936083	99
Es	1.265579	0.004469	0.208884	99
Es	0.402479	-0.999707	1.536002	99
Es	-1.583672	0.120194	-0.356134	99
Es	1.537144	0.581713	1.277486	99
Es	-0.285861	0.908909	-0.583286	99
Es	-0.920124	0.505928	-0.456038	99
Es	0.974815	0.076591	-0.464459	99
Es	0.962429	-1.340315	1.512964	99
Es	1.102689	-0.460773	-0.981944	99
Es	1.286211	-0.365947	-2.231801	99
Es	0.877618	-1.077482	1.640691	99
Es	1.568882	-0.448352	-1.551575	99
Es	1.126844	-0.680544	1.345421	99
Es	-1.424090	-0.534969	1.139622	99
Es	-1.729652	-0.343436	1.026753	99
Es	-0.322346	1.201325	-1.268187	99
Es	-1.606609	-0.469985	-0.811164	99
Es	1.571372	-0.082879	0.909262	99
Es	-1.681766	-0.133842	0.436906	99
Es	-2.172279	0.566274	-0.530662	99
Es	2.293665	-0.282381	0.863896	99
Es	1.455756	0.084828	-1.061724	99
Es	-1.834980	0.149456	1.379903	99
Es	0.335075	0.483995	-0.513608	99
46
Properties=species:S:1:pos:R:3:Z:I:1 energy=-325.140020064935 field_type=dipole dipole="0.000000 0.000000 0.000000" charge=0
N	-1.729281	-0.343692	1.026908	7
C	-1.583691	0.120218	-0.356292	6
C	-0.285851	0.908948	-0.583302	6
C	0.974899	0.076518	-0.464542	6
C	1.568849	-0.448312	-1.551492	6
C	1.571509	-0.082752	0.909208	6
O	0.877769	-1.077782	1.640858	8
H	-2.581791	-0.905102	1.093218	1
H	-1.887891	0.461968	1.635438	1
H	-2.440701	0.757748	-0.602212	1
H	-1.618861	-0.744112	-1.028892	1
H	-0.233591	1.761068	0.105888	1
H	-0.333341	1.351918	-1.587471	1
H	1.152029	-0.325932	-2.545922	1
H	2.476089	-1.039142	-1.466402	1
H	1.529399	0.860358	1.463388	1
H	2.623869	-0.378002	0.858978	1
H	-0.079421	-0.953912	1.452638	1
Es	2.293724	-0.282288	0.863995	99
Es	0.964391	-1.341191	1.515685	99
Es	1.102722	-0.460735	-0.981916	99
Es	0.334998	0.484037	-0.513569	99
Es	-2.172217	0.566270	-0.530621	99
Es	1.265770	0.004399	0.208813	99
Es	0.974816	0.076590	-0.464461	99
Es	-0.322356	1.201255	-1.268164	99
Es	1.286189	-0.366023	-2.231765	99
Es	0.927933	-1.012760	1.935192	99
Es	0.401968	-1.001029	1.534908	99
Es	1.126501	-0.681405	1.344640	99
Es	1.568881	-0.448355	-1.551574	99
Es	1.537006	0.581705	1.277447	99
Es	-0.253444	1.481882	-0.102352	99
Es	-1.424168	-0.535557	1.139882	99
Es	-0.285865	0.908913	-0.583288	99
Es	-0.920141	0.505982	-0.455996	99
Es	-1.834802	0.149483	1.379820	99
Es	-1.583670	0.120195	-0.356137	99
Es	1.571372	-0.082879	0.909262	99
Es	1.455741	0.084823	-1.061737	99
Es	-1.729672	-0.343423	1.026742	99
Es	0.877627	-1.077504	1.640671	99
Es	2.185755	-0.847515	-1.500362	99
Es	-2.248398	-0.668515	1.058381	99
Es	-1.681817	-0.134034	0.436675	99
Es	-1.606663	-0.469964	-0.811211	99
46
Properties=species:S:1:pos:R:3:Z:I:1 energy=-325.140020064935 field_type=dipole dipole="0.000000 0.000000 0.000000" charge=0
N	-1.729281	-0.343692	1.026908	7
C	-1.583691	0.120218	-0.356292	6
C	-0.285851	0.908948	-0.583302	6
C	0.974899	0.076518	-0.464542	6
C	1.568849	-0.448312	-1.551492	6
C	1.571509	-0.082752	0.909208	6
O	0.877769	-1.077782	1.640858	8
H	-2.581791	-0.905102	1.093218	1
H	-1.887891	0.461968	1.635438	1
H	-2.440701	0.757748	-0.602212	1
H	-1.618861	-0.744112	-1.028892	1
H	-0.233591	1.761068	0.105888	1
H	-0.333341	1.351918	-1.587471	1
H	1.152029	-0.325932	-2.545922	1
H	2.476089	-1.039142	-1.466402	1
H	1.529399	0.860358	1.463388	1
H	2.623869	-0.378002	0.858978	1
H	-0.079421	-0.953912	1.452638	1
Es	1.265846	0.004319	0.208773	99
Es	-2.248657	-0.668917	1.058528	99
Es	-0.322370	1.201336	-1.268126	99
Es	0.962862	-1.338933	1.513265	99
Es	0.334934	0.484117	-0.513690	99
Es	0.402048	-1.000944	1.535331	99
Es	-1.729678	-0.343416	1.026742	99
Es	-2.172258	0.566176	-0.530777	99
Es	1.455717	0.084695	-1.061682	99
Es	-0.285863	0.908908	-0.583286	99
Es	0.974819	0.076591	-0.464465	99
Es	-1.681716	-0.133679	0.436789	99
Es	1.286164	-0.365936	-2.231759	99
Es	1.568881	-0.448354	-1.551569	99
Es	1.571371	-0.082880	0.909262	99
Es	-1.834169	0.149284	1.380212	99
Es	1.126975	-0.680170	1.345601	99
Es	-0.920173	0.505909	-0.456044	99
Es	1.537023	0.581734	1.277457	99
Es	1.102798	-0.460602	-0.981919	99
Es	-1.606552	-0.469997	-0.811090	99
Es	0.928892	-1.016315	1.936248	99
Es	-1.424678	-0.535209	1.139299	99
Es	-1.583671	0.120195	-0.356137	99
Es	-0.253433	1.481828	-0.102293	99
Es	2.185749	-0.847572	-1.500392	99
Es	2.293671	-0.282287	0.864033	99
Es	0.877648	-1.077525	1.640651	99
46
Properties=species:S:1:pos:R:3:Z:I:1 energy=-325.140020064935 field_type=dipole dipole="0.000000 0.000000 0.000000" charge=0
N	-1.729281	-0.343692	1.026908	7
C	-1.583691	0.120218	-0.356292	6
C	-0.285851	0.908948	-0.583302	6
C	0.974899	0.076518	-0.464542	6
C	1.568849	-0.448312	-1.551492	6
C	1.571509	-0.082752	0.909208	6
O	0.877769	-1.077782	1.640858	8
H	-2.581791	-0.905102	1.093218	1
H	-1.887891	0.461968	1.635438	1
H	-2.440701	0.757748	-0.602212	1
H	-1.618861	-0.744112	-1.028892	1
H	-0.233591	1.761068	0.105888	1
H	-0.333341	1.351918	-1.587471	1
H	1.152029	-0.325932	-2.545922	1
H	2.476089	-1.039142	-1.466402	1
H	1.529399	0.860358	1.463388	1
H	2.623869	-0.378002	0.858978	1
H	-0.079421	-0.953912	1.452638	1
Es	-1.424534	-0.535033	1.139525	99
Es	-2.248441	-0.669114	1.058361	99
Es	0.963391	-1.340464	1.514602	99
Es	-1.681626	-0.133612	0.436726	99
Es	1.568886	-0.448341	-1.551573	99
Es	1.102823	-0.460569	-0.981936	99
Es	0.974815	0.076586	-0.464462	99
Es	0.402240	-1.000700	1.535519	99
Es	0.928243	-1.014576	1.935338	99
Es	2.293720	-0.282299	0.863969	99
Es	1.126881	-0.680539	1.345090	99
Es	0.877637	-1.077600	1.640579	99
Es	-1.606585	-0.469910	-0.811156	99
Es	-0.322373	1.201328	-1.268123	99
Es	-1.729660	-0.343426	1.026749	99
Es	1.286190	-0.365927	-2.231774	99
Es	1.265816	0.004357	0.208869	99
Es	1.455614	0.084576	-1.061653	99
Es	-0.920154	0.505931	-0.455997	99
Es	-1.583672	0.120194	-0.356137	99
Es	1.571372	-0.082879	0.909261	99
Es	-2.172254	0.566191	-0.530702	99
Es	-0.285861	0.908910	-0.583287	99
Es	2.185791	-0.847521	-1.500369	99
Es	-1.834630	0.149122	1.380176	99
Es	1.537055	0.581680	1.277429	99
Es	-0.253429	1.481829	-0.102309	99
Es	0.334924	0.484163	-0.513755	99
