42
Properties=species:S:1:pos:R:3:Z:I:1 energy=-340.00768444898034 field_type=dipole dipole="0.000000 0.000000 0.000000" charge=0
N	-1.201398	-0.449887	0.699861	7
C	0.233662	-0.539077	0.345261	6
C	0.468842	-0.685467	-1.135319	6
C	-0.434528	-0.629457	-2.124830	6
C	0.996962	0.718043	0.852551	6
N	0.206712	1.705013	1.380341	7
O	2.216452	0.850203	0.797981	8
H	-1.261658	-0.470847	1.718391	1
H	-1.643498	-1.314427	0.387381	1
H	0.657892	-1.405717	0.865221	1
H	1.511872	-0.849927	-1.411049	1
H	-1.487988	-0.448997	-1.936819	1
H	-0.127698	-0.747627	-3.159920	1
H	-0.778138	1.675493	1.136231	1
H	0.642512	2.592673	1.584721	1
Es	-0.434586	-0.629462	-2.124883	99
Es	0.335416	-0.599541	-0.389496	99
Es	1.788971	0.896087	0.587099	99
Es	0.512309	1.365237	1.046270	99
Es	0.468891	-0.685469	-1.135176	99
Es	-0.042715	-0.985315	-1.597992	99
Es	1.169798	-0.798812	-1.308764	99
Es	-0.231437	-0.710390	-2.823910	99
Es	2.298375	1.129206	0.908037	99
Es	0.052552	-0.337508	-1.651607	99
Es	-1.453311	-0.976876	0.517473	99
Es	-1.224517	-0.475607	1.312952	99
Es	-1.147159	-0.512544	-2.004048	99
Es	1.831923	0.702467	1.044651	99
Es	2.360825	0.598777	0.677824	99
Es	0.283265	1.468118	1.586425	99
Es	0.459013	2.232295	1.482314	99
Es	0.531700	-1.117393	0.689033	99
Es	-1.358556	-0.153510	0.565844	99
Es	0.206798	1.705078	1.379912	99
Es	0.233541	-0.538981	0.345270	99
Es	2.216181	0.850172	0.797998	99
Es	0.598419	0.095072	0.595778	99
Es	-1.201135	-0.450314	0.700072	99
Es	-0.362824	1.703914	1.229002	99
Es	-0.577487	-0.496436	0.552323	99
Es	0.996818	0.718083	0.852595	99
42
Properties=species:S:1:pos:R:3:Z:I:1 energy=-340.00768444898034 field_type=dipole dipole="0.000000 0.000000 0.000000" charge=0
N	-1.201398	-0.449887	0.699861	7
C	0.233662	-0.539077	0.345261	6
C	0.468842	-0.685467	-1.135319	6
C	-0.434528	-0.629457	-2.124830	6
C	0.996962	0.718043	0.852551	6
N	0.206712	1.705013	1.380341	7
O	2.216452	0.850203	0.797981	8
H	-1.261658	-0.470847	1.718391	1
H	-1.643498	-1.314427	0.387381	1
H	0.657892	-1.405717	0.865221	1
H	1.511872	-0.849927	-1.411049	1
H	-1.487988	-0.448997	-1.936819	1
H	-0.127698	-0.747627	-3.159920	1
H	-0.778138	1.675493	1.136231	1
H	0.642512	2.592673	1.584721	1
Es	-1.358354	-0.153926	0.565217	99
Es	0.996815	0.718083	0.852595	99
Es	0.233541	-0.538982	0.345271	99
Es	1.169793	-0.798802	-1.308751	99
Es	2.364356	0.599859	0.680858	99
Es	1.792568	0.895621	0.583988	99
Es	-1.201134	-0.450331	0.700080	99
Es	0.598523	0.094873	0.595942	99
Es	-0.362586	1.704035	1.229416	99
Es	-0.577456	-0.496686	0.552379	99
Es	-0.434585	-0.629460	-2.124883	99
Es	-0.042775	-0.985562	-1.597986	99
Es	0.458789	2.232217	1.482342	99
Es	0.052571	-0.337582	-1.651575	99
Es	0.468889	-0.685469	-1.135176	99
Es	0.335514	-0.599410	-0.389513	99
Es	-1.147098	-0.512468	-2.004076	99
Es	-1.224965	-0.475027	1.313243	99
Es	0.284693	1.465337	1.587807	99
Es	1.828245	0.701760	1.042320	99
Es	-0.231464	-0.710288	-2.823912	99
Es	2.294929	1.129396	0.910326	99
Es	0.206827	1.705035	1.379880	99
Es	-1.453180	-0.976697	0.517733	99
Es	0.510847	1.368034	1.044504	99
Es	0.531615	-1.117378	0.688970	99
Es	2.216148	0.850169	0.797998	99
42
Properties=species:S:1:pos:R:3:Z:I:1 energy=-340.00768444898034 field_type=dipole dipole="0.000000 0.000000 0.000000" charge=0
N	-1.201398	-0.449887	0.699861	7
C	0.233662	-0.539077	0.345261	6
C	0.468842	-0.685467	-1.135319	6
C	-0.434528	-0.629457	-2.124830	6
C	0.996962	0.718043	0.852551	6
N	0.206712	1.705013	1.380341	7
O	2.216452	0.850203	0.797981	8
H	-1.261658	-0.470847	1.718391	1
H	-1.643498	-1.314427	0.387381	1
H	0.657892	-1.405717	0.865221	1
H	1.511872	-0.849927	-1.411049	1
H	-1.487988	-0.448997	-1.936819	1
H	-0.127698	-0.747627	-3.159920	1
H	-0.778138	1.675493	1.136231	1
H	0.642512	2.592673	1.584721	1
Es	-1.357666	-0.153515	0.565917	99
Es	-1.454067	-0.976384	0.517157	99
Es	2.359058	0.597778	0.679268	99
Es	2.300310	1.129978	0.908173	99
Es	0.283676	1.467473	1.587288	99
Es	0.458781	2.232307	1.481898	99
Es	1.169716	-0.798765	-1.308768	99
Es	-0.577378	-0.497149	0.552589	99
Es	0.468889	-0.685464	-1.135176	99
Es	-1.147154	-0.512508	-2.003981	99
Es	-0.362636	1.703904	1.229266	99
Es	0.233542	-0.538985	0.345272	99
Es	-1.224909	-0.475364	1.312958	99
Es	1.791934	0.895765	0.586375	99
Es	0.598489	0.094903	0.595771	99
Es	0.052599	-0.337621	-1.651655	99
Es	2.216114	0.850167	0.797997	99
Es	0.511922	1.365952	1.045605	99
Es	0.531739	-1.117343	0.688967	99
Es	-0.434586	-0.629462	-2.124884	99
Es	-0.231474	-0.710320	-2.823937	99
Es	-0.042660	-0.985415	-1.598048	99
Es	0.206821	1.705043	1.379873	99
Es	1.828815	0.703113	1.043758	99
Es	0.335491	-0.599488	-0.389358	99
Es	-1.201120	-0.450335	0.700078	99
Es	0.996819	0.718083	0.852594	99
42
Properties=species:S:1:pos:R:3:Z:I:1 energy=-340.00768444898034 field_type=dipole dipole="0.000000 0.000000 0.000000" charge=0
N	-1.201398	-0.449887	0.699861	7
C	0.233662	-0.539077	0.345261	6
C	0.468842	-0.685467	-1.135319	6
C	-0.434528	-0.629457	-2.124830	6
C	0.996962	0.718043	0.852551	6
N	0.206712	1.705013	1.380341	7
O	2.216452	0.850203	0.797981	8
H	-1.261658	-0.470847	1.718391	1
H	-1.643498	-1.314427	0.387381	1
H	0.657892	-1.405717	0.865221	1
H	1.511872	-0.849927	-1.411049	1
H	-1.487988	-0.448997	-1.936819	1
H	-0.127698	-0.747627	-3.159920	1
H	-0.778138	1.675493	1.136231	1
H	0.642512	2.592673	1.584721	1
Es	0.458683	2.232161	1.481228	99
Es	2.363288	0.599893	0.680047	99
Es	2.216206	0.850179	0.797994	99
Es	0.996821	0.718087	0.852589	99
Es	0.468892	-0.685469	-1.135182	99
Es	-0.042652	-0.985301	-1.598051	99
Es	-1.225186	-0.474952	1.313238	99
Es	-0.434585	-0.629461	-2.124881	99
Es	1.828737	0.701677	1.043148	99
Es	1.169802	-0.798794	-1.308849	99
Es	0.233545	-0.538983	0.345270	99
Es	0.206816	1.705028	1.379913	99
Es	0.598464	0.094782	0.595926	99
Es	-0.577292	-0.496834	0.552394	99
Es	0.531708	-1.117285	0.688868	99
Es	-1.147136	-0.512569	-2.003955	99
Es	-1.453587	-0.976456	0.517466	99
Es	0.512127	1.365608	1.045619	99
Es	-0.362652	1.703984	1.229355	99
Es	2.295875	1.129446	0.909568	99
Es	-0.231549	-0.710341	-2.823928	99
Es	1.792099	0.895609	0.584824	99
Es	-1.357985	-0.154260	0.565572	99
Es	0.052616	-0.337704	-1.651627	99
Es	-1.201115	-0.450308	0.700064	99
Es	0.283630	1.467934	1.587812	99
Es	0.335499	-0.599323	-0.389423	99
42
Properties=species:S:1:pos:R:3:Z:I:1 energy=-340.00768444898034 field_type=dipole dipole="0.000000 0.000000 0.000000" charge=0
N	-1.201398	-0.449887	0.699861	7
C	0.233662	-0.539077	0.345261	6
C	0.468842	-0.685467	-1.135319	6
C	-0.434528	-0.629457	-2.124830	6
C	0.996962	0.718043	0.852551	6
N	0.206712	1.705013	1.380341	7
O	2.216452	0.850203	0.797981	8
H	-1.261658	-0.470847	1.718391	1
H	-1.643498	-1.314427	0.387381	1
H	0.657892	-1.405717	0.865221	1
H	1.511872	-0.849927	-1.411049	1
H	-1.487988	-0.448997	-1.936819	1
H	-0.127698	-0.747627	-3.159920	1
H	-0.778138	1.675493	1.136231	1
H	0.642512	2.592673	1.584721	1
Es	2.361355	0.599101	0.680576	99
Es	0.458691	2.232261	1.480874	99
Es	0.335508	-0.599562	-0.389260	99
Es	0.206775	1.705057	1.380016	99
Es	-0.042561	-0.985105	-1.598121	99
Es	0.531705	-1.117183	0.688856	99
Es	0.511390	1.366728	1.045147	99
Es	1.169756	-0.798785	-1.308937	99
Es	1.793472	0.896496	0.584248	99
Es	-0.577204	-0.496246	0.552106	99
Es	0.233545	-0.538982	0.345270	99
Es	0.468888	-0.685467	-1.135179	99
Es	1.827183	0.702115	1.042915	99
Es	-0.434585	-0.629462	-2.124880	99
Es	0.284574	1.466880	1.588117	99
Es	0.052604	-0.337818	-1.651625	99
Es	-0.362802	1.703803	1.229804	99
Es	-1.358252	-0.154637	0.565976	99
Es	-1.201123	-0.450344	0.700083	99
Es	-1.453565	-0.976668	0.517501	99
Es	-0.231470	-0.710351	-2.823887	99
Es	0.598511	0.094810	0.595880	99
Es	2.216319	0.850190	0.797955	99
Es	-1.147243	-0.512553	-2.003955	99
Es	2.297859	1.128928	0.909833	99
Es	-1.225086	-0.474938	1.313088	99
Es	0.996820	0.718083	0.852594	99
42
Properties=species:S:1:pos:R:3:Z:I:1 energy=-340.00768444898034 field_type=dipole dipole="0.000000 0.000000 0.000000" charge=0
N	-1.201398	-0.449887	0.699861	7
C	0.233662	-0.539077	0.345261	6
C	0.468842	-0.685467	-1.135319	6
C	-0.434528	-0.629457	-2.124830	6
C	0.996962	0.718043	0.852551	6
N	0.206712	1.705013	1.380341	7
O	2.216452	0.850203	0.797981	8
H	-1.261658	-0.470847	1.718391	1
H	-1.643498	-1.314427	0.387381	1
H	0.657892	-1.405717	0.865221	1
H	1.511872	-0.849927	-1.411049	1
H	-1.487988	-0.448997	-1.936819	1
H	-0.127698	-0.747627	-3.159920	1
H	-0.778138	1.675493	1.136231	1
H	0.642512	2.592673	1.584721	1
Es	0.468888	-0.685467	-1.135178	99
Es	0.233543	-0.538983	0.345270	99
Es	-1.357936	-0.154839	0.565772	99
Es	0.206898	1.704952	1.379817	99
Es	0.052628	-0.337985	-1.651661	99
Es	-0.362385	1.704004	1.228892	99
Es	-0.042669	-0.985143	-1.598007	99
Es	0.598520	0.094719	0.595764	99
Es	-1.453671	-0.976369	0.517483	99
Es	-0.434586	-0.629466	-2.124881	99
Es	-1.147189	-0.512479	-2.003951	99
Es	0.335502	-0.599331	-0.389260	99
Es	0.283589	1.467210	1.588256	99
Es	-0.577174	-0.496540	0.552122	99
Es	1.793322	0.896286	0.584671	99
Es	-1.201150	-0.450289	0.700052	99
Es	0.531748	-1.117231	0.688893	99
Es	2.298176	1.129089	0.909263	99
Es	2.216110	0.850159	0.797997	99
Es	0.996820	0.718082	0.852598	99
Es	2.361261	0.598912	0.680406	99
Es	1.827300	0.702415	1.043220	99
Es	-0.231458	-0.710354	-2.823940	99
Es	1.169766	-0.798831	-1.308960	99
Es	0.511806	1.366279	1.045590	99
Es	0.458708	2.232297	1.481412	99
Es	-1.225302	-0.474749	1.313357	99
42
Properties=species:S:1:pos:R:3:Z:I:1 energy=-340.00768444898034 field_type=dipole dipole="0.000000 0.000000 0.000000" charge=0
N	-1.201398	-0.449887	0.699861	7
C	0.233662	-0.539077	0.345261	6
C	0.468842	-0.685467	-1.135319	6
C	-0.434528	-0.629457	-2.124830	6
C	0.996962	0.718043	0.852551	6
N	0.206712	1.705013	1.380341	7
O	2.216452	0.850203	0.797981	8
H	-1.261658	-0.470847	1.718391	1
H	-1.643498	-1.314427	0.387381	1
H	0.657892	-1.405717	0.865221	1
H	1.511872	-0.849927	-1.411049	1
H	-1.487988	-0.448997	-1.936819	1
H	-0.127698	-0.747627	-3.159920	1
H	-0.778138	1.675493	1.136231	1
H	0.642512	2.592673	1.584721	1
Es	0.510351	1.369119	1.043933	99
Es	0.531821	-1.117149	0.688875	99
Es	-0.434585	-0.629459	-2.124881	99
Es	0.335422	-0.599539	-0.389132	99
Es	0.996818	0.718083	0.852597	99
Es	-1.201123	-0.450321	0.700067	99
Es	1.791582	0.896925	0.585410	99
Es	1.169834	-0.798751	-1.309050	99
Es	0.206813	1.705032	1.379944	99
Es	-1.453677	-0.976461	0.517480	99
Es	-1.358043	-0.154917	0.565913	99
Es	0.468888	-0.685474	-1.135177	99
Es	1.829055	0.702505	1.044899	99
Es	0.233543	-0.538983	0.345270	99
Es	-0.231447	-0.710398	-2.823957	99
Es	0.598504	0.094772	0.595654	99
Es	0.285236	1.464335	1.588983	99
Es	2.360170	0.599084	0.679250	99
Es	-0.362441	1.704174	1.229305	99
Es	2.216107	0.850175	0.797998	99
Es	-0.042556	-0.984877	-1.598102	99
Es	0.458658	2.232094	1.481759	99
Es	-1.147203	-0.512601	-2.003938	99
Es	2.299251	1.128174	0.908093	99
Es	-1.225350	-0.474750	1.313196	99
Es	0.052539	-0.338010	-1.651546	99
Es	-0.577101	-0.496433	0.552154	99
42
Properties=species:S:1:pos:R:3:Z:I:1 energy=-340.00768444898034 field_type=dipole dipole="0.000000 0.000000 0.000000" charge=0
N	-1.201398	-0.449887	0.699861	7
C	0.233662	-0.539077	0.345261	6
C	0.468842	-0.685467	-1.135319	6
C	-0.434528	-0.629457	-2.124830	6
C	0.996962	0.718043	0.852551	6
N	0.206712	1.705013	1.380341	7
O	2.216452	0.850203	0.797981	8
H	-1.261658	-0.470847	1.718391	1
H	-1.643498	-1.314427	0.387381	1
H	0.657892	-1.405717	0.865221	1
H	1.511872	-0.849927	-1.411049	1
H	-1.487988	-0.448997	-1.936819	1
H	-0.127698	-0.747627	-3.159920	1
H	-0.778138	1.675493	1.136231	1
H	0.642512	2.592673	1.584721	1
Es	0.458424	2.231976	1.482731	99
Es	0.508803	1.372383	1.041948	99
Es	0.531770	-1.117188	0.688821	99
Es	-1.454023	-0.976269	0.517223	99
Es	2.298787	1.128496	0.908781	99
Es	-1.201133	-0.450328	0.700071	99
Es	0.468888	-0.685467	-1.135178	99
Es	0.287104	1.461265	1.589140	99
Es	2.216076	0.850225	0.798012	99
Es	-0.362551	1.704144	1.230165	99
Es	0.598556	0.094666	0.595725	99
Es	-0.231416	-0.710430	-2.823948	99
Es	1.169863	-0.798811	-1.309062	99
Es	1.828269	0.703155	1.043572	99
Es	0.996820	0.718083	0.852596	99
Es	-1.357912	-0.154411	0.566331	99
Es	0.206831	1.705005	1.379935	99
Es	-1.147248	-0.512640	-2.003930	99
Es	-0.577106	-0.496572	0.552195	99
Es	1.792281	0.896380	0.584395	99
Es	0.233545	-0.538983	0.345271	99
Es	0.052569	-0.338114	-1.651586	99
Es	-0.042555	-0.984738	-1.598078	99
Es	-0.434585	-0.629460	-2.124881	99
Es	0.335414	-0.599395	-0.389127	99
Es	2.360741	0.598621	0.680890	99
Es	-1.225146	-0.475242	1.312984	99
42
Properties=species:S:1:pos:R:3:Z:I:1 energy=-340.00768444898034 field_type=dipole dipole="0.000000 0.000000 0.000000" charge=0
N	-1.201398	-0.449887	0.699861	7
C	0.233662	-0.539077	0.345261	6
C	0.468842	-0.685467	-1.135319	6
C	-0.434528	-0.629457	-2.124830	6
C	0.996962	0.718043	0.852551	6
N	0.206712	1.705013	1.380341	7
O	2.216452	0.850203	0.797981	8
H	-1.261658	-0.470847	1.718391	1
H	-1.643498	-1.314427	0.387381	1
H	0.657892	-1.405717	0.865221	1
H	1.511872	-0.849927	-1.411049	1
H	-1.487988	-0.448997	-1.936819	1
H	-0.127698	-0.747627	-3.159920	1
H	-0.778138	1.675493	1.136231	1
H	0.642512	2.592673	1.584721	1
Es	1.827970	0.701623	1.043308	99
Es	0.996818	0.718083	0.852596	99
Es	0.335405	-0.599483	-0.389001	99
Es	0.468889	-0.685467	-1.135179	99
Es	-1.453920	-0.976381	0.517389	99
Es	-0.362401	1.704123	1.229806	99
Es	2.363017	0.600301	0.680748	99
Es	0.206796	1.705054	1.379952	99
Es	0.233544	-0.538983	0.345270	99
Es	-1.357899	-0.155119	0.566174	99
Es	-0.434585	-0.629461	-2.124881	99
Es	-0.231479	-0.710450	-2.823972	99
Es	-0.577005	-0.496252	0.552070	99
Es	1.169819	-0.798798	-1.309108	99
Es	-1.225404	-0.474710	1.313125	99
Es	1.792669	0.896508	0.583688	99
Es	-0.042531	-0.984728	-1.598103	99
Es	0.598596	0.094624	0.595787	99
Es	0.052601	-0.338135	-1.651600	99
Es	2.296352	1.128266	0.909851	99
Es	-1.147201	-0.512572	-2.003887	99
Es	2.216120	0.850159	0.797989	99
Es	0.286199	1.462802	1.589163	99
Es	0.458408	2.232061	1.482199	99
Es	0.531741	-1.117195	0.688762	99
Es	0.509681	1.370805	1.042777	99
Es	-1.201134	-0.450324	0.700074	99
42
Properties=species:S:1:pos:R:3:Z:I:1 energy=-340.00768444898034 field_type=dipole dipole="0.000000 0.000000 0.000000" charge=0
N	-1.201398	-0.449887	0.699861	7
C	0.233662	-0.539077	0.345261	6
C	0.468842	-0.685467	-1.135319	6
C	-0.434528	-0.629457	-2.124830	6
C	0.996962	0.718043	0.852551	6
N	0.206712	1.705013	1.380341	7
O	2.216452	0.850203	0.797981	8
H	-1.261658	-0.470847	1.718391	1
H	-1.643498	-1.314427	0.387381	1
H	0.657892	-1.405717	0.865221	1
H	1.511872	-0.849927	-1.411049	1
H	-1.487988	-0.448997	-1.936819	1
H	-0.127698	-0.747627	-3.159920	1
H	-0.778138	1.675493	1.136231	1
H	0.642512	2.592673	1.584721	1
Es	-1.357836	-0.155304	0.566260	99
Es	-0.362232	1.704196	1.229546	99
Es	-0.576971	-0.496240	0.552026	99
Es	0.531807	-1.117118	0.688778	99
Es	1.169836	-0.798782	-1.309118	99
Es	0.286105	1.462849	1.589979	99
Es	0.206794	1.705047	1.379972	99
Es	2.361489	0.599901	0.680592	99
Es	2.216080	0.850077	0.797963	99
Es	-1.453985	-0.976324	0.517347	99
Es	2.297875	1.128799	0.908642	99
Es	1.792158	0.895905	0.584469	99
Es	0.233545	-0.538984	0.345270	99
Es	-0.434585	-0.629461	-2.124881	99
Es	-0.042558	-0.984508	-1.598087	99
Es	-0.231349	-0.710489	-2.824095	99
Es	0.598571	0.094579	0.595666	99
Es	-1.225478	-0.474658	1.313156	99
Es	-1.147258	-0.512614	-2.003795	99
Es	0.458391	2.232068	1.481495	99
Es	0.996819	0.718083	0.852596	99
Es	0.468888	-0.685467	-1.135180	99
Es	0.335455	-0.599390	-0.389037	99
Es	1.828502	0.702186	1.043991	99
Es	0.509614	1.370692	1.042927	99
Es	0.052525	-0.338371	-1.651562	99
Es	-1.201134	-0.450324	0.700074	99
42
Properties=species:S:1:pos:R:3:Z:I:1 energy=-340.00768444898034 field_type=dipole dipole="0.000000 0.000000 0.000000" charge=0
N	-1.201398	-0.449887	0.699861	7
C	0.233662	-0.539077	0.345261	6
C	0.468842	-0.685467	-1.135319	6
C	-0.434528	-0.629457	-2.124830	6
C	0.996962	0.718043	0.852551	6
N	0.206712	1.705013	1.380341	7
O	2.216452	0.850203	0.797981	8
H	-1.261658	-0.470847	1.718391	1
H	-1.643498	-1.314427	0.387381	1
H	0.657892	-1.405717	0.865221	1
H	1.511872	-0.849927	-1.411049	1
H	-1.487988	-0.448997	-1.936819	1
H	-0.127698	-0.747627	-3.159920	1
H	-0.778138	1.675493	1.136231	1
H	0.642512	2.592673	1.584721	1
Es	1.791629	0.896314	0.585313	99
Es	-1.147178	-0.512513	-2.003906	99
Es	1.169856	-0.798759	-1.309180	99
Es	0.206841	1.705021	1.379862	99
Es	1.829015	0.702245	1.044390	99
Es	2.216064	0.850159	0.797999	99
Es	-0.042543	-0.984573	-1.598100	99
Es	0.287450	1.460493	1.590149	99
Es	0.468888	-0.685468	-1.135179	99
Es	-1.201135	-0.450319	0.700072	99
Es	0.335396	-0.599421	-0.388908	99
Es	0.458362	2.231877	1.482288	99
Es	-0.362299	1.704362	1.230214	99
Es	-1.453954	-0.976324	0.517403	99
Es	2.298663	1.128580	0.908397	99
Es	0.598618	0.094487	0.595666	99
Es	-0.231366	-0.710427	-2.824050	99
Es	0.052524	-0.338460	-1.651526	99
Es	2.360717	0.599562	0.679658	99
Es	-1.225570	-0.474602	1.313105	99
Es	0.531805	-1.117094	0.688746	99
Es	0.233545	-0.538984	0.345270	99
Es	-0.434580	-0.629461	-2.124875	99
Es	0.508311	1.373159	1.041306	99
Es	-1.357848	-0.155329	0.566194	99
Es	0.996818	0.718085	0.852592	99
Es	-0.576961	-0.496262	0.552098	99
42
Properties=species:S:1:pos:R:3:Z:I:1 energy=-340.00768444898034 field_type=dipole dipole="0.000000 0.000000 0.000000" charge=0
N	-1.201398	-0.449887	0.699861	7
C	0.233662	-0.539077	0.345261	6
C	0.468842	-0.685467	-1.135319	6
C	-0.434528	-0.629457	-2.124830	6
C	0.996962	0.718043	0.852551	6
N	0.206712	1.705013	1.380341	7
O	2.216452	0.850203	0.797981	8
H	-1.261658	-0.470847	1.718391	1
H	-1.643498	-1.314427	0.387381	1
H	0.657892	-1.405717	0.865221	1
H	1.511872	-0.849927	-1.411049	1
H	-1.487988	-0.448997	-1.936819	1
H	-0.127698	-0.747627	-3.159920	1
H	-0.778138	1.675493	1.136231	1
H	0.642512	2.592673	1.584721	1
Es	2.360178	0.599376	0.680093	99
Es	1.792032	0.896487	0.584866	99
Es	-0.362270	1.704223	1.229762	99
Es	1.169838	-0.798921	-1.309232	99
Es	0.509161	1.371890	1.042276	99
Es	-1.147239	-0.512579	-2.003860	99
Es	1.828522	0.702369	1.044181	99
Es	-0.576870	-0.496121	0.551820	99
Es	-1.201138	-0.450317	0.700071	99
Es	0.458290	2.231974	1.482074	99
Es	0.206889	1.704975	1.379784	99
Es	-1.454154	-0.976267	0.517426	99
Es	0.598603	0.094457	0.595656	99
Es	2.299190	1.128489	0.908554	99
Es	0.996817	0.718083	0.852595	99
Es	0.335430	-0.599343	-0.388906	99
Es	-1.357562	-0.156092	0.566242	99
Es	-1.225745	-0.474072	1.313345	99
Es	2.216141	0.850175	0.797994	99
Es	-0.042518	-0.984434	-1.598080	99
Es	-0.231420	-0.710427	-2.824004	99
Es	-0.434584	-0.629460	-2.124879	99
Es	0.286623	1.461835	1.590029	99
Es	0.468887	-0.685472	-1.135180	99
Es	0.531823	-1.117095	0.688696	99
Es	0.233545	-0.538986	0.345270	99
Es	0.052597	-0.338400	-1.651596	99
42
Properties=species:S:1:pos:R:3:Z:I:1 energy=-340.00768444898034 field_type=dipole dipole="0.000000 0.000000 0.000000" charge=0
N	-1.201398	-0.449887	0.699861	7
C	0.233662	-0.539077	0.345261	6
C	0.468842	-0.685467	-1.135319	6
C	-0.434528	-0.629457	-2.124830	6
C	0.996962	0.718043	0.852551	6
N	0.206712	1.705013	1.380341	7
O	2.216452	0.850203	0.797981	8
H	-1.261658	-0.470847	1.718391	1
H	-1.643498	-1.314427	0.387381	1
H	0.657892	-1.405717	0.865221	1
H	1.511872	-0.849927	-1.411049	1
H	-1.487988	-0.448997	-1.936819	1
H	-0.127698	-0.747627	-3.159920	1
H	-0.778138	1.675493	1.136231	1
H	0.642512	2.592673	1.584721	1
Es	-1.201134	-0.450324	0.700075	99
Es	-0.434585	-0.629461	-2.124879	99
Es	0.206811	1.705037	1.379921	99
Es	0.468888	-0.685466	-1.135176	99
Es	0.598584	0.094470	0.595530	99
Es	-1.357792	-0.155774	0.566504	99
Es	0.052583	-0.338575	-1.651583	99
Es	0.287008	1.459920	1.591215	99
Es	0.233547	-0.538984	0.345272	99
Es	-1.454115	-0.976241	0.517334	99
Es	1.790725	0.895310	0.586136	99
Es	2.360351	0.599991	0.679163	99
Es	-0.042459	-0.984395	-1.598125	99
Es	0.996819	0.718085	0.852595	99
Es	2.298756	1.129478	0.907618	99
Es	1.830095	0.701902	1.044874	99
Es	-1.147294	-0.512549	-2.003899	99
Es	0.335391	-0.599384	-0.388866	99
Es	-1.225619	-0.474519	1.313146	99
Es	-0.231360	-0.710409	-2.823960	99
Es	0.458212	2.231806	1.482203	99
Es	0.531835	-1.117025	0.688714	99
Es	-0.361769	1.704635	1.229092	99
Es	-0.576858	-0.496032	0.551847	99
Es	2.216125	0.850176	0.798000	99
Es	0.508445	1.373520	1.041490	99
Es	1.169878	-0.798841	-1.309246	99
42
Properties=species:S:1:pos:R:3:Z:I:1 energy=-340.00768444898034 field_type=dipole dipole="0.000000 0.000000 0.000000" charge=0
N	-1.201398	-0.449887	0.699861	7
C	0.233662	-0.539077	0.345261	6
C	0.468842	-0.685467	-1.135319	6
C	-0.434528	-0.629457	-2.124830	6
C	0.996962	0.718043	0.852551	6
N	0.206712	1.705013	1.380341	7
O	2.216452	0.850203	0.797981	8
H	-1.261658	-0.470847	1.718391	1
H	-1.643498	-1.314427	0.387381	1
H	0.657892	-1.405717	0.865221	1
H	1.511872	-0.849927	-1.411049	1
H	-1.487988	-0.448997	-1.936819	1
H	-0.127698	-0.747627	-3.159920	1
H	-0.778138	1.675493	1.136231	1
H	0.642512	2.592673	1.584721	1
Es	-0.362226	1.704128	1.230200	99
Es	1.792219	0.896271	0.584389	99
Es	-1.147245	-0.512526	-2.003823	99
Es	0.468887	-0.685465	-1.135181	99
Es	0.996819	0.718085	0.852596	99
Es	2.298549	1.128397	0.908525	99
Es	2.216144	0.850168	0.797992	99
Es	0.052549	-0.338696	-1.651520	99
Es	0.233545	-0.538985	0.345271	99
Es	-0.231404	-0.710386	-2.824031	99
Es	-1.454131	-0.976180	0.517345	99
Es	-0.434587	-0.629471	-2.124880	99
Es	-1.201136	-0.450320	0.700072	99
Es	0.335421	-0.599390	-0.388832	99
Es	-0.576806	-0.496010	0.551824	99
Es	0.531866	-1.116979	0.688736	99
Es	0.206779	1.705059	1.380008	99
Es	0.287644	1.460456	1.590435	99
Es	2.360778	0.599858	0.680582	99
Es	0.458125	2.232014	1.481875	99
Es	-0.042450	-0.984431	-1.598163	99
Es	-1.357763	-0.155936	0.566515	99
Es	0.598583	0.094394	0.595520	99
Es	0.508400	1.373288	1.041364	99
Es	1.828339	0.702203	1.044293	99
Es	1.169897	-0.798752	-1.309275	99
Es	-1.225730	-0.474444	1.313159	99
42
Properties=species:S:1:pos:R:3:Z:I:1 energy=-340.00768444898034 field_type=dipole dipole="0.000000 0.000000 0.000000" charge=0
N	-1.201398	-0.449887	0.699861	7
C	0.233662	-0.539077	0.345261	6
C	0.468842	-0.685467	-1.135319	6
C	-0.434528	-0.629457	-2.124830	6
C	0.996962	0.718043	0.852551	6
N	0.206712	1.705013	1.380341	7
O	2.216452	0.850203	0.797981	8
H	-1.261658	-0.470847	1.718391	1
H	-1.643498	-1.314427	0.387381	1
H	0.657892	-1.405717	0.865221	1
H	1.511872	-0.849927	-1.411049	1
H	-1.487988	-0.448997	-1.936819	1
H	-0.127698	-0.747627	-3.159920	1
H	-0.778138	1.675493	1.136231	1
H	0.642512	2.592673	1.584721	1
Es	0.996820	0.718087	0.852596	99
Es	0.052560	-0.338765	-1.651543	99
Es	0.458135	2.231999	1.481067	99
Es	-1.225818	-0.474267	1.313169	99
Es	1.830293	0.702690	1.045360	99
Es	1.790401	0.895028	0.585412	99
Es	2.216149	0.850180	0.798001	99
Es	0.286707	1.461313	1.591578	99
Es	1.169917	-0.798815	-1.309333	99
Es	2.360604	0.599857	0.680109	99
Es	0.468888	-0.685466	-1.135179	99
Es	2.298536	1.129143	0.906823	99
Es	-1.357542	-0.156123	0.566587	99
Es	-0.576770	-0.496023	0.551867	99
Es	0.335403	-0.599435	-0.388812	99
Es	-0.361848	1.704334	1.229356	99
Es	-0.231399	-0.710411	-2.824033	99
Es	0.598658	0.094397	0.595558	99
Es	0.531809	-1.116939	0.688658	99
Es	0.206866	1.705000	1.379820	99
Es	-1.201131	-0.450320	0.700071	99
Es	-1.454311	-0.976172	0.517258	99
Es	-0.434584	-0.629461	-2.124880	99
Es	-1.147246	-0.512487	-2.003821	99
Es	0.508908	1.372318	1.042146	99
Es	-0.042483	-0.984327	-1.598107	99
Es	0.233549	-0.538984	0.345268	99
