38
Properties=species:S:1:pos:R:3:Z:I:1 energy=-358.6285886461672 field_type=dipole dipole="0.000000 0.000000 0.000000" charge=0
N	-1.867714	-1.493807	0.110763	7
C	-0.416114	-1.481817	0.058363	6
C	0.065906	-0.120647	0.058363	6
C	0.463186	1.001253	0.058363	6
C	0.984906	2.344723	0.051173	6
O	2.333196	2.402214	0.109013	8
O	0.256556	3.319523	-0.015037	8
H	-2.201374	-2.451847	0.028893	1
H	-2.238814	-0.991537	-0.694827	1
H	-0.079164	-2.007777	-0.841107	1
H	-0.022224	-2.027367	0.921873	1
H	2.721656	1.507083	0.154163	1
Es	-2.048906	-2.076864	0.043149	99
Es	0.463277	1.001505	0.058339	99
Es	-0.143480	-1.828735	0.636512	99
Es	1.819333	2.342564	0.094447	99
Es	-1.220053	-1.489811	0.064424	99
Es	0.256775	3.319247	-0.015018	99
Es	-1.867497	-1.494063	0.110249	99
Es	2.364637	2.540197	0.353884	99
Es	0.499300	2.977940	0.260798	99
Es	0.191747	0.550630	0.387783	99
Es	-0.032172	3.229813	-0.026766	99
Es	-0.416204	-1.481679	0.058363	99
Es	2.512865	1.920144	0.132456	99
Es	-0.164219	-0.769774	0.057386	99
Es	0.609057	0.318486	-0.010467	99
Es	2.370610	2.511260	-0.147012	99
Es	0.985155	2.344589	0.051183	99
Es	2.332945	2.401858	0.109011	99
Es	-2.072917	-1.205011	-0.388813	99
Es	0.417739	3.577626	-0.015821	99
Es	-0.170308	-1.815485	-0.551682	99
Es	0.725374	1.638813	0.055923	99
Es	-1.979961	-1.350711	0.406356	99
Es	0.524594	2.961434	-0.242796	99
Es	0.055680	0.553185	-0.207757	99
Es	0.065832	-0.120875	0.058362	99
38
Properties=species:S:1:pos:R:3:Z:I:1 energy=-358.6285886461672 field_type=dipole dipole="0.000000 0.000000 0.000000" charge=0
N	-1.867714	-1.493807	0.110763	7
C	-0.416114	-1.481817	0.058363	6
C	0.065906	-0.120647	0.058363	6
C	0.463186	1.001253	0.058363	6
C	0.984906	2.344723	0.051173	6
O	2.333196	2.402214	0.109013	8
O	0.256556	3.319523	-0.015037	8
H	-2.201374	-2.451847	0.028893	1
H	-2.238814	-0.991537	-0.694827	1
H	-0.079164	-2.007777	-0.841107	1
H	-0.022224	-2.027367	0.921873	1
H	2.721656	1.507083	0.154163	1
Es	-0.033629	3.232949	-0.025259	99
Es	0.420642	3.575610	-0.016127	99
Es	0.065830	-0.120873	0.058362	99
Es	-2.072666	-1.205362	-0.388837	99
Es	-0.416201	-1.481679	0.058361	99
Es	-2.048971	-2.076879	0.043163	99
Es	0.160971	0.556127	0.377179	99
Es	-0.164564	-0.769860	0.057266	99
Es	0.499991	2.977383	0.260010	99
Es	0.256758	3.319274	-0.015020	99
Es	-0.143325	-1.828898	0.636638	99
Es	-1.867494	-1.494056	0.110258	99
Es	-1.220025	-1.489708	0.064395	99
Es	0.463279	1.001515	0.058367	99
Es	2.332976	2.401876	0.109015	99
Es	0.985157	2.344589	0.051189	99
Es	-0.170289	-1.815174	-0.551841	99
Es	2.352393	2.528628	0.359031	99
Es	2.513108	1.920077	0.130004	99
Es	0.522455	2.960799	-0.243274	99
Es	0.083535	0.552300	-0.229138	99
Es	1.819585	2.342308	0.086381	99
Es	0.725518	1.638651	0.056324	99
Es	2.382347	2.523175	-0.141577	99
Es	0.612045	0.313897	0.021289	99
Es	-1.980219	-1.350387	0.406336	99
38
Properties=species:S:1:pos:R:3:Z:I:1 energy=-358.6285886461672 field_type=dipole dipole="0.000000 0.000000 0.000000" charge=0
N	-1.867714	-1.493807	0.110763	7
C	-0.416114	-1.481817	0.058363	6
C	0.065906	-0.120647	0.058363	6
C	0.463186	1.001253	0.058363	6
C	0.984906	2.344723	0.051173	6
O	2.333196	2.402214	0.109013	8
O	0.256556	3.319523	-0.015037	8
H	-2.201374	-2.451847	0.028893	1
H	-2.238814	-0.991537	-0.694827	1
H	-0.079164	-2.007777	-0.841107	1
H	-0.022224	-2.027367	0.921873	1
H	2.721656	1.507083	0.154163	1
Es	0.256725	3.319307	-0.015021	99
Es	-2.048976	-2.076920	0.042962	99
Es	2.513267	1.919811	0.130151	99
Es	-0.030761	3.226522	-0.027760	99
Es	0.500116	2.977904	0.261647	99
Es	-1.867486	-1.494054	0.110270	99
Es	2.353158	2.528459	0.357691	99
Es	-0.164422	-0.769953	0.057495	99
Es	-2.072794	-1.205084	-0.388610	99
Es	-0.170237	-1.815255	-0.551777	99
Es	2.332970	2.401874	0.109003	99
Es	1.819389	2.342692	0.088187	99
Es	0.414641	3.579439	-0.016053	99
Es	0.186642	0.551462	0.387382	99
Es	0.725348	1.638651	0.055646	99
Es	-0.416202	-1.481679	0.058364	99
Es	0.065838	-0.120881	0.058359	99
Es	-0.143272	-1.828733	0.636569	99
Es	-1.220175	-1.489787	0.064323	99
Es	0.463275	1.001509	0.058357	99
Es	0.609350	0.317849	-0.006230	99
Es	0.525468	2.962846	-0.242382	99
Es	2.381657	2.523212	-0.142189	99
Es	0.985149	2.344593	0.051198	99
Es	-1.980064	-1.350613	0.406437	99
Es	0.060600	0.553110	-0.211524	99
38
Properties=species:S:1:pos:R:3:Z:I:1 energy=-358.6285886461672 field_type=dipole dipole="0.000000 0.000000 0.000000" charge=0
N	-1.867714	-1.493807	0.110763	7
C	-0.416114	-1.481817	0.058363	6
C	0.065906	-0.120647	0.058363	6
C	0.463186	1.001253	0.058363	6
C	0.984906	2.344723	0.051173	6
O	2.333196	2.402214	0.109013	8
O	0.256556	3.319523	-0.015037	8
H	-2.201374	-2.451847	0.028893	1
H	-2.238814	-0.991537	-0.694827	1
H	-0.079164	-2.007777	-0.841107	1
H	-0.022224	-2.027367	0.921873	1
H	2.721656	1.507083	0.154163	1
Es	2.374499	2.513822	-0.145252	99
Es	-1.220164	-1.489547	0.064435	99
Es	0.524311	2.962000	-0.243348	99
Es	1.819253	2.342758	0.090998	99
Es	0.985148	2.344595	0.051196	99
Es	-0.164313	-0.770095	0.057497	99
Es	0.046073	0.553343	-0.199606	99
Es	-1.979771	-1.350854	0.406063	99
Es	-0.143188	-1.828673	0.636546	99
Es	-2.049059	-2.077152	0.043096	99
Es	0.417330	3.577465	-0.015468	99
Es	-0.032098	3.229771	-0.026490	99
Es	0.463280	1.001510	0.058353	99
Es	2.332966	2.401891	0.109011	99
Es	2.512904	1.919995	0.132931	99
Es	-0.170231	-1.815233	-0.551846	99
Es	0.203954	0.547894	0.392402	99
Es	2.360832	2.537591	0.355115	99
Es	0.256749	3.319235	-0.015020	99
Es	0.606632	0.321161	-0.022847	99
Es	0.499875	2.977533	0.260706	99
Es	0.065832	-0.120871	0.058362	99
Es	-0.416202	-1.481680	0.058364	99
Es	-2.073048	-1.204851	-0.388372	99
Es	0.725137	1.638741	0.055416	99
Es	-1.867497	-1.494067	0.110252	99
38
Properties=species:S:1:pos:R:3:Z:I:1 energy=-358.6285886461672 field_type=dipole dipole="0.000000 0.000000 0.000000" charge=0
N	-1.867714	-1.493807	0.110763	7
C	-0.416114	-1.481817	0.058363	6
C	0.065906	-0.120647	0.058363	6
C	0.463186	1.001253	0.058363	6
C	0.984906	2.344723	0.051173	6
O	2.333196	2.402214	0.109013	8
O	0.256556	3.319523	-0.015037	8
H	-2.201374	-2.451847	0.028893	1
H	-2.238814	-0.991537	-0.694827	1
H	-0.079164	-2.007777	-0.841107	1
H	-0.022224	-2.027367	0.921873	1
H	2.721656	1.507083	0.154163	1
Es	-0.164764	-0.770000	0.057020	99
Es	0.416949	3.577439	-0.015620	99
Es	2.379667	2.519640	-0.142596	99
Es	0.985152	2.344591	0.051190	99
Es	-0.143152	-1.828648	0.636684	99
Es	-1.220001	-1.489696	0.064471	99
Es	2.332971	2.401882	0.109008	99
Es	-0.416201	-1.481680	0.058363	99
Es	-0.032042	3.229549	-0.025856	99
Es	-1.867500	-1.494060	0.110254	99
Es	-2.072875	-1.205065	-0.388499	99
Es	0.065829	-0.120872	0.058360	99
Es	0.523919	2.962114	-0.243697	99
Es	0.500613	2.977612	0.260551	99
Es	-0.170183	-1.815197	-0.551760	99
Es	2.354652	2.532302	0.357576	99
Es	0.121327	0.550133	-0.251175	99
Es	0.256759	3.319280	-0.015020	99
Es	1.819625	2.342237	0.087119	99
Es	-2.049152	-2.076847	0.043067	99
Es	2.513569	1.920007	0.131731	99
Es	-1.980083	-1.350769	0.406046	99
Es	0.613001	0.311241	0.060758	99
Es	0.725631	1.638507	0.057280	99
Es	0.122213	0.561075	0.358878	99
Es	0.463281	1.001507	0.058358	99
38
Properties=species:S:1:pos:R:3:Z:I:1 energy=-358.6285886461672 field_type=dipole dipole="0.000000 0.000000 0.000000" charge=0
N	-1.867714	-1.493807	0.110763	7
C	-0.416114	-1.481817	0.058363	6
C	0.065906	-0.120647	0.058363	6
C	0.463186	1.001253	0.058363	6
C	0.984906	2.344723	0.051173	6
O	2.333196	2.402214	0.109013	8
O	0.256556	3.319523	-0.015037	8
H	-2.201374	-2.451847	0.028893	1
H	-2.238814	-0.991537	-0.694827	1
H	-0.079164	-2.007777	-0.841107	1
H	-0.022224	-2.027367	0.921873	1
H	2.721656	1.507083	0.154163	1
Es	1.819259	2.342631	0.088382	99
Es	-0.143070	-1.828550	0.636710	99
Es	-0.031385	3.229148	-0.024690	99
Es	-0.416202	-1.481681	0.058363	99
Es	-1.867502	-1.494058	0.110256	99
Es	0.501852	2.977657	0.260736	99
Es	0.725459	1.638525	0.056270	99
Es	-2.049142	-2.076857	0.043381	99
Es	0.065830	-0.120872	0.058362	99
Es	2.513404	1.919975	0.133206	99
Es	0.165251	0.555416	0.379395	99
Es	2.332965	2.401880	0.109054	99
Es	0.985155	2.344589	0.051195	99
Es	2.377059	2.515772	-0.143713	99
Es	-1.979985	-1.350798	0.405774	99
Es	0.611740	0.314478	0.016102	99
Es	2.357794	2.535798	0.355903	99
Es	0.416267	3.577902	-0.016610	99
Es	-2.073002	-1.205089	-0.388651	99
Es	0.522662	2.962079	-0.244133	99
Es	0.463284	1.001508	0.058348	99
Es	0.256782	3.319226	-0.015014	99
Es	0.079678	0.552550	-0.226166	99
Es	-1.220109	-1.489630	0.064582	99
Es	-0.170121	-1.815179	-0.551713	99
Es	-0.164718	-0.770139	0.057166	99
38
Properties=species:S:1:pos:R:3:Z:I:1 energy=-358.6285886461672 field_type=dipole dipole="0.000000 0.000000 0.000000" charge=0
N	-1.867714	-1.493807	0.110763	7
C	-0.416114	-1.481817	0.058363	6
C	0.065906	-0.120647	0.058363	6
C	0.463186	1.001253	0.058363	6
C	0.984906	2.344723	0.051173	6
O	2.333196	2.402214	0.109013	8
O	0.256556	3.319523	-0.015037	8
H	-2.201374	-2.451847	0.028893	1
H	-2.238814	-0.991537	-0.694827	1
H	-0.079164	-2.007777	-0.841107	1
H	-0.022224	-2.027367	0.921873	1
H	2.721656	1.507083	0.154163	1
Es	-2.049295	-2.076928	0.043541	99
Es	-1.220170	-1.489659	0.064435	99
Es	-1.867492	-1.494062	0.110254	99
Es	-1.979769	-1.350770	0.405643	99
Es	0.414834	3.578449	-0.015931	99
Es	2.359830	2.536888	0.354337	99
Es	2.514107	1.919834	0.132805	99
Es	0.725598	1.638475	0.057171	99
Es	0.124062	0.561033	0.359298	99
Es	-2.073075	-1.205010	-0.388568	99
Es	0.524615	2.962284	-0.243940	99
Es	-0.170026	-1.815104	-0.551782	99
Es	1.819338	2.342490	0.091562	99
Es	0.256671	3.319358	-0.015040	99
Es	0.613033	0.311214	0.060315	99
Es	0.119649	0.550165	-0.250981	99
Es	-0.030837	3.227688	-0.025840	99
Es	2.374268	2.514993	-0.144877	99
Es	0.500891	2.978204	0.261125	99
Es	-0.164972	-0.770130	0.056995	99
Es	0.065827	-0.120872	0.058360	99
Es	0.985152	2.344591	0.051191	99
Es	2.332968	2.401862	0.108998	99
Es	-0.416201	-1.481681	0.058363	99
Es	-0.143075	-1.828539	0.636697	99
Es	0.463272	1.001508	0.058364	99
38
Properties=species:S:1:pos:R:3:Z:I:1 energy=-358.6285886461672 field_type=dipole dipole="0.000000 0.000000 0.000000" charge=0
N	-1.867714	-1.493807	0.110763	7
C	-0.416114	-1.481817	0.058363	6
C	0.065906	-0.120647	0.058363	6
C	0.463186	1.001253	0.058363	6
C	0.984906	2.344723	0.051173	6
O	2.333196	2.402214	0.109013	8
O	0.256556	3.319523	-0.015037	8
H	-2.201374	-2.451847	0.028893	1
H	-2.238814	-0.991537	-0.694827	1
H	-0.079164	-2.007777	-0.841107	1
H	-0.022224	-2.027367	0.921873	1
H	2.721656	1.507083	0.154163	1
Es	-0.164813	-0.770326	0.057345	99
Es	-2.073266	-1.204598	-0.388242	99
Es	1.819408	2.342367	0.088566	99
Es	2.378522	2.518749	-0.143275	99
Es	2.355956	2.533093	0.356512	99
Es	0.612054	0.314113	0.018763	99
Es	0.498366	2.976923	0.260939	99
Es	2.332938	2.401874	0.109019	99
Es	0.415585	3.579482	-0.014319	99
Es	-0.416199	-1.481683	0.058362	99
Es	-1.867495	-1.494055	0.110262	99
Es	0.725514	1.638439	0.056125	99
Es	0.162645	0.555914	0.378290	99
Es	0.081971	0.552482	-0.227746	99
Es	0.525709	2.962578	-0.242932	99
Es	0.065829	-0.120870	0.058361	99
Es	-0.142997	-1.828542	0.636682	99
Es	0.256747	3.319273	-0.015022	99
Es	0.985154	2.344591	0.051196	99
Es	-0.170013	-1.815010	-0.551841	99
Es	-2.049153	-2.076778	0.042967	99
Es	-1.979865	-1.351381	0.405834	99
Es	-1.220093	-1.489594	0.064532	99
Es	-0.030271	3.227728	-0.028242	99
Es	2.513692	1.920006	0.132008	99
Es	0.463279	1.001507	0.058353	99
38
Properties=species:S:1:pos:R:3:Z:I:1 energy=-358.6285886461672 field_type=dipole dipole="0.000000 0.000000 0.000000" charge=0
N	-1.867714	-1.493807	0.110763	7
C	-0.416114	-1.481817	0.058363	6
C	0.065906	-0.120647	0.058363	6
C	0.463186	1.001253	0.058363	6
C	0.984906	2.344723	0.051173	6
O	2.333196	2.402214	0.109013	8
O	0.256556	3.319523	-0.015037	8
H	-2.201374	-2.451847	0.028893	1
H	-2.238814	-0.991537	-0.694827	1
H	-0.079164	-2.007777	-0.841107	1
H	-0.022224	-2.027367	0.921873	1
H	2.721656	1.507083	0.154163	1
Es	2.513621	1.919899	0.133175	99
Es	0.525577	2.962306	-0.243555	99
Es	0.609834	0.317201	-0.002597	99
Es	-0.142959	-1.828528	0.636691	99
Es	0.498567	2.977198	0.260809	99
Es	0.063478	0.553117	-0.214114	99
Es	-2.049181	-2.076696	0.043118	99
Es	0.985156	2.344589	0.051200	99
Es	0.725293	1.638507	0.055739	99
Es	0.183508	0.552205	0.386328	99
Es	1.819472	2.342519	0.090716	99
Es	2.373726	2.513269	-0.144894	99
Es	-0.031426	3.229582	-0.027661	99
Es	-0.164778	-0.770453	0.057513	99
Es	-2.072902	-1.205293	-0.388441	99
Es	-0.416200	-1.481682	0.058363	99
Es	-1.980078	-1.350550	0.406294	99
Es	0.256739	3.319235	-0.015016	99
Es	-1.220295	-1.489799	0.064079	99
Es	-0.169949	-1.814943	-0.551831	99
Es	0.065830	-0.120874	0.058363	99
Es	0.463289	1.001500	0.058356	99
Es	2.332932	2.401882	0.108991	99
Es	0.416650	3.577652	-0.014207	99
Es	2.360803	2.538492	0.354807	99
Es	-1.867506	-1.494055	0.110268	99
38
Properties=species:S:1:pos:R:3:Z:I:1 energy=-358.6285886461672 field_type=dipole dipole="0.000000 0.000000 0.000000" charge=0
N	-1.867714	-1.493807	0.110763	7
C	-0.416114	-1.481817	0.058363	6
C	0.065906	-0.120647	0.058363	6
C	0.463186	1.001253	0.058363	6
C	0.984906	2.344723	0.051173	6
O	2.333196	2.402214	0.109013	8
O	0.256556	3.319523	-0.015037	8
H	-2.201374	-2.451847	0.028893	1
H	-2.238814	-0.991537	-0.694827	1
H	-0.079164	-2.007777	-0.841107	1
H	-0.022224	-2.027367	0.921873	1
H	2.721656	1.507083	0.154163	1
Es	-0.169917	-1.814946	-0.551801	99
Es	0.463280	1.001503	0.058353	99
Es	-0.031297	3.232333	-0.026030	99
Es	0.065831	-0.120870	0.058361	99
Es	0.522828	2.961054	-0.244247	99
Es	0.419013	3.576605	-0.015228	99
Es	1.819134	2.342426	0.089794	99
Es	2.332920	2.401857	0.109091	99
Es	2.514024	1.920033	0.132441	99
Es	-0.416199	-1.481682	0.058363	99
Es	0.725418	1.638453	0.056038	99
Es	0.985156	2.344588	0.051196	99
Es	0.498902	2.976586	0.260847	99
Es	-0.164877	-0.770512	0.057325	99
Es	-1.220233	-1.489536	0.064464	99
Es	2.357083	2.533971	0.355284	99
Es	-2.049365	-2.076912	0.043035	99
Es	0.169462	0.554706	0.381413	99
Es	0.611235	0.315102	0.011578	99
Es	-1.867495	-1.494061	0.110248	99
Es	-2.073194	-1.204548	-0.388103	99
Es	2.377396	2.517789	-0.143782	99
Es	-0.142914	-1.828463	0.636757	99
Es	-1.979738	-1.351304	0.405648	99
Es	0.076093	0.552727	-0.223534	99
Es	0.256657	3.319384	-0.015015	99
38
Properties=species:S:1:pos:R:3:Z:I:1 energy=-358.6285886461672 field_type=dipole dipole="0.000000 0.000000 0.000000" charge=0
N	-1.867714	-1.493807	0.110763	7
C	-0.416114	-1.481817	0.058363	6
C	0.065906	-0.120647	0.058363	6
C	0.463186	1.001253	0.058363	6
C	0.984906	2.344723	0.051173	6
O	2.333196	2.402214	0.109013	8
O	0.256556	3.319523	-0.015037	8
H	-2.201374	-2.451847	0.028893	1
H	-2.238814	-0.991537	-0.694827	1
H	-0.079164	-2.007777	-0.841107	1
H	-0.022224	-2.027367	0.921873	1
H	2.721656	1.507083	0.154163	1
Es	0.128865	0.560305	0.363017	99
Es	0.256729	3.319303	-0.015012	99
Es	0.525327	2.961896	-0.243077	99
Es	0.463284	1.001502	0.058354	99
Es	-0.169894	-1.814873	-0.551876	99
Es	-2.073195	-1.204841	-0.388253	99
Es	0.725563	1.638401	0.057300	99
Es	-1.220157	-1.489407	0.064645	99
Es	-0.142857	-1.828458	0.636710	99
Es	2.332946	2.401883	0.109067	99
Es	-0.165168	-0.770483	0.057144	99
Es	2.357206	2.498599	-0.151319	99
Es	-0.416203	-1.481682	0.058364	99
Es	1.819075	2.343288	0.104320	99
Es	-0.031287	3.229688	-0.027837	99
Es	0.498455	2.977384	0.261265	99
Es	0.114802	0.550781	-0.247339	99
Es	0.065828	-0.120870	0.058362	99
Es	0.985152	2.344591	0.051189	99
Es	0.416870	3.577665	-0.015042	99
Es	2.514090	1.920050	0.135766	99
Es	-1.867498	-1.494055	0.110267	99
Es	-2.049270	-2.076826	0.043182	99
Es	2.377262	2.552263	0.344985	99
Es	-1.979971	-1.351216	0.405497	99
Es	0.613249	0.311393	0.052820	99
38
Properties=species:S:1:pos:R:3:Z:I:1 energy=-358.6285886461672 field_type=dipole dipole="0.000000 0.000000 0.000000" charge=0
N	-1.867714	-1.493807	0.110763	7
C	-0.416114	-1.481817	0.058363	6
C	0.065906	-0.120647	0.058363	6
C	0.463186	1.001253	0.058363	6
C	0.984906	2.344723	0.051173	6
O	2.333196	2.402214	0.109013	8
O	0.256556	3.319523	-0.015037	8
H	-2.201374	-2.451847	0.028893	1
H	-2.238814	-0.991537	-0.694827	1
H	-0.079164	-2.007777	-0.841107	1
H	-0.022224	-2.027367	0.921873	1
H	2.721656	1.507083	0.154163	1
Es	2.356542	2.533425	0.355666	99
Es	0.985153	2.344590	0.051190	99
Es	0.065833	-0.120873	0.058363	99
Es	-0.142829	-1.828410	0.636780	99
Es	0.416206	3.578655	-0.014698	99
Es	-0.030310	3.229213	-0.026337	99
Es	2.514339	1.919946	0.131801	99
Es	0.179640	0.553037	0.385054	99
Es	0.523609	2.962442	-0.244213	99
Es	0.463279	1.001500	0.058352	99
Es	2.332977	2.401897	0.109045	99
Es	1.819315	2.342300	0.089647	99
Es	0.499727	2.976374	0.260562	99
Es	-0.164990	-0.770651	0.057445	99
Es	-0.416201	-1.481682	0.058363	99
Es	0.725298	1.638435	0.055635	99
Es	0.610191	0.316536	0.001888	99
Es	-2.049482	-2.076796	0.043469	99
Es	-1.979820	-1.351101	0.405282	99
Es	-1.867479	-1.494069	0.110244	99
Es	-2.073192	-1.204840	-0.388300	99
Es	-1.220149	-1.489569	0.064592	99
Es	-0.169822	-1.814840	-0.551860	99
Es	0.256852	3.319266	-0.015014	99
Es	0.067095	0.552995	-0.217154	99
Es	2.377423	2.518502	-0.143307	99
38
Properties=species:S:1:pos:R:3:Z:I:1 energy=-358.6285886461672 field_type=dipole dipole="0.000000 0.000000 0.000000" charge=0
N	-1.867714	-1.493807	0.110763	7
C	-0.416114	-1.481817	0.058363	6
C	0.065906	-0.120647	0.058363	6
C	0.463186	1.001253	0.058363	6
C	0.984906	2.344723	0.051173	6
O	2.333196	2.402214	0.109013	8
O	0.256556	3.319523	-0.015037	8
H	-2.201374	-2.451847	0.028893	1
H	-2.238814	-0.991537	-0.694827	1
H	-0.079164	-2.007777	-0.841107	1
H	-0.022224	-2.027367	0.921873	1
H	2.721656	1.507083	0.154163	1
Es	-1.979518	-1.351033	0.405074	99
Es	-0.169783	-1.814827	-0.551862	99
Es	-0.164846	-0.770834	0.057534	99
Es	0.463279	1.001502	0.058351	99
Es	-1.867505	-1.494054	0.110266	99
Es	0.608196	0.319324	-0.014215	99
Es	-0.030481	3.229031	-0.026181	99
Es	0.256755	3.319242	-0.015020	99
Es	-0.416201	-1.481681	0.058364	99
Es	2.514262	1.920008	0.133775	99
Es	-1.220202	-1.489559	0.064440	99
Es	2.370921	2.511710	-0.146620	99
Es	-0.142789	-1.828357	0.636818	99
Es	0.415843	3.578368	-0.014829	99
Es	1.819558	2.342221	0.093839	99
Es	0.194304	0.549936	0.390426	99
Es	0.500367	2.976403	0.260691	99
Es	-2.049668	-2.076854	0.043774	99
Es	0.523563	2.962887	-0.244393	99
Es	2.332969	2.401894	0.109024	99
Es	0.054471	0.553340	-0.206386	99
Es	0.985155	2.344590	0.051182	99
Es	0.725132	1.638462	0.055546	99
Es	2.362906	2.540242	0.352810	99
Es	-2.073305	-1.204816	-0.388277	99
Es	0.065821	-0.120865	0.058363	99
