41
Properties=species:S:1:pos:R:3:Z:I:1 energy=-359.82181394010945 field_type=dipole dipole="0.000000 0.000000 0.000000" charge=0
N	-1.765816	-0.057987	0.309720	7
C	-0.402326	0.072513	0.052960	6
C	0.302274	-1.202887	-0.390770	6
O	-0.456076	-2.333447	0.042890	8
C	0.230734	1.246373	0.230600	6
C	1.666374	1.483363	-0.026090	6
O	2.173654	2.579273	0.183320	8
H	-2.283776	0.818503	0.274930	1
H	-2.200596	-0.778547	-0.272430	1
H	1.299364	-1.297897	0.045350	1
H	0.372424	-1.242707	-1.481890	1
H	-0.886866	-2.052947	0.873640	1
H	-0.302536	2.124423	0.580860	1
H	2.253165	0.641973	-0.423090	1
Es	-2.061850	0.464595	0.274789	99
Es	-0.140688	1.832817	0.461384	99
Es	-0.256706	-2.558344	0.099295	99
Es	-1.688483	-0.161031	0.595993	99
Es	0.980683	-1.243165	-0.096779	99
Es	0.344717	-1.212936	-1.124926	99
Es	-0.051026	0.814624	-0.163203	99
Es	1.666333	1.483334	-0.026097	99
Es	-0.686580	-2.357059	-0.156926	99
Es	1.934444	2.249862	-0.127357	99
Es	0.302078	-1.202981	-0.390667	99
Es	-0.174287	-1.885828	-0.106414	99
Es	-0.402512	0.072342	0.052968	99
Es	2.480362	2.590730	0.114109	99
Es	0.062954	0.661332	0.447454	99
Es	-0.059773	-0.551334	-0.162910	99
Es	2.059731	0.894277	-0.298618	99
Es	1.963551	2.783991	0.293663	99
Es	0.230775	1.246384	0.230576	99
Es	-0.668942	-2.171989	0.487304	99
Es	-1.765518	-0.057789	0.309147	99
Es	-0.456095	-2.333276	0.042971	99
Es	2.173525	2.578983	0.183264	99
Es	2.045869	2.111663	0.340728	99
Es	0.941077	1.337742	0.104387	99
Es	-2.014950	-0.469592	-0.047618	99
Es	-1.189515	0.017049	0.136464	99
41
Properties=species:S:1:pos:R:3:Z:I:1 energy=-359.82181394010945 field_type=dipole dipole="0.000000 0.000000 0.000000" charge=0
N	-1.765816	-0.057987	0.309720	7
C	-0.402326	0.072513	0.052960	6
C	0.302274	-1.202887	-0.390770	6
O	-0.456076	-2.333447	0.042890	8
C	0.230734	1.246373	0.230600	6
C	1.666374	1.483363	-0.026090	6
O	2.173654	2.579273	0.183320	8
H	-2.283776	0.818503	0.274930	1
H	-2.200596	-0.778547	-0.272430	1
H	1.299364	-1.297897	0.045350	1
H	0.372424	-1.242707	-1.481890	1
H	-0.886866	-2.052947	0.873640	1
H	-0.302536	2.124423	0.580860	1
H	2.253165	0.641973	-0.423090	1
Es	-0.256408	-2.557441	0.099016	99
Es	0.980631	-1.243181	-0.096777	99
Es	1.666334	1.483332	-0.026089	99
Es	0.063057	0.661246	0.447619	99
Es	2.046668	2.111450	0.341159	99
Es	-2.062260	0.464576	0.275931	99
Es	2.479999	2.592227	0.114090	99
Es	0.302084	-1.202975	-0.390670	99
Es	1.934626	2.249570	-0.127460	99
Es	0.940898	1.337704	0.104050	99
Es	-1.765640	-0.057803	0.309201	99
Es	-1.687654	-0.161623	0.595619	99
Es	-2.014867	-0.469395	-0.048081	99
Es	-0.668408	-2.172662	0.487680	99
Es	1.962904	2.783010	0.293412	99
Es	-0.174915	-1.885162	-0.106742	99
Es	-0.140391	1.832858	0.461545	99
Es	2.173519	2.578992	0.183264	99
Es	0.344779	-1.212981	-1.124904	99
Es	-0.456041	-2.333148	0.043067	99
Es	-0.686876	-2.358081	-0.156777	99
Es	-0.051297	0.814707	-0.163201	99
Es	2.059752	0.894262	-0.298665	99
Es	-0.402508	0.072345	0.052967	99
Es	-0.059670	-0.551290	-0.162997	99
Es	0.230785	1.246371	0.230617	99
Es	-1.189928	0.017490	0.136105	99
41
Properties=species:S:1:pos:R:3:Z:I:1 energy=-359.82181394010945 field_type=dipole dipole="0.000000 0.000000 0.000000" charge=0
N	-1.765816	-0.057987	0.309720	7
C	-0.402326	0.072513	0.052960	6
C	0.302274	-1.202887	-0.390770	6
O	-0.456076	-2.333447	0.042890	8
C	0.230734	1.246373	0.230600	6
C	1.666374	1.483363	-0.026090	6
O	2.173654	2.579273	0.183320	8
H	-2.283776	0.818503	0.274930	1
H	-2.200596	-0.778547	-0.272430	1
H	1.299364	-1.297897	0.045350	1
H	0.372424	-1.242707	-1.481890	1
H	-0.886866	-2.052947	0.873640	1
H	-0.302536	2.124423	0.580860	1
H	2.253165	0.641973	-0.423090	1
Es	-0.257000	-2.556410	0.099647	99
Es	-1.686489	-0.160315	0.595301	99
Es	2.048076	2.110567	0.340598	99
Es	2.059742	0.894228	-0.298647	99
Es	0.344898	-1.213005	-1.124927	99
Es	-2.015586	-0.470668	-0.046398	99
Es	1.934243	2.250082	-0.127314	99
Es	0.940961	1.337868	0.104492	99
Es	-0.050779	0.814820	-0.163229	99
Es	2.173510	2.578973	0.183262	99
Es	-1.765602	-0.057797	0.309189	99
Es	-1.190317	0.017526	0.135129	99
Es	-0.668938	-2.172637	0.487626	99
Es	-2.062405	0.464554	0.275569	99
Es	1.962169	2.781436	0.294465	99
Es	0.302080	-1.202979	-0.390669	99
Es	0.062738	0.661060	0.447268	99
Es	-0.456015	-2.333158	0.043094	99
Es	-0.686418	-2.359113	-0.157190	99
Es	-0.140701	1.832769	0.461491	99
Es	0.980532	-1.243066	-0.096720	99
Es	-0.059610	-0.551339	-0.163021	99
Es	-0.402509	0.072344	0.052967	99
Es	1.666336	1.483339	-0.026092	99
Es	0.230775	1.246382	0.230576	99
Es	-0.174249	-1.885251	-0.106905	99
Es	2.479732	2.594190	0.113417	99
41
Properties=species:S:1:pos:R:3:Z:I:1 energy=-359.82181394010945 field_type=dipole dipole="0.000000 0.000000 0.000000" charge=0
N	-1.765816	-0.057987	0.309720	7
C	-0.402326	0.072513	0.052960	6
C	0.302274	-1.202887	-0.390770	6
O	-0.456076	-2.333447	0.042890	8
C	0.230734	1.246373	0.230600	6
C	1.666374	1.483363	-0.026090	6
O	2.173654	2.579273	0.183320	8
H	-2.283776	0.818503	0.274930	1
H	-2.200596	-0.778547	-0.272430	1
H	1.299364	-1.297897	0.045350	1
H	0.372424	-1.242707	-1.481890	1
H	-0.886866	-2.052947	0.873640	1
H	-0.302536	2.124423	0.580860	1
H	2.253165	0.641973	-0.423090	1
Es	0.345003	-1.212894	-1.124976	99
Es	-0.669226	-2.172371	0.487341	99
Es	-0.050169	0.815554	-0.163473	99
Es	-0.686258	-2.359372	-0.157273	99
Es	-0.256951	-2.556383	0.100132	99
Es	2.059755	0.894194	-0.298695	99
Es	-2.014687	-0.469227	-0.048179	99
Es	1.666334	1.483334	-0.026091	99
Es	0.980432	-1.243075	-0.096652	99
Es	-0.059530	-0.551398	-0.162929	99
Es	-0.174197	-1.885361	-0.107086	99
Es	-0.456041	-2.333138	0.043065	99
Es	0.061939	0.660438	0.447121	99
Es	2.048198	2.110531	0.340359	99
Es	-1.687967	-0.161710	0.595741	99
Es	2.479695	2.594721	0.113828	99
Es	1.961806	2.780975	0.294501	99
Es	2.173535	2.578981	0.183249	99
Es	-1.189789	0.017511	0.136312	99
Es	1.934496	2.250049	-0.127509	99
Es	-0.140559	1.832826	0.461433	99
Es	0.940951	1.337747	0.104874	99
Es	-1.765653	-0.057811	0.309228	99
Es	-2.062291	0.464528	0.275776	99
Es	0.302081	-1.202979	-0.390669	99
Es	-0.402510	0.072344	0.052967	99
Es	0.230776	1.246384	0.230585	99
41
Properties=species:S:1:pos:R:3:Z:I:1 energy=-359.82181394010945 field_type=dipole dipole="0.000000 0.000000 0.000000" charge=0
N	-1.765816	-0.057987	0.309720	7
C	-0.402326	0.072513	0.052960	6
C	0.302274	-1.202887	-0.390770	6
O	-0.456076	-2.333447	0.042890	8
C	0.230734	1.246373	0.230600	6
C	1.666374	1.483363	-0.026090	6
O	2.173654	2.579273	0.183320	8
H	-2.283776	0.818503	0.274930	1
H	-2.200596	-0.778547	-0.272430	1
H	1.299364	-1.297897	0.045350	1
H	0.372424	-1.242707	-1.481890	1
H	-0.886866	-2.052947	0.873640	1
H	-0.302536	2.124423	0.580860	1
H	2.253165	0.641973	-0.423090	1
Es	2.173540	2.579004	0.183267	99
Es	-1.765652	-0.057807	0.309212	99
Es	0.345008	-1.212842	-1.124893	99
Es	-0.174704	-1.885142	-0.107416	99
Es	0.062792	0.660947	0.447240	99
Es	1.964264	2.784167	0.293699	99
Es	1.933863	2.249443	-0.127538	99
Es	0.302082	-1.202978	-0.390669	99
Es	-0.402510	0.072345	0.052967	99
Es	-0.140594	1.832793	0.461595	99
Es	-1.686633	-0.161633	0.596110	99
Es	-1.190667	0.017931	0.135049	99
Es	1.666333	1.483331	-0.026092	99
Es	0.230773	1.246372	0.230599	99
Es	-0.256852	-2.557300	0.099031	99
Es	0.940716	1.337869	0.104379	99
Es	2.479771	2.590531	0.113861	99
Es	-0.456094	-2.333071	0.043025	99
Es	-0.050826	0.814865	-0.163325	99
Es	2.059811	0.894253	-0.298685	99
Es	-0.668913	-2.172724	0.487731	99
Es	0.980436	-1.243060	-0.096727	99
Es	-2.062564	0.464425	0.276076	99
Es	-0.686105	-2.358482	-0.156209	99
Es	2.046256	2.112124	0.341260	99
Es	-0.059423	-0.551383	-0.162959	99
Es	-2.014934	-0.469578	-0.047608	99
41
Properties=species:S:1:pos:R:3:Z:I:1 energy=-359.82181394010945 field_type=dipole dipole="0.000000 0.000000 0.000000" charge=0
N	-1.765816	-0.057987	0.309720	7
C	-0.402326	0.072513	0.052960	6
C	0.302274	-1.202887	-0.390770	6
O	-0.456076	-2.333447	0.042890	8
C	0.230734	1.246373	0.230600	6
C	1.666374	1.483363	-0.026090	6
O	2.173654	2.579273	0.183320	8
H	-2.283776	0.818503	0.274930	1
H	-2.200596	-0.778547	-0.272430	1
H	1.299364	-1.297897	0.045350	1
H	0.372424	-1.242707	-1.481890	1
H	-0.886866	-2.052947	0.873640	1
H	-0.302536	2.124423	0.580860	1
H	2.253165	0.641973	-0.423090	1
Es	0.980601	-1.243024	-0.096803	99
Es	-0.140500	1.832851	0.461532	99
Es	-0.050154	0.815516	-0.163357	99
Es	0.940723	1.337707	0.104737	99
Es	-0.669308	-2.172927	0.487722	99
Es	-1.190970	0.017973	0.134568	99
Es	-0.456034	-2.333141	0.043071	99
Es	2.046593	2.110885	0.340459	99
Es	0.302082	-1.202978	-0.390669	99
Es	2.059847	0.894243	-0.298640	99
Es	0.230771	1.246373	0.230586	99
Es	-2.015285	-0.470031	-0.047011	99
Es	-2.062600	0.464478	0.276116	99
Es	-1.685974	-0.161198	0.595971	99
Es	0.344865	-1.212900	-1.124764	99
Es	-0.175358	-1.884596	-0.107938	99
Es	2.173530	2.578987	0.183280	99
Es	-0.256052	-2.553343	0.101118	99
Es	-1.765654	-0.057804	0.309215	99
Es	-0.402508	0.072345	0.052972	99
Es	2.479845	2.592124	0.114058	99
Es	-0.685940	-2.362708	-0.157705	99
Es	1.934166	2.250585	-0.127682	99
Es	1.666333	1.483335	-0.026093	99
Es	0.061973	0.660347	0.447067	99
Es	-0.059349	-0.551427	-0.163116	99
Es	1.963531	2.782731	0.294287	99
41
Properties=species:S:1:pos:R:3:Z:I:1 energy=-359.82181394010945 field_type=dipole dipole="0.000000 0.000000 0.000000" charge=0
N	-1.765816	-0.057987	0.309720	7
C	-0.402326	0.072513	0.052960	6
C	0.302274	-1.202887	-0.390770	6
O	-0.456076	-2.333447	0.042890	8
C	0.230734	1.246373	0.230600	6
C	1.666374	1.483363	-0.026090	6
O	2.173654	2.579273	0.183320	8
H	-2.283776	0.818503	0.274930	1
H	-2.200596	-0.778547	-0.272430	1
H	1.299364	-1.297897	0.045350	1
H	0.372424	-1.242707	-1.481890	1
H	-0.886866	-2.052947	0.873640	1
H	-0.302536	2.124423	0.580860	1
H	2.253165	0.641973	-0.423090	1
Es	2.479073	2.587761	0.113495	99
Es	1.666331	1.483330	-0.026093	99
Es	-0.140510	1.832852	0.461509	99
Es	-0.685275	-2.361243	-0.157780	99
Es	-0.257272	-2.554986	0.101699	99
Es	2.045098	2.111364	0.341111	99
Es	-0.456062	-2.333119	0.043051	99
Es	0.940557	1.337831	0.104397	99
Es	-0.050926	0.814689	-0.163215	99
Es	-0.402509	0.072345	0.052968	99
Es	2.059903	0.894259	-0.298692	99
Es	-2.062526	0.464448	0.275940	99
Es	0.344949	-1.212895	-1.124819	99
Es	2.173550	2.578959	0.183256	99
Es	-1.765615	-0.057800	0.309194	99
Es	-1.190731	0.017969	0.134915	99
Es	-0.059214	-0.551447	-0.163137	99
Es	0.230771	1.246363	0.230597	99
Es	0.302082	-1.202979	-0.390669	99
Es	-0.173670	-1.885243	-0.107392	99
Es	0.062856	0.661019	0.447268	99
Es	-1.686388	-0.161079	0.595901	99
Es	1.933449	2.250963	-0.127539	99
Es	0.980487	-1.243047	-0.096793	99
Es	-0.670455	-2.172126	0.486698	99
Es	1.966461	2.786264	0.294185	99
Es	-2.015241	-0.470052	-0.047074	99
41
Properties=species:S:1:pos:R:3:Z:I:1 energy=-359.82181394010945 field_type=dipole dipole="0.000000 0.000000 0.000000" charge=0
N	-1.765816	-0.057987	0.309720	7
C	-0.402326	0.072513	0.052960	6
C	0.302274	-1.202887	-0.390770	6
O	-0.456076	-2.333447	0.042890	8
C	0.230734	1.246373	0.230600	6
C	1.666374	1.483363	-0.026090	6
O	2.173654	2.579273	0.183320	8
H	-2.283776	0.818503	0.274930	1
H	-2.200596	-0.778547	-0.272430	1
H	1.299364	-1.297897	0.045350	1
H	0.372424	-1.242707	-1.481890	1
H	-0.886866	-2.052947	0.873640	1
H	-0.302536	2.124423	0.580860	1
H	2.253165	0.641973	-0.423090	1
Es	-1.190933	0.018112	0.134518	99
Es	0.302086	-1.202976	-0.390671	99
Es	2.479112	2.591093	0.114528	99
Es	0.345062	-1.212955	-1.124826	99
Es	-0.402510	0.072344	0.052967	99
Es	2.046387	2.111756	0.341645	99
Es	-0.174066	-1.884981	-0.107815	99
Es	-0.256981	-2.553759	0.102082	99
Es	-0.684522	-2.362596	-0.157858	99
Es	-0.050694	0.814687	-0.163182	99
Es	-0.140640	1.832830	0.461389	99
Es	2.059855	0.894257	-0.298675	99
Es	1.964575	2.783713	0.293520	99
Es	-2.062572	0.464394	0.276042	99
Es	2.173511	2.578980	0.183261	99
Es	-0.671072	-2.172311	0.486887	99
Es	-2.015399	-0.470164	-0.046833	99
Es	-0.456052	-2.333143	0.043039	99
Es	-0.059256	-0.551430	-0.163178	99
Es	-1.765617	-0.057804	0.309194	99
Es	0.062841	0.660896	0.447272	99
Es	1.934078	2.249770	-0.128460	99
Es	0.980362	-1.242952	-0.096799	99
Es	0.940525	1.337946	0.104443	99
Es	0.230766	1.246351	0.230607	99
Es	1.666335	1.483333	-0.026089	99
Es	-1.686011	-0.160989	0.595973	99
41
Properties=species:S:1:pos:R:3:Z:I:1 energy=-359.82181394010945 field_type=dipole dipole="0.000000 0.000000 0.000000" charge=0
N	-1.765816	-0.057987	0.309720	7
C	-0.402326	0.072513	0.052960	6
C	0.302274	-1.202887	-0.390770	6
O	-0.456076	-2.333447	0.042890	8
C	0.230734	1.246373	0.230600	6
C	1.666374	1.483363	-0.026090	6
O	2.173654	2.579273	0.183320	8
H	-2.283776	0.818503	0.274930	1
H	-2.200596	-0.778547	-0.272430	1
H	1.299364	-1.297897	0.045350	1
H	0.372424	-1.242707	-1.481890	1
H	-0.886866	-2.052947	0.873640	1
H	-0.302536	2.124423	0.580860	1
H	2.253165	0.641973	-0.423090	1
Es	-0.402510	0.072346	0.052966	99
Es	1.962866	2.782490	0.292470	99
Es	2.059883	0.894244	-0.298676	99
Es	-0.050804	0.814849	-0.163241	99
Es	0.980414	-1.243008	-0.096857	99
Es	-1.765624	-0.057803	0.309202	99
Es	-0.140441	1.832822	0.461692	99
Es	-1.191197	0.018192	0.134184	99
Es	0.230775	1.246363	0.230605	99
Es	-2.062707	0.464388	0.276060	99
Es	1.666334	1.483334	-0.026092	99
Es	2.173573	2.578903	0.183228	99
Es	0.302083	-1.202977	-0.390669	99
Es	2.479812	2.592832	0.115533	99
Es	-0.173713	-1.885013	-0.107612	99
Es	-0.684816	-2.360135	-0.156773	99
Es	0.345028	-1.212864	-1.124738	99
Es	-0.456017	-2.333148	0.043085	99
Es	-2.015551	-0.470561	-0.046392	99
Es	-0.257812	-2.555626	0.100108	99
Es	-1.685490	-0.160665	0.595862	99
Es	0.062767	0.660783	0.447119	99
Es	-0.059145	-0.551387	-0.163189	99
Es	-0.670378	-2.172921	0.487453	99
Es	2.046176	2.112096	0.341559	99
Es	0.940431	1.337879	0.104370	99
Es	1.935236	2.248989	-0.128278	99
41
Properties=species:S:1:pos:R:3:Z:I:1 energy=-359.82181394010945 field_type=dipole dipole="0.000000 0.000000 0.000000" charge=0
N	-1.765816	-0.057987	0.309720	7
C	-0.402326	0.072513	0.052960	6
C	0.302274	-1.202887	-0.390770	6
O	-0.456076	-2.333447	0.042890	8
C	0.230734	1.246373	0.230600	6
C	1.666374	1.483363	-0.026090	6
O	2.173654	2.579273	0.183320	8
H	-2.283776	0.818503	0.274930	1
H	-2.200596	-0.778547	-0.272430	1
H	1.299364	-1.297897	0.045350	1
H	0.372424	-1.242707	-1.481890	1
H	-0.886866	-2.052947	0.873640	1
H	-0.302536	2.124423	0.580860	1
H	2.253165	0.641973	-0.423090	1
Es	-1.686000	-0.160369	0.596452	99
Es	1.962578	2.782393	0.292726	99
Es	-0.456100	-2.333134	0.043034	99
Es	-2.015506	-0.470680	-0.046300	99
Es	-1.765491	-0.057786	0.309167	99
Es	-1.191206	0.018030	0.134405	99
Es	-0.257903	-2.555238	0.100513	99
Es	0.345001	-1.212828	-1.124757	99
Es	-0.173533	-1.885052	-0.107672	99
Es	2.173573	2.578919	0.183232	99
Es	0.940399	1.338015	0.104382	99
Es	0.980438	-1.242994	-0.096842	99
Es	-0.402509	0.072350	0.052969	99
Es	-2.062389	0.464334	0.275199	99
Es	2.046924	2.111271	0.341608	99
Es	-0.670472	-2.172803	0.487336	99
Es	-0.684759	-2.360611	-0.156932	99
Es	1.666334	1.483335	-0.026091	99
Es	2.479029	2.593407	0.115243	99
Es	0.302083	-1.202977	-0.390670	99
Es	-0.058948	-0.551462	-0.163166	99
Es	-0.140496	1.832781	0.461470	99
Es	2.059893	0.894231	-0.298669	99
Es	0.062642	0.660741	0.447200	99
Es	-0.050734	0.814833	-0.163142	99
Es	1.935554	2.249326	-0.128307	99
Es	0.230771	1.246368	0.230593	99
41
Properties=species:S:1:pos:R:3:Z:I:1 energy=-359.82181394010945 field_type=dipole dipole="0.000000 0.000000 0.000000" charge=0
N	-1.765816	-0.057987	0.309720	7
C	-0.402326	0.072513	0.052960	6
C	0.302274	-1.202887	-0.390770	6
O	-0.456076	-2.333447	0.042890	8
C	0.230734	1.246373	0.230600	6
C	1.666374	1.483363	-0.026090	6
O	2.173654	2.579273	0.183320	8
H	-2.283776	0.818503	0.274930	1
H	-2.200596	-0.778547	-0.272430	1
H	1.299364	-1.297897	0.045350	1
H	0.372424	-1.242707	-1.481890	1
H	-0.886866	-2.052947	0.873640	1
H	-0.302536	2.124423	0.580860	1
H	2.253165	0.641973	-0.423090	1
Es	1.666334	1.483335	-0.026091	99
Es	-0.050699	0.814608	-0.163220	99
Es	-0.670709	-2.172710	0.487083	99
Es	-0.059000	-0.551493	-0.163234	99
Es	0.062822	0.660793	0.447374	99
Es	2.059944	0.894247	-0.298687	99
Es	-1.191049	0.018278	0.134043	99
Es	1.933229	2.250231	-0.127703	99
Es	-0.173498	-1.884972	-0.107775	99
Es	-1.765600	-0.057792	0.309206	99
Es	2.173566	2.579083	0.183293	99
Es	-0.257870	-2.554679	0.101139	99
Es	-0.402505	0.072346	0.052969	99
Es	2.047203	2.111337	0.340848	99
Es	0.940304	1.337999	0.104524	99
Es	-0.684647	-2.361376	-0.157146	99
Es	-0.140518	1.832826	0.461265	99
Es	-2.015615	-0.470628	-0.046055	99
Es	-1.685659	-0.160436	0.595993	99
Es	-0.456049	-2.333147	0.043045	99
Es	0.230774	1.246367	0.230602	99
Es	1.964952	2.784163	0.294881	99
Es	2.478645	2.590542	0.113153	99
Es	0.980360	-1.242934	-0.096843	99
Es	0.302084	-1.202977	-0.390671	99
Es	-2.062694	0.464257	0.275744	99
Es	0.345066	-1.212868	-1.124756	99
41
Properties=species:S:1:pos:R:3:Z:I:1 energy=-359.82181394010945 field_type=dipole dipole="0.000000 0.000000 0.000000" charge=0
N	-1.765816	-0.057987	0.309720	7
C	-0.402326	0.072513	0.052960	6
C	0.302274	-1.202887	-0.390770	6
O	-0.456076	-2.333447	0.042890	8
C	0.230734	1.246373	0.230600	6
C	1.666374	1.483363	-0.026090	6
O	2.173654	2.579273	0.183320	8
H	-2.283776	0.818503	0.274930	1
H	-2.200596	-0.778547	-0.272430	1
H	1.299364	-1.297897	0.045350	1
H	0.372424	-1.242707	-1.481890	1
H	-0.886866	-2.052947	0.873640	1
H	-0.302536	2.124423	0.580860	1
H	2.253165	0.641973	-0.423090	1
Es	0.345041	-1.212875	-1.124706	99
Es	-0.456033	-2.333176	0.043043	99
Es	0.980368	-1.242938	-0.096930	99
Es	-0.058827	-0.551425	-0.163273	99
Es	-0.173042	-1.885056	-0.107957	99
Es	-0.050470	0.815156	-0.163173	99
Es	-0.684908	-2.360001	-0.156193	99
Es	-2.015738	-0.470651	-0.046110	99
Es	-0.402509	0.072347	0.052968	99
Es	-1.191870	0.018444	0.133341	99
Es	-1.684833	-0.160621	0.596617	99
Es	2.173477	2.578940	0.183264	99
Es	0.062464	0.660329	0.447092	99
Es	-2.062628	0.464248	0.275907	99
Es	1.964668	2.784405	0.292805	99
Es	1.934506	2.249752	-0.127714	99
Es	-0.140426	1.832736	0.461659	99
Es	0.230768	1.246355	0.230607	99
Es	-1.765586	-0.057800	0.309198	99
Es	2.059942	0.894251	-0.298706	99
Es	-0.670147	-2.172890	0.487356	99
Es	0.302085	-1.202976	-0.390671	99
Es	1.666333	1.483335	-0.026092	99
Es	0.940227	1.338044	0.104332	99
Es	-0.258636	-2.555789	0.100141	99
Es	2.478664	2.590857	0.114019	99
Es	2.046283	2.111398	0.342158	99
41
Properties=species:S:1:pos:R:3:Z:I:1 energy=-359.82181394010945 field_type=dipole dipole="0.000000 0.000000 0.000000" charge=0
N	-1.765816	-0.057987	0.309720	7
C	-0.402326	0.072513	0.052960	6
C	0.302274	-1.202887	-0.390770	6
O	-0.456076	-2.333447	0.042890	8
C	0.230734	1.246373	0.230600	6
C	1.666374	1.483363	-0.026090	6
O	2.173654	2.579273	0.183320	8
H	-2.283776	0.818503	0.274930	1
H	-2.200596	-0.778547	-0.272430	1
H	1.299364	-1.297897	0.045350	1
H	0.372424	-1.242707	-1.481890	1
H	-0.886866	-2.052947	0.873640	1
H	-0.302536	2.124423	0.580860	1
H	2.253165	0.641973	-0.423090	1
Es	-0.058696	-0.551425	-0.163178	99
Es	0.302086	-1.202976	-0.390671	99
Es	-2.015506	-0.470196	-0.046555	99
Es	-0.669889	-2.173158	0.487712	99
Es	0.230767	1.246365	0.230595	99
Es	-0.402508	0.072346	0.052968	99
Es	1.963919	2.784107	0.291824	99
Es	-2.062923	0.464303	0.276635	99
Es	-0.684945	-2.360310	-0.155972	99
Es	1.666334	1.483334	-0.026090	99
Es	-0.173235	-1.884949	-0.108293	99
Es	2.478699	2.591411	0.114913	99
Es	-1.685132	-0.161140	0.596008	99
Es	0.063336	0.661011	0.447271	99
Es	-0.051165	0.814269	-0.162908	99
Es	2.059953	0.894221	-0.298706	99
Es	2.173518	2.578994	0.183262	99
Es	-0.456041	-2.333135	0.043060	99
Es	-1.765594	-0.057798	0.309194	99
Es	0.344984	-1.212756	-1.124673	99
Es	-0.258674	-2.555429	0.099848	99
Es	-1.191531	0.018491	0.133655	99
Es	2.046061	2.111763	0.342562	99
Es	0.980371	-1.242993	-0.097051	99
Es	-0.140525	1.832754	0.461577	99
Es	1.935408	2.249067	-0.128027	99
Es	0.940103	1.338226	0.104019	99
41
Properties=species:S:1:pos:R:3:Z:I:1 energy=-359.82181394010945 field_type=dipole dipole="0.000000 0.000000 0.000000" charge=0
N	-1.765816	-0.057987	0.309720	7
C	-0.402326	0.072513	0.052960	6
C	0.302274	-1.202887	-0.390770	6
O	-0.456076	-2.333447	0.042890	8
C	0.230734	1.246373	0.230600	6
C	1.666374	1.483363	-0.026090	6
O	2.173654	2.579273	0.183320	8
H	-2.283776	0.818503	0.274930	1
H	-2.200596	-0.778547	-0.272430	1
H	1.299364	-1.297897	0.045350	1
H	0.372424	-1.242707	-1.481890	1
H	-0.886866	-2.052947	0.873640	1
H	-0.302536	2.124423	0.580860	1
H	2.253165	0.641973	-0.423090	1
Es	0.062656	0.660570	0.447114	99
Es	0.345078	-1.212817	-1.124656	99
Es	2.059996	0.894236	-0.298660	99
Es	0.230768	1.246364	0.230592	99
Es	-0.258056	-2.554097	0.100999	99
Es	2.047416	2.110812	0.341246	99
Es	-0.684151	-2.362092	-0.156403	99
Es	1.666332	1.483338	-0.026098	99
Es	2.173547	2.579103	0.183303	99
Es	1.934734	2.250064	-0.128512	99
Es	-0.050657	0.814812	-0.163118	99
Es	0.980313	-1.242964	-0.097009	99
Es	0.302084	-1.202975	-0.390671	99
Es	-0.140430	1.832823	0.461483	99
Es	-0.670795	-2.173010	0.487386	99
Es	-0.058656	-0.551435	-0.163273	99
Es	-2.015875	-0.470997	-0.045809	99
Es	-0.173753	-1.884645	-0.108639	99
Es	-0.456068	-2.333140	0.043039	99
Es	1.963490	2.782432	0.293815	99
Es	-2.062722	0.464276	0.275983	99
Es	-1.191806	0.018494	0.133442	99
Es	2.478387	2.592952	0.114665	99
Es	0.940120	1.338022	0.104396	99
Es	-1.684662	-0.160271	0.596194	99
Es	-1.765611	-0.057799	0.309205	99
Es	-0.402505	0.072346	0.052967	99
41
Properties=species:S:1:pos:R:3:Z:I:1 energy=-359.82181394010945 field_type=dipole dipole="0.000000 0.000000 0.000000" charge=0
N	-1.765816	-0.057987	0.309720	7
C	-0.402326	0.072513	0.052960	6
C	0.302274	-1.202887	-0.390770	6
O	-0.456076	-2.333447	0.042890	8
C	0.230734	1.246373	0.230600	6
C	1.666374	1.483363	-0.026090	6
O	2.173654	2.579273	0.183320	8
H	-2.283776	0.818503	0.274930	1
H	-2.200596	-0.778547	-0.272430	1
H	1.299364	-1.297897	0.045350	1
H	0.372424	-1.242707	-1.481890	1
H	-0.886866	-2.052947	0.873640	1
H	-0.302536	2.124423	0.580860	1
H	2.253165	0.641973	-0.423090	1
Es	-0.456051	-2.333163	0.043026	99
Es	-0.058587	-0.551407	-0.163337	99
Es	0.940091	1.338077	0.104523	99
Es	-1.192168	0.018784	0.132884	99
Es	0.230775	1.246369	0.230602	99
Es	-0.258856	-2.554421	0.100378	99
Es	1.666333	1.483328	-0.026094	99
Es	0.062711	0.660611	0.447072	99
Es	0.302086	-1.202978	-0.390672	99
Es	-0.050627	0.814680	-0.163081	99
Es	1.934427	2.250206	-0.127982	99
Es	2.478469	2.591047	0.114199	99
Es	0.345114	-1.212811	-1.124609	99
Es	0.980336	-1.243009	-0.096942	99
Es	-0.140493	1.832801	0.461431	99
Es	2.059989	0.894243	-0.298684	99
Es	-1.765585	-0.057804	0.309196	99
Es	-1.684346	-0.160672	0.596644	99
Es	-0.173201	-1.884566	-0.108614	99
Es	1.964833	2.784106	0.293166	99
Es	-0.670108	-2.173403	0.487588	99
Es	2.173540	2.578936	0.183245	99
Es	2.046314	2.111077	0.341867	99
Es	-0.402515	0.072348	0.052964	99
Es	-2.015795	-0.470689	-0.046004	99
Es	-0.684684	-2.361403	-0.156058	99
Es	-2.062829	0.464115	0.276272	99
41
Properties=species:S:1:pos:R:3:Z:I:1 energy=-359.82181394010945 field_type=dipole dipole="0.000000 0.000000 0.000000" charge=0
N	-1.765816	-0.057987	0.309720	7
C	-0.402326	0.072513	0.052960	6
C	0.302274	-1.202887	-0.390770	6
O	-0.456076	-2.333447	0.042890	8
C	0.230734	1.246373	0.230600	6
C	1.666374	1.483363	-0.026090	6
O	2.173654	2.579273	0.183320	8
H	-2.283776	0.818503	0.274930	1
H	-2.200596	-0.778547	-0.272430	1
H	1.299364	-1.297897	0.045350	1
H	0.372424	-1.242707	-1.481890	1
H	-0.886866	-2.052947	0.873640	1
H	-0.302536	2.124423	0.580860	1
H	2.253165	0.641973	-0.423090	1
Es	2.045803	2.111406	0.341968	99
Es	-2.062784	0.464094	0.275756	99
Es	-0.684120	-2.361955	-0.156150	99
Es	-0.258588	-2.553908	0.100758	99
Es	0.062340	0.660356	0.446950	99
Es	-0.058521	-0.551467	-0.163236	99
Es	0.302086	-1.202976	-0.390672	99
Es	-1.683497	-0.160067	0.597002	99
Es	0.345131	-1.212805	-1.124642	99
Es	-1.192676	0.018777	0.132034	99
Es	-0.402506	0.072346	0.052970	99
Es	0.940070	1.338060	0.104626	99
Es	-0.140380	1.832777	0.461517	99
Es	-0.173340	-1.884517	-0.108702	99
Es	-0.456071	-2.333249	0.042990	99
Es	-1.765675	-0.057835	0.309270	99
Es	2.478031	2.588521	0.113580	99
Es	0.230769	1.246366	0.230588	99
Es	2.060002	0.894217	-0.298716	99
Es	2.173470	2.578988	0.183277	99
Es	-0.670701	-2.173420	0.487499	99
Es	-2.016134	-0.471232	-0.045067	99
Es	1.666330	1.483333	-0.026099	99
Es	0.980265	-1.242886	-0.096976	99
Es	1.966739	2.785952	0.293692	99
Es	1.933505	2.250515	-0.127979	99
Es	-0.050376	0.815010	-0.163258	99
