39
Properties=species:S:1:pos:R:3:Z:I:1 energy=-338.7630997933982 field_type=dipole dipole="0.000000 0.000000 0.000000" charge=0
N	-1.431555	-1.493137	-0.974718	7
C	-0.381976	-1.570577	-0.230788	6
N	0.484304	-0.569077	0.151072	7
C	0.793794	0.455873	-0.860598	6
C	-0.102225	0.781603	0.286022	6
C	0.397655	1.584693	1.414022	6
O	0.438094	2.807303	1.351132	8
H	-1.854316	-2.424247	-1.065898	1
H	-0.076406	-2.540857	0.197922	1
H	0.355335	0.296263	-1.836848	1
H	1.824774	0.779643	-0.835038	1
H	-1.165056	0.856893	0.088652	1
H	0.717574	1.035623	2.315063	1
Es	0.544070	2.939843	1.611866	99
Es	0.501841	0.353137	-1.510475	99
Es	0.660349	2.344721	1.283766	99
Es	0.483836	-0.568841	0.150658	99
Es	-1.674125	-2.054432	-1.021008	99
Es	0.327898	0.838857	-0.334867	99
Es	-0.836625	-1.585487	-0.896114	99
Es	0.742502	-0.653547	0.387782	99
Es	0.081445	-0.977381	-0.042548	99
Es	1.486529	0.677013	-0.842425	99
Es	0.397648	1.584688	1.413992	99
Es	0.188744	2.367686	1.465357	99
Es	-0.799592	0.837901	0.170627	99
Es	0.438063	2.806961	1.351128	99
Es	-1.431316	-1.493521	-0.974469	99
Es	-0.381855	-1.570472	-0.230741	99
Es	-1.156926	-1.484530	-0.432180	99
Es	0.655052	-0.261123	-0.354086	99
Es	0.613246	1.201735	2.021027	99
Es	0.152277	1.158862	0.852138	99
Es	-0.171471	-2.231623	0.061544	99
Es	-1.567897	-1.190566	-1.134752	99
Es	0.793700	0.455728	-0.860362	99
Es	0.336264	2.912716	1.075837	99
Es	-0.102062	0.781372	0.285998	99
Es	0.140147	-0.065358	0.303593	99
39
Properties=species:S:1:pos:R:3:Z:I:1 energy=-338.7630997933982 field_type=dipole dipole="0.000000 0.000000 0.000000" charge=0
N	-1.431555	-1.493137	-0.974718	7
C	-0.381976	-1.570577	-0.230788	6
N	0.484304	-0.569077	0.151072	7
C	0.793794	0.455873	-0.860598	6
C	-0.102225	0.781603	0.286022	6
C	0.397655	1.584693	1.414022	6
O	0.438094	2.807303	1.351132	8
H	-1.854316	-2.424247	-1.065898	1
H	-0.076406	-2.540857	0.197922	1
H	0.355335	0.296263	-1.836848	1
H	1.824774	0.779643	-0.835038	1
H	-1.165056	0.856893	0.088652	1
H	0.717574	1.035623	2.315063	1
Es	0.793696	0.455729	-0.860356	99
Es	0.187423	2.368630	1.465260	99
Es	1.486449	0.676991	-0.842443	99
Es	0.397648	1.584689	1.413991	99
Es	-1.674202	-2.054561	-1.020923	99
Es	0.327785	0.839037	-0.334956	99
Es	0.338190	2.912479	1.074720	99
Es	-0.102059	0.781365	0.285999	99
Es	0.658493	2.343943	1.285076	99
Es	-1.156655	-1.484421	-0.432304	99
Es	-0.799542	0.837879	0.170803	99
Es	0.483838	-0.568834	0.150656	99
Es	-0.381865	-1.570470	-0.230732	99
Es	-1.431310	-1.493509	-0.974469	99
Es	-1.567962	-1.190635	-1.134577	99
Es	-0.836758	-1.585401	-0.896186	99
Es	-0.171544	-2.231677	0.061515	99
Es	0.545150	2.939957	1.611698	99
Es	0.081730	-0.977483	-0.042231	99
Es	0.655068	-0.261295	-0.354419	99
Es	0.152363	1.158791	0.852027	99
Es	0.140123	-0.065377	0.304180	99
Es	0.742385	-0.653453	0.387125	99
Es	0.438107	2.806919	1.351223	99
Es	0.501865	0.353239	-1.510435	99
Es	0.613326	1.201806	2.021044	99
39
Properties=species:S:1:pos:R:3:Z:I:1 energy=-338.7630997933982 field_type=dipole dipole="0.000000 0.000000 0.000000" charge=0
N	-1.431555	-1.493137	-0.974718	7
C	-0.381976	-1.570577	-0.230788	6
N	0.484304	-0.569077	0.151072	7
C	0.793794	0.455873	-0.860598	6
C	-0.102225	0.781603	0.286022	6
C	0.397655	1.584693	1.414022	6
O	0.438094	2.807303	1.351132	8
H	-1.854316	-2.424247	-1.065898	1
H	-0.076406	-2.540857	0.197922	1
H	0.355335	0.296263	-1.836848	1
H	1.824774	0.779643	-0.835038	1
H	-1.165056	0.856893	0.088652	1
H	0.717574	1.035623	2.315063	1
Es	-0.799436	0.837933	0.170761	99
Es	0.081893	-0.977434	-0.042077	99
Es	0.501961	0.353269	-1.510363	99
Es	0.397645	1.584691	1.413992	99
Es	0.188011	2.367704	1.464519	99
Es	0.152139	1.158751	0.851970	99
Es	0.741790	-0.653422	0.387027	99
Es	0.139852	-0.065219	0.304433	99
Es	0.655650	-0.261731	-0.354540	99
Es	0.337834	2.915481	1.075104	99
Es	-1.155661	-1.484556	-0.432146	99
Es	0.327905	0.839363	-0.334998	99
Es	-0.836950	-1.585845	-0.897347	99
Es	0.793699	0.455730	-0.860362	99
Es	-0.381867	-1.570472	-0.230733	99
Es	0.438094	2.807021	1.351155	99
Es	-1.567887	-1.190565	-1.133664	99
Es	-1.431344	-1.493489	-0.974493	99
Es	0.544265	2.936954	1.612560	99
Es	-0.102058	0.781370	0.285993	99
Es	-1.674812	-2.054185	-1.021102	99
Es	-0.171708	-2.231604	0.061730	99
Es	0.483853	-0.568841	0.150669	99
Es	1.486349	0.676907	-0.842499	99
Es	0.659281	2.344755	1.284599	99
Es	0.613243	1.201771	2.021097	99
39
Properties=species:S:1:pos:R:3:Z:I:1 energy=-338.7630997933982 field_type=dipole dipole="0.000000 0.000000 0.000000" charge=0
N	-1.431555	-1.493137	-0.974718	7
C	-0.381976	-1.570577	-0.230788	6
N	0.484304	-0.569077	0.151072	7
C	0.793794	0.455873	-0.860598	6
C	-0.102225	0.781603	0.286022	6
C	0.397655	1.584693	1.414022	6
O	0.438094	2.807303	1.351132	8
H	-1.854316	-2.424247	-1.065898	1
H	-0.076406	-2.540857	0.197922	1
H	0.355335	0.296263	-1.836848	1
H	1.824774	0.779643	-0.835038	1
H	-1.165056	0.856893	0.088652	1
H	0.717574	1.035623	2.315063	1
Es	0.327689	0.839751	-0.335015	99
Es	-0.171565	-2.231750	0.061553	99
Es	-1.674672	-2.054406	-1.021344	99
Es	0.793699	0.455736	-0.860363	99
Es	0.140091	-0.064866	0.304517	99
Es	0.544491	2.940107	1.611498	99
Es	0.502112	0.353244	-1.510317	99
Es	-0.381876	-1.570474	-0.230736	99
Es	-0.799342	0.837888	0.170887	99
Es	0.438083	2.807009	1.351156	99
Es	-1.431312	-1.493509	-0.974467	99
Es	-1.567657	-1.190894	-1.133946	99
Es	0.741025	-0.653674	0.386879	99
Es	0.483831	-0.568842	0.150658	99
Es	1.486231	0.676870	-0.842504	99
Es	-1.156551	-1.484462	-0.432217	99
Es	-0.836580	-1.585280	-0.896537	99
Es	-0.102060	0.781368	0.285994	99
Es	0.656501	-0.262348	-0.354764	99
Es	0.152042	1.158693	0.851942	99
Es	0.613226	1.201784	2.021127	99
Es	0.397647	1.584689	1.413991	99
Es	0.188364	2.367486	1.465570	99
Es	0.081732	-0.977096	-0.041981	99
Es	0.336954	2.912331	1.075236	99
Es	0.659636	2.344980	1.284469	99
39
Properties=species:S:1:pos:R:3:Z:I:1 energy=-338.7630997933982 field_type=dipole dipole="0.000000 0.000000 0.000000" charge=0
N	-1.431555	-1.493137	-0.974718	7
C	-0.381976	-1.570577	-0.230788	6
N	0.484304	-0.569077	0.151072	7
C	0.793794	0.455873	-0.860598	6
C	-0.102225	0.781603	0.286022	6
C	0.397655	1.584693	1.414022	6
O	0.438094	2.807303	1.351132	8
H	-1.854316	-2.424247	-1.065898	1
H	-0.076406	-2.540857	0.197922	1
H	0.355335	0.296263	-1.836848	1
H	1.824774	0.779643	-0.835038	1
H	-1.165056	0.856893	0.088652	1
H	0.717574	1.035623	2.315063	1
Es	0.741240	-0.653496	0.386217	99
Es	-0.381870	-1.570471	-0.230729	99
Es	-0.799255	0.837936	0.170974	99
Es	-1.674885	-2.054375	-1.021324	99
Es	0.139650	-0.065417	0.305449	99
Es	0.659150	2.344726	1.283394	99
Es	0.082376	-0.977358	-0.041880	99
Es	1.486217	0.676941	-0.842580	99
Es	0.613287	1.201826	2.021127	99
Es	-0.836559	-1.585344	-0.896618	99
Es	0.397644	1.584687	1.413992	99
Es	-1.431310	-1.493511	-0.974467	99
Es	0.483839	-0.568838	0.150659	99
Es	-1.156585	-1.484109	-0.432122	99
Es	-0.102061	0.781371	0.285995	99
Es	0.656089	-0.261856	-0.354781	99
Es	0.502089	0.353207	-1.510254	99
Es	0.187709	2.367662	1.464381	99
Es	0.337680	2.915193	1.076269	99
Es	0.152006	1.158619	0.851829	99
Es	0.793698	0.455733	-0.860362	99
Es	0.327800	0.839844	-0.335321	99
Es	0.438086	2.807071	1.351133	99
Es	-0.171719	-2.231744	0.061563	99
Es	-1.567408	-1.191225	-1.134004	99
Es	0.544831	2.937266	1.612745	99
39
Properties=species:S:1:pos:R:3:Z:I:1 energy=-338.7630997933982 field_type=dipole dipole="0.000000 0.000000 0.000000" charge=0
N	-1.431555	-1.493137	-0.974718	7
C	-0.381976	-1.570577	-0.230788	6
N	0.484304	-0.569077	0.151072	7
C	0.793794	0.455873	-0.860598	6
C	-0.102225	0.781603	0.286022	6
C	0.397655	1.584693	1.414022	6
O	0.438094	2.807303	1.351132	8
H	-1.854316	-2.424247	-1.065898	1
H	-0.076406	-2.540857	0.197922	1
H	0.355335	0.296263	-1.836848	1
H	1.824774	0.779643	-0.835038	1
H	-1.165056	0.856893	0.088652	1
H	0.717574	1.035623	2.315063	1
Es	0.793701	0.455727	-0.860363	99
Es	-0.171638	-2.231760	0.061584	99
Es	0.337467	2.912869	1.075421	99
Es	0.397644	1.584695	1.413992	99
Es	-1.567322	-1.191490	-1.133883	99
Es	-1.431315	-1.493513	-0.974468	99
Es	0.438079	2.806984	1.351152	99
Es	-0.799204	0.837855	0.171020	99
Es	0.659023	2.344384	1.284384	99
Es	0.483843	-0.568843	0.150662	99
Es	-1.675022	-2.054400	-1.021321	99
Es	0.656218	-0.261680	-0.354843	99
Es	-0.836374	-1.585244	-0.896707	99
Es	0.151915	1.158747	0.851704	99
Es	-0.102055	0.781365	0.285991	99
Es	0.187665	2.368114	1.465886	99
Es	0.502162	0.353250	-1.510165	99
Es	-0.381866	-1.570473	-0.230736	99
Es	1.486155	0.676852	-0.842638	99
Es	-1.156694	-1.483986	-0.432120	99
Es	0.613359	1.201735	2.021131	99
Es	0.139662	-0.065652	0.306021	99
Es	0.545149	2.939555	1.611151	99
Es	0.082454	-0.977339	-0.041999	99
Es	0.741020	-0.653569	0.385772	99
Es	0.327715	0.840152	-0.335343	99
39
Properties=species:S:1:pos:R:3:Z:I:1 energy=-338.7630997933982 field_type=dipole dipole="0.000000 0.000000 0.000000" charge=0
N	-1.431555	-1.493137	-0.974718	7
C	-0.381976	-1.570577	-0.230788	6
N	0.484304	-0.569077	0.151072	7
C	0.793794	0.455873	-0.860598	6
C	-0.102225	0.781603	0.286022	6
C	0.397655	1.584693	1.414022	6
O	0.438094	2.807303	1.351132	8
H	-1.854316	-2.424247	-1.065898	1
H	-0.076406	-2.540857	0.197922	1
H	0.355335	0.296263	-1.836848	1
H	1.824774	0.779643	-0.835038	1
H	-1.165056	0.856893	0.088652	1
H	0.717574	1.035623	2.315063	1
Es	0.397646	1.584688	1.413992	99
Es	0.659580	2.344818	1.284102	99
Es	-1.431342	-1.493487	-0.974495	99
Es	-0.381863	-1.570473	-0.230739	99
Es	0.793696	0.455727	-0.860356	99
Es	-0.171659	-2.231810	0.061565	99
Es	0.327756	0.840341	-0.335321	99
Es	0.139487	-0.064905	0.305628	99
Es	0.438064	2.806957	1.351106	99
Es	0.739621	-0.653070	0.385880	99
Es	0.082581	-0.977547	-0.041548	99
Es	-0.836337	-1.585118	-0.896665	99
Es	-0.799138	0.838027	0.170998	99
Es	0.337209	2.913794	1.075716	99
Es	0.613328	1.201771	2.021138	99
Es	0.188031	2.367619	1.465490	99
Es	-1.156849	-1.483885	-0.431960	99
Es	-0.102059	0.781368	0.285993	99
Es	0.151851	1.158615	0.851688	99
Es	0.502252	0.353313	-1.510130	99
Es	-1.566835	-1.191772	-1.133609	99
Es	0.544585	2.938721	1.611542	99
Es	0.657595	-0.262942	-0.355034	99
Es	-1.675365	-2.054352	-1.021728	99
Es	1.486073	0.676784	-0.842628	99
Es	0.483833	-0.568847	0.150661	99
39
Properties=species:S:1:pos:R:3:Z:I:1 energy=-338.7630997933982 field_type=dipole dipole="0.000000 0.000000 0.000000" charge=0
N	-1.431555	-1.493137	-0.974718	7
C	-0.381976	-1.570577	-0.230788	6
N	0.484304	-0.569077	0.151072	7
C	0.793794	0.455873	-0.860598	6
C	-0.102225	0.781603	0.286022	6
C	0.397655	1.584693	1.414022	6
O	0.438094	2.807303	1.351132	8
H	-1.854316	-2.424247	-1.065898	1
H	-0.076406	-2.540857	0.197922	1
H	0.355335	0.296263	-1.836848	1
H	1.824774	0.779643	-0.835038	1
H	-1.165056	0.856893	0.088652	1
H	0.717574	1.035623	2.315063	1
Es	-0.171667	-2.231832	0.061586	99
Es	0.139396	-0.065332	0.306398	99
Es	-1.431315	-1.493512	-0.974470	99
Es	-0.836445	-1.585190	-0.896575	99
Es	-1.675285	-2.054368	-1.021642	99
Es	0.082719	-0.977347	-0.041570	99
Es	-0.799048	0.838020	0.171020	99
Es	0.337221	2.913266	1.075656	99
Es	0.659383	2.344535	1.284240	99
Es	0.327737	0.840586	-0.335384	99
Es	1.485990	0.676787	-0.842669	99
Es	0.483849	-0.568838	0.150666	99
Es	0.613310	1.201824	2.021191	99
Es	-0.102060	0.781363	0.285993	99
Es	-0.381866	-1.570472	-0.230736	99
Es	0.397643	1.584690	1.413993	99
Es	0.438065	2.806971	1.351102	99
Es	0.187992	2.367920	1.465702	99
Es	-1.156620	-1.484075	-0.432131	99
Es	0.793696	0.455730	-0.860358	99
Es	0.151769	1.158506	0.851624	99
Es	0.657159	-0.262514	-0.355240	99
Es	0.544786	2.939213	1.611256	99
Es	0.740023	-0.653324	0.385329	99
Es	0.502332	0.353264	-1.510077	99
Es	-1.567023	-1.191535	-1.133615	99
39
Properties=species:S:1:pos:R:3:Z:I:1 energy=-338.7630997933982 field_type=dipole dipole="0.000000 0.000000 0.000000" charge=0
N	-1.431555	-1.493137	-0.974718	7
C	-0.381976	-1.570577	-0.230788	6
N	0.484304	-0.569077	0.151072	7
C	0.793794	0.455873	-0.860598	6
C	-0.102225	0.781603	0.286022	6
C	0.397655	1.584693	1.414022	6
O	0.438094	2.807303	1.351132	8
H	-1.854316	-2.424247	-1.065898	1
H	-0.076406	-2.540857	0.197922	1
H	0.355335	0.296263	-1.836848	1
H	1.824774	0.779643	-0.835038	1
H	-1.165056	0.856893	0.088652	1
H	0.717574	1.035623	2.315063	1
Es	-0.381868	-1.570472	-0.230734	99
Es	0.397646	1.584687	1.413992	99
Es	0.082799	-0.977166	-0.041494	99
Es	0.327681	0.840817	-0.335492	99
Es	0.793697	0.455728	-0.860359	99
Es	0.739971	-0.653465	0.385088	99
Es	-1.156583	-1.484026	-0.432129	99
Es	0.139494	-0.065530	0.306774	99
Es	0.659510	2.344907	1.283645	99
Es	0.483831	-0.568842	0.150657	99
Es	0.335406	2.910585	1.075733	99
Es	0.657143	-0.262459	-0.355362	99
Es	-0.171673	-2.231853	0.061582	99
Es	0.502332	0.353292	-1.510033	99
Es	-1.675425	-2.054349	-1.021689	99
Es	-1.431314	-1.493513	-0.974469	99
Es	-1.566905	-1.191620	-1.133543	99
Es	0.151701	1.158552	0.851517	99
Es	-0.836448	-1.585194	-0.896588	99
Es	0.438082	2.806977	1.351169	99
Es	0.189064	2.367576	1.467231	99
Es	-0.799000	0.837924	0.171144	99
Es	0.545423	2.941853	1.610152	99
Es	1.485953	0.676727	-0.842729	99
Es	0.613285	1.201836	2.021227	99
Es	-0.102060	0.781364	0.285995	99
39
Properties=species:S:1:pos:R:3:Z:I:1 energy=-338.7630997933982 field_type=dipole dipole="0.000000 0.000000 0.000000" charge=0
N	-1.431555	-1.493137	-0.974718	7
C	-0.381976	-1.570577	-0.230788	6
N	0.484304	-0.569077	0.151072	7
C	0.793794	0.455873	-0.860598	6
C	-0.102225	0.781603	0.286022	6
C	0.397655	1.584693	1.414022	6
O	0.438094	2.807303	1.351132	8
H	-1.854316	-2.424247	-1.065898	1
H	-0.076406	-2.540857	0.197922	1
H	0.355335	0.296263	-1.836848	1
H	1.824774	0.779643	-0.835038	1
H	-1.165056	0.856893	0.088652	1
H	0.717574	1.035623	2.315063	1
Es	0.139332	-0.065355	0.307105	99
Es	-0.171757	-2.231876	0.061644	99
Es	0.083015	-0.977309	-0.041269	99
Es	0.739518	-0.653274	0.384556	99
Es	0.793695	0.455729	-0.860356	99
Es	0.327655	0.841180	-0.335566	99
Es	0.502405	0.353257	-1.509939	99
Es	0.397645	1.584689	1.413992	99
Es	0.545010	2.939014	1.611251	99
Es	-1.675604	-2.054354	-1.021856	99
Es	-1.431334	-1.493492	-0.974487	99
Es	0.657486	-0.262855	-0.355483	99
Es	0.188181	2.367253	1.465808	99
Es	-0.836354	-1.585037	-0.896844	99
Es	0.336525	2.913544	1.076699	99
Es	0.438084	2.806965	1.351148	99
Es	-1.566788	-1.191931	-1.133189	99
Es	1.485884	0.676707	-0.842795	99
Es	-1.156523	-1.483904	-0.432103	99
Es	-0.798886	0.838003	0.171244	99
Es	0.613277	1.201842	2.021258	99
Es	-0.102059	0.781367	0.285991	99
Es	0.483890	-0.568837	0.150695	99
Es	0.151606	1.158369	0.851505	99
Es	-0.381868	-1.570474	-0.230733	99
Es	0.659706	2.345116	1.283011	99
39
Properties=species:S:1:pos:R:3:Z:I:1 energy=-338.7630997933982 field_type=dipole dipole="0.000000 0.000000 0.000000" charge=0
N	-1.431555	-1.493137	-0.974718	7
C	-0.381976	-1.570577	-0.230788	6
N	0.484304	-0.569077	0.151072	7
C	0.793794	0.455873	-0.860598	6
C	-0.102225	0.781603	0.286022	6
C	0.397655	1.584693	1.414022	6
O	0.438094	2.807303	1.351132	8
H	-1.854316	-2.424247	-1.065898	1
H	-0.076406	-2.540857	0.197922	1
H	0.355335	0.296263	-1.836848	1
H	1.824774	0.779643	-0.835038	1
H	-1.165056	0.856893	0.088652	1
H	0.717574	1.035623	2.315063	1
Es	-1.675902	-2.054373	-1.021793	99
Es	0.188066	2.367844	1.465888	99
Es	0.502484	0.353298	-1.509885	99
Es	-0.836388	-1.585119	-0.896601	99
Es	0.438079	2.806968	1.351144	99
Es	0.659533	2.344588	1.284108	99
Es	-0.381871	-1.570473	-0.230737	99
Es	-1.156522	-1.483776	-0.432254	99
Es	0.613335	1.201872	2.021247	99
Es	0.657718	-0.262889	-0.355666	99
Es	-1.431337	-1.493486	-0.974490	99
Es	0.793698	0.455734	-0.860362	99
Es	-0.102057	0.781367	0.285990	99
Es	0.083199	-0.977419	-0.041058	99
Es	0.544723	2.939670	1.610944	99
Es	1.485791	0.676683	-0.842805	99
Es	0.483895	-0.568882	0.150723	99
Es	0.739140	-0.653071	0.384135	99
Es	0.337001	2.912825	1.075892	99
Es	0.327573	0.841357	-0.335659	99
Es	-0.171740	-2.231939	0.061585	99
Es	0.139319	-0.065526	0.307504	99
Es	-0.798827	0.837992	0.171324	99
Es	-1.566458	-1.191949	-1.133269	99
Es	0.151638	1.158353	0.851394	99
Es	0.397652	1.584688	1.413989	99
