42
Properties=species:S:1:pos:R:3:Z:I:1 energy=-339.9629047022658 field_type=dipole dipole="0.000000 0.000000 0.000000" charge=0
N	-1.420490	-1.047130	-1.148621	7
C	-1.058010	0.244580	-0.906721	6
N	-1.206290	1.169640	-1.793531	7
C	-0.420810	0.590150	0.425689	6
C	1.032700	0.244430	0.429329	6
C	1.736730	-0.159970	1.696369	6
O	1.320460	-1.129530	0.721229	8
H	-0.942400	-1.739500	-0.575581	1
H	-1.471360	-1.324230	-2.120031	1
H	-1.659940	0.779740	-2.621271	1
H	-0.959500	0.053700	1.217339	1
H	-0.542280	1.663060	0.614439	1
H	1.597780	0.738650	-0.349631	1
H	1.195730	-0.125990	2.632909	1
H	2.797690	0.042400	1.778089	1
Es	-1.206402	1.169137	-1.793537	99
Es	-0.493315	1.304663	0.548352	99
Es	-1.420010	-1.046998	-1.148752	99
Es	1.032728	0.244122	0.429427	99
Es	-1.477350	0.911105	-2.297888	99
Es	1.174309	-0.643496	0.510875	99
Es	-1.192111	-0.515865	-1.069479	99
Es	-1.407139	0.853526	-1.346910	99
Es	-0.740469	0.397816	-0.237949	99
Es	1.368047	-0.146319	2.333661	99
Es	1.417599	0.567979	-0.102313	99
Es	-0.420803	0.590104	0.425628	99
Es	1.054241	-1.259558	0.817394	99
Es	-1.432489	-1.200484	-1.729607	99
Es	1.320550	-1.129201	0.721284	99
Es	1.736628	-0.160175	1.696141	99
Es	-1.058028	0.244413	-0.906638	99
Es	-1.122531	1.526970	-1.763900	99
Es	-1.123635	-1.449962	-0.817427	99
Es	-0.777221	0.219092	0.957486	99
Es	1.388827	0.274699	1.138207	99
Es	1.565720	-1.228365	0.561055	99
Es	-1.686382	-0.959953	-1.030748	99
Es	2.458678	-0.032598	1.752930	99
Es	-0.890296	0.749909	-1.557871	99
Es	0.293486	0.407873	0.422879	99
Es	1.517312	-0.843040	1.155875	99
42
Properties=species:S:1:pos:R:3:Z:I:1 energy=-339.9629047022658 field_type=dipole dipole="0.000000 0.000000 0.000000" charge=0
N	-1.420490	-1.047130	-1.148621	7
C	-1.058010	0.244580	-0.906721	6
N	-1.206290	1.169640	-1.793531	7
C	-0.420810	0.590150	0.425689	6
C	1.032700	0.244430	0.429329	6
C	1.736730	-0.159970	1.696369	6
O	1.320460	-1.129530	0.721229	8
H	-0.942400	-1.739500	-0.575581	1
H	-1.471360	-1.324230	-2.120031	1
H	-1.659940	0.779740	-2.621271	1
H	-0.959500	0.053700	1.217339	1
H	-0.542280	1.663060	0.614439	1
H	1.597780	0.738650	-0.349631	1
H	1.195730	-0.125990	2.632909	1
H	2.797690	0.042400	1.778089	1
Es	-1.124274	-1.450262	-0.817013	99
Es	1.736627	-0.160166	1.696141	99
Es	1.517306	-0.843597	1.156691	99
Es	1.368151	-0.146382	2.333599	99
Es	1.173879	-0.643271	0.509998	99
Es	-1.419889	-1.046949	-1.148763	99
Es	1.565283	-1.227778	0.561798	99
Es	-0.890419	0.750122	-1.558232	99
Es	1.055271	-1.259900	0.816605	99
Es	-1.685157	-0.959157	-1.030750	99
Es	-0.493318	1.304708	0.548356	99
Es	-0.740317	0.397889	-0.237897	99
Es	-0.420803	0.590104	0.425629	99
Es	-1.407198	0.853679	-1.346206	99
Es	-1.477654	0.911338	-2.298012	99
Es	1.388953	0.274963	1.138204	99
Es	-1.433638	-1.200911	-1.729763	99
Es	-1.206402	1.169138	-1.793545	99
Es	-0.777277	0.218973	0.957493	99
Es	2.458595	-0.032639	1.752979	99
Es	-1.058025	0.244416	-0.906641	99
Es	1.032727	0.244129	0.429426	99
Es	-1.122063	1.526331	-1.764121	99
Es	1.320393	-1.129236	0.721350	99
Es	-1.191685	-0.515986	-1.069765	99
Es	0.293410	0.407979	0.422928	99
Es	1.417466	0.567858	-0.102310	99
42
Properties=species:S:1:pos:R:3:Z:I:1 energy=-339.9629047022658 field_type=dipole dipole="0.000000 0.000000 0.000000" charge=0
N	-1.420490	-1.047130	-1.148621	7
C	-1.058010	0.244580	-0.906721	6
N	-1.206290	1.169640	-1.793531	7
C	-0.420810	0.590150	0.425689	6
C	1.032700	0.244430	0.429329	6
C	1.736730	-0.159970	1.696369	6
O	1.320460	-1.129530	0.721229	8
H	-0.942400	-1.739500	-0.575581	1
H	-1.471360	-1.324230	-2.120031	1
H	-1.659940	0.779740	-2.621271	1
H	-0.959500	0.053700	1.217339	1
H	-0.542280	1.663060	0.614439	1
H	1.597780	0.738650	-0.349631	1
H	1.195730	-0.125990	2.632909	1
H	2.797690	0.042400	1.778089	1
Es	1.565233	-1.227595	0.562929	99
Es	1.517025	-0.842724	1.156677	99
Es	1.320507	-1.129196	0.721309	99
Es	-1.407411	0.854079	-1.346490	99
Es	2.458495	-0.032721	1.752985	99
Es	-0.740270	0.397898	-0.237914	99
Es	1.055553	-1.260418	0.816721	99
Es	-1.419883	-1.046973	-1.148782	99
Es	1.389000	0.275216	1.138363	99
Es	-0.777323	0.219133	0.957509	99
Es	-1.432472	-1.200660	-1.729370	99
Es	1.368238	-0.146398	2.333602	99
Es	-1.688184	-0.957763	-1.029757	99
Es	-0.420803	0.590104	0.425631	99
Es	-1.124053	-1.450082	-0.817295	99
Es	1.417453	0.567810	-0.102224	99
Es	-1.477482	0.911266	-2.298078	99
Es	-1.058028	0.244414	-0.906640	99
Es	-0.493303	1.304637	0.548263	99
Es	-1.121812	1.526256	-1.764258	99
Es	-1.206378	1.169174	-1.793528	99
Es	1.032730	0.244129	0.429430	99
Es	-1.190049	-0.517815	-1.070863	99
Es	1.173755	-0.643954	0.508678	99
Es	1.736627	-0.160169	1.696139	99
Es	0.293518	0.407952	0.422892	99
Es	-0.890739	0.749796	-1.557752	99
42
Properties=species:S:1:pos:R:3:Z:I:1 energy=-339.9629047022658 field_type=dipole dipole="0.000000 0.000000 0.000000" charge=0
N	-1.420490	-1.047130	-1.148621	7
C	-1.058010	0.244580	-0.906721	6
N	-1.206290	1.169640	-1.793531	7
C	-0.420810	0.590150	0.425689	6
C	1.032700	0.244430	0.429329	6
C	1.736730	-0.159970	1.696369	6
O	1.320460	-1.129530	0.721229	8
H	-0.942400	-1.739500	-0.575581	1
H	-1.471360	-1.324230	-2.120031	1
H	-1.659940	0.779740	-2.621271	1
H	-0.959500	0.053700	1.217339	1
H	-0.542280	1.663060	0.614439	1
H	1.597780	0.738650	-0.349631	1
H	1.195730	-0.125990	2.632909	1
H	2.797690	0.042400	1.778089	1
Es	-1.058038	0.244422	-0.906640	99
Es	2.458422	-0.032795	1.753066	99
Es	-1.419979	-1.047017	-1.148762	99
Es	-1.477533	0.911467	-2.298260	99
Es	1.173738	-0.643321	0.509358	99
Es	1.368297	-0.146405	2.333516	99
Es	-1.121253	1.525963	-1.764276	99
Es	1.517626	-0.844110	1.157322	99
Es	-0.493324	1.304676	0.548345	99
Es	-1.206403	1.169136	-1.793546	99
Es	1.032727	0.244125	0.429422	99
Es	1.564434	-1.227536	0.562301	99
Es	-0.777321	0.219101	0.957411	99
Es	-1.407692	0.854857	-1.346906	99
Es	-1.433476	-1.201007	-1.729532	99
Es	-0.740147	0.397971	-0.237889	99
Es	-1.189943	-0.517559	-1.070934	99
Es	-1.124697	-1.450457	-0.816807	99
Es	-0.891032	0.749112	-1.557101	99
Es	1.388993	0.275597	1.138294	99
Es	1.055918	-1.259921	0.816111	99
Es	1.736627	-0.160164	1.696137	99
Es	1.417357	0.567762	-0.102229	99
Es	0.293549	0.407898	0.422909	99
Es	1.320434	-1.129233	0.721331	99
Es	-0.420804	0.590100	0.425626	99
Es	-1.686538	-0.957268	-1.030089	99
42
Properties=species:S:1:pos:R:3:Z:I:1 energy=-339.9629047022658 field_type=dipole dipole="0.000000 0.000000 0.000000" charge=0
N	-1.420490	-1.047130	-1.148621	7
C	-1.058010	0.244580	-0.906721	6
N	-1.206290	1.169640	-1.793531	7
C	-0.420810	0.590150	0.425689	6
C	1.032700	0.244430	0.429329	6
C	1.736730	-0.159970	1.696369	6
O	1.320460	-1.129530	0.721229	8
H	-0.942400	-1.739500	-0.575581	1
H	-1.471360	-1.324230	-2.120031	1
H	-1.659940	0.779740	-2.621271	1
H	-0.959500	0.053700	1.217339	1
H	-0.542280	1.663060	0.614439	1
H	1.597780	0.738650	-0.349631	1
H	1.195730	-0.125990	2.632909	1
H	2.797690	0.042400	1.778089	1
Es	-1.206405	1.169144	-1.793549	99
Es	-0.777224	0.219060	0.957475	99
Es	-1.419930	-1.046968	-1.148769	99
Es	1.173847	-0.643172	0.509048	99
Es	1.563517	-1.227849	0.562325	99
Es	1.032728	0.244136	0.429432	99
Es	-0.740281	0.398007	-0.237782	99
Es	-1.687618	-0.956565	-1.029816	99
Es	-1.477337	0.911509	-2.298450	99
Es	-0.890549	0.749906	-1.557498	99
Es	-1.124842	-1.450523	-0.816792	99
Es	0.293483	0.407880	0.422692	99
Es	-1.433046	-1.200901	-1.729405	99
Es	1.056001	-1.259414	0.816130	99
Es	-1.189252	-0.518331	-1.071383	99
Es	1.736627	-0.160172	1.696139	99
Es	2.458353	-0.032838	1.753040	99
Es	1.368404	-0.146439	2.333520	99
Es	1.389017	0.275807	1.138377	99
Es	1.320437	-1.129240	0.721326	99
Es	-1.407628	0.854293	-1.346445	99
Es	1.518313	-0.844507	1.157556	99
Es	1.417317	0.567682	-0.102189	99
Es	-0.420803	0.590105	0.425632	99
Es	-0.493245	1.304731	0.548380	99
Es	-1.058030	0.244415	-0.906639	99
Es	-1.121913	1.525636	-1.764177	99
42
Properties=species:S:1:pos:R:3:Z:I:1 energy=-339.9629047022658 field_type=dipole dipole="0.000000 0.000000 0.000000" charge=0
N	-1.420490	-1.047130	-1.148621	7
C	-1.058010	0.244580	-0.906721	6
N	-1.206290	1.169640	-1.793531	7
C	-0.420810	0.590150	0.425689	6
C	1.032700	0.244430	0.429329	6
C	1.736730	-0.159970	1.696369	6
O	1.320460	-1.129530	0.721229	8
H	-0.942400	-1.739500	-0.575581	1
H	-1.471360	-1.324230	-2.120031	1
H	-1.659940	0.779740	-2.621271	1
H	-0.959500	0.053700	1.217339	1
H	-0.542280	1.663060	0.614439	1
H	1.597780	0.738650	-0.349631	1
H	1.195730	-0.125990	2.632909	1
H	2.797690	0.042400	1.778089	1
Es	-1.206394	1.169134	-1.793538	99
Es	1.388966	0.276013	1.138434	99
Es	1.032726	0.244135	0.429424	99
Es	-0.493158	1.304564	0.548321	99
Es	-0.740309	0.398226	-0.237727	99
Es	-1.121774	1.525585	-1.764023	99
Es	-0.890725	0.749699	-1.557368	99
Es	1.320433	-1.129233	0.721330	99
Es	-1.407518	0.854353	-1.346682	99
Es	1.736628	-0.160169	1.696141	99
Es	-0.777330	0.219063	0.957610	99
Es	0.293600	0.407883	0.422512	99
Es	-1.124772	-1.450435	-0.816717	99
Es	-1.433310	-1.201034	-1.729479	99
Es	-1.687333	-0.956696	-1.029800	99
Es	-1.189401	-0.518265	-1.071414	99
Es	1.563625	-1.227171	0.562600	99
Es	1.056775	-1.260046	0.815842	99
Es	-1.419868	-1.046872	-1.148749	99
Es	1.417283	0.567665	-0.102110	99
Es	2.458287	-0.032880	1.753066	99
Es	1.368481	-0.146461	2.333473	99
Es	1.518156	-0.844403	1.157925	99
Es	1.173154	-0.643440	0.508666	99
Es	-1.058030	0.244415	-0.906638	99
Es	-0.420804	0.590104	0.425630	99
Es	-1.477443	0.911661	-2.298551	99
42
Properties=species:S:1:pos:R:3:Z:I:1 energy=-339.9629047022658 field_type=dipole dipole="0.000000 0.000000 0.000000" charge=0
N	-1.420490	-1.047130	-1.148621	7
C	-1.058010	0.244580	-0.906721	6
N	-1.206290	1.169640	-1.793531	7
C	-0.420810	0.590150	0.425689	6
C	1.032700	0.244430	0.429329	6
C	1.736730	-0.159970	1.696369	6
O	1.320460	-1.129530	0.721229	8
H	-0.942400	-1.739500	-0.575581	1
H	-1.471360	-1.324230	-2.120031	1
H	-1.659940	0.779740	-2.621271	1
H	-0.959500	0.053700	1.217339	1
H	-0.542280	1.663060	0.614439	1
H	1.597780	0.738650	-0.349631	1
H	1.195730	-0.125990	2.632909	1
H	2.797690	0.042400	1.778089	1
Es	-0.740266	0.398123	-0.237816	99
Es	-0.493392	1.304709	0.548501	99
Es	1.368536	-0.146569	2.333396	99
Es	1.032729	0.244128	0.429428	99
Es	-1.188249	-0.519219	-1.072001	99
Es	-1.124680	-1.450266	-0.817111	99
Es	0.293591	0.407964	0.422762	99
Es	1.518798	-0.843807	1.157806	99
Es	-1.206398	1.169140	-1.793539	99
Es	1.320481	-1.129223	0.721309	99
Es	1.417206	0.567645	-0.102090	99
Es	-1.058029	0.244414	-0.906640	99
Es	1.736629	-0.160160	1.696145	99
Es	-0.420804	0.590105	0.425631	99
Es	-1.688716	-0.955849	-1.029030	99
Es	-1.121995	1.525441	-1.763937	99
Es	-1.433065	-1.201040	-1.729287	99
Es	-1.477531	0.911771	-2.298582	99
Es	-1.407355	0.854026	-1.346397	99
Es	-1.419965	-1.046970	-1.148737	99
Es	-0.777154	0.219030	0.957327	99
Es	1.173114	-0.644059	0.507810	99
Es	2.458222	-0.032904	1.753153	99
Es	1.562865	-1.227539	0.563004	99
Es	1.389031	0.276232	1.138457	99
Es	1.056908	-1.259767	0.816317	99
Es	-0.890566	0.750035	-1.557702	99
42
Properties=species:S:1:pos:R:3:Z:I:1 energy=-339.9629047022658 field_type=dipole dipole="0.000000 0.000000 0.000000" charge=0
N	-1.420490	-1.047130	-1.148621	7
C	-1.058010	0.244580	-0.906721	6
N	-1.206290	1.169640	-1.793531	7
C	-0.420810	0.590150	0.425689	6
C	1.032700	0.244430	0.429329	6
C	1.736730	-0.159970	1.696369	6
O	1.320460	-1.129530	0.721229	8
H	-0.942400	-1.739500	-0.575581	1
H	-1.471360	-1.324230	-2.120031	1
H	-1.659940	0.779740	-2.621271	1
H	-0.959500	0.053700	1.217339	1
H	-0.542280	1.663060	0.614439	1
H	1.597780	0.738650	-0.349631	1
H	1.195730	-0.125990	2.632909	1
H	2.797690	0.042400	1.778089	1
Es	1.389142	0.276423	1.138451	99
Es	0.293645	0.408021	0.422554	99
Es	-1.206395	1.169152	-1.793542	99
Es	-0.891041	0.749306	-1.556974	99
Es	-0.740268	0.398206	-0.237675	99
Es	-1.058029	0.244415	-0.906639	99
Es	1.172998	-0.643983	0.507162	99
Es	-0.493313	1.304625	0.548361	99
Es	1.032731	0.244118	0.429433	99
Es	-1.126026	-1.451141	-0.816256	99
Es	-0.777200	0.219044	0.957526	99
Es	-1.407947	0.855171	-1.346569	99
Es	1.736625	-0.160169	1.696136	99
Es	-1.477502	0.911877	-2.298763	99
Es	1.563077	-1.227608	0.563619	99
Es	-1.434153	-1.201284	-1.729446	99
Es	1.057472	-1.259633	0.815824	99
Es	-1.687432	-0.953820	-1.029161	99
Es	1.320454	-1.129239	0.721316	99
Es	1.518149	-0.844043	1.158303	99
Es	1.417162	0.567590	-0.102024	99
Es	-1.419988	-1.047000	-1.148747	99
Es	-0.420804	0.590105	0.425631	99
Es	-1.121037	1.524851	-1.764349	99
Es	1.368518	-0.146498	2.333320	99
Es	2.458162	-0.033009	1.753255	99
Es	-1.187058	-0.520085	-1.072569	99
42
Properties=species:S:1:pos:R:3:Z:I:1 energy=-339.9629047022658 field_type=dipole dipole="0.000000 0.000000 0.000000" charge=0
N	-1.420490	-1.047130	-1.148621	7
C	-1.058010	0.244580	-0.906721	6
N	-1.206290	1.169640	-1.793531	7
C	-0.420810	0.590150	0.425689	6
C	1.032700	0.244430	0.429329	6
C	1.736730	-0.159970	1.696369	6
O	1.320460	-1.129530	0.721229	8
H	-0.942400	-1.739500	-0.575581	1
H	-1.471360	-1.324230	-2.120031	1
H	-1.659940	0.779740	-2.621271	1
H	-0.959500	0.053700	1.217339	1
H	-0.542280	1.663060	0.614439	1
H	1.597780	0.738650	-0.349631	1
H	1.195730	-0.125990	2.632909	1
H	2.797690	0.042400	1.778089	1
Es	0.293623	0.407968	0.422476	99
Es	1.518752	-0.844892	1.158574	99
Es	1.368658	-0.146571	2.333308	99
Es	-1.187880	-0.519658	-1.072291	99
Es	-1.058028	0.244415	-0.906640	99
Es	1.417125	0.567559	-0.101991	99
Es	1.736625	-0.160169	1.696136	99
Es	-1.432990	-1.200983	-1.729219	99
Es	-1.407489	0.854413	-1.346372	99
Es	-1.688976	-0.955400	-1.029041	99
Es	-1.419897	-1.046819	-1.148725	99
Es	-1.124976	-1.450484	-0.816930	99
Es	-0.740227	0.398257	-0.237674	99
Es	1.389037	0.276633	1.138539	99
Es	2.458105	-0.032989	1.753206	99
Es	-0.890707	0.749853	-1.557479	99
Es	-0.777178	0.219040	0.957523	99
Es	1.057448	-1.258479	0.815810	99
Es	1.320477	-1.129218	0.721312	99
Es	1.173328	-0.643509	0.507224	99
Es	1.032730	0.244128	0.429430	99
Es	-1.121738	1.524917	-1.763997	99
Es	-1.206398	1.169141	-1.793539	99
Es	-1.477579	0.911989	-2.298802	99
Es	1.562177	-1.228509	0.563320	99
Es	-0.493275	1.304657	0.548387	99
Es	-0.420804	0.590105	0.425631	99
42
Properties=species:S:1:pos:R:3:Z:I:1 energy=-339.9629047022658 field_type=dipole dipole="0.000000 0.000000 0.000000" charge=0
N	-1.420490	-1.047130	-1.148621	7
C	-1.058010	0.244580	-0.906721	6
N	-1.206290	1.169640	-1.793531	7
C	-0.420810	0.590150	0.425689	6
C	1.032700	0.244430	0.429329	6
C	1.736730	-0.159970	1.696369	6
O	1.320460	-1.129530	0.721229	8
H	-0.942400	-1.739500	-0.575581	1
H	-1.471360	-1.324230	-2.120031	1
H	-1.659940	0.779740	-2.621271	1
H	-0.959500	0.053700	1.217339	1
H	-0.542280	1.663060	0.614439	1
H	1.597780	0.738650	-0.349631	1
H	1.195730	-0.125990	2.632909	1
H	2.797690	0.042400	1.778089	1
Es	1.320571	-1.129168	0.721279	99
Es	-1.121580	1.524669	-1.764016	99
Es	-0.777110	0.219045	0.957462	99
Es	-1.477497	0.912071	-2.298953	99
Es	1.173530	-0.643301	0.506502	99
Es	1.057576	-1.256470	0.816650	99
Es	1.389125	0.276855	1.138498	99
Es	-1.419910	-1.046981	-1.148770	99
Es	-1.187807	-0.519707	-1.072300	99
Es	1.368697	-0.146598	2.333246	99
Es	-1.125164	-1.450568	-0.816794	99
Es	-0.890792	0.749768	-1.557278	99
Es	1.032730	0.244130	0.429431	99
Es	-1.407645	0.854621	-1.346410	99
Es	1.520290	-0.845406	1.158570	99
Es	-0.740326	0.398361	-0.237599	99
Es	0.293756	0.407980	0.422396	99
Es	2.457988	-0.033072	1.753291	99
Es	-1.432798	-1.200963	-1.729202	99
Es	1.560237	-1.230361	0.563221	99
Es	-1.058028	0.244414	-0.906639	99
Es	-1.689059	-0.955133	-1.029149	99
Es	1.736628	-0.160162	1.696142	99
Es	-0.420804	0.590104	0.425629	99
Es	-1.206397	1.169143	-1.793540	99
Es	1.417068	0.567505	-0.101955	99
Es	-0.493335	1.304615	0.548466	99
42
Properties=species:S:1:pos:R:3:Z:I:1 energy=-339.9629047022658 field_type=dipole dipole="0.000000 0.000000 0.000000" charge=0
N	-1.420490	-1.047130	-1.148621	7
C	-1.058010	0.244580	-0.906721	6
N	-1.206290	1.169640	-1.793531	7
C	-0.420810	0.590150	0.425689	6
C	1.032700	0.244430	0.429329	6
C	1.736730	-0.159970	1.696369	6
O	1.320460	-1.129530	0.721229	8
H	-0.942400	-1.739500	-0.575581	1
H	-1.471360	-1.324230	-2.120031	1
H	-1.659940	0.779740	-2.621271	1
H	-0.959500	0.053700	1.217339	1
H	-0.542280	1.663060	0.614439	1
H	1.597780	0.738650	-0.349631	1
H	1.195730	-0.125990	2.632909	1
H	2.797690	0.042400	1.778089	1
Es	1.736626	-0.160167	1.696137	99
Es	-1.477595	0.912333	-2.299019	99
Es	1.058329	-1.260683	0.813961	99
Es	-1.407515	0.854349	-1.346296	99
Es	1.172849	-0.643136	0.507344	99
Es	-1.188559	-0.519013	-1.071982	99
Es	-0.777168	0.219075	0.957508	99
Es	1.320469	-1.129275	0.721280	99
Es	1.032730	0.244131	0.429430	99
Es	-0.420804	0.590105	0.425631	99
Es	1.389004	0.277070	1.138549	99
Es	1.368819	-0.146648	2.333224	99
Es	1.417034	0.567442	-0.101914	99
Es	-1.124865	-1.450545	-0.816899	99
Es	0.293663	0.407981	0.422410	99
Es	-1.206395	1.169152	-1.793536	99
Es	-1.433008	-1.200896	-1.729218	99
Es	1.562437	-1.225733	0.563990	99
Es	-1.419908	-1.046795	-1.148719	99
Es	1.518159	-0.846000	1.159703	99
Es	-0.740197	0.398332	-0.237618	99
Es	-0.890586	0.749910	-1.557565	99
Es	-1.121824	1.524472	-1.763817	99
Es	-1.058029	0.244411	-0.906640	99
Es	2.457972	-0.033048	1.753249	99
Es	-0.493263	1.304647	0.548398	99
Es	-1.688432	-0.956078	-1.029413	99
