39
Properties=species:S:1:pos:R:3:Z:I:1 energy=-338.6952719651994 field_type=dipole dipole="0.000000 0.000000 0.000000" charge=0
N	-3.124729	-0.503660	-1.051453	7
C	-1.872019	-0.235950	-0.927013	6
N	-1.238389	-0.115091	0.271177	7
O	0.098861	-0.525070	0.215867	8
C	0.890851	0.563869	0.706497	6
C	2.310050	0.195600	0.643357	6
C	3.472921	-0.103940	0.590117	6
H	-3.364499	-0.535331	-2.049233	1
H	-1.219799	-0.069590	-1.802313	1
H	-1.772469	-0.536561	1.029257	1
H	0.606111	0.783979	1.742047	1
H	0.710321	1.453290	0.091497	1
H	4.502791	-0.371540	0.540197	1
Es	-1.285191	0.221051	0.252573	99
Es	-1.499254	-0.242356	-0.240274	99
Es	-3.361109	-0.566649	-0.779786	99
Es	4.142991	-0.276616	0.557745	99
Es	0.711339	0.709429	1.404347	99
Es	-2.564861	-0.673052	-1.031352	99
Es	-1.421670	-0.121909	-1.511139	99
Es	2.845159	-0.074277	0.284051	99
Es	0.782994	1.159831	0.291515	99
Es	-3.256434	-0.511610	-1.652828	99
Es	-1.871905	-0.235909	-0.926883	99
Es	0.387051	-0.097185	0.407336	99
Es	-3.124336	-0.503548	-1.051778	99
Es	1.626063	0.362585	0.671315	99
Es	0.890880	0.563632	0.706405	99
Es	-2.667378	-0.115086	-1.001164	99
Es	2.965162	0.396607	0.671276	99
Es	3.473148	-0.103984	0.590106	99
Es	-1.238359	-0.115731	0.270955	99
Es	-0.503784	-0.330295	0.246688	99
Es	2.862842	-0.174364	0.898734	99
Es	0.160350	-0.550549	-0.088416	99
Es	0.098740	-0.524725	0.216010	99
Es	-1.540638	-0.386213	0.712591	99
Es	0.126240	-0.759021	0.418780	99
Es	2.309766	0.195677	0.643375	99
39
Properties=species:S:1:pos:R:3:Z:I:1 energy=-338.6952719651994 field_type=dipole dipole="0.000000 0.000000 0.000000" charge=0
N	-3.124729	-0.503660	-1.051453	7
C	-1.872019	-0.235950	-0.927013	6
N	-1.238389	-0.115091	0.271177	7
O	0.098861	-0.525070	0.215867	8
C	0.890851	0.563869	0.706497	6
C	2.310050	0.195600	0.643357	6
C	3.472921	-0.103940	0.590117	6
H	-3.364499	-0.535331	-2.049233	1
H	-1.219799	-0.069590	-1.802313	1
H	-1.772469	-0.536561	1.029257	1
H	0.606111	0.783979	1.742047	1
H	0.710321	1.453290	0.091497	1
H	4.502791	-0.371540	0.540197	1
Es	0.098748	-0.524721	0.216006	99
Es	-1.871905	-0.235909	-0.926883	99
Es	0.125825	-0.757153	0.419781	99
Es	3.473145	-0.103991	0.590119	99
Es	2.960632	0.325985	0.403331	99
Es	-1.540814	-0.384981	0.713708	99
Es	-2.667674	-0.115099	-1.001476	99
Es	0.890880	0.563630	0.706408	99
Es	-0.503891	-0.330133	0.246488	99
Es	0.783007	1.159899	0.291616	99
Es	-1.421698	-0.122088	-1.511202	99
Es	2.309779	0.195692	0.643375	99
Es	0.387444	-0.096705	0.406262	99
Es	-3.360979	-0.566296	-0.779793	99
Es	-1.284914	0.219852	0.251532	99
Es	2.787333	-0.260239	0.478338	99
Es	4.142861	-0.277423	0.557990	99
Es	-3.124351	-0.503558	-1.051783	99
Es	0.711463	0.709365	1.404368	99
Es	1.626181	0.363733	0.671428	99
Es	-1.238397	-0.115794	0.270906	99
Es	0.160563	-0.552930	-0.088100	99
Es	-2.564656	-0.672882	-1.030871	99
Es	-1.499372	-0.242327	-0.240371	99
Es	-3.256513	-0.511948	-1.652910	99
Es	2.925109	0.081752	0.971914	99
39
Properties=species:S:1:pos:R:3:Z:I:1 energy=-338.6952719651994 field_type=dipole dipole="0.000000 0.000000 0.000000" charge=0
N	-3.124729	-0.503660	-1.051453	7
C	-1.872019	-0.235950	-0.927013	6
N	-1.238389	-0.115091	0.271177	7
O	0.098861	-0.525070	0.215867	8
C	0.890851	0.563869	0.706497	6
C	2.310050	0.195600	0.643357	6
C	3.472921	-0.103940	0.590117	6
H	-3.364499	-0.535331	-2.049233	1
H	-1.219799	-0.069590	-1.802313	1
H	-1.772469	-0.536561	1.029257	1
H	0.606111	0.783979	1.742047	1
H	0.710321	1.453290	0.091497	1
H	4.502791	-0.371540	0.540197	1
Es	-1.871912	-0.235912	-0.926887	99
Es	2.961027	0.374852	0.753398	99
Es	2.309778	0.195667	0.643369	99
Es	0.387632	-0.097121	0.406941	99
Es	-3.124348	-0.503551	-1.051773	99
Es	-1.238497	-0.115820	0.270832	99
Es	0.160590	-0.552097	-0.087722	99
Es	-1.540801	-0.385110	0.713307	99
Es	-0.503871	-0.330033	0.246622	99
Es	-2.564545	-0.672935	-1.030867	99
Es	1.625883	0.362507	0.670962	99
Es	0.098751	-0.524763	0.215996	99
Es	2.872236	0.002796	0.261176	99
Es	-1.421763	-0.121934	-1.511270	99
Es	-2.667783	-0.115126	-1.001266	99
Es	3.473151	-0.103990	0.590112	99
Es	4.143013	-0.276625	0.558240	99
Es	-1.285350	0.220353	0.251290	99
Es	-3.360788	-0.566442	-0.779981	99
Es	0.890880	0.563632	0.706407	99
Es	-3.256646	-0.511891	-1.652935	99
Es	0.125912	-0.757608	0.418788	99
Es	0.711455	0.709367	1.404409	99
Es	-1.499133	-0.242892	-0.239836	99
Es	0.783062	1.159925	0.291487	99
Es	2.839872	-0.229515	0.839378	99
39
Properties=species:S:1:pos:R:3:Z:I:1 energy=-338.6952719651994 field_type=dipole dipole="0.000000 0.000000 0.000000" charge=0
N	-3.124729	-0.503660	-1.051453	7
C	-1.872019	-0.235950	-0.927013	6
N	-1.238389	-0.115091	0.271177	7
O	0.098861	-0.525070	0.215867	8
C	0.890851	0.563869	0.706497	6
C	2.310050	0.195600	0.643357	6
C	3.472921	-0.103940	0.590117	6
H	-3.364499	-0.535331	-2.049233	1
H	-1.219799	-0.069590	-1.802313	1
H	-1.772469	-0.536561	1.029257	1
H	0.606111	0.783979	1.742047	1
H	0.710321	1.453290	0.091497	1
H	4.502791	-0.371540	0.540197	1
Es	0.783104	1.159939	0.291510	99
Es	2.962911	0.386372	0.720335	99
Es	2.309780	0.195674	0.643373	99
Es	2.849103	-0.209095	0.865324	99
Es	-3.124345	-0.503551	-1.051782	99
Es	0.098743	-0.524705	0.215980	99
Es	0.126543	-0.758593	0.417800	99
Es	-1.499238	-0.242834	-0.239842	99
Es	2.861151	-0.029114	0.268188	99
Es	-1.285624	0.219845	0.251070	99
Es	0.711499	0.709361	1.404429	99
Es	-3.256462	-0.511933	-1.652977	99
Es	-2.564641	-0.672750	-1.030810	99
Es	-0.503973	-0.330002	0.247060	99
Es	-3.360872	-0.566650	-0.780156	99
Es	0.387736	-0.097137	0.406928	99
Es	0.160106	-0.550927	-0.087150	99
Es	-1.421712	-0.122019	-1.511268	99
Es	3.473147	-0.103988	0.590109	99
Es	-1.238344	-0.115673	0.270976	99
Es	0.890881	0.563633	0.706407	99
Es	-1.540807	-0.385086	0.713425	99
Es	4.142977	-0.276634	0.558156	99
Es	1.625852	0.362468	0.671122	99
Es	-2.667805	-0.114963	-1.001141	99
Es	-1.871906	-0.235908	-0.926884	99
39
Properties=species:S:1:pos:R:3:Z:I:1 energy=-338.6952719651994 field_type=dipole dipole="0.000000 0.000000 0.000000" charge=0
N	-3.124729	-0.503660	-1.051453	7
C	-1.872019	-0.235950	-0.927013	6
N	-1.238389	-0.115091	0.271177	7
O	0.098861	-0.525070	0.215867	8
C	0.890851	0.563869	0.706497	6
C	2.310050	0.195600	0.643357	6
C	3.472921	-0.103940	0.590117	6
H	-3.364499	-0.535331	-2.049233	1
H	-1.219799	-0.069590	-1.802313	1
H	-1.772469	-0.536561	1.029257	1
H	0.606111	0.783979	1.742047	1
H	0.710321	1.453290	0.091497	1
H	4.502791	-0.371540	0.540197	1
Es	-1.421776	-0.121916	-1.511313	99
Es	4.142945	-0.276663	0.558321	99
Es	0.387805	-0.097052	0.406852	99
Es	-1.238446	-0.115763	0.270880	99
Es	3.473148	-0.103988	0.590111	99
Es	-3.257180	-0.511545	-1.653006	99
Es	1.625807	0.362556	0.670845	99
Es	0.160683	-0.552438	-0.087108	99
Es	0.711579	0.709360	1.404533	99
Es	2.309780	0.195676	0.643368	99
Es	0.098742	-0.524729	0.216009	99
Es	-2.666963	-0.115271	-1.000681	99
Es	-2.565317	-0.673519	-1.031081	99
Es	2.839320	-0.230773	0.838261	99
Es	0.126150	-0.757088	0.418218	99
Es	-3.360329	-0.566064	-0.780247	99
Es	2.961075	0.374766	0.754328	99
Es	-1.540963	-0.384499	0.713985	99
Es	-1.285469	0.219696	0.250313	99
Es	0.890880	0.563632	0.706407	99
Es	-3.124342	-0.503552	-1.051780	99
Es	0.783109	1.159910	0.291528	99
Es	-1.871904	-0.235908	-0.926883	99
Es	-0.504223	-0.330177	0.246649	99
Es	-1.499074	-0.243108	-0.239610	99
Es	2.872769	0.004185	0.261278	99
