40
Properties=species:S:1:pos:R:3:Z:I:1 energy=-322.82151332169724 field_type=dipole dipole="0.000000 0.000000 0.000000" charge=0
N	-0.668392	-2.056674	-0.252899	7
C	-1.204282	-0.937964	0.310361	6
O	-2.326572	-0.956734	0.801551	8
C	-0.344913	0.294616	0.239771	6
C	-0.980892	1.473986	0.341361	6
C	1.104358	0.188176	0.196541	6
C	1.918437	0.977316	-0.517359	6
H	0.188658	-2.044274	-0.786149	1
H	-1.250182	-2.882794	-0.281539	1
H	-2.063632	1.526806	0.422601	1
H	-0.445943	2.416986	0.361901	1
H	1.535948	-0.612164	0.795791	1
H	1.543698	1.784426	-1.139709	1
H	2.993708	0.828296	-0.492229	1
Es	-1.697585	1.518875	0.390817	99
Es	-0.344879	0.294485	0.239759	99
Es	-0.747298	-0.332681	0.272483	99
Es	-0.619296	2.110770	0.351209	99
Es	-0.609992	0.838424	0.592413	99
Es	1.473679	0.377822	-0.413737	99
Es	-0.980907	1.474063	0.341336	99
Es	-2.326287	-0.956731	0.801425	99
Es	-1.852397	-1.012019	0.856464	99
Es	2.646201	0.882419	-0.502002	99
Es	-2.452610	-1.243142	0.766283	99
Es	-0.618882	-1.943707	0.070362	99
Es	-0.170332	-2.042679	-0.580947	99
Es	1.386071	-0.356173	0.600545	99
Es	1.668656	1.522611	-0.938987	99
Es	0.375286	0.229535	0.204005	99
Es	1.522551	0.786209	0.086936	99
Es	-2.411934	-0.684187	0.925988	99
Es	1.104259	0.188112	0.196592	99
Es	-1.009369	-2.540825	-0.289041	99
Es	-1.204141	-0.938049	0.310284	99
Es	1.918491	0.977369	-0.517400	99
Es	-2.049663	-0.874482	0.422583	99
Es	-0.668534	-2.056533	-0.253100	99
Es	-0.670007	0.848272	-0.042589	99
Es	-0.932840	-1.598241	-0.217305	99
40
Properties=species:S:1:pos:R:3:Z:I:1 energy=-322.82151332169724 field_type=dipole dipole="0.000000 0.000000 0.000000" charge=0
N	-0.668392	-2.056674	-0.252899	7
C	-1.204282	-0.937964	0.310361	6
O	-2.326572	-0.956734	0.801551	8
C	-0.344913	0.294616	0.239771	6
C	-0.980892	1.473986	0.341361	6
C	1.104358	0.188176	0.196541	6
C	1.918437	0.977316	-0.517359	6
H	0.188658	-2.044274	-0.786149	1
H	-1.250182	-2.882794	-0.281539	1
H	-2.063632	1.526806	0.422601	1
H	-0.445943	2.416986	0.361901	1
H	1.535948	-0.612164	0.795791	1
H	1.543698	1.784426	-1.139709	1
H	2.993708	0.828296	-0.492229	1
Es	-2.411334	-0.683303	0.922227	99
Es	-1.009360	-2.540675	-0.289433	99
Es	0.375289	0.229559	0.203896	99
Es	-1.204147	-0.938051	0.310285	99
Es	-2.454747	-1.242777	0.766522	99
Es	-0.670003	0.848442	-0.042348	99
Es	-0.619401	2.110834	0.351174	99
Es	-0.668556	-2.056515	-0.253159	99
Es	-0.980906	1.474059	0.341336	99
Es	1.473692	0.377954	-0.413594	99
Es	-1.853303	-1.011652	0.859609	99
Es	-0.609916	0.838305	0.592511	99
Es	1.918491	0.977374	-0.517396	99
Es	1.386145	-0.356190	0.600526	99
Es	-1.697625	1.518754	0.390613	99
Es	-2.326268	-0.956722	0.801420	99
Es	-0.344875	0.294477	0.239760	99
Es	1.104256	0.188110	0.196595	99
Es	1.668649	1.522593	-0.939092	99
Es	-0.170329	-2.042709	-0.580727	99
Es	-0.932888	-1.597904	-0.217089	99
Es	1.522468	0.786194	0.086831	99
Es	-2.047169	-0.876117	0.423059	99
Es	2.646232	0.882370	-0.501919	99
Es	-0.618814	-1.944191	0.070367	99
Es	-0.747341	-0.332703	0.272403	99
40
Properties=species:S:1:pos:R:3:Z:I:1 energy=-322.82151332169724 field_type=dipole dipole="0.000000 0.000000 0.000000" charge=0
N	-0.668392	-2.056674	-0.252899	7
C	-1.204282	-0.937964	0.310361	6
O	-2.326572	-0.956734	0.801551	8
C	-0.344913	0.294616	0.239771	6
C	-0.980892	1.473986	0.341361	6
C	1.104358	0.188176	0.196541	6
C	1.918437	0.977316	-0.517359	6
H	0.188658	-2.044274	-0.786149	1
H	-1.250182	-2.882794	-0.281539	1
H	-2.063632	1.526806	0.422601	1
H	-0.445943	2.416986	0.361901	1
H	1.535948	-0.612164	0.795791	1
H	1.543698	1.784426	-1.139709	1
H	2.993708	0.828296	-0.492229	1
Es	1.918490	0.977373	-0.517394	99
Es	-1.009195	-2.540552	-0.289567	99
Es	-0.668473	-2.056583	-0.253012	99
Es	-0.980909	1.474065	0.341338	99
Es	-2.326274	-0.956739	0.801413	99
Es	-0.670056	0.848386	-0.042306	99
Es	-0.932825	-1.599513	-0.219775	99
Es	-0.344875	0.294480	0.239734	99
Es	-1.853130	-1.012369	0.857879	99
Es	1.668664	1.522581	-0.939035	99
Es	-0.619211	2.110851	0.351204	99
Es	1.473588	0.378013	-0.413658	99
Es	2.646185	0.882369	-0.502052	99
Es	-0.747309	-0.332707	0.272503	99
Es	0.375237	0.229559	0.204004	99
Es	-2.048230	-0.873582	0.422730	99
Es	-1.204146	-0.938052	0.310288	99
Es	1.522530	0.786203	0.086976	99
Es	1.104257	0.188107	0.196593	99
Es	-0.609960	0.838382	0.592284	99
Es	1.386217	-0.356265	0.600425	99
Es	-0.170379	-2.042783	-0.580630	99
Es	-1.697669	1.518763	0.390740	99
Es	-2.412881	-0.684998	0.926120	99
Es	-0.619120	-1.942589	0.072889	99
Es	-2.452284	-1.242885	0.764687	99
40
Properties=species:S:1:pos:R:3:Z:I:1 energy=-322.82151332169724 field_type=dipole dipole="0.000000 0.000000 0.000000" charge=0
N	-0.668392	-2.056674	-0.252899	7
C	-1.204282	-0.937964	0.310361	6
O	-2.326572	-0.956734	0.801551	8
C	-0.344913	0.294616	0.239771	6
C	-0.980892	1.473986	0.341361	6
C	1.104358	0.188176	0.196541	6
C	1.918437	0.977316	-0.517359	6
H	0.188658	-2.044274	-0.786149	1
H	-1.250182	-2.882794	-0.281539	1
H	-2.063632	1.526806	0.422601	1
H	-0.445943	2.416986	0.361901	1
H	1.535948	-0.612164	0.795791	1
H	1.543698	1.784426	-1.139709	1
H	2.993708	0.828296	-0.492229	1
Es	-2.050512	-0.874593	0.422318	99
Es	-0.619176	2.110859	0.351177	99
Es	-2.451828	-1.243117	0.766732	99
Es	-1.851624	-1.011523	0.856336	99
Es	1.522529	0.786076	0.086782	99
Es	-0.617416	-1.946088	0.071050	99
Es	-0.747287	-0.332639	0.272439	99
Es	-0.171375	-2.042271	-0.581650	99
Es	-0.932955	-1.597408	-0.215732	99
Es	1.386162	-0.356256	0.600549	99
Es	1.104257	0.188110	0.196592	99
Es	1.473717	0.378023	-0.413480	99
Es	-1.009628	-2.539948	-0.290524	99
Es	1.668533	1.522631	-0.939137	99
Es	-2.326288	-0.956716	0.801429	99
Es	1.918489	0.977369	-0.517396	99
Es	-1.204145	-0.938051	0.310286	99
Es	2.646219	0.882359	-0.501971	99
Es	-0.980906	1.474061	0.341340	99
Es	-2.412513	-0.684609	0.925976	99
Es	-0.668665	-2.056361	-0.253190	99
Es	-1.697682	1.518747	0.390814	99
Es	0.375331	0.229613	0.203726	99
Es	-0.344874	0.294480	0.239758	99
Es	-0.670193	0.848392	-0.042124	99
Es	-0.609929	0.838375	0.592278	99
40
Properties=species:S:1:pos:R:3:Z:I:1 energy=-322.82151332169724 field_type=dipole dipole="0.000000 0.000000 0.000000" charge=0
N	-0.668392	-2.056674	-0.252899	7
C	-1.204282	-0.937964	0.310361	6
O	-2.326572	-0.956734	0.801551	8
C	-0.344913	0.294616	0.239771	6
C	-0.980892	1.473986	0.341361	6
C	1.104358	0.188176	0.196541	6
C	1.918437	0.977316	-0.517359	6
H	0.188658	-2.044274	-0.786149	1
H	-1.250182	-2.882794	-0.281539	1
H	-2.063632	1.526806	0.422601	1
H	-0.445943	2.416986	0.361901	1
H	1.535948	-0.612164	0.795791	1
H	1.543698	1.784426	-1.139709	1
H	2.993708	0.828296	-0.492229	1
Es	-0.344876	0.294476	0.239761	99
Es	-0.171423	-2.042069	-0.581800	99
Es	1.918490	0.977365	-0.517408	99
Es	-1.009548	-2.540333	-0.290114	99
Es	1.522497	0.786025	0.086673	99
Es	-2.326234	-0.956684	0.801411	99
Es	-2.409946	-0.684367	0.925288	99
Es	-0.617439	-1.946306	0.069603	99
Es	-1.697731	1.518672	0.390900	99
Es	-1.850624	-1.012174	0.855678	99
Es	1.386241	-0.356378	0.600504	99
Es	-2.454049	-1.242314	0.768463	99
Es	0.375295	0.229619	0.203772	99
Es	1.104258	0.188109	0.196591	99
Es	2.646286	0.882281	-0.501957	99
Es	-2.051914	-0.875076	0.421893	99
Es	1.473615	0.378244	-0.413303	99
Es	-0.619177	2.110879	0.351204	99
Es	-0.609885	0.838448	0.592006	99
Es	-0.670174	0.848409	-0.042194	99
Es	-0.668550	-2.056502	-0.253092	99
Es	-0.980908	1.474064	0.341338	99
Es	1.668565	1.522629	-0.939106	99
Es	-0.933101	-1.596861	-0.214674	99
Es	-0.747283	-0.332590	0.272656	99
Es	-1.204145	-0.938051	0.310285	99
40
Properties=species:S:1:pos:R:3:Z:I:1 energy=-322.82151332169724 field_type=dipole dipole="0.000000 0.000000 0.000000" charge=0
N	-0.668392	-2.056674	-0.252899	7
C	-1.204282	-0.937964	0.310361	6
O	-2.326572	-0.956734	0.801551	8
C	-0.344913	0.294616	0.239771	6
C	-0.980892	1.473986	0.341361	6
C	1.104358	0.188176	0.196541	6
C	1.918437	0.977316	-0.517359	6
H	0.188658	-2.044274	-0.786149	1
H	-1.250182	-2.882794	-0.281539	1
H	-2.063632	1.526806	0.422601	1
H	-0.445943	2.416986	0.361901	1
H	1.535948	-0.612164	0.795791	1
H	1.543698	1.784426	-1.139709	1
H	2.993708	0.828296	-0.492229	1
Es	-2.048697	-0.873657	0.422739	99
Es	-0.609868	0.838458	0.591948	99
Es	1.668523	1.522611	-0.939107	99
Es	-0.747335	-0.332613	0.272587	99
Es	-2.326285	-0.956734	0.801421	99
Es	0.375247	0.229704	0.203689	99
Es	-1.852915	-1.013781	0.856886	99
Es	1.386262	-0.356370	0.600492	99
Es	-1.697771	1.518665	0.390916	99
Es	1.918490	0.977371	-0.517398	99
Es	1.104258	0.188111	0.196593	99
Es	-0.668575	-2.056467	-0.253101	99
Es	-0.170781	-2.042791	-0.580749	99
Es	1.522540	0.785956	0.086669	99
Es	-0.618897	-1.941741	0.075040	99
Es	-2.410103	-0.684414	0.926357	99
Es	-0.932744	-1.600640	-0.221606	99
Es	-2.454705	-1.242062	0.765395	99
Es	-0.619094	2.110888	0.351188	99
Es	-0.670213	0.848431	-0.041960	99
Es	-0.980908	1.474063	0.341340	99
Es	-0.344876	0.294478	0.239759	99
Es	-1.009089	-2.540436	-0.289716	99
Es	1.473618	0.378288	-0.413251	99
Es	-1.204145	-0.938051	0.310285	99
Es	2.646301	0.882248	-0.502037	99
40
Properties=species:S:1:pos:R:3:Z:I:1 energy=-322.82151332169724 field_type=dipole dipole="0.000000 0.000000 0.000000" charge=0
N	-0.668392	-2.056674	-0.252899	7
C	-1.204282	-0.937964	0.310361	6
O	-2.326572	-0.956734	0.801551	8
C	-0.344913	0.294616	0.239771	6
C	-0.980892	1.473986	0.341361	6
C	1.104358	0.188176	0.196541	6
C	1.918437	0.977316	-0.517359	6
H	0.188658	-2.044274	-0.786149	1
H	-1.250182	-2.882794	-0.281539	1
H	-2.063632	1.526806	0.422601	1
H	-0.445943	2.416986	0.361901	1
H	1.535948	-0.612164	0.795791	1
H	1.543698	1.784426	-1.139709	1
H	2.993708	0.828296	-0.492229	1
Es	-1.204148	-0.938051	0.310286	99
Es	-0.618940	-1.941127	0.076068	99
Es	-0.609820	0.838467	0.591906	99
Es	2.646348	0.882250	-0.502146	99
Es	-2.326277	-0.956760	0.801410	99
Es	-0.668545	-2.056511	-0.253093	99
Es	-1.852823	-1.012928	0.857762	99
Es	-0.670323	0.848454	-0.042106	99
Es	1.473596	0.378385	-0.413144	99
Es	1.522569	0.785916	0.086652	99
Es	-1.697767	1.518652	0.391006	99
Es	-0.932594	-1.601294	-0.222503	99
Es	-0.170871	-2.042800	-0.580798	99
Es	1.104257	0.188112	0.196596	99
Es	-0.747268	-0.332577	0.272733	99
Es	1.668421	1.522594	-0.939065	99
Es	-0.980908	1.474065	0.341339	99
Es	1.386327	-0.356392	0.600462	99
Es	1.918491	0.977370	-0.517397	99
Es	-0.619094	2.110889	0.351186	99
Es	-2.048597	-0.874188	0.422334	99
Es	-0.344873	0.294476	0.239752	99
Es	-1.009124	-2.540335	-0.289845	99
Es	-2.454825	-1.242168	0.766269	99
Es	-2.410162	-0.684672	0.925028	99
Es	0.375189	0.229690	0.203686	99
40
Properties=species:S:1:pos:R:3:Z:I:1 energy=-322.82151332169724 field_type=dipole dipole="0.000000 0.000000 0.000000" charge=0
N	-0.668392	-2.056674	-0.252899	7
C	-1.204282	-0.937964	0.310361	6
O	-2.326572	-0.956734	0.801551	8
C	-0.344913	0.294616	0.239771	6
C	-0.980892	1.473986	0.341361	6
C	1.104358	0.188176	0.196541	6
C	1.918437	0.977316	-0.517359	6
H	0.188658	-2.044274	-0.786149	1
H	-1.250182	-2.882794	-0.281539	1
H	-2.063632	1.526806	0.422601	1
H	-0.445943	2.416986	0.361901	1
H	1.535948	-0.612164	0.795791	1
H	1.543698	1.784426	-1.139709	1
H	2.993708	0.828296	-0.492229	1
Es	2.646338	0.882218	-0.502060	99
Es	-0.980908	1.474062	0.341343	99
Es	-2.048069	-0.875368	0.421840	99
Es	-0.609844	0.838505	0.591659	99
Es	-0.668593	-2.056457	-0.253151	99
Es	-0.344874	0.294474	0.239751	99
Es	0.375225	0.229765	0.203639	99
Es	-1.853085	-1.012230	0.858738	99
Es	-0.932250	-1.602757	-0.225231	99
Es	-1.697817	1.518651	0.390992	99
Es	-0.170299	-2.043208	-0.579894	99
Es	-2.411621	-0.684356	0.924009	99
Es	-2.453613	-1.242055	0.766803	99
Es	-2.326260	-0.956712	0.801417	99
Es	1.473631	0.378404	-0.413106	99
Es	1.918495	0.977373	-0.517402	99
Es	-0.618964	2.110901	0.351189	99
Es	-1.204150	-0.938050	0.310284	99
Es	1.386314	-0.356386	0.600498	99
Es	-0.747354	-0.332560	0.272791	99
Es	-0.619811	-1.939824	0.078758	99
Es	-0.670343	0.848422	-0.041846	99
Es	1.668457	1.522599	-0.939139	99
Es	1.522542	0.785837	0.086566	99
Es	-1.009169	-2.539844	-0.290659	99
Es	1.104261	0.188110	0.196590	99
40
Properties=species:S:1:pos:R:3:Z:I:1 energy=-322.82151332169724 field_type=dipole dipole="0.000000 0.000000 0.000000" charge=0
N	-0.668392	-2.056674	-0.252899	7
C	-1.204282	-0.937964	0.310361	6
O	-2.326572	-0.956734	0.801551	8
C	-0.344913	0.294616	0.239771	6
C	-0.980892	1.473986	0.341361	6
C	1.104358	0.188176	0.196541	6
C	1.918437	0.977316	-0.517359	6
H	0.188658	-2.044274	-0.786149	1
H	-1.250182	-2.882794	-0.281539	1
H	-2.063632	1.526806	0.422601	1
H	-0.445943	2.416986	0.361901	1
H	1.535948	-0.612164	0.795791	1
H	1.543698	1.784426	-1.139709	1
H	2.993708	0.828296	-0.492229	1
Es	-0.747389	-0.332542	0.272704	99
Es	-1.697867	1.518564	0.390973	99
Es	1.668432	1.522661	-0.939073	99
Es	-0.932614	-1.602278	-0.224635	99
Es	-0.619471	-1.939947	0.077679	99
Es	-1.204145	-0.938050	0.310282	99
Es	1.386367	-0.356505	0.600370	99
Es	-2.326243	-0.956677	0.801421	99
Es	-1.008844	-2.540347	-0.289918	99
Es	-2.410738	-0.684200	0.924471	99
Es	2.646357	0.882156	-0.502117	99
Es	-0.344876	0.294479	0.239758	99
Es	-0.980908	1.474061	0.341344	99
Es	1.473498	0.378544	-0.413073	99
Es	-0.609714	0.838408	0.591694	99
Es	-0.170615	-2.043079	-0.580147	99
Es	0.375231	0.229716	0.203582	99
Es	-2.453941	-1.241912	0.767717	99
Es	1.918490	0.977371	-0.517394	99
Es	-2.049385	-0.875555	0.421666	99
Es	1.522610	0.785824	0.086588	99
Es	-0.668604	-2.056450	-0.253164	99
Es	1.104257	0.188109	0.196592	99
Es	-1.852325	-1.012405	0.857510	99
Es	-0.618995	2.110932	0.351167	99
Es	-0.670331	0.848638	-0.041620	99
40
Properties=species:S:1:pos:R:3:Z:I:1 energy=-322.82151332169724 field_type=dipole dipole="0.000000 0.000000 0.000000" charge=0
N	-0.668392	-2.056674	-0.252899	7
C	-1.204282	-0.937964	0.310361	6
O	-2.326572	-0.956734	0.801551	8
C	-0.344913	0.294616	0.239771	6
C	-0.980892	1.473986	0.341361	6
C	1.104358	0.188176	0.196541	6
C	1.918437	0.977316	-0.517359	6
H	0.188658	-2.044274	-0.786149	1
H	-1.250182	-2.882794	-0.281539	1
H	-2.063632	1.526806	0.422601	1
H	-0.445943	2.416986	0.361901	1
H	1.535948	-0.612164	0.795791	1
H	1.543698	1.784426	-1.139709	1
H	2.993708	0.828296	-0.492229	1
Es	-0.747361	-0.332517	0.272775	99
Es	-0.670350	0.848472	-0.041574	99
Es	-0.609797	0.838580	0.591517	99
Es	1.473536	0.378617	-0.412932	99
Es	-0.932550	-1.603020	-0.225517	99
Es	-2.453426	-1.242294	0.768062	99
Es	-0.171112	-2.042949	-0.580613	99
Es	-0.344877	0.294480	0.239759	99
Es	1.386398	-0.356504	0.600468	99
Es	-0.618920	2.110943	0.351196	99
Es	1.668445	1.522632	-0.939156	99
Es	-1.204145	-0.938051	0.310285	99
Es	-0.668558	-2.056493	-0.253101	99
Es	-0.980908	1.474062	0.341340	99
Es	-1.852476	-1.011479	0.858141	99
Es	1.104258	0.188111	0.196592	99
Es	-2.326272	-0.956772	0.801401	99
Es	2.646374	0.882094	-0.502085	99
Es	-2.049026	-0.875920	0.421547	99
Es	-2.411414	-0.684310	0.923629	99
Es	0.375232	0.229814	0.203505	99
Es	-0.619130	-1.939396	0.078963	99
Es	-1.008810	-2.540250	-0.289928	99
Es	1.522544	0.785756	0.086460	99
Es	1.918489	0.977370	-0.517397	99
Es	-1.697906	1.518536	0.391042	99
40
Properties=species:S:1:pos:R:3:Z:I:1 energy=-322.82151332169724 field_type=dipole dipole="0.000000 0.000000 0.000000" charge=0
N	-0.668392	-2.056674	-0.252899	7
C	-1.204282	-0.937964	0.310361	6
O	-2.326572	-0.956734	0.801551	8
C	-0.344913	0.294616	0.239771	6
C	-0.980892	1.473986	0.341361	6
C	1.104358	0.188176	0.196541	6
C	1.918437	0.977316	-0.517359	6
H	0.188658	-2.044274	-0.786149	1
H	-1.250182	-2.882794	-0.281539	1
H	-2.063632	1.526806	0.422601	1
H	-0.445943	2.416986	0.361901	1
H	1.535948	-0.612164	0.795791	1
H	1.543698	1.784426	-1.139709	1
H	2.993708	0.828296	-0.492229	1
Es	-0.618908	2.110962	0.351150	99
Es	0.375197	0.229933	0.203388	99
Es	-1.204148	-0.938052	0.310288	99
Es	1.522614	0.785728	0.086525	99
Es	-0.618688	-1.940416	0.078326	99
Es	-2.411109	-0.684633	0.924371	99
Es	1.386369	-0.356614	0.600363	99
Es	-2.454122	-1.241835	0.766428	99
Es	-2.326270	-0.956741	0.801411	99
Es	-0.344874	0.294479	0.239758	99
Es	-0.670425	0.848569	-0.041400	99
Es	-0.932748	-1.602377	-0.224403	99
Es	-0.609707	0.838534	0.591511	99
Es	2.646400	0.882065	-0.502129	99
Es	1.668427	1.522587	-0.939180	99
Es	-1.853175	-1.012709	0.858641	99
Es	-0.668568	-2.056464	-0.253107	99
Es	-1.697940	1.518494	0.391048	99
Es	1.918489	0.977369	-0.517401	99
Es	-0.171411	-2.042718	-0.580932	99
Es	-0.747345	-0.332511	0.272811	99
Es	1.104259	0.188113	0.196593	99
Es	-1.008791	-2.540141	-0.290142	99
Es	1.473508	0.378732	-0.412824	99
Es	-2.047886	-0.874894	0.421940	99
Es	-0.980908	1.474057	0.341344	99
