35
Properties=species:S:1:pos:R:3:Z:I:1 energy=-357.45822358288524 field_type=dipole dipole="0.000000 0.000000 0.000000" charge=0
N	-1.446108	-1.051136	1.106887	7
C	-0.482308	-0.833036	0.156087	6
O	-0.112378	-1.690636	-0.629013	8
C	0.106312	0.586164	0.149247	6
O	-0.306428	1.402394	0.967837	8
C	1.129432	0.971494	-0.798753	6
C	1.979242	1.295944	-1.584543	6
H	-1.718108	-0.304276	1.737367	1
H	-1.881938	-1.959526	1.176267	1
H	2.732282	1.582614	-2.281383	1
Es	1.979405	1.296013	-1.584688	99
Es	-0.174611	1.682736	0.948943	99
Es	-0.409873	-1.311988	-0.520415	99
Es	0.028490	1.020937	0.816515	99
Es	1.468989	1.479655	-1.130768	99
Es	-0.323293	1.164901	0.494232	99
Es	-1.446008	-1.051110	1.106812	99
Es	1.129219	0.971411	-0.798568	99
Es	-0.306336	1.402169	0.967627	99
Es	0.106346	0.586151	0.149169	99
Es	2.465866	1.481750	-2.033831	99
Es	-1.366495	-0.905233	0.677821	99
Es	1.735974	0.963923	-0.937977	99
Es	-0.265788	-1.958082	-0.582236	99
Es	0.632614	0.762422	-0.351836	99
Es	-0.112483	-1.690419	-0.628803	99
Es	-0.177301	-0.115819	0.144063	99
Es	-0.482383	-0.832932	0.156200	99
Es	0.107173	-1.584914	-0.818085	99
Es	-1.611162	-0.624739	1.474682	99
Es	-1.002380	-1.060351	1.030991	99
Es	-1.702038	-1.579260	1.149000	99
Es	-0.061674	-1.456069	-0.197315	99
Es	1.378926	0.936848	-1.425781	99
Es	-0.528770	1.270965	1.151513	99
35
Properties=species:S:1:pos:R:3:Z:I:1 energy=-357.45822358288524 field_type=dipole dipole="0.000000 0.000000 0.000000" charge=0
N	-1.446108	-1.051136	1.106887	7
C	-0.482308	-0.833036	0.156087	6
O	-0.112378	-1.690636	-0.629013	8
C	0.106312	0.586164	0.149247	6
O	-0.306428	1.402394	0.967837	8
C	1.129432	0.971494	-0.798753	6
C	1.979242	1.295944	-1.584543	6
H	-1.718108	-0.304276	1.737367	1
H	-1.881938	-1.959526	1.176267	1
H	2.732282	1.582614	-2.281383	1
Es	-0.177188	-0.115752	0.144182	99
Es	1.129230	0.971395	-0.798568	99
Es	-0.306327	1.402157	0.967627	99
Es	-1.611551	-0.624553	1.474468	99
Es	-1.702593	-1.579189	1.148298	99
Es	-0.410311	-1.311963	-0.519637	99
Es	-0.482373	-0.832936	0.156212	99
Es	2.465045	1.482894	-2.034168	99
Es	-0.112496	-1.690390	-0.628779	99
Es	-1.006467	-1.061385	1.034935	99
Es	-0.059426	-1.455733	-0.197657	99
Es	0.028133	1.019795	0.816485	99
Es	-1.445839	-1.051160	1.106921	99
Es	1.645581	0.795092	-1.228861	99
Es	1.979398	1.296024	-1.584684	99
Es	-0.265722	-1.957611	-0.581146	99
Es	1.684442	1.339530	-0.926313	99
Es	-0.173477	1.681908	0.947826	99
Es	-0.324307	1.164893	0.494475	99
Es	-0.528589	1.272812	1.152373	99
Es	1.251119	1.247298	-1.341741	99
Es	-1.361644	-0.904461	0.674638	99
Es	0.105336	-1.585828	-0.819584	99
Es	0.106361	0.586145	0.149182	99
Es	0.636069	0.759983	-0.349219	99
35
Properties=species:S:1:pos:R:3:Z:I:1 energy=-357.45822358288524 field_type=dipole dipole="0.000000 0.000000 0.000000" charge=0
N	-1.446108	-1.051136	1.106887	7
C	-0.482308	-0.833036	0.156087	6
O	-0.112378	-1.690636	-0.629013	8
C	0.106312	0.586164	0.149247	6
O	-0.306428	1.402394	0.967837	8
C	1.129432	0.971494	-0.798753	6
C	1.979242	1.295944	-1.584543	6
H	-1.718108	-0.304276	1.737367	1
H	-1.881938	-1.959526	1.176267	1
H	2.732282	1.582614	-2.281383	1
Es	-0.994113	-1.057632	1.019752	99
Es	0.633788	0.762890	-0.350452	99
Es	-0.410646	-1.311797	-0.519420	99
Es	-0.174934	1.682334	0.949283	99
Es	0.029006	1.020834	0.816421	99
Es	1.979399	1.296012	-1.584683	99
Es	1.310967	1.020828	-1.421518	99
Es	-0.177131	-0.115793	0.144146	99
Es	1.727708	0.886103	-1.006421	99
Es	0.105090	-1.585638	-0.819398	99
Es	-0.059138	-1.456080	-0.197642	99
Es	-0.265499	-1.957615	-0.581579	99
Es	1.129222	0.971421	-0.798561	99
Es	-1.446065	-1.051094	1.106785	99
Es	-1.609069	-0.625878	1.476698	99
Es	-1.378214	-0.906430	0.685847	99
Es	-0.482372	-0.832936	0.156206	99
Es	0.106358	0.586144	0.149178	99
Es	-0.528486	1.271076	1.151496	99
Es	2.465644	1.481380	-2.034213	99
Es	-0.323766	1.165477	0.494078	99
Es	-0.112485	-1.690381	-0.628783	99
Es	1.544095	1.473285	-1.067733	99
Es	-1.700632	-1.579707	1.150161	99
Es	-0.306323	1.402164	0.967618	99
35
Properties=species:S:1:pos:R:3:Z:I:1 energy=-357.45822358288524 field_type=dipole dipole="0.000000 0.000000 0.000000" charge=0
N	-1.446108	-1.051136	1.106887	7
C	-0.482308	-0.833036	0.156087	6
O	-0.112378	-1.690636	-0.629013	8
C	0.106312	0.586164	0.149247	6
O	-0.306428	1.402394	0.967837	8
C	1.129432	0.971494	-0.798753	6
C	1.979242	1.295944	-1.584543	6
H	-1.718108	-0.304276	1.737367	1
H	-1.881938	-1.959526	1.176267	1
H	2.732282	1.582614	-2.281383	1
Es	2.466038	1.482283	-2.033385	99
Es	-1.001565	-1.060584	1.030666	99
Es	1.411096	1.463986	-1.177323	99
Es	1.434471	0.887187	-1.413045	99
Es	-0.527070	1.269135	1.150152	99
Es	-1.610809	-0.625278	1.475046	99
Es	-1.367270	-0.904871	0.678122	99
Es	-0.265324	-1.958180	-0.582846	99
Es	-0.059668	-1.456530	-0.197260	99
Es	1.738381	1.029427	-0.903910	99
Es	0.105301	-1.585230	-0.817749	99
Es	-0.482377	-0.832934	0.156208	99
Es	-0.324242	1.165680	0.493785	99
Es	-1.702325	-1.578936	1.148657	99
Es	-0.306367	1.402223	0.967679	99
Es	-0.410477	-1.311243	-0.520120	99
Es	0.029253	1.021107	0.815839	99
Es	1.129221	0.971413	-0.798568	99
Es	-0.177341	-0.115699	0.144016	99
Es	0.106366	0.586142	0.149184	99
Es	-0.176149	1.683559	0.951311	99
Es	1.979403	1.296016	-1.584680	99
Es	-0.112479	-1.690395	-0.628796	99
Es	0.632421	0.761778	-0.352499	99
Es	-1.446083	-1.051091	1.106778	99
35
Properties=species:S:1:pos:R:3:Z:I:1 energy=-357.45822358288524 field_type=dipole dipole="0.000000 0.000000 0.000000" charge=0
N	-1.446108	-1.051136	1.106887	7
C	-0.482308	-0.833036	0.156087	6
O	-0.112378	-1.690636	-0.629013	8
C	0.106312	0.586164	0.149247	6
O	-0.306428	1.402394	0.967837	8
C	1.129432	0.971494	-0.798753	6
C	1.979242	1.295944	-1.584543	6
H	-1.718108	-0.304276	1.737367	1
H	-1.881938	-1.959526	1.176267	1
H	2.732282	1.582614	-2.281383	1
Es	-1.016074	-1.065381	1.049049	99
Es	-0.410766	-1.311756	-0.519113	99
Es	1.260099	1.129428	-1.391534	99
Es	-1.705304	-1.577556	1.145790	99
Es	0.027954	1.019905	0.816317	99
Es	-0.058696	-1.456320	-0.197561	99
Es	-0.112488	-1.690476	-0.628824	99
Es	2.465107	1.481707	-2.034634	99
Es	-0.306329	1.402173	0.967629	99
Es	-0.265205	-1.957524	-0.581796	99
Es	-0.482377	-0.832934	0.156207	99
Es	1.621478	1.428984	-0.994232	99
Es	1.699695	0.822690	-1.111061	99
Es	0.635842	0.761755	-0.348866	99
Es	-0.324848	1.164970	0.494455	99
Es	-0.177183	-0.115784	0.144126	99
Es	-0.528473	1.273864	1.153401	99
Es	-1.614081	-0.623996	1.471889	99
Es	0.106362	0.586145	0.149184	99
Es	-1.346545	-0.902799	0.665728	99
Es	-1.446081	-1.051088	1.106771	99
Es	0.104543	-1.585472	-0.819435	99
Es	1.129231	0.971415	-0.798559	99
Es	-0.172853	1.681001	0.947017	99
Es	1.979397	1.296014	-1.584686	99
35
Properties=species:S:1:pos:R:3:Z:I:1 energy=-357.45822358288524 field_type=dipole dipole="0.000000 0.000000 0.000000" charge=0
N	-1.446108	-1.051136	1.106887	7
C	-0.482308	-0.833036	0.156087	6
O	-0.112378	-1.690636	-0.629013	8
C	0.106312	0.586164	0.149247	6
O	-0.306428	1.402394	0.967837	8
C	1.129432	0.971494	-0.798753	6
C	1.979242	1.295944	-1.584543	6
H	-1.718108	-0.304276	1.737367	1
H	-1.881938	-1.959526	1.176267	1
H	2.732282	1.582614	-2.281383	1
Es	-0.992516	-1.057135	1.017928	99
Es	-0.058944	-1.456550	-0.197491	99
Es	-0.175411	1.682343	0.950055	99
Es	0.106357	0.586146	0.149178	99
Es	-0.177183	-0.115789	0.144135	99
Es	1.257148	1.140268	-1.387702	99
Es	-0.528793	1.270422	1.150965	99
Es	-0.306309	1.402162	0.967604	99
Es	0.028996	1.021098	0.816408	99
Es	1.129231	0.971413	-0.798561	99
Es	-0.322894	1.165896	0.493863	99
Es	-1.700113	-1.579618	1.150662	99
Es	-1.446010	-1.051119	1.106840	99
Es	-1.380673	-0.906588	0.686830	99
Es	0.635956	0.761714	-0.348816	99
Es	0.104741	-1.585278	-0.818758	99
Es	-0.410555	-1.311514	-0.519265	99
Es	-0.112468	-1.690414	-0.628807	99
Es	-0.265512	-1.957864	-0.582440	99
Es	1.695488	0.818440	-1.122286	99
Es	1.979397	1.296015	-1.584687	99
Es	1.628539	1.422366	-0.986894	99
Es	-1.608744	-0.626309	1.476947	99
Es	2.465055	1.481793	-2.034650	99
Es	-0.482379	-0.832932	0.156206	99
35
Properties=species:S:1:pos:R:3:Z:I:1 energy=-357.45822358288524 field_type=dipole dipole="0.000000 0.000000 0.000000" charge=0
N	-1.446108	-1.051136	1.106887	7
C	-0.482308	-0.833036	0.156087	6
O	-0.112378	-1.690636	-0.629013	8
C	0.106312	0.586164	0.149247	6
O	-0.306428	1.402394	0.967837	8
C	1.129432	0.971494	-0.798753	6
C	1.979242	1.295944	-1.584543	6
H	-1.718108	-0.304276	1.737367	1
H	-1.881938	-1.959526	1.176267	1
H	2.732282	1.582614	-2.281383	1
Es	1.979399	1.296025	-1.584679	99
Es	0.106362	0.586145	0.149184	99
Es	2.465486	1.483380	-2.033546	99
Es	-0.059340	-1.455793	-0.197241	99
Es	1.293328	1.363501	-1.278810	99
Es	1.129228	0.971408	-0.798567	99
Es	-0.482377	-0.832934	0.156207	99
Es	1.724310	1.207515	-0.884679	99
Es	-0.323805	1.165521	0.493846	99
Es	-0.265043	-1.957505	-0.581651	99
Es	-0.174953	1.682043	0.949503	99
Es	-0.177183	-0.115722	0.144179	99
Es	0.028851	1.020729	0.816160	99
Es	-1.374694	-0.905564	0.682439	99
Es	1.564657	0.810780	-1.332054	99
Es	-0.410844	-1.312033	-0.520088	99
Es	-1.701117	-1.579228	1.149765	99
Es	-0.112481	-1.690404	-0.628797	99
Es	-0.996639	-1.058881	1.024168	99
Es	0.105009	-1.585869	-0.819003	99
Es	-0.528329	1.271132	1.151606	99
Es	-1.446028	-1.051068	1.106709	99
Es	0.634571	0.759675	-0.351123	99
Es	-0.306333	1.402169	0.967631	99
Es	-1.609627	-0.626058	1.476107	99
35
Properties=species:S:1:pos:R:3:Z:I:1 energy=-357.45822358288524 field_type=dipole dipole="0.000000 0.000000 0.000000" charge=0
N	-1.446108	-1.051136	1.106887	7
C	-0.482308	-0.833036	0.156087	6
O	-0.112378	-1.690636	-0.629013	8
C	0.106312	0.586164	0.149247	6
O	-0.306428	1.402394	0.967837	8
C	1.129432	0.971494	-0.798753	6
C	1.979242	1.295944	-1.584543	6
H	-1.718108	-0.304276	1.737367	1
H	-1.881938	-1.959526	1.176267	1
H	2.732282	1.582614	-2.281383	1
Es	-0.177107	-0.115739	0.144236	99
Es	-0.265912	-1.956715	-0.580604	99
Es	0.028976	1.020805	0.816011	99
Es	-0.306332	1.402178	0.967634	99
Es	-0.175047	1.681898	0.949580	99
Es	-0.323926	1.165713	0.493810	99
Es	-0.528212	1.271079	1.151719	99
Es	-0.410466	-1.311678	-0.520382	99
Es	-1.699915	-1.579804	1.150649	99
Es	-1.384109	-0.906932	0.689881	99
Es	1.598484	0.799868	-1.295825	99
Es	-0.989604	-1.056092	1.014501	99
Es	1.979397	1.296025	-1.584680	99
Es	-1.608426	-0.626839	1.477284	99
Es	1.712598	1.260652	-0.895426	99
Es	0.106362	0.586145	0.149184	99
Es	1.270649	1.321232	-1.304907	99
Es	-0.482377	-0.832934	0.156207	99
Es	-0.059144	-1.455538	-0.197405	99
Es	-1.445989	-1.051139	1.106889	99
Es	2.465120	1.483459	-2.033795	99
Es	0.635442	0.759608	-0.350302	99
Es	-0.112485	-1.690387	-0.628785	99
Es	0.105199	-1.587310	-0.819646	99
Es	1.129231	0.971408	-0.798565	99
