39
Properties=species:S:1:pos:R:3:Z:I:1 energy=-338.77050721632764 field_type=dipole dipole="0.000000 0.000000 0.000000" charge=0
N	-2.026542	-1.455810	0.722375	7
N	-0.748042	-1.532410	0.281995	7
C	-0.140432	-0.395450	0.111345	6
C	1.291388	-0.303630	-0.348425	6
C	1.432447	1.164880	-0.380355	6
C	0.282547	1.704710	-0.003955	6
O	-0.733702	0.828400	0.312915	8
H	-2.547802	-2.295900	0.472185	1
H	-2.527202	-0.643540	0.357365	1
H	1.406837	-0.752890	-1.337275	1
H	1.959177	-0.769070	0.379535	1
H	2.325078	1.703730	-0.659695	1
H	0.026248	2.746980	0.091995	1
Es	-0.343317	1.153974	0.187504	99
Es	1.405853	0.430117	-0.379131	99
Es	-1.400574	-1.471275	0.470602	99
Es	-0.401424	-1.035229	0.489547	99
Es	-0.140522	-0.395204	0.111371	99
Es	-2.318006	-0.974803	0.474475	99
Es	-1.988632	-1.421783	1.044675	99
Es	0.571053	-0.355707	-0.116021	99
Es	-0.768902	0.843377	0.592839	99
Es	-0.499746	0.368711	0.233058	99
Es	0.103338	2.406376	0.062211	99
Es	-0.933516	0.846357	0.107268	99
Es	1.291308	-0.303576	-0.348400	99
Es	0.282224	1.704606	-0.003852	99
Es	2.033173	1.522993	-0.568625	99
Es	-0.581010	-1.028192	-0.078064	99
Es	-2.026453	-1.455849	0.721700	99
Es	-0.591243	-1.862239	0.229162	99
Es	-2.332486	-1.958152	0.549129	99
Es	-0.733406	0.828333	0.312800	99
Es	1.363072	-0.600908	-1.005999	99
Es	0.989038	1.448845	0.113783	99
Es	-0.748314	-1.531842	0.282094	99
Es	1.432513	1.164815	-0.380376	99
Es	1.731053	-0.611273	0.137789	99
Es	0.786069	1.456211	-0.519098	99
39
Properties=species:S:1:pos:R:3:Z:I:1 energy=-338.77050721632764 field_type=dipole dipole="0.000000 0.000000 0.000000" charge=0
N	-2.026542	-1.455810	0.722375	7
N	-0.748042	-1.532410	0.281995	7
C	-0.140432	-0.395450	0.111345	6
C	1.291388	-0.303630	-0.348425	6
C	1.432447	1.164880	-0.380355	6
C	0.282547	1.704710	-0.003955	6
O	-0.733702	0.828400	0.312915	8
H	-2.547802	-2.295900	0.472185	1
H	-2.527202	-0.643540	0.357365	1
H	1.406837	-0.752890	-1.337275	1
H	1.959177	-0.769070	0.379535	1
H	2.325078	1.703730	-0.659695	1
H	0.026248	2.746980	0.091995	1
Es	-2.317877	-0.974808	0.474851	99
Es	1.406059	0.430158	-0.379151	99
Es	-0.591338	-1.861520	0.229501	99
Es	-0.748329	-1.531886	0.282101	99
Es	-1.988571	-1.421757	1.044396	99
Es	-0.401318	-1.035311	0.489527	99
Es	-0.931913	0.845954	0.104955	99
Es	1.291309	-0.303577	-0.348403	99
Es	-2.026446	-1.455843	0.721679	99
Es	0.988822	1.448806	0.113584	99
Es	0.103432	2.406426	0.062311	99
Es	-0.771846	0.842876	0.591687	99
Es	1.362954	-0.600935	-1.005929	99
Es	-0.733400	0.828285	0.312811	99
Es	1.731086	-0.611328	0.137694	99
Es	0.571132	-0.355758	-0.115965	99
Es	0.786136	1.456099	-0.519153	99
Es	-0.140521	-0.395206	0.111373	99
Es	-1.400679	-1.471592	0.470578	99
Es	-2.332790	-1.958230	0.549162	99
Es	0.282226	1.704606	-0.003852	99
Es	-0.342742	1.154577	0.190080	99
Es	1.432513	1.164815	-0.380376	99
Es	-0.580826	-1.028373	-0.078434	99
Es	-0.499059	0.369100	0.233948	99
Es	2.033134	1.523108	-0.568534	99
39
Properties=species:S:1:pos:R:3:Z:I:1 energy=-338.77050721632764 field_type=dipole dipole="0.000000 0.000000 0.000000" charge=0
N	-2.026542	-1.455810	0.722375	7
N	-0.748042	-1.532410	0.281995	7
C	-0.140432	-0.395450	0.111345	6
C	1.291388	-0.303630	-0.348425	6
C	1.432447	1.164880	-0.380355	6
C	0.282547	1.704710	-0.003955	6
O	-0.733702	0.828400	0.312915	8
H	-2.547802	-2.295900	0.472185	1
H	-2.527202	-0.643540	0.357365	1
H	1.406837	-0.752890	-1.337275	1
H	1.959177	-0.769070	0.379535	1
H	2.325078	1.703730	-0.659695	1
H	0.026248	2.746980	0.091995	1
Es	1.362983	-0.600954	-1.005947	99
Es	-0.580885	-1.028266	-0.078002	99
Es	-0.140520	-0.395196	0.111371	99
Es	-1.988835	-1.422252	1.043834	99
Es	-0.401266	-1.035334	0.489492	99
Es	-0.748324	-1.531900	0.282093	99
Es	0.282226	1.704606	-0.003850	99
Es	-0.591328	-1.861484	0.229067	99
Es	-0.733342	0.828311	0.312802	99
Es	-0.928803	0.845933	0.104171	99
Es	0.989016	1.448785	0.113569	99
Es	1.731059	-0.611323	0.137712	99
Es	-0.342534	1.154238	0.190377	99
Es	-1.400386	-1.471537	0.471020	99
Es	-2.026459	-1.455845	0.721708	99
Es	-0.499533	0.368793	0.233360	99
Es	1.406051	0.430151	-0.379145	99
Es	-2.332772	-1.958172	0.548828	99
Es	1.291308	-0.303576	-0.348400	99
Es	0.103426	2.406450	0.062212	99
Es	1.432511	1.164815	-0.380374	99
Es	2.033071	1.523115	-0.568625	99
Es	0.571207	-0.355818	-0.116001	99
Es	-2.317973	-0.974492	0.475329	99
Es	-0.774782	0.843519	0.592784	99
Es	0.786028	1.456118	-0.518943	99
39
Properties=species:S:1:pos:R:3:Z:I:1 energy=-338.77050721632764 field_type=dipole dipole="0.000000 0.000000 0.000000" charge=0
N	-2.026542	-1.455810	0.722375	7
N	-0.748042	-1.532410	0.281995	7
C	-0.140432	-0.395450	0.111345	6
C	1.291388	-0.303630	-0.348425	6
C	1.432447	1.164880	-0.380355	6
C	0.282547	1.704710	-0.003955	6
O	-0.733702	0.828400	0.312915	8
H	-2.547802	-2.295900	0.472185	1
H	-2.527202	-0.643540	0.357365	1
H	1.406837	-0.752890	-1.337275	1
H	1.959177	-0.769070	0.379535	1
H	2.325078	1.703730	-0.659695	1
H	0.026248	2.746980	0.091995	1
Es	-0.733278	0.828321	0.312837	99
Es	0.103487	2.406508	0.062200	99
Es	-1.400848	-1.471825	0.470412	99
Es	1.432510	1.164816	-0.380376	99
Es	-0.401274	-1.035293	0.489436	99
Es	-0.140519	-0.395201	0.111371	99
Es	0.988921	1.448807	0.113437	99
Es	-0.580801	-1.028327	-0.077973	99
Es	-2.317864	-0.974922	0.474907	99
Es	0.786132	1.456093	-0.518826	99
Es	1.406068	0.430023	-0.379097	99
Es	-2.026456	-1.455859	0.721708	99
Es	-1.988506	-1.421642	1.044347	99
Es	0.282231	1.704605	-0.003860	99
Es	1.362956	-0.600957	-1.005973	99
Es	0.571229	-0.355770	-0.115994	99
Es	-0.936482	0.846394	0.108749	99
Es	-2.332883	-1.958251	0.549316	99
Es	-0.748328	-1.531858	0.282089	99
Es	-0.343711	1.154452	0.186912	99
Es	-0.766122	0.842839	0.591547	99
Es	-0.591253	-1.861298	0.229113	99
Es	1.291308	-0.303577	-0.348400	99
Es	1.731077	-0.611337	0.137716	99
Es	-0.499483	0.368808	0.233475	99
Es	2.033034	1.523134	-0.568629	99
39
Properties=species:S:1:pos:R:3:Z:I:1 energy=-338.77050721632764 field_type=dipole dipole="0.000000 0.000000 0.000000" charge=0
N	-2.026542	-1.455810	0.722375	7
N	-0.748042	-1.532410	0.281995	7
C	-0.140432	-0.395450	0.111345	6
C	1.291388	-0.303630	-0.348425	6
C	1.432447	1.164880	-0.380355	6
C	0.282547	1.704710	-0.003955	6
O	-0.733702	0.828400	0.312915	8
H	-2.547802	-2.295900	0.472185	1
H	-2.527202	-0.643540	0.357365	1
H	1.406837	-0.752890	-1.337275	1
H	1.959177	-0.769070	0.379535	1
H	2.325078	1.703730	-0.659695	1
H	0.026248	2.746980	0.091995	1
Es	0.571250	-0.355816	-0.116024	99
Es	1.406092	0.430079	-0.379239	99
Es	-2.026451	-1.455843	0.721699	99
Es	1.432509	1.164816	-0.380376	99
Es	-0.733296	0.828355	0.312758	99
Es	-0.933977	0.847148	0.107341	99
Es	0.103503	2.406527	0.062155	99
Es	-0.500713	0.368291	0.233545	99
Es	-1.988572	-1.421338	1.044409	99
Es	-0.140522	-0.395206	0.111369	99
Es	-1.400795	-1.471720	0.470352	99
Es	1.731051	-0.611370	0.137696	99
Es	-2.332915	-1.958342	0.549577	99
Es	-0.342385	1.153713	0.188265	99
Es	0.786107	1.456148	-0.518703	99
Es	0.282220	1.704606	-0.003859	99
Es	1.291308	-0.303576	-0.348400	99
Es	2.032967	1.523091	-0.568674	99
Es	-0.580677	-1.028402	-0.078098	99
Es	-0.401194	-1.035319	0.489501	99
Es	-0.768768	0.843289	0.591622	99
Es	-0.591469	-1.861259	0.229237	99
Es	-2.317803	-0.975153	0.474614	99
Es	1.362967	-0.600963	-1.005932	99
Es	-0.748326	-1.531859	0.282091	99
Es	0.989035	1.448787	0.113516	99
39
Properties=species:S:1:pos:R:3:Z:I:1 energy=-338.77050721632764 field_type=dipole dipole="0.000000 0.000000 0.000000" charge=0
N	-2.026542	-1.455810	0.722375	7
N	-0.748042	-1.532410	0.281995	7
C	-0.140432	-0.395450	0.111345	6
C	1.291388	-0.303630	-0.348425	6
C	1.432447	1.164880	-0.380355	6
C	0.282547	1.704710	-0.003955	6
O	-0.733702	0.828400	0.312915	8
H	-2.547802	-2.295900	0.472185	1
H	-2.527202	-0.643540	0.357365	1
H	1.406837	-0.752890	-1.337275	1
H	1.959177	-0.769070	0.379535	1
H	2.325078	1.703730	-0.659695	1
H	0.026248	2.746980	0.091995	1
Es	0.786177	1.456142	-0.518834	99
Es	-0.919457	0.842671	0.098865	99
Es	0.282229	1.704607	-0.003854	99
Es	-0.341879	1.154491	0.192242	99
Es	-0.580682	-1.028502	-0.078162	99
Es	-0.140524	-0.395208	0.111364	99
Es	0.571315	-0.355857	-0.115934	99
Es	0.988811	1.448758	0.113108	99
Es	0.103567	2.406581	0.062262	99
Es	-1.401032	-1.472192	0.470408	99
Es	-0.591278	-1.860804	0.229334	99
Es	-0.733328	0.828247	0.312833	99
Es	-0.401247	-1.035235	0.489248	99
Es	1.730977	-0.611353	0.137647	99
Es	-0.748315	-1.531850	0.282085	99
Es	-1.988436	-1.421263	1.044180	99
Es	1.291309	-0.303576	-0.348400	99
Es	-2.026444	-1.455842	0.721695	99
Es	-2.317828	-0.975102	0.474636	99
Es	1.362983	-0.601031	-1.005924	99
Es	-2.333019	-1.958406	0.549866	99
Es	-0.785927	0.847129	0.591730	99
Es	1.432509	1.164817	-0.380374	99
Es	1.406189	0.430048	-0.379101	99
Es	2.033037	1.523146	-0.568379	99
Es	-0.498562	0.368269	0.237900	99
39
Properties=species:S:1:pos:R:3:Z:I:1 energy=-338.77050721632764 field_type=dipole dipole="0.000000 0.000000 0.000000" charge=0
N	-2.026542	-1.455810	0.722375	7
N	-0.748042	-1.532410	0.281995	7
C	-0.140432	-0.395450	0.111345	6
C	1.291388	-0.303630	-0.348425	6
C	1.432447	1.164880	-0.380355	6
C	0.282547	1.704710	-0.003955	6
O	-0.733702	0.828400	0.312915	8
H	-2.547802	-2.295900	0.472185	1
H	-2.527202	-0.643540	0.357365	1
H	1.406837	-0.752890	-1.337275	1
H	1.959177	-0.769070	0.379535	1
H	2.325078	1.703730	-0.659695	1
H	0.026248	2.746980	0.091995	1
Es	-0.401054	-1.035446	0.489466	99
Es	-0.733348	0.828290	0.312784	99
Es	-0.140523	-0.395201	0.111365	99
Es	1.362975	-0.601038	-1.005891	99
Es	1.432510	1.164816	-0.380373	99
Es	0.988821	1.448718	0.113103	99
Es	-0.500698	0.368575	0.230415	99
Es	0.103605	2.406622	0.062204	99
Es	0.786207	1.456102	-0.518621	99
Es	-0.763808	0.840812	0.591666	99
Es	-2.026464	-1.455848	0.721733	99
Es	0.571326	-0.355836	-0.116101	99
Es	-0.580570	-1.028355	-0.077820	99
Es	-0.591408	-1.860589	0.229003	99
Es	1.730987	-0.611393	0.137708	99
Es	-1.401211	-1.472240	0.470088	99
Es	-0.748328	-1.531855	0.282092	99
Es	-0.343577	1.154834	0.187488	99
Es	-1.988286	-1.421086	1.044166	99
Es	1.291309	-0.303576	-0.348403	99
Es	2.032955	1.523206	-0.568504	99
Es	0.282227	1.704606	-0.003857	99
Es	-2.333104	-1.958519	0.550017	99
Es	-0.937816	0.848318	0.111227	99
Es	-2.317813	-0.975229	0.474674	99
Es	1.406232	0.429994	-0.379187	99
39
Properties=species:S:1:pos:R:3:Z:I:1 energy=-338.77050721632764 field_type=dipole dipole="0.000000 0.000000 0.000000" charge=0
N	-2.026542	-1.455810	0.722375	7
N	-0.748042	-1.532410	0.281995	7
C	-0.140432	-0.395450	0.111345	6
C	1.291388	-0.303630	-0.348425	6
C	1.432447	1.164880	-0.380355	6
C	0.282547	1.704710	-0.003955	6
O	-0.733702	0.828400	0.312915	8
H	-2.547802	-2.295900	0.472185	1
H	-2.527202	-0.643540	0.357365	1
H	1.406837	-0.752890	-1.337275	1
H	1.959177	-0.769070	0.379535	1
H	2.325078	1.703730	-0.659695	1
H	0.026248	2.746980	0.091995	1
Es	-0.769347	0.842387	0.592237	99
Es	-2.317957	-0.975191	0.474714	99
Es	-0.748328	-1.531863	0.282093	99
Es	-0.140522	-0.395209	0.111371	99
Es	1.731005	-0.611402	0.137684	99
Es	-0.342463	1.153917	0.189079	99
Es	1.432510	1.164816	-0.380378	99
Es	-0.591408	-1.860421	0.228899	99
Es	0.282231	1.704606	-0.003848	99
Es	0.988799	1.448748	0.113012	99
Es	1.406203	0.429973	-0.379204	99
Es	-0.501302	0.367992	0.231287	99
Es	-0.401019	-1.035403	0.489422	99
Es	-0.733316	0.828298	0.312702	99
Es	0.786272	1.456087	-0.518485	99
Es	2.032916	1.523213	-0.568506	99
Es	-2.333102	-1.958616	0.550321	99
Es	-0.932894	0.848222	0.108248	99
Es	1.362936	-0.601049	-1.005905	99
Es	-2.026450	-1.455843	0.721721	99
Es	-1.988244	-1.421072	1.043824	99
Es	1.291309	-0.303576	-0.348400	99
Es	-1.401185	-1.472340	0.470161	99
Es	0.103633	2.406671	0.062171	99
Es	-0.580555	-1.028371	-0.077709	99
Es	0.571424	-0.355891	-0.116069	99
39
Properties=species:S:1:pos:R:3:Z:I:1 energy=-338.77050721632764 field_type=dipole dipole="0.000000 0.000000 0.000000" charge=0
N	-2.026542	-1.455810	0.722375	7
N	-0.748042	-1.532410	0.281995	7
C	-0.140432	-0.395450	0.111345	6
C	1.291388	-0.303630	-0.348425	6
C	1.432447	1.164880	-0.380355	6
C	0.282547	1.704710	-0.003955	6
O	-0.733702	0.828400	0.312915	8
H	-2.547802	-2.295900	0.472185	1
H	-2.527202	-0.643540	0.357365	1
H	1.406837	-0.752890	-1.337275	1
H	1.959177	-0.769070	0.379535	1
H	2.325078	1.703730	-0.659695	1
H	0.026248	2.746980	0.091995	1
Es	-0.580510	-1.028303	-0.077584	99
Es	1.406274	0.430012	-0.379184	99
Es	1.291308	-0.303575	-0.348399	99
Es	1.432507	1.164817	-0.380375	99
Es	-0.748326	-1.531864	0.282091	99
Es	-2.333181	-1.958637	0.550469	99
Es	1.730963	-0.611481	0.137631	99
Es	-2.317867	-0.975263	0.474566	99
Es	0.103678	2.406722	0.062134	99
Es	-0.947631	0.850645	0.119963	99
Es	-0.401022	-1.035482	0.489401	99
Es	-0.501883	0.368494	0.226970	99
Es	-2.026449	-1.455843	0.721700	99
Es	-0.140522	-0.395208	0.111369	99
Es	0.786294	1.456072	-0.518334	99
Es	-0.345088	1.155529	0.183638	99
Es	0.988795	1.448671	0.112982	99
Es	-1.988268	-1.420914	1.043858	99
Es	-1.401257	-1.472590	0.470206	99
Es	-0.733392	0.828324	0.312790	99
Es	2.032893	1.523229	-0.568564	99
Es	0.571494	-0.355918	-0.116086	99
Es	0.282228	1.704606	-0.003854	99
Es	-0.591408	-1.860187	0.228786	99
Es	-0.751357	0.837884	0.590182	99
Es	1.362873	-0.601057	-1.005914	99
39
Properties=species:S:1:pos:R:3:Z:I:1 energy=-338.77050721632764 field_type=dipole dipole="0.000000 0.000000 0.000000" charge=0
N	-2.026542	-1.455810	0.722375	7
N	-0.748042	-1.532410	0.281995	7
C	-0.140432	-0.395450	0.111345	6
C	1.291388	-0.303630	-0.348425	6
C	1.432447	1.164880	-0.380355	6
C	0.282547	1.704710	-0.003955	6
O	-0.733702	0.828400	0.312915	8
H	-2.547802	-2.295900	0.472185	1
H	-2.527202	-0.643540	0.357365	1
H	1.406837	-0.752890	-1.337275	1
H	1.959177	-0.769070	0.379535	1
H	2.325078	1.703730	-0.659695	1
H	0.026248	2.746980	0.091995	1
Es	1.730965	-0.611487	0.137638	99
Es	-0.401004	-1.035425	0.489271	99
Es	-0.342783	1.155069	0.189719	99
Es	-1.401308	-1.472687	0.470157	99
Es	0.571506	-0.355992	-0.116117	99
Es	-0.140522	-0.395209	0.111370	99
Es	0.282228	1.704606	-0.003855	99
Es	-0.580514	-1.028345	-0.077569	99
Es	-2.317867	-0.975329	0.474514	99
Es	-0.775066	0.844172	0.591317	99
Es	-0.499831	0.367918	0.234396	99
Es	1.291309	-0.303575	-0.348400	99
Es	-0.591379	-1.860084	0.228832	99
Es	1.362906	-0.601072	-1.005790	99
Es	0.103699	2.406726	0.062111	99
Es	-2.026449	-1.455843	0.721703	99
Es	-1.988237	-1.420791	1.043765	99
Es	-0.748322	-1.531854	0.282089	99
Es	1.432506	1.164817	-0.380375	99
Es	2.032746	1.523306	-0.568429	99
Es	0.988773	1.448793	0.112772	99
Es	-0.733329	0.828309	0.312819	99
Es	-0.928401	0.845389	0.105362	99
Es	-2.333230	-1.958691	0.550645	99
Es	1.406388	0.429878	-0.379220	99
Es	0.786363	1.456083	-0.518283	99
