39
Properties=species:S:1:pos:R:3:Z:I:1 energy=-338.7124578093745 field_type=dipole dipole="0.000000 0.000000 0.000000" charge=0
N	-2.494666	-0.620292	-0.313313	7
N	-1.170816	-0.657792	-0.588623	7
C	-0.432436	-0.449362	0.461307	6
C	1.085334	-0.425362	0.360267	6
O	1.530354	-1.089822	-0.812733	8
C	1.567344	0.935808	0.360267	6
C	1.964634	2.057709	0.360267	6
H	-3.013356	-1.036992	-1.092743	1
H	-2.829296	0.347368	-0.281613	1
H	-0.864146	-0.249642	1.459627	1
H	1.478854	-0.973062	1.222377	1
H	0.849274	-0.897902	-1.486383	1
H	2.328914	3.059338	0.351297	1
Es	1.612244	1.553576	0.039987	99
Es	1.322134	0.285606	0.368465	99
Es	1.530029	-1.089616	-0.812686	99
Es	0.325529	-0.422582	0.405198	99
Es	-1.831710	-0.620019	-0.454216	99
Es	1.795547	-0.957629	-0.890782	99
Es	1.570441	1.560316	0.662499	99
Es	1.340477	-0.811791	-0.365087	99
Es	-2.668674	-0.035715	-0.304152	99
Es	-2.552592	-0.784833	-0.007341	99
Es	1.964708	2.057956	0.360269	99
Es	1.085350	-0.425334	0.360080	99
Es	1.345095	-0.774265	0.943436	99
Es	-2.796670	-0.859116	-0.794722	99
Es	2.200660	2.711131	0.355352	99
Es	-2.494482	-0.619988	-0.313855	99
Es	1.170871	-0.972137	-1.157110	99
Es	-0.715752	-0.309501	1.134877	99
Es	-0.432362	-0.449313	0.461295	99
Es	-1.171026	-0.657668	-0.588119	99
Es	-0.860736	-0.278543	-0.191521	99
Es	-1.039651	-0.741235	-0.936761	99
Es	2.101555	1.385129	0.388591	99
Es	-0.840283	-0.842669	-0.056452	99
Es	1.567243	0.935556	0.360268	99
Es	1.501896	-1.384328	-0.744862	99
39
Properties=species:S:1:pos:R:3:Z:I:1 energy=-338.7124578093745 field_type=dipole dipole="0.000000 0.000000 0.000000" charge=0
N	-2.494666	-0.620292	-0.313313	7
N	-1.170816	-0.657792	-0.588623	7
C	-0.432436	-0.449362	0.461307	6
C	1.085334	-0.425362	0.360267	6
O	1.530354	-1.089822	-0.812733	8
C	1.567344	0.935808	0.360267	6
C	1.964634	2.057709	0.360267	6
H	-3.013356	-1.036992	-1.092743	1
H	-2.829296	0.347368	-0.281613	1
H	-0.864146	-0.249642	1.459627	1
H	1.478854	-0.973062	1.222377	1
H	0.849274	-0.897902	-1.486383	1
H	2.328914	3.059338	0.351297	1
Es	1.322277	0.285567	0.368388	99
Es	1.794472	-0.957636	-0.891386	99
Es	0.325590	-0.422676	0.405234	99
Es	-0.860885	-0.278995	-0.191320	99
Es	1.530037	-1.089589	-0.812696	99
Es	2.100580	1.386382	0.405602	99
Es	1.340942	-0.811267	-0.364627	99
Es	1.085350	-0.425334	0.360078	99
Es	-1.039371	-0.740543	-0.936658	99
Es	2.200493	2.711122	0.355236	99
Es	-2.552477	-0.784445	-0.007868	99
Es	1.503039	-1.383990	-0.744769	99
Es	-2.494480	-0.619997	-0.313864	99
Es	1.567250	0.935564	0.360287	99
Es	-2.796900	-0.859336	-0.795024	99
Es	1.345089	-0.774205	0.943441	99
Es	-1.831860	-0.620039	-0.454092	99
Es	1.964713	2.057955	0.360266	99
Es	1.625767	1.547726	0.032856	99
Es	1.557867	1.564950	0.652797	99
Es	-2.668687	-0.035844	-0.303697	99
Es	1.170357	-0.973062	-1.157079	99
Es	-0.840136	-0.842781	-0.056565	99
Es	-0.715804	-0.309565	1.134900	99
Es	-0.432359	-0.449310	0.461296	99
Es	-1.171021	-0.657663	-0.588081	99
39
Properties=species:S:1:pos:R:3:Z:I:1 energy=-338.7124578093745 field_type=dipole dipole="0.000000 0.000000 0.000000" charge=0
N	-2.494666	-0.620292	-0.313313	7
N	-1.170816	-0.657792	-0.588623	7
C	-0.432436	-0.449362	0.461307	6
C	1.085334	-0.425362	0.360267	6
O	1.530354	-1.089822	-0.812733	8
C	1.567344	0.935808	0.360267	6
C	1.964634	2.057709	0.360267	6
H	-3.013356	-1.036992	-1.092743	1
H	-2.829296	0.347368	-0.281613	1
H	-0.864146	-0.249642	1.459627	1
H	1.478854	-0.973062	1.222377	1
H	0.849274	-0.897902	-1.486383	1
H	2.328914	3.059338	0.351297	1
Es	1.794096	-0.957053	-0.890875	99
Es	-2.668760	-0.035892	-0.303517	99
Es	1.322169	0.285453	0.368345	99
Es	-0.432358	-0.449310	0.461299	99
Es	0.325581	-0.422576	0.405265	99
Es	-0.860587	-0.278818	-0.191656	99
Es	-2.552377	-0.784402	-0.008023	99
Es	1.340501	-0.811645	-0.364744	99
Es	1.345162	-0.774124	0.943485	99
Es	-2.797019	-0.859367	-0.794955	99
Es	-1.171023	-0.657662	-0.588077	99
Es	2.200601	2.711079	0.355252	99
Es	-1.039515	-0.740944	-0.936264	99
Es	2.096924	1.388821	0.432279	99
Es	1.567246	0.935557	0.360270	99
Es	-1.831893	-0.619922	-0.454259	99
Es	-0.840175	-0.842648	-0.056537	99
Es	1.964715	2.057959	0.360260	99
Es	1.538459	1.572351	0.635973	99
Es	1.503379	-1.384681	-0.745175	99
Es	1.170861	-0.972508	-1.157136	99
Es	1.085349	-0.425333	0.360079	99
Es	-2.494478	-0.619980	-0.313873	99
Es	-0.715844	-0.309564	1.134893	99
Es	1.648808	1.537896	0.023019	99
Es	1.530018	-1.089697	-0.812675	99
39
Properties=species:S:1:pos:R:3:Z:I:1 energy=-338.7124578093745 field_type=dipole dipole="0.000000 0.000000 0.000000" charge=0
N	-2.494666	-0.620292	-0.313313	7
N	-1.170816	-0.657792	-0.588623	7
C	-0.432436	-0.449362	0.461307	6
C	1.085334	-0.425362	0.360267	6
O	1.530354	-1.089822	-0.812733	8
C	1.567344	0.935808	0.360267	6
C	1.964634	2.057709	0.360267	6
H	-3.013356	-1.036992	-1.092743	1
H	-2.829296	0.347368	-0.281613	1
H	-0.864146	-0.249642	1.459627	1
H	1.478854	-0.973062	1.222377	1
H	0.849274	-0.897902	-1.486383	1
H	2.328914	3.059338	0.351297	1
Es	1.340183	-0.812262	-0.364611	99
Es	1.794049	-0.956635	-0.890572	99
Es	1.567250	0.935562	0.360268	99
Es	2.101575	1.385311	0.392451	99
Es	-2.494478	-0.619995	-0.313858	99
Es	-2.552319	-0.784202	-0.008220	99
Es	1.345131	-0.774132	0.943529	99
Es	0.325683	-0.422447	0.405223	99
Es	1.964714	2.057955	0.360265	99
Es	-0.715870	-0.309639	1.134885	99
Es	-2.668752	-0.035897	-0.303411	99
Es	-0.860777	-0.278930	-0.191434	99
Es	1.567192	1.561497	0.660344	99
Es	-2.797166	-0.859470	-0.794908	99
Es	1.503703	-1.384348	-0.745450	99
Es	1.322033	0.285446	0.368434	99
Es	-0.432360	-0.449311	0.461296	99
Es	-1.039519	-0.740426	-0.936120	99
Es	-1.170962	-0.657662	-0.588108	99
Es	1.530150	-1.089700	-0.812705	99
Es	1.615516	1.552200	0.038278	99
Es	-0.839993	-0.842822	-0.056681	99
Es	-1.831901	-0.620210	-0.454382	99
Es	1.170802	-0.972640	-1.157356	99
Es	2.200604	2.711080	0.355420	99
Es	1.085350	-0.425334	0.360079	99
39
Properties=species:S:1:pos:R:3:Z:I:1 energy=-338.7124578093745 field_type=dipole dipole="0.000000 0.000000 0.000000" charge=0
N	-2.494666	-0.620292	-0.313313	7
N	-1.170816	-0.657792	-0.588623	7
C	-0.432436	-0.449362	0.461307	6
C	1.085334	-0.425362	0.360267	6
O	1.530354	-1.089822	-0.812733	8
C	1.567344	0.935808	0.360267	6
C	1.964634	2.057709	0.360267	6
H	-3.013356	-1.036992	-1.092743	1
H	-2.829296	0.347368	-0.281613	1
H	-0.864146	-0.249642	1.459627	1
H	1.478854	-0.973062	1.222377	1
H	0.849274	-0.897902	-1.486383	1
H	2.328914	3.059338	0.351297	1
Es	1.085350	-0.425334	0.360077	99
Es	-2.797238	-0.859417	-0.794903	99
Es	2.099285	1.382486	0.328675	99
Es	-0.715887	-0.309615	1.134882	99
Es	1.530092	-1.089526	-0.812689	99
Es	1.796026	-0.959421	-0.890556	99
Es	0.325700	-0.422492	0.405201	99
Es	1.567246	0.935559	0.360274	99
Es	1.321875	0.285445	0.368334	99
Es	1.500860	-1.383115	-0.744876	99
Es	-0.432360	-0.449308	0.461295	99
Es	1.565035	1.573863	0.070824	99
Es	-2.494495	-0.620002	-0.313849	99
Es	-1.831926	-0.620469	-0.454463	99
Es	-1.171029	-0.657665	-0.588093	99
Es	1.964713	2.057954	0.360262	99
Es	-1.039291	-0.740458	-0.935857	99
Es	1.345165	-0.774094	0.943572	99
Es	1.171363	-0.972256	-1.157791	99
Es	-0.840021	-0.842687	-0.056644	99
Es	2.200816	2.710979	0.355476	99
Es	1.619849	1.542701	0.691631	99
Es	1.340597	-0.811250	-0.364828	99
Es	-0.860740	-0.278950	-0.191514	99
Es	-2.552265	-0.784137	-0.008789	99
Es	-2.668878	-0.035800	-0.302995	99
39
Properties=species:S:1:pos:R:3:Z:I:1 energy=-338.7124578093745 field_type=dipole dipole="0.000000 0.000000 0.000000" charge=0
N	-2.494666	-0.620292	-0.313313	7
N	-1.170816	-0.657792	-0.588623	7
C	-0.432436	-0.449362	0.461307	6
C	1.085334	-0.425362	0.360267	6
O	1.530354	-1.089822	-0.812733	8
C	1.567344	0.935808	0.360267	6
C	1.964634	2.057709	0.360267	6
H	-3.013356	-1.036992	-1.092743	1
H	-2.829296	0.347368	-0.281613	1
H	-0.864146	-0.249642	1.459627	1
H	1.478854	-0.973062	1.222377	1
H	0.849274	-0.897902	-1.486383	1
H	2.328914	3.059338	0.351297	1
Es	1.567227	0.935558	0.360276	99
Es	-1.832025	-0.620602	-0.454567	99
Es	-1.039127	-0.740611	-0.935867	99
Es	1.624021	1.548571	0.034060	99
Es	1.794011	-0.957777	-0.890941	99
Es	-1.171028	-0.657656	-0.588063	99
Es	1.340595	-0.811440	-0.364328	99
Es	-2.552364	-0.784031	-0.008510	99
Es	-2.494480	-0.619995	-0.313862	99
Es	1.321834	0.285341	0.368316	99
Es	1.559551	1.564405	0.655018	99
Es	2.200756	2.710987	0.355239	99
Es	1.170637	-0.973401	-1.157716	99
Es	-0.860756	-0.279037	-0.191471	99
Es	1.530072	-1.089600	-0.812701	99
Es	-0.840082	-0.842248	-0.056670	99
Es	-0.715925	-0.309640	1.134879	99
Es	1.345221	-0.774045	0.943634	99
Es	-0.432360	-0.449307	0.461296	99
Es	-2.797317	-0.859437	-0.794835	99
Es	1.964722	2.057950	0.360271	99
Es	2.100599	1.386117	0.402257	99
Es	0.325806	-0.422529	0.405236	99
Es	1.085351	-0.425328	0.360084	99
Es	-2.668721	-0.035884	-0.303256	99
Es	1.503623	-1.383372	-0.745125	99
39
Properties=species:S:1:pos:R:3:Z:I:1 energy=-338.7124578093745 field_type=dipole dipole="0.000000 0.000000 0.000000" charge=0
N	-2.494666	-0.620292	-0.313313	7
N	-1.170816	-0.657792	-0.588623	7
C	-0.432436	-0.449362	0.461307	6
C	1.085334	-0.425362	0.360267	6
O	1.530354	-1.089822	-0.812733	8
C	1.567344	0.935808	0.360267	6
C	1.964634	2.057709	0.360267	6
H	-3.013356	-1.036992	-1.092743	1
H	-2.829296	0.347368	-0.281613	1
H	-0.864146	-0.249642	1.459627	1
H	1.478854	-0.973062	1.222377	1
H	0.849274	-0.897902	-1.486383	1
H	2.328914	3.059338	0.351297	1
Es	-0.860458	-0.279178	-0.191731	99
Es	-2.797334	-0.859488	-0.794942	99
Es	1.340881	-0.811094	-0.364425	99
Es	2.200699	2.710940	0.355409	99
Es	1.530077	-1.089498	-0.812719	99
Es	-0.840040	-0.842312	-0.056704	99
Es	2.102234	1.384532	0.382277	99
Es	1.567241	0.935557	0.360263	99
Es	1.606556	1.556063	0.042783	99
Es	-0.716005	-0.309595	1.134884	99
Es	0.325775	-0.422364	0.405189	99
Es	-2.552306	-0.783984	-0.008725	99
Es	1.345129	-0.774059	0.943615	99
Es	-1.171022	-0.657660	-0.588075	99
Es	1.964712	2.057954	0.360264	99
Es	1.321999	0.285314	0.368410	99
Es	-2.668823	-0.035947	-0.303045	99
Es	1.500762	-1.382334	-0.745002	99
Es	-2.494476	-0.620002	-0.313847	99
Es	1.575358	1.558496	0.666121	99
Es	1.795895	-0.960385	-0.890394	99
Es	-1.832123	-0.620257	-0.454475	99
Es	1.085349	-0.425335	0.360078	99
Es	1.171382	-0.972290	-1.158284	99
Es	-1.039259	-0.740762	-0.935566	99
Es	-0.432364	-0.449324	0.461295	99
39
Properties=species:S:1:pos:R:3:Z:I:1 energy=-338.7124578093745 field_type=dipole dipole="0.000000 0.000000 0.000000" charge=0
N	-2.494666	-0.620292	-0.313313	7
N	-1.170816	-0.657792	-0.588623	7
C	-0.432436	-0.449362	0.461307	6
C	1.085334	-0.425362	0.360267	6
O	1.530354	-1.089822	-0.812733	8
C	1.567344	0.935808	0.360267	6
C	1.964634	2.057709	0.360267	6
H	-3.013356	-1.036992	-1.092743	1
H	-2.829296	0.347368	-0.281613	1
H	-0.864146	-0.249642	1.459627	1
H	1.478854	-0.973062	1.222377	1
H	0.849274	-0.897902	-1.486383	1
H	2.328914	3.059338	0.351297	1
Es	1.340746	-0.811337	-0.364175	99
Es	1.567246	0.935559	0.360274	99
Es	1.964731	2.057944	0.360283	99
Es	-0.432360	-0.449308	0.461295	99
Es	-1.832050	-0.620607	-0.454639	99
Es	-2.494467	-0.619992	-0.313864	99
Es	-0.715999	-0.309639	1.134889	99
Es	-2.797358	-0.859684	-0.794646	99
Es	2.100439	1.386519	0.409197	99
Es	-1.039310	-0.740523	-0.935414	99
Es	1.085350	-0.425334	0.360079	99
Es	1.321975	0.285226	0.368482	99
Es	-0.839976	-0.842377	-0.056772	99
Es	1.530049	-1.089646	-0.812690	99
Es	1.504112	-1.383764	-0.745356	99
Es	1.629720	1.546140	0.031409	99
Es	-1.171037	-0.657656	-0.588065	99
Es	0.325780	-0.422467	0.405213	99
Es	1.793321	-0.957577	-0.890944	99
Es	1.170781	-0.973295	-1.157688	99
Es	-2.552172	-0.783853	-0.009073	99
Es	-0.860504	-0.279013	-0.191669	99
Es	2.200602	2.710981	0.355402	99
Es	1.345185	-0.773993	0.943612	99
Es	1.554062	1.566417	0.650464	99
Es	-2.669023	-0.035734	-0.302952	99
39
Properties=species:S:1:pos:R:3:Z:I:1 energy=-338.7124578093745 field_type=dipole dipole="0.000000 0.000000 0.000000" charge=0
N	-2.494666	-0.620292	-0.313313	7
N	-1.170816	-0.657792	-0.588623	7
C	-0.432436	-0.449362	0.461307	6
C	1.085334	-0.425362	0.360267	6
O	1.530354	-1.089822	-0.812733	8
C	1.567344	0.935808	0.360267	6
C	1.964634	2.057709	0.360267	6
H	-3.013356	-1.036992	-1.092743	1
H	-2.829296	0.347368	-0.281613	1
H	-0.864146	-0.249642	1.459627	1
H	1.478854	-0.973062	1.222377	1
H	0.849274	-0.897902	-1.486383	1
H	2.328914	3.059338	0.351297	1
Es	1.560058	1.564148	0.655164	99
Es	-2.552308	-0.783745	-0.009180	99
Es	2.200559	2.710990	0.355423	99
Es	1.340499	-0.811590	-0.363895	99
Es	1.321843	0.285196	0.368341	99
Es	-0.839956	-0.842190	-0.056795	99
Es	1.964713	2.057951	0.360266	99
Es	-0.860437	-0.279238	-0.191753	99
Es	1.792746	-0.956748	-0.891244	99
Es	0.325854	-0.422400	0.405224	99
Es	1.085349	-0.425334	0.360080	99
Es	1.345179	-0.773973	0.943673	99
Es	1.623121	1.548984	0.034460	99
Es	-1.039177	-0.740573	-0.935239	99
Es	-2.494481	-0.619995	-0.313859	99
Es	2.101162	1.385913	0.401593	99
Es	1.530108	-1.089606	-0.812729	99
Es	1.505263	-1.383541	-0.745517	99
Es	-1.171022	-0.657663	-0.588082	99
Es	-0.432360	-0.449309	0.461295	99
Es	-2.797385	-0.859602	-0.794693	99
Es	1.170446	-0.974141	-1.157508	99
Es	-2.668948	-0.035745	-0.302939	99
Es	-1.832139	-0.620656	-0.454582	99
Es	-0.716091	-0.309705	1.134875	99
Es	1.567246	0.935561	0.360275	99
