39
Properties=species:S:1:pos:R:3:Z:I:1 energy=-338.77921641330147 field_type=dipole dipole="0.000000 0.000000 0.000000" charge=0
O	-1.955295	0.538438	1.719551	8
C	-1.144725	0.321468	0.835391	6
C	-0.594744	-1.014292	0.424471	6
C	0.325765	-0.658642	-0.700689	6
C	1.502045	0.262088	-0.484059	6
N	0.246535	0.774628	-1.024239	7
N	-0.535335	1.268468	0.027141	7
H	-1.410625	-1.656302	0.082351	1
H	-0.056835	-1.477462	1.255191	1
H	0.334645	-1.351422	-1.529199	1
H	1.791245	0.546668	0.520971	1
H	2.323816	0.208158	-1.188609	1
H	-0.826495	2.238208	0.061731	1
Es	0.216236	0.917749	-1.355000	99
Es	-2.039050	0.276940	1.856023	99
Es	2.055262	0.225178	-0.962709	99
Es	0.335902	-1.125105	-1.264314	99
Es	-2.020340	0.840919	1.742188	99
Es	-0.706495	1.834876	0.026380	99
Es	0.845233	0.683475	-0.771692	99
Es	-0.145603	1.029818	-0.476781	99
Es	-0.868675	-0.360613	0.631627	99
Es	-0.910168	0.920330	0.175583	99
Es	-0.535589	1.268293	0.026963	99
Es	0.246593	0.774339	-1.023556	99
Es	-0.239580	-1.314288	0.978664	99
Es	-1.955068	0.538422	1.719297	99
Es	-0.116858	-0.847327	-0.133094	99
Es	1.501818	0.262089	-0.484142	99
Es	0.152101	0.141213	-0.934918	99
Es	-1.869229	0.440272	1.259362	99
Es	-1.138435	-1.434971	0.193014	99
Es	-0.594725	-1.014229	0.424439	99
Es	1.686648	0.454800	0.195795	99
Es	1.033998	-0.377091	-0.505110	99
Es	0.325788	-0.658385	-0.700694	99
Es	-1.495733	0.494692	1.588572	99
Es	-0.424294	1.134366	0.369080	99
Es	-1.144614	0.321556	0.835268	99
39
Properties=species:S:1:pos:R:3:Z:I:1 energy=-338.77921641330147 field_type=dipole dipole="0.000000 0.000000 0.000000" charge=0
O	-1.955295	0.538438	1.719551	8
C	-1.144725	0.321468	0.835391	6
C	-0.594744	-1.014292	0.424471	6
C	0.325765	-0.658642	-0.700689	6
C	1.502045	0.262088	-0.484059	6
N	0.246535	0.774628	-1.024239	7
N	-0.535335	1.268468	0.027141	7
H	-1.410625	-1.656302	0.082351	1
H	-0.056835	-1.477462	1.255191	1
H	0.334645	-1.351422	-1.529199	1
H	1.791245	0.546668	0.520971	1
H	2.323816	0.208158	-1.188609	1
H	-0.826495	2.238208	0.061731	1
Es	0.246606	0.774330	-1.023565	99
Es	0.152154	0.141151	-0.934862	99
Es	0.335853	-1.125036	-1.264254	99
Es	1.686664	0.454762	0.195754	99
Es	-1.496122	0.493104	1.586806	99
Es	0.215955	0.917352	-1.354842	99
Es	-0.909800	0.919868	0.176571	99
Es	-0.239468	-1.314350	0.978683	99
Es	-1.870856	0.441089	1.259424	99
Es	-0.594722	-1.014227	0.424439	99
Es	-1.955050	0.538398	1.719280	99
Es	0.845577	0.683909	-0.771883	99
Es	-2.019004	0.841789	1.744308	99
Es	1.501817	0.262084	-0.484142	99
Es	0.325786	-0.658398	-0.700692	99
Es	-0.423727	1.135047	0.368650	99
Es	-1.138529	-1.434884	0.193069	99
Es	-0.707073	1.834657	0.026154	99
Es	-0.868520	-0.360675	0.631667	99
Es	-0.146144	1.029855	-0.477116	99
Es	-1.144613	0.321556	0.835269	99
Es	-2.038425	0.276874	1.855576	99
Es	2.055210	0.225274	-0.962633	99
Es	1.034059	-0.377162	-0.505285	99
Es	-0.116946	-0.847367	-0.133091	99
Es	-0.535556	1.268316	0.026958	99
39
Properties=species:S:1:pos:R:3:Z:I:1 energy=-338.77921641330147 field_type=dipole dipole="0.000000 0.000000 0.000000" charge=0
O	-1.955295	0.538438	1.719551	8
C	-1.144725	0.321468	0.835391	6
C	-0.594744	-1.014292	0.424471	6
C	0.325765	-0.658642	-0.700689	6
C	1.502045	0.262088	-0.484059	6
N	0.246535	0.774628	-1.024239	7
N	-0.535335	1.268468	0.027141	7
H	-1.410625	-1.656302	0.082351	1
H	-0.056835	-1.477462	1.255191	1
H	0.334645	-1.351422	-1.529199	1
H	1.791245	0.546668	0.520971	1
H	2.323816	0.208158	-1.188609	1
H	-0.826495	2.238208	0.061731	1
Es	-2.019808	0.841728	1.740265	99
Es	-2.039512	0.278140	1.857373	99
Es	-0.594724	-1.014229	0.424439	99
Es	-0.145926	1.030338	-0.477321	99
Es	-0.909962	0.920861	0.175044	99
Es	-0.239570	-1.314352	0.978585	99
Es	-1.138514	-1.434911	0.193068	99
Es	0.151663	0.141154	-0.935162	99
Es	-1.868986	0.438692	1.259810	99
Es	1.501820	0.262082	-0.484140	99
Es	1.034122	-0.377421	-0.505013	99
Es	-0.423998	1.134016	0.369951	99
Es	0.216526	0.917462	-1.354579	99
Es	-0.706720	1.834660	0.026403	99
Es	-1.955122	0.538402	1.719375	99
Es	1.686655	0.454782	0.195619	99
Es	0.335891	-1.124991	-1.264199	99
Es	-1.144612	0.321556	0.835265	99
Es	-1.495961	0.494334	1.588609	99
Es	0.845382	0.683650	-0.771685	99
Es	-0.535690	1.268264	0.026888	99
Es	0.325787	-0.658389	-0.700694	99
Es	-0.868564	-0.360695	0.631742	99
Es	2.055221	0.225250	-0.962583	99
Es	-0.116868	-0.847407	-0.133263	99
Es	0.246595	0.774337	-1.023555	99
39
Properties=species:S:1:pos:R:3:Z:I:1 energy=-338.77921641330147 field_type=dipole dipole="0.000000 0.000000 0.000000" charge=0
O	-1.955295	0.538438	1.719551	8
C	-1.144725	0.321468	0.835391	6
C	-0.594744	-1.014292	0.424471	6
C	0.325765	-0.658642	-0.700689	6
C	1.502045	0.262088	-0.484059	6
N	0.246535	0.774628	-1.024239	7
N	-0.535335	1.268468	0.027141	7
H	-1.410625	-1.656302	0.082351	1
H	-0.056835	-1.477462	1.255191	1
H	0.334645	-1.351422	-1.529199	1
H	1.791245	0.546668	0.520971	1
H	2.323816	0.208158	-1.188609	1
H	-0.826495	2.238208	0.061731	1
Es	0.246593	0.774345	-1.023564	99
Es	-0.145308	1.030392	-0.477037	99
Es	0.335866	-1.124948	-1.264101	99
Es	0.216366	0.917394	-1.353979	99
Es	-1.955063	0.538374	1.719302	99
Es	-0.868442	-0.360728	0.631762	99
Es	1.501816	0.262085	-0.484142	99
Es	0.325793	-0.658379	-0.700694	99
Es	-0.424990	1.132720	0.370992	99
Es	-2.035251	0.276379	1.854093	99
Es	0.151606	0.140786	-0.935470	99
Es	2.055191	0.225314	-0.962521	99
Es	0.845599	0.684314	-0.772037	99
Es	-0.910109	0.921902	0.173429	99
Es	-0.535522	1.268339	0.026944	99
Es	-1.872982	0.441530	1.259484	99
Es	-2.020175	0.841838	1.747665	99
Es	-0.239582	-1.314363	0.978605	99
Es	-0.706301	1.834808	0.026682	99
Es	1.686664	0.454742	0.195532	99
Es	-1.144610	0.321557	0.835267	99
Es	1.034068	-0.377691	-0.505061	99
Es	-1.138543	-1.434888	0.193072	99
Es	-0.116854	-0.847476	-0.133237	99
Es	-0.594724	-1.014229	0.424439	99
Es	-1.495981	0.493198	1.584817	99
39
Properties=species:S:1:pos:R:3:Z:I:1 energy=-338.77921641330147 field_type=dipole dipole="0.000000 0.000000 0.000000" charge=0
O	-1.955295	0.538438	1.719551	8
C	-1.144725	0.321468	0.835391	6
C	-0.594744	-1.014292	0.424471	6
C	0.325765	-0.658642	-0.700689	6
C	1.502045	0.262088	-0.484059	6
N	0.246535	0.774628	-1.024239	7
N	-0.535335	1.268468	0.027141	7
H	-1.410625	-1.656302	0.082351	1
H	-0.056835	-1.477462	1.255191	1
H	0.334645	-1.351422	-1.529199	1
H	1.791245	0.546668	0.520971	1
H	2.323816	0.208158	-1.188609	1
H	-0.826495	2.238208	0.061731	1
Es	-2.019515	0.841141	1.743812	99
Es	-1.138506	-1.434968	0.193128	99
Es	-1.955081	0.538395	1.719325	99
Es	-1.144615	0.321556	0.835265	99
Es	1.501811	0.262085	-0.484143	99
Es	0.246601	0.774343	-1.023573	99
Es	-1.869129	0.441864	1.259147	99
Es	0.845877	0.684351	-0.772214	99
Es	-2.040331	0.277241	1.853811	99
Es	-0.239575	-1.314273	0.978610	99
Es	-0.909745	0.919359	0.177542	99
Es	2.055147	0.225364	-0.962455	99
Es	0.151258	0.140867	-0.935691	99
Es	-0.707208	1.834507	0.026279	99
Es	0.325789	-0.658382	-0.700695	99
Es	-0.423683	1.135759	0.367775	99
Es	-0.145900	1.030613	-0.477599	99
Es	1.686679	0.454794	0.195478	99
Es	0.216350	0.917041	-1.353552	99
Es	0.335882	-1.124892	-1.264022	99
Es	1.034228	-0.377843	-0.504995	99
Es	-1.495280	0.492733	1.589316	99
Es	-0.594725	-1.014229	0.424439	99
Es	-0.535757	1.268219	0.026902	99
Es	-0.868583	-0.360830	0.631679	99
Es	-0.116865	-0.847500	-0.133325	99
39
Properties=species:S:1:pos:R:3:Z:I:1 energy=-338.77921641330147 field_type=dipole dipole="0.000000 0.000000 0.000000" charge=0
O	-1.955295	0.538438	1.719551	8
C	-1.144725	0.321468	0.835391	6
C	-0.594744	-1.014292	0.424471	6
C	0.325765	-0.658642	-0.700689	6
C	1.502045	0.262088	-0.484059	6
N	0.246535	0.774628	-1.024239	7
N	-0.535335	1.268468	0.027141	7
H	-1.410625	-1.656302	0.082351	1
H	-0.056835	-1.477462	1.255191	1
H	0.334645	-1.351422	-1.529199	1
H	1.791245	0.546668	0.520971	1
H	2.323816	0.208158	-1.188609	1
H	-0.826495	2.238208	0.061731	1
Es	0.216413	0.917020	-1.353055	99
Es	-0.706568	1.834644	0.026612	99
Es	-1.872954	0.441463	1.259875	99
Es	-0.868403	-0.360835	0.631770	99
Es	-1.955083	0.538377	1.719304	99
Es	-2.037089	0.276364	1.857426	99
Es	0.150975	0.140668	-0.936121	99
Es	1.686685	0.454756	0.195386	99
Es	-1.496032	0.494248	1.584141	99
Es	-0.594724	-1.014229	0.424439	99
Es	1.034222	-0.377910	-0.505022	99
Es	0.335874	-1.124859	-1.263938	99
Es	0.846154	0.684666	-0.772223	99
Es	1.501814	0.262084	-0.484142	99
Es	-0.116825	-0.847570	-0.133357	99
Es	0.246602	0.774335	-1.023564	99
Es	-0.909989	0.921488	0.174261	99
Es	-0.239576	-1.314313	0.978603	99
Es	2.055131	0.225373	-0.962404	99
Es	-1.144612	0.321556	0.835267	99
Es	0.325790	-0.658384	-0.700695	99
Es	-0.535665	1.268271	0.026901	99
Es	-2.018266	0.840918	1.744585	99
Es	-0.145534	1.030702	-0.477421	99
Es	-0.424651	1.133386	0.370457	99
Es	-1.138565	-1.434904	0.193157	99
39
Properties=species:S:1:pos:R:3:Z:I:1 energy=-338.77921641330147 field_type=dipole dipole="0.000000 0.000000 0.000000" charge=0
O	-1.955295	0.538438	1.719551	8
C	-1.144725	0.321468	0.835391	6
C	-0.594744	-1.014292	0.424471	6
C	0.325765	-0.658642	-0.700689	6
C	1.502045	0.262088	-0.484059	6
N	0.246535	0.774628	-1.024239	7
N	-0.535335	1.268468	0.027141	7
H	-1.410625	-1.656302	0.082351	1
H	-0.056835	-1.477462	1.255191	1
H	0.334645	-1.351422	-1.529199	1
H	1.791245	0.546668	0.520971	1
H	2.323816	0.208158	-1.188609	1
H	-0.826495	2.238208	0.061731	1
Es	-0.909847	0.920052	0.176550	99
Es	0.846234	0.684797	-0.772412	99
Es	1.034391	-0.378231	-0.504920	99
Es	-1.495637	0.493510	1.587579	99
Es	-2.038857	0.278447	1.856766	99
Es	0.216396	0.916731	-1.352721	99
Es	-1.144612	0.321556	0.835267	99
Es	0.246603	0.774334	-1.023568	99
Es	0.325791	-0.658384	-0.700695	99
Es	-0.535667	1.268265	0.026908	99
Es	-1.870780	0.439668	1.259330	99
Es	2.055098	0.225422	-0.962320	99
Es	-0.116738	-0.847460	-0.133337	99
Es	-2.018978	0.841372	1.742378	99
Es	1.501807	0.262085	-0.484145	99
Es	-0.239638	-1.314312	0.978591	99
Es	-0.423970	1.135200	0.368778	99
Es	-0.707217	1.834353	0.026181	99
Es	0.335836	-1.124794	-1.263880	99
Es	-1.955091	0.538396	1.719319	99
Es	-0.868612	-0.360945	0.631756	99
Es	0.150954	0.140817	-0.936306	99
Es	-1.138426	-1.434980	0.193074	99
Es	-0.145870	1.030787	-0.477671	99
Es	-0.594724	-1.014230	0.424439	99
Es	1.686680	0.454861	0.195300	99
39
Properties=species:S:1:pos:R:3:Z:I:1 energy=-338.77921641330147 field_type=dipole dipole="0.000000 0.000000 0.000000" charge=0
O	-1.955295	0.538438	1.719551	8
C	-1.144725	0.321468	0.835391	6
C	-0.594744	-1.014292	0.424471	6
C	0.325765	-0.658642	-0.700689	6
C	1.502045	0.262088	-0.484059	6
N	0.246535	0.774628	-1.024239	7
N	-0.535335	1.268468	0.027141	7
H	-1.410625	-1.656302	0.082351	1
H	-0.056835	-1.477462	1.255191	1
H	0.334645	-1.351422	-1.529199	1
H	1.791245	0.546668	0.520971	1
H	2.323816	0.208158	-1.188609	1
H	-0.826495	2.238208	0.061731	1
Es	-2.038847	0.277319	1.853848	99
Es	-1.495768	0.492474	1.588105	99
Es	0.335829	-1.124772	-1.263775	99
Es	-0.535673	1.268255	0.026921	99
Es	0.325793	-0.658383	-0.700694	99
Es	-1.955103	0.538403	1.719328	99
Es	-0.239613	-1.314340	0.978662	99
Es	-0.594724	-1.014229	0.424439	99
Es	-2.019145	0.841300	1.745416	99
Es	0.846337	0.684699	-0.772378	99
Es	-0.424108	1.135034	0.368965	99
Es	1.034520	-0.378415	-0.504887	99
Es	-0.868510	-0.360966	0.631679	99
Es	1.501813	0.262083	-0.484143	99
Es	-0.145758	1.030962	-0.477748	99
Es	0.150469	0.140733	-0.936893	99
Es	-0.707129	1.834301	0.026258	99
Es	-1.138487	-1.434872	0.193173	99
Es	1.686663	0.454837	0.195214	99
Es	-0.909932	0.920220	0.176244	99
Es	-1.870446	0.441952	1.258694	99
Es	-1.144604	0.321557	0.835268	99
Es	-0.116805	-0.847566	-0.133464	99
Es	2.055090	0.225543	-0.962282	99
Es	0.246603	0.774330	-1.023569	99
Es	0.216663	0.916855	-1.352140	99
39
Properties=species:S:1:pos:R:3:Z:I:1 energy=-338.77921641330147 field_type=dipole dipole="0.000000 0.000000 0.000000" charge=0
O	-1.955295	0.538438	1.719551	8
C	-1.144725	0.321468	0.835391	6
C	-0.594744	-1.014292	0.424471	6
C	0.325765	-0.658642	-0.700689	6
C	1.502045	0.262088	-0.484059	6
N	0.246535	0.774628	-1.024239	7
N	-0.535335	1.268468	0.027141	7
H	-1.410625	-1.656302	0.082351	1
H	-0.056835	-1.477462	1.255191	1
H	0.334645	-1.351422	-1.529199	1
H	1.791245	0.546668	0.520971	1
H	2.323816	0.208158	-1.188609	1
H	-0.826495	2.238208	0.061731	1
Es	-0.868463	-0.360988	0.631694	99
Es	0.246600	0.774337	-1.023567	99
Es	-0.146015	1.030906	-0.477948	99
Es	0.150584	0.140699	-0.936916	99
Es	0.216547	0.916583	-1.351898	99
Es	-1.955055	0.538334	1.719296	99
Es	-1.138535	-1.434920	0.193200	99
Es	-2.039252	0.278247	1.855756	99
Es	0.846451	0.685153	-0.772565	99
Es	-0.707706	1.834129	0.025850	99
Es	1.034546	-0.378672	-0.504854	99
Es	-0.535624	1.268287	0.026923	99
Es	2.055084	0.225562	-0.962203	99
Es	-1.870805	0.440665	1.259255	99
Es	-0.239626	-1.314279	0.978634	99
Es	0.335805	-1.124690	-1.263730	99
Es	-0.423658	1.136372	0.367681	99
Es	-0.909671	0.919174	0.178071	99
Es	-1.144612	0.321556	0.835267	99
Es	-0.116807	-0.847630	-0.133492	99
Es	-1.495830	0.492420	1.587432	99
Es	0.325791	-0.658382	-0.700695	99
Es	1.686651	0.454815	0.195133	99
Es	1.501812	0.262083	-0.484143	99
Es	-0.594724	-1.014229	0.424439	99
Es	-2.018365	0.841786	1.743623	99
39
Properties=species:S:1:pos:R:3:Z:I:1 energy=-338.77921641330147 field_type=dipole dipole="0.000000 0.000000 0.000000" charge=0
O	-1.955295	0.538438	1.719551	8
C	-1.144725	0.321468	0.835391	6
C	-0.594744	-1.014292	0.424471	6
C	0.325765	-0.658642	-0.700689	6
C	1.502045	0.262088	-0.484059	6
N	0.246535	0.774628	-1.024239	7
N	-0.535335	1.268468	0.027141	7
H	-1.410625	-1.656302	0.082351	1
H	-0.056835	-1.477462	1.255191	1
H	0.334645	-1.351422	-1.529199	1
H	1.791245	0.546668	0.520971	1
H	2.323816	0.208158	-1.188609	1
H	-0.826495	2.238208	0.061731	1
Es	-0.239645	-1.314264	0.978586	99
Es	-0.116760	-0.847711	-0.133551	99
Es	-1.144612	0.321556	0.835267	99
Es	0.846686	0.685355	-0.772769	99
Es	0.246603	0.774333	-1.023565	99
Es	-0.535569	1.268287	0.026980	99
Es	1.501812	0.262083	-0.484143	99
Es	-0.423777	1.136892	0.367045	99
Es	-0.145887	1.031021	-0.477959	99
Es	-1.955031	0.538370	1.719242	99
Es	-1.871086	0.440390	1.258875	99
Es	0.150384	0.140706	-0.937175	99
Es	-0.594724	-1.014229	0.424439	99
Es	1.034648	-0.378813	-0.504821	99
Es	-0.868505	-0.361007	0.631698	99
Es	0.216502	0.916363	-1.351478	99
Es	-0.909628	0.918765	0.178724	99
Es	-0.707908	1.834019	0.025802	99
Es	-1.138528	-1.434949	0.193229	99
Es	-2.015127	0.841572	1.741244	99
Es	0.335793	-1.124594	-1.263668	99
Es	2.055039	0.225581	-0.962149	99
Es	-2.042417	0.280326	1.857736	99
Es	1.686668	0.454839	0.195062	99
Es	0.325792	-0.658382	-0.700695	99
Es	-1.495599	0.490807	1.588285	99
39
Properties=species:S:1:pos:R:3:Z:I:1 energy=-338.77921641330147 field_type=dipole dipole="0.000000 0.000000 0.000000" charge=0
O	-1.955295	0.538438	1.719551	8
C	-1.144725	0.321468	0.835391	6
C	-0.594744	-1.014292	0.424471	6
C	0.325765	-0.658642	-0.700689	6
C	1.502045	0.262088	-0.484059	6
N	0.246535	0.774628	-1.024239	7
N	-0.535335	1.268468	0.027141	7
H	-1.410625	-1.656302	0.082351	1
H	-0.056835	-1.477462	1.255191	1
H	0.334645	-1.351422	-1.529199	1
H	1.791245	0.546668	0.520971	1
H	2.323816	0.208158	-1.188609	1
H	-0.826495	2.238208	0.061731	1
Es	0.325792	-0.658381	-0.700695	99
Es	1.686669	0.454862	0.194970	99
Es	-0.424533	1.134764	0.369307	99
Es	-0.594724	-1.014228	0.424439	99
Es	2.055008	0.225640	-0.962088	99
Es	0.150247	0.140644	-0.937379	99
Es	-1.138551	-1.434921	0.193238	99
Es	0.335778	-1.124587	-1.263604	99
Es	-0.116782	-0.847691	-0.133572	99
Es	-1.870975	0.441066	1.258942	99
Es	-0.909987	0.920603	0.175765	99
Es	-0.239640	-1.314258	0.978647	99
Es	-0.535598	1.268273	0.026978	99
Es	1.501811	0.262082	-0.484143	99
Es	-2.019860	0.840542	1.744506	99
Es	-0.707113	1.834217	0.026288	99
Es	-2.037928	0.277460	1.855201	99
Es	0.246600	0.774337	-1.023570	99
Es	0.216634	0.916293	-1.351174	99
Es	-1.495457	0.493949	1.587434	99
Es	-1.144611	0.321555	0.835267	99
Es	-0.145568	1.031341	-0.477874	99
Es	-0.868421	-0.361104	0.631702	99
Es	-1.955045	0.538478	1.719254	99
Es	1.034691	-0.379061	-0.504777	99
Es	0.846688	0.685441	-0.772821	99
39
Properties=species:S:1:pos:R:3:Z:I:1 energy=-338.77921641330147 field_type=dipole dipole="0.000000 0.000000 0.000000" charge=0
O	-1.955295	0.538438	1.719551	8
C	-1.144725	0.321468	0.835391	6
C	-0.594744	-1.014292	0.424471	6
C	0.325765	-0.658642	-0.700689	6
C	1.502045	0.262088	-0.484059	6
N	0.246535	0.774628	-1.024239	7
N	-0.535335	1.268468	0.027141	7
H	-1.410625	-1.656302	0.082351	1
H	-0.056835	-1.477462	1.255191	1
H	0.334645	-1.351422	-1.529199	1
H	1.791245	0.546668	0.520971	1
H	2.323816	0.208158	-1.188609	1
H	-0.826495	2.238208	0.061731	1
Es	-0.535610	1.268280	0.026955	99
Es	0.846799	0.685617	-0.772916	99
Es	-0.423843	1.135202	0.369739	99
Es	-0.145958	1.031383	-0.478160	99
Es	-0.116776	-0.847715	-0.133612	99
Es	1.501811	0.262082	-0.484143	99
Es	-0.909666	0.920573	0.176075	99
Es	0.150118	0.140628	-0.937620	99
Es	-0.594724	-1.014228	0.424439	99
Es	1.686651	0.454866	0.194894	99
Es	-2.039138	0.276938	1.855765	99
Es	-1.138553	-1.434930	0.193256	99
Es	-0.868422	-0.361159	0.631699	99
Es	2.055004	0.225688	-0.962032	99
Es	-1.955063	0.538426	1.719291	99
Es	0.335766	-1.124539	-1.263541	99
Es	-1.870736	0.442051	1.259050	99
Es	0.325792	-0.658381	-0.700695	99
Es	-0.707791	1.833839	0.025782	99
Es	-1.495708	0.493729	1.587114	99
Es	-0.239649	-1.314244	0.978646	99
Es	0.216677	0.916153	-1.350821	99
Es	0.246601	0.774336	-1.023570	99
Es	-1.144611	0.321555	0.835267	99
Es	1.034764	-0.379246	-0.504733	99
Es	-2.018611	0.840411	1.744112	99
