48
Properties=species:S:1:pos:R:3:Z:I:1 energy=-289.2967939320964 field_type=dipole dipole="0.000000 0.000000 0.000000" charge=0
C	-2.521119	-0.143261	-0.644336	6
C	-1.022469	-0.016251	-0.821016	6
C	-0.306999	1.071150	0.008374	6
C	0.744051	-0.023991	0.319874	6
C	1.130002	-0.140261	1.788314	6
C	1.958511	-0.055361	-0.605846	6
N	-0.277829	-1.037181	-0.050476	7
H	-2.896929	-1.042781	-1.144176	1
H	-3.031569	0.718859	-1.087016	1
H	-2.809269	-0.196181	0.411644	1
H	-0.743039	0.006529	-1.882496	1
H	-0.873489	1.425060	0.878614	1
H	0.046731	1.940179	-0.554876	1
H	0.250741	-0.160441	2.442234	1
H	1.747551	0.711650	2.093264	1
H	1.704911	-1.054101	1.975944	1
H	1.677231	-0.005311	-1.663206	1
H	2.541041	-0.971710	-0.460306	1
H	2.617031	0.795870	-0.402626	1
H	0.064911	-1.822470	-0.601886	1
Es	2.405724	0.525365	-0.464191	99
Es	0.530002	-0.149379	2.228224	99
Es	1.757436	-0.021923	-1.325832	99
Es	-0.470096	-1.138819	0.235555	99
Es	1.555470	0.445869	1.990612	99
Es	0.272267	0.597277	0.196727	99
Es	-0.693667	1.302552	0.603744	99
Es	-0.277534	-1.036990	-0.050940	99
Es	0.950914	-0.080782	1.065245	99
Es	-0.612285	-0.645005	-0.433618	99
Es	1.958509	-0.055359	-0.605846	99
Es	-1.784978	-0.076208	-0.737008	99
Es	-2.521124	-0.143253	-0.644359	99
Es	-0.828658	0.001700	-1.555691	99
Es	-2.710823	-0.175064	0.074030	99
Es	0.211383	-0.651064	0.103100	99
Es	-2.866297	0.449534	-0.950700	99
Es	1.525048	-0.765340	1.909639	99
Es	-0.061143	1.669504	-0.378427	99
Es	-0.306990	1.071117	0.008352	99
Es	0.743975	-0.024071	0.319831	99
Es	-0.720511	0.599205	-0.436789	99
Es	1.130026	-0.140252	1.788317	99
Es	-0.055548	-1.503073	-0.402267	99
Es	2.348186	-0.683829	-0.502245	99
Es	-2.772980	-0.758421	-0.988129	99
Es	1.359587	-0.033239	-0.155025	99
Es	-1.022407	-0.016329	-0.820923	99
48
Properties=species:S:1:pos:R:3:Z:I:1 energy=-289.2967939320964 field_type=dipole dipole="0.000000 0.000000 0.000000" charge=0
C	-2.521119	-0.143261	-0.644336	6
C	-1.022469	-0.016251	-0.821016	6
C	-0.306999	1.071150	0.008374	6
C	0.744051	-0.023991	0.319874	6
C	1.130002	-0.140261	1.788314	6
C	1.958511	-0.055361	-0.605846	6
N	-0.277829	-1.037181	-0.050476	7
H	-2.896929	-1.042781	-1.144176	1
H	-3.031569	0.718859	-1.087016	1
H	-2.809269	-0.196181	0.411644	1
H	-0.743039	0.006529	-1.882496	1
H	-0.873489	1.425060	0.878614	1
H	0.046731	1.940179	-0.554876	1
H	0.250741	-0.160441	2.442234	1
H	1.747551	0.711650	2.093264	1
H	1.704911	-1.054101	1.975944	1
H	1.677231	-0.005311	-1.663206	1
H	2.541041	-0.971710	-0.460306	1
H	2.617031	0.795870	-0.402626	1
H	0.064911	-1.822470	-0.601886	1
Es	-2.772975	-0.758400	-0.988083	99
Es	-0.469317	-1.138678	0.235396	99
Es	0.211557	-0.650873	0.102768	99
Es	1.757575	-0.021995	-1.325802	99
Es	-0.061104	1.669348	-0.378368	99
Es	-0.720480	0.599220	-0.436886	99
Es	-0.277484	-1.036955	-0.051002	99
Es	-1.022408	-0.016329	-0.820923	99
Es	-0.693728	1.302696	0.603713	99
Es	0.272244	0.597322	0.196839	99
Es	-0.613134	-0.645353	-0.433507	99
Es	0.743974	-0.024070	0.319831	99
Es	-2.710995	-0.174943	0.074042	99
Es	1.525156	-0.765194	1.909609	99
Es	-0.828671	0.001712	-1.555616	99
Es	-0.055675	-1.503265	-0.401873	99
Es	1.359477	-0.033065	-0.155016	99
Es	-2.521125	-0.143253	-0.644359	99
Es	0.529910	-0.149573	2.228205	99
Es	-0.306988	1.071113	0.008352	99
Es	1.958509	-0.055359	-0.605846	99
Es	0.951003	-0.080738	1.065130	99
Es	-2.866199	0.449439	-0.950834	99
Es	-1.784918	-0.076253	-0.736989	99
Es	1.555350	0.445909	1.990703	99
Es	2.405678	0.525353	-0.464270	99
Es	2.348225	-0.683843	-0.502147	99
Es	1.130026	-0.140252	1.788317	99
48
Properties=species:S:1:pos:R:3:Z:I:1 energy=-289.2967939320964 field_type=dipole dipole="0.000000 0.000000 0.000000" charge=0
C	-2.521119	-0.143261	-0.644336	6
C	-1.022469	-0.016251	-0.821016	6
C	-0.306999	1.071150	0.008374	6
C	0.744051	-0.023991	0.319874	6
C	1.130002	-0.140261	1.788314	6
C	1.958511	-0.055361	-0.605846	6
N	-0.277829	-1.037181	-0.050476	7
H	-2.896929	-1.042781	-1.144176	1
H	-3.031569	0.718859	-1.087016	1
H	-2.809269	-0.196181	0.411644	1
H	-0.743039	0.006529	-1.882496	1
H	-0.873489	1.425060	0.878614	1
H	0.046731	1.940179	-0.554876	1
H	0.250741	-0.160441	2.442234	1
H	1.747551	0.711650	2.093264	1
H	1.704911	-1.054101	1.975944	1
H	1.677231	-0.005311	-1.663206	1
H	2.541041	-0.971710	-0.460306	1
H	2.617031	0.795870	-0.402626	1
H	0.064911	-1.822470	-0.601886	1
Es	1.130026	-0.140252	1.788316	99
Es	1.525139	-0.765204	1.909599	99
Es	-0.613150	-0.644947	-0.433563	99
Es	-2.866272	0.449500	-0.950693	99
Es	-0.828708	0.001678	-1.555515	99
Es	-2.772985	-0.758407	-0.988149	99
Es	-0.055735	-1.503289	-0.401975	99
Es	0.211548	-0.651252	0.103254	99
Es	-0.306990	1.071111	0.008355	99
Es	0.743974	-0.024069	0.319831	99
Es	1.555349	0.445932	1.990764	99
Es	-0.720487	0.599179	-0.436928	99
Es	-0.693653	1.302628	0.603607	99
Es	2.405774	0.525312	-0.464391	99
Es	0.529959	-0.149614	2.228178	99
Es	-2.710898	-0.175064	0.074008	99
Es	-1.784949	-0.076199	-0.737076	99
Es	-1.022408	-0.016328	-0.820922	99
Es	-2.521125	-0.143251	-0.644361	99
Es	1.359412	-0.032968	-0.154941	99
Es	-0.469179	-1.138697	0.235007	99
Es	0.272446	0.597472	0.196889	99
Es	-0.277520	-1.036976	-0.050958	99
Es	0.950998	-0.080710	1.065120	99
Es	-0.061325	1.669396	-0.378321	99
Es	1.757558	-0.021998	-1.325698	99
Es	1.958508	-0.055359	-0.605845	99
Es	2.348179	-0.683902	-0.502209	99
48
Properties=species:S:1:pos:R:3:Z:I:1 energy=-289.2967939320964 field_type=dipole dipole="0.000000 0.000000 0.000000" charge=0
C	-2.521119	-0.143261	-0.644336	6
C	-1.022469	-0.016251	-0.821016	6
C	-0.306999	1.071150	0.008374	6
C	0.744051	-0.023991	0.319874	6
C	1.130002	-0.140261	1.788314	6
C	1.958511	-0.055361	-0.605846	6
N	-0.277829	-1.037181	-0.050476	7
H	-2.896929	-1.042781	-1.144176	1
H	-3.031569	0.718859	-1.087016	1
H	-2.809269	-0.196181	0.411644	1
H	-0.743039	0.006529	-1.882496	1
H	-0.873489	1.425060	0.878614	1
H	0.046731	1.940179	-0.554876	1
H	0.250741	-0.160441	2.442234	1
H	1.747551	0.711650	2.093264	1
H	1.704911	-1.054101	1.975944	1
H	1.677231	-0.005311	-1.663206	1
H	2.541041	-0.971710	-0.460306	1
H	2.617031	0.795870	-0.402626	1
H	0.064911	-1.822470	-0.601886	1
Es	1.958509	-0.055359	-0.605846	99
Es	1.757591	-0.022058	-1.325730	99
Es	2.348174	-0.683797	-0.502216	99
Es	0.211718	-0.651346	0.103714	99
Es	0.530039	-0.149611	2.228137	99
Es	-2.710954	-0.175021	0.074068	99
Es	0.743975	-0.024074	0.319831	99
Es	-0.469116	-1.138431	0.234391	99
Es	1.359357	-0.033065	-0.154886	99
Es	-0.306990	1.071116	0.008351	99
Es	-0.828794	0.001617	-1.555453	99
Es	0.272381	0.597338	0.196921	99
Es	-0.055927	-1.503555	-0.401715	99
Es	1.130027	-0.140252	1.788316	99
Es	0.950961	-0.080691	1.065067	99
Es	-0.693608	1.302721	0.603565	99
Es	-2.866268	0.449468	-0.950822	99
Es	2.405782	0.525347	-0.464367	99
Es	-2.521125	-0.143253	-0.644359	99
Es	-1.784851	-0.076293	-0.737159	99
Es	1.525179	-0.765267	1.909617	99
Es	-0.720689	0.599492	-0.437074	99
Es	1.555292	0.445958	1.990784	99
Es	-2.772941	-0.758348	-0.988064	99
Es	-0.277543	-1.036990	-0.050917	99
Es	-0.061180	1.669328	-0.378240	99
Es	-0.613104	-0.644923	-0.433605	99
Es	-1.022411	-0.016327	-0.820924	99
48
Properties=species:S:1:pos:R:3:Z:I:1 energy=-289.2967939320964 field_type=dipole dipole="0.000000 0.000000 0.000000" charge=0
C	-2.521119	-0.143261	-0.644336	6
C	-1.022469	-0.016251	-0.821016	6
C	-0.306999	1.071150	0.008374	6
C	0.744051	-0.023991	0.319874	6
C	1.130002	-0.140261	1.788314	6
C	1.958511	-0.055361	-0.605846	6
N	-0.277829	-1.037181	-0.050476	7
H	-2.896929	-1.042781	-1.144176	1
H	-3.031569	0.718859	-1.087016	1
H	-2.809269	-0.196181	0.411644	1
H	-0.743039	0.006529	-1.882496	1
H	-0.873489	1.425060	0.878614	1
H	0.046731	1.940179	-0.554876	1
H	0.250741	-0.160441	2.442234	1
H	1.747551	0.711650	2.093264	1
H	1.704911	-1.054101	1.975944	1
H	1.677231	-0.005311	-1.663206	1
H	2.541041	-0.971710	-0.460306	1
H	2.617031	0.795870	-0.402626	1
H	0.064911	-1.822470	-0.601886	1
Es	1.757614	-0.022088	-1.325745	99
Es	-0.828787	0.001659	-1.555404	99
Es	-0.613397	-0.645032	-0.433696	99
Es	-0.468919	-1.138480	0.234286	99
Es	-0.693594	1.302747	0.603463	99
Es	-2.521122	-0.143252	-0.644361	99
Es	-2.773000	-0.758370	-0.988123	99
Es	-1.784847	-0.076191	-0.737180	99
Es	1.359343	-0.033135	-0.154898	99
Es	-0.061229	1.669278	-0.378089	99
Es	-2.710936	-0.175045	0.074013	99
Es	0.743974	-0.024070	0.319832	99
Es	1.958509	-0.055359	-0.605846	99
Es	-2.866273	0.449452	-0.950707	99
Es	0.529950	-0.149624	2.228120	99
Es	-0.055985	-1.503516	-0.401588	99
Es	-1.022406	-0.016330	-0.820923	99
Es	1.555334	0.445948	1.990810	99
Es	1.130026	-0.140252	1.788317	99
Es	0.211824	-0.651273	0.103713	99
Es	0.272479	0.597391	0.196981	99
Es	1.525125	-0.765207	1.909629	99
Es	0.951050	-0.080757	1.065061	99
Es	-0.720683	0.599465	-0.437156	99
Es	2.348203	-0.683764	-0.502187	99
Es	-0.277522	-1.036980	-0.050947	99
Es	2.405740	0.525392	-0.464344	99
Es	-0.306988	1.071113	0.008351	99
48
Properties=species:S:1:pos:R:3:Z:I:1 energy=-289.2967939320964 field_type=dipole dipole="0.000000 0.000000 0.000000" charge=0
C	-2.521119	-0.143261	-0.644336	6
C	-1.022469	-0.016251	-0.821016	6
C	-0.306999	1.071150	0.008374	6
C	0.744051	-0.023991	0.319874	6
C	1.130002	-0.140261	1.788314	6
C	1.958511	-0.055361	-0.605846	6
N	-0.277829	-1.037181	-0.050476	7
H	-2.896929	-1.042781	-1.144176	1
H	-3.031569	0.718859	-1.087016	1
H	-2.809269	-0.196181	0.411644	1
H	-0.743039	0.006529	-1.882496	1
H	-0.873489	1.425060	0.878614	1
H	0.046731	1.940179	-0.554876	1
H	0.250741	-0.160441	2.442234	1
H	1.747551	0.711650	2.093264	1
H	1.704911	-1.054101	1.975944	1
H	1.677231	-0.005311	-1.663206	1
H	2.541041	-0.971710	-0.460306	1
H	2.617031	0.795870	-0.402626	1
H	0.064911	-1.822470	-0.601886	1
Es	-2.521125	-0.143252	-0.644360	99
Es	-2.866256	0.449462	-0.950698	99
Es	-1.784876	-0.076253	-0.737263	99
Es	-1.022407	-0.016328	-0.820922	99
Es	0.530038	-0.149522	2.228149	99
Es	-0.720669	0.599566	-0.437202	99
Es	-2.710961	-0.175054	0.073994	99
Es	1.525039	-0.765254	1.909665	99
Es	1.757538	-0.022041	-1.325464	99
Es	-0.306989	1.071116	0.008352	99
Es	0.743975	-0.024070	0.319833	99
Es	-0.061313	1.669301	-0.377981	99
Es	0.272574	0.597392	0.196924	99
Es	-0.056077	-1.503588	-0.401516	99
Es	-0.613484	-0.645029	-0.433770	99
Es	-0.693601	1.302677	0.603465	99
Es	1.130027	-0.140252	1.788317	99
Es	1.359283	-0.033053	-0.154673	99
Es	-0.468786	-1.138409	0.234076	99
Es	2.348296	-0.683853	-0.502419	99
Es	1.555423	0.445938	1.990749	99
Es	0.211902	-0.651427	0.103863	99
Es	2.405784	0.525399	-0.464579	99
Es	0.950955	-0.080703	1.065025	99
Es	-0.828787	0.001681	-1.555250	99
Es	1.958510	-0.055359	-0.605846	99
Es	-0.277534	-1.036987	-0.050933	99
Es	-2.772994	-0.758378	-0.988151	99
48
Properties=species:S:1:pos:R:3:Z:I:1 energy=-289.2967939320964 field_type=dipole dipole="0.000000 0.000000 0.000000" charge=0
C	-2.521119	-0.143261	-0.644336	6
C	-1.022469	-0.016251	-0.821016	6
C	-0.306999	1.071150	0.008374	6
C	0.744051	-0.023991	0.319874	6
C	1.130002	-0.140261	1.788314	6
C	1.958511	-0.055361	-0.605846	6
N	-0.277829	-1.037181	-0.050476	7
H	-2.896929	-1.042781	-1.144176	1
H	-3.031569	0.718859	-1.087016	1
H	-2.809269	-0.196181	0.411644	1
H	-0.743039	0.006529	-1.882496	1
H	-0.873489	1.425060	0.878614	1
H	0.046731	1.940179	-0.554876	1
H	0.250741	-0.160441	2.442234	1
H	1.747551	0.711650	2.093264	1
H	1.704911	-1.054101	1.975944	1
H	1.677231	-0.005311	-1.663206	1
H	2.541041	-0.971710	-0.460306	1
H	2.617031	0.795870	-0.402626	1
H	0.064911	-1.822470	-0.601886	1
Es	0.951045	-0.080735	1.064900	99
Es	-1.022408	-0.016328	-0.820923	99
Es	0.211918	-0.651396	0.104002	99
Es	2.348214	-0.683775	-0.502239	99
Es	1.130027	-0.140252	1.788317	99
Es	-0.277534	-1.037001	-0.050933	99
Es	1.757636	-0.022057	-1.325703	99
Es	-0.061321	1.669268	-0.377965	99
Es	-0.306988	1.071113	0.008351	99
Es	-2.710924	-0.175032	0.073974	99
Es	-0.828852	0.001651	-1.555261	99
Es	2.405755	0.525345	-0.464384	99
Es	0.530010	-0.149606	2.228159	99
Es	1.359277	-0.033070	-0.154806	99
Es	1.525129	-0.765194	1.909656	99
Es	-0.613627	-0.645073	-0.433762	99
Es	-2.773031	-0.758371	-0.988081	99
Es	-0.468643	-1.138406	0.233847	99
Es	-2.866301	0.449448	-0.950694	99
Es	1.555320	0.445911	1.990800	99
Es	-1.784802	-0.076226	-0.737273	99
Es	0.272625	0.597492	0.197108	99
Es	-0.056107	-1.503584	-0.401391	99
Es	-2.521120	-0.143252	-0.644361	99
Es	0.743974	-0.024070	0.319832	99
Es	-0.693543	1.302732	0.603363	99
Es	-0.720751	0.599544	-0.437302	99
Es	1.958509	-0.055359	-0.605846	99
48
Properties=species:S:1:pos:R:3:Z:I:1 energy=-289.2967939320964 field_type=dipole dipole="0.000000 0.000000 0.000000" charge=0
C	-2.521119	-0.143261	-0.644336	6
C	-1.022469	-0.016251	-0.821016	6
C	-0.306999	1.071150	0.008374	6
C	0.744051	-0.023991	0.319874	6
C	1.130002	-0.140261	1.788314	6
C	1.958511	-0.055361	-0.605846	6
N	-0.277829	-1.037181	-0.050476	7
H	-2.896929	-1.042781	-1.144176	1
H	-3.031569	0.718859	-1.087016	1
H	-2.809269	-0.196181	0.411644	1
H	-0.743039	0.006529	-1.882496	1
H	-0.873489	1.425060	0.878614	1
H	0.046731	1.940179	-0.554876	1
H	0.250741	-0.160441	2.442234	1
H	1.747551	0.711650	2.093264	1
H	1.704911	-1.054101	1.975944	1
H	1.677231	-0.005311	-1.663206	1
H	2.541041	-0.971710	-0.460306	1
H	2.617031	0.795870	-0.402626	1
H	0.064911	-1.822470	-0.601886	1
Es	-2.772990	-0.758456	-0.987960	99
Es	-0.613607	-0.645146	-0.433845	99
Es	0.530049	-0.149564	2.228172	99
Es	-0.061359	1.669233	-0.377857	99
Es	1.757643	-0.022025	-1.325688	99
Es	1.525088	-0.765207	1.909673	99
Es	0.951006	-0.080732	1.064843	99
Es	-2.521122	-0.143252	-0.644359	99
Es	-0.306989	1.071113	0.008352	99
Es	-1.784747	-0.076273	-0.737216	99
Es	0.211970	-0.651376	0.104047	99
Es	0.272697	0.597463	0.197121	99
Es	2.405744	0.525344	-0.464366	99
Es	-1.022408	-0.016326	-0.820923	99
Es	2.348238	-0.683750	-0.502301	99
Es	-2.711030	-0.174890	0.073866	99
Es	-0.056159	-1.503666	-0.401284	99
Es	-0.468642	-1.138313	0.233732	99
Es	1.555349	0.445869	1.990806	99
Es	-0.277543	-1.036998	-0.050918	99
Es	-0.693471	1.302748	0.603325	99
Es	-0.828862	0.001650	-1.555169	99
Es	-2.866295	0.449404	-0.950839	99
Es	1.359270	-0.033120	-0.154767	99
Es	1.958509	-0.055359	-0.605846	99
Es	-0.720856	0.599667	-0.437364	99
Es	0.743975	-0.024068	0.319833	99
Es	1.130028	-0.140251	1.788316	99
48
Properties=species:S:1:pos:R:3:Z:I:1 energy=-289.2967939320964 field_type=dipole dipole="0.000000 0.000000 0.000000" charge=0
C	-2.521119	-0.143261	-0.644336	6
C	-1.022469	-0.016251	-0.821016	6
C	-0.306999	1.071150	0.008374	6
C	0.744051	-0.023991	0.319874	6
C	1.130002	-0.140261	1.788314	6
C	1.958511	-0.055361	-0.605846	6
N	-0.277829	-1.037181	-0.050476	7
H	-2.896929	-1.042781	-1.144176	1
H	-3.031569	0.718859	-1.087016	1
H	-2.809269	-0.196181	0.411644	1
H	-0.743039	0.006529	-1.882496	1
H	-0.873489	1.425060	0.878614	1
H	0.046731	1.940179	-0.554876	1
H	0.250741	-0.160441	2.442234	1
H	1.747551	0.711650	2.093264	1
H	1.704911	-1.054101	1.975944	1
H	1.677231	-0.005311	-1.663206	1
H	2.541041	-0.971710	-0.460306	1
H	2.617031	0.795870	-0.402626	1
H	0.064911	-1.822470	-0.601886	1
Es	0.272854	0.597527	0.197213	99
Es	-0.613826	-0.645023	-0.433968	99
Es	-0.056026	-1.503391	-0.401259	99
Es	0.950984	-0.080693	1.064740	99
Es	-0.693431	1.302815	0.603234	99
Es	-0.306989	1.071116	0.008352	99
Es	2.405778	0.525304	-0.464408	99
Es	-0.828889	0.001667	-1.555109	99
Es	1.359306	-0.033041	-0.154744	99
Es	-1.784820	-0.076180	-0.737338	99
Es	-2.866286	0.449410	-0.950668	99
Es	1.130027	-0.140253	1.788318	99
Es	-0.277549	-1.036994	-0.050914	99
Es	-2.773025	-0.758413	-0.988121	99
Es	1.555343	0.445870	1.990869	99
Es	1.958511	-0.055360	-0.605846	99
Es	-0.468493	-1.138660	0.233121	99
Es	-2.521120	-0.143252	-0.644361	99
Es	-2.710948	-0.175012	0.073958	99
Es	0.211847	-0.651508	0.104753	99
Es	-0.061409	1.669174	-0.377832	99
Es	2.348187	-0.683787	-0.502227	99
Es	-0.720907	0.599660	-0.437406	99
Es	-1.022407	-0.016328	-0.820922	99
Es	0.743971	-0.024069	0.319831	99
Es	1.525086	-0.765153	1.909632	99
Es	0.530064	-0.149647	2.228188	99
Es	1.757653	-0.022056	-1.325704	99
48
Properties=species:S:1:pos:R:3:Z:I:1 energy=-289.2967939320964 field_type=dipole dipole="0.000000 0.000000 0.000000" charge=0
C	-2.521119	-0.143261	-0.644336	6
C	-1.022469	-0.016251	-0.821016	6
C	-0.306999	1.071150	0.008374	6
C	0.744051	-0.023991	0.319874	6
C	1.130002	-0.140261	1.788314	6
C	1.958511	-0.055361	-0.605846	6
N	-0.277829	-1.037181	-0.050476	7
H	-2.896929	-1.042781	-1.144176	1
H	-3.031569	0.718859	-1.087016	1
H	-2.809269	-0.196181	0.411644	1
H	-0.743039	0.006529	-1.882496	1
H	-0.873489	1.425060	0.878614	1
H	0.046731	1.940179	-0.554876	1
H	0.250741	-0.160441	2.442234	1
H	1.747551	0.711650	2.093264	1
H	1.704911	-1.054101	1.975944	1
H	1.677231	-0.005311	-1.663206	1
H	2.541041	-0.971710	-0.460306	1
H	2.617031	0.795870	-0.402626	1
H	0.064911	-1.822470	-0.601886	1
Es	1.757710	-0.022059	-1.325652	99
Es	-0.693360	1.302772	0.603174	99
Es	0.743975	-0.024069	0.319831	99
Es	2.405798	0.525331	-0.464404	99
Es	-0.277541	-1.036988	-0.050922	99
Es	0.272782	0.597539	0.197211	99
Es	-2.773059	-0.758306	-0.988050	99
Es	1.359154	-0.033079	-0.154752	99
Es	-1.022408	-0.016329	-0.820924	99
Es	0.530054	-0.149572	2.228143	99
Es	-2.521127	-0.143248	-0.644361	99
Es	-0.061400	1.669234	-0.377808	99
Es	-0.306989	1.071117	0.008352	99
Es	-0.720906	0.599695	-0.437497	99
Es	1.130027	-0.140252	1.788317	99
Es	1.525100	-0.765213	1.909698	99
Es	0.212215	-0.651500	0.104353	99
Es	1.555320	0.445890	1.990818	99
Es	-0.056452	-1.503866	-0.400874	99
Es	1.958509	-0.055359	-0.605846	99
Es	-0.613871	-0.645249	-0.433981	99
Es	-2.710979	-0.175046	0.073942	99
Es	-0.468332	-1.138091	0.233208	99
Es	-0.828990	0.001606	-1.555060	99
Es	2.348184	-0.683777	-0.502273	99
Es	0.951070	-0.080692	1.064779	99
Es	-2.866297	0.449430	-0.950694	99
Es	-1.784703	-0.076200	-0.737347	99
48
Properties=species:S:1:pos:R:3:Z:I:1 energy=-289.2967939320964 field_type=dipole dipole="0.000000 0.000000 0.000000" charge=0
C	-2.521119	-0.143261	-0.644336	6
C	-1.022469	-0.016251	-0.821016	6
C	-0.306999	1.071150	0.008374	6
C	0.744051	-0.023991	0.319874	6
C	1.130002	-0.140261	1.788314	6
C	1.958511	-0.055361	-0.605846	6
N	-0.277829	-1.037181	-0.050476	7
H	-2.896929	-1.042781	-1.144176	1
H	-3.031569	0.718859	-1.087016	1
H	-2.809269	-0.196181	0.411644	1
H	-0.743039	0.006529	-1.882496	1
H	-0.873489	1.425060	0.878614	1
H	0.046731	1.940179	-0.554876	1
H	0.250741	-0.160441	2.442234	1
H	1.747551	0.711650	2.093264	1
H	1.704911	-1.054101	1.975944	1
H	1.677231	-0.005311	-1.663206	1
H	2.541041	-0.971710	-0.460306	1
H	2.617031	0.795870	-0.402626	1
H	0.064911	-1.822470	-0.601886	1
Es	0.212187	-0.651464	0.104273	99
Es	-0.277556	-1.036992	-0.050901	99
Es	-0.056420	-1.503921	-0.400740	99
Es	-2.521126	-0.143252	-0.644359	99
Es	1.525214	-0.765153	1.909718	99
Es	-0.306988	1.071112	0.008351	99
Es	2.405777	0.525338	-0.464428	99
Es	1.130026	-0.140252	1.788321	99
Es	1.757743	-0.022100	-1.325658	99
Es	-0.693389	1.302805	0.603146	99
Es	0.530168	-0.149722	2.228107	99
Es	2.348210	-0.683735	-0.502253	99
Es	-2.710957	-0.175126	0.073895	99
Es	0.951009	-0.080694	1.064667	99
Es	-0.061482	1.669156	-0.377712	99
Es	-0.468153	-1.138030	0.233144	99
Es	0.743973	-0.024069	0.319833	99
Es	1.359098	-0.033088	-0.154686	99
Es	-2.773038	-0.758330	-0.988127	99
Es	1.958508	-0.055358	-0.605846	99
Es	-1.022408	-0.016327	-0.820922	99
Es	-2.866341	0.449461	-0.950602	99
Es	-0.828970	0.001634	-1.555009	99
Es	0.272909	0.597633	0.197237	99
Es	-0.614028	-0.645306	-0.434060	99
Es	1.555163	0.445940	1.990925	99
Es	-0.720951	0.599760	-0.437539	99
Es	-1.784691	-0.076197	-0.737391	99
48
Properties=species:S:1:pos:R:3:Z:I:1 energy=-289.2967939320964 field_type=dipole dipole="0.000000 0.000000 0.000000" charge=0
C	-2.521119	-0.143261	-0.644336	6
C	-1.022469	-0.016251	-0.821016	6
C	-0.306999	1.071150	0.008374	6
C	0.744051	-0.023991	0.319874	6
C	1.130002	-0.140261	1.788314	6
C	1.958511	-0.055361	-0.605846	6
N	-0.277829	-1.037181	-0.050476	7
H	-2.896929	-1.042781	-1.144176	1
H	-3.031569	0.718859	-1.087016	1
H	-2.809269	-0.196181	0.411644	1
H	-0.743039	0.006529	-1.882496	1
H	-0.873489	1.425060	0.878614	1
H	0.046731	1.940179	-0.554876	1
H	0.250741	-0.160441	2.442234	1
H	1.747551	0.711650	2.093264	1
H	1.704911	-1.054101	1.975944	1
H	1.677231	-0.005311	-1.663206	1
H	2.541041	-0.971710	-0.460306	1
H	2.617031	0.795870	-0.402626	1
H	0.064911	-1.822470	-0.601886	1
Es	2.405858	0.525296	-0.464487	99
Es	1.555341	0.445852	1.990731	99
Es	0.950992	-0.080823	1.064672	99
Es	-0.306989	1.071110	0.008349	99
Es	0.212361	-0.651424	0.104268	99
Es	1.525092	-0.765124	1.909753	99
Es	-2.521126	-0.143252	-0.644360	99
Es	-2.773031	-0.758293	-0.988130	99
Es	-2.866275	0.449407	-0.950664	99
Es	-0.056535	-1.503618	-0.400906	99
Es	2.348174	-0.683787	-0.502367	99
Es	1.958509	-0.055359	-0.605846	99
Es	1.130028	-0.140251	1.788319	99
Es	1.757666	-0.022043	-1.325579	99
Es	-0.693377	1.302637	0.603099	99
Es	-0.277492	-1.036961	-0.050975	99
Es	-1.784676	-0.076240	-0.737376	99
Es	0.743978	-0.024068	0.319831	99
Es	0.273033	0.597704	0.197249	99
Es	-2.711069	-0.175084	0.073917	99
Es	-0.061602	1.669263	-0.377551	99
Es	-0.720940	0.599775	-0.437667	99
Es	-0.829017	0.001680	-1.554908	99
Es	-0.614269	-0.645415	-0.433830	99
Es	1.359158	-0.033026	-0.154567	99
Es	-0.467988	-1.138374	0.233084	99
Es	-1.022407	-0.016326	-0.820924	99
Es	0.530092	-0.149536	2.228248	99
48
Properties=species:S:1:pos:R:3:Z:I:1 energy=-289.2967939320964 field_type=dipole dipole="0.000000 0.000000 0.000000" charge=0
C	-2.521119	-0.143261	-0.644336	6
C	-1.022469	-0.016251	-0.821016	6
C	-0.306999	1.071150	0.008374	6
C	0.744051	-0.023991	0.319874	6
C	1.130002	-0.140261	1.788314	6
C	1.958511	-0.055361	-0.605846	6
N	-0.277829	-1.037181	-0.050476	7
H	-2.896929	-1.042781	-1.144176	1
H	-3.031569	0.718859	-1.087016	1
H	-2.809269	-0.196181	0.411644	1
H	-0.743039	0.006529	-1.882496	1
H	-0.873489	1.425060	0.878614	1
H	0.046731	1.940179	-0.554876	1
H	0.250741	-0.160441	2.442234	1
H	1.747551	0.711650	2.093264	1
H	1.704911	-1.054101	1.975944	1
H	1.677231	-0.005311	-1.663206	1
H	2.541041	-0.971710	-0.460306	1
H	2.617031	0.795870	-0.402626	1
H	0.064911	-1.822470	-0.601886	1
Es	-0.693285	1.302894	0.603032	99
Es	0.273042	0.597721	0.197338	99
Es	2.405825	0.525308	-0.464465	99
Es	2.348196	-0.683737	-0.502341	99
Es	-0.721084	0.599799	-0.437624	99
Es	-1.784669	-0.076263	-0.737486	99
Es	1.757712	-0.022070	-1.325610	99
Es	1.359117	-0.033089	-0.154539	99
Es	-2.710969	-0.174978	0.073907	99
Es	1.958508	-0.055359	-0.605848	99
Es	-0.829014	0.001661	-1.554890	99
Es	-2.773066	-0.758359	-0.987973	99
Es	1.555245	0.445851	1.990791	99
Es	1.525170	-0.765105	1.909737	99
Es	0.743973	-0.024069	0.319833	99
Es	-0.277538	-1.036986	-0.050932	99
Es	-2.866333	0.449407	-0.950733	99
Es	-0.614083	-0.645287	-0.434215	99
Es	-2.521121	-0.143252	-0.644361	99
Es	1.130028	-0.140252	1.788322	99
Es	0.951067	-0.080759	1.064588	99
Es	-0.468122	-1.138068	0.232405	99
Es	-0.061542	1.669062	-0.377616	99
Es	-0.056576	-1.503904	-0.400564	99
Es	-1.022408	-0.016327	-0.820922	99
Es	0.530048	-0.149610	2.228211	99
Es	0.212351	-0.651617	0.104988	99
Es	-0.306988	1.071108	0.008349	99
48
Properties=species:S:1:pos:R:3:Z:I:1 energy=-289.2967939320964 field_type=dipole dipole="0.000000 0.000000 0.000000" charge=0
C	-2.521119	-0.143261	-0.644336	6
C	-1.022469	-0.016251	-0.821016	6
C	-0.306999	1.071150	0.008374	6
C	0.744051	-0.023991	0.319874	6
C	1.130002	-0.140261	1.788314	6
C	1.958511	-0.055361	-0.605846	6
N	-0.277829	-1.037181	-0.050476	7
H	-2.896929	-1.042781	-1.144176	1
H	-3.031569	0.718859	-1.087016	1
H	-2.809269	-0.196181	0.411644	1
H	-0.743039	0.006529	-1.882496	1
H	-0.873489	1.425060	0.878614	1
H	0.046731	1.940179	-0.554876	1
H	0.250741	-0.160441	2.442234	1
H	1.747551	0.711650	2.093264	1
H	1.704911	-1.054101	1.975944	1
H	1.677231	-0.005311	-1.663206	1
H	2.541041	-0.971710	-0.460306	1
H	2.617031	0.795870	-0.402626	1
H	0.064911	-1.822470	-0.601886	1
Es	1.130028	-0.140251	1.788317	99
Es	-2.521125	-0.143252	-0.644361	99
Es	1.359105	-0.033108	-0.154500	99
Es	-1.784598	-0.076271	-0.737537	99
Es	-2.710970	-0.175042	0.073895	99
Es	1.525068	-0.765151	1.909702	99
Es	0.212248	-0.651615	0.105129	99
Es	-1.022407	-0.016326	-0.820922	99
Es	-0.721129	0.599985	-0.437735	99
Es	-0.693267	1.302835	0.603030	99
Es	2.348274	-0.683714	-0.502409	99
Es	0.530118	-0.149608	2.228190	99
Es	-0.613987	-0.645304	-0.434141	99
Es	1.757699	-0.022065	-1.325545	99
Es	-0.306989	1.071113	0.008351	99
Es	0.743974	-0.024068	0.319833	99
Es	-0.056255	-1.503100	-0.401020	99
Es	-2.773081	-0.758318	-0.988016	99
Es	0.273074	0.597626	0.197318	99
Es	1.555318	0.445819	1.990888	99
Es	-2.866349	0.449407	-0.950661	99
Es	-0.468369	-1.138882	0.232593	99
Es	-0.061558	1.669087	-0.377515	99
Es	0.951017	-0.080661	1.064555	99
Es	1.958512	-0.055362	-0.605846	99
Es	2.405784	0.525331	-0.464523	99
Es	-0.829083	0.001615	-1.554819	99
Es	-0.277568	-1.037000	-0.050868	99
48
Properties=species:S:1:pos:R:3:Z:I:1 energy=-289.2967939320964 field_type=dipole dipole="0.000000 0.000000 0.000000" charge=0
C	-2.521119	-0.143261	-0.644336	6
C	-1.022469	-0.016251	-0.821016	6
C	-0.306999	1.071150	0.008374	6
C	0.744051	-0.023991	0.319874	6
C	1.130002	-0.140261	1.788314	6
C	1.958511	-0.055361	-0.605846	6
N	-0.277829	-1.037181	-0.050476	7
H	-2.896929	-1.042781	-1.144176	1
H	-3.031569	0.718859	-1.087016	1
H	-2.809269	-0.196181	0.411644	1
H	-0.743039	0.006529	-1.882496	1
H	-0.873489	1.425060	0.878614	1
H	0.046731	1.940179	-0.554876	1
H	0.250741	-0.160441	2.442234	1
H	1.747551	0.711650	2.093264	1
H	1.704911	-1.054101	1.975944	1
H	1.677231	-0.005311	-1.663206	1
H	2.541041	-0.971710	-0.460306	1
H	2.617031	0.795870	-0.402626	1
H	0.064911	-1.822470	-0.601886	1
Es	1.130028	-0.140251	1.788320	99
Es	-2.521126	-0.143251	-0.644359	99
Es	-2.710982	-0.175043	0.073869	99
Es	0.743971	-0.024069	0.319832	99
Es	0.212596	-0.651761	0.105040	99
Es	-2.773098	-0.758302	-0.988002	99
Es	-0.614776	-0.645253	-0.433965	99
Es	-0.056849	-1.504052	-0.400417	99
Es	0.951090	-0.080714	1.064516	99
Es	1.358973	-0.033078	-0.154545	99
Es	1.555306	0.445860	1.990861	99
Es	-0.277571	-1.037008	-0.050887	99
Es	-1.784593	-0.076257	-0.737604	99
Es	-0.306988	1.071112	0.008350	99
Es	2.405818	0.525279	-0.464459	99
Es	-1.022407	-0.016326	-0.820922	99
Es	1.958510	-0.055359	-0.605848	99
Es	-2.866345	0.449422	-0.950667	99
Es	0.530108	-0.149594	2.228158	99
Es	-0.721099	0.599918	-0.437728	99
Es	0.273147	0.597755	0.197399	99
Es	1.757816	-0.022056	-1.325590	99
Es	-0.467349	-1.137912	0.231991	99
Es	-0.061660	1.669047	-0.377517	99
Es	2.348203	-0.683713	-0.502359	99
Es	1.525076	-0.765153	1.909749	99
Es	-0.829026	0.001611	-1.554769	99
Es	-0.693289	1.302869	0.602934	99
48
Properties=species:S:1:pos:R:3:Z:I:1 energy=-289.2967939320964 field_type=dipole dipole="0.000000 0.000000 0.000000" charge=0
C	-2.521119	-0.143261	-0.644336	6
C	-1.022469	-0.016251	-0.821016	6
C	-0.306999	1.071150	0.008374	6
C	0.744051	-0.023991	0.319874	6
C	1.130002	-0.140261	1.788314	6
C	1.958511	-0.055361	-0.605846	6
N	-0.277829	-1.037181	-0.050476	7
H	-2.896929	-1.042781	-1.144176	1
H	-3.031569	0.718859	-1.087016	1
H	-2.809269	-0.196181	0.411644	1
H	-0.743039	0.006529	-1.882496	1
H	-0.873489	1.425060	0.878614	1
H	0.046731	1.940179	-0.554876	1
H	0.250741	-0.160441	2.442234	1
H	1.747551	0.711650	2.093264	1
H	1.704911	-1.054101	1.975944	1
H	1.677231	-0.005311	-1.663206	1
H	2.541041	-0.971710	-0.460306	1
H	2.617031	0.795870	-0.402626	1
H	0.064911	-1.822470	-0.601886	1
Es	-1.022407	-0.016324	-0.820922	99
Es	-0.277516	-1.036965	-0.050983	99
Es	1.757824	-0.022091	-1.325580	99
Es	-0.829087	0.001622	-1.554723	99
Es	-0.693222	1.302828	0.602924	99
Es	-1.784555	-0.076271	-0.737633	99
Es	0.212610	-0.651598	0.104617	99
Es	1.958512	-0.055359	-0.605847	99
Es	0.743974	-0.024067	0.319832	99
Es	1.358936	-0.033046	-0.154487	99
Es	2.405817	0.525277	-0.464498	99
Es	-2.710960	-0.175085	0.073859	99
Es	-0.614820	-0.645504	-0.433996	99
Es	0.273176	0.597694	0.197391	99
Es	-0.721203	0.600047	-0.437812	99
Es	-2.521127	-0.143252	-0.644360	99
Es	1.130027	-0.140252	1.788318	99
Es	-0.467266	-1.137741	0.232257	99
Es	1.525241	-0.765080	1.909756	99
Es	2.348214	-0.683680	-0.502362	99
Es	-0.056926	-1.504212	-0.400212	99
Es	1.555136	0.445794	1.990870	99
Es	0.951095	-0.080689	1.064451	99
Es	0.530107	-0.149667	2.228225	99
Es	-0.306987	1.071115	0.008349	99
Es	-2.866343	0.449437	-0.950596	99
Es	-0.061638	1.669073	-0.377412	99
Es	-2.773128	-0.758284	-0.988044	99
48
Properties=species:S:1:pos:R:3:Z:I:1 energy=-289.2967939320964 field_type=dipole dipole="0.000000 0.000000 0.000000" charge=0
C	-2.521119	-0.143261	-0.644336	6
C	-1.022469	-0.016251	-0.821016	6
C	-0.306999	1.071150	0.008374	6
C	0.744051	-0.023991	0.319874	6
C	1.130002	-0.140261	1.788314	6
C	1.958511	-0.055361	-0.605846	6
N	-0.277829	-1.037181	-0.050476	7
H	-2.896929	-1.042781	-1.144176	1
H	-3.031569	0.718859	-1.087016	1
H	-2.809269	-0.196181	0.411644	1
H	-0.743039	0.006529	-1.882496	1
H	-0.873489	1.425060	0.878614	1
H	0.046731	1.940179	-0.554876	1
H	0.250741	-0.160441	2.442234	1
H	1.747551	0.711650	2.093264	1
H	1.704911	-1.054101	1.975944	1
H	1.677231	-0.005311	-1.663206	1
H	2.541041	-0.971710	-0.460306	1
H	2.617031	0.795870	-0.402626	1
H	0.064911	-1.822470	-0.601886	1
Es	-0.061675	1.669024	-0.377434	99
Es	1.555288	0.445858	1.990914	99
Es	2.348213	-0.683674	-0.502379	99
Es	-0.721211	0.600071	-0.437835	99
Es	0.212558	-0.651604	0.105191	99
Es	1.525067	-0.765113	1.909765	99
Es	0.530178	-0.149637	2.228163	99
Es	0.273231	0.597852	0.197453	99
Es	-0.614715	-0.645488	-0.434167	99
Es	-0.829151	0.001563	-1.554654	99
Es	-2.773114	-0.758315	-0.987982	99
Es	-1.022405	-0.016324	-0.820919	99
Es	1.130027	-0.140252	1.788320	99
Es	-2.710966	-0.175054	0.073814	99
Es	1.958509	-0.055358	-0.605846	99
Es	-0.693170	1.302881	0.602896	99
Es	-1.784514	-0.076293	-0.737629	99
Es	-2.521127	-0.143252	-0.644360	99
Es	0.743965	-0.024066	0.319831	99
Es	-0.277630	-1.037007	-0.050788	99
Es	0.951070	-0.080779	1.064379	99
Es	1.358917	-0.033094	-0.154434	99
Es	1.757832	-0.022085	-1.325576	99
Es	-0.056807	-1.504086	-0.400191	99
Es	-2.866389	0.449420	-0.950628	99
Es	-0.467340	-1.137829	0.231645	99
Es	-0.306988	1.071110	0.008351	99
Es	2.405831	0.525251	-0.464517	99
