40
Properties=species:S:1:pos:R:3:Z:I:1 energy=-322.79341823243635 field_type=dipole dipole="0.000000 0.000000 0.000000" charge=0
O	-1.934440	0.040960	1.661779	8
C	-1.043910	0.020460	0.821159	6
C	-0.434989	-1.250140	0.253369	6
C	0.582960	-0.765210	-0.735341	6
N	1.763990	-0.020010	-0.316521	7
C	0.596710	0.733350	-0.756851	6
C	-0.412440	1.264200	0.217159	6
H	-1.216360	-1.828220	-0.246281	1
H	0.028920	-1.832470	1.052889	1
H	0.644920	-1.324570	-1.657821	1
H	1.878570	-0.006730	0.699019	1
H	0.667900	1.265200	-1.694681	1
H	0.062000	1.861230	1.000609	1
H	-1.183830	1.841950	-0.298481	1
Es	-2.025731	-0.244979	1.748675	99
Es	-0.957844	-1.625834	-0.080155	99
Es	1.763429	-0.020001	-0.316229	99
Es	2.043345	-0.025597	-0.523438	99
Es	-0.434984	-1.250082	0.253362	99
Es	1.306794	-0.474451	-0.438316	99
Es	-0.720658	0.650960	0.519560	99
Es	0.596866	0.733197	-0.756733	99
Es	-0.732234	-0.623605	0.537856	99
Es	-1.442647	0.033705	1.544951	99
Es	-1.787824	0.031655	1.175117	99
Es	1.314972	0.438554	-0.451654	99
Es	0.633850	-1.152491	-1.359259	99
Es	0.114673	1.021783	-0.256178	99
Es	0.654063	1.101754	-1.391479	99
Es	1.803109	-0.011520	0.299006	99
Es	-0.129596	-1.628961	0.793440	99
Es	-1.934189	0.040992	1.661546	99
Es	0.410892	-0.015897	-0.855961	99
Es	-2.017657	0.332635	1.737906	99
Es	-0.100184	1.653329	0.746660	99
Es	0.096150	-1.030587	-0.226634	99
Es	-0.928808	1.639397	-0.126928	99
Es	-1.043894	0.020460	0.821142	99
Es	0.583115	-0.765068	-0.735227	99
Es	-0.412434	1.264142	0.217157	99
40
Properties=species:S:1:pos:R:3:Z:I:1 energy=-322.79341823243635 field_type=dipole dipole="0.000000 0.000000 0.000000" charge=0
O	-1.934440	0.040960	1.661779	8
C	-1.043910	0.020460	0.821159	6
C	-0.434989	-1.250140	0.253369	6
C	0.582960	-0.765210	-0.735341	6
N	1.763990	-0.020010	-0.316521	7
C	0.596710	0.733350	-0.756851	6
C	-0.412440	1.264200	0.217159	6
H	-1.216360	-1.828220	-0.246281	1
H	0.028920	-1.832470	1.052889	1
H	0.644920	-1.324570	-1.657821	1
H	1.878570	-0.006730	0.699019	1
H	0.667900	1.265200	-1.694681	1
H	0.062000	1.861230	1.000609	1
H	-1.183830	1.841950	-0.298481	1
Es	0.410828	-0.016218	-0.856034	99
Es	0.583125	-0.765057	-0.735222	99
Es	-0.957822	-1.625544	-0.080161	99
Es	0.096026	-1.030728	-0.226793	99
Es	-0.434982	-1.250081	0.253365	99
Es	2.043157	-0.025567	-0.523233	99
Es	1.763412	-0.020001	-0.316225	99
Es	-2.025814	-0.245838	1.747387	99
Es	-1.442955	0.033707	1.545200	99
Es	-1.043894	0.020460	0.821139	99
Es	-0.720643	0.650983	0.519575	99
Es	-0.100279	1.653458	0.746664	99
Es	-0.928823	1.639227	-0.126860	99
Es	-2.018094	0.332419	1.738645	99
Es	0.114706	1.021898	-0.256253	99
Es	-1.786968	0.032759	1.175406	99
Es	1.307029	-0.474596	-0.438325	99
Es	-0.732162	-0.623604	0.537898	99
Es	0.633803	-1.152266	-1.359272	99
Es	1.803274	-0.011735	0.298777	99
Es	1.315003	0.439055	-0.451585	99
Es	-0.412434	1.264141	0.217157	99
Es	0.654054	1.101731	-1.391337	99
Es	-1.934201	0.040932	1.661555	99
Es	0.596869	0.733205	-0.756729	99
Es	-0.129640	-1.629250	0.793448	99
40
Properties=species:S:1:pos:R:3:Z:I:1 energy=-322.79341823243635 field_type=dipole dipole="0.000000 0.000000 0.000000" charge=0
O	-1.934440	0.040960	1.661779	8
C	-1.043910	0.020460	0.821159	6
C	-0.434989	-1.250140	0.253369	6
C	0.582960	-0.765210	-0.735341	6
N	1.763990	-0.020010	-0.316521	7
C	0.596710	0.733350	-0.756851	6
C	-0.412440	1.264200	0.217159	6
H	-1.216360	-1.828220	-0.246281	1
H	0.028920	-1.832470	1.052889	1
H	0.644920	-1.324570	-1.657821	1
H	1.878570	-0.006730	0.699019	1
H	0.667900	1.265200	-1.694681	1
H	0.062000	1.861230	1.000609	1
H	-1.183830	1.841950	-0.298481	1
Es	1.315287	0.439236	-0.451691	99
Es	1.803682	-0.011636	0.298818	99
Es	-1.043892	0.020460	0.821140	99
Es	-1.442558	0.034924	1.545091	99
Es	-0.100258	1.653292	0.746662	99
Es	-1.934204	0.040936	1.661557	99
Es	-2.023670	-0.246165	1.746374	99
Es	0.654105	1.101755	-1.391204	99
Es	1.306878	-0.475022	-0.438504	99
Es	-0.412434	1.264141	0.217156	99
Es	0.596868	0.733206	-0.756730	99
Es	0.410430	-0.015933	-0.856395	99
Es	-0.928845	1.639396	-0.126854	99
Es	1.763419	-0.020000	-0.316229	99
Es	-2.020125	0.331490	1.739820	99
Es	-1.787499	0.032825	1.175307	99
Es	0.096271	-1.030676	-0.226632	99
Es	0.583130	-0.765053	-0.735223	99
Es	-0.732079	-0.623665	0.538004	99
Es	0.633872	-1.152488	-1.358974	99
Es	-0.129724	-1.629274	0.793393	99
Es	0.114876	1.021925	-0.256335	99
Es	-0.720635	0.651036	0.519553	99
Es	-0.434981	-1.250082	0.253365	99
Es	-0.957893	-1.625529	-0.080278	99
Es	2.042556	-0.025609	-0.523001	99
40
Properties=species:S:1:pos:R:3:Z:I:1 energy=-322.79341823243635 field_type=dipole dipole="0.000000 0.000000 0.000000" charge=0
O	-1.934440	0.040960	1.661779	8
C	-1.043910	0.020460	0.821159	6
C	-0.434989	-1.250140	0.253369	6
C	0.582960	-0.765210	-0.735341	6
N	1.763990	-0.020010	-0.316521	7
C	0.596710	0.733350	-0.756851	6
C	-0.412440	1.264200	0.217159	6
H	-1.216360	-1.828220	-0.246281	1
H	0.028920	-1.832470	1.052889	1
H	0.644920	-1.324570	-1.657821	1
H	1.878570	-0.006730	0.699019	1
H	0.667900	1.265200	-1.694681	1
H	0.062000	1.861230	1.000609	1
H	-1.183830	1.841950	-0.298481	1
Es	-0.412434	1.264141	0.217157	99
Es	-1.043896	0.020460	0.821134	99
Es	-0.129672	-1.629244	0.793506	99
Es	-2.025101	-0.245378	1.748014	99
Es	-1.442502	0.034604	1.545393	99
Es	-0.732235	-0.623750	0.537837	99
Es	-0.434981	-1.250082	0.253364	99
Es	1.803759	-0.011651	0.298710	99
Es	-0.100212	1.653286	0.746655	99
Es	0.114912	1.021924	-0.256408	99
Es	0.633906	-1.152496	-1.358865	99
Es	0.596868	0.733203	-0.756730	99
Es	0.654129	1.101742	-1.391075	99
Es	-0.928819	1.639428	-0.126819	99
Es	-1.787318	0.031883	1.175254	99
Es	1.763432	-0.020001	-0.316233	99
Es	1.315525	0.439503	-0.451728	99
Es	-2.018861	0.331864	1.737968	99
Es	0.583104	-0.765049	-0.735235	99
Es	1.306863	-0.475260	-0.438576	99
Es	-0.957796	-1.625540	-0.080149	99
Es	-1.934208	0.040990	1.661561	99
Es	0.096275	-1.030641	-0.226821	99
Es	-0.720705	0.651142	0.519583	99
Es	0.410199	-0.015967	-0.856572	99
Es	2.042341	-0.025621	-0.522736	99
40
Properties=species:S:1:pos:R:3:Z:I:1 energy=-322.79341823243635 field_type=dipole dipole="0.000000 0.000000 0.000000" charge=0
O	-1.934440	0.040960	1.661779	8
C	-1.043910	0.020460	0.821159	6
C	-0.434989	-1.250140	0.253369	6
C	0.582960	-0.765210	-0.735341	6
N	1.763990	-0.020010	-0.316521	7
C	0.596710	0.733350	-0.756851	6
C	-0.412440	1.264200	0.217159	6
H	-1.216360	-1.828220	-0.246281	1
H	0.028920	-1.832470	1.052889	1
H	0.644920	-1.324570	-1.657821	1
H	1.878570	-0.006730	0.699019	1
H	0.667900	1.265200	-1.694681	1
H	0.062000	1.861230	1.000609	1
H	-1.183830	1.841950	-0.298481	1
Es	-0.129763	-1.629197	0.793435	99
Es	0.096436	-1.030803	-0.226865	99
Es	-1.934193	0.040927	1.661554	99
Es	-1.788457	0.033084	1.175951	99
Es	1.307417	-0.475920	-0.438701	99
Es	0.115016	1.021931	-0.256363	99
Es	2.042078	-0.025014	-0.522508	99
Es	1.803941	-0.011460	0.298551	99
Es	-1.043893	0.020460	0.821142	99
Es	-0.412434	1.264141	0.217157	99
Es	-2.017649	0.332299	1.739582	99
Es	0.410049	-0.016013	-0.856680	99
Es	-0.100274	1.653272	0.746728	99
Es	-2.025608	-0.245314	1.747136	99
Es	0.596869	0.733199	-0.756730	99
Es	-0.732104	-0.623799	0.537972	99
Es	-0.720616	0.651165	0.519540	99
Es	0.583129	-0.765063	-0.735220	99
Es	1.763417	-0.020001	-0.316216	99
Es	0.633907	-1.152448	-1.358754	99
Es	-0.928849	1.639404	-0.126853	99
Es	-0.957894	-1.625543	-0.080110	99
Es	-1.442167	0.033007	1.543848	99
Es	-0.434981	-1.250081	0.253363	99
Es	1.315123	0.439477	-0.451752	99
Es	0.654078	1.101781	-1.391019	99
40
Properties=species:S:1:pos:R:3:Z:I:1 energy=-322.79341823243635 field_type=dipole dipole="0.000000 0.000000 0.000000" charge=0
O	-1.934440	0.040960	1.661779	8
C	-1.043910	0.020460	0.821159	6
C	-0.434989	-1.250140	0.253369	6
C	0.582960	-0.765210	-0.735341	6
N	1.763990	-0.020010	-0.316521	7
C	0.596710	0.733350	-0.756851	6
C	-0.412440	1.264200	0.217159	6
H	-1.216360	-1.828220	-0.246281	1
H	0.028920	-1.832470	1.052889	1
H	0.644920	-1.324570	-1.657821	1
H	1.878570	-0.006730	0.699019	1
H	0.667900	1.265200	-1.694681	1
H	0.062000	1.861230	1.000609	1
H	-1.183830	1.841950	-0.298481	1
Es	0.596874	0.733203	-0.756727	99
Es	-0.412433	1.264141	0.217157	99
Es	0.409594	-0.016086	-0.856949	99
Es	1.763404	-0.019999	-0.316231	99
Es	-1.442659	0.034504	1.545576	99
Es	0.096528	-1.030879	-0.226878	99
Es	-2.019530	0.331443	1.739272	99
Es	-0.434982	-1.250081	0.253364	99
Es	1.315509	0.439822	-0.451787	99
Es	-0.957888	-1.625511	-0.080126	99
Es	-0.720733	0.651213	0.519539	99
Es	-0.100303	1.653142	0.746667	99
Es	-2.024599	-0.245840	1.746449	99
Es	0.583120	-0.765057	-0.735226	99
Es	-1.934234	0.040953	1.661592	99
Es	-0.928811	1.639551	-0.126811	99
Es	-1.043893	0.020460	0.821140	99
Es	0.115116	1.022017	-0.256455	99
Es	-0.129776	-1.629219	0.793455	99
Es	1.804084	-0.011660	0.298500	99
Es	0.633948	-1.152445	-1.358631	99
Es	-0.732158	-0.623851	0.537902	99
Es	1.307370	-0.475702	-0.438817	99
Es	0.654197	1.101747	-1.390851	99
Es	2.041781	-0.025335	-0.522214	99
Es	-1.786948	0.032959	1.175276	99
40
Properties=species:S:1:pos:R:3:Z:I:1 energy=-322.79341823243635 field_type=dipole dipole="0.000000 0.000000 0.000000" charge=0
O	-1.934440	0.040960	1.661779	8
C	-1.043910	0.020460	0.821159	6
C	-0.434989	-1.250140	0.253369	6
C	0.582960	-0.765210	-0.735341	6
N	1.763990	-0.020010	-0.316521	7
C	0.596710	0.733350	-0.756851	6
C	-0.412440	1.264200	0.217159	6
H	-1.216360	-1.828220	-0.246281	1
H	0.028920	-1.832470	1.052889	1
H	0.644920	-1.324570	-1.657821	1
H	1.878570	-0.006730	0.699019	1
H	0.667900	1.265200	-1.694681	1
H	0.062000	1.861230	1.000609	1
H	-1.183830	1.841950	-0.298481	1
Es	0.654168	1.101719	-1.390758	99
Es	-0.100325	1.653262	0.746718	99
Es	-0.957894	-1.625556	-0.080081	99
Es	-0.720686	0.651221	0.519479	99
Es	1.763567	-0.020005	-0.316386	99
Es	0.115120	1.022091	-0.256519	99
Es	-1.786499	0.033841	1.174784	99
Es	1.315688	0.440218	-0.451868	99
Es	-0.928848	1.639398	-0.126788	99
Es	-0.129758	-1.629185	0.793448	99
Es	0.409576	-0.015991	-0.857046	99
Es	2.041234	-0.025455	-0.521953	99
Es	1.804377	-0.011671	0.298436	99
Es	-0.434982	-1.250081	0.253364	99
Es	0.633949	-1.152420	-1.358541	99
Es	0.596864	0.733197	-0.756733	99
Es	1.307308	-0.476042	-0.438784	99
Es	-1.443262	0.032516	1.545935	99
Es	-2.015836	0.331822	1.738156	99
Es	-1.043893	0.020460	0.821141	99
Es	0.583119	-0.765058	-0.735226	99
Es	-1.934148	0.040993	1.661525	99
Es	-0.412434	1.264141	0.217157	99
Es	-2.028162	-0.245161	1.747801	99
Es	-0.732196	-0.623865	0.537884	99
Es	0.096528	-1.030900	-0.226955	99
40
Properties=species:S:1:pos:R:3:Z:I:1 energy=-322.79341823243635 field_type=dipole dipole="0.000000 0.000000 0.000000" charge=0
O	-1.934440	0.040960	1.661779	8
C	-1.043910	0.020460	0.821159	6
C	-0.434989	-1.250140	0.253369	6
C	0.582960	-0.765210	-0.735341	6
N	1.763990	-0.020010	-0.316521	7
C	0.596710	0.733350	-0.756851	6
C	-0.412440	1.264200	0.217159	6
H	-1.216360	-1.828220	-0.246281	1
H	0.028920	-1.832470	1.052889	1
H	0.644920	-1.324570	-1.657821	1
H	1.878570	-0.006730	0.699019	1
H	0.667900	1.265200	-1.694681	1
H	0.062000	1.861230	1.000609	1
H	-1.183830	1.841950	-0.298481	1
Es	-0.928856	1.639389	-0.126798	99
Es	0.583110	-0.765062	-0.735227	99
Es	0.115131	1.022120	-0.256547	99
Es	-0.957905	-1.625566	-0.080049	99
Es	1.315597	0.440192	-0.451988	99
Es	-1.934250	0.040956	1.661625	99
Es	-2.024274	-0.246036	1.747773	99
Es	0.409399	-0.015962	-0.857187	99
Es	-0.434981	-1.250081	0.253365	99
Es	1.763436	-0.020001	-0.316224	99
Es	0.633934	-1.152425	-1.358469	99
Es	-0.412434	1.264141	0.217157	99
Es	-0.720646	0.651268	0.519457	99
Es	1.804573	-0.011530	0.298468	99
Es	-1.786289	0.031919	1.175110	99
Es	-0.732195	-0.623873	0.537924	99
Es	-1.043892	0.020460	0.821136	99
Es	0.654216	1.101703	-1.390635	99
Es	-2.020034	0.331279	1.737735	99
Es	0.096628	-1.030960	-0.226999	99
Es	0.596871	0.733202	-0.756729	99
Es	-0.129767	-1.629167	0.793445	99
Es	2.040990	-0.025151	-0.521853	99
Es	-0.100318	1.653270	0.746740	99
Es	-1.443080	0.035906	1.545918	99
Es	1.307615	-0.476497	-0.438960	99
40
Properties=species:S:1:pos:R:3:Z:I:1 energy=-322.79341823243635 field_type=dipole dipole="0.000000 0.000000 0.000000" charge=0
O	-1.934440	0.040960	1.661779	8
C	-1.043910	0.020460	0.821159	6
C	-0.434989	-1.250140	0.253369	6
C	0.582960	-0.765210	-0.735341	6
N	1.763990	-0.020010	-0.316521	7
C	0.596710	0.733350	-0.756851	6
C	-0.412440	1.264200	0.217159	6
H	-1.216360	-1.828220	-0.246281	1
H	0.028920	-1.832470	1.052889	1
H	0.644920	-1.324570	-1.657821	1
H	1.878570	-0.006730	0.699019	1
H	0.667900	1.265200	-1.694681	1
H	0.062000	1.861230	1.000609	1
H	-1.183830	1.841950	-0.298481	1
Es	1.315339	0.440479	-0.452228	99
Es	0.115303	1.022233	-0.256600	99
Es	-1.934198	0.040901	1.661546	99
Es	1.308207	-0.476983	-0.438905	99
Es	0.583121	-0.765055	-0.735225	99
Es	-0.732191	-0.623944	0.537889	99
Es	2.040331	-0.025119	-0.521549	99
Es	-2.017557	0.331766	1.736999	99
Es	0.096710	-1.031026	-0.227068	99
Es	0.633954	-1.152366	-1.358330	99
Es	-0.434981	-1.250081	0.253365	99
Es	1.763405	-0.020001	-0.316238	99
Es	-1.442719	0.034159	1.545752	99
Es	1.805067	-0.011590	0.298349	99
Es	0.409159	-0.015800	-0.857326	99
Es	-1.786859	0.031900	1.175033	99
Es	-0.129870	-1.629134	0.793468	99
Es	0.596867	0.733196	-0.756732	99
Es	-0.412434	1.264142	0.217157	99
Es	-0.957894	-1.625566	-0.080031	99
Es	-1.043895	0.020460	0.821138	99
Es	-2.026551	-0.244699	1.748838	99
Es	-0.928862	1.639405	-0.126734	99
Es	-0.720690	0.651275	0.519425	99
Es	0.654178	1.101709	-1.390549	99
Es	-0.100368	1.653229	0.746745	99
40
Properties=species:S:1:pos:R:3:Z:I:1 energy=-322.79341823243635 field_type=dipole dipole="0.000000 0.000000 0.000000" charge=0
O	-1.934440	0.040960	1.661779	8
C	-1.043910	0.020460	0.821159	6
C	-0.434989	-1.250140	0.253369	6
C	0.582960	-0.765210	-0.735341	6
N	1.763990	-0.020010	-0.316521	7
C	0.596710	0.733350	-0.756851	6
C	-0.412440	1.264200	0.217159	6
H	-1.216360	-1.828220	-0.246281	1
H	0.028920	-1.832470	1.052889	1
H	0.644920	-1.324570	-1.657821	1
H	1.878570	-0.006730	0.699019	1
H	0.667900	1.265200	-1.694681	1
H	0.062000	1.861230	1.000609	1
H	-1.183830	1.841950	-0.298481	1
Es	0.654230	1.101696	-1.390419	99
Es	1.804896	-0.011726	0.298221	99
Es	-1.043894	0.020460	0.821139	99
Es	-1.934205	0.040920	1.661544	99
Es	0.634043	-1.152413	-1.358181	99
Es	1.763420	-0.020001	-0.316242	99
Es	-0.412435	1.264138	0.217157	99
Es	0.583121	-0.765055	-0.735225	99
Es	-0.928815	1.639484	-0.126742	99
Es	-0.732198	-0.623982	0.537839	99
Es	-2.025391	-0.244857	1.747396	99
Es	-0.100377	1.653161	0.746760	99
Es	-0.434982	-1.250081	0.253365	99
Es	2.040439	-0.025144	-0.521368	99
Es	-0.720794	0.651357	0.519399	99
Es	-2.019394	0.331299	1.737722	99
Es	1.315631	0.440810	-0.452069	99
Es	-1.786333	0.031962	1.175028	99
Es	-0.129789	-1.629097	0.793477	99
Es	1.307979	-0.476920	-0.439036	99
Es	0.115308	1.022200	-0.256636	99
Es	-1.442510	0.034666	1.546520	99
Es	0.596869	0.733194	-0.756731	99
Es	-0.957920	-1.625616	-0.080037	99
Es	0.096666	-1.031014	-0.227094	99
Es	0.409011	-0.015948	-0.857599	99
40
Properties=species:S:1:pos:R:3:Z:I:1 energy=-322.79341823243635 field_type=dipole dipole="0.000000 0.000000 0.000000" charge=0
O	-1.934440	0.040960	1.661779	8
C	-1.043910	0.020460	0.821159	6
C	-0.434989	-1.250140	0.253369	6
C	0.582960	-0.765210	-0.735341	6
N	1.763990	-0.020010	-0.316521	7
C	0.596710	0.733350	-0.756851	6
C	-0.412440	1.264200	0.217159	6
H	-1.216360	-1.828220	-0.246281	1
H	0.028920	-1.832470	1.052889	1
H	0.644920	-1.324570	-1.657821	1
H	1.878570	-0.006730	0.699019	1
H	0.667900	1.265200	-1.694681	1
H	0.062000	1.861230	1.000609	1
H	-1.183830	1.841950	-0.298481	1
Es	0.583118	-0.765049	-0.735228	99
Es	1.316275	0.441531	-0.452269	99
Es	-1.934245	0.040969	1.661579	99
Es	-0.100402	1.653403	0.746642	99
Es	-0.929001	1.639211	-0.126719	99
Es	-2.025749	-0.244301	1.748362	99
Es	0.115308	1.022442	-0.256715	99
Es	-1.786945	0.031443	1.175025	99
Es	-1.442688	0.033929	1.545687	99
Es	1.805149	-0.011732	0.298166	99
Es	-0.412435	1.264137	0.217158	99
Es	-0.957896	-1.625575	-0.080009	99
Es	-0.434983	-1.250082	0.253363	99
Es	-0.732229	-0.624077	0.537904	99
Es	0.654139	1.101550	-1.390417	99
Es	-0.720502	0.651280	0.519559	99
Es	2.040138	-0.025790	-0.521312	99
Es	-2.018223	0.331984	1.737502	99
Es	0.096825	-1.031000	-0.227106	99
Es	0.408970	-0.016125	-0.857517	99
Es	1.307447	-0.476807	-0.438982	99
Es	1.763425	-0.020000	-0.316231	99
Es	-1.043889	0.020460	0.821141	99
Es	0.633943	-1.152369	-1.358131	99
Es	-0.129845	-1.629135	0.793465	99
Es	0.596871	0.733193	-0.756729	99
40
Properties=species:S:1:pos:R:3:Z:I:1 energy=-322.79341823243635 field_type=dipole dipole="0.000000 0.000000 0.000000" charge=0
O	-1.934440	0.040960	1.661779	8
C	-1.043910	0.020460	0.821159	6
C	-0.434989	-1.250140	0.253369	6
C	0.582960	-0.765210	-0.735341	6
N	1.763990	-0.020010	-0.316521	7
C	0.596710	0.733350	-0.756851	6
C	-0.412440	1.264200	0.217159	6
H	-1.216360	-1.828220	-0.246281	1
H	0.028920	-1.832470	1.052889	1
H	0.644920	-1.324570	-1.657821	1
H	1.878570	-0.006730	0.699019	1
H	0.667900	1.265200	-1.694681	1
H	0.062000	1.861230	1.000609	1
H	-1.183830	1.841950	-0.298481	1
Es	-1.442688	0.035471	1.545686	99
Es	0.408820	-0.016022	-0.857730	99
Es	-1.043892	0.020460	0.821139	99
Es	1.307843	-0.477296	-0.438791	99
Es	2.039956	-0.025517	-0.521143	99
Es	0.096737	-1.031132	-0.227170	99
Es	0.634038	-1.152297	-1.358066	99
Es	-0.434982	-1.250080	0.253364	99
Es	0.583119	-0.765055	-0.735227	99
Es	-0.720692	0.651400	0.519484	99
Es	-0.957917	-1.625498	-0.080049	99
Es	0.596867	0.733196	-0.756731	99
Es	-2.020369	0.330703	1.739032	99
Es	1.805273	-0.011554	0.297968	99
Es	0.115373	1.022284	-0.256757	99
Es	-1.786810	0.032463	1.175065	99
Es	-0.412434	1.264141	0.217157	99
Es	-2.023781	-0.245630	1.746795	99
Es	-0.129842	-1.629221	0.793463	99
Es	-0.928864	1.639339	-0.126710	99
Es	0.654206	1.101638	-1.390270	99
Es	-0.732175	-0.624041	0.537917	99
Es	1.315962	0.441446	-0.452281	99
Es	-0.100413	1.653293	0.746724	99
Es	1.763439	-0.020003	-0.316235	99
Es	-1.934200	0.041003	1.661555	99
40
Properties=species:S:1:pos:R:3:Z:I:1 energy=-322.79341823243635 field_type=dipole dipole="0.000000 0.000000 0.000000" charge=0
O	-1.934440	0.040960	1.661779	8
C	-1.043910	0.020460	0.821159	6
C	-0.434989	-1.250140	0.253369	6
C	0.582960	-0.765210	-0.735341	6
N	1.763990	-0.020010	-0.316521	7
C	0.596710	0.733350	-0.756851	6
C	-0.412440	1.264200	0.217159	6
H	-1.216360	-1.828220	-0.246281	1
H	0.028920	-1.832470	1.052889	1
H	0.644920	-1.324570	-1.657821	1
H	1.878570	-0.006730	0.699019	1
H	0.667900	1.265200	-1.694681	1
H	0.062000	1.861230	1.000609	1
H	-1.183830	1.841950	-0.298481	1
Es	-1.442770	0.036131	1.545216	99
Es	-0.720713	0.651431	0.519443	99
Es	-0.434982	-1.250079	0.253363	99
Es	-1.043890	0.020460	0.821139	99
Es	0.654224	1.101625	-1.390144	99
Es	1.316481	0.441685	-0.452366	99
Es	0.583121	-0.765050	-0.735225	99
Es	0.115503	1.022357	-0.256742	99
Es	-1.787239	0.032378	1.174959	99
Es	0.408430	-0.016035	-0.857960	99
Es	1.307681	-0.477212	-0.439086	99
Es	-0.957898	-1.625531	-0.079992	99
Es	-0.732170	-0.624087	0.537915	99
Es	-1.934208	0.040918	1.661566	99
Es	0.634017	-1.152327	-1.357896	99
Es	-0.412433	1.264141	0.217156	99
Es	-2.021461	0.330432	1.740018	99
Es	2.039651	-0.025696	-0.520878	99
Es	-0.129921	-1.629152	0.793487	99
Es	-0.928891	1.639446	-0.126709	99
Es	-2.022172	-0.245825	1.746339	99
Es	1.763430	-0.020001	-0.316246	99
Es	0.596868	0.733193	-0.756731	99
Es	1.805388	-0.011669	0.298002	99
Es	-0.100432	1.653178	0.746731	99
Es	0.096963	-1.031221	-0.227170	99
40
Properties=species:S:1:pos:R:3:Z:I:1 energy=-322.79341823243635 field_type=dipole dipole="0.000000 0.000000 0.000000" charge=0
O	-1.934440	0.040960	1.661779	8
C	-1.043910	0.020460	0.821159	6
C	-0.434989	-1.250140	0.253369	6
C	0.582960	-0.765210	-0.735341	6
N	1.763990	-0.020010	-0.316521	7
C	0.596710	0.733350	-0.756851	6
C	-0.412440	1.264200	0.217159	6
H	-1.216360	-1.828220	-0.246281	1
H	0.028920	-1.832470	1.052889	1
H	0.644920	-1.324570	-1.657821	1
H	1.878570	-0.006730	0.699019	1
H	0.667900	1.265200	-1.694681	1
H	0.062000	1.861230	1.000609	1
H	-1.183830	1.841950	-0.298481	1
Es	-0.957942	-1.625567	-0.079938	99
Es	0.115702	1.022341	-0.256784	99
Es	-0.434981	-1.250082	0.253364	99
Es	-2.024971	-0.245050	1.747177	99
Es	1.316303	0.441614	-0.452259	99
Es	1.308071	-0.477832	-0.439247	99
Es	0.654220	1.101679	-1.390061	99
Es	-2.019255	0.331155	1.738618	99
Es	-0.412432	1.264142	0.217158	99
Es	-0.100524	1.653175	0.746815	99
Es	-1.043892	0.020460	0.821139	99
Es	-0.732206	-0.624129	0.537876	99
Es	0.408185	-0.015866	-0.858059	99
Es	2.038960	-0.025189	-0.520707	99
Es	0.097013	-1.031245	-0.227294	99
Es	-0.129914	-1.629090	0.793498	99
Es	1.763431	-0.020001	-0.316236	99
Es	0.634054	-1.152335	-1.357841	99
Es	0.583122	-0.765052	-0.735225	99
Es	1.805925	-0.011665	0.297941	99
Es	-1.934163	0.041032	1.661517	99
Es	-0.928866	1.639407	-0.126706	99
Es	-0.720696	0.651519	0.519395	99
Es	-1.786955	0.032403	1.175391	99
Es	0.596864	0.733188	-0.756733	99
Es	-1.442480	0.034478	1.545388	99
40
Properties=species:S:1:pos:R:3:Z:I:1 energy=-322.79341823243635 field_type=dipole dipole="0.000000 0.000000 0.000000" charge=0
O	-1.934440	0.040960	1.661779	8
C	-1.043910	0.020460	0.821159	6
C	-0.434989	-1.250140	0.253369	6
C	0.582960	-0.765210	-0.735341	6
N	1.763990	-0.020010	-0.316521	7
C	0.596710	0.733350	-0.756851	6
C	-0.412440	1.264200	0.217159	6
H	-1.216360	-1.828220	-0.246281	1
H	0.028920	-1.832470	1.052889	1
H	0.644920	-1.324570	-1.657821	1
H	1.878570	-0.006730	0.699019	1
H	0.667900	1.265200	-1.694681	1
H	0.062000	1.861230	1.000609	1
H	-1.183830	1.841950	-0.298481	1
Es	0.654268	1.101621	-1.389967	99
Es	0.097016	-1.031289	-0.227381	99
Es	-0.928856	1.639420	-0.126668	99
Es	-0.434984	-1.250080	0.253368	99
Es	0.634044	-1.152246	-1.357764	99
Es	-0.720714	0.651505	0.519437	99
Es	-1.043892	0.020460	0.821137	99
Es	0.596868	0.733190	-0.756731	99
Es	2.039208	-0.024932	-0.520732	99
Es	-2.023331	-0.245740	1.745638	99
Es	-0.100465	1.653187	0.746777	99
Es	0.115591	1.022442	-0.256807	99
Es	-0.732257	-0.624220	0.537836	99
Es	-0.129854	-1.629034	0.793527	99
Es	0.583120	-0.765050	-0.735225	99
Es	1.805727	-0.011558	0.297928	99
Es	-1.442647	0.035213	1.545530	99
Es	-0.412434	1.264140	0.217157	99
Es	1.308458	-0.477925	-0.439226	99
Es	1.763422	-0.020002	-0.316227	99
Es	1.315997	0.441313	-0.452285	99
Es	-2.020680	0.330220	1.740331	99
Es	-0.957910	-1.625623	-0.079859	99
Es	-1.934207	0.040932	1.661563	99
Es	0.408030	-0.015859	-0.858189	99
Es	-1.786939	0.033403	1.175020	99
40
Properties=species:S:1:pos:R:3:Z:I:1 energy=-322.79341823243635 field_type=dipole dipole="0.000000 0.000000 0.000000" charge=0
O	-1.934440	0.040960	1.661779	8
C	-1.043910	0.020460	0.821159	6
C	-0.434989	-1.250140	0.253369	6
C	0.582960	-0.765210	-0.735341	6
N	1.763990	-0.020010	-0.316521	7
C	0.596710	0.733350	-0.756851	6
C	-0.412440	1.264200	0.217159	6
H	-1.216360	-1.828220	-0.246281	1
H	0.028920	-1.832470	1.052889	1
H	0.644920	-1.324570	-1.657821	1
H	1.878570	-0.006730	0.699019	1
H	0.667900	1.265200	-1.694681	1
H	0.062000	1.861230	1.000609	1
H	-1.183830	1.841950	-0.298481	1
Es	-2.026820	-0.243064	1.749545	99
Es	1.805820	-0.011666	0.297707	99
Es	2.039058	-0.025493	-0.520524	99
Es	0.115619	1.022468	-0.256882	99
Es	-0.732205	-0.624217	0.537871	99
Es	-0.957917	-1.625588	-0.079926	99
Es	1.763416	-0.020001	-0.316234	99
Es	0.408068	-0.016076	-0.858272	99
Es	0.596867	0.733190	-0.756731	99
Es	0.583120	-0.765050	-0.735226	99
Es	0.634053	-1.152296	-1.357679	99
Es	-1.934098	0.040620	1.661456	99
Es	0.097042	-1.031253	-0.227331	99
Es	1.316438	0.442147	-0.452376	99
Es	-0.129916	-1.629072	0.793535	99
Es	-1.788244	0.031718	1.174872	99
Es	1.308031	-0.477871	-0.439101	99
Es	0.654264	1.101565	-1.389906	99
Es	-0.412433	1.264141	0.217157	99
Es	-0.720675	0.651565	0.519496	99
Es	-1.442378	0.033109	1.544679	99
Es	-0.434981	-1.250081	0.253364	99
Es	-0.928880	1.639435	-0.126646	99
Es	-2.016319	0.331625	1.737440	99
Es	-1.043892	0.020461	0.821140	99
Es	-0.100461	1.653174	0.746762	99
40
Properties=species:S:1:pos:R:3:Z:I:1 energy=-322.79341823243635 field_type=dipole dipole="0.000000 0.000000 0.000000" charge=0
O	-1.934440	0.040960	1.661779	8
C	-1.043910	0.020460	0.821159	6
C	-0.434989	-1.250140	0.253369	6
C	0.582960	-0.765210	-0.735341	6
N	1.763990	-0.020010	-0.316521	7
C	0.596710	0.733350	-0.756851	6
C	-0.412440	1.264200	0.217159	6
H	-1.216360	-1.828220	-0.246281	1
H	0.028920	-1.832470	1.052889	1
H	0.644920	-1.324570	-1.657821	1
H	1.878570	-0.006730	0.699019	1
H	0.667900	1.265200	-1.694681	1
H	0.062000	1.861230	1.000609	1
H	-1.183830	1.841950	-0.298481	1
Es	1.806164	-0.011724	0.297777	99
Es	0.583121	-0.765043	-0.735226	99
Es	0.097132	-1.031326	-0.227313	99
Es	1.308206	-0.478018	-0.439357	99
Es	-0.412437	1.264142	0.217155	99
Es	-1.787006	0.033201	1.174966	99
Es	-0.434981	-1.250080	0.253364	99
Es	0.654342	1.101622	-1.389763	99
Es	-0.100531	1.653239	0.746670	99
Es	1.763458	-0.020000	-0.316232	99
Es	-0.732194	-0.624292	0.537878	99
Es	-1.934203	0.040941	1.661556	99
Es	-2.020800	0.330055	1.740165	99
Es	2.038418	-0.025415	-0.520244	99
Es	0.634089	-1.152261	-1.357578	99
Es	0.596868	0.733185	-0.756731	99
Es	0.407739	-0.016049	-0.858494	99
Es	-1.442670	0.035538	1.545425	99
Es	-1.043893	0.020462	0.821140	99
Es	0.115740	1.022460	-0.256943	99
Es	-0.129950	-1.629078	0.793534	99
Es	1.316614	0.442214	-0.452451	99
Es	-0.957955	-1.625569	-0.079956	99
Es	-0.928950	1.639354	-0.126639	99
Es	-2.023114	-0.245695	1.745915	99
Es	-0.720629	0.651630	0.519571	99
40
Properties=species:S:1:pos:R:3:Z:I:1 energy=-322.79341823243635 field_type=dipole dipole="0.000000 0.000000 0.000000" charge=0
O	-1.934440	0.040960	1.661779	8
C	-1.043910	0.020460	0.821159	6
C	-0.434989	-1.250140	0.253369	6
C	0.582960	-0.765210	-0.735341	6
N	1.763990	-0.020010	-0.316521	7
C	0.596710	0.733350	-0.756851	6
C	-0.412440	1.264200	0.217159	6
H	-1.216360	-1.828220	-0.246281	1
H	0.028920	-1.832470	1.052889	1
H	0.644920	-1.324570	-1.657821	1
H	1.878570	-0.006730	0.699019	1
H	0.667900	1.265200	-1.694681	1
H	0.062000	1.861230	1.000609	1
H	-1.183830	1.841950	-0.298481	1
Es	0.115741	1.022445	-0.256943	99
Es	2.038545	-0.025273	-0.520023	99
Es	-0.928848	1.639485	-0.126634	99
Es	0.654305	1.101611	-1.389667	99
Es	1.805981	-0.011665	0.297606	99
Es	-1.934212	0.040964	1.661567	99
Es	1.308357	-0.478359	-0.439356	99
Es	-1.788662	0.032100	1.175098	99
Es	-0.130020	-1.629082	0.793534	99
Es	-1.442434	0.034651	1.543815	99
Es	0.596867	0.733189	-0.756731	99
Es	1.316587	0.442359	-0.452452	99
Es	-0.412433	1.264140	0.217156	99
Es	1.763438	-0.020000	-0.316259	99
Es	-0.957974	-1.625535	-0.079939	99
Es	0.097222	-1.031378	-0.227361	99
Es	-0.720737	0.651657	0.519476	99
Es	0.407675	-0.015996	-0.858648	99
Es	-0.100503	1.653117	0.746804	99
Es	-0.434981	-1.250081	0.253364	99
Es	-1.043891	0.020460	0.821139	99
Es	-2.024932	-0.244597	1.749144	99
Es	-2.017618	0.330884	1.738308	99
Es	-0.732119	-0.624290	0.537902	99
Es	0.583120	-0.765050	-0.735226	99
Es	0.634102	-1.152267	-1.357487	99
