41
Properties=species:S:1:pos:R:3:Z:I:1 energy=-359.75912509059685 field_type=dipole dipole="0.000000 0.000000 0.000000" charge=0
O	-1.902688	-0.331826	0.522076	8
C	-0.491278	-0.372286	0.730756	6
C	0.118782	0.949874	0.298396	6
C	0.809542	0.781694	-1.038094	6
O	1.726322	-0.305056	-0.909204	8
N	1.068542	-1.550026	-0.835094	7
C	0.037942	-1.558126	-0.045814	6
H	-2.286088	0.200704	1.240996	1
H	-0.323788	-0.563346	1.795876	1
H	-0.623098	1.753334	0.249846	1
H	0.873322	1.236794	1.041476	1
H	1.382402	1.681103	-1.287784	1
H	0.106032	0.589934	-1.856364	1
H	-0.495948	-2.512766	0.092926	1
Es	-0.364665	-0.507253	1.454056	99
Es	1.228406	-1.828086	-1.029817	99
Es	0.809675	0.781515	-1.038026	99
Es	1.842204	-0.280494	-0.628952	99
Es	-2.086160	-0.038897	0.916013	99
Es	0.770172	-1.607431	-0.255222	99
Es	0.634249	1.143765	0.802163	99
Es	-0.182121	0.284741	0.511003	99
Es	-0.491478	-0.372324	0.730666	99
Es	1.347699	0.080738	-0.952829	99
Es	1.068279	-1.549518	-0.834753	99
Es	0.442931	0.873731	-0.367955	99
Es	0.118777	0.949839	0.298392	99
Es	-0.393198	1.487819	0.270110	99
Es	0.037921	-1.558087	-0.045802	99
Es	-1.902465	-0.331579	0.522344	99
Es	-2.008847	-0.619669	0.563513	99
Es	1.893242	-0.313877	-1.172965	99
Es	1.391438	-0.826901	-0.868640	99
Es	0.321835	0.645728	-1.589304	99
Es	0.438270	-1.468299	-0.715869	99
Es	-0.320284	-2.189884	0.048160	99
Es	-1.942928	-0.176360	0.261868	99
Es	1.202062	1.391056	-1.203507	99
Es	1.725920	-0.305065	-0.909215	99
Es	-1.367704	-0.339829	0.619629	99
Es	-0.214703	-0.960625	0.326427	99
41
Properties=species:S:1:pos:R:3:Z:I:1 energy=-359.75912509059685 field_type=dipole dipole="0.000000 0.000000 0.000000" charge=0
O	-1.902688	-0.331826	0.522076	8
C	-0.491278	-0.372286	0.730756	6
C	0.118782	0.949874	0.298396	6
C	0.809542	0.781694	-1.038094	6
O	1.726322	-0.305056	-0.909204	8
N	1.068542	-1.550026	-0.835094	7
C	0.037942	-1.558126	-0.045814	6
H	-2.286088	0.200704	1.240996	1
H	-0.323788	-0.563346	1.795876	1
H	-0.623098	1.753334	0.249846	1
H	0.873322	1.236794	1.041476	1
H	1.382402	1.681103	-1.287784	1
H	0.106032	0.589934	-1.856364	1
H	-0.495948	-2.512766	0.092926	1
Es	-0.491479	-0.372325	0.730664	99
Es	-1.943206	-0.176984	0.259697	99
Es	0.037916	-1.558086	-0.045810	99
Es	0.442791	0.873643	-0.368057	99
Es	0.809673	0.781518	-1.038027	99
Es	1.068284	-1.549505	-0.834752	99
Es	1.202014	1.391009	-1.203443	99
Es	1.228024	-1.827891	-1.029921	99
Es	-2.006965	-0.618783	0.564390	99
Es	-0.214712	-0.960626	0.326495	99
Es	1.837745	-0.279969	-0.627681	99
Es	-0.393145	1.487840	0.270257	99
Es	1.391355	-0.826841	-0.869559	99
Es	0.770320	-1.607682	-0.255103	99
Es	1.347990	0.080595	-0.955745	99
Es	0.118778	0.949837	0.298392	99
Es	0.634321	1.143694	0.802082	99
Es	1.897710	-0.314235	-1.170552	99
Es	0.438395	-1.468333	-0.715687	99
Es	-1.902484	-0.331679	0.522411	99
Es	-0.364677	-0.507280	1.453927	99
Es	-2.087129	-0.039335	0.916328	99
Es	-0.320292	-2.189885	0.048089	99
Es	1.725904	-0.305087	-0.909259	99
Es	-1.368385	-0.339577	0.620576	99
Es	0.321873	0.645805	-1.589350	99
Es	-0.182090	0.284914	0.511129	99
41
Properties=species:S:1:pos:R:3:Z:I:1 energy=-359.75912509059685 field_type=dipole dipole="0.000000 0.000000 0.000000" charge=0
O	-1.902688	-0.331826	0.522076	8
C	-0.491278	-0.372286	0.730756	6
C	0.118782	0.949874	0.298396	6
C	0.809542	0.781694	-1.038094	6
O	1.726322	-0.305056	-0.909204	8
N	1.068542	-1.550026	-0.835094	7
C	0.037942	-1.558126	-0.045814	6
H	-2.286088	0.200704	1.240996	1
H	-0.323788	-0.563346	1.795876	1
H	-0.623098	1.753334	0.249846	1
H	0.873322	1.236794	1.041476	1
H	1.382402	1.681103	-1.287784	1
H	0.106032	0.589934	-1.856364	1
H	-0.495948	-2.512766	0.092926	1
Es	0.770412	-1.607926	-0.255164	99
Es	-0.491479	-0.372323	0.730666	99
Es	-0.214785	-0.960498	0.326493	99
Es	1.725886	-0.305114	-0.909344	99
Es	0.809673	0.781519	-1.038027	99
Es	1.897539	-0.314336	-1.170333	99
Es	-0.393119	1.487889	0.270349	99
Es	-2.007412	-0.618844	0.564823	99
Es	1.068321	-1.549507	-0.834770	99
Es	-2.086709	-0.038734	0.916026	99
Es	-1.902524	-0.331589	0.522298	99
Es	0.634360	1.143633	0.802011	99
Es	1.347891	0.080794	-0.955665	99
Es	1.227620	-1.827782	-1.030094	99
Es	1.837848	-0.279679	-0.628682	99
Es	0.438593	-1.468293	-0.715313	99
Es	-0.182079	0.284809	0.511037	99
Es	0.321885	0.645787	-1.589316	99
Es	-1.943823	-0.177761	0.260672	99
Es	0.442722	0.873753	-0.368108	99
Es	0.118778	0.949838	0.298393	99
Es	0.037921	-1.558085	-0.045811	99
Es	1.202040	1.391000	-1.203511	99
Es	-0.320330	-2.189950	0.048042	99
Es	1.391641	-0.827150	-0.868741	99
Es	-1.367711	-0.339420	0.619545	99
Es	-0.364629	-0.507279	1.454017	99
41
Properties=species:S:1:pos:R:3:Z:I:1 energy=-359.75912509059685 field_type=dipole dipole="0.000000 0.000000 0.000000" charge=0
O	-1.902688	-0.331826	0.522076	8
C	-0.491278	-0.372286	0.730756	6
C	0.118782	0.949874	0.298396	6
C	0.809542	0.781694	-1.038094	6
O	1.726322	-0.305056	-0.909204	8
N	1.068542	-1.550026	-0.835094	7
C	0.037942	-1.558126	-0.045814	6
H	-2.286088	0.200704	1.240996	1
H	-0.323788	-0.563346	1.795876	1
H	-0.623098	1.753334	0.249846	1
H	0.873322	1.236794	1.041476	1
H	1.382402	1.681103	-1.287784	1
H	0.106032	0.589934	-1.856364	1
H	-0.495948	-2.512766	0.092926	1
Es	1.227742	-1.827833	-1.029635	99
Es	-1.943870	-0.177943	0.261053	99
Es	0.809671	0.781522	-1.038028	99
Es	1.202028	1.390992	-1.203580	99
Es	1.725904	-0.305086	-0.909288	99
Es	-0.364655	-0.507308	1.453971	99
Es	1.068285	-1.549509	-0.834750	99
Es	0.321926	0.645778	-1.589267	99
Es	-0.491478	-0.372324	0.730665	99
Es	-0.214772	-0.960455	0.326569	99
Es	0.442784	0.873793	-0.368053	99
Es	0.438520	-1.468503	-0.715584	99
Es	-2.086516	-0.038358	0.915783	99
Es	-1.902563	-0.331685	0.522319	99
Es	0.118777	0.949839	0.298393	99
Es	1.391831	-0.827395	-0.869814	99
Es	-0.393065	1.487787	0.270233	99
Es	0.634271	1.143737	0.802115	99
Es	-2.007878	-0.618673	0.564967	99
Es	1.894616	-0.313801	-1.170537	99
Es	1.347931	0.081169	-0.954472	99
Es	1.840715	-0.280362	-0.628780	99
Es	0.770152	-1.607708	-0.255336	99
Es	0.037925	-1.558088	-0.045803	99
Es	-0.320286	-2.189958	0.048071	99
Es	-0.182088	0.284795	0.511057	99
Es	-1.367378	-0.339668	0.619223	99
41
Properties=species:S:1:pos:R:3:Z:I:1 energy=-359.75912509059685 field_type=dipole dipole="0.000000 0.000000 0.000000" charge=0
O	-1.902688	-0.331826	0.522076	8
C	-0.491278	-0.372286	0.730756	6
C	0.118782	0.949874	0.298396	6
C	0.809542	0.781694	-1.038094	6
O	1.726322	-0.305056	-0.909204	8
N	1.068542	-1.550026	-0.835094	7
C	0.037942	-1.558126	-0.045814	6
H	-2.286088	0.200704	1.240996	1
H	-0.323788	-0.563346	1.795876	1
H	-0.623098	1.753334	0.249846	1
H	0.873322	1.236794	1.041476	1
H	1.382402	1.681103	-1.287784	1
H	0.106032	0.589934	-1.856364	1
H	-0.495948	-2.512766	0.092926	1
Es	-1.943411	-0.176467	0.262258	99
Es	-2.007773	-0.618874	0.562685	99
Es	-1.902525	-0.331698	0.522315	99
Es	0.770046	-1.607677	-0.255424	99
Es	0.321947	0.645797	-1.589297	99
Es	1.348031	0.081558	-0.955195	99
Es	0.809672	0.781520	-1.038027	99
Es	1.896713	-0.314195	-1.169734	99
Es	-0.320289	-2.190026	0.048040	99
Es	1.202050	1.390987	-1.203552	99
Es	-0.364573	-0.507254	1.453936	99
Es	1.227648	-1.827745	-1.029327	99
Es	0.442806	0.873879	-0.368107	99
Es	1.391865	-0.827332	-0.869619	99
Es	-1.367337	-0.339401	0.619358	99
Es	-0.214760	-0.960431	0.326643	99
Es	-2.087240	-0.039894	0.916779	99
Es	0.037915	-1.558085	-0.045814	99
Es	-0.393134	1.487973	0.270412	99
Es	0.438565	-1.468669	-0.715675	99
Es	0.118778	0.949838	0.298394	99
Es	-0.491481	-0.372324	0.730664	99
Es	0.634236	1.143484	0.802043	99
Es	1.725919	-0.305087	-0.909206	99
Es	1.068309	-1.549499	-0.834766	99
Es	-0.182026	0.284739	0.510891	99
Es	1.838580	-0.280364	-0.629184	99
41
Properties=species:S:1:pos:R:3:Z:I:1 energy=-359.75912509059685 field_type=dipole dipole="0.000000 0.000000 0.000000" charge=0
O	-1.902688	-0.331826	0.522076	8
C	-0.491278	-0.372286	0.730756	6
C	0.118782	0.949874	0.298396	6
C	0.809542	0.781694	-1.038094	6
O	1.726322	-0.305056	-0.909204	8
N	1.068542	-1.550026	-0.835094	7
C	0.037942	-1.558126	-0.045814	6
H	-2.286088	0.200704	1.240996	1
H	-0.323788	-0.563346	1.795876	1
H	-0.623098	1.753334	0.249846	1
H	0.873322	1.236794	1.041476	1
H	1.382402	1.681103	-1.287784	1
H	0.106032	0.589934	-1.856364	1
H	-0.495948	-2.512766	0.092926	1
Es	-1.902511	-0.331691	0.522327	99
Es	1.726024	-0.305053	-0.909208	99
Es	0.037920	-1.558086	-0.045810	99
Es	1.227194	-1.827478	-1.029714	99
Es	-0.491476	-0.372324	0.730666	99
Es	-0.364552	-0.507371	1.453834	99
Es	0.321985	0.645815	-1.589203	99
Es	-1.367293	-0.339787	0.619534	99
Es	0.770434	-1.608141	-0.255310	99
Es	-0.320363	-2.190015	0.047989	99
Es	0.634243	1.143724	0.802137	99
Es	1.347956	0.081317	-0.955099	99
Es	0.442756	0.873893	-0.368106	99
Es	-0.214849	-0.960364	0.326529	99
Es	1.202008	1.390953	-1.203673	99
Es	-0.182062	0.284867	0.511037	99
Es	1.392344	-0.828101	-0.870972	99
Es	1.068267	-1.549548	-0.834753	99
Es	-0.393046	1.487766	0.270264	99
Es	0.438702	-1.468507	-0.715159	99
Es	-1.944025	-0.178796	0.260663	99
Es	-2.086734	-0.037846	0.915339	99
Es	1.834335	-0.280636	-0.629461	99
Es	0.118778	0.949838	0.298392	99
Es	-2.007742	-0.618227	0.565601	99
Es	0.809674	0.781518	-1.038026	99
Es	1.900563	-0.312970	-1.168325	99
41
Properties=species:S:1:pos:R:3:Z:I:1 energy=-359.75912509059685 field_type=dipole dipole="0.000000 0.000000 0.000000" charge=0
O	-1.902688	-0.331826	0.522076	8
C	-0.491278	-0.372286	0.730756	6
C	0.118782	0.949874	0.298396	6
C	0.809542	0.781694	-1.038094	6
O	1.726322	-0.305056	-0.909204	8
N	1.068542	-1.550026	-0.835094	7
C	0.037942	-1.558126	-0.045814	6
H	-2.286088	0.200704	1.240996	1
H	-0.323788	-0.563346	1.795876	1
H	-0.623098	1.753334	0.249846	1
H	0.873322	1.236794	1.041476	1
H	1.382402	1.681103	-1.287784	1
H	0.106032	0.589934	-1.856364	1
H	-0.495948	-2.512766	0.092926	1
Es	1.068277	-1.549525	-0.834749	99
Es	0.442809	0.873942	-0.368091	99
Es	0.770169	-1.607919	-0.255420	99
Es	-2.087416	-0.038334	0.915706	99
Es	-0.320314	-2.190096	0.048017	99
Es	-0.182049	0.284811	0.511067	99
Es	-1.366918	-0.338831	0.618840	99
Es	1.392287	-0.828016	-0.870145	99
Es	-0.214849	-0.960216	0.326631	99
Es	-2.007161	-0.618505	0.564820	99
Es	0.634162	1.143795	0.802142	99
Es	0.118778	0.949837	0.298393	99
Es	1.201980	1.390916	-1.203651	99
Es	-0.364550	-0.507465	1.453884	99
Es	1.227326	-1.827447	-1.029211	99
Es	0.438620	-1.468775	-0.715574	99
Es	0.809673	0.781519	-1.038027	99
Es	1.348107	0.081464	-0.955811	99
Es	0.037923	-1.558086	-0.045810	99
Es	1.725991	-0.305051	-0.909177	99
Es	1.837062	-0.280059	-0.629469	99
Es	-0.392983	1.487709	0.270233	99
Es	1.897916	-0.313724	-1.168554	99
Es	-1.902531	-0.331667	0.522374	99
Es	-1.944295	-0.179045	0.261632	99
Es	-0.491478	-0.372323	0.730666	99
Es	0.321996	0.645841	-1.589223	99
41
Properties=species:S:1:pos:R:3:Z:I:1 energy=-359.75912509059685 field_type=dipole dipole="0.000000 0.000000 0.000000" charge=0
O	-1.902688	-0.331826	0.522076	8
C	-0.491278	-0.372286	0.730756	6
C	0.118782	0.949874	0.298396	6
C	0.809542	0.781694	-1.038094	6
O	1.726322	-0.305056	-0.909204	8
N	1.068542	-1.550026	-0.835094	7
C	0.037942	-1.558126	-0.045814	6
H	-2.286088	0.200704	1.240996	1
H	-0.323788	-0.563346	1.795876	1
H	-0.623098	1.753334	0.249846	1
H	0.873322	1.236794	1.041476	1
H	1.382402	1.681103	-1.287784	1
H	0.106032	0.589934	-1.856364	1
H	-0.495948	-2.512766	0.092926	1
Es	0.037921	-1.558085	-0.045818	99
Es	-0.364558	-0.507447	1.453781	99
Es	1.348435	0.081753	-0.956603	99
Es	1.068289	-1.549510	-0.834755	99
Es	-1.945141	-0.181089	0.259896	99
Es	1.227248	-1.827419	-1.029035	99
Es	0.322075	0.645885	-1.589206	99
Es	-2.087272	-0.036984	0.914830	99
Es	-0.491475	-0.372324	0.730667	99
Es	0.634232	1.143732	0.802082	99
Es	1.834493	-0.280560	-0.629001	99
Es	1.392030	-0.827802	-0.871345	99
Es	0.438676	-1.468900	-0.715555	99
Es	-0.182005	0.284845	0.511146	99
Es	0.442641	0.873910	-0.368158	99
Es	0.118778	0.949837	0.298392	99
Es	-1.366961	-0.339030	0.618915	99
Es	0.770081	-1.607942	-0.255588	99
Es	-0.320283	-2.190124	0.047995	99
Es	-2.006496	-0.617571	0.567411	99
Es	1.726023	-0.304990	-0.909167	99
Es	-0.392998	1.487734	0.270347	99
Es	-1.902512	-0.331677	0.522348	99
Es	-0.214808	-0.960237	0.326671	99
Es	1.201987	1.390939	-1.203644	99
Es	1.900460	-0.313711	-1.167090	99
Es	0.809672	0.781520	-1.038027	99
41
Properties=species:S:1:pos:R:3:Z:I:1 energy=-359.75912509059685 field_type=dipole dipole="0.000000 0.000000 0.000000" charge=0
O	-1.902688	-0.331826	0.522076	8
C	-0.491278	-0.372286	0.730756	6
C	0.118782	0.949874	0.298396	6
C	0.809542	0.781694	-1.038094	6
O	1.726322	-0.305056	-0.909204	8
N	1.068542	-1.550026	-0.835094	7
C	0.037942	-1.558126	-0.045814	6
H	-2.286088	0.200704	1.240996	1
H	-0.323788	-0.563346	1.795876	1
H	-0.623098	1.753334	0.249846	1
H	0.873322	1.236794	1.041476	1
H	1.382402	1.681103	-1.287784	1
H	0.106032	0.589934	-1.856364	1
H	-0.495948	-2.512766	0.092926	1
Es	-1.944599	-0.179281	0.260609	99
Es	-0.181925	0.284784	0.511132	99
Es	-2.006966	-0.617065	0.565302	99
Es	-0.393013	1.487697	0.270267	99
Es	0.037911	-1.558081	-0.045828	99
Es	1.201951	1.390885	-1.203720	99
Es	-1.902502	-0.331626	0.522338	99
Es	-0.364565	-0.507353	1.453709	99
Es	1.899001	-0.314080	-1.167743	99
Es	0.442721	0.873949	-0.368095	99
Es	0.770012	-1.607963	-0.255648	99
Es	0.322112	0.645879	-1.589180	99
Es	0.438871	-1.468890	-0.715304	99
Es	1.726012	-0.305064	-0.909187	99
Es	0.809670	0.781523	-1.038028	99
Es	1.392504	-0.828224	-0.869455	99
Es	-2.087476	-0.038423	0.915838	99
Es	-1.366867	-0.339918	0.619363	99
Es	1.348278	0.081760	-0.956614	99
Es	-0.214834	-0.960278	0.326756	99
Es	1.068285	-1.549512	-0.834753	99
Es	-0.491468	-0.372325	0.730669	99
Es	0.118778	0.949841	0.298392	99
Es	1.226913	-1.827417	-1.029209	99
Es	0.634120	1.143814	0.802083	99
Es	-0.320237	-2.190181	0.048051	99
Es	1.835846	-0.279698	-0.630255	99
41
Properties=species:S:1:pos:R:3:Z:I:1 energy=-359.75912509059685 field_type=dipole dipole="0.000000 0.000000 0.000000" charge=0
O	-1.902688	-0.331826	0.522076	8
C	-0.491278	-0.372286	0.730756	6
C	0.118782	0.949874	0.298396	6
C	0.809542	0.781694	-1.038094	6
O	1.726322	-0.305056	-0.909204	8
N	1.068542	-1.550026	-0.835094	7
C	0.037942	-1.558126	-0.045814	6
H	-2.286088	0.200704	1.240996	1
H	-0.323788	-0.563346	1.795876	1
H	-0.623098	1.753334	0.249846	1
H	0.873322	1.236794	1.041476	1
H	1.382402	1.681103	-1.287784	1
H	0.106032	0.589934	-1.856364	1
H	-0.495948	-2.512766	0.092926	1
Es	-1.366701	-0.339508	0.619054	99
Es	1.201920	1.390834	-1.203683	99
Es	-0.364500	-0.507477	1.453742	99
Es	-0.491471	-0.372323	0.730668	99
Es	-2.007038	-0.617466	0.564154	99
Es	0.438870	-1.469026	-0.715407	99
Es	-1.902518	-0.331683	0.522338	99
Es	1.226821	-1.827104	-1.029157	99
Es	-0.320264	-2.190200	0.047964	99
Es	1.896794	-0.313897	-1.167631	99
Es	0.770125	-1.608209	-0.255603	99
Es	1.348321	0.081308	-0.957077	99
Es	1.068275	-1.549523	-0.834751	99
Es	-1.944486	-0.178490	0.261606	99
Es	0.634170	1.143794	0.802150	99
Es	0.442672	0.874031	-0.368142	99
Es	-0.392941	1.487643	0.270313	99
Es	0.322106	0.645911	-1.589222	99
Es	0.809668	0.781526	-1.038026	99
Es	-2.087708	-0.039192	0.916268	99
Es	-0.214857	-0.960120	0.326737	99
Es	0.037925	-1.558087	-0.045805	99
Es	1.725957	-0.305063	-0.909155	99
Es	1.392615	-0.828414	-0.869789	99
Es	-0.182007	0.284799	0.511107	99
Es	1.838003	-0.279149	-0.629556	99
Es	0.118778	0.949839	0.298394	99
41
Properties=species:S:1:pos:R:3:Z:I:1 energy=-359.75912509059685 field_type=dipole dipole="0.000000 0.000000 0.000000" charge=0
O	-1.902688	-0.331826	0.522076	8
C	-0.491278	-0.372286	0.730756	6
C	0.118782	0.949874	0.298396	6
C	0.809542	0.781694	-1.038094	6
O	1.726322	-0.305056	-0.909204	8
N	1.068542	-1.550026	-0.835094	7
C	0.037942	-1.558126	-0.045814	6
H	-2.286088	0.200704	1.240996	1
H	-0.323788	-0.563346	1.795876	1
H	-0.623098	1.753334	0.249846	1
H	0.873322	1.236794	1.041476	1
H	1.382402	1.681103	-1.287784	1
H	0.106032	0.589934	-1.856364	1
H	-0.495948	-2.512766	0.092926	1
Es	-2.087643	-0.038871	0.916188	99
Es	0.037921	-1.558085	-0.045812	99
Es	-0.320262	-2.190228	0.047931	99
Es	0.322110	0.645889	-1.589123	99
Es	-0.181954	0.284837	0.511208	99
Es	1.835740	-0.280090	-0.630544	99
Es	1.725961	-0.305054	-0.909201	99
Es	0.809671	0.781522	-1.038027	99
Es	-0.392947	1.487668	0.270244	99
Es	-1.902522	-0.331699	0.522358	99
Es	1.898980	-0.313641	-1.166772	99
Es	1.348388	0.082129	-0.956440	99
Es	1.392707	-0.828567	-0.870420	99
Es	-0.364558	-0.507425	1.453678	99
Es	-0.214813	-0.960157	0.326862	99
Es	-0.491472	-0.372324	0.730668	99
Es	0.770076	-1.608220	-0.255679	99
Es	1.226610	-1.827096	-1.029049	99
Es	0.118779	0.949840	0.298390	99
Es	-1.945112	-0.179285	0.261832	99
Es	-1.366390	-0.339111	0.618327	99
Es	0.438981	-1.469075	-0.715257	99
Es	1.201957	1.390850	-1.203799	99
Es	1.068280	-1.549508	-0.834753	99
Es	-2.006800	-0.617390	0.564693	99
Es	0.634024	1.143828	0.802113	99
Es	0.442817	0.874012	-0.368125	99
41
Properties=species:S:1:pos:R:3:Z:I:1 energy=-359.75912509059685 field_type=dipole dipole="0.000000 0.000000 0.000000" charge=0
O	-1.902688	-0.331826	0.522076	8
C	-0.491278	-0.372286	0.730756	6
C	0.118782	0.949874	0.298396	6
C	0.809542	0.781694	-1.038094	6
O	1.726322	-0.305056	-0.909204	8
N	1.068542	-1.550026	-0.835094	7
C	0.037942	-1.558126	-0.045814	6
H	-2.286088	0.200704	1.240996	1
H	-0.323788	-0.563346	1.795876	1
H	-0.623098	1.753334	0.249846	1
H	0.873322	1.236794	1.041476	1
H	1.382402	1.681103	-1.287784	1
H	0.106032	0.589934	-1.856364	1
H	-0.495948	-2.512766	0.092926	1
Es	0.770007	-1.608262	-0.255817	99
Es	0.634100	1.143774	0.802094	99
Es	1.348351	0.082270	-0.955692	99
Es	-0.214843	-0.960033	0.326841	99
Es	0.809673	0.781519	-1.038026	99
Es	-0.181922	0.284818	0.511152	99
Es	1.725966	-0.305068	-0.909230	99
Es	1.226438	-1.827040	-1.028885	99
Es	1.201950	1.390854	-1.203749	99
Es	-0.491471	-0.372321	0.730668	99
Es	0.037920	-1.558085	-0.045811	99
Es	-1.366440	-0.339832	0.619017	99
Es	-2.007010	-0.616845	0.564913	99
Es	0.322146	0.645932	-1.589144	99
Es	-0.364481	-0.507499	1.453653	99
Es	1.837494	-0.280174	-0.631068	99
Es	0.118778	0.949838	0.298391	99
Es	-0.320256	-2.190256	0.047935	99
Es	1.393013	-0.828742	-0.870136	99
Es	-1.902515	-0.331646	0.522304	99
Es	0.442683	0.874048	-0.368185	99
Es	-1.944660	-0.179655	0.261446	99
Es	-2.087888	-0.038379	0.915766	99
Es	-0.392958	1.487654	0.270376	99
Es	1.068296	-1.549498	-0.834753	99
Es	1.897196	-0.313543	-1.167326	99
Es	0.438965	-1.469079	-0.715244	99
41
Properties=species:S:1:pos:R:3:Z:I:1 energy=-359.75912509059685 field_type=dipole dipole="0.000000 0.000000 0.000000" charge=0
O	-1.902688	-0.331826	0.522076	8
C	-0.491278	-0.372286	0.730756	6
C	0.118782	0.949874	0.298396	6
C	0.809542	0.781694	-1.038094	6
O	1.726322	-0.305056	-0.909204	8
N	1.068542	-1.550026	-0.835094	7
C	0.037942	-1.558126	-0.045814	6
H	-2.286088	0.200704	1.240996	1
H	-0.323788	-0.563346	1.795876	1
H	-0.623098	1.753334	0.249846	1
H	0.873322	1.236794	1.041476	1
H	1.382402	1.681103	-1.287784	1
H	0.106032	0.589934	-1.856364	1
H	-0.495948	-2.512766	0.092926	1
Es	1.899929	-0.313572	-1.165612	99
Es	1.834759	-0.280726	-0.630861	99
Es	0.442747	0.873988	-0.368188	99
Es	1.348721	0.082836	-0.956506	99
Es	1.201889	1.390912	-1.203834	99
Es	-1.902495	-0.331609	0.522322	99
Es	-1.366277	-0.339568	0.619007	99
Es	-1.943832	-0.179074	0.263073	99
Es	1.068284	-1.549514	-0.834752	99
Es	-0.491472	-0.372324	0.730668	99
Es	1.392742	-0.828656	-0.871293	99
Es	0.037923	-1.558086	-0.045809	99
Es	0.439068	-1.469153	-0.715176	99
Es	-0.214870	-0.960012	0.326879	99
Es	0.634015	1.143834	0.802138	99
Es	-0.364427	-0.507495	1.453626	99
Es	1.725920	-0.305077	-0.909230	99
Es	1.226258	-1.826835	-1.028941	99
Es	-0.392952	1.487632	0.270265	99
Es	-2.088378	-0.038641	0.915924	99
Es	0.118779	0.949840	0.298392	99
Es	0.809667	0.781527	-1.038028	99
Es	-0.181927	0.284830	0.511144	99
Es	0.322179	0.645870	-1.589061	99
Es	0.770134	-1.608435	-0.255701	99
Es	-2.007575	-0.617475	0.563168	99
Es	-0.320277	-2.190268	0.047876	99
41
Properties=species:S:1:pos:R:3:Z:I:1 energy=-359.75912509059685 field_type=dipole dipole="0.000000 0.000000 0.000000" charge=0
O	-1.902688	-0.331826	0.522076	8
C	-0.491278	-0.372286	0.730756	6
C	0.118782	0.949874	0.298396	6
C	0.809542	0.781694	-1.038094	6
O	1.726322	-0.305056	-0.909204	8
N	1.068542	-1.550026	-0.835094	7
C	0.037942	-1.558126	-0.045814	6
H	-2.286088	0.200704	1.240996	1
H	-0.323788	-0.563346	1.795876	1
H	-0.623098	1.753334	0.249846	1
H	0.873322	1.236794	1.041476	1
H	1.382402	1.681103	-1.287784	1
H	0.106032	0.589934	-1.856364	1
H	-0.495948	-2.512766	0.092926	1
Es	-2.006144	-0.615488	0.566756	99
Es	0.770084	-1.608465	-0.255828	99
Es	1.393175	-0.829094	-0.871076	99
Es	-0.214892	-0.959927	0.326880	99
Es	1.348528	0.082587	-0.957191	99
Es	0.442605	0.873995	-0.368183	99
Es	-1.946107	-0.181735	0.260709	99
Es	0.809671	0.781526	-1.038031	99
Es	1.068286	-1.549515	-0.834754	99
Es	1.901164	-0.313416	-1.164912	99
Es	0.322197	0.645990	-1.589148	99
Es	-1.365838	-0.339863	0.618173	99
Es	-2.087961	-0.037589	0.915491	99
Es	-0.181922	0.284859	0.511242	99
Es	0.037919	-1.558085	-0.045812	99
Es	-0.392900	1.487663	0.270336	99
Es	1.226032	-1.826858	-1.029024	99
Es	-0.364452	-0.507546	1.453598	99
Es	1.725960	-0.305042	-0.909193	99
Es	-0.320254	-2.190308	0.047885	99
Es	-0.491474	-0.372322	0.730667	99
Es	1.201934	1.390810	-1.203739	99
Es	0.118780	0.949838	0.298392	99
Es	-1.902514	-0.331688	0.522328	99
Es	0.634120	1.143813	0.802048	99
Es	1.833302	-0.280228	-0.631225	99
Es	0.439230	-1.469160	-0.714897	99
41
Properties=species:S:1:pos:R:3:Z:I:1 energy=-359.75912509059685 field_type=dipole dipole="0.000000 0.000000 0.000000" charge=0
O	-1.902688	-0.331826	0.522076	8
C	-0.491278	-0.372286	0.730756	6
C	0.118782	0.949874	0.298396	6
C	0.809542	0.781694	-1.038094	6
O	1.726322	-0.305056	-0.909204	8
N	1.068542	-1.550026	-0.835094	7
C	0.037942	-1.558126	-0.045814	6
H	-2.286088	0.200704	1.240996	1
H	-0.323788	-0.563346	1.795876	1
H	-0.623098	1.753334	0.249846	1
H	0.873322	1.236794	1.041476	1
H	1.382402	1.681103	-1.287784	1
H	0.106032	0.589934	-1.856364	1
H	-0.495948	-2.512766	0.092926	1
Es	0.322229	0.645930	-1.589036	99
Es	-1.944086	-0.179415	0.262031	99
Es	-1.366195	-0.341124	0.619385	99
Es	1.226019	-1.826886	-1.028861	99
Es	1.899001	-0.313520	-1.165559	99
Es	-0.364392	-0.507543	1.453549	99
Es	1.393319	-0.829137	-0.870633	99
Es	1.835473	-0.280112	-0.631390	99
Es	-0.491477	-0.372324	0.730667	99
Es	-0.392899	1.487594	0.270281	99
Es	1.725947	-0.305056	-0.909190	99
Es	0.439233	-1.469195	-0.714944	99
Es	1.068323	-1.549508	-0.834770	99
Es	0.769937	-1.608386	-0.255979	99
Es	0.442723	0.874071	-0.368176	99
Es	-0.214895	-0.959881	0.326924	99
Es	0.037920	-1.558086	-0.045810	99
Es	-0.320232	-2.190347	0.047871	99
Es	-2.008004	-0.616069	0.564165	99
Es	-1.902484	-0.331656	0.522290	99
Es	0.633977	1.143868	0.802115	99
Es	1.201893	1.390820	-1.203898	99
Es	0.809671	0.781523	-1.038028	99
Es	-0.181917	0.284851	0.511223	99
Es	-2.087846	-0.038115	0.915644	99
Es	0.118779	0.949838	0.298392	99
Es	1.348515	0.082618	-0.956773	99
41
Properties=species:S:1:pos:R:3:Z:I:1 energy=-359.75912509059685 field_type=dipole dipole="0.000000 0.000000 0.000000" charge=0
O	-1.902688	-0.331826	0.522076	8
C	-0.491278	-0.372286	0.730756	6
C	0.118782	0.949874	0.298396	6
C	0.809542	0.781694	-1.038094	6
O	1.726322	-0.305056	-0.909204	8
N	1.068542	-1.550026	-0.835094	7
C	0.037942	-1.558126	-0.045814	6
H	-2.286088	0.200704	1.240996	1
H	-0.323788	-0.563346	1.795876	1
H	-0.623098	1.753334	0.249846	1
H	0.873322	1.236794	1.041476	1
H	1.382402	1.681103	-1.287784	1
H	0.106032	0.589934	-1.856364	1
H	-0.495948	-2.512766	0.092926	1
Es	-1.944022	-0.179190	0.262433	99
Es	0.118780	0.949841	0.298392	99
Es	-1.366113	-0.340495	0.619392	99
Es	-0.364390	-0.507560	1.453509	99
Es	1.834808	-0.279999	-0.631951	99
Es	0.037923	-1.558087	-0.045810	99
Es	1.225868	-1.826689	-1.028735	99
Es	-0.181984	0.284910	0.511214	99
Es	1.899497	-0.313415	-1.165101	99
Es	0.322210	0.645929	-1.589039	99
Es	0.442645	0.873990	-0.368179	99
Es	1.068277	-1.549525	-0.834751	99
Es	-0.392798	1.487708	0.270305	99
Es	1.725969	-0.305059	-0.909201	99
Es	-0.214957	-0.959824	0.326929	99
Es	-2.007415	-0.616189	0.563300	99
Es	0.439307	-1.469365	-0.714924	99
Es	0.634090	1.143765	0.802066	99
Es	-0.320234	-2.190367	0.047860	99
Es	-0.491475	-0.372326	0.730673	99
Es	1.348566	0.082749	-0.956877	99
Es	0.809663	0.781531	-1.038025	99
Es	-1.902511	-0.331677	0.522362	99
Es	1.201883	1.390831	-1.203880	99
Es	0.769977	-1.608481	-0.255951	99
Es	1.393532	-0.829439	-0.870574	99
Es	-2.088566	-0.038816	0.916053	99
41
Properties=species:S:1:pos:R:3:Z:I:1 energy=-359.75912509059685 field_type=dipole dipole="0.000000 0.000000 0.000000" charge=0
O	-1.902688	-0.331826	0.522076	8
C	-0.491278	-0.372286	0.730756	6
C	0.118782	0.949874	0.298396	6
C	0.809542	0.781694	-1.038094	6
O	1.726322	-0.305056	-0.909204	8
N	1.068542	-1.550026	-0.835094	7
C	0.037942	-1.558126	-0.045814	6
H	-2.286088	0.200704	1.240996	1
H	-0.323788	-0.563346	1.795876	1
H	-0.623098	1.753334	0.249846	1
H	0.873322	1.236794	1.041476	1
H	1.382402	1.681103	-1.287784	1
H	0.106032	0.589934	-1.856364	1
H	-0.495948	-2.512766	0.092926	1
Es	1.898944	-0.313447	-1.165204	99
Es	0.118779	0.949838	0.298393	99
Es	1.725963	-0.305056	-0.909194	99
Es	-0.320207	-2.190420	0.047871	99
Es	-1.944929	-0.179267	0.263135	99
Es	0.442617	0.874179	-0.368220	99
Es	0.037923	-1.558085	-0.045812	99
Es	-0.392906	1.487559	0.270385	99
Es	-0.214902	-0.959846	0.327061	99
Es	0.809668	0.781526	-1.038027	99
Es	0.439283	-1.469417	-0.715052	99
Es	-2.088232	-0.039149	0.916491	99
Es	1.225889	-1.826659	-1.028513	99
Es	-2.007179	-0.616410	0.563461	99
Es	1.348535	0.082801	-0.956725	99
Es	-1.902540	-0.331692	0.522279	99
Es	1.393616	-0.829422	-0.870546	99
Es	-0.181777	0.284833	0.511241	99
Es	1.835370	-0.280070	-0.632058	99
Es	-0.491471	-0.372323	0.730669	99
Es	0.633998	1.143879	0.802044	99
Es	1.201907	1.390767	-1.203917	99
Es	1.068268	-1.549542	-0.834749	99
Es	-1.365780	-0.339869	0.618112	99
Es	-0.364436	-0.507559	1.453465	99
Es	0.769849	-1.608386	-0.256068	99
Es	0.322281	0.645987	-1.589030	99
41
Properties=species:S:1:pos:R:3:Z:I:1 energy=-359.75912509059685 field_type=dipole dipole="0.000000 0.000000 0.000000" charge=0
O	-1.902688	-0.331826	0.522076	8
C	-0.491278	-0.372286	0.730756	6
C	0.118782	0.949874	0.298396	6
C	0.809542	0.781694	-1.038094	6
O	1.726322	-0.305056	-0.909204	8
N	1.068542	-1.550026	-0.835094	7
C	0.037942	-1.558126	-0.045814	6
H	-2.286088	0.200704	1.240996	1
H	-0.323788	-0.563346	1.795876	1
H	-0.623098	1.753334	0.249846	1
H	0.873322	1.236794	1.041476	1
H	1.382402	1.681103	-1.287784	1
H	0.106032	0.589934	-1.856364	1
H	-0.495948	-2.512766	0.092926	1
Es	1.900381	-0.313093	-1.164182	99
Es	0.769908	-1.608516	-0.256088	99
Es	0.634011	1.143858	0.801999	99
Es	-1.365859	-0.340712	0.619124	99
Es	-2.007671	-0.616029	0.562419	99
Es	1.833611	-0.280599	-0.632187	99
Es	0.037920	-1.558084	-0.045809	99
Es	1.348700	0.083183	-0.956671	99
Es	0.322297	0.645964	-1.589004	99
Es	-1.943850	-0.178868	0.263311	99
Es	-2.088790	-0.039129	0.916321	99
Es	1.201872	1.390761	-1.203965	99
Es	0.118780	0.949845	0.298391	99
Es	-1.902518	-0.331647	0.522316	99
Es	-0.392871	1.487566	0.270435	99
Es	-0.181766	0.284885	0.511351	99
Es	1.068273	-1.549534	-0.834752	99
Es	1.393701	-0.829618	-0.871569	99
Es	-0.364442	-0.507620	1.453398	99
Es	-0.491471	-0.372323	0.730668	99
Es	1.225713	-1.826527	-1.028517	99
Es	-0.214896	-0.959822	0.327090	99
Es	1.726130	-0.305037	-0.909173	99
Es	0.439321	-1.469437	-0.714987	99
Es	0.809668	0.781525	-1.038028	99
Es	-0.320197	-2.190434	0.047847	99
Es	0.442575	0.874194	-0.368245	99
41
Properties=species:S:1:pos:R:3:Z:I:1 energy=-359.75912509059685 field_type=dipole dipole="0.000000 0.000000 0.000000" charge=0
O	-1.902688	-0.331826	0.522076	8
C	-0.491278	-0.372286	0.730756	6
C	0.118782	0.949874	0.298396	6
C	0.809542	0.781694	-1.038094	6
O	1.726322	-0.305056	-0.909204	8
N	1.068542	-1.550026	-0.835094	7
C	0.037942	-1.558126	-0.045814	6
H	-2.286088	0.200704	1.240996	1
H	-0.323788	-0.563346	1.795876	1
H	-0.623098	1.753334	0.249846	1
H	0.873322	1.236794	1.041476	1
H	1.382402	1.681103	-1.287784	1
H	0.106032	0.589934	-1.856364	1
H	-0.495948	-2.512766	0.092926	1
Es	-2.088731	-0.039015	0.916224	99
Es	-0.392783	1.487541	0.270298	99
Es	-0.364368	-0.507572	1.453449	99
Es	1.225446	-1.826683	-1.028525	99
Es	0.439510	-1.469319	-0.714613	99
Es	0.322315	0.646036	-1.588998	99
Es	1.201915	1.390724	-1.203952	99
Es	0.809668	0.781526	-1.038027	99
Es	-2.007130	-0.615834	0.563322	99
Es	1.348589	0.082882	-0.958047	99
Es	-0.491470	-0.372323	0.730669	99
Es	0.769810	-1.608413	-0.256224	99
Es	1.068295	-1.549510	-0.834753	99
Es	-1.902539	-0.331702	0.522330	99
Es	-0.320222	-2.190507	0.047785	99
Es	0.037922	-1.558087	-0.045810	99
Es	-0.181883	0.284809	0.511194	99
Es	-1.365719	-0.340250	0.618755	99
Es	1.832251	-0.280034	-0.631858	99
Es	1.726019	-0.305061	-0.909201	99
Es	0.633911	1.143887	0.802126	99
Es	-1.944596	-0.179560	0.262882	99
Es	-0.214982	-0.959767	0.327080	99
Es	0.118779	0.949835	0.298394	99
Es	0.442701	0.874207	-0.368189	99
Es	1.901828	-0.313373	-1.163406	99
Es	1.393993	-0.829686	-0.871414	99
41
Properties=species:S:1:pos:R:3:Z:I:1 energy=-359.75912509059685 field_type=dipole dipole="0.000000 0.000000 0.000000" charge=0
O	-1.902688	-0.331826	0.522076	8
C	-0.491278	-0.372286	0.730756	6
C	0.118782	0.949874	0.298396	6
C	0.809542	0.781694	-1.038094	6
O	1.726322	-0.305056	-0.909204	8
N	1.068542	-1.550026	-0.835094	7
C	0.037942	-1.558126	-0.045814	6
H	-2.286088	0.200704	1.240996	1
H	-0.323788	-0.563346	1.795876	1
H	-0.623098	1.753334	0.249846	1
H	0.873322	1.236794	1.041476	1
H	1.382402	1.681103	-1.287784	1
H	0.106032	0.589934	-1.856364	1
H	-0.495948	-2.512766	0.092926	1
Es	0.809668	0.781525	-1.038027	99
Es	1.393890	-0.829791	-0.871824	99
Es	1.725953	-0.305077	-0.909228	99
Es	-0.364391	-0.507603	1.453394	99
Es	-2.088799	-0.037569	0.915134	99
Es	0.442672	0.874184	-0.368214	99
Es	1.901743	-0.312926	-1.163558	99
Es	1.348800	0.083245	-0.956839	99
Es	-0.181841	0.284853	0.511262	99
Es	1.832363	-0.280621	-0.632522	99
Es	0.322304	0.646023	-1.589058	99
Es	1.225362	-1.826224	-1.028314	99
Es	-0.214921	-0.959715	0.327096	99
Es	0.439412	-1.469622	-0.714975	99
Es	-0.320200	-2.190489	0.047830	99
Es	-0.392808	1.487559	0.270346	99
Es	0.633941	1.143849	0.802109	99
Es	0.037920	-1.558086	-0.045813	99
Es	-1.365570	-0.338607	0.617879	99
Es	0.769930	-1.608671	-0.256072	99
Es	-0.491470	-0.372323	0.730669	99
Es	-1.946737	-0.183039	0.260830	99
Es	-1.902538	-0.331682	0.522292	99
Es	0.118780	0.949839	0.298393	99
Es	1.201888	1.390711	-1.203907	99
Es	-2.005098	-0.615465	0.567358	99
Es	1.068277	-1.549527	-0.834752	99
41
Properties=species:S:1:pos:R:3:Z:I:1 energy=-359.75912509059685 field_type=dipole dipole="0.000000 0.000000 0.000000" charge=0
O	-1.902688	-0.331826	0.522076	8
C	-0.491278	-0.372286	0.730756	6
C	0.118782	0.949874	0.298396	6
C	0.809542	0.781694	-1.038094	6
O	1.726322	-0.305056	-0.909204	8
N	1.068542	-1.550026	-0.835094	7
C	0.037942	-1.558126	-0.045814	6
H	-2.286088	0.200704	1.240996	1
H	-0.323788	-0.563346	1.795876	1
H	-0.623098	1.753334	0.249846	1
H	0.873322	1.236794	1.041476	1
H	1.382402	1.681103	-1.287784	1
H	0.106032	0.589934	-1.856364	1
H	-0.495948	-2.512766	0.092926	1
Es	0.037921	-1.558085	-0.045811	99
Es	0.633805	1.143916	0.802236	99
Es	1.394051	-0.829911	-0.871199	99
Es	1.225062	-1.826265	-1.028668	99
Es	1.726157	-0.305068	-0.909121	99
Es	1.348839	0.083381	-0.957283	99
Es	0.118780	0.949839	0.298393	99
Es	-1.365579	-0.339366	0.618163	99
Es	0.442707	0.874043	-0.368207	99
Es	1.832833	-0.280324	-0.632905	99
Es	-0.181926	0.284913	0.511257	99
Es	-0.214927	-0.959672	0.327125	99
Es	-1.902526	-0.331661	0.522285	99
Es	0.439642	-1.469498	-0.714556	99
Es	0.809668	0.781532	-1.038030	99
Es	-0.320226	-2.190515	0.047778	99
Es	-1.946064	-0.182597	0.261314	99
Es	1.201859	1.390742	-1.203859	99
Es	0.322420	0.646071	-1.589063	99
Es	-0.491468	-0.372323	0.730670	99
Es	-0.392746	1.487516	0.270162	99
Es	1.900942	-0.313238	-1.163413	99
Es	-0.364375	-0.507609	1.453374	99
Es	1.068298	-1.549514	-0.834762	99
Es	-2.089096	-0.037647	0.915402	99
Es	0.769972	-1.608799	-0.256132	99
Es	-2.005494	-0.615109	0.566342	99
41
Properties=species:S:1:pos:R:3:Z:I:1 energy=-359.75912509059685 field_type=dipole dipole="0.000000 0.000000 0.000000" charge=0
O	-1.902688	-0.331826	0.522076	8
C	-0.491278	-0.372286	0.730756	6
C	0.118782	0.949874	0.298396	6
C	0.809542	0.781694	-1.038094	6
O	1.726322	-0.305056	-0.909204	8
N	1.068542	-1.550026	-0.835094	7
C	0.037942	-1.558126	-0.045814	6
H	-2.286088	0.200704	1.240996	1
H	-0.323788	-0.563346	1.795876	1
H	-0.623098	1.753334	0.249846	1
H	0.873322	1.236794	1.041476	1
H	1.382402	1.681103	-1.287784	1
H	0.106032	0.589934	-1.856364	1
H	-0.495948	-2.512766	0.092926	1
Es	1.068285	-1.549517	-0.834755	99
Es	0.442558	0.874228	-0.368332	99
Es	-0.181849	0.284936	0.511274	99
Es	1.726000	-0.305054	-0.909193	99
Es	1.348765	0.083032	-0.958805	99
Es	0.769903	-1.608771	-0.256235	99
Es	1.831233	-0.279635	-0.632559	99
Es	-0.214947	-0.959586	0.327126	99
Es	-2.007772	-0.615444	0.562492	99
Es	0.118780	0.949838	0.298393	99
Es	0.037919	-1.558083	-0.045808	99
Es	0.809667	0.781524	-1.038030	99
Es	0.633893	1.143837	0.802123	99
Es	-2.088993	-0.038744	0.916125	99
Es	-0.491469	-0.372322	0.730674	99
Es	0.322439	0.646071	-1.589021	99
Es	-0.392747	1.487501	0.270426	99
Es	1.394318	-0.830103	-0.871094	99
Es	1.201834	1.390713	-1.203927	99
Es	-1.902548	-0.331686	0.522350	99
Es	-0.364373	-0.507678	1.453333	99
Es	-1.943881	-0.179450	0.263589	99
Es	1.902589	-0.313405	-1.162364	99
Es	0.439625	-1.469644	-0.714656	99
Es	1.225086	-1.826185	-1.028369	99
Es	-0.320222	-2.190535	0.047767	99
Es	-1.365566	-0.341089	0.618969	99
41
Properties=species:S:1:pos:R:3:Z:I:1 energy=-359.75912509059685 field_type=dipole dipole="0.000000 0.000000 0.000000" charge=0
O	-1.902688	-0.331826	0.522076	8
C	-0.491278	-0.372286	0.730756	6
C	0.118782	0.949874	0.298396	6
C	0.809542	0.781694	-1.038094	6
O	1.726322	-0.305056	-0.909204	8
N	1.068542	-1.550026	-0.835094	7
C	0.037942	-1.558126	-0.045814	6
H	-2.286088	0.200704	1.240996	1
H	-0.323788	-0.563346	1.795876	1
H	-0.623098	1.753334	0.249846	1
H	0.873322	1.236794	1.041476	1
H	1.382402	1.681103	-1.287784	1
H	0.106032	0.589934	-1.856364	1
H	-0.495948	-2.512766	0.092926	1
Es	0.037922	-1.558084	-0.045818	99
Es	0.439716	-1.469666	-0.714554	99
Es	-2.006676	-0.615305	0.564121	99
Es	-0.491464	-0.372320	0.730670	99
Es	0.769977	-1.608930	-0.256166	99
Es	1.900183	-0.313309	-1.163489	99
Es	1.833735	-0.280194	-0.633246	99
Es	1.201848	1.390672	-1.203970	99
Es	-2.089424	-0.038065	0.915531	99
Es	0.633955	1.143896	0.802084	99
Es	0.442513	0.874232	-0.368239	99
Es	0.118781	0.949840	0.298394	99
Es	1.725991	-0.305044	-0.909170	99
Es	0.809667	0.781526	-1.038026	99
Es	-0.214945	-0.959564	0.327151	99
Es	0.322419	0.646074	-1.589008	99
Es	-0.320262	-2.190560	0.047750	99
Es	-0.181828	0.284858	0.511270	99
Es	-1.365360	-0.339987	0.618625	99
Es	-1.902530	-0.331715	0.522359	99
Es	1.224842	-1.825981	-1.028424	99
Es	1.394269	-0.830040	-0.870966	99
Es	1.348817	0.083417	-0.957223	99
Es	-1.944815	-0.181323	0.262917	99
Es	-0.364329	-0.507656	1.453313	99
Es	1.068278	-1.549527	-0.834753	99
Es	-0.392749	1.487507	0.270357	99
