43
Properties=species:S:1:pos:R:3:Z:I:1 energy=-323.92431100006525 field_type=dipole dipole="0.000000 0.000000 0.000000" charge=0
O	-2.232857	0.690361	-0.564579	8
C	-0.808027	0.692251	-0.322819	6
C	-0.287497	1.642811	0.780031	6
N	0.639733	0.579541	1.235271	7
C	-0.244177	-0.424139	0.598021	6
C	0.507543	-1.549599	-0.011839	6
C	1.422753	-1.406449	-0.981479	6
H	-2.382467	-0.093119	-1.121209	1
H	-0.271807	0.832271	-1.269949	1
H	-1.035727	1.921511	1.531071	1
H	0.205503	2.551511	0.423181	1
H	1.564813	0.637221	0.811800	1
H	-1.000677	-0.810229	1.296281	1
H	0.290413	-2.542089	0.374301	1
H	1.693083	-0.444729	-1.402539	1
H	1.939394	-2.277119	-1.375539	1
Es	0.507464	-1.549600	-0.011778	99
Es	1.422824	-1.406425	-0.981555	99
Es	1.173860	0.616580	0.939892	99
Es	-0.561058	0.052326	0.073661	99
Es	-0.287404	1.642685	0.780038	99
Es	-2.365542	0.633978	-0.292880	99
Es	-1.696762	0.675486	-0.486140	99
Es	0.054438	2.267347	0.534603	99
Es	0.275134	1.083770	1.050861	99
Es	-0.798433	1.820659	1.289117	99
Es	1.199583	-1.436139	-0.280461	99
Es	0.676448	0.545827	1.585865	99
Es	-2.297445	0.263857	-0.864797	99
Es	0.356532	-2.222084	0.251675	99
Es	0.639678	0.579600	1.234631	99
Es	-2.232625	0.690098	-0.564674	99
Es	-0.244062	-0.424064	0.598034	99
Es	-0.428638	0.777265	-0.968555	99
Es	-0.808252	0.692237	-0.322819	99
Es	-2.292474	0.934659	-0.737629	99
Es	0.131806	-0.996110	0.282814	99
Es	-0.762230	-0.680806	1.071432	99
Es	1.777250	-1.988967	-1.252787	99
Es	1.606046	-0.751519	-1.267348	99
Es	0.735991	-1.511046	-0.732505	99
Es	-0.606457	1.239704	0.188040	99
Es	0.296630	0.099881	0.956726	99
43
Properties=species:S:1:pos:R:3:Z:I:1 energy=-323.92431100006525 field_type=dipole dipole="0.000000 0.000000 0.000000" charge=0
O	-2.232857	0.690361	-0.564579	8
C	-0.808027	0.692251	-0.322819	6
C	-0.287497	1.642811	0.780031	6
N	0.639733	0.579541	1.235271	7
C	-0.244177	-0.424139	0.598021	6
C	0.507543	-1.549599	-0.011839	6
C	1.422753	-1.406449	-0.981479	6
H	-2.382467	-0.093119	-1.121209	1
H	-0.271807	0.832271	-1.269949	1
H	-1.035727	1.921511	1.531071	1
H	0.205503	2.551511	0.423181	1
H	1.564813	0.637221	0.811800	1
H	-1.000677	-0.810229	1.296281	1
H	0.290413	-2.542089	0.374301	1
H	1.693083	-0.444729	-1.402539	1
H	1.939394	-2.277119	-1.375539	1
Es	0.296838	0.099599	0.957152	99
Es	-2.292531	0.935243	-0.736941	99
Es	0.054466	2.267352	0.534642	99
Es	1.173597	0.616793	0.939510	99
Es	-0.287404	1.642687	0.780037	99
Es	-2.232636	0.690164	-0.564734	99
Es	-0.244061	-0.424063	0.598035	99
Es	0.274646	1.083669	1.051118	99
Es	0.507470	-1.549603	-0.011772	99
Es	0.131698	-0.996035	0.282808	99
Es	-2.297530	0.264398	-0.865472	99
Es	0.356513	-2.222058	0.251579	99
Es	1.422822	-1.406425	-0.981551	99
Es	-0.561060	0.052337	0.073652	99
Es	0.736037	-1.510987	-0.732426	99
Es	-0.762223	-0.680827	1.071401	99
Es	-0.606493	1.239789	0.188039	99
Es	-0.428639	0.777237	-0.968522	99
Es	-1.696688	0.675058	-0.485614	99
Es	-0.808260	0.692242	-0.322821	99
Es	0.677011	0.545898	1.585653	99
Es	1.199658	-1.436284	-0.280451	99
Es	0.639644	0.579598	1.234648	99
Es	-0.798397	1.820690	1.289020	99
Es	1.606153	-0.751499	-1.267282	99
Es	1.777139	-1.988978	-1.252854	99
Es	-2.365465	0.633204	-0.293394	99
43
Properties=species:S:1:pos:R:3:Z:I:1 energy=-323.92431100006525 field_type=dipole dipole="0.000000 0.000000 0.000000" charge=0
O	-2.232857	0.690361	-0.564579	8
C	-0.808027	0.692251	-0.322819	6
C	-0.287497	1.642811	0.780031	6
N	0.639733	0.579541	1.235271	7
C	-0.244177	-0.424139	0.598021	6
C	0.507543	-1.549599	-0.011839	6
C	1.422753	-1.406449	-0.981479	6
H	-2.382467	-0.093119	-1.121209	1
H	-0.271807	0.832271	-1.269949	1
H	-1.035727	1.921511	1.531071	1
H	0.205503	2.551511	0.423181	1
H	1.564813	0.637221	0.811800	1
H	-1.000677	-0.810229	1.296281	1
H	0.290413	-2.542089	0.374301	1
H	1.693083	-0.444729	-1.402539	1
H	1.939394	-2.277119	-1.375539	1
Es	-0.287405	1.642688	0.780035	99
Es	0.131543	-0.996001	0.282698	99
Es	-2.297892	0.264049	-0.865075	99
Es	1.199627	-1.436317	-0.280488	99
Es	1.606152	-0.751469	-1.267263	99
Es	-0.762152	-0.680799	1.071362	99
Es	0.274844	1.083904	1.050958	99
Es	-2.365296	0.633788	-0.293489	99
Es	-0.606326	1.239966	0.187703	99
Es	1.173857	0.616533	0.940045	99
Es	0.054364	2.267345	0.534823	99
Es	0.736155	-1.510961	-0.732305	99
Es	-1.696541	0.675287	-0.485801	99
Es	0.639650	0.579599	1.234663	99
Es	0.507472	-1.549603	-0.011772	99
Es	-0.428678	0.777000	-0.968481	99
Es	-0.244063	-0.424060	0.598040	99
Es	-2.232634	0.690173	-0.564720	99
Es	0.356408	-2.222125	0.251533	99
Es	1.422823	-1.406426	-0.981552	99
Es	1.777149	-1.988985	-1.252851	99
Es	-0.561189	0.052326	0.073848	99
Es	-2.292552	0.934865	-0.737054	99
Es	0.296932	0.099424	0.957355	99
Es	-0.808259	0.692238	-0.322824	99
Es	0.676724	0.546122	1.585146	99
Es	-0.798408	1.820641	1.288929	99
43
Properties=species:S:1:pos:R:3:Z:I:1 energy=-323.92431100006525 field_type=dipole dipole="0.000000 0.000000 0.000000" charge=0
O	-2.232857	0.690361	-0.564579	8
C	-0.808027	0.692251	-0.322819	6
C	-0.287497	1.642811	0.780031	6
N	0.639733	0.579541	1.235271	7
C	-0.244177	-0.424139	0.598021	6
C	0.507543	-1.549599	-0.011839	6
C	1.422753	-1.406449	-0.981479	6
H	-2.382467	-0.093119	-1.121209	1
H	-0.271807	0.832271	-1.269949	1
H	-1.035727	1.921511	1.531071	1
H	0.205503	2.551511	0.423181	1
H	1.564813	0.637221	0.811800	1
H	-1.000677	-0.810229	1.296281	1
H	0.290413	-2.542089	0.374301	1
H	1.693083	-0.444729	-1.402539	1
H	1.939394	-2.277119	-1.375539	1
Es	-2.232615	0.690100	-0.564684	99
Es	1.606168	-0.751453	-1.267272	99
Es	0.507471	-1.549603	-0.011774	99
Es	1.199455	-1.436384	-0.280638	99
Es	-0.244063	-0.424065	0.598031	99
Es	1.422822	-1.406427	-0.981551	99
Es	1.777112	-1.989024	-1.252867	99
Es	-0.798329	1.820724	1.288930	99
Es	0.274949	1.084062	1.050729	99
Es	0.676170	0.546348	1.584549	99
Es	0.736164	-1.510931	-0.732296	99
Es	0.296951	0.099188	0.957423	99
Es	1.174287	0.616424	0.940808	99
Es	-0.606478	1.239907	0.187910	99
Es	-1.696324	0.675149	-0.485204	99
Es	-2.366362	0.634989	-0.293756	99
Es	0.131670	-0.995937	0.282966	99
Es	-0.287405	1.642688	0.780035	99
Es	-0.561086	0.052217	0.073493	99
Es	0.639668	0.579586	1.234716	99
Es	-0.762154	-0.680759	1.071318	99
Es	-2.298134	0.263973	-0.865204	99
Es	-2.291484	0.933870	-0.737331	99
Es	0.356508	-2.222148	0.251596	99
Es	-0.808253	0.692237	-0.322819	99
Es	0.054309	2.267290	0.534756	99
Es	-0.428713	0.777179	-0.968404	99
43
Properties=species:S:1:pos:R:3:Z:I:1 energy=-323.92431100006525 field_type=dipole dipole="0.000000 0.000000 0.000000" charge=0
O	-2.232857	0.690361	-0.564579	8
C	-0.808027	0.692251	-0.322819	6
C	-0.287497	1.642811	0.780031	6
N	0.639733	0.579541	1.235271	7
C	-0.244177	-0.424139	0.598021	6
C	0.507543	-1.549599	-0.011839	6
C	1.422753	-1.406449	-0.981479	6
H	-2.382467	-0.093119	-1.121209	1
H	-0.271807	0.832271	-1.269949	1
H	-1.035727	1.921511	1.531071	1
H	0.205503	2.551511	0.423181	1
H	1.564813	0.637221	0.811800	1
H	-1.000677	-0.810229	1.296281	1
H	0.290413	-2.542089	0.374301	1
H	1.693083	-0.444729	-1.402539	1
H	1.939394	-2.277119	-1.375539	1
Es	-1.696314	0.675607	-0.485532	99
Es	0.736199	-1.511079	-0.732326	99
Es	0.296826	0.099165	0.957325	99
Es	-0.606463	1.239923	0.187864	99
Es	1.606160	-0.751407	-1.267199	99
Es	1.199315	-1.436339	-0.280721	99
Es	-2.366532	0.634897	-0.293357	99
Es	1.174496	0.616561	0.940932	99
Es	-2.232711	0.690213	-0.564656	99
Es	1.422823	-1.406425	-0.981551	99
Es	0.275055	1.084160	1.051287	99
Es	1.777215	-1.988986	-1.252829	99
Es	-0.808254	0.692240	-0.322819	99
Es	-0.798295	1.820720	1.288886	99
Es	-0.428729	0.777144	-0.968360	99
Es	-2.297915	0.264032	-0.865305	99
Es	0.131484	-0.995855	0.282938	99
Es	-0.244060	-0.424061	0.598033	99
Es	-2.291470	0.933354	-0.737352	99
Es	0.054253	2.267290	0.534806	99
Es	-0.287404	1.642685	0.780035	99
Es	0.507477	-1.549601	-0.011769	99
Es	0.676133	0.546163	1.584120	99
Es	0.639647	0.579599	1.234676	99
Es	-0.762149	-0.680822	1.071247	99
Es	-0.561113	0.052174	0.073504	99
Es	0.356629	-2.222152	0.251585	99
43
Properties=species:S:1:pos:R:3:Z:I:1 energy=-323.92431100006525 field_type=dipole dipole="0.000000 0.000000 0.000000" charge=0
O	-2.232857	0.690361	-0.564579	8
C	-0.808027	0.692251	-0.322819	6
C	-0.287497	1.642811	0.780031	6
N	0.639733	0.579541	1.235271	7
C	-0.244177	-0.424139	0.598021	6
C	0.507543	-1.549599	-0.011839	6
C	1.422753	-1.406449	-0.981479	6
H	-2.382467	-0.093119	-1.121209	1
H	-0.271807	0.832271	-1.269949	1
H	-1.035727	1.921511	1.531071	1
H	0.205503	2.551511	0.423181	1
H	1.564813	0.637221	0.811800	1
H	-1.000677	-0.810229	1.296281	1
H	0.290413	-2.542089	0.374301	1
H	1.693083	-0.444729	-1.402539	1
H	1.939394	-2.277119	-1.375539	1
Es	-0.428802	0.777119	-0.968306	99
Es	0.275053	1.084129	1.051770	99
Es	0.507479	-1.549600	-0.011768	99
Es	1.422819	-1.406427	-0.981549	99
Es	-0.606484	1.240058	0.187751	99
Es	-2.366099	0.635599	-0.294017	99
Es	-2.291682	0.933461	-0.737862	99
Es	1.199353	-1.436353	-0.280750	99
Es	0.736334	-1.510903	-0.732107	99
Es	0.131378	-0.995831	0.282909	99
Es	-0.762121	-0.680823	1.071207	99
Es	0.639642	0.579597	1.234651	99
Es	-2.232676	0.690178	-0.564674	99
Es	-0.798257	1.820745	1.288831	99
Es	1.606183	-0.751419	-1.267209	99
Es	0.054222	2.267264	0.534863	99
Es	-0.561110	0.052092	0.073509	99
Es	-0.287405	1.642687	0.780035	99
Es	0.356574	-2.222236	0.251489	99
Es	-0.244062	-0.424064	0.598033	99
Es	1.777144	-1.989069	-1.252873	99
Es	1.174211	0.616774	0.940651	99
Es	0.676506	0.545875	1.584230	99
Es	-0.808247	0.692239	-0.322815	99
Es	-1.696077	0.675423	-0.485300	99
Es	0.296827	0.099247	0.957113	99
Es	-2.298401	0.263437	-0.864350	99
43
Properties=species:S:1:pos:R:3:Z:I:1 energy=-323.92431100006525 field_type=dipole dipole="0.000000 0.000000 0.000000" charge=0
O	-2.232857	0.690361	-0.564579	8
C	-0.808027	0.692251	-0.322819	6
C	-0.287497	1.642811	0.780031	6
N	0.639733	0.579541	1.235271	7
C	-0.244177	-0.424139	0.598021	6
C	0.507543	-1.549599	-0.011839	6
C	1.422753	-1.406449	-0.981479	6
H	-2.382467	-0.093119	-1.121209	1
H	-0.271807	0.832271	-1.269949	1
H	-1.035727	1.921511	1.531071	1
H	0.205503	2.551511	0.423181	1
H	1.564813	0.637221	0.811800	1
H	-1.000677	-0.810229	1.296281	1
H	0.290413	-2.542089	0.374301	1
H	1.693083	-0.444729	-1.402539	1
H	1.939394	-2.277119	-1.375539	1
Es	0.736323	-1.510952	-0.732141	99
Es	0.356586	-2.222229	0.251517	99
Es	0.131396	-0.995753	0.282961	99
Es	-0.606522	1.240076	0.187762	99
Es	0.507470	-1.549602	-0.011774	99
Es	0.054187	2.267254	0.534904	99
Es	1.199285	-1.436376	-0.280795	99
Es	1.422822	-1.406426	-0.981550	99
Es	0.274998	1.084332	1.051690	99
Es	-2.367865	0.637915	-0.294456	99
Es	-2.289882	0.931060	-0.737563	99
Es	-0.808251	0.692238	-0.322818	99
Es	0.296842	0.099022	0.957530	99
Es	-0.287406	1.642690	0.780035	99
Es	1.606166	-0.751417	-1.267206	99
Es	-2.232609	0.690043	-0.564591	99
Es	0.676750	0.546093	1.583926	99
Es	1.174076	0.616592	0.940674	99
Es	-0.762089	-0.680848	1.071178	99
Es	-0.798226	1.820748	1.288797	99
Es	-2.299091	0.263345	-0.864989	99
Es	-0.244062	-0.424064	0.598033	99
Es	-0.428777	0.777118	-0.968266	99
Es	0.639646	0.579592	1.234648	99
Es	1.777188	-1.989051	-1.252848	99
Es	-0.561148	0.052081	0.073462	99
Es	-1.695503	0.675720	-0.484655	99
43
Properties=species:S:1:pos:R:3:Z:I:1 energy=-323.92431100006525 field_type=dipole dipole="0.000000 0.000000 0.000000" charge=0
O	-2.232857	0.690361	-0.564579	8
C	-0.808027	0.692251	-0.322819	6
C	-0.287497	1.642811	0.780031	6
N	0.639733	0.579541	1.235271	7
C	-0.244177	-0.424139	0.598021	6
C	0.507543	-1.549599	-0.011839	6
C	1.422753	-1.406449	-0.981479	6
H	-2.382467	-0.093119	-1.121209	1
H	-0.271807	0.832271	-1.269949	1
H	-1.035727	1.921511	1.531071	1
H	0.205503	2.551511	0.423181	1
H	1.564813	0.637221	0.811800	1
H	-1.000677	-0.810229	1.296281	1
H	0.290413	-2.542089	0.374301	1
H	1.693083	-0.444729	-1.402539	1
H	1.939394	-2.277119	-1.375539	1
Es	1.422821	-1.406426	-0.981549	99
Es	1.199258	-1.436404	-0.280836	99
Es	-2.291846	0.933304	-0.737144	99
Es	-2.366078	0.635312	-0.294273	99
Es	0.131336	-0.995698	0.282981	99
Es	-1.695840	0.675575	-0.485338	99
Es	-0.561161	0.052043	0.073423	99
Es	0.736397	-1.510935	-0.732053	99
Es	-0.808250	0.692238	-0.322818	99
Es	-2.298543	0.263744	-0.864886	99
Es	-0.762067	-0.680854	1.071141	99
Es	-0.606543	1.240129	0.187731	99
Es	1.777179	-1.989058	-1.252863	99
Es	1.606151	-0.751405	-1.267213	99
Es	0.296864	0.098914	0.957634	99
Es	-0.244062	-0.424064	0.598033	99
Es	0.356586	-2.222262	0.251486	99
Es	-0.287405	1.642688	0.780034	99
Es	-2.232658	0.690136	-0.564645	99
Es	0.639647	0.579599	1.234669	99
Es	0.507471	-1.549602	-0.011773	99
Es	0.676716	0.546158	1.583679	99
Es	-0.798188	1.820770	1.288759	99
Es	0.275042	1.084411	1.051716	99
Es	1.174130	0.616555	0.940837	99
Es	0.054142	2.267232	0.534942	99
Es	-0.428797	0.777099	-0.968212	99
43
Properties=species:S:1:pos:R:3:Z:I:1 energy=-323.92431100006525 field_type=dipole dipole="0.000000 0.000000 0.000000" charge=0
O	-2.232857	0.690361	-0.564579	8
C	-0.808027	0.692251	-0.322819	6
C	-0.287497	1.642811	0.780031	6
N	0.639733	0.579541	1.235271	7
C	-0.244177	-0.424139	0.598021	6
C	0.507543	-1.549599	-0.011839	6
C	1.422753	-1.406449	-0.981479	6
H	-2.382467	-0.093119	-1.121209	1
H	-0.271807	0.832271	-1.269949	1
H	-1.035727	1.921511	1.531071	1
H	0.205503	2.551511	0.423181	1
H	1.564813	0.637221	0.811800	1
H	-1.000677	-0.810229	1.296281	1
H	0.290413	-2.542089	0.374301	1
H	1.693083	-0.444729	-1.402539	1
H	1.939394	-2.277119	-1.375539	1
Es	0.639655	0.579597	1.234664	99
Es	1.174159	0.616541	0.940994	99
Es	-0.606575	1.240168	0.187706	99
Es	0.507472	-1.549602	-0.011774	99
Es	0.356595	-2.222287	0.251467	99
Es	1.777191	-1.989072	-1.252861	99
Es	-0.561173	0.052008	0.073399	99
Es	0.296908	0.098799	0.957722	99
Es	-0.428817	0.777079	-0.968174	99
Es	-0.244062	-0.424063	0.598032	99
Es	-2.366757	0.636520	-0.294638	99
Es	0.131287	-0.995640	0.283011	99
Es	0.275015	1.084543	1.051823	99
Es	0.736450	-1.510934	-0.731998	99
Es	0.054114	2.267191	0.534952	99
Es	-1.695661	0.675513	-0.484847	99
Es	-0.762045	-0.680862	1.071108	99
Es	1.606153	-0.751397	-1.267202	99
Es	-0.798144	1.820818	1.288749	99
Es	-2.298865	0.263450	-0.864713	99
Es	1.199197	-1.436423	-0.280888	99
Es	-2.232633	0.690090	-0.564629	99
Es	-0.287405	1.642688	0.780035	99
Es	-2.291059	0.932495	-0.737479	99
Es	1.422821	-1.406426	-0.981549	99
Es	0.676733	0.546167	1.583368	99
Es	-0.808248	0.692239	-0.322817	99
43
Properties=species:S:1:pos:R:3:Z:I:1 energy=-323.92431100006525 field_type=dipole dipole="0.000000 0.000000 0.000000" charge=0
O	-2.232857	0.690361	-0.564579	8
C	-0.808027	0.692251	-0.322819	6
C	-0.287497	1.642811	0.780031	6
N	0.639733	0.579541	1.235271	7
C	-0.244177	-0.424139	0.598021	6
C	0.507543	-1.549599	-0.011839	6
C	1.422753	-1.406449	-0.981479	6
H	-2.382467	-0.093119	-1.121209	1
H	-0.271807	0.832271	-1.269949	1
H	-1.035727	1.921511	1.531071	1
H	0.205503	2.551511	0.423181	1
H	1.564813	0.637221	0.811800	1
H	-1.000677	-0.810229	1.296281	1
H	0.290413	-2.542089	0.374301	1
H	1.693083	-0.444729	-1.402539	1
H	1.939394	-2.277119	-1.375539	1
Es	0.639662	0.579592	1.234716	99
Es	0.736488	-1.510884	-0.731970	99
Es	-1.695478	0.675907	-0.485116	99
Es	1.174280	0.616561	0.941227	99
Es	0.356544	-2.222304	0.251501	99
Es	-0.561150	0.051986	0.073431	99
Es	0.676544	0.546217	1.583220	99
Es	0.297070	0.098732	0.957666	99
Es	0.507468	-1.549602	-0.011774	99
Es	0.054034	2.267268	0.535095	99
Es	-0.798141	1.820684	1.288695	99
Es	-2.290982	0.931614	-0.738339	99
Es	-0.287406	1.642689	0.780034	99
Es	1.422819	-1.406426	-0.981548	99
Es	0.131222	-0.995655	0.282982	99
Es	1.777139	-1.989093	-1.252909	99
Es	1.199284	-1.436352	-0.280791	99
Es	-0.244062	-0.424064	0.598032	99
Es	-2.299261	0.262543	-0.863515	99
Es	-2.366683	0.637861	-0.294629	99
Es	-0.808250	0.692239	-0.322818	99
Es	1.606121	-0.751458	-1.267248	99
Es	-0.428887	0.776947	-0.968124	99
Es	-0.606488	1.240370	0.187510	99
Es	-2.232593	0.690129	-0.564706	99
Es	0.275064	1.084526	1.051719	99
Es	-0.762053	-0.680828	1.071121	99
43
Properties=species:S:1:pos:R:3:Z:I:1 energy=-323.92431100006525 field_type=dipole dipole="0.000000 0.000000 0.000000" charge=0
O	-2.232857	0.690361	-0.564579	8
C	-0.808027	0.692251	-0.322819	6
C	-0.287497	1.642811	0.780031	6
N	0.639733	0.579541	1.235271	7
C	-0.244177	-0.424139	0.598021	6
C	0.507543	-1.549599	-0.011839	6
C	1.422753	-1.406449	-0.981479	6
H	-2.382467	-0.093119	-1.121209	1
H	-0.271807	0.832271	-1.269949	1
H	-1.035727	1.921511	1.531071	1
H	0.205503	2.551511	0.423181	1
H	1.564813	0.637221	0.811800	1
H	-1.000677	-0.810229	1.296281	1
H	0.290413	-2.542089	0.374301	1
H	1.693083	-0.444729	-1.402539	1
H	1.939394	-2.277119	-1.375539	1
Es	0.356622	-2.222325	0.251434	99
Es	0.054083	2.267118	0.534973	99
Es	-2.232612	0.690075	-0.564676	99
Es	1.422821	-1.406426	-0.981549	99
Es	-0.798074	1.820889	1.288722	99
Es	-0.561203	0.051936	0.073331	99
Es	-0.244062	-0.424063	0.598032	99
Es	0.275009	1.084701	1.051975	99
Es	0.736560	-1.510926	-0.731894	99
Es	1.777201	-1.989105	-1.252857	99
Es	-1.695460	0.676134	-0.485217	99
Es	0.296955	0.098649	0.957913	99
Es	-0.761996	-0.680885	1.071038	99
Es	-2.293190	0.933807	-0.735740	99
Es	-0.808248	0.692238	-0.322817	99
Es	-0.428847	0.777058	-0.968073	99
Es	1.606139	-0.751349	-1.267194	99
Es	-2.298886	0.263695	-0.865336	99
Es	-0.606612	1.240232	0.187675	99
Es	-0.287406	1.642688	0.780033	99
Es	1.174285	0.616493	0.941244	99
Es	1.199093	-1.436452	-0.280997	99
Es	-2.364881	0.634353	-0.295384	99
Es	0.131184	-0.995542	0.283056	99
Es	0.639648	0.579599	1.234666	99
Es	0.507472	-1.549602	-0.011774	99
Es	0.676710	0.546209	1.582875	99
43
Properties=species:S:1:pos:R:3:Z:I:1 energy=-323.92431100006525 field_type=dipole dipole="0.000000 0.000000 0.000000" charge=0
O	-2.232857	0.690361	-0.564579	8
C	-0.808027	0.692251	-0.322819	6
C	-0.287497	1.642811	0.780031	6
N	0.639733	0.579541	1.235271	7
C	-0.244177	-0.424139	0.598021	6
C	0.507543	-1.549599	-0.011839	6
C	1.422753	-1.406449	-0.981479	6
H	-2.382467	-0.093119	-1.121209	1
H	-0.271807	0.832271	-1.269949	1
H	-1.035727	1.921511	1.531071	1
H	0.205503	2.551511	0.423181	1
H	1.564813	0.637221	0.811800	1
H	-1.000677	-0.810229	1.296281	1
H	0.290413	-2.542089	0.374301	1
H	1.693083	-0.444729	-1.402539	1
H	1.939394	-2.277119	-1.375539	1
Es	-2.232585	0.690174	-0.564803	99
Es	-1.695099	0.676572	-0.485856	99
Es	-0.244062	-0.424064	0.598032	99
Es	0.131142	-0.995492	0.283098	99
Es	-0.561215	0.051882	0.073287	99
Es	1.174324	0.616468	0.941404	99
Es	-2.363878	0.632868	-0.295455	99
Es	0.639650	0.579599	1.234665	99
Es	-0.808247	0.692239	-0.322816	99
Es	-0.428875	0.777037	-0.968037	99
Es	-0.761980	-0.680877	1.071006	99
Es	-0.287406	1.642689	0.780033	99
Es	0.053992	2.267154	0.535083	99
Es	1.422820	-1.406426	-0.981548	99
Es	0.275111	1.084800	1.052099	99
Es	-2.298980	0.264224	-0.865993	99
Es	0.676706	0.546260	1.582601	99
Es	-2.294463	0.934225	-0.734276	99
Es	-0.606606	1.240322	0.187609	99
Es	1.606137	-0.751351	-1.267176	99
Es	1.777204	-1.989113	-1.252869	99
Es	0.736614	-1.510905	-0.731830	99
Es	0.507472	-1.549602	-0.011775	99
Es	-0.798056	1.820828	1.288636	99
Es	0.356636	-2.222372	0.251412	99
Es	0.296920	0.098533	0.957980	99
Es	1.199030	-1.436473	-0.281050	99
43
Properties=species:S:1:pos:R:3:Z:I:1 energy=-323.92431100006525 field_type=dipole dipole="0.000000 0.000000 0.000000" charge=0
O	-2.232857	0.690361	-0.564579	8
C	-0.808027	0.692251	-0.322819	6
C	-0.287497	1.642811	0.780031	6
N	0.639733	0.579541	1.235271	7
C	-0.244177	-0.424139	0.598021	6
C	0.507543	-1.549599	-0.011839	6
C	1.422753	-1.406449	-0.981479	6
H	-2.382467	-0.093119	-1.121209	1
H	-0.271807	0.832271	-1.269949	1
H	-1.035727	1.921511	1.531071	1
H	0.205503	2.551511	0.423181	1
H	1.564813	0.637221	0.811800	1
H	-1.000677	-0.810229	1.296281	1
H	0.290413	-2.542089	0.374301	1
H	1.693083	-0.444729	-1.402539	1
H	1.939394	-2.277119	-1.375539	1
Es	0.053955	2.267137	0.535120	99
Es	0.275132	1.084887	1.052180	99
Es	-0.606615	1.240370	0.187579	99
Es	-0.287406	1.642689	0.780033	99
Es	-0.561223	0.051849	0.073251	99
Es	0.507472	-1.549602	-0.011775	99
Es	1.422820	-1.406426	-0.981548	99
Es	-2.290911	0.932708	-0.736164	99
Es	0.131097	-0.995438	0.283125	99
Es	0.356648	-2.222398	0.251394	99
Es	0.296935	0.098450	0.958055	99
Es	1.198976	-1.436488	-0.281102	99
Es	-0.244062	-0.424064	0.598032	99
Es	-0.798033	1.820839	1.288612	99
Es	-2.366867	0.635897	-0.295681	99
Es	-2.299311	0.264156	-0.865944	99
Es	1.174364	0.616446	0.941534	99
Es	0.639650	0.579598	1.234668	99
Es	-1.695337	0.675137	-0.483926	99
Es	0.676699	0.546282	1.582357	99
Es	1.606134	-0.751337	-1.267167	99
Es	0.736671	-1.510895	-0.731776	99
Es	-0.761958	-0.680883	1.070973	99
Es	-0.808246	0.692239	-0.322816	99
Es	-0.428903	0.777018	-0.968000	99
Es	1.777212	-1.989128	-1.252874	99
Es	-2.232591	0.690155	-0.564677	99
43
Properties=species:S:1:pos:R:3:Z:I:1 energy=-323.92431100006525 field_type=dipole dipole="0.000000 0.000000 0.000000" charge=0
O	-2.232857	0.690361	-0.564579	8
C	-0.808027	0.692251	-0.322819	6
C	-0.287497	1.642811	0.780031	6
N	0.639733	0.579541	1.235271	7
C	-0.244177	-0.424139	0.598021	6
C	0.507543	-1.549599	-0.011839	6
C	1.422753	-1.406449	-0.981479	6
H	-2.382467	-0.093119	-1.121209	1
H	-0.271807	0.832271	-1.269949	1
H	-1.035727	1.921511	1.531071	1
H	0.205503	2.551511	0.423181	1
H	1.564813	0.637221	0.811800	1
H	-1.000677	-0.810229	1.296281	1
H	0.290413	-2.542089	0.374301	1
H	1.693083	-0.444729	-1.402539	1
H	1.939394	-2.277119	-1.375539	1
Es	-0.287406	1.642689	0.780033	99
Es	1.198921	-1.436504	-0.281154	99
Es	0.356661	-2.222426	0.251376	99
Es	-1.694795	0.677233	-0.486540	99
Es	1.422820	-1.406426	-0.981548	99
Es	0.639656	0.579598	1.234662	99
Es	0.296948	0.098372	0.958136	99
Es	-2.363387	0.631766	-0.295498	99
Es	0.131054	-0.995390	0.283152	99
Es	-0.428913	0.777006	-0.967948	99
Es	-0.798000	1.820841	1.288572	99
Es	-0.808245	0.692239	-0.322815	99
Es	-2.232601	0.689938	-0.564498	99
Es	-2.298961	0.264914	-0.866998	99
Es	-0.244063	-0.424064	0.598031	99
Es	0.053915	2.267125	0.535158	99
Es	-2.295281	0.934209	-0.732894	99
Es	1.174407	0.616432	0.941654	99
Es	0.507472	-1.549602	-0.011775	99
Es	0.736722	-1.510889	-0.731722	99
Es	-0.606631	1.240417	0.187550	99
Es	0.676707	0.546290	1.582093	99
Es	1.777212	-1.989139	-1.252869	99
Es	-0.761940	-0.680889	1.070943	99
Es	1.606131	-0.751325	-1.267161	99
Es	-0.561245	0.051802	0.073218	99
Es	0.275145	1.084983	1.052303	99
