41
Properties=species:S:1:pos:R:3:Z:I:1 energy=-359.86742072342224 field_type=dipole dipole="0.000000 0.000000 0.000000" charge=0
O	-2.045716	0.139619	-0.592055	8
C	-0.628496	0.107389	-0.668895	6
C	-0.011066	1.251769	0.128375	6
N	1.222114	0.711319	0.611515	7
C	1.215414	-0.664471	0.624345	6
O	2.090864	-1.363672	1.103305	8
C	-0.061596	-1.148981	-0.009735	6
H	-2.384976	-0.631691	-1.079585	1
H	-0.322486	0.164869	-1.720055	1
H	-0.627956	1.548309	0.983305	1
H	0.186694	2.132088	-0.489365	1
H	1.943094	1.226639	1.099445	1
H	0.150264	-1.923052	-0.752115	1
H	-0.726156	-1.550131	0.761515	1
Es	-0.438812	1.447928	0.705990	99
Es	1.628030	1.024328	0.911633	99
Es	-0.354501	-0.540646	-0.342379	99
Es	0.120890	1.852756	-0.294005	99
Es	1.221906	0.711202	0.611819	99
Es	-2.204944	-0.282436	-0.859702	99
Es	1.916835	-1.129663	0.722308	99
Es	2.321031	-1.191790	1.229046	99
Es	-2.109337	0.090034	-0.297161	99
Es	0.574739	-0.916325	0.295844	99
Es	-1.508422	0.110548	-0.638418	99
Es	2.026191	-1.665054	1.068797	99
Es	1.346478	0.504750	0.359307	99
Es	0.700136	0.965652	0.425692	99
Es	0.082361	-1.667251	-0.506154	99
Es	-0.408585	0.143980	-1.389629	99
Es	1.679778	-1.130696	1.161247	99
Es	-0.061550	-1.148940	-0.009730	99
Es	-2.045495	0.139395	-0.592344	99
Es	-0.329539	0.695823	-0.269525	99
Es	1.142885	0.199183	0.779389	99
Es	1.215377	-0.664314	0.624307	99
Es	-2.140943	0.390347	-0.744515	99
Es	-0.010900	1.251674	0.128412	99
Es	-0.628710	0.107397	-0.668828	99
Es	2.090618	-1.363458	1.103170	99
Es	-0.496678	-1.403215	0.509384	99
41
Properties=species:S:1:pos:R:3:Z:I:1 energy=-359.86742072342224 field_type=dipole dipole="0.000000 0.000000 0.000000" charge=0
O	-2.045716	0.139619	-0.592055	8
C	-0.628496	0.107389	-0.668895	6
C	-0.011066	1.251769	0.128375	6
N	1.222114	0.711319	0.611515	7
C	1.215414	-0.664471	0.624345	6
O	2.090864	-1.363672	1.103305	8
C	-0.061596	-1.148981	-0.009735	6
H	-2.384976	-0.631691	-1.079585	1
H	-0.322486	0.164869	-1.720055	1
H	-0.627956	1.548309	0.983305	1
H	0.186694	2.132088	-0.489365	1
H	1.943094	1.226639	1.099445	1
H	0.150264	-1.923052	-0.752115	1
H	-0.726156	-1.550131	0.761515	1
Es	-0.329415	0.695727	-0.269477	99
Es	0.700512	0.965929	0.425342	99
Es	-2.045510	0.139324	-0.592176	99
Es	-0.628706	0.107399	-0.668827	99
Es	-0.496672	-1.403225	0.509389	99
Es	1.140549	0.204882	0.783759	99
Es	-2.111744	0.092446	-0.296571	99
Es	1.677942	-1.131479	1.160996	99
Es	1.915199	-1.133359	0.722449	99
Es	1.221909	0.711196	0.611813	99
Es	2.319001	-1.186096	1.225614	99
Es	2.031708	-1.666277	1.072295	99
Es	1.215371	-0.664307	0.624309	99
Es	-0.408610	0.144069	-1.389581	99
Es	0.120859	1.852793	-0.293947	99
Es	-1.508192	0.109579	-0.637076	99
Es	-0.010900	1.251674	0.128413	99
Es	1.348009	0.498595	0.356692	99
Es	-2.205054	-0.282301	-0.859643	99
Es	-2.138673	0.388871	-0.746664	99
Es	-0.438839	1.447859	0.705953	99
Es	0.082333	-1.667232	-0.506097	99
Es	2.090623	-1.363434	1.103177	99
Es	1.628448	1.024609	0.910328	99
Es	-0.354491	-0.540554	-0.342605	99
Es	-0.061554	-1.148938	-0.009729	99
Es	0.574732	-0.916542	0.295818	99
41
Properties=species:S:1:pos:R:3:Z:I:1 energy=-359.86742072342224 field_type=dipole dipole="0.000000 0.000000 0.000000" charge=0
O	-2.045716	0.139619	-0.592055	8
C	-0.628496	0.107389	-0.668895	6
C	-0.011066	1.251769	0.128375	6
N	1.222114	0.711319	0.611515	7
C	1.215414	-0.664471	0.624345	6
O	2.090864	-1.363672	1.103305	8
C	-0.061596	-1.148981	-0.009735	6
H	-2.384976	-0.631691	-1.079585	1
H	-0.322486	0.164869	-1.720055	1
H	-0.627956	1.548309	0.983305	1
H	0.186694	2.132088	-0.489365	1
H	1.943094	1.226639	1.099445	1
H	0.150264	-1.923052	-0.752115	1
H	-0.726156	-1.550131	0.761515	1
Es	0.082399	-1.667238	-0.506086	99
Es	2.320991	-1.190747	1.225464	99
Es	-0.496635	-1.403264	0.509400	99
Es	2.090573	-1.363522	1.103146	99
Es	-0.628710	0.107396	-0.668829	99
Es	-2.141571	0.391789	-0.742777	99
Es	-0.010900	1.251673	0.128412	99
Es	-0.354516	-0.540620	-0.342606	99
Es	-2.205217	-0.281680	-0.860691	99
Es	-2.045495	0.139336	-0.592202	99
Es	2.027069	-1.665608	1.071577	99
Es	1.347675	0.503038	0.356909	99
Es	-0.438758	1.448013	0.705933	99
Es	1.142083	0.201175	0.780992	99
Es	1.627582	1.024177	0.911613	99
Es	0.574635	-0.916489	0.295810	99
Es	-0.329570	0.695776	-0.269438	99
Es	1.915575	-1.131792	0.721839	99
Es	-1.508209	0.110256	-0.638176	99
Es	-0.408621	0.144079	-1.389517	99
Es	1.680263	-1.128946	1.162502	99
Es	-2.108680	0.088191	-0.298325	99
Es	0.120865	1.852689	-0.293997	99
Es	1.215371	-0.664310	0.624310	99
Es	0.700291	0.965610	0.426588	99
Es	1.221898	0.711169	0.611832	99
Es	-0.061552	-1.148939	-0.009730	99
41
Properties=species:S:1:pos:R:3:Z:I:1 energy=-359.86742072342224 field_type=dipole dipole="0.000000 0.000000 0.000000" charge=0
O	-2.045716	0.139619	-0.592055	8
C	-0.628496	0.107389	-0.668895	6
C	-0.011066	1.251769	0.128375	6
N	1.222114	0.711319	0.611515	7
C	1.215414	-0.664471	0.624345	6
O	2.090864	-1.363672	1.103305	8
C	-0.061596	-1.148981	-0.009735	6
H	-2.384976	-0.631691	-1.079585	1
H	-0.322486	0.164869	-1.720055	1
H	-0.627956	1.548309	0.983305	1
H	0.186694	2.132088	-0.489365	1
H	1.943094	1.226639	1.099445	1
H	0.150264	-1.923052	-0.752115	1
H	-0.726156	-1.550131	0.761515	1
Es	1.221912	0.711191	0.611804	99
Es	0.700708	0.966088	0.425047	99
Es	2.027306	-1.664344	1.068845	99
Es	1.917747	-1.130717	0.722485	99
Es	-2.139504	0.389292	-0.745174	99
Es	-1.507905	0.110001	-0.637555	99
Es	-0.061553	-1.148942	-0.009728	99
Es	-2.110779	0.091464	-0.297344	99
Es	0.120853	1.852784	-0.293855	99
Es	-0.010900	1.251675	0.128413	99
Es	2.090631	-1.363466	1.103177	99
Es	-0.354514	-0.540562	-0.342571	99
Es	-2.205503	-0.282223	-0.859904	99
Es	1.215370	-0.664309	0.624309	99
Es	1.627803	1.024319	0.911194	99
Es	1.678099	-1.130433	1.161204	99
Es	-0.496564	-1.403213	0.509458	99
Es	1.140415	0.204762	0.783435	99
Es	0.082373	-1.667297	-0.506033	99
Es	-0.438744	1.447903	0.705862	99
Es	2.320738	-1.191598	1.228796	99
Es	-2.045526	0.139359	-0.592212	99
Es	-0.628707	0.107395	-0.668829	99
Es	-0.329549	0.695791	-0.269688	99
Es	1.348637	0.498883	0.356583	99
Es	-0.408631	0.143969	-1.389459	99
Es	0.574622	-0.916562	0.295694	99
41
Properties=species:S:1:pos:R:3:Z:I:1 energy=-359.86742072342224 field_type=dipole dipole="0.000000 0.000000 0.000000" charge=0
O	-2.045716	0.139619	-0.592055	8
C	-0.628496	0.107389	-0.668895	6
C	-0.011066	1.251769	0.128375	6
N	1.222114	0.711319	0.611515	7
C	1.215414	-0.664471	0.624345	6
O	2.090864	-1.363672	1.103305	8
C	-0.061596	-1.148981	-0.009735	6
H	-2.384976	-0.631691	-1.079585	1
H	-0.322486	0.164869	-1.720055	1
H	-0.627956	1.548309	0.983305	1
H	0.186694	2.132088	-0.489365	1
H	1.943094	1.226639	1.099445	1
H	0.150264	-1.923052	-0.752115	1
H	-0.726156	-1.550131	0.761515	1
Es	0.700533	0.965976	0.425750	99
Es	1.215371	-0.664308	0.624308	99
Es	0.574572	-0.916574	0.295759	99
Es	2.320509	-1.191117	1.227425	99
Es	0.120785	1.852768	-0.293876	99
Es	1.678890	-1.130311	1.162018	99
Es	1.221930	0.711209	0.611776	99
Es	1.140884	0.204058	0.782927	99
Es	-0.438722	1.447895	0.705922	99
Es	-0.061551	-1.148938	-0.009730	99
Es	-2.138919	0.388676	-0.745783	99
Es	1.916703	-1.131073	0.721750	99
Es	0.082440	-1.667260	-0.506003	99
Es	-1.507804	0.109907	-0.637012	99
Es	-2.045493	0.139361	-0.592188	99
Es	-0.628705	0.107396	-0.668828	99
Es	-0.329523	0.695761	-0.269651	99
Es	-0.010899	1.251675	0.128412	99
Es	-0.496571	-1.403285	0.509379	99
Es	2.027780	-1.664615	1.070153	99
Es	1.627412	1.024162	0.911516	99
Es	-0.354507	-0.540566	-0.342661	99
Es	-0.408649	0.144023	-1.389394	99
Es	-2.205453	-0.282325	-0.859893	99
Es	1.348791	0.499893	0.356033	99
Es	2.090617	-1.363436	1.103170	99
Es	-2.111583	0.092261	-0.297323	99
41
Properties=species:S:1:pos:R:3:Z:I:1 energy=-359.86742072342224 field_type=dipole dipole="0.000000 0.000000 0.000000" charge=0
O	-2.045716	0.139619	-0.592055	8
C	-0.628496	0.107389	-0.668895	6
C	-0.011066	1.251769	0.128375	6
N	1.222114	0.711319	0.611515	7
C	1.215414	-0.664471	0.624345	6
O	2.090864	-1.363672	1.103305	8
C	-0.061596	-1.148981	-0.009735	6
H	-2.384976	-0.631691	-1.079585	1
H	-0.322486	0.164869	-1.720055	1
H	-0.627956	1.548309	0.983305	1
H	0.186694	2.132088	-0.489365	1
H	1.943094	1.226639	1.099445	1
H	0.150264	-1.923052	-0.752115	1
H	-0.726156	-1.550131	0.761515	1
Es	0.082624	-1.667135	-0.506069	99
Es	1.678195	-1.131038	1.161385	99
Es	-0.010901	1.251676	0.128412	99
Es	-2.139631	0.388985	-0.744144	99
Es	1.140875	0.204091	0.783044	99
Es	-1.507750	0.110485	-0.638098	99
Es	2.090543	-1.363514	1.103111	99
Es	-0.408690	0.143934	-1.389357	99
Es	1.348527	0.499825	0.356069	99
Es	0.700487	0.966030	0.426063	99
Es	1.916606	-1.131849	0.721660	99
Es	-2.045525	0.139398	-0.592241	99
Es	-0.329550	0.695886	-0.269826	99
Es	2.319548	-1.189289	1.227299	99
Es	1.221905	0.711177	0.611822	99
Es	-2.205610	-0.281682	-0.860700	99
Es	-0.496673	-1.403450	0.509253	99
Es	-0.438710	1.447803	0.705807	99
Es	0.574451	-0.916586	0.295889	99
Es	2.029631	-1.664837	1.071031	99
Es	1.215369	-0.664308	0.624310	99
Es	-0.628698	0.107397	-0.668828	99
Es	-0.354513	-0.540569	-0.342581	99
Es	-0.061551	-1.148938	-0.009730	99
Es	-2.110699	0.090724	-0.297048	99
Es	1.627736	1.024120	0.911163	99
Es	0.120838	1.852876	-0.293741	99
41
Properties=species:S:1:pos:R:3:Z:I:1 energy=-359.86742072342224 field_type=dipole dipole="0.000000 0.000000 0.000000" charge=0
O	-2.045716	0.139619	-0.592055	8
C	-0.628496	0.107389	-0.668895	6
C	-0.011066	1.251769	0.128375	6
N	1.222114	0.711319	0.611515	7
C	1.215414	-0.664471	0.624345	6
O	2.090864	-1.363672	1.103305	8
C	-0.061596	-1.148981	-0.009735	6
H	-2.384976	-0.631691	-1.079585	1
H	-0.322486	0.164869	-1.720055	1
H	-0.627956	1.548309	0.983305	1
H	0.186694	2.132088	-0.489365	1
H	1.943094	1.226639	1.099445	1
H	0.150264	-1.923052	-0.752115	1
H	-0.726156	-1.550131	0.761515	1
Es	-1.507477	0.110870	-0.638391	99
Es	0.120866	1.852790	-0.293797	99
Es	-0.354547	-0.540555	-0.342694	99
Es	2.090661	-1.363499	1.103192	99
Es	2.320636	-1.190054	1.225556	99
Es	1.915532	-1.132362	0.721389	99
Es	-0.061553	-1.148940	-0.009730	99
Es	0.082425	-1.667251	-0.505935	99
Es	-0.010902	1.251676	0.128413	99
Es	-0.408695	0.143970	-1.389333	99
Es	1.215368	-0.664308	0.624309	99
Es	-2.140904	0.390109	-0.742103	99
Es	-2.108996	0.089309	-0.298671	99
Es	0.700519	0.965979	0.425614	99
Es	-0.496516	-1.403318	0.509386	99
Es	-0.438760	1.447887	0.705821	99
Es	1.221950	0.711249	0.611733	99
Es	0.574563	-0.916635	0.295698	99
Es	-0.329513	0.695854	-0.269813	99
Es	1.679393	-1.129742	1.162506	99
Es	1.626593	1.023879	0.912266	99
Es	-2.206325	-0.281824	-0.860848	99
Es	1.140868	0.204225	0.782890	99
Es	-0.628704	0.107396	-0.668828	99
Es	2.028285	-1.664855	1.071851	99
Es	1.349621	0.499928	0.355675	99
Es	-2.045555	0.139432	-0.592201	99
41
Properties=species:S:1:pos:R:3:Z:I:1 energy=-359.86742072342224 field_type=dipole dipole="0.000000 0.000000 0.000000" charge=0
O	-2.045716	0.139619	-0.592055	8
C	-0.628496	0.107389	-0.668895	6
C	-0.011066	1.251769	0.128375	6
N	1.222114	0.711319	0.611515	7
C	1.215414	-0.664471	0.624345	6
O	2.090864	-1.363672	1.103305	8
C	-0.061596	-1.148981	-0.009735	6
H	-2.384976	-0.631691	-1.079585	1
H	-0.322486	0.164869	-1.720055	1
H	-0.627956	1.548309	0.983305	1
H	0.186694	2.132088	-0.489365	1
H	1.943094	1.226639	1.099445	1
H	0.150264	-1.923052	-0.752115	1
H	-0.726156	-1.550131	0.761515	1
Es	1.348529	0.501382	0.356287	99
Es	1.221873	0.711118	0.611878	99
Es	1.916525	-1.131323	0.721631	99
Es	-0.408685	0.143991	-1.389220	99
Es	2.319248	-1.189859	1.226660	99
Es	1.627307	1.024114	0.911728	99
Es	2.090589	-1.363452	1.103155	99
Es	0.120944	1.852713	-0.293723	99
Es	1.141381	0.202834	0.782128	99
Es	-0.354539	-0.540516	-0.342709	99
Es	2.029548	-1.665229	1.070966	99
Es	-0.496484	-1.403349	0.509352	99
Es	1.678611	-1.130608	1.162053	99
Es	-2.045533	0.139389	-0.592213	99
Es	0.082462	-1.667247	-0.505996	99
Es	-0.628703	0.107396	-0.668828	99
Es	1.215371	-0.664310	0.624308	99
Es	-1.507417	0.110506	-0.637563	99
Es	-0.061551	-1.148938	-0.009730	99
Es	-2.139244	0.388180	-0.744778	99
Es	-2.111181	0.092094	-0.297680	99
Es	-0.010902	1.251677	0.128413	99
Es	-0.329509	0.695983	-0.269878	99
Es	0.574479	-0.916706	0.295704	99
Es	-0.438827	1.447951	0.705812	99
Es	-2.205933	-0.282318	-0.860052	99
Es	0.700477	0.965739	0.426249	99
41
Properties=species:S:1:pos:R:3:Z:I:1 energy=-359.86742072342224 field_type=dipole dipole="0.000000 0.000000 0.000000" charge=0
O	-2.045716	0.139619	-0.592055	8
C	-0.628496	0.107389	-0.668895	6
C	-0.011066	1.251769	0.128375	6
N	1.222114	0.711319	0.611515	7
C	1.215414	-0.664471	0.624345	6
O	2.090864	-1.363672	1.103305	8
C	-0.061596	-1.148981	-0.009735	6
H	-2.384976	-0.631691	-1.079585	1
H	-0.322486	0.164869	-1.720055	1
H	-0.627956	1.548309	0.983305	1
H	0.186694	2.132088	-0.489365	1
H	1.943094	1.226639	1.099445	1
H	0.150264	-1.923052	-0.752115	1
H	-0.726156	-1.550131	0.761515	1
Es	-0.354517	-0.540521	-0.342721	99
Es	-0.329555	0.695827	-0.269850	99
Es	0.700508	0.966108	0.425919	99
Es	-2.045501	0.139363	-0.592253	99
Es	1.215369	-0.664309	0.624309	99
Es	-0.010903	1.251675	0.128411	99
Es	1.140541	0.205294	0.783561	99
Es	-0.438727	1.447903	0.705773	99
Es	-1.507162	0.110730	-0.637635	99
Es	2.318971	-1.189836	1.225498	99
Es	-0.496480	-1.403345	0.509377	99
Es	-2.206235	-0.281701	-0.861065	99
Es	2.090607	-1.363376	1.103158	99
Es	-2.110674	0.090684	-0.298316	99
Es	-2.139742	0.388791	-0.743008	99
Es	1.916214	-1.131903	0.720990	99
Es	1.221941	0.711153	0.611786	99
Es	0.120837	1.852769	-0.293745	99
Es	1.349295	0.498777	0.355437	99
Es	-0.061552	-1.148942	-0.009734	99
Es	2.029195	-1.665742	1.072556	99
Es	-0.628702	0.107396	-0.668828	99
Es	0.574427	-0.916736	0.295666	99
Es	1.627312	1.023981	0.911593	99
Es	1.679561	-1.129580	1.162252	99
Es	-0.408683	0.144011	-1.389221	99
Es	0.082489	-1.667262	-0.505956	99
41
Properties=species:S:1:pos:R:3:Z:I:1 energy=-359.86742072342224 field_type=dipole dipole="0.000000 0.000000 0.000000" charge=0
O	-2.045716	0.139619	-0.592055	8
C	-0.628496	0.107389	-0.668895	6
C	-0.011066	1.251769	0.128375	6
N	1.222114	0.711319	0.611515	7
C	1.215414	-0.664471	0.624345	6
O	2.090864	-1.363672	1.103305	8
C	-0.061596	-1.148981	-0.009735	6
H	-2.384976	-0.631691	-1.079585	1
H	-0.322486	0.164869	-1.720055	1
H	-0.627956	1.548309	0.983305	1
H	0.186694	2.132088	-0.489365	1
H	1.943094	1.226639	1.099445	1
H	0.150264	-1.923052	-0.752115	1
H	-0.726156	-1.550131	0.761515	1
Es	-0.496446	-1.403342	0.509346	99
Es	-0.408719	0.143957	-1.389178	99
Es	2.319140	-1.189751	1.227165	99
Es	1.348976	0.499760	0.355358	99
Es	1.221917	0.711204	0.611791	99
Es	2.090723	-1.363584	1.103241	99
Es	-0.354519	-0.540463	-0.342723	99
Es	0.082550	-1.667305	-0.505971	99
Es	0.700343	0.966015	0.426712	99
Es	1.140995	0.204411	0.783106	99
Es	1.917010	-1.131658	0.721462	99
Es	-2.140333	0.389328	-0.742645	99
Es	1.677986	-1.130804	1.161653	99
Es	-1.507040	0.110915	-0.637286	99
Es	-0.061552	-1.148941	-0.009734	99
Es	0.120845	1.852752	-0.293703	99
Es	1.215367	-0.664308	0.624311	99
Es	-0.438710	1.447927	0.705730	99
Es	0.574318	-0.916804	0.295690	99
Es	-0.010901	1.251677	0.128413	99
Es	1.627390	1.023942	0.911425	99
Es	-2.110160	0.090239	-0.299266	99
Es	-2.206287	-0.282004	-0.860871	99
Es	-0.329544	0.695838	-0.269944	99
Es	2.029698	-1.664609	1.070897	99
Es	-2.045509	0.139425	-0.592197	99
Es	-0.628701	0.107396	-0.668828	99
41
Properties=species:S:1:pos:R:3:Z:I:1 energy=-359.86742072342224 field_type=dipole dipole="0.000000 0.000000 0.000000" charge=0
O	-2.045716	0.139619	-0.592055	8
C	-0.628496	0.107389	-0.668895	6
C	-0.011066	1.251769	0.128375	6
N	1.222114	0.711319	0.611515	7
C	1.215414	-0.664471	0.624345	6
O	2.090864	-1.363672	1.103305	8
C	-0.061596	-1.148981	-0.009735	6
H	-2.384976	-0.631691	-1.079585	1
H	-0.322486	0.164869	-1.720055	1
H	-0.627956	1.548309	0.983305	1
H	0.186694	2.132088	-0.489365	1
H	1.943094	1.226639	1.099445	1
H	0.150264	-1.923052	-0.752115	1
H	-0.726156	-1.550131	0.761515	1
Es	-2.110534	0.090953	-0.298506	99
Es	0.082373	-1.667296	-0.505844	99
Es	0.574528	-0.916834	0.295575	99
Es	-0.329441	0.695866	-0.269923	99
Es	-1.506985	0.110869	-0.637827	99
Es	-2.206563	-0.281807	-0.860888	99
Es	-0.438778	1.447940	0.705714	99
Es	-2.139760	0.388450	-0.742717	99
Es	1.678575	-1.129774	1.161756	99
Es	-0.628701	0.107396	-0.668830	99
Es	0.700947	0.966497	0.425549	99
Es	-2.045502	0.139424	-0.592354	99
Es	1.138993	0.208669	0.786236	99
Es	2.319275	-1.190214	1.226517	99
Es	1.221902	0.711152	0.611821	99
Es	1.627875	1.024143	0.910476	99
Es	2.029033	-1.664707	1.072101	99
Es	0.120846	1.852706	-0.293715	99
Es	1.349873	0.494924	0.354369	99
Es	-0.010903	1.251677	0.128413	99
Es	1.917048	-1.132239	0.720867	99
Es	2.090641	-1.363444	1.103184	99
Es	-0.408748	0.143967	-1.389109	99
Es	-0.061551	-1.148938	-0.009729	99
Es	1.215372	-0.664311	0.624310	99
Es	-0.496387	-1.403312	0.509380	99
Es	-0.354593	-0.540546	-0.342872	99
41
Properties=species:S:1:pos:R:3:Z:I:1 energy=-359.86742072342224 field_type=dipole dipole="0.000000 0.000000 0.000000" charge=0
O	-2.045716	0.139619	-0.592055	8
C	-0.628496	0.107389	-0.668895	6
C	-0.011066	1.251769	0.128375	6
N	1.222114	0.711319	0.611515	7
C	1.215414	-0.664471	0.624345	6
O	2.090864	-1.363672	1.103305	8
C	-0.061596	-1.148981	-0.009735	6
H	-2.384976	-0.631691	-1.079585	1
H	-0.322486	0.164869	-1.720055	1
H	-0.627956	1.548309	0.983305	1
H	0.186694	2.132088	-0.489365	1
H	1.943094	1.226639	1.099445	1
H	0.150264	-1.923052	-0.752115	1
H	-0.726156	-1.550131	0.761515	1
Es	2.318286	-1.188349	1.226327	99
Es	-0.354576	-0.540522	-0.342860	99
Es	1.215369	-0.664309	0.624308	99
Es	1.627915	1.024206	0.910347	99
Es	-0.329559	0.695850	-0.269985	99
Es	1.677810	-1.130717	1.161358	99
Es	-0.010903	1.251677	0.128412	99
Es	0.574408	-0.916848	0.295554	99
Es	0.082473	-1.667322	-0.505852	99
Es	1.221890	0.711112	0.611835	99
Es	0.700806	0.966353	0.425915	99
Es	-0.408748	0.143975	-1.389081	99
Es	-2.139935	0.388447	-0.743033	99
Es	-0.496364	-1.403335	0.509383	99
Es	2.090641	-1.363482	1.103178	99
Es	1.349771	0.495182	0.354228	99
Es	1.916808	-1.132816	0.720917	99
Es	-0.438676	1.447935	0.705705	99
Es	-2.206563	-0.282203	-0.860429	99
Es	-2.110662	0.091365	-0.299317	99
Es	2.031037	-1.664989	1.072644	99
Es	0.120815	1.852737	-0.293654	99
Es	-1.506690	0.110925	-0.637241	99
Es	-2.045506	0.139353	-0.592282	99
Es	-0.628700	0.107396	-0.668829	99
Es	1.139244	0.208525	0.786136	99
Es	-0.061551	-1.148938	-0.009730	99
41
Properties=species:S:1:pos:R:3:Z:I:1 energy=-359.86742072342224 field_type=dipole dipole="0.000000 0.000000 0.000000" charge=0
O	-2.045716	0.139619	-0.592055	8
C	-0.628496	0.107389	-0.668895	6
C	-0.011066	1.251769	0.128375	6
N	1.222114	0.711319	0.611515	7
C	1.215414	-0.664471	0.624345	6
O	2.090864	-1.363672	1.103305	8
C	-0.061596	-1.148981	-0.009735	6
H	-2.384976	-0.631691	-1.079585	1
H	-0.322486	0.164869	-1.720055	1
H	-0.627956	1.548309	0.983305	1
H	0.186694	2.132088	-0.489365	1
H	1.943094	1.226639	1.099445	1
H	0.150264	-1.923052	-0.752115	1
H	-0.726156	-1.550131	0.761515	1
Es	-0.496352	-1.403368	0.509436	99
Es	2.090645	-1.363483	1.103181	99
Es	-2.110016	0.091497	-0.298656	99
Es	1.221922	0.711191	0.611787	99
Es	1.350303	0.494512	0.353345	99
Es	1.916989	-1.133435	0.720928	99
Es	-0.438720	1.447936	0.705708	99
Es	-0.628698	0.107395	-0.668828	99
Es	2.028651	-1.664901	1.073279	99
Es	-0.061550	-1.148937	-0.009730	99
Es	0.700770	0.966325	0.426250	99
Es	1.215369	-0.664308	0.624310	99
Es	1.139061	0.209284	0.786464	99
Es	-0.010905	1.251678	0.128410	99
Es	0.082481	-1.667293	-0.505835	99
Es	1.627607	1.024077	0.910629	99
Es	-1.506890	0.111190	-0.638411	99
Es	0.120818	1.852697	-0.293585	99
Es	2.319580	-1.190032	1.225356	99
Es	-0.354558	-0.540499	-0.342905	99
Es	-0.408776	0.143979	-1.389031	99
Es	-2.206633	-0.282378	-0.859819	99
Es	-2.140330	0.388217	-0.743163	99
Es	-0.329504	0.695874	-0.270087	99
Es	0.574338	-0.916918	0.295500	99
Es	1.678744	-1.128453	1.161670	99
Es	-2.045510	0.139364	-0.592247	99
41
Properties=species:S:1:pos:R:3:Z:I:1 energy=-359.86742072342224 field_type=dipole dipole="0.000000 0.000000 0.000000" charge=0
O	-2.045716	0.139619	-0.592055	8
C	-0.628496	0.107389	-0.668895	6
C	-0.011066	1.251769	0.128375	6
N	1.222114	0.711319	0.611515	7
C	1.215414	-0.664471	0.624345	6
O	2.090864	-1.363672	1.103305	8
C	-0.061596	-1.148981	-0.009735	6
H	-2.384976	-0.631691	-1.079585	1
H	-0.322486	0.164869	-1.720055	1
H	-0.627956	1.548309	0.983305	1
H	0.186694	2.132088	-0.489365	1
H	1.943094	1.226639	1.099445	1
H	0.150264	-1.923052	-0.752115	1
H	-0.726156	-1.550131	0.761515	1
Es	1.627185	1.023865	0.911238	99
Es	-0.496306	-1.403355	0.509387	99
Es	2.028522	-1.664162	1.070952	99
Es	0.120833	1.852723	-0.293605	99
Es	2.090618	-1.363474	1.103168	99
Es	2.320379	-1.190911	1.226372	99
Es	-2.206762	-0.282997	-0.859130	99
Es	-0.354573	-0.540517	-0.342930	99
Es	0.082481	-1.667325	-0.505818	99
Es	-2.045481	0.139345	-0.592264	99
Es	-0.408783	0.143994	-1.388982	99
Es	-0.438625	1.447977	0.705647	99
Es	1.916452	-1.131862	0.721512	99
Es	1.349859	0.497729	0.353963	99
Es	-0.329619	0.695853	-0.270047	99
Es	-1.506645	0.110428	-0.636693	99
Es	1.215368	-0.664309	0.624308	99
Es	0.574336	-0.916904	0.295514	99
Es	1.221902	0.711168	0.611810	99
Es	-0.061551	-1.148937	-0.009731	99
Es	-0.628702	0.107397	-0.668828	99
Es	-2.138876	0.387340	-0.745099	99
Es	1.140302	0.206507	0.784573	99
Es	-0.010899	1.251675	0.128413	99
Es	-2.111631	0.093743	-0.299137	99
Es	1.678605	-1.129895	1.162394	99
Es	0.700448	0.966118	0.426967	99
41
Properties=species:S:1:pos:R:3:Z:I:1 energy=-359.86742072342224 field_type=dipole dipole="0.000000 0.000000 0.000000" charge=0
O	-2.045716	0.139619	-0.592055	8
C	-0.628496	0.107389	-0.668895	6
C	-0.011066	1.251769	0.128375	6
N	1.222114	0.711319	0.611515	7
C	1.215414	-0.664471	0.624345	6
O	2.090864	-1.363672	1.103305	8
C	-0.061596	-1.148981	-0.009735	6
H	-2.384976	-0.631691	-1.079585	1
H	-0.322486	0.164869	-1.720055	1
H	-0.627956	1.548309	0.983305	1
H	0.186694	2.132088	-0.489365	1
H	1.943094	1.226639	1.099445	1
H	0.150264	-1.923052	-0.752115	1
H	-0.726156	-1.550131	0.761515	1
Es	1.916808	-1.132098	0.720484	99
Es	-0.628700	0.107396	-0.668828	99
Es	1.627175	1.023790	0.911264	99
Es	1.140147	0.206797	0.784746	99
Es	-2.206829	-0.283695	-0.858279	99
Es	2.090630	-1.363471	1.103176	99
Es	-0.329590	0.695844	-0.270107	99
Es	-1.506437	0.110243	-0.635925	99
Es	2.029207	-1.663942	1.071938	99
Es	0.120815	1.852686	-0.293599	99
Es	0.574259	-0.916982	0.295543	99
Es	1.215367	-0.664309	0.624308	99
Es	0.082503	-1.667410	-0.505756	99
Es	-0.408780	0.143961	-1.388943	99
Es	-0.010905	1.251675	0.128409	99
Es	1.678508	-1.130261	1.162088	99
Es	-2.113193	0.096445	-0.298878	99
Es	-0.438642	1.447997	0.705619	99
Es	-0.496302	-1.403282	0.509361	99
Es	2.319440	-1.190492	1.226674	99
Es	1.221902	0.711158	0.611817	99
Es	-2.045553	0.139431	-0.592242	99
Es	-0.061551	-1.148938	-0.009731	99
Es	0.700515	0.966218	0.427073	99
Es	1.349985	0.497467	0.353737	99
Es	-0.354530	-0.540465	-0.342985	99
Es	-2.137416	0.385448	-0.747009	99
41
Properties=species:S:1:pos:R:3:Z:I:1 energy=-359.86742072342224 field_type=dipole dipole="0.000000 0.000000 0.000000" charge=0
O	-2.045716	0.139619	-0.592055	8
C	-0.628496	0.107389	-0.668895	6
C	-0.011066	1.251769	0.128375	6
N	1.222114	0.711319	0.611515	7
C	1.215414	-0.664471	0.624345	6
O	2.090864	-1.363672	1.103305	8
C	-0.061596	-1.148981	-0.009735	6
H	-2.384976	-0.631691	-1.079585	1
H	-0.322486	0.164869	-1.720055	1
H	-0.627956	1.548309	0.983305	1
H	0.186694	2.132088	-0.489365	1
H	1.943094	1.226639	1.099445	1
H	0.150264	-1.923052	-0.752115	1
H	-0.726156	-1.550131	0.761515	1
Es	1.349991	0.496333	0.353554	99
Es	-2.045581	0.139447	-0.592165	99
Es	1.221933	0.711202	0.611765	99
Es	-0.061551	-1.148937	-0.009731	99
Es	1.215369	-0.664307	0.624305	99
Es	-0.408879	0.143994	-1.388866	99
Es	-0.496257	-1.403426	0.509330	99
Es	0.574237	-0.916978	0.295491	99
Es	0.082593	-1.667317	-0.505733	99
Es	-2.138929	0.387042	-0.744331	99
Es	1.916254	-1.130352	0.721569	99
Es	1.627408	1.023938	0.910724	99
Es	0.700464	0.966176	0.426996	99
Es	1.678790	-1.130887	1.163064	99
Es	-1.506524	0.110834	-0.637131	99
Es	-0.329621	0.695893	-0.270226	99
Es	-2.207039	-0.282768	-0.859559	99
Es	-2.111347	0.093356	-0.299114	99
Es	1.139913	0.207729	0.785557	99
Es	-0.628703	0.107396	-0.668829	99
Es	0.120838	1.852760	-0.293479	99
Es	2.028877	-1.664020	1.069732	99
Es	-0.010905	1.251677	0.128410	99
Es	2.320067	-1.191524	1.226897	99
Es	-0.354597	-0.540531	-0.343074	99
Es	2.090588	-1.363467	1.103155	99
Es	-0.438551	1.447950	0.705640	99
41
Properties=species:S:1:pos:R:3:Z:I:1 energy=-359.86742072342224 field_type=dipole dipole="0.000000 0.000000 0.000000" charge=0
O	-2.045716	0.139619	-0.592055	8
C	-0.628496	0.107389	-0.668895	6
C	-0.011066	1.251769	0.128375	6
N	1.222114	0.711319	0.611515	7
C	1.215414	-0.664471	0.624345	6
O	2.090864	-1.363672	1.103305	8
C	-0.061596	-1.148981	-0.009735	6
H	-2.384976	-0.631691	-1.079585	1
H	-0.322486	0.164869	-1.720055	1
H	-0.627956	1.548309	0.983305	1
H	0.186694	2.132088	-0.489365	1
H	1.943094	1.226639	1.099445	1
H	0.150264	-1.923052	-0.752115	1
H	-0.726156	-1.550131	0.761515	1
Es	-0.354657	-0.540534	-0.342961	99
Es	1.627309	1.023802	0.911182	99
Es	0.120819	1.852718	-0.293490	99
Es	0.082459	-1.667372	-0.505806	99
Es	-0.010903	1.251678	0.128412	99
Es	-0.438628	1.447950	0.705598	99
Es	-2.207203	-0.283051	-0.859197	99
Es	-0.628697	0.107395	-0.668828	99
Es	1.679252	-1.129425	1.162945	99
Es	-0.408845	0.143977	-1.388873	99
Es	0.700409	0.966286	0.426866	99
Es	-2.138502	0.386235	-0.744820	99
Es	2.320900	-1.192611	1.226601	99
Es	1.349318	0.499126	0.354940	99
Es	-0.496159	-1.403359	0.509439	99
Es	-2.045522	0.139349	-0.592239	99
Es	1.221874	0.711081	0.611878	99
Es	-0.329546	0.695841	-0.270219	99
Es	1.215369	-0.664307	0.624307	99
Es	0.574238	-0.916974	0.295408	99
Es	-2.111865	0.094464	-0.299026	99
Es	2.090633	-1.363481	1.103178	99
Es	1.916635	-1.131286	0.720873	99
Es	-1.506335	0.110922	-0.637042	99
Es	1.140866	0.205162	0.783811	99
Es	-0.061550	-1.148936	-0.009732	99
Es	2.027166	-1.663439	1.070748	99
41
Properties=species:S:1:pos:R:3:Z:I:1 energy=-359.86742072342224 field_type=dipole dipole="0.000000 0.000000 0.000000" charge=0
O	-2.045716	0.139619	-0.592055	8
C	-0.628496	0.107389	-0.668895	6
C	-0.011066	1.251769	0.128375	6
N	1.222114	0.711319	0.611515	7
C	1.215414	-0.664471	0.624345	6
O	2.090864	-1.363672	1.103305	8
C	-0.061596	-1.148981	-0.009735	6
H	-2.384976	-0.631691	-1.079585	1
H	-0.322486	0.164869	-1.720055	1
H	-0.627956	1.548309	0.983305	1
H	0.186694	2.132088	-0.489365	1
H	1.943094	1.226639	1.099445	1
H	0.150264	-1.923052	-0.752115	1
H	-0.726156	-1.550131	0.761515	1
Es	2.090599	-1.363446	1.103162	99
Es	-2.140750	0.388147	-0.741472	99
Es	-2.045500	0.139349	-0.592202	99
Es	-1.506333	0.111780	-0.638311	99
Es	-0.628696	0.107396	-0.668828	99
Es	2.030967	-1.663987	1.070810	99
Es	1.140604	0.205972	0.784210	99
Es	1.349893	0.498537	0.353918	99
Es	1.215368	-0.664310	0.624309	99
Es	1.221895	0.711063	0.611825	99
Es	0.082515	-1.667407	-0.505743	99
Es	-0.438567	1.447966	0.705524	99
Es	2.318568	-1.189638	1.227460	99
Es	1.677564	-1.131803	1.161893	99
Es	0.120806	1.852741	-0.293548	99
Es	-0.061551	-1.148936	-0.009731	99
Es	0.574197	-0.917048	0.295393	99
Es	-0.354590	-0.540485	-0.343005	99
Es	1.627014	1.023640	0.911416	99
Es	1.916879	-1.131310	0.721036	99
Es	-2.207156	-0.282126	-0.860570	99
Es	-0.408826	0.143940	-1.388817	99
Es	-0.329629	0.695888	-0.270171	99
Es	0.700377	0.966225	0.427407	99
Es	-2.109704	0.090725	-0.299835	99
Es	-0.010905	1.251678	0.128411	99
Es	-0.496201	-1.403339	0.509410	99
41
Properties=species:S:1:pos:R:3:Z:I:1 energy=-359.86742072342224 field_type=dipole dipole="0.000000 0.000000 0.000000" charge=0
O	-2.045716	0.139619	-0.592055	8
C	-0.628496	0.107389	-0.668895	6
C	-0.011066	1.251769	0.128375	6
N	1.222114	0.711319	0.611515	7
C	1.215414	-0.664471	0.624345	6
O	2.090864	-1.363672	1.103305	8
C	-0.061596	-1.148981	-0.009735	6
H	-2.384976	-0.631691	-1.079585	1
H	-0.322486	0.164869	-1.720055	1
H	-0.627956	1.548309	0.983305	1
H	0.186694	2.132088	-0.489365	1
H	1.943094	1.226639	1.099445	1
H	0.150264	-1.923052	-0.752115	1
H	-0.726156	-1.550131	0.761515	1
Es	1.915346	-1.134740	0.720367	99
Es	-2.207451	-0.282256	-0.860608	99
Es	0.574180	-0.917101	0.295320	99
Es	1.626411	1.023385	0.912144	99
Es	-0.408841	0.143953	-1.388799	99
Es	-0.628692	0.107396	-0.668826	99
Es	1.350277	0.499453	0.353629	99
Es	-2.110875	0.092181	-0.299653	99
Es	0.082512	-1.667371	-0.505741	99
Es	0.700486	0.966234	0.427585	99
Es	-2.045522	0.139382	-0.592204	99
Es	-2.139394	0.387181	-0.742438	99
Es	2.034042	-1.665229	1.075147	99
Es	0.120798	1.852665	-0.293535	99
Es	1.677427	-1.130932	1.162040	99
Es	-0.329677	0.695832	-0.270190	99
Es	-0.354674	-0.540428	-0.343005	99
Es	-0.061550	-1.148937	-0.009732	99
Es	-0.010905	1.251678	0.128411	99
Es	1.215368	-0.664308	0.624305	99
Es	-1.506218	0.111393	-0.637464	99
Es	2.317069	-1.185732	1.223593	99
Es	2.090696	-1.363532	1.103204	99
Es	-0.438528	1.448050	0.705538	99
Es	-0.496091	-1.403410	0.509442	99
Es	1.221918	0.711134	0.611782	99
Es	1.140725	0.205270	0.783643	99
41
Properties=species:S:1:pos:R:3:Z:I:1 energy=-359.86742072342224 field_type=dipole dipole="0.000000 0.000000 0.000000" charge=0
O	-2.045716	0.139619	-0.592055	8
C	-0.628496	0.107389	-0.668895	6
C	-0.011066	1.251769	0.128375	6
N	1.222114	0.711319	0.611515	7
C	1.215414	-0.664471	0.624345	6
O	2.090864	-1.363672	1.103305	8
C	-0.061596	-1.148981	-0.009735	6
H	-2.384976	-0.631691	-1.079585	1
H	-0.322486	0.164869	-1.720055	1
H	-0.627956	1.548309	0.983305	1
H	0.186694	2.132088	-0.489365	1
H	1.943094	1.226639	1.099445	1
H	0.150264	-1.923052	-0.752115	1
H	-0.726156	-1.550131	0.761515	1
Es	0.574102	-0.917113	0.295331	99
Es	2.319352	-1.190214	1.226990	99
Es	-0.010907	1.251676	0.128412	99
Es	1.350721	0.495648	0.352798	99
Es	1.139454	0.208545	0.785912	99
Es	-2.045543	0.139401	-0.592195	99
Es	-2.111838	0.094471	-0.299373	99
Es	-2.138013	0.386123	-0.744123	99
Es	1.221914	0.711208	0.611787	99
Es	-0.329585	0.695922	-0.270404	99
Es	1.677958	-1.131362	1.162346	99
Es	-0.628693	0.107396	-0.668828	99
Es	0.082629	-1.667289	-0.505714	99
Es	1.916460	-1.131688	0.720710	99
Es	-2.207971	-0.282687	-0.859644	99
Es	0.120790	1.852752	-0.293387	99
Es	2.030232	-1.663382	1.071147	99
Es	2.090619	-1.363468	1.103173	99
Es	-0.061544	-1.148931	-0.009728	99
Es	-0.496171	-1.403511	0.509402	99
Es	1.215365	-0.664310	0.624307	99
Es	0.700727	0.966441	0.427091	99
Es	-0.438597	1.447902	0.705533	99
Es	1.626969	1.023647	0.911237	99
Es	-1.506104	0.110568	-0.637068	99
Es	-0.354637	-0.540443	-0.343016	99
Es	-0.408853	0.143910	-1.388742	99
