42
Properties=species:S:1:pos:R:3:Z:I:1 energy=-339.9524776739398 field_type=dipole dipole="0.000000 0.000000 0.000000" charge=0
O	0.135047	-2.384775	-0.188780	8
C	-0.543452	-1.331145	0.490200	6
C	0.272228	-0.044924	0.398350	6
C	0.420327	0.471605	-1.025140	6
C	0.262118	1.932755	-0.769770	6
N	-0.163882	2.255325	0.407580	7
N	-0.385202	1.086765	1.057220	7
H	-0.419683	-3.179494	-0.099520	1
H	-0.675122	-1.627835	1.536320	1
H	-1.533702	-1.210615	0.036650	1
H	1.271818	-0.199105	0.824490	1
H	-0.366442	0.146235	-1.711880	1
H	1.404957	0.267445	-1.452590	1
H	0.486157	2.667426	-1.555780	1
H	-0.165163	1.150335	2.052650	1
Es	-0.073649	0.599244	0.783384	99
Es	-0.226887	1.128724	1.648779	99
Es	-1.225017	-1.240350	0.178982	99
Es	0.412131	2.428670	-1.303613	99
Es	0.395090	-2.438279	-0.033344	99
Es	0.272127	-0.044833	0.398385	99
Es	-0.137949	-0.688422	0.446618	99
Es	-0.636768	-1.529788	1.216924	99
Es	0.262112	1.932754	-0.769808	99
Es	-0.235325	2.578769	0.578014	99
Es	-0.115180	0.255156	-1.480491	99
Es	-0.135414	-1.999068	0.074182	99
Es	-0.163794	2.254783	0.407391	99
Es	0.315803	2.129466	-0.040199	99
Es	-0.232195	1.652808	0.736937	99
Es	-0.704509	1.056467	1.005326	99
Es	-0.543308	-1.331303	0.490094	99
Es	0.420317	0.471643	-1.025106	99
Es	-0.177512	-2.801311	-0.128839	99
Es	1.082218	0.336159	-1.314781	99
Es	0.956261	-0.153771	0.693605	99
Es	0.132754	-2.309796	-0.486164	99
Es	-0.236728	2.104675	-0.218629	99
Es	-0.384488	1.086932	1.057175	99
Es	0.134714	-2.384791	-0.188603	99
Es	0.344378	0.180544	-0.329144	99
Es	0.352209	1.203814	-0.921913	99
42
Properties=species:S:1:pos:R:3:Z:I:1 energy=-339.9524776739398 field_type=dipole dipole="0.000000 0.000000 0.000000" charge=0
O	0.135047	-2.384775	-0.188780	8
C	-0.543452	-1.331145	0.490200	6
C	0.272228	-0.044924	0.398350	6
C	0.420327	0.471605	-1.025140	6
C	0.262118	1.932755	-0.769770	6
N	-0.163882	2.255325	0.407580	7
N	-0.385202	1.086765	1.057220	7
H	-0.419683	-3.179494	-0.099520	1
H	-0.675122	-1.627835	1.536320	1
H	-1.533702	-1.210615	0.036650	1
H	1.271818	-0.199105	0.824490	1
H	-0.366442	0.146235	-1.711880	1
H	1.404957	0.267445	-1.452590	1
H	0.486157	2.667426	-1.555780	1
H	-0.165163	1.150335	2.052650	1
Es	-0.231757	1.652694	0.737200	99
Es	0.956268	-0.153789	0.693542	99
Es	-1.224885	-1.240317	0.178961	99
Es	0.420317	0.471644	-1.025106	99
Es	-0.237063	2.104844	-0.218794	99
Es	-0.073518	0.599326	0.783413	99
Es	-0.543306	-1.331304	0.490092	99
Es	0.272128	-0.044833	0.398386	99
Es	-0.384491	1.086917	1.057196	99
Es	-0.137973	-0.688405	0.446644	99
Es	0.412099	2.428691	-1.303521	99
Es	0.135264	-2.309815	-0.486276	99
Es	-0.177937	-2.801108	-0.129799	99
Es	0.393565	-2.438733	-0.031509	99
Es	0.352366	1.203720	-0.921965	99
Es	0.134625	-2.384762	-0.188706	99
Es	0.344386	0.180545	-0.329046	99
Es	-0.115147	0.255102	-1.480609	99
Es	-0.135852	-1.998887	0.073506	99
Es	-0.636929	-1.529799	1.216909	99
Es	1.082209	0.336288	-1.314702	99
Es	0.262110	1.932754	-0.769803	99
Es	-0.704642	1.056645	1.005001	99
Es	-0.235006	2.578561	0.578232	99
Es	-0.227194	1.128569	1.648860	99
Es	0.315531	2.129556	-0.040303	99
Es	-0.163776	2.254792	0.407354	99
42
Properties=species:S:1:pos:R:3:Z:I:1 energy=-339.9524776739398 field_type=dipole dipole="0.000000 0.000000 0.000000" charge=0
O	0.135047	-2.384775	-0.188780	8
C	-0.543452	-1.331145	0.490200	6
C	0.272228	-0.044924	0.398350	6
C	0.420327	0.471605	-1.025140	6
C	0.262118	1.932755	-0.769770	6
N	-0.163882	2.255325	0.407580	7
N	-0.385202	1.086765	1.057220	7
H	-0.419683	-3.179494	-0.099520	1
H	-0.675122	-1.627835	1.536320	1
H	-1.533702	-1.210615	0.036650	1
H	1.271818	-0.199105	0.824490	1
H	-0.366442	0.146235	-1.711880	1
H	1.404957	0.267445	-1.452590	1
H	0.486157	2.667426	-1.555780	1
H	-0.165163	1.150335	2.052650	1
Es	-0.543305	-1.331305	0.490093	99
Es	-0.135706	-1.998743	0.073753	99
Es	0.344438	0.180462	-0.329031	99
Es	-0.232069	1.652697	0.736878	99
Es	0.352277	1.203645	-0.922059	99
Es	1.082148	0.336308	-1.314768	99
Es	0.393187	-2.438792	-0.031952	99
Es	-0.703743	1.056696	1.004992	99
Es	-0.384479	1.086952	1.057149	99
Es	-0.235275	2.578744	0.578152	99
Es	0.420317	0.471644	-1.025106	99
Es	0.262110	1.932752	-0.769811	99
Es	-0.227722	1.128601	1.649153	99
Es	-0.163775	2.254758	0.407349	99
Es	-0.177824	-2.801027	-0.129520	99
Es	0.956216	-0.153783	0.693569	99
Es	-0.115116	0.255166	-1.480586	99
Es	-0.073632	0.599104	0.783453	99
Es	0.412060	2.428773	-1.303497	99
Es	-1.224905	-1.240344	0.179005	99
Es	-0.236596	2.104834	-0.218575	99
Es	0.272129	-0.044832	0.398384	99
Es	0.134788	-2.384841	-0.188447	99
Es	-0.636909	-1.529793	1.216873	99
Es	-0.137959	-0.688365	0.446677	99
Es	0.135216	-2.309914	-0.486624	99
Es	0.315524	2.129499	-0.040341	99
42
Properties=species:S:1:pos:R:3:Z:I:1 energy=-339.9524776739398 field_type=dipole dipole="0.000000 0.000000 0.000000" charge=0
O	0.135047	-2.384775	-0.188780	8
C	-0.543452	-1.331145	0.490200	6
C	0.272228	-0.044924	0.398350	6
C	0.420327	0.471605	-1.025140	6
C	0.262118	1.932755	-0.769770	6
N	-0.163882	2.255325	0.407580	7
N	-0.385202	1.086765	1.057220	7
H	-0.419683	-3.179494	-0.099520	1
H	-0.675122	-1.627835	1.536320	1
H	-1.533702	-1.210615	0.036650	1
H	1.271818	-0.199105	0.824490	1
H	-0.366442	0.146235	-1.711880	1
H	1.404957	0.267445	-1.452590	1
H	0.486157	2.667426	-1.555780	1
H	-0.165163	1.150335	2.052650	1
Es	-1.224936	-1.240389	0.178990	99
Es	0.956070	-0.153905	0.693629	99
Es	-0.384533	1.086921	1.057192	99
Es	-0.236744	2.104907	-0.218693	99
Es	-0.177360	-2.801816	-0.129411	99
Es	1.082109	0.336320	-1.314758	99
Es	0.420317	0.471645	-1.025106	99
Es	0.315311	2.129511	-0.040418	99
Es	0.262111	1.932754	-0.769802	99
Es	-0.231715	1.652616	0.737126	99
Es	0.393628	-2.438133	-0.032799	99
Es	0.272128	-0.044833	0.398385	99
Es	-0.115142	0.255160	-1.480608	99
Es	0.134714	-2.384804	-0.188668	99
Es	-0.543307	-1.331302	0.490093	99
Es	-0.163780	2.254750	0.407356	99
Es	-0.703844	1.056967	1.004842	99
Es	-0.227822	1.128551	1.649197	99
Es	0.344607	0.180557	-0.329106	99
Es	0.352372	1.203603	-0.922045	99
Es	-0.138036	-0.688311	0.446591	99
Es	0.134433	-2.309848	-0.485951	99
Es	-0.235008	2.578633	0.578095	99
Es	-0.636905	-1.529703	1.216843	99
Es	-0.073695	0.599005	0.783546	99
Es	-0.135688	-1.998766	0.074098	99
Es	0.412109	2.428806	-1.303459	99
42
Properties=species:S:1:pos:R:3:Z:I:1 energy=-339.9524776739398 field_type=dipole dipole="0.000000 0.000000 0.000000" charge=0
O	0.135047	-2.384775	-0.188780	8
C	-0.543452	-1.331145	0.490200	6
C	0.272228	-0.044924	0.398350	6
C	0.420327	0.471605	-1.025140	6
C	0.262118	1.932755	-0.769770	6
N	-0.163882	2.255325	0.407580	7
N	-0.385202	1.086765	1.057220	7
H	-0.419683	-3.179494	-0.099520	1
H	-0.675122	-1.627835	1.536320	1
H	-1.533702	-1.210615	0.036650	1
H	1.271818	-0.199105	0.824490	1
H	-0.366442	0.146235	-1.711880	1
H	1.404957	0.267445	-1.452590	1
H	0.486157	2.667426	-1.555780	1
H	-0.165163	1.150335	2.052650	1
Es	-0.636992	-1.529773	1.216835	99
Es	0.272129	-0.044832	0.398386	99
Es	0.262109	1.932753	-0.769803	99
Es	-0.073462	0.599226	0.783622	99
Es	-0.543306	-1.331303	0.490093	99
Es	0.315249	2.129522	-0.040450	99
Es	-0.236541	2.104890	-0.218616	99
Es	-0.163781	2.254753	0.407360	99
Es	0.344412	0.180473	-0.329034	99
Es	-0.231940	1.652693	0.737295	99
Es	0.392683	-2.438447	-0.032138	99
Es	1.082135	0.336314	-1.314764	99
Es	-0.177541	-2.801783	-0.129936	99
Es	0.956146	-0.153771	0.693528	99
Es	-1.224840	-1.240317	0.179012	99
Es	-0.115074	0.255189	-1.480601	99
Es	-0.137853	-0.688345	0.446755	99
Es	0.135684	-2.309966	-0.485909	99
Es	0.420316	0.471642	-1.025106	99
Es	0.412094	2.428869	-1.303435	99
Es	-0.235062	2.578609	0.577851	99
Es	0.352389	1.203517	-0.922126	99
Es	-0.384495	1.086929	1.057166	99
Es	0.134767	-2.384795	-0.188613	99
Es	-0.135935	-1.998401	0.073804	99
Es	-0.228324	1.128462	1.649465	99
Es	-0.703572	1.056787	1.004520	99
42
Properties=species:S:1:pos:R:3:Z:I:1 energy=-339.9524776739398 field_type=dipole dipole="0.000000 0.000000 0.000000" charge=0
O	0.135047	-2.384775	-0.188780	8
C	-0.543452	-1.331145	0.490200	6
C	0.272228	-0.044924	0.398350	6
C	0.420327	0.471605	-1.025140	6
C	0.262118	1.932755	-0.769770	6
N	-0.163882	2.255325	0.407580	7
N	-0.385202	1.086765	1.057220	7
H	-0.419683	-3.179494	-0.099520	1
H	-0.675122	-1.627835	1.536320	1
H	-1.533702	-1.210615	0.036650	1
H	1.271818	-0.199105	0.824490	1
H	-0.366442	0.146235	-1.711880	1
H	1.404957	0.267445	-1.452590	1
H	0.486157	2.667426	-1.555780	1
H	-0.165163	1.150335	2.052650	1
Es	-0.115031	0.255223	-1.480567	99
Es	-0.543307	-1.331303	0.490094	99
Es	-0.702868	1.057382	1.004804	99
Es	-0.137898	-0.688288	0.446759	99
Es	-0.073969	0.598606	0.783410	99
Es	-0.234681	2.578479	0.577924	99
Es	-0.231932	1.652667	0.737319	99
Es	-0.236748	2.105064	-0.218742	99
Es	0.394287	-2.437972	-0.034102	99
Es	0.412173	2.428903	-1.303392	99
Es	0.344513	0.180424	-0.329035	99
Es	0.262120	1.932753	-0.769801	99
Es	-0.163778	2.254756	0.407354	99
Es	-0.177015	-2.802097	-0.129177	99
Es	0.956063	-0.153812	0.693537	99
Es	0.134802	-2.384787	-0.188661	99
Es	-0.636957	-1.529745	1.216783	99
Es	0.272130	-0.044832	0.398385	99
Es	0.133188	-2.310086	-0.485328	99
Es	0.352395	1.203498	-0.922146	99
Es	-0.384506	1.086931	1.057191	99
Es	1.082082	0.336360	-1.314835	99
Es	-0.228456	1.128457	1.649505	99
Es	0.314920	2.129509	-0.040555	99
Es	0.420317	0.471645	-1.025106	99
Es	-1.224863	-1.240353	0.179090	99
Es	-0.135592	-1.998485	0.074453	99
42
Properties=species:S:1:pos:R:3:Z:I:1 energy=-339.9524776739398 field_type=dipole dipole="0.000000 0.000000 0.000000" charge=0
O	0.135047	-2.384775	-0.188780	8
C	-0.543452	-1.331145	0.490200	6
C	0.272228	-0.044924	0.398350	6
C	0.420327	0.471605	-1.025140	6
C	0.262118	1.932755	-0.769770	6
N	-0.163882	2.255325	0.407580	7
N	-0.385202	1.086765	1.057220	7
H	-0.419683	-3.179494	-0.099520	1
H	-0.675122	-1.627835	1.536320	1
H	-1.533702	-1.210615	0.036650	1
H	1.271818	-0.199105	0.824490	1
H	-0.366442	0.146235	-1.711880	1
H	1.404957	0.267445	-1.452590	1
H	0.486157	2.667426	-1.555780	1
H	-0.165163	1.150335	2.052650	1
Es	-0.703559	1.057220	1.004662	99
Es	-0.137864	-0.688227	0.446828	99
Es	0.262110	1.932754	-0.769799	99
Es	0.412108	2.428954	-1.303390	99
Es	-0.163780	2.254753	0.407363	99
Es	0.315079	2.129613	-0.040547	99
Es	-0.235006	2.578424	0.577563	99
Es	0.134770	-2.384811	-0.188613	99
Es	-0.073699	0.598875	0.783627	99
Es	-0.384550	1.086945	1.057203	99
Es	1.081969	0.336369	-1.314834	99
Es	0.132377	-2.310652	-0.484473	99
Es	-0.135430	-1.997733	0.074799	99
Es	0.394996	-2.438420	-0.035244	99
Es	0.272130	-0.044834	0.398384	99
Es	-0.228330	1.128484	1.649327	99
Es	-0.177032	-2.801824	-0.129299	99
Es	-0.231657	1.652520	0.737650	99
Es	0.420317	0.471645	-1.025107	99
Es	0.344620	0.180378	-0.329063	99
Es	-0.236386	2.105023	-0.218573	99
Es	-1.224855	-1.240371	0.179118	99
Es	-0.115091	0.255238	-1.480616	99
Es	-0.543308	-1.331303	0.490094	99
Es	0.955995	-0.153823	0.693535	99
Es	-0.636981	-1.529760	1.216731	99
Es	0.352447	1.203457	-0.922164	99
42
Properties=species:S:1:pos:R:3:Z:I:1 energy=-339.9524776739398 field_type=dipole dipole="0.000000 0.000000 0.000000" charge=0
O	0.135047	-2.384775	-0.188780	8
C	-0.543452	-1.331145	0.490200	6
C	0.272228	-0.044924	0.398350	6
C	0.420327	0.471605	-1.025140	6
C	0.262118	1.932755	-0.769770	6
N	-0.163882	2.255325	0.407580	7
N	-0.385202	1.086765	1.057220	7
H	-0.419683	-3.179494	-0.099520	1
H	-0.675122	-1.627835	1.536320	1
H	-1.533702	-1.210615	0.036650	1
H	1.271818	-0.199105	0.824490	1
H	-0.366442	0.146235	-1.711880	1
H	1.404957	0.267445	-1.452590	1
H	0.486157	2.667426	-1.555780	1
H	-0.165163	1.150335	2.052650	1
Es	-0.384492	1.086935	1.057178	99
Es	-0.177785	-2.801953	-0.131028	99
Es	-0.636952	-1.529707	1.216717	99
Es	0.314692	2.129547	-0.040669	99
Es	-1.224871	-1.240408	0.179154	99
Es	-0.234580	2.578366	0.577471	99
Es	-0.703419	1.057146	1.004308	99
Es	0.412189	2.428970	-1.303408	99
Es	-0.163782	2.254757	0.407361	99
Es	-0.137926	-0.688270	0.446820	99
Es	-0.231648	1.652620	0.737978	99
Es	1.082077	0.336466	-1.314829	99
Es	0.392464	-2.439143	-0.033363	99
Es	-0.073344	0.599047	0.783756	99
Es	-0.114915	0.255215	-1.480609	99
Es	0.272130	-0.044834	0.398384	99
Es	0.955972	-0.153794	0.693477	99
Es	0.344533	0.180342	-0.328965	99
Es	-0.135278	-1.998156	0.075112	99
Es	0.135584	-2.309422	-0.484981	99
Es	0.352324	1.203357	-0.922153	99
Es	-0.236548	2.105100	-0.218691	99
Es	-0.543310	-1.331298	0.490098	99
Es	0.262109	1.932753	-0.769802	99
Es	-0.228901	1.128410	1.649528	99
Es	0.134751	-2.384797	-0.188580	99
Es	0.420318	0.471645	-1.025105	99
42
Properties=species:S:1:pos:R:3:Z:I:1 energy=-339.9524776739398 field_type=dipole dipole="0.000000 0.000000 0.000000" charge=0
O	0.135047	-2.384775	-0.188780	8
C	-0.543452	-1.331145	0.490200	6
C	0.272228	-0.044924	0.398350	6
C	0.420327	0.471605	-1.025140	6
C	0.262118	1.932755	-0.769770	6
N	-0.163882	2.255325	0.407580	7
N	-0.385202	1.086765	1.057220	7
H	-0.419683	-3.179494	-0.099520	1
H	-0.675122	-1.627835	1.536320	1
H	-1.533702	-1.210615	0.036650	1
H	1.271818	-0.199105	0.824490	1
H	-0.366442	0.146235	-1.711880	1
H	1.404957	0.267445	-1.452590	1
H	0.486157	2.667426	-1.555780	1
H	-0.165163	1.150335	2.052650	1
Es	-0.114960	0.255308	-1.480541	99
Es	-0.703247	1.057406	1.004090	99
Es	-0.636944	-1.529703	1.216730	99
Es	-0.176934	-2.802495	-0.129721	99
Es	0.262102	1.932754	-0.769803	99
Es	-0.229297	1.128351	1.649660	99
Es	-0.543312	-1.331300	0.490098	99
Es	-0.231393	1.652463	0.738105	99
Es	0.344630	0.180349	-0.328975	99
Es	0.134759	-2.384794	-0.188597	99
Es	0.412141	2.429060	-1.303323	99
Es	0.955920	-0.153823	0.693494	99
Es	-1.224852	-1.240432	0.179190	99
Es	0.394356	-2.438040	-0.035179	99
Es	1.082017	0.336438	-1.314947	99
Es	0.420317	0.471645	-1.025106	99
Es	-0.384495	1.086946	1.057176	99
Es	-0.236303	2.104993	-0.218564	99
Es	0.132947	-2.310031	-0.484384	99
Es	0.352418	1.203327	-0.922232	99
Es	-0.073358	0.598882	0.783800	99
Es	0.272130	-0.044830	0.398385	99
Es	-0.163782	2.254763	0.407362	99
Es	-0.234837	2.578371	0.577327	99
Es	-0.135429	-1.998121	0.075040	99
Es	0.314707	2.129641	-0.040677	99
Es	-0.137910	-0.688230	0.446752	99
42
Properties=species:S:1:pos:R:3:Z:I:1 energy=-339.9524776739398 field_type=dipole dipole="0.000000 0.000000 0.000000" charge=0
O	0.135047	-2.384775	-0.188780	8
C	-0.543452	-1.331145	0.490200	6
C	0.272228	-0.044924	0.398350	6
C	0.420327	0.471605	-1.025140	6
C	0.262118	1.932755	-0.769770	6
N	-0.163882	2.255325	0.407580	7
N	-0.385202	1.086765	1.057220	7
H	-0.419683	-3.179494	-0.099520	1
H	-0.675122	-1.627835	1.536320	1
H	-1.533702	-1.210615	0.036650	1
H	1.271818	-0.199105	0.824490	1
H	-0.366442	0.146235	-1.711880	1
H	1.404957	0.267445	-1.452590	1
H	0.486157	2.667426	-1.555780	1
H	-0.165163	1.150335	2.052650	1
Es	0.134747	-2.384792	-0.188646	99
Es	-0.073840	0.598727	0.783617	99
Es	-0.135833	-1.997584	0.074036	99
Es	-1.224827	-1.240491	0.179251	99
Es	0.344735	0.180247	-0.329016	99
Es	-0.137970	-0.688112	0.446742	99
Es	0.420318	0.471644	-1.025106	99
Es	-0.229508	1.128089	1.649832	99
Es	0.137588	-2.310118	-0.485248	99
Es	-0.703179	1.057995	1.003896	99
Es	-0.236192	2.104980	-0.218572	99
Es	0.352447	1.203312	-0.922239	99
Es	0.412205	2.429109	-1.303312	99
Es	0.955849	-0.153858	0.693585	99
Es	-0.177627	-2.802233	-0.130850	99
Es	-0.163777	2.254759	0.407352	99
Es	-0.384456	1.086930	1.057177	99
Es	-0.114924	0.255316	-1.480531	99
Es	-0.543311	-1.331302	0.490096	99
Es	-0.234628	2.578400	0.577094	99
Es	0.314346	2.129596	-0.040787	99
Es	1.081955	0.336460	-1.314976	99
Es	-0.230907	1.652346	0.738611	99
Es	0.262111	1.932753	-0.769802	99
Es	0.390876	-2.438787	-0.032153	99
Es	-0.636934	-1.529658	1.216724	99
Es	0.272129	-0.044834	0.398385	99
42
Properties=species:S:1:pos:R:3:Z:I:1 energy=-339.9524776739398 field_type=dipole dipole="0.000000 0.000000 0.000000" charge=0
O	0.135047	-2.384775	-0.188780	8
C	-0.543452	-1.331145	0.490200	6
C	0.272228	-0.044924	0.398350	6
C	0.420327	0.471605	-1.025140	6
C	0.262118	1.932755	-0.769770	6
N	-0.163882	2.255325	0.407580	7
N	-0.385202	1.086765	1.057220	7
H	-0.419683	-3.179494	-0.099520	1
H	-0.675122	-1.627835	1.536320	1
H	-1.533702	-1.210615	0.036650	1
H	1.271818	-0.199105	0.824490	1
H	-0.366442	0.146235	-1.711880	1
H	1.404957	0.267445	-1.452590	1
H	0.486157	2.667426	-1.555780	1
H	-0.165163	1.150335	2.052650	1
Es	-0.229616	1.128312	1.649755	99
Es	0.955905	-0.153847	0.693476	99
Es	0.262106	1.932754	-0.769803	99
Es	-0.135929	-1.997578	0.074125	99
Es	-0.384511	1.086920	1.057196	99
Es	-0.163779	2.254760	0.407360	99
Es	-0.703245	1.057352	1.003852	99
Es	0.412215	2.429129	-1.303288	99
Es	0.314564	2.129760	-0.040741	99
Es	-0.543309	-1.331300	0.490096	99
Es	-0.637110	-1.529733	1.216655	99
Es	-0.177797	-2.802306	-0.131413	99
Es	-0.231313	1.652354	0.738218	99
Es	0.134588	-2.384741	-0.188771	99
Es	0.344585	0.180242	-0.328967	99
Es	0.352446	1.203212	-0.922277	99
Es	0.420318	0.471646	-1.025106	99
Es	-0.234697	2.578042	0.577300	99
Es	0.272133	-0.044834	0.398375	99
Es	0.391353	-2.438894	-0.032484	99
Es	-0.137814	-0.688126	0.446947	99
Es	1.081967	0.336475	-1.314956	99
Es	-0.236347	2.105262	-0.218642	99
Es	-0.073118	0.599072	0.783974	99
Es	-0.114948	0.255361	-1.480582	99
Es	0.137474	-2.310050	-0.484335	99
Es	-1.224727	-1.240347	0.179195	99
42
Properties=species:S:1:pos:R:3:Z:I:1 energy=-339.9524776739398 field_type=dipole dipole="0.000000 0.000000 0.000000" charge=0
O	0.135047	-2.384775	-0.188780	8
C	-0.543452	-1.331145	0.490200	6
C	0.272228	-0.044924	0.398350	6
C	0.420327	0.471605	-1.025140	6
C	0.262118	1.932755	-0.769770	6
N	-0.163882	2.255325	0.407580	7
N	-0.385202	1.086765	1.057220	7
H	-0.419683	-3.179494	-0.099520	1
H	-0.675122	-1.627835	1.536320	1
H	-1.533702	-1.210615	0.036650	1
H	1.271818	-0.199105	0.824490	1
H	-0.366442	0.146235	-1.711880	1
H	1.404957	0.267445	-1.452590	1
H	0.486157	2.667426	-1.555780	1
H	-0.165163	1.150335	2.052650	1
Es	0.135563	-2.310632	-0.484456	99
Es	-0.137785	-0.688152	0.447008	99
Es	0.352488	1.203199	-0.922317	99
Es	0.272131	-0.044833	0.398382	99
Es	-0.073796	0.598481	0.783765	99
Es	-0.114898	0.255449	-1.480545	99
Es	-0.637066	-1.529723	1.216602	99
Es	1.081950	0.336391	-1.314992	99
Es	-1.224765	-1.240352	0.179262	99
Es	-0.177030	-2.802833	-0.129947	99
Es	-0.163780	2.254757	0.407349	99
Es	0.344623	0.180222	-0.329014	99
Es	0.955763	-0.153825	0.693467	99
Es	0.262108	1.932754	-0.769802	99
Es	-0.229876	1.128210	1.649924	99
Es	0.314543	2.129657	-0.040786	99
Es	-0.543310	-1.331302	0.490096	99
Es	-0.135981	-1.997478	0.073840	99
Es	-0.384522	1.086938	1.057177	99
Es	-0.236056	2.105054	-0.218534	99
Es	0.392394	-2.437845	-0.033723	99
Es	-0.234754	2.578214	0.576956	99
Es	0.134728	-2.384805	-0.188626	99
Es	-0.230802	1.652272	0.738671	99
Es	0.420317	0.471646	-1.025106	99
Es	-0.702915	1.058286	1.003792	99
Es	0.412120	2.429147	-1.303282	99
42
Properties=species:S:1:pos:R:3:Z:I:1 energy=-339.9524776739398 field_type=dipole dipole="0.000000 0.000000 0.000000" charge=0
O	0.135047	-2.384775	-0.188780	8
C	-0.543452	-1.331145	0.490200	6
C	0.272228	-0.044924	0.398350	6
C	0.420327	0.471605	-1.025140	6
C	0.262118	1.932755	-0.769770	6
N	-0.163882	2.255325	0.407580	7
N	-0.385202	1.086765	1.057220	7
H	-0.419683	-3.179494	-0.099520	1
H	-0.675122	-1.627835	1.536320	1
H	-1.533702	-1.210615	0.036650	1
H	1.271818	-0.199105	0.824490	1
H	-0.366442	0.146235	-1.711880	1
H	1.404957	0.267445	-1.452590	1
H	0.486157	2.667426	-1.555780	1
H	-0.165163	1.150335	2.052650	1
Es	-0.637123	-1.529720	1.216515	99
Es	-0.702911	1.057998	1.003408	99
Es	0.412208	2.429236	-1.303205	99
Es	1.081893	0.336450	-1.314986	99
Es	-0.137704	-0.688092	0.447109	99
Es	-0.177088	-2.802720	-0.130310	99
Es	-0.230368	1.128147	1.650056	99
Es	-0.384503	1.086924	1.057174	99
Es	-0.234407	2.578070	0.576972	99
Es	0.272131	-0.044833	0.398383	99
Es	-0.543310	-1.331300	0.490097	99
Es	-0.135843	-1.997365	0.074322	99
Es	-1.224754	-1.240328	0.179261	99
Es	0.955747	-0.153825	0.693512	99
Es	0.391915	-2.438250	-0.033823	99
Es	-0.231015	1.652243	0.738768	99
Es	0.134725	-2.384780	-0.188668	99
Es	0.344720	0.180212	-0.329023	99
Es	0.420317	0.471646	-1.025105	99
Es	-0.073301	0.598790	0.783949	99
Es	0.314272	2.129575	-0.040862	99
Es	0.262109	1.932753	-0.769800	99
Es	-0.114861	0.255337	-1.480524	99
Es	0.135951	-2.310532	-0.484414	99
Es	-0.236138	2.105315	-0.218591	99
Es	0.352512	1.203190	-0.922413	99
Es	-0.163780	2.254754	0.407359	99
