48
Properties=species:S:1:pos:R:3:Z:I:1 energy=-289.2882801268941 field_type=dipole dipole="0.000000 0.000000 0.000000" charge=0
C	-2.073209	0.024558	0.083445	6
C	-0.576259	0.037838	-0.222455	6
C	-0.320839	0.063348	-1.728976	6
C	0.208761	1.116897	0.577214	6
C	1.109071	0.023228	1.174784	6
N	2.407221	0.046198	0.502124	7
C	0.221541	-1.058812	0.538554	6
H	-2.264419	0.006098	1.161995	1
H	-2.552819	-0.857502	-0.354155	1
H	-2.562709	0.914747	-0.325665	1
H	0.746491	0.068828	-1.966265	1
H	-0.764209	0.956017	-2.183015	1
H	-0.760909	-0.815552	-2.212145	1
H	-0.389649	1.631667	1.338854	1
H	0.700811	1.889887	-0.023935	1
H	1.167301	0.006348	2.266365	1
H	2.370321	0.131938	-0.512335	1
H	2.980402	-0.774762	0.692895	1
H	0.723401	-1.803843	-0.088925	1
H	-0.370299	-1.607122	1.281644	1
Es	0.208754	1.116860	0.577222	99
Es	2.406920	0.045686	0.501897	99
Es	-1.335641	0.031124	-0.069746	99
Es	2.728002	-0.472708	0.612480	99
Es	-2.073211	0.024558	0.083441	99
Es	-2.197600	0.011992	0.823062	99
Es	0.693176	-0.587673	0.897062	99
Es	0.551128	1.638064	0.162102	99
Es	-0.576250	0.037837	-0.222452	99
Es	-0.224400	0.644002	0.141411	99
Es	-0.624780	0.674692	-2.035095	99
Es	-0.440996	0.051259	-0.984951	99
Es	-2.404845	0.635617	-0.198675	99
Es	0.415126	0.067284	-1.883753	99
Es	2.590580	0.322771	0.612634	99
Es	-2.398234	-0.580539	-0.218357	99
Es	1.109180	0.023230	1.174675	99
Es	0.700005	0.630834	0.914967	99
Es	1.160568	0.007616	1.924256	99
Es	1.845470	0.008066	0.777094	99
Es	-0.320834	0.063348	-1.728972	99
Es	-0.208231	1.461697	1.098630	99
Es	-0.622305	-0.539067	-2.054764	99
Es	2.349809	0.073439	-0.109597	99
Es	-0.194882	-1.430883	1.047822	99
Es	0.574381	-1.565385	0.105727	99
Es	-0.217519	-0.577875	0.118519	99
Es	0.221514	-1.058794	0.538551	99
48
Properties=species:S:1:pos:R:3:Z:I:1 energy=-289.2882801268941 field_type=dipole dipole="0.000000 0.000000 0.000000" charge=0
C	-2.073209	0.024558	0.083445	6
C	-0.576259	0.037838	-0.222455	6
C	-0.320839	0.063348	-1.728976	6
C	0.208761	1.116897	0.577214	6
C	1.109071	0.023228	1.174784	6
N	2.407221	0.046198	0.502124	7
C	0.221541	-1.058812	0.538554	6
H	-2.264419	0.006098	1.161995	1
H	-2.552819	-0.857502	-0.354155	1
H	-2.562709	0.914747	-0.325665	1
H	0.746491	0.068828	-1.966265	1
H	-0.764209	0.956017	-2.183015	1
H	-0.760909	-0.815552	-2.212145	1
H	-0.389649	1.631667	1.338854	1
H	0.700811	1.889887	-0.023935	1
H	1.167301	0.006348	2.266365	1
H	2.370321	0.131938	-0.512335	1
H	2.980402	-0.774762	0.692895	1
H	0.723401	-1.803843	-0.088925	1
H	-0.370299	-1.607122	1.281644	1
Es	1.109176	0.023229	1.174674	99
Es	-0.224558	0.643976	0.141295	99
Es	-0.217617	-0.577831	0.118293	99
Es	0.693404	-0.587728	0.896952	99
Es	-0.622252	-0.539026	-2.054903	99
Es	-0.624681	0.674696	-2.035106	99
Es	2.728180	-0.472635	0.612375	99
Es	-0.194721	-1.430999	1.047884	99
Es	1.160419	0.007480	1.924245	99
Es	0.208754	1.116859	0.577223	99
Es	-0.441075	0.051308	-0.984770	99
Es	2.590578	0.323002	0.612592	99
Es	0.414990	0.067294	-1.883758	99
Es	-2.197601	0.012047	0.823073	99
Es	-0.576249	0.037838	-0.222451	99
Es	-2.404906	0.635528	-0.198698	99
Es	0.574346	-1.565253	0.105876	99
Es	-0.320834	0.063348	-1.728973	99
Es	-2.073210	0.024558	0.083441	99
Es	0.221513	-1.058792	0.538552	99
Es	2.349698	0.073351	-0.109495	99
Es	2.406932	0.045733	0.501930	99
Es	1.845522	0.007885	0.777172	99
Es	-1.335557	0.031099	-0.069814	99
Es	0.699840	0.630863	0.914994	99
Es	-2.398227	-0.580538	-0.218281	99
Es	0.551141	1.638036	0.162281	99
Es	-0.208123	1.461725	1.098584	99
48
Properties=species:S:1:pos:R:3:Z:I:1 energy=-289.2882801268941 field_type=dipole dipole="0.000000 0.000000 0.000000" charge=0
C	-2.073209	0.024558	0.083445	6
C	-0.576259	0.037838	-0.222455	6
C	-0.320839	0.063348	-1.728976	6
C	0.208761	1.116897	0.577214	6
C	1.109071	0.023228	1.174784	6
N	2.407221	0.046198	0.502124	7
C	0.221541	-1.058812	0.538554	6
H	-2.264419	0.006098	1.161995	1
H	-2.552819	-0.857502	-0.354155	1
H	-2.562709	0.914747	-0.325665	1
H	0.746491	0.068828	-1.966265	1
H	-0.764209	0.956017	-2.183015	1
H	-0.760909	-0.815552	-2.212145	1
H	-0.389649	1.631667	1.338854	1
H	0.700811	1.889887	-0.023935	1
H	1.167301	0.006348	2.266365	1
H	2.370321	0.131938	-0.512335	1
H	2.980402	-0.774762	0.692895	1
H	0.723401	-1.803843	-0.088925	1
H	-0.370299	-1.607122	1.281644	1
Es	-0.224610	0.643993	0.141197	99
Es	-0.194683	-1.430905	1.047688	99
Es	-2.197668	0.012120	0.823021	99
Es	-2.398298	-0.580547	-0.218273	99
Es	-1.335417	0.031132	-0.069826	99
Es	1.160553	0.007666	1.924086	99
Es	1.109181	0.023231	1.174675	99
Es	0.700021	0.630972	0.915099	99
Es	-0.320834	0.063348	-1.728973	99
Es	0.693241	-0.587898	0.897262	99
Es	-0.217684	-0.577842	0.118322	99
Es	2.349561	0.073253	-0.109667	99
Es	0.415064	0.067369	-1.883789	99
Es	-0.622276	-0.539154	-2.054751	99
Es	2.406923	0.045700	0.501913	99
Es	-2.404868	0.635452	-0.198671	99
Es	2.727786	-0.472587	0.612230	99
Es	2.590987	0.322902	0.612638	99
Es	0.551058	1.637992	0.162329	99
Es	-0.624765	0.674574	-2.035150	99
Es	-0.441055	0.051408	-0.984850	99
Es	1.845596	0.008003	0.777466	99
Es	-2.073210	0.024558	0.083441	99
Es	0.574355	-1.565365	0.105942	99
Es	-0.208091	1.461772	1.098505	99
Es	-0.576250	0.037838	-0.222451	99
Es	0.208755	1.116859	0.577223	99
Es	0.221512	-1.058790	0.538550	99
48
Properties=species:S:1:pos:R:3:Z:I:1 energy=-289.2882801268941 field_type=dipole dipole="0.000000 0.000000 0.000000" charge=0
C	-2.073209	0.024558	0.083445	6
C	-0.576259	0.037838	-0.222455	6
C	-0.320839	0.063348	-1.728976	6
C	0.208761	1.116897	0.577214	6
C	1.109071	0.023228	1.174784	6
N	2.407221	0.046198	0.502124	7
C	0.221541	-1.058812	0.538554	6
H	-2.264419	0.006098	1.161995	1
H	-2.552819	-0.857502	-0.354155	1
H	-2.562709	0.914747	-0.325665	1
H	0.746491	0.068828	-1.966265	1
H	-0.764209	0.956017	-2.183015	1
H	-0.760909	-0.815552	-2.212145	1
H	-0.389649	1.631667	1.338854	1
H	0.700811	1.889887	-0.023935	1
H	1.167301	0.006348	2.266365	1
H	2.370321	0.131938	-0.512335	1
H	2.980402	-0.774762	0.692895	1
H	0.723401	-1.803843	-0.088925	1
H	-0.370299	-1.607122	1.281644	1
Es	-0.576249	0.037838	-0.222450	99
Es	-0.320834	0.063348	-1.728972	99
Es	-0.441068	0.051276	-0.984732	99
Es	0.551040	1.637985	0.162400	99
Es	-0.624731	0.674654	-2.035096	99
Es	-1.335466	0.031138	-0.069892	99
Es	0.700034	0.631057	0.915212	99
Es	-2.404902	0.635504	-0.198676	99
Es	-0.208016	1.461778	1.098454	99
Es	2.591445	0.323316	0.612026	99
Es	-0.622282	-0.538967	-2.054830	99
Es	1.160593	0.007639	1.923986	99
Es	0.415062	0.067271	-1.883838	99
Es	0.693262	-0.587885	0.897293	99
Es	0.208755	1.116858	0.577223	99
Es	0.221513	-1.058793	0.538551	99
Es	-0.224696	0.643968	0.141135	99
Es	2.349335	0.072557	-0.109228	99
Es	1.109176	0.023229	1.174675	99
Es	-2.073211	0.024558	0.083441	99
Es	1.845466	0.008378	0.777584	99
Es	0.574308	-1.565312	0.105988	99
Es	2.406931	0.045732	0.501934	99
Es	-2.197631	0.012066	0.823034	99
Es	-0.217721	-0.577946	0.118282	99
Es	-2.398271	-0.580518	-0.218257	99
Es	2.727693	-0.472727	0.612267	99
Es	-0.194651	-1.430950	1.047675	99
48
Properties=species:S:1:pos:R:3:Z:I:1 energy=-289.2882801268941 field_type=dipole dipole="0.000000 0.000000 0.000000" charge=0
C	-2.073209	0.024558	0.083445	6
C	-0.576259	0.037838	-0.222455	6
C	-0.320839	0.063348	-1.728976	6
C	0.208761	1.116897	0.577214	6
C	1.109071	0.023228	1.174784	6
N	2.407221	0.046198	0.502124	7
C	0.221541	-1.058812	0.538554	6
H	-2.264419	0.006098	1.161995	1
H	-2.552819	-0.857502	-0.354155	1
H	-2.562709	0.914747	-0.325665	1
H	0.746491	0.068828	-1.966265	1
H	-0.764209	0.956017	-2.183015	1
H	-0.760909	-0.815552	-2.212145	1
H	-0.389649	1.631667	1.338854	1
H	0.700811	1.889887	-0.023935	1
H	1.167301	0.006348	2.266365	1
H	2.370321	0.131938	-0.512335	1
H	2.980402	-0.774762	0.692895	1
H	0.723401	-1.803843	-0.088925	1
H	-0.370299	-1.607122	1.281644	1
Es	-0.207980	1.461765	1.098472	99
Es	-0.320834	0.063348	-1.728972	99
Es	-2.073211	0.024559	0.083440	99
Es	-2.197685	0.012097	0.822980	99
Es	0.221513	-1.058792	0.538552	99
Es	0.693314	-0.587954	0.897325	99
Es	1.160588	0.007647	1.923918	99
Es	0.551033	1.637988	0.162457	99
Es	-0.441019	0.051251	-0.984642	99
Es	-2.404922	0.635494	-0.198722	99
Es	-1.335351	0.031046	-0.069919	99
Es	-0.576249	0.037838	-0.222448	99
Es	0.574261	-1.565300	0.106048	99
Es	0.700022	0.631150	0.915201	99
Es	-2.398256	-0.580523	-0.218206	99
Es	0.208755	1.116863	0.577223	99
Es	0.415041	0.067273	-1.883951	99
Es	2.349744	0.073165	-0.109425	99
Es	-0.224719	0.644034	0.141163	99
Es	1.845374	0.007897	0.777265	99
Es	2.590699	0.322963	0.612427	99
Es	2.728088	-0.472594	0.612386	99
Es	-0.622329	-0.538935	-2.054827	99
Es	1.109175	0.023229	1.174676	99
Es	-0.194583	-1.430955	1.047645	99
Es	-0.624748	0.674637	-2.035032	99
Es	2.406984	0.045830	0.501977	99
Es	-0.217824	-0.577965	0.118175	99
48
Properties=species:S:1:pos:R:3:Z:I:1 energy=-289.2882801268941 field_type=dipole dipole="0.000000 0.000000 0.000000" charge=0
C	-2.073209	0.024558	0.083445	6
C	-0.576259	0.037838	-0.222455	6
C	-0.320839	0.063348	-1.728976	6
C	0.208761	1.116897	0.577214	6
C	1.109071	0.023228	1.174784	6
N	2.407221	0.046198	0.502124	7
C	0.221541	-1.058812	0.538554	6
H	-2.264419	0.006098	1.161995	1
H	-2.552819	-0.857502	-0.354155	1
H	-2.562709	0.914747	-0.325665	1
H	0.746491	0.068828	-1.966265	1
H	-0.764209	0.956017	-2.183015	1
H	-0.760909	-0.815552	-2.212145	1
H	-0.389649	1.631667	1.338854	1
H	0.700811	1.889887	-0.023935	1
H	1.167301	0.006348	2.266365	1
H	2.370321	0.131938	-0.512335	1
H	2.980402	-0.774762	0.692895	1
H	0.723401	-1.803843	-0.088925	1
H	-0.370299	-1.607122	1.281644	1
Es	2.590843	0.322793	0.612702	99
Es	-2.073212	0.024558	0.083441	99
Es	1.109174	0.023229	1.174674	99
Es	1.160578	0.007647	1.923828	99
Es	1.845377	0.007931	0.777287	99
Es	0.415026	0.067223	-1.883856	99
Es	-0.576251	0.037838	-0.222453	99
Es	-0.441262	0.051395	-0.984631	99
Es	-0.207909	1.461838	1.098378	99
Es	-0.622280	-0.539002	-2.054733	99
Es	2.349950	0.073553	-0.109445	99
Es	-2.398305	-0.580504	-0.218222	99
Es	2.727907	-0.472698	0.612223	99
Es	-2.404935	0.635464	-0.198637	99
Es	0.208755	1.116859	0.577222	99
Es	-1.335278	0.031173	-0.069869	99
Es	0.221512	-1.058791	0.538552	99
Es	-2.197655	0.012076	0.822975	99
Es	-0.194475	-1.430958	1.047657	99
Es	-0.624665	0.674551	-2.035260	99
Es	0.700124	0.631209	0.915303	99
Es	0.693300	-0.587961	0.897341	99
Es	-0.217902	-0.578002	0.118211	99
Es	-0.224751	0.644027	0.140956	99
Es	0.574244	-1.565293	0.106089	99
Es	2.406864	0.045635	0.501891	99
Es	0.550942	1.637916	0.162534	99
Es	-0.320835	0.063349	-1.728971	99
48
Properties=species:S:1:pos:R:3:Z:I:1 energy=-289.2882801268941 field_type=dipole dipole="0.000000 0.000000 0.000000" charge=0
C	-2.073209	0.024558	0.083445	6
C	-0.576259	0.037838	-0.222455	6
C	-0.320839	0.063348	-1.728976	6
C	0.208761	1.116897	0.577214	6
C	1.109071	0.023228	1.174784	6
N	2.407221	0.046198	0.502124	7
C	0.221541	-1.058812	0.538554	6
H	-2.264419	0.006098	1.161995	1
H	-2.552819	-0.857502	-0.354155	1
H	-2.562709	0.914747	-0.325665	1
H	0.746491	0.068828	-1.966265	1
H	-0.764209	0.956017	-2.183015	1
H	-0.760909	-0.815552	-2.212145	1
H	-0.389649	1.631667	1.338854	1
H	0.700811	1.889887	-0.023935	1
H	1.167301	0.006348	2.266365	1
H	2.370321	0.131938	-0.512335	1
H	2.980402	-0.774762	0.692895	1
H	0.723401	-1.803843	-0.088925	1
H	-0.370299	-1.607122	1.281644	1
Es	-2.197647	0.012073	0.823000	99
Es	-2.404929	0.635480	-0.198663	99
Es	1.109175	0.023230	1.174675	99
Es	-2.073212	0.024558	0.083441	99
Es	0.415007	0.067254	-1.883882	99
Es	2.406938	0.045742	0.501934	99
Es	-2.398310	-0.580466	-0.218196	99
Es	1.160604	0.007635	1.923734	99
Es	-1.335310	0.031064	-0.069969	99
Es	-0.224883	0.644060	0.140944	99
Es	-0.194526	-1.430925	1.047544	99
Es	2.727190	-0.472787	0.611917	99
Es	-0.622295	-0.538913	-2.054889	99
Es	-0.624612	0.674560	-2.035140	99
Es	0.208754	1.116858	0.577223	99
Es	-0.320834	0.063348	-1.728972	99
Es	2.592284	0.323468	0.611723	99
Es	-0.207821	1.461801	1.098268	99
Es	0.574172	-1.565316	0.106236	99
Es	1.845431	0.008663	0.778021	99
Es	-0.576246	0.037838	-0.222447	99
Es	0.693372	-0.588050	0.897503	99
Es	0.221511	-1.058792	0.538551	99
Es	0.700106	0.631260	0.915445	99
Es	0.550932	1.637956	0.162627	99
Es	-0.217835	-0.577976	0.118001	99
Es	2.349121	0.072110	-0.108940	99
Es	-0.441254	0.051322	-0.984500	99
48
Properties=species:S:1:pos:R:3:Z:I:1 energy=-289.2882801268941 field_type=dipole dipole="0.000000 0.000000 0.000000" charge=0
C	-2.073209	0.024558	0.083445	6
C	-0.576259	0.037838	-0.222455	6
C	-0.320839	0.063348	-1.728976	6
C	0.208761	1.116897	0.577214	6
C	1.109071	0.023228	1.174784	6
N	2.407221	0.046198	0.502124	7
C	0.221541	-1.058812	0.538554	6
H	-2.264419	0.006098	1.161995	1
H	-2.552819	-0.857502	-0.354155	1
H	-2.562709	0.914747	-0.325665	1
H	0.746491	0.068828	-1.966265	1
H	-0.764209	0.956017	-2.183015	1
H	-0.760909	-0.815552	-2.212145	1
H	-0.389649	1.631667	1.338854	1
H	0.700811	1.889887	-0.023935	1
H	1.167301	0.006348	2.266365	1
H	2.370321	0.131938	-0.512335	1
H	2.980402	-0.774762	0.692895	1
H	0.723401	-1.803843	-0.088925	1
H	-0.370299	-1.607122	1.281644	1
Es	2.349857	0.073355	-0.109385	99
Es	0.208754	1.116859	0.577223	99
Es	0.414963	0.067207	-1.883935	99
Es	0.221512	-1.058792	0.538551	99
Es	-0.576248	0.037838	-0.222449	99
Es	2.406938	0.045755	0.501925	99
Es	2.727725	-0.472639	0.612047	99
Es	-0.441174	0.051240	-0.984463	99
Es	-1.335206	0.031141	-0.070022	99
Es	-2.404982	0.635458	-0.198608	99
Es	-0.224880	0.644101	0.140889	99
Es	-2.398313	-0.580474	-0.218188	99
Es	-0.320834	0.063348	-1.728973	99
Es	-0.207861	1.461829	1.098271	99
Es	2.591090	0.323027	0.612836	99
Es	-0.217918	-0.577991	0.118027	99
Es	0.693358	-0.588085	0.897635	99
Es	1.160616	0.007644	1.923640	99
Es	0.574161	-1.565234	0.106288	99
Es	0.550889	1.637912	0.162681	99
Es	1.845400	0.007679	0.777238	99
Es	-2.073211	0.024558	0.083441	99
Es	-0.622296	-0.538858	-2.054894	99
Es	1.109169	0.023228	1.174678	99
Es	-0.624618	0.674610	-2.035127	99
Es	-0.194490	-1.431004	1.047459	99
Es	-2.197665	0.012052	0.822932	99
Es	0.700145	0.631289	0.915471	99
48
Properties=species:S:1:pos:R:3:Z:I:1 energy=-289.2882801268941 field_type=dipole dipole="0.000000 0.000000 0.000000" charge=0
C	-2.073209	0.024558	0.083445	6
C	-0.576259	0.037838	-0.222455	6
C	-0.320839	0.063348	-1.728976	6
C	0.208761	1.116897	0.577214	6
C	1.109071	0.023228	1.174784	6
N	2.407221	0.046198	0.502124	7
C	0.221541	-1.058812	0.538554	6
H	-2.264419	0.006098	1.161995	1
H	-2.552819	-0.857502	-0.354155	1
H	-2.562709	0.914747	-0.325665	1
H	0.746491	0.068828	-1.966265	1
H	-0.764209	0.956017	-2.183015	1
H	-0.760909	-0.815552	-2.212145	1
H	-0.389649	1.631667	1.338854	1
H	0.700811	1.889887	-0.023935	1
H	1.167301	0.006348	2.266365	1
H	2.370321	0.131938	-0.512335	1
H	2.980402	-0.774762	0.692895	1
H	0.723401	-1.803843	-0.088925	1
H	-0.370299	-1.607122	1.281644	1
Es	0.550829	1.637842	0.162741	99
Es	0.693346	-0.588182	0.897658	99
Es	-2.404879	0.635450	-0.198588	99
Es	-0.624642	0.674589	-2.035145	99
Es	1.109173	0.023229	1.174674	99
Es	-2.197736	0.012082	0.822915	99
Es	-0.224929	0.644122	0.140867	99
Es	2.349697	0.072895	-0.109205	99
Es	-0.320834	0.063348	-1.728973	99
Es	-0.207785	1.461894	1.098232	99
Es	1.160633	0.007669	1.923554	99
Es	-1.335162	0.031073	-0.069961	99
Es	0.574173	-1.565225	0.106399	99
Es	2.406940	0.045749	0.501939	99
Es	-2.398393	-0.580444	-0.218233	99
Es	-0.441256	0.051270	-0.984415	99
Es	1.845415	0.007326	0.777065	99
Es	0.208754	1.116857	0.577223	99
Es	0.414962	0.067245	-1.883923	99
Es	-0.622242	-0.538865	-2.054900	99
Es	-0.217998	-0.578019	0.117852	99
Es	-0.194389	-1.431002	1.047475	99
Es	-0.576248	0.037838	-0.222450	99
Es	-2.073212	0.024558	0.083441	99
Es	0.700180	0.631329	0.915510	99
Es	0.221518	-1.058783	0.538548	99
Es	2.590877	0.323665	0.612654	99
Es	2.728089	-0.472458	0.612237	99
48
Properties=species:S:1:pos:R:3:Z:I:1 energy=-289.2882801268941 field_type=dipole dipole="0.000000 0.000000 0.000000" charge=0
C	-2.073209	0.024558	0.083445	6
C	-0.576259	0.037838	-0.222455	6
C	-0.320839	0.063348	-1.728976	6
C	0.208761	1.116897	0.577214	6
C	1.109071	0.023228	1.174784	6
N	2.407221	0.046198	0.502124	7
C	0.221541	-1.058812	0.538554	6
H	-2.264419	0.006098	1.161995	1
H	-2.552819	-0.857502	-0.354155	1
H	-2.562709	0.914747	-0.325665	1
H	0.746491	0.068828	-1.966265	1
H	-0.764209	0.956017	-2.183015	1
H	-0.760909	-0.815552	-2.212145	1
H	-0.389649	1.631667	1.338854	1
H	0.700811	1.889887	-0.023935	1
H	1.167301	0.006348	2.266365	1
H	2.370321	0.131938	-0.512335	1
H	2.980402	-0.774762	0.692895	1
H	0.723401	-1.803843	-0.088925	1
H	-0.370299	-1.607122	1.281644	1
Es	-0.224978	0.644133	0.140729	99
Es	1.109173	0.023229	1.174674	99
Es	-0.194367	-1.431082	1.047384	99
Es	2.727994	-0.472517	0.612249	99
Es	-0.320834	0.063348	-1.728973	99
Es	-0.218042	-0.577973	0.118017	99
Es	-0.207803	1.461956	1.098184	99
Es	-0.441129	0.051192	-0.984341	99
Es	-2.398327	-0.580420	-0.218172	99
Es	0.208754	1.116857	0.577224	99
Es	0.550755	1.637765	0.162810	99
Es	2.406928	0.045713	0.501926	99
Es	0.414926	0.067288	-1.883945	99
Es	-2.404941	0.635405	-0.198641	99
Es	0.574114	-1.565149	0.106372	99
Es	1.845386	0.007707	0.777343	99
Es	0.700248	0.631449	0.915639	99
Es	1.160656	0.007615	1.923440	99
Es	0.221512	-1.058791	0.538552	99
Es	-2.073211	0.024558	0.083436	99
Es	-2.197790	0.012089	0.822901	99
Es	2.349786	0.073028	-0.109268	99
Es	-0.624656	0.674542	-2.035176	99
Es	-0.576252	0.037838	-0.222450	99
Es	0.693393	-0.588171	0.897752	99
Es	2.590950	0.323241	0.612466	99
Es	-0.622198	-0.538881	-2.054903	99
Es	-1.335166	0.031087	-0.070040	99
48
Properties=species:S:1:pos:R:3:Z:I:1 energy=-289.2882801268941 field_type=dipole dipole="0.000000 0.000000 0.000000" charge=0
C	-2.073209	0.024558	0.083445	6
C	-0.576259	0.037838	-0.222455	6
C	-0.320839	0.063348	-1.728976	6
C	0.208761	1.116897	0.577214	6
C	1.109071	0.023228	1.174784	6
N	2.407221	0.046198	0.502124	7
C	0.221541	-1.058812	0.538554	6
H	-2.264419	0.006098	1.161995	1
H	-2.552819	-0.857502	-0.354155	1
H	-2.562709	0.914747	-0.325665	1
H	0.746491	0.068828	-1.966265	1
H	-0.764209	0.956017	-2.183015	1
H	-0.760909	-0.815552	-2.212145	1
H	-0.389649	1.631667	1.338854	1
H	0.700811	1.889887	-0.023935	1
H	1.167301	0.006348	2.266365	1
H	2.370321	0.131938	-0.512335	1
H	2.980402	-0.774762	0.692895	1
H	0.723401	-1.803843	-0.088925	1
H	-0.370299	-1.607122	1.281644	1
Es	-2.197771	0.012063	0.822899	99
Es	2.406928	0.045790	0.501942	99
Es	-0.624644	0.674528	-2.035161	99
Es	-0.320834	0.063348	-1.728973	99
Es	0.550763	1.637807	0.162829	99
Es	1.109177	0.023230	1.174673	99
Es	-2.404984	0.635379	-0.198586	99
Es	-0.218086	-0.578035	0.117833	99
Es	1.845467	0.007378	0.777229	99
Es	2.591557	0.323659	0.612892	99
Es	0.574070	-1.565173	0.106468	99
Es	0.208754	1.116858	0.577221	99
Es	-0.576249	0.037838	-0.222450	99
Es	0.700237	0.631508	0.915718	99
Es	2.727484	-0.472541	0.611865	99
Es	-0.194325	-1.431046	1.047344	99
Es	2.349608	0.072861	-0.109195	99
Es	-0.225038	0.644133	0.140796	99
Es	-0.207713	1.461924	1.098086	99
Es	0.221513	-1.058790	0.538552	99
Es	-2.073212	0.024558	0.083441	99
Es	-2.398338	-0.580407	-0.218176	99
Es	1.160676	0.007658	1.923389	99
Es	-0.622191	-0.538851	-2.054931	99
Es	0.693411	-0.588292	0.897833	99
Es	-0.441269	0.051251	-0.984291	99
Es	-1.335020	0.031124	-0.070087	99
Es	0.414911	0.067296	-1.883972	99
