37
Properties=species:S:1:pos:R:3:Z:I:1 energy=-321.5927078413141 field_type=dipole dipole="0.000000 0.000000 0.000000" charge=0
O	-2.122521	0.094423	0.612814	8
C	-0.687461	0.180763	0.560424	6
C	-0.209082	-0.528827	-0.709456	6
C	1.242259	-0.779707	-0.699216	6
C	2.425569	-0.982367	-0.695076	6
C	-0.248372	1.591422	0.587984	6
N	0.068849	2.707002	0.641594	7
H	-2.418111	0.649622	1.356954	1
H	-0.308331	-0.338928	1.448304	1
H	-0.484421	0.052433	-1.598786	1
H	-0.735742	-1.486697	-0.807746	1
H	3.477369	-1.159137	-0.697796	1
Es	-2.171796	-0.196587	0.685936	99
Es	0.169116	3.058396	0.658096	99
Es	-0.448825	0.936382	0.569424	99
Es	1.241967	-0.779660	-0.699211	99
Es	-0.208950	-0.528806	-0.709378	99
Es	1.802891	-1.094607	-0.403412	99
Es	-0.417109	-0.146553	1.155289	99
Es	-0.687647	0.180943	0.560368	99
Es	-0.248476	1.591092	0.587957	99
Es	-0.428608	-0.151741	-0.069475	99
Es	-0.263123	2.234404	0.863432	99
Es	-2.258051	0.393611	1.015355	99
Es	-0.187411	2.243794	0.330653	99
Es	0.068725	2.706567	0.641564	99
Es	-0.376302	-0.136129	-1.291355	99
Es	1.898367	-0.531284	-0.653746	99
Es	-2.122348	0.094583	0.613001	99
Es	-0.543788	-1.163430	-0.758506	99
Es	-2.224582	0.226132	0.356647	99
Es	1.805310	-1.021656	-1.023358	99
Es	0.542954	-0.649362	-0.693410	99
Es	3.108955	-1.098214	-0.696280	99
Es	2.425795	-0.982411	-0.695072	99
Es	0.214045	2.101575	0.658279	99
Es	-1.564908	0.160972	0.607295	99
37
Properties=species:S:1:pos:R:3:Z:I:1 energy=-321.5927078413141 field_type=dipole dipole="0.000000 0.000000 0.000000" charge=0
O	-2.122521	0.094423	0.612814	8
C	-0.687461	0.180763	0.560424	6
C	-0.209082	-0.528827	-0.709456	6
C	1.242259	-0.779707	-0.699216	6
C	2.425569	-0.982367	-0.695076	6
C	-0.248372	1.591422	0.587984	6
N	0.068849	2.707002	0.641594	7
H	-2.418111	0.649622	1.356954	1
H	-0.308331	-0.338928	1.448304	1
H	-0.484421	0.052433	-1.598786	1
H	-0.735742	-1.486697	-0.807746	1
H	3.477369	-1.159137	-0.697796	1
Es	1.777961	-1.234813	-0.718677	99
Es	0.168196	3.058681	0.657020	99
Es	-2.162952	0.155757	0.505210	99
Es	1.853432	-0.725928	-0.372156	99
Es	3.108915	-1.098200	-0.695776	99
Es	-1.562023	0.164589	0.598754	99
Es	-2.161896	0.166084	0.499562	99
Es	-0.007491	2.168619	0.915812	99
Es	0.135641	2.137626	0.402528	99
Es	1.241953	-0.779660	-0.699213	99
Es	-0.363874	2.273419	0.534639	99
Es	-2.189829	-0.208778	0.662063	99
Es	1.875416	-0.686728	-0.989556	99
Es	-0.417134	-0.146549	1.155278	99
Es	-0.376395	-0.136139	-1.291314	99
Es	-0.248476	1.591094	0.587965	99
Es	2.425795	-0.982403	-0.695070	99
Es	-2.264918	0.401058	1.012680	99
Es	0.068722	2.706562	0.641574	99
Es	-0.428597	-0.151823	-0.069470	99
Es	-0.208949	-0.528805	-0.709374	99
Es	-0.448717	0.936190	0.569889	99
Es	0.542760	-0.649439	-0.694093	99
Es	-0.687649	0.180944	0.560366	99
Es	-0.543691	-1.163345	-0.758548	99
37
Properties=species:S:1:pos:R:3:Z:I:1 energy=-321.5927078413141 field_type=dipole dipole="0.000000 0.000000 0.000000" charge=0
O	-2.122521	0.094423	0.612814	8
C	-0.687461	0.180763	0.560424	6
C	-0.209082	-0.528827	-0.709456	6
C	1.242259	-0.779707	-0.699216	6
C	2.425569	-0.982367	-0.695076	6
C	-0.248372	1.591422	0.587984	6
N	0.068849	2.707002	0.641594	7
H	-2.418111	0.649622	1.356954	1
H	-0.308331	-0.338928	1.448304	1
H	-0.484421	0.052433	-1.598786	1
H	-0.735742	-1.486697	-0.807746	1
H	3.477369	-1.159137	-0.697796	1
Es	-0.253227	2.232053	0.871313	99
Es	-0.543666	-1.163451	-0.758584	99
Es	-0.248459	1.591081	0.587966	99
Es	-0.428538	-0.151645	-0.069357	99
Es	-0.417092	-0.146465	1.155265	99
Es	1.811386	-1.027117	-0.363629	99
Es	-1.564740	0.162448	0.605513	99
Es	-2.169544	-0.195368	0.689110	99
Es	-0.199198	2.246884	0.335899	99
Es	3.108827	-1.098490	-0.696117	99
Es	-2.122361	0.094562	0.612988	99
Es	-0.448893	0.936191	0.569503	99
Es	-2.258202	0.394726	1.014558	99
Es	0.542716	-0.649270	-0.693511	99
Es	-0.376165	-0.136140	-1.291476	99
Es	1.793735	-1.088106	-0.985040	99
Es	0.169088	3.057993	0.658119	99
Es	0.068723	2.706563	0.641572	99
Es	-2.226959	0.222412	0.356108	99
Es	1.901580	-0.532191	-0.731916	99
Es	2.425796	-0.982411	-0.695070	99
Es	-0.687642	0.180941	0.560370	99
Es	-0.208950	-0.528803	-0.709375	99
Es	0.216029	2.101274	0.645097	99
Es	1.241959	-0.779657	-0.699213	99
37
Properties=species:S:1:pos:R:3:Z:I:1 energy=-321.5927078413141 field_type=dipole dipole="0.000000 0.000000 0.000000" charge=0
O	-2.122521	0.094423	0.612814	8
C	-0.687461	0.180763	0.560424	6
C	-0.209082	-0.528827	-0.709456	6
C	1.242259	-0.779707	-0.699216	6
C	2.425569	-0.982367	-0.695076	6
C	-0.248372	1.591422	0.587984	6
N	0.068849	2.707002	0.641594	7
H	-2.418111	0.649622	1.356954	1
H	-0.308331	-0.338928	1.448304	1
H	-0.484421	0.052433	-1.598786	1
H	-0.735742	-1.486697	-0.807746	1
H	3.477369	-1.159137	-0.697796	1
Es	-0.687646	0.180942	0.560369	99
Es	-0.543434	-1.163597	-0.758591	99
Es	-2.258590	0.393511	1.015293	99
Es	1.812831	-1.015838	-0.359108	99
Es	2.425787	-0.982413	-0.695095	99
Es	-1.564411	0.161610	0.606707	99
Es	3.108810	-1.098427	-0.696078	99
Es	-0.222521	2.252416	0.348217	99
Es	1.792115	-1.098160	-0.977407	99
Es	-0.449051	0.936108	0.569441	99
Es	-2.225465	0.224750	0.356856	99
Es	-2.171003	-0.195648	0.686457	99
Es	-0.208952	-0.528807	-0.709376	99
Es	-2.122340	0.094578	0.613012	99
Es	-0.428603	-0.151651	-0.069348	99
Es	0.068722	2.706563	0.641573	99
Es	0.217826	2.101265	0.618532	99
Es	0.542776	-0.648864	-0.693693	99
Es	0.169040	3.057767	0.658117	99
Es	-0.376353	-0.136292	-1.291384	99
Es	-0.231566	2.226725	0.885535	99
Es	1.241949	-0.779657	-0.699214	99
Es	-0.417020	-0.146358	1.155374	99
Es	1.901768	-0.533593	-0.744067	99
Es	-0.248468	1.591084	0.587968	99
37
Properties=species:S:1:pos:R:3:Z:I:1 energy=-321.5927078413141 field_type=dipole dipole="0.000000 0.000000 0.000000" charge=0
O	-2.122521	0.094423	0.612814	8
C	-0.687461	0.180763	0.560424	6
C	-0.209082	-0.528827	-0.709456	6
C	1.242259	-0.779707	-0.699216	6
C	2.425569	-0.982367	-0.695076	6
C	-0.248372	1.591422	0.587984	6
N	0.068849	2.707002	0.641594	7
H	-2.418111	0.649622	1.356954	1
H	-0.308331	-0.338928	1.448304	1
H	-0.484421	0.052433	-1.598786	1
H	-0.735742	-1.486697	-0.807746	1
H	3.477369	-1.159137	-0.697796	1
Es	-0.543501	-1.163549	-0.758564	99
Es	0.542550	-0.649016	-0.693589	99
Es	-2.227027	0.222232	0.355524	99
Es	3.108770	-1.098540	-0.696073	99
Es	-0.687645	0.180943	0.560369	99
Es	1.241961	-0.779656	-0.699215	99
Es	-0.448869	0.935920	0.569432	99
Es	-0.428381	-0.151667	-0.069343	99
Es	-0.136729	2.230967	0.313912	99
Es	0.068722	2.706563	0.641574	99
Es	-2.258474	0.394587	1.014487	99
Es	1.788700	-1.120183	-0.958452	99
Es	-0.248466	1.591081	0.587964	99
Es	-2.122335	0.094578	0.612981	99
Es	-1.564432	0.161833	0.606133	99
Es	1.901746	-0.539362	-0.772927	99
Es	-0.376196	-0.136143	-1.291559	99
Es	2.425794	-0.982427	-0.695065	99
Es	-0.417052	-0.146272	1.155330	99
Es	-0.208951	-0.528805	-0.709378	99
Es	-2.169591	-0.194462	0.689171	99
Es	0.168358	3.057774	0.658422	99
Es	-0.302335	2.244635	0.826422	99
Es	0.203262	2.104942	0.711746	99
Es	1.816322	-0.987962	-0.349214	99
37
Properties=species:S:1:pos:R:3:Z:I:1 energy=-321.5927078413141 field_type=dipole dipole="0.000000 0.000000 0.000000" charge=0
O	-2.122521	0.094423	0.612814	8
C	-0.687461	0.180763	0.560424	6
C	-0.209082	-0.528827	-0.709456	6
C	1.242259	-0.779707	-0.699216	6
C	2.425569	-0.982367	-0.695076	6
C	-0.248372	1.591422	0.587984	6
N	0.068849	2.707002	0.641594	7
H	-2.418111	0.649622	1.356954	1
H	-0.308331	-0.338928	1.448304	1
H	-0.484421	0.052433	-1.598786	1
H	-0.735742	-1.486697	-0.807746	1
H	3.477369	-1.159137	-0.697796	1
Es	-1.564272	0.161968	0.605914	99
Es	-0.376246	-0.136207	-1.291554	99
Es	-0.208952	-0.528805	-0.709377	99
Es	-0.449083	0.935910	0.569560	99
Es	2.425793	-0.982411	-0.695067	99
Es	0.542561	-0.648942	-0.693668	99
Es	1.901844	-0.534205	-0.749001	99
Es	-0.251623	2.231971	0.873163	99
Es	0.068718	2.706561	0.641573	99
Es	-0.687643	0.180942	0.560369	99
Es	0.216094	2.101642	0.644404	99
Es	-2.170013	-0.194635	0.687720	99
Es	-0.248448	1.591075	0.587999	99
Es	-2.122313	0.094597	0.613044	99
Es	1.241959	-0.779660	-0.699210	99
Es	-2.226578	0.222895	0.356551	99
Es	0.168674	3.057384	0.657679	99
Es	-0.543436	-1.163655	-0.758519	99
Es	-2.258748	0.394026	1.015143	99
Es	1.813546	-1.010454	-0.357388	99
Es	-0.200344	2.247230	0.335148	99
Es	3.108744	-1.098456	-0.696189	99
Es	1.791375	-1.102897	-0.974074	99
Es	-0.428380	-0.151571	-0.069420	99
Es	-0.417025	-0.146292	1.155291	99
37
Properties=species:S:1:pos:R:3:Z:I:1 energy=-321.5927078413141 field_type=dipole dipole="0.000000 0.000000 0.000000" charge=0
O	-2.122521	0.094423	0.612814	8
C	-0.687461	0.180763	0.560424	6
C	-0.209082	-0.528827	-0.709456	6
C	1.242259	-0.779707	-0.699216	6
C	2.425569	-0.982367	-0.695076	6
C	-0.248372	1.591422	0.587984	6
N	0.068849	2.707002	0.641594	7
H	-2.418111	0.649622	1.356954	1
H	-0.308331	-0.338928	1.448304	1
H	-0.484421	0.052433	-1.598786	1
H	-0.735742	-1.486697	-0.807746	1
H	3.477369	-1.159137	-0.697796	1
Es	-1.563963	0.161216	0.606289	99
Es	2.425795	-0.982410	-0.695069	99
Es	0.213837	2.102019	0.669040	99
Es	-2.224940	0.225710	0.358393	99
Es	-0.448996	0.935813	0.569522	99
Es	-0.428263	-0.151563	-0.069377	99
Es	-0.248466	1.591083	0.587966	99
Es	-0.417027	-0.146211	1.155295	99
Es	0.542465	-0.649176	-0.693520	99
Es	-0.376126	-0.136131	-1.291576	99
Es	0.168657	3.057107	0.658374	99
Es	1.798129	-1.062256	-1.003383	99
Es	-2.122296	0.094563	0.613073	99
Es	0.068728	2.706577	0.641572	99
Es	3.108674	-1.098427	-0.696273	99
Es	-2.258757	0.392793	1.016068	99
Es	-0.208951	-0.528805	-0.709378	99
Es	-0.177990	2.242106	0.325766	99
Es	1.900768	-0.529683	-0.698768	99
Es	1.807946	-1.055518	-0.378339	99
Es	-0.543496	-1.163623	-0.758592	99
Es	-0.271836	2.237007	0.857327	99
Es	-2.172010	-0.195460	0.684524	99
Es	-0.687642	0.180941	0.560370	99
Es	1.241962	-0.779658	-0.699214	99
37
Properties=species:S:1:pos:R:3:Z:I:1 energy=-321.5927078413141 field_type=dipole dipole="0.000000 0.000000 0.000000" charge=0
O	-2.122521	0.094423	0.612814	8
C	-0.687461	0.180763	0.560424	6
C	-0.209082	-0.528827	-0.709456	6
C	1.242259	-0.779707	-0.699216	6
C	2.425569	-0.982367	-0.695076	6
C	-0.248372	1.591422	0.587984	6
N	0.068849	2.707002	0.641594	7
H	-2.418111	0.649622	1.356954	1
H	-0.308331	-0.338928	1.448304	1
H	-0.484421	0.052433	-1.598786	1
H	-0.735742	-1.486697	-0.807746	1
H	3.477369	-1.159137	-0.697796	1
Es	-0.417035	-0.146094	1.155297	99
Es	-2.226210	0.223354	0.358180	99
Es	-0.248463	1.591082	0.587968	99
Es	-0.377249	2.271081	0.624971	99
Es	0.068883	2.164419	0.345858	99
Es	0.068724	2.706571	0.641575	99
Es	0.167057	3.057263	0.657619	99
Es	-1.563970	0.162678	0.605271	99
Es	1.241962	-0.779658	-0.699214	99
Es	1.801132	-1.044957	-1.012783	99
Es	-0.448746	0.935509	0.569823	99
Es	-0.687642	0.180941	0.560370	99
Es	-0.543449	-1.163684	-0.758677	99
Es	1.899906	-0.529669	-0.679375	99
Es	-2.122328	0.094563	0.612956	99
Es	-2.259104	0.393444	1.015474	99
Es	-0.375967	-0.136160	-1.291624	99
Es	-0.208952	-0.528805	-0.709377	99
Es	-0.428308	-0.151560	-0.069310	99
Es	2.425794	-0.982411	-0.695071	99
Es	1.805696	-1.072951	-0.388473	99
Es	0.073674	2.145746	0.881706	99
Es	3.108743	-1.098340	-0.696201	99
Es	0.542388	-0.649122	-0.693370	99
Es	-2.170336	-0.195227	0.686498	99
37
Properties=species:S:1:pos:R:3:Z:I:1 energy=-321.5927078413141 field_type=dipole dipole="0.000000 0.000000 0.000000" charge=0
O	-2.122521	0.094423	0.612814	8
C	-0.687461	0.180763	0.560424	6
C	-0.209082	-0.528827	-0.709456	6
C	1.242259	-0.779707	-0.699216	6
C	2.425569	-0.982367	-0.695076	6
C	-0.248372	1.591422	0.587984	6
N	0.068849	2.707002	0.641594	7
H	-2.418111	0.649622	1.356954	1
H	-0.308331	-0.338928	1.448304	1
H	-0.484421	0.052433	-1.598786	1
H	-0.735742	-1.486697	-0.807746	1
H	3.477369	-1.159137	-0.697796	1
Es	-0.449033	0.935613	0.569611	99
Es	-0.184552	2.243950	0.328086	99
Es	-0.248469	1.591084	0.587968	99
Es	-2.226995	0.221807	0.356240	99
Es	-1.563880	0.161695	0.605931	99
Es	1.803338	-1.032861	-1.019263	99
Es	0.215064	2.101848	0.661601	99
Es	-0.266540	2.235804	0.862459	99
Es	-2.122320	0.094646	0.613014	99
Es	-0.543523	-1.163663	-0.758599	99
Es	1.241977	-0.779658	-0.699214	99
Es	3.108649	-1.098411	-0.696334	99
Es	1.899208	-0.530002	-0.664378	99
Es	-2.169791	-0.193590	0.688424	99
Es	-0.375959	-0.136119	-1.291667	99
Es	0.542249	-0.649355	-0.693491	99
Es	-0.417010	-0.146162	1.155295	99
Es	-0.428080	-0.151371	-0.069364	99
Es	0.168712	3.056678	0.658355	99
Es	0.068722	2.706564	0.641574	99
Es	-2.259080	0.394307	1.014735	99
Es	1.804314	-1.084519	-0.396815	99
Es	-0.687638	0.180940	0.560370	99
Es	-0.208952	-0.528803	-0.709376	99
Es	2.425791	-0.982409	-0.695071	99
37
Properties=species:S:1:pos:R:3:Z:I:1 energy=-321.5927078413141 field_type=dipole dipole="0.000000 0.000000 0.000000" charge=0
O	-2.122521	0.094423	0.612814	8
C	-0.687461	0.180763	0.560424	6
C	-0.209082	-0.528827	-0.709456	6
C	1.242259	-0.779707	-0.699216	6
C	2.425569	-0.982367	-0.695076	6
C	-0.248372	1.591422	0.587984	6
N	0.068849	2.707002	0.641594	7
H	-2.418111	0.649622	1.356954	1
H	-0.308331	-0.338928	1.448304	1
H	-0.484421	0.052433	-1.598786	1
H	-0.735742	-1.486697	-0.807746	1
H	3.477369	-1.159137	-0.697796	1
Es	-0.543373	-1.163715	-0.758638	99
Es	-0.208953	-0.528805	-0.709378	99
Es	-2.259222	0.393266	1.015771	99
Es	1.804887	-1.079611	-0.392662	99
Es	-0.416920	-0.146037	1.155332	99
Es	-0.428124	-0.151419	-0.069345	99
Es	-0.248459	1.591082	0.587986	99
Es	3.108647	-1.098400	-0.696280	99
Es	-0.687630	0.180938	0.560370	99
Es	0.168720	3.056504	0.658493	99
Es	-1.563654	0.161308	0.606013	99
Es	2.425793	-0.982411	-0.695072	99
Es	1.899512	-0.530115	-0.671148	99
Es	-0.246640	2.230796	0.877362	99
Es	1.802463	-1.037693	-1.016734	99
Es	-0.376002	-0.136134	-1.291688	99
Es	0.542208	-0.649224	-0.693488	99
Es	1.241962	-0.779658	-0.699215	99
Es	0.068721	2.706562	0.641573	99
Es	-0.207605	2.249673	0.339013	99
Es	0.218218	2.101289	0.635604	99
Es	-2.122315	0.094706	0.612984	99
Es	-2.225641	0.223943	0.358124	99
Es	-2.171263	-0.194354	0.685559	99
Es	-0.449128	0.935521	0.569553	99
37
Properties=species:S:1:pos:R:3:Z:I:1 energy=-321.5927078413141 field_type=dipole dipole="0.000000 0.000000 0.000000" charge=0
O	-2.122521	0.094423	0.612814	8
C	-0.687461	0.180763	0.560424	6
C	-0.209082	-0.528827	-0.709456	6
C	1.242259	-0.779707	-0.699216	6
C	2.425569	-0.982367	-0.695076	6
C	-0.248372	1.591422	0.587984	6
N	0.068849	2.707002	0.641594	7
H	-2.418111	0.649622	1.356954	1
H	-0.308331	-0.338928	1.448304	1
H	-0.484421	0.052433	-1.598786	1
H	-0.735742	-1.486697	-0.807746	1
H	3.477369	-1.159137	-0.697796	1
Es	-0.208954	-0.528805	-0.709379	99
Es	2.425793	-0.982410	-0.695072	99
Es	-1.563578	0.161878	0.605503	99
Es	-0.248465	1.591083	0.587966	99
Es	-2.122302	0.094651	0.613029	99
Es	1.799874	-1.118549	-0.422980	99
Es	-2.259552	0.394273	1.014968	99
Es	-0.448899	0.935318	0.569555	99
Es	-0.375951	-0.136149	-1.291690	99
Es	0.068722	2.706563	0.641574	99
Es	-0.416950	-0.145966	1.155305	99
Es	-2.226636	0.221642	0.357342	99
Es	-0.428038	-0.151413	-0.069316	99
Es	-0.543370	-1.163768	-0.758656	99
Es	1.241963	-0.779659	-0.699214	99
Es	1.896267	-0.535633	-0.622622	99
Es	-0.331774	2.253094	0.788323	99
Es	-2.170037	-0.193583	0.687601	99
Es	1.810740	-0.993298	-1.034949	99
Es	0.542118	-0.649293	-0.693471	99
Es	3.108647	-1.098247	-0.696301	99
Es	0.167802	3.056477	0.658545	99
Es	-0.687640	0.180939	0.560370	99
Es	0.185988	2.110830	0.757329	99
Es	-0.089565	2.218036	0.306332	99
37
Properties=species:S:1:pos:R:3:Z:I:1 energy=-321.5927078413141 field_type=dipole dipole="0.000000 0.000000 0.000000" charge=0
O	-2.122521	0.094423	0.612814	8
C	-0.687461	0.180763	0.560424	6
C	-0.209082	-0.528827	-0.709456	6
C	1.242259	-0.779707	-0.699216	6
C	2.425569	-0.982367	-0.695076	6
C	-0.248372	1.591422	0.587984	6
N	0.068849	2.707002	0.641594	7
H	-2.418111	0.649622	1.356954	1
H	-0.308331	-0.338928	1.448304	1
H	-0.484421	0.052433	-1.598786	1
H	-0.735742	-1.486697	-0.807746	1
H	3.477369	-1.159137	-0.697796	1
Es	-0.416903	-0.145865	1.155364	99
Es	1.807653	-1.009523	-1.028980	99
Es	-0.375817	-0.136169	-1.291688	99
Es	-0.248463	1.591084	0.587965	99
Es	-2.122320	0.094654	0.612992	99
Es	0.542076	-0.649140	-0.693418	99
Es	3.108613	-1.098208	-0.696322	99
Es	0.168366	3.056180	0.658014	99
Es	-0.428018	-0.151325	-0.069373	99
Es	-0.203958	2.248834	0.337108	99
Es	2.425793	-0.982410	-0.695070	99
Es	1.801593	-1.105682	-0.412216	99
Es	-2.226914	0.221155	0.357308	99
Es	-0.543381	-1.163834	-0.758721	99
Es	-0.687632	0.180934	0.560369	99
Es	0.218424	2.101388	0.639955	99
Es	0.068722	2.706565	0.641573	99
Es	-0.449258	0.935329	0.569578	99
Es	-0.208952	-0.528804	-0.709376	99
Es	-2.259673	0.394324	1.014862	99
Es	-0.250072	2.231884	0.875412	99
Es	-2.169775	-0.193272	0.687948	99
Es	-1.563493	0.162019	0.605367	99
Es	1.897627	-0.532448	-0.639348	99
Es	1.241965	-0.779657	-0.699214	99
37
Properties=species:S:1:pos:R:3:Z:I:1 energy=-321.5927078413141 field_type=dipole dipole="0.000000 0.000000 0.000000" charge=0
O	-2.122521	0.094423	0.612814	8
C	-0.687461	0.180763	0.560424	6
C	-0.209082	-0.528827	-0.709456	6
C	1.242259	-0.779707	-0.699216	6
C	2.425569	-0.982367	-0.695076	6
C	-0.248372	1.591422	0.587984	6
N	0.068849	2.707002	0.641594	7
H	-2.418111	0.649622	1.356954	1
H	-0.308331	-0.338928	1.448304	1
H	-0.484421	0.052433	-1.598786	1
H	-0.735742	-1.486697	-0.807746	1
H	3.477369	-1.159137	-0.697796	1
Es	-0.687636	0.180940	0.560371	99
Es	-2.122312	0.094586	0.613045	99
Es	-0.416904	-0.145797	1.155332	99
Es	0.068719	2.706562	0.641574	99
Es	3.108613	-1.098137	-0.696365	99
Es	-0.427916	-0.151319	-0.069259	99
Es	1.799180	-1.124362	-0.428814	99
Es	-2.171294	-0.194138	0.685212	99
Es	0.184095	2.111502	0.761634	99
Es	-1.563354	0.161527	0.605967	99
Es	-2.225016	0.223174	0.358768	99
Es	1.812077	-0.986467	-1.037089	99
Es	-0.375919	-0.136214	-1.291749	99
Es	1.895671	-0.536794	-0.614530	99
Es	-0.543268	-1.163770	-0.758668	99
Es	2.425797	-0.982405	-0.695074	99
Es	0.167856	3.056093	0.658590	99
Es	-0.248461	1.591085	0.587965	99
Es	-0.208956	-0.528806	-0.709381	99
Es	-2.260225	0.393682	1.015464	99
Es	-0.085107	2.216872	0.305922	99
Es	1.241960	-0.779659	-0.699213	99
Es	0.541995	-0.649266	-0.693568	99
Es	-0.334402	2.254002	0.784394	99
Es	-0.448991	0.935121	0.569563	99
37
Properties=species:S:1:pos:R:3:Z:I:1 energy=-321.5927078413141 field_type=dipole dipole="0.000000 0.000000 0.000000" charge=0
O	-2.122521	0.094423	0.612814	8
C	-0.687461	0.180763	0.560424	6
C	-0.209082	-0.528827	-0.709456	6
C	1.242259	-0.779707	-0.699216	6
C	2.425569	-0.982367	-0.695076	6
C	-0.248372	1.591422	0.587984	6
N	0.068849	2.707002	0.641594	7
H	-2.418111	0.649622	1.356954	1
H	-0.308331	-0.338928	1.448304	1
H	-0.484421	0.052433	-1.598786	1
H	-0.735742	-1.486697	-0.807746	1
H	3.477369	-1.159137	-0.697796	1
Es	1.800460	-1.114166	-0.418907	99
Es	-0.153994	2.236557	0.316205	99
Es	1.809637	-0.999024	-1.032759	99
Es	-0.427864	-0.151300	-0.069354	99
Es	-0.449203	0.935182	0.569644	99
Es	-2.259882	0.394245	1.015009	99
Es	1.896825	-0.534318	-0.629011	99
Es	0.068722	2.706561	0.641573	99
Es	0.168269	3.055713	0.658664	99
Es	0.208955	2.103877	0.693610	99
Es	-0.248471	1.591085	0.587979	99
Es	-0.375818	-0.136161	-1.291789	99
Es	-2.122324	0.094632	0.613053	99
Es	1.241962	-0.779658	-0.699212	99
Es	-1.563229	0.161175	0.605851	99
Es	-0.208957	-0.528803	-0.709383	99
Es	2.425792	-0.982409	-0.695071	99
Es	-0.290506	2.242187	0.842049	99
Es	-2.225665	0.222296	0.358123	99
Es	-0.687642	0.180939	0.560370	99
Es	-2.171132	-0.193419	0.686435	99
Es	3.108591	-1.098266	-0.696273	99
Es	-0.543303	-1.163838	-0.758668	99
Es	0.541926	-0.649253	-0.693360	99
Es	-0.416946	-0.145822	1.155312	99
