41
Properties=species:S:1:pos:R:3:Z:I:1 energy=-359.7579258782651 field_type=dipole dipole="0.000000 0.000000 0.000000" charge=0
O	-2.072423	-1.480297	0.083774	8
C	-0.687023	-1.158667	-0.009986	6
C	-0.468302	0.322723	0.055394	6
C	-1.415902	1.265183	0.186564	6
C	0.939727	0.787103	-0.034296	6
N	1.942677	-0.022887	-0.155246	7
O	3.125227	0.724343	-0.211636	8
H	-2.131682	-2.448867	0.030494	1
H	-0.313593	-1.556837	-0.959246	1
H	-0.170012	-1.656747	0.816844	1
H	-2.463892	0.986503	0.257654	1
H	-1.189492	2.325163	0.227904	1
H	1.096877	1.880613	0.008234	1
H	3.807807	0.032673	-0.296456	1
Es	-1.256868	1.980269	0.213747	99
Es	-0.587508	-0.405276	0.024129	99
Es	-1.415944	1.265239	0.186571	99
Es	-2.083003	-2.003311	0.053532	99
Es	-2.117216	1.091112	0.234759	99
Es	-1.542615	-1.374581	0.047578	99
Es	1.942678	-0.022256	-0.155215	99
Es	1.513300	0.314090	0.188068	99
Es	-2.072179	-1.480505	0.083701	99
Es	0.939678	0.787074	-0.034281	99
Es	2.607221	0.397758	-0.187026	99
Es	-0.687257	-1.158634	-0.009965	99
Es	-0.425636	-1.418268	-0.654876	99
Es	3.486905	0.350065	-0.256969	99
Es	0.249856	0.535512	0.007780	99
Es	1.467321	0.343732	-0.390335	99
Es	3.143887	0.855878	0.065054	99
Es	3.102353	0.881855	-0.474276	99
Es	1.970212	-0.402052	-0.176705	99
Es	1.040677	1.520935	-0.005537	99
Es	-0.468151	0.322651	0.055377	99
Es	3.125203	0.723981	-0.211660	99
Es	-0.934849	0.811100	-0.203073	99
Es	-0.328125	-1.485920	0.551773	99
Es	-0.881423	0.774998	0.439609	99
Es	-2.163364	-1.401245	0.366232	99
Es	-2.205629	-1.369938	-0.169972	99
41
Properties=species:S:1:pos:R:3:Z:I:1 energy=-359.7579258782651 field_type=dipole dipole="0.000000 0.000000 0.000000" charge=0
O	-2.072423	-1.480297	0.083774	8
C	-0.687023	-1.158667	-0.009986	6
C	-0.468302	0.322723	0.055394	6
C	-1.415902	1.265183	0.186564	6
C	0.939727	0.787103	-0.034296	6
N	1.942677	-0.022887	-0.155246	7
O	3.125227	0.724343	-0.211636	8
H	-2.131682	-2.448867	0.030494	1
H	-0.313593	-1.556837	-0.959246	1
H	-0.170012	-1.656747	0.816844	1
H	-2.463892	0.986503	0.257654	1
H	-1.189492	2.325163	0.227904	1
H	1.096877	1.880613	0.008234	1
H	3.807807	0.032673	-0.296456	1
Es	-2.082832	-2.002994	0.052718	99
Es	3.486569	0.350087	-0.256749	99
Es	1.513189	0.313991	0.188026	99
Es	-0.587498	-0.405400	0.024240	99
Es	-0.687257	-1.158635	-0.009965	99
Es	-2.072139	-1.480532	0.083746	99
Es	-0.425684	-1.418091	-0.654942	99
Es	0.939678	0.787074	-0.034287	99
Es	-0.328091	-1.486087	0.551638	99
Es	-2.117158	1.091182	0.234697	99
Es	1.970220	-0.401617	-0.176672	99
Es	-2.206856	-1.368827	-0.169512	99
Es	-1.415943	1.265244	0.186571	99
Es	-1.542664	-1.374640	0.047281	99
Es	-0.881381	0.774931	0.439546	99
Es	1.040725	1.520949	-0.005331	99
Es	2.606756	0.397986	-0.187180	99
Es	-0.468151	0.322651	0.055376	99
Es	0.249767	0.535459	0.008013	99
Es	3.144272	0.856449	0.064876	99
Es	-1.256853	1.980264	0.213964	99
Es	1.467225	0.343372	-0.390704	99
Es	3.102905	0.881131	-0.474153	99
Es	3.125202	0.723969	-0.211644	99
Es	1.942716	-0.022278	-0.155220	99
Es	-0.934849	0.811200	-0.203165	99
Es	-2.162340	-1.402573	0.366850	99
41
Properties=species:S:1:pos:R:3:Z:I:1 energy=-359.7579258782651 field_type=dipole dipole="0.000000 0.000000 0.000000" charge=0
O	-2.072423	-1.480297	0.083774	8
C	-0.687023	-1.158667	-0.009986	6
C	-0.468302	0.322723	0.055394	6
C	-1.415902	1.265183	0.186564	6
C	0.939727	0.787103	-0.034296	6
N	1.942677	-0.022887	-0.155246	7
O	3.125227	0.724343	-0.211636	8
H	-2.131682	-2.448867	0.030494	1
H	-0.313593	-1.556837	-0.959246	1
H	-0.170012	-1.656747	0.816844	1
H	-2.463892	0.986503	0.257654	1
H	-1.189492	2.325163	0.227904	1
H	1.096877	1.880613	0.008234	1
H	3.807807	0.032673	-0.296456	1
Es	1.942716	-0.022283	-0.155221	99
Es	-2.165758	-1.399082	0.364506	99
Es	3.102826	0.886985	-0.471651	99
Es	-0.934657	0.811225	-0.203335	99
Es	1.513168	0.314054	0.187884	99
Es	-0.468152	0.322651	0.055378	99
Es	-2.082904	-2.003449	0.055520	99
Es	-0.881554	0.774998	0.439333	99
Es	-0.328067	-1.485933	0.551708	99
Es	-1.256887	1.980307	0.213926	99
Es	-1.542243	-1.374125	0.048535	99
Es	2.607006	0.397589	-0.188262	99
Es	0.249755	0.535422	0.008181	99
Es	3.125199	0.723922	-0.211486	99
Es	-2.072142	-1.480537	0.083782	99
Es	-2.203810	-1.372430	-0.171244	99
Es	-0.425654	-1.418197	-0.654843	99
Es	-2.117144	1.091093	0.234827	99
Es	1.970045	-0.401407	-0.176483	99
Es	3.487445	0.350452	-0.258686	99
Es	-1.415941	1.265240	0.186570	99
Es	-0.587520	-0.405418	0.024214	99
Es	-0.687258	-1.158634	-0.009964	99
Es	1.467179	0.343202	-0.390770	99
Es	3.143458	0.850580	0.065194	99
Es	1.040740	1.520962	-0.005298	99
Es	0.939678	0.787074	-0.034293	99
41
Properties=species:S:1:pos:R:3:Z:I:1 energy=-359.7579258782651 field_type=dipole dipole="0.000000 0.000000 0.000000" charge=0
O	-2.072423	-1.480297	0.083774	8
C	-0.687023	-1.158667	-0.009986	6
C	-0.468302	0.322723	0.055394	6
C	-1.415902	1.265183	0.186564	6
C	0.939727	0.787103	-0.034296	6
N	1.942677	-0.022887	-0.155246	7
O	3.125227	0.724343	-0.211636	8
H	-2.131682	-2.448867	0.030494	1
H	-0.313593	-1.556837	-0.959246	1
H	-0.170012	-1.656747	0.816844	1
H	-2.463892	0.986503	0.257654	1
H	-1.189492	2.325163	0.227904	1
H	1.096877	1.880613	0.008234	1
H	3.807807	0.032673	-0.296456	1
Es	1.970148	-0.401257	-0.176887	99
Es	1.040757	1.520959	-0.005325	99
Es	3.102385	0.881758	-0.472974	99
Es	-1.542336	-1.374346	0.046976	99
Es	0.939676	0.787076	-0.034302	99
Es	-2.083597	-2.003463	0.052904	99
Es	-2.162427	-1.402095	0.365998	99
Es	-0.587435	-0.405584	0.024467	99
Es	3.125196	0.724001	-0.211669	99
Es	2.606675	0.397774	-0.186733	99
Es	-0.468154	0.322655	0.055386	99
Es	-0.881517	0.775041	0.439129	99
Es	-0.934686	0.811147	-0.203095	99
Es	3.487382	0.350376	-0.257636	99
Es	-1.415941	1.265240	0.186570	99
Es	-0.425631	-1.418059	-0.654860	99
Es	-2.117175	1.091074	0.234822	99
Es	-2.072152	-1.480514	0.083774	99
Es	1.513093	0.313712	0.188139	99
Es	-0.687255	-1.158634	-0.009966	99
Es	0.249699	0.535588	0.008040	99
Es	1.467215	0.343291	-0.390591	99
Es	1.942680	-0.022265	-0.155213	99
Es	3.144295	0.855724	0.064172	99
Es	-0.328077	-1.486036	0.551559	99
Es	-2.206429	-1.369215	-0.168565	99
Es	-1.256861	1.980313	0.213900	99
41
Properties=species:S:1:pos:R:3:Z:I:1 energy=-359.7579258782651 field_type=dipole dipole="0.000000 0.000000 0.000000" charge=0
O	-2.072423	-1.480297	0.083774	8
C	-0.687023	-1.158667	-0.009986	6
C	-0.468302	0.322723	0.055394	6
C	-1.415902	1.265183	0.186564	6
C	0.939727	0.787103	-0.034296	6
N	1.942677	-0.022887	-0.155246	7
O	3.125227	0.724343	-0.211636	8
H	-2.131682	-2.448867	0.030494	1
H	-0.313593	-1.556837	-0.959246	1
H	-0.170012	-1.656747	0.816844	1
H	-2.463892	0.986503	0.257654	1
H	-1.189492	2.325163	0.227904	1
H	1.096877	1.880613	0.008234	1
H	3.807807	0.032673	-0.296456	1
Es	-1.415941	1.265240	0.186573	99
Es	-0.425604	-1.418159	-0.654785	99
Es	0.249656	0.535461	0.008223	99
Es	1.513149	0.314099	0.187652	99
Es	-2.083694	-2.003825	0.054271	99
Es	-0.687258	-1.158634	-0.009966	99
Es	-0.587489	-0.405501	0.024204	99
Es	-0.881481	0.775019	0.439225	99
Es	0.939678	0.787074	-0.034289	99
Es	2.606750	0.397497	-0.186882	99
Es	-2.072166	-1.480516	0.083786	99
Es	1.040809	1.520936	-0.005324	99
Es	-0.468153	0.322653	0.055374	99
Es	-1.542111	-1.373676	0.046297	99
Es	-1.256790	1.980320	0.213845	99
Es	1.942695	-0.022262	-0.155215	99
Es	-2.204823	-1.371802	-0.168503	99
Es	-0.328076	-1.485916	0.551639	99
Es	-2.164154	-1.399842	0.365226	99
Es	-0.934738	0.811179	-0.203110	99
Es	3.487886	0.350445	-0.257140	99
Es	3.143705	0.854267	0.063454	99
Es	3.102718	0.883330	-0.472352	99
Es	1.969912	-0.401084	-0.176178	99
Es	1.467100	0.342940	-0.390935	99
Es	3.125145	0.723907	-0.211924	99
Es	-2.117199	1.091111	0.234856	99
41
Properties=species:S:1:pos:R:3:Z:I:1 energy=-359.7579258782651 field_type=dipole dipole="0.000000 0.000000 0.000000" charge=0
O	-2.072423	-1.480297	0.083774	8
C	-0.687023	-1.158667	-0.009986	6
C	-0.468302	0.322723	0.055394	6
C	-1.415902	1.265183	0.186564	6
C	0.939727	0.787103	-0.034296	6
N	1.942677	-0.022887	-0.155246	7
O	3.125227	0.724343	-0.211636	8
H	-2.131682	-2.448867	0.030494	1
H	-0.313593	-1.556837	-0.959246	1
H	-0.170012	-1.656747	0.816844	1
H	-2.463892	0.986503	0.257654	1
H	-1.189492	2.325163	0.227904	1
H	1.096877	1.880613	0.008234	1
H	3.807807	0.032673	-0.296456	1
Es	-0.687252	-1.158632	-0.009966	99
Es	-0.328070	-1.485937	0.551549	99
Es	-1.542108	-1.374021	0.046705	99
Es	3.144133	0.855572	0.063258	99
Es	0.939679	0.787074	-0.034301	99
Es	-0.587558	-0.405478	0.024179	99
Es	3.487821	0.350527	-0.257311	99
Es	-2.072156	-1.480501	0.083756	99
Es	-2.206118	-1.369824	-0.168082	99
Es	-0.425621	-1.418151	-0.654720	99
Es	1.040818	1.520905	-0.005325	99
Es	1.942677	-0.022271	-0.155215	99
Es	-2.117185	1.091080	0.234910	99
Es	-0.881578	0.775027	0.439045	99
Es	-1.415939	1.265237	0.186570	99
Es	2.606769	0.397392	-0.186617	99
Es	-2.083771	-2.003557	0.052939	99
Es	0.249691	0.535568	0.008074	99
Es	3.125207	0.723981	-0.211658	99
Es	1.467182	0.343139	-0.390592	99
Es	1.513128	0.313881	0.187732	99
Es	-1.256779	1.980344	0.213968	99
Es	-2.162806	-1.401824	0.365772	99
Es	-0.468152	0.322654	0.055381	99
Es	3.102527	0.881884	-0.472543	99
Es	1.969634	-0.400939	-0.176573	99
Es	-0.934645	0.811134	-0.202915	99
41
Properties=species:S:1:pos:R:3:Z:I:1 energy=-359.7579258782651 field_type=dipole dipole="0.000000 0.000000 0.000000" charge=0
O	-2.072423	-1.480297	0.083774	8
C	-0.687023	-1.158667	-0.009986	6
C	-0.468302	0.322723	0.055394	6
C	-1.415902	1.265183	0.186564	6
C	0.939727	0.787103	-0.034296	6
N	1.942677	-0.022887	-0.155246	7
O	3.125227	0.724343	-0.211636	8
H	-2.131682	-2.448867	0.030494	1
H	-0.313593	-1.556837	-0.959246	1
H	-0.170012	-1.656747	0.816844	1
H	-2.463892	0.986503	0.257654	1
H	-1.189492	2.325163	0.227904	1
H	1.096877	1.880613	0.008234	1
H	3.807807	0.032673	-0.296456	1
Es	-2.072160	-1.480522	0.083732	99
Es	-2.205550	-1.370706	-0.168486	99
Es	-1.541875	-1.373620	0.047224	99
Es	0.939680	0.787073	-0.034291	99
Es	-2.163583	-1.401061	0.364610	99
Es	1.513072	0.313737	0.187847	99
Es	3.125188	0.723970	-0.211729	99
Es	-1.256756	1.980403	0.213917	99
Es	3.488162	0.350698	-0.256524	99
Es	-1.415938	1.265237	0.186577	99
Es	1.969620	-0.400562	-0.176267	99
Es	-2.117225	1.091011	0.234731	99
Es	3.102680	0.880292	-0.472498	99
Es	-0.587588	-0.405578	0.024162	99
Es	-0.328046	-1.485942	0.551597	99
Es	-0.934652	0.811238	-0.202777	99
Es	-0.468153	0.322653	0.055380	99
Es	-2.083840	-2.003777	0.053981	99
Es	-0.881542	0.774970	0.438978	99
Es	2.606780	0.397160	-0.187135	99
Es	1.942704	-0.022283	-0.155218	99
Es	-0.687256	-1.158634	-0.009966	99
Es	1.040911	1.520932	-0.005344	99
Es	1.467038	0.342844	-0.390844	99
Es	3.143758	0.857205	0.062930	99
Es	-0.425599	-1.418072	-0.654766	99
Es	0.249695	0.535599	0.008199	99
41
Properties=species:S:1:pos:R:3:Z:I:1 energy=-359.7579258782651 field_type=dipole dipole="0.000000 0.000000 0.000000" charge=0
O	-2.072423	-1.480297	0.083774	8
C	-0.687023	-1.158667	-0.009986	6
C	-0.468302	0.322723	0.055394	6
C	-1.415902	1.265183	0.186564	6
C	0.939727	0.787103	-0.034296	6
N	1.942677	-0.022887	-0.155246	7
O	3.125227	0.724343	-0.211636	8
H	-2.131682	-2.448867	0.030494	1
H	-0.313593	-1.556837	-0.959246	1
H	-0.170012	-1.656747	0.816844	1
H	-2.463892	0.986503	0.257654	1
H	-1.189492	2.325163	0.227904	1
H	1.096877	1.880613	0.008234	1
H	3.807807	0.032673	-0.296456	1
Es	-2.084070	-2.004032	0.054794	99
Es	0.249632	0.535456	0.008079	99
Es	2.606545	0.397199	-0.186816	99
Es	-0.687254	-1.158634	-0.009966	99
Es	3.125213	0.723988	-0.211588	99
Es	-2.206673	-1.370003	-0.168359	99
Es	-0.328042	-1.485900	0.551561	99
Es	-2.072104	-1.480576	0.083949	99
Es	-0.881411	0.775075	0.439016	99
Es	-2.117252	1.091044	0.234839	99
Es	1.513102	0.313844	0.187666	99
Es	3.488280	0.350764	-0.257279	99
Es	-0.425573	-1.418064	-0.654758	99
Es	3.144089	0.856199	0.062601	99
Es	1.467093	0.342864	-0.390647	99
Es	-0.934772	0.811128	-0.202737	99
Es	1.040846	1.520949	-0.005339	99
Es	0.939678	0.787074	-0.034289	99
Es	-1.415940	1.265237	0.186570	99
Es	-0.587558	-0.405612	0.024248	99
Es	-0.468158	0.322659	0.055378	99
Es	-1.541803	-1.373570	0.047188	99
Es	3.102552	0.881144	-0.471876	99
Es	-1.256717	1.980380	0.213806	99
Es	1.969531	-0.400544	-0.176307	99
Es	-2.162394	-1.401541	0.363504	99
Es	1.942686	-0.022263	-0.155220	99
41
Properties=species:S:1:pos:R:3:Z:I:1 energy=-359.7579258782651 field_type=dipole dipole="0.000000 0.000000 0.000000" charge=0
O	-2.072423	-1.480297	0.083774	8
C	-0.687023	-1.158667	-0.009986	6
C	-0.468302	0.322723	0.055394	6
C	-1.415902	1.265183	0.186564	6
C	0.939727	0.787103	-0.034296	6
N	1.942677	-0.022887	-0.155246	7
O	3.125227	0.724343	-0.211636	8
H	-2.131682	-2.448867	0.030494	1
H	-0.313593	-1.556837	-0.959246	1
H	-0.170012	-1.656747	0.816844	1
H	-2.463892	0.986503	0.257654	1
H	-1.189492	2.325163	0.227904	1
H	1.096877	1.880613	0.008234	1
H	3.807807	0.032673	-0.296456	1
Es	1.040907	1.520958	-0.005466	99
Es	-1.541965	-1.373370	0.045985	99
Es	2.606510	0.397185	-0.186816	99
Es	0.249600	0.535480	0.008336	99
Es	3.488531	0.350793	-0.256861	99
Es	-0.468154	0.322655	0.055378	99
Es	-0.587586	-0.405675	0.024243	99
Es	-0.881594	0.775015	0.438727	99
Es	-2.117228	1.091045	0.234897	99
Es	-0.687255	-1.158634	-0.009966	99
Es	-2.084013	-2.003885	0.053379	99
Es	3.125220	0.724012	-0.211618	99
Es	0.939679	0.787073	-0.034303	99
Es	-2.072136	-1.480535	0.083728	99
Es	-1.256669	1.980411	0.213975	99
Es	1.513025	0.313346	0.188130	99
Es	1.969422	-0.400042	-0.176899	99
Es	1.467072	0.342890	-0.390457	99
Es	-1.415938	1.265236	0.186566	99
Es	-0.934640	0.811195	-0.202856	99
Es	3.102503	0.879390	-0.471836	99
Es	-0.328054	-1.485848	0.551559	99
Es	-0.425544	-1.418097	-0.654745	99
Es	-2.207013	-1.369781	-0.167101	99
Es	1.942722	-0.022306	-0.155225	99
Es	3.144063	0.857917	0.062169	99
Es	-2.161938	-1.402164	0.365096	99
41
Properties=species:S:1:pos:R:3:Z:I:1 energy=-359.7579258782651 field_type=dipole dipole="0.000000 0.000000 0.000000" charge=0
O	-2.072423	-1.480297	0.083774	8
C	-0.687023	-1.158667	-0.009986	6
C	-0.468302	0.322723	0.055394	6
C	-1.415902	1.265183	0.186564	6
C	0.939727	0.787103	-0.034296	6
N	1.942677	-0.022887	-0.155246	7
O	3.125227	0.724343	-0.211636	8
H	-2.131682	-2.448867	0.030494	1
H	-0.313593	-1.556837	-0.959246	1
H	-0.170012	-1.656747	0.816844	1
H	-2.463892	0.986503	0.257654	1
H	-1.189492	2.325163	0.227904	1
H	1.096877	1.880613	0.008234	1
H	3.807807	0.032673	-0.296456	1
Es	3.144047	0.855380	0.062446	99
Es	3.102718	0.881891	-0.471353	99
Es	1.040892	1.520933	-0.005362	99
Es	1.969459	-0.400173	-0.176241	99
Es	-0.687252	-1.158634	-0.009966	99
Es	3.125221	0.723981	-0.211664	99
Es	1.942713	-0.022267	-0.155209	99
Es	-2.084373	-2.003884	0.053586	99
Es	2.606455	0.397156	-0.186950	99
Es	-0.468153	0.322655	0.055379	99
Es	1.513054	0.313685	0.187663	99
Es	-1.415941	1.265239	0.186566	99
Es	0.249547	0.535439	0.008203	99
Es	3.488410	0.350903	-0.257460	99
Es	0.939680	0.787073	-0.034297	99
Es	-0.881411	0.775115	0.438795	99
Es	-1.541528	-1.373371	0.046906	99
Es	-0.934729	0.811160	-0.202648	99
Es	-2.162641	-1.401987	0.364195	99
Es	-1.256699	1.980415	0.213783	99
Es	-0.328026	-1.485856	0.551543	99
Es	-2.206373	-1.370000	-0.167346	99
Es	-2.117267	1.090989	0.234897	99
Es	1.467042	0.342701	-0.390690	99
Es	-0.587601	-0.405706	0.024232	99
Es	-0.425555	-1.418053	-0.654732	99
Es	-2.072163	-1.480521	0.083745	99
41
Properties=species:S:1:pos:R:3:Z:I:1 energy=-359.7579258782651 field_type=dipole dipole="0.000000 0.000000 0.000000" charge=0
O	-2.072423	-1.480297	0.083774	8
C	-0.687023	-1.158667	-0.009986	6
C	-0.468302	0.322723	0.055394	6
C	-1.415902	1.265183	0.186564	6
C	0.939727	0.787103	-0.034296	6
N	1.942677	-0.022887	-0.155246	7
O	3.125227	0.724343	-0.211636	8
H	-2.131682	-2.448867	0.030494	1
H	-0.313593	-1.556837	-0.959246	1
H	-0.170012	-1.656747	0.816844	1
H	-2.463892	0.986503	0.257654	1
H	-1.189492	2.325163	0.227904	1
H	1.096877	1.880613	0.008234	1
H	3.807807	0.032673	-0.296456	1
Es	0.249527	0.535458	0.008246	99
Es	3.488510	0.351080	-0.255467	99
Es	1.969234	-0.400073	-0.176577	99
Es	0.939677	0.787074	-0.034294	99
Es	2.606514	0.396826	-0.185945	99
Es	3.102832	0.879104	-0.472822	99
Es	1.942672	-0.022271	-0.155208	99
Es	-0.934643	0.811207	-0.202760	99
Es	1.513004	0.313423	0.187676	99
Es	-2.084559	-2.003950	0.053262	99
Es	-0.881522	0.775081	0.438683	99
Es	3.125200	0.723999	-0.211660	99
Es	-0.587567	-0.405722	0.024397	99
Es	-2.072140	-1.480541	0.083721	99
Es	1.467126	0.342923	-0.390413	99
Es	-1.415940	1.265237	0.186570	99
Es	-0.468157	0.322655	0.055382	99
Es	-2.117251	1.090978	0.234843	99
Es	-2.163962	-1.401721	0.363495	99
Es	-2.205139	-1.370256	-0.167699	99
Es	-1.541307	-1.373316	0.048333	99
Es	-1.256674	1.980450	0.213888	99
Es	1.040930	1.520940	-0.005351	99
Es	-0.687256	-1.158635	-0.009966	99
Es	-0.425550	-1.418011	-0.654753	99
Es	3.143991	0.858195	0.060970	99
Es	-0.328024	-1.485871	0.551469	99
41
Properties=species:S:1:pos:R:3:Z:I:1 energy=-359.7579258782651 field_type=dipole dipole="0.000000 0.000000 0.000000" charge=0
O	-2.072423	-1.480297	0.083774	8
C	-0.687023	-1.158667	-0.009986	6
C	-0.468302	0.322723	0.055394	6
C	-1.415902	1.265183	0.186564	6
C	0.939727	0.787103	-0.034296	6
N	1.942677	-0.022887	-0.155246	7
O	3.125227	0.724343	-0.211636	8
H	-2.131682	-2.448867	0.030494	1
H	-0.313593	-1.556837	-0.959246	1
H	-0.170012	-1.656747	0.816844	1
H	-2.463892	0.986503	0.257654	1
H	-1.189492	2.325163	0.227904	1
H	1.096877	1.880613	0.008234	1
H	3.807807	0.032673	-0.296456	1
Es	1.969298	-0.399829	-0.176139	99
Es	-0.687254	-1.158635	-0.009966	99
Es	1.942685	-0.022267	-0.155216	99
Es	-2.084614	-2.004106	0.053817	99
Es	-2.117272	1.090930	0.234850	99
Es	-1.541243	-1.372935	0.047458	99
Es	-0.425522	-1.418093	-0.654673	99
Es	2.606194	0.397054	-0.186279	99
Es	-0.587632	-0.405742	0.024259	99
Es	-0.934616	0.811217	-0.202619	99
Es	-1.415940	1.265238	0.186571	99
Es	0.939680	0.787073	-0.034281	99
Es	3.144134	0.856882	0.061052	99
Es	1.466987	0.342487	-0.390694	99
Es	-1.256702	1.980448	0.213855	99
Es	1.040945	1.521017	-0.005288	99
Es	1.512980	0.313647	0.187423	99
Es	-2.164617	-1.400618	0.363423	99
Es	-0.328037	-1.485791	0.551521	99
Es	-0.468157	0.322659	0.055388	99
Es	-2.072227	-1.480477	0.083760	99
Es	3.489001	0.351047	-0.256978	99
Es	-2.204415	-1.371660	-0.167370	99
Es	-0.881462	0.775135	0.438635	99
Es	3.125203	0.724008	-0.211655	99
Es	0.249546	0.535364	0.008262	99
Es	3.102584	0.880209	-0.471099	99
41
Properties=species:S:1:pos:R:3:Z:I:1 energy=-359.7579258782651 field_type=dipole dipole="0.000000 0.000000 0.000000" charge=0
O	-2.072423	-1.480297	0.083774	8
C	-0.687023	-1.158667	-0.009986	6
C	-0.468302	0.322723	0.055394	6
C	-1.415902	1.265183	0.186564	6
C	0.939727	0.787103	-0.034296	6
N	1.942677	-0.022887	-0.155246	7
O	3.125227	0.724343	-0.211636	8
H	-2.131682	-2.448867	0.030494	1
H	-0.313593	-1.556837	-0.959246	1
H	-0.170012	-1.656747	0.816844	1
H	-2.463892	0.986503	0.257654	1
H	-1.189492	2.325163	0.227904	1
H	1.096877	1.880613	0.008234	1
H	3.807807	0.032673	-0.296456	1
Es	-0.468152	0.322651	0.055380	99
Es	-2.084955	-2.003937	0.052666	99
Es	0.939679	0.787074	-0.034299	99
Es	-2.117333	1.091075	0.234902	99
Es	0.249516	0.535516	0.008148	99
Es	-0.425535	-1.418001	-0.654661	99
Es	-1.541369	-1.373247	0.045890	99
Es	-0.587544	-0.405763	0.024384	99
Es	-2.207116	-1.369265	-0.165812	99
Es	-0.687252	-1.158635	-0.009967	99
Es	1.942701	-0.022273	-0.155214	99
Es	-1.415942	1.265240	0.186569	99
Es	3.102915	0.880647	-0.470664	99
Es	2.606164	0.396900	-0.186880	99
Es	1.969024	-0.399731	-0.176906	99
Es	-0.881446	0.775118	0.438606	99
Es	3.489051	0.351175	-0.256905	99
Es	1.040932	1.520964	-0.005371	99
Es	-0.328035	-1.485881	0.551447	99
Es	3.125208	0.723989	-0.211652	99
Es	-1.256490	1.980467	0.213565	99
Es	1.512966	0.313282	0.187773	99
Es	3.143932	0.856426	0.061140	99
Es	-2.161458	-1.402913	0.364571	99
Es	1.467150	0.342857	-0.390149	99
Es	-0.934846	0.810985	-0.202291	99
Es	-2.072239	-1.480455	0.083747	99
41
Properties=species:S:1:pos:R:3:Z:I:1 energy=-359.7579258782651 field_type=dipole dipole="0.000000 0.000000 0.000000" charge=0
O	-2.072423	-1.480297	0.083774	8
C	-0.687023	-1.158667	-0.009986	6
C	-0.468302	0.322723	0.055394	6
C	-1.415902	1.265183	0.186564	6
C	0.939727	0.787103	-0.034296	6
N	1.942677	-0.022887	-0.155246	7
O	3.125227	0.724343	-0.211636	8
H	-2.131682	-2.448867	0.030494	1
H	-0.313593	-1.556837	-0.959246	1
H	-0.170012	-1.656747	0.816844	1
H	-2.463892	0.986503	0.257654	1
H	-1.189492	2.325163	0.227904	1
H	1.096877	1.880613	0.008234	1
H	3.807807	0.032673	-0.296456	1
Es	-2.085067	-2.004071	0.053300	99
Es	-0.881274	0.775149	0.438751	99
Es	-2.072216	-1.480479	0.083763	99
Es	-2.163463	-1.401581	0.363502	99
Es	-0.934741	0.811175	-0.202273	99
Es	0.939681	0.787075	-0.034292	99
Es	-0.425499	-1.418118	-0.654599	99
Es	2.606144	0.396940	-0.186389	99
Es	-0.328048	-1.485739	0.551427	99
Es	1.969077	-0.399464	-0.176412	99
Es	3.125218	0.723996	-0.211598	99
Es	0.249529	0.535422	0.008080	99
Es	3.102696	0.879507	-0.470811	99
Es	-0.468159	0.322669	0.055378	99
Es	-0.687253	-1.158634	-0.009966	99
Es	-2.117306	1.090918	0.234797	99
Es	-1.256703	1.980438	0.213713	99
Es	-1.541152	-1.373172	0.047265	99
Es	1.512945	0.313333	0.187659	99
Es	3.489229	0.351119	-0.256709	99
Es	3.144079	0.857526	0.060536	99
Es	-0.587654	-0.405701	0.024098	99
Es	1.467046	0.342601	-0.390556	99
Es	1.040967	1.520923	-0.005289	99
Es	-1.415940	1.265238	0.186572	99
Es	-2.205297	-1.370540	-0.166715	99
Es	1.942689	-0.022264	-0.155214	99
41
Properties=species:S:1:pos:R:3:Z:I:1 energy=-359.7579258782651 field_type=dipole dipole="0.000000 0.000000 0.000000" charge=0
O	-2.072423	-1.480297	0.083774	8
C	-0.687023	-1.158667	-0.009986	6
C	-0.468302	0.322723	0.055394	6
C	-1.415902	1.265183	0.186564	6
C	0.939727	0.787103	-0.034296	6
N	1.942677	-0.022887	-0.155246	7
O	3.125227	0.724343	-0.211636	8
H	-2.131682	-2.448867	0.030494	1
H	-0.313593	-1.556837	-0.959246	1
H	-0.170012	-1.656747	0.816844	1
H	-2.463892	0.986503	0.257654	1
H	-1.189492	2.325163	0.227904	1
H	1.096877	1.880613	0.008234	1
H	3.807807	0.032673	-0.296456	1
Es	-2.117338	1.090922	0.234831	99
Es	-1.415936	1.265234	0.186575	99
Es	3.144029	0.855939	0.060813	99
Es	-0.587693	-0.405763	0.024354	99
Es	1.041021	1.520927	-0.005307	99
Es	-0.934625	0.811156	-0.202243	99
Es	-1.541211	-1.372952	0.046818	99
Es	-0.468162	0.322660	0.055374	99
Es	3.125216	0.724007	-0.211655	99
Es	-0.425465	-1.417973	-0.654662	99
Es	-2.072151	-1.480522	0.083740	99
Es	3.489345	0.351285	-0.257428	99
Es	2.606114	0.396786	-0.186788	99
Es	0.939684	0.787068	-0.034284	99
Es	-0.687255	-1.158635	-0.009965	99
Es	-2.085012	-2.004202	0.053336	99
Es	0.249548	0.535457	0.008294	99
Es	1.942659	-0.022287	-0.155214	99
Es	-2.162791	-1.402001	0.363451	99
Es	1.968966	-0.399328	-0.176349	99
Es	1.467025	0.342392	-0.390507	99
Es	3.102809	0.880984	-0.469908	99
Es	-0.881557	0.775079	0.438404	99
Es	1.512933	0.313519	0.187462	99
Es	-0.328036	-1.485789	0.551374	99
Es	-1.256545	1.980517	0.213764	99
Es	-2.206044	-1.370215	-0.166260	99
41
Properties=species:S:1:pos:R:3:Z:I:1 energy=-359.7579258782651 field_type=dipole dipole="0.000000 0.000000 0.000000" charge=0
O	-2.072423	-1.480297	0.083774	8
C	-0.687023	-1.158667	-0.009986	6
C	-0.468302	0.322723	0.055394	6
C	-1.415902	1.265183	0.186564	6
C	0.939727	0.787103	-0.034296	6
N	1.942677	-0.022887	-0.155246	7
O	3.125227	0.724343	-0.211636	8
H	-2.131682	-2.448867	0.030494	1
H	-0.313593	-1.556837	-0.959246	1
H	-0.170012	-1.656747	0.816844	1
H	-2.463892	0.986503	0.257654	1
H	-1.189492	2.325163	0.227904	1
H	1.096877	1.880613	0.008234	1
H	3.807807	0.032673	-0.296456	1
Es	-2.072143	-1.480532	0.083680	99
Es	2.606137	0.396692	-0.186171	99
Es	3.125228	0.724004	-0.211660	99
Es	-2.085235	-2.004186	0.053171	99
Es	1.968871	-0.399185	-0.176161	99
Es	-0.328036	-1.485753	0.551416	99
Es	-0.881569	0.775081	0.438236	99
Es	-1.541095	-1.372979	0.046920	99
Es	0.249513	0.535477	0.008325	99
Es	3.489803	0.351351	-0.257031	99
Es	3.143935	0.857041	0.059920	99
Es	-2.205754	-1.370262	-0.166070	99
Es	-2.117349	1.090907	0.234802	99
Es	3.102463	0.879895	-0.470046	99
Es	-1.256525	1.980528	0.213833	99
Es	-2.163006	-1.401895	0.363395	99
Es	-0.425466	-1.418010	-0.654656	99
Es	-0.468156	0.322658	0.055381	99
Es	0.939682	0.787070	-0.034293	99
Es	-1.415938	1.265235	0.186569	99
Es	-0.687251	-1.158633	-0.009965	99
Es	-0.587693	-0.405889	0.024309	99
Es	-0.934580	0.811185	-0.202173	99
Es	1.512954	0.313465	0.187421	99
Es	1.041002	1.520930	-0.005297	99
Es	1.942728	-0.022315	-0.155214	99
Es	1.467004	0.342383	-0.390622	99
