44
Properties=species:S:1:pos:R:3:Z:I:1 energy=-360.94436925340483 field_type=dipole dipole="0.000000 0.000000 0.000000" charge=0
O	-2.800340	-0.316817	0.609273	8
C	-1.386680	-0.465597	0.567163	6
C	-0.757621	0.920953	0.509683	6
C	0.763989	0.878372	0.537563	6
C	1.308650	0.282893	-0.730517	6
N	1.926869	-0.852707	-0.710547	7
O	2.320169	-1.173657	-2.013847	8
H	-3.178530	-1.212237	0.650023	1
H	-1.130490	-1.057137	-0.317127	1
H	-1.066960	-1.005077	1.464413	1
H	-1.118181	1.512043	1.360653	1
H	-1.112561	1.442403	-0.388107	1
H	1.123479	0.311922	1.403353	1
H	1.156620	1.898392	0.611203	1
H	1.145370	0.846512	-1.666127	1
H	2.806220	-2.010257	-1.887057	1
Es	-0.989117	1.270583	-0.108976	99
Es	-1.062284	0.225273	0.536282	99
Es	2.516461	-0.949868	-2.095297	99
Es	-2.268172	-0.396170	0.594372	99
Es	-0.995132	1.317279	1.092256	99
Es	-2.985947	-0.808481	0.630600	99
Es	1.002874	0.492699	1.120591	99
Es	2.056964	-1.230593	-2.160501	99
Es	1.910155	-0.215964	-0.676677	99
Es	-1.156349	-0.837705	1.186446	99
Es	2.015261	-1.096634	-0.432802	99
Es	2.320250	-1.173846	-2.013567	99
Es	1.308644	0.282914	-0.730489	99
Es	-1.202186	-0.872163	-0.040173	99
Es	1.195971	0.663820	-1.357485	99
Es	-2.883264	-0.197720	0.338567	99
Es	0.763978	0.878352	0.537486	99
Es	-2.800187	-0.317101	0.609297	99
Es	-2.865892	-0.181400	0.877543	99
Es	1.403254	-0.496084	-0.759637	99
Es	1.031013	1.566708	0.577423	99
Es	-1.386904	-0.465536	0.567175	99
Es	-0.757564	0.920914	0.509677	99
Es	2.149410	-1.034029	-1.445888	99
Es	0.016117	0.886464	0.509728	99
Es	1.926776	-0.852389	-0.711055	99
Es	2.580274	-1.621641	-1.940813	99
Es	1.040798	0.568546	-0.104572	99
44
Properties=species:S:1:pos:R:3:Z:I:1 energy=-360.94436925340483 field_type=dipole dipole="0.000000 0.000000 0.000000" charge=0
O	-2.800340	-0.316817	0.609273	8
C	-1.386680	-0.465597	0.567163	6
C	-0.757621	0.920953	0.509683	6
C	0.763989	0.878372	0.537563	6
C	1.308650	0.282893	-0.730517	6
N	1.926869	-0.852707	-0.710547	7
O	2.320169	-1.173657	-2.013847	8
H	-3.178530	-1.212237	0.650023	1
H	-1.130490	-1.057137	-0.317127	1
H	-1.066960	-1.005077	1.464413	1
H	-1.118181	1.512043	1.360653	1
H	-1.112561	1.442403	-0.388107	1
H	1.123479	0.311922	1.403353	1
H	1.156620	1.898392	0.611203	1
H	1.145370	0.846512	-1.666127	1
H	2.806220	-2.010257	-1.887057	1
Es	-1.062334	0.225236	0.536277	99
Es	2.015184	-1.096579	-0.432757	99
Es	1.909936	-0.216140	-0.676663	99
Es	1.002981	0.492838	1.120650	99
Es	1.030997	1.566736	0.577230	99
Es	-2.986417	-0.808459	0.630176	99
Es	-2.800183	-0.317118	0.609288	99
Es	-0.757564	0.920915	0.509677	99
Es	2.518060	-0.952624	-2.091850	99
Es	1.308637	0.282915	-0.730490	99
Es	-0.995106	1.317271	1.092199	99
Es	-0.989115	1.270600	-0.108922	99
Es	-2.268077	-0.396435	0.594513	99
Es	2.578657	-1.622714	-1.941356	99
Es	2.056677	-1.227018	-2.163786	99
Es	2.149868	-1.033770	-1.445692	99
Es	0.016077	0.886445	0.509760	99
Es	0.763979	0.878353	0.537487	99
Es	-2.883351	-0.196656	0.338929	99
Es	-2.865430	-0.182242	0.877448	99
Es	2.320127	-1.173931	-2.013509	99
Es	-1.156344	-0.837728	1.186454	99
Es	1.196029	0.663823	-1.357558	99
Es	1.403483	-0.495939	-0.759568	99
Es	1.040768	0.568471	-0.104403	99
Es	-1.386902	-0.465536	0.567174	99
Es	1.926752	-0.852353	-0.711056	99
Es	-1.202185	-0.872134	-0.040142	99
44
Properties=species:S:1:pos:R:3:Z:I:1 energy=-360.94436925340483 field_type=dipole dipole="0.000000 0.000000 0.000000" charge=0
O	-2.800340	-0.316817	0.609273	8
C	-1.386680	-0.465597	0.567163	6
C	-0.757621	0.920953	0.509683	6
C	0.763989	0.878372	0.537563	6
C	1.308650	0.282893	-0.730517	6
N	1.926869	-0.852707	-0.710547	7
O	2.320169	-1.173657	-2.013847	8
H	-3.178530	-1.212237	0.650023	1
H	-1.130490	-1.057137	-0.317127	1
H	-1.066960	-1.005077	1.464413	1
H	-1.118181	1.512043	1.360653	1
H	-1.112561	1.442403	-0.388107	1
H	1.123479	0.311922	1.403353	1
H	1.156620	1.898392	0.611203	1
H	1.145370	0.846512	-1.666127	1
H	2.806220	-2.010257	-1.887057	1
Es	-1.202182	-0.872137	-0.040120	99
Es	2.149117	-1.034433	-1.445729	99
Es	-0.995220	1.317211	1.092183	99
Es	-1.386903	-0.465537	0.567173	99
Es	-2.800204	-0.317132	0.609237	99
Es	1.909964	-0.216099	-0.676593	99
Es	-2.267767	-0.396238	0.597781	99
Es	-0.989086	1.270607	-0.108921	99
Es	1.403343	-0.496079	-0.759504	99
Es	1.040806	0.568665	-0.104343	99
Es	2.015068	-1.096195	-0.432979	99
Es	0.016079	0.886481	0.509803	99
Es	2.057364	-1.225987	-2.164580	99
Es	-2.868934	-0.177405	0.874383	99
Es	-2.986612	-0.808399	0.632146	99
Es	-1.156348	-0.837726	1.186338	99
Es	-0.757565	0.920916	0.509677	99
Es	0.763980	0.878353	0.537486	99
Es	-2.879998	-0.201764	0.336855	99
Es	1.002920	0.492687	1.120516	99
Es	2.518540	-0.952937	-2.090675	99
Es	1.308638	0.282903	-0.730489	99
Es	2.320320	-1.173810	-2.013545	99
Es	2.578260	-1.623157	-1.941676	99
Es	-1.062273	0.225339	0.536249	99
Es	1.031079	1.566674	0.577434	99
Es	1.926757	-0.852356	-0.711049	99
Es	1.196060	0.663782	-1.357549	99
44
Properties=species:S:1:pos:R:3:Z:I:1 energy=-360.94436925340483 field_type=dipole dipole="0.000000 0.000000 0.000000" charge=0
O	-2.800340	-0.316817	0.609273	8
C	-1.386680	-0.465597	0.567163	6
C	-0.757621	0.920953	0.509683	6
C	0.763989	0.878372	0.537563	6
C	1.308650	0.282893	-0.730517	6
N	1.926869	-0.852707	-0.710547	7
O	2.320169	-1.173657	-2.013847	8
H	-3.178530	-1.212237	0.650023	1
H	-1.130490	-1.057137	-0.317127	1
H	-1.066960	-1.005077	1.464413	1
H	-1.118181	1.512043	1.360653	1
H	-1.112561	1.442403	-0.388107	1
H	1.123479	0.311922	1.403353	1
H	1.156620	1.898392	0.611203	1
H	1.145370	0.846512	-1.666127	1
H	2.806220	-2.010257	-1.887057	1
Es	-0.757565	0.920916	0.509677	99
Es	1.926765	-0.852367	-0.711056	99
Es	-2.800168	-0.317117	0.609285	99
Es	-2.267669	-0.395986	0.594637	99
Es	0.763979	0.878353	0.537486	99
Es	-0.989113	1.270561	-0.108856	99
Es	-2.882860	-0.198201	0.339266	99
Es	1.403418	-0.495977	-0.759396	99
Es	-1.062279	0.225320	0.536306	99
Es	1.031084	1.566664	0.577412	99
Es	-0.995182	1.317268	1.092156	99
Es	2.148221	-1.034338	-1.445554	99
Es	1.308635	0.282912	-0.730490	99
Es	1.040807	0.568674	-0.104324	99
Es	1.196101	0.663752	-1.357616	99
Es	2.320227	-1.173864	-2.013564	99
Es	-1.156334	-0.837794	1.186293	99
Es	1.002943	0.492744	1.120500	99
Es	0.016056	0.886466	0.509728	99
Es	2.058767	-1.229156	-2.161110	99
Es	-2.986515	-0.808558	0.630529	99
Es	1.909972	-0.216244	-0.676419	99
Es	2.515757	-0.950677	-2.094294	99
Es	-2.866346	-0.181091	0.876675	99
Es	-1.202187	-0.872061	-0.040081	99
Es	-1.386904	-0.465537	0.567173	99
Es	2.580538	-1.622233	-1.941813	99
Es	2.015055	-1.096202	-0.433039	99
44
Properties=species:S:1:pos:R:3:Z:I:1 energy=-360.94436925340483 field_type=dipole dipole="0.000000 0.000000 0.000000" charge=0
O	-2.800340	-0.316817	0.609273	8
C	-1.386680	-0.465597	0.567163	6
C	-0.757621	0.920953	0.509683	6
C	0.763989	0.878372	0.537563	6
C	1.308650	0.282893	-0.730517	6
N	1.926869	-0.852707	-0.710547	7
O	2.320169	-1.173657	-2.013847	8
H	-3.178530	-1.212237	0.650023	1
H	-1.130490	-1.057137	-0.317127	1
H	-1.066960	-1.005077	1.464413	1
H	-1.118181	1.512043	1.360653	1
H	-1.112561	1.442403	-0.388107	1
H	1.123479	0.311922	1.403353	1
H	1.156620	1.898392	0.611203	1
H	1.145370	0.846512	-1.666127	1
H	2.806220	-2.010257	-1.887057	1
Es	2.058301	-1.229079	-2.161734	99
Es	-1.156381	-0.837682	1.186262	99
Es	-2.866637	-0.179760	0.875812	99
Es	-1.202132	-0.872168	-0.040031	99
Es	1.196110	0.663733	-1.357581	99
Es	-2.267559	-0.396308	0.594913	99
Es	2.516043	-0.951125	-2.093900	99
Es	-2.800209	-0.317067	0.609244	99
Es	1.002956	0.492784	1.120481	99
Es	-1.386901	-0.465536	0.567174	99
Es	1.308641	0.282915	-0.730490	99
Es	2.148815	-1.034444	-1.445530	99
Es	0.763979	0.878353	0.537485	99
Es	-1.062309	0.225385	0.536237	99
Es	2.320152	-1.173903	-2.013567	99
Es	1.403589	-0.496036	-0.759406	99
Es	-2.987057	-0.808393	0.631397	99
Es	-2.882120	-0.199470	0.339009	99
Es	-0.757565	0.920916	0.509677	99
Es	1.909842	-0.216177	-0.676524	99
Es	2.014777	-1.095992	-0.433082	99
Es	1.040881	0.568699	-0.104130	99
Es	1.926755	-0.852356	-0.711041	99
Es	-0.995230	1.317242	1.092141	99
Es	-0.989089	1.270567	-0.108792	99
Es	2.580402	-1.621953	-1.941639	99
Es	1.031090	1.566662	0.577403	99
Es	0.016057	0.886421	0.509723	99
44
Properties=species:S:1:pos:R:3:Z:I:1 energy=-360.94436925340483 field_type=dipole dipole="0.000000 0.000000 0.000000" charge=0
O	-2.800340	-0.316817	0.609273	8
C	-1.386680	-0.465597	0.567163	6
C	-0.757621	0.920953	0.509683	6
C	0.763989	0.878372	0.537563	6
C	1.308650	0.282893	-0.730517	6
N	1.926869	-0.852707	-0.710547	7
O	2.320169	-1.173657	-2.013847	8
H	-3.178530	-1.212237	0.650023	1
H	-1.130490	-1.057137	-0.317127	1
H	-1.066960	-1.005077	1.464413	1
H	-1.118181	1.512043	1.360653	1
H	-1.112561	1.442403	-0.388107	1
H	1.123479	0.311922	1.403353	1
H	1.156620	1.898392	0.611203	1
H	1.145370	0.846512	-1.666127	1
H	2.806220	-2.010257	-1.887057	1
Es	-1.156334	-0.837765	1.186201	99
Es	-1.202220	-0.872111	-0.039933	99
Es	2.515679	-0.951301	-2.095351	99
Es	2.058649	-1.229494	-2.160231	99
Es	-2.986985	-0.808572	0.629777	99
Es	1.308630	0.282913	-0.730491	99
Es	-2.865281	-0.183648	0.876484	99
Es	1.040752	0.568653	-0.104126	99
Es	2.014808	-1.095953	-0.433159	99
Es	-0.995165	1.317215	1.092082	99
Es	1.031193	1.566617	0.577489	99
Es	2.149266	-1.033603	-1.445264	99
Es	-0.989127	1.270610	-0.108803	99
Es	2.320180	-1.173763	-2.013753	99
Es	-2.883920	-0.195895	0.340290	99
Es	0.763978	0.878353	0.537486	99
Es	1.909844	-0.216345	-0.676329	99
Es	-0.757565	0.920917	0.509676	99
Es	1.926757	-0.852357	-0.711049	99
Es	0.016002	0.886482	0.509749	99
Es	2.579899	-1.622311	-1.941868	99
Es	-1.386902	-0.465537	0.567174	99
Es	-2.267254	-0.395805	0.594604	99
Es	1.403648	-0.495904	-0.759405	99
Es	1.196207	0.663764	-1.357610	99
Es	-2.800200	-0.317051	0.609253	99
Es	-1.062243	0.225370	0.536232	99
Es	1.002907	0.492748	1.120381	99
44
Properties=species:S:1:pos:R:3:Z:I:1 energy=-360.94436925340483 field_type=dipole dipole="0.000000 0.000000 0.000000" charge=0
O	-2.800340	-0.316817	0.609273	8
C	-1.386680	-0.465597	0.567163	6
C	-0.757621	0.920953	0.509683	6
C	0.763989	0.878372	0.537563	6
C	1.308650	0.282893	-0.730517	6
N	1.926869	-0.852707	-0.710547	7
O	2.320169	-1.173657	-2.013847	8
H	-3.178530	-1.212237	0.650023	1
H	-1.130490	-1.057137	-0.317127	1
H	-1.066960	-1.005077	1.464413	1
H	-1.118181	1.512043	1.360653	1
H	-1.112561	1.442403	-0.388107	1
H	1.123479	0.311922	1.403353	1
H	1.156620	1.898392	0.611203	1
H	1.145370	0.846512	-1.666127	1
H	2.806220	-2.010257	-1.887057	1
Es	-1.156394	-0.837796	1.186143	99
Es	1.308633	0.282908	-0.730490	99
Es	2.058718	-1.227891	-2.162074	99
Es	-2.800158	-0.317116	0.609250	99
Es	-0.757569	0.920918	0.509679	99
Es	-1.386899	-0.465537	0.567171	99
Es	-2.883622	-0.196381	0.340865	99
Es	0.763979	0.878353	0.537484	99
Es	-1.202185	-0.872102	-0.039954	99
Es	1.196186	0.663675	-1.357645	99
Es	2.320243	-1.173839	-2.013574	99
Es	-2.865358	-0.182932	0.876940	99
Es	1.909625	-0.216359	-0.676520	99
Es	1.002936	0.492700	1.120354	99
Es	0.016081	0.886617	0.509689	99
Es	-1.062165	0.225371	0.536459	99
Es	2.148979	-1.033958	-1.445229	99
Es	-2.987222	-0.808538	0.629464	99
Es	-0.989149	1.270317	-0.108761	99
Es	-2.267277	-0.396010	0.593871	99
Es	1.031195	1.566596	0.577522	99
Es	2.015296	-1.095359	-0.433287	99
Es	2.579680	-1.622674	-1.942137	99
Es	2.516124	-0.952310	-2.093471	99
Es	1.040763	0.568796	-0.104081	99
Es	-0.995290	1.317406	1.091981	99
Es	1.926760	-0.852361	-0.711051	99
Es	1.403295	-0.496265	-0.759090	99
44
Properties=species:S:1:pos:R:3:Z:I:1 energy=-360.94436925340483 field_type=dipole dipole="0.000000 0.000000 0.000000" charge=0
O	-2.800340	-0.316817	0.609273	8
C	-1.386680	-0.465597	0.567163	6
C	-0.757621	0.920953	0.509683	6
C	0.763989	0.878372	0.537563	6
C	1.308650	0.282893	-0.730517	6
N	1.926869	-0.852707	-0.710547	7
O	2.320169	-1.173657	-2.013847	8
H	-3.178530	-1.212237	0.650023	1
H	-1.130490	-1.057137	-0.317127	1
H	-1.066960	-1.005077	1.464413	1
H	-1.118181	1.512043	1.360653	1
H	-1.112561	1.442403	-0.388107	1
H	1.123479	0.311922	1.403353	1
H	1.156620	1.898392	0.611203	1
H	1.145370	0.846512	-1.666127	1
H	2.806220	-2.010257	-1.887057	1
Es	1.002992	0.492815	1.120371	99
Es	-2.266938	-0.395475	0.594359	99
Es	-1.062240	0.225450	0.536296	99
Es	-0.995164	1.317239	1.092095	99
Es	2.320344	-1.173812	-2.013514	99
Es	1.909641	-0.216404	-0.676460	99
Es	-0.757564	0.920915	0.509676	99
Es	1.308635	0.282909	-0.730490	99
Es	2.058848	-1.229801	-2.159918	99
Es	2.580749	-1.622062	-1.942195	99
Es	0.763980	0.878353	0.537486	99
Es	-2.883675	-0.198128	0.340021	99
Es	2.149496	-1.033678	-1.445039	99
Es	-2.800187	-0.317079	0.609265	99
Es	-0.989141	1.270587	-0.108702	99
Es	-2.866159	-0.181804	0.875711	99
Es	0.015922	0.886450	0.509663	99
Es	-1.202182	-0.872072	-0.039899	99
Es	2.014720	-1.095458	-0.433227	99
Es	1.031193	1.566561	0.577428	99
Es	-1.386899	-0.465538	0.567173	99
Es	1.926778	-0.852391	-0.711047	99
Es	1.040843	0.568778	-0.103895	99
Es	1.196159	0.663639	-1.357626	99
Es	-2.986714	-0.808561	0.631035	99
Es	-1.156382	-0.837814	1.186083	99
Es	1.403746	-0.495951	-0.759235	99
Es	2.514402	-0.951441	-2.095906	99
44
Properties=species:S:1:pos:R:3:Z:I:1 energy=-360.94436925340483 field_type=dipole dipole="0.000000 0.000000 0.000000" charge=0
O	-2.800340	-0.316817	0.609273	8
C	-1.386680	-0.465597	0.567163	6
C	-0.757621	0.920953	0.509683	6
C	0.763989	0.878372	0.537563	6
C	1.308650	0.282893	-0.730517	6
N	1.926869	-0.852707	-0.710547	7
O	2.320169	-1.173657	-2.013847	8
H	-3.178530	-1.212237	0.650023	1
H	-1.130490	-1.057137	-0.317127	1
H	-1.066960	-1.005077	1.464413	1
H	-1.118181	1.512043	1.360653	1
H	-1.112561	1.442403	-0.388107	1
H	1.123479	0.311922	1.403353	1
H	1.156620	1.898392	0.611203	1
H	1.145370	0.846512	-1.666127	1
H	2.806220	-2.010257	-1.887057	1
Es	2.578548	-1.623294	-1.942589	99
Es	1.909572	-0.216431	-0.676371	99
Es	1.040706	0.568708	-0.103806	99
Es	-2.987166	-0.808343	0.630347	99
Es	2.320227	-1.173867	-2.013558	99
Es	1.926765	-0.852372	-0.711050	99
Es	-2.866200	-0.182313	0.875671	99
Es	-2.800213	-0.317071	0.609255	99
Es	-0.989168	1.270537	-0.108687	99
Es	2.059620	-1.226179	-2.163321	99
Es	1.196221	0.663578	-1.357697	99
Es	-1.202229	-0.872103	-0.039856	99
Es	0.015929	0.886522	0.509707	99
Es	-0.757565	0.920915	0.509677	99
Es	1.031223	1.566477	0.577270	99
Es	2.517122	-0.953284	-2.092058	99
Es	-1.156337	-0.837780	1.186107	99
Es	1.003053	0.492923	1.120440	99
Es	-2.883265	-0.197465	0.340117	99
Es	-0.995199	1.317242	1.092017	99
Es	2.148424	-1.034275	-1.445084	99
Es	1.308634	0.282910	-0.730490	99
Es	2.014633	-1.095301	-0.433316	99
Es	-2.266856	-0.395812	0.595033	99
Es	-1.062236	0.225432	0.536243	99
Es	0.763979	0.878353	0.537487	99
Es	-1.386897	-0.465538	0.567173	99
Es	1.403877	-0.495942	-0.759152	99
44
Properties=species:S:1:pos:R:3:Z:I:1 energy=-360.94436925340483 field_type=dipole dipole="0.000000 0.000000 0.000000" charge=0
O	-2.800340	-0.316817	0.609273	8
C	-1.386680	-0.465597	0.567163	6
C	-0.757621	0.920953	0.509683	6
C	0.763989	0.878372	0.537563	6
C	1.308650	0.282893	-0.730517	6
N	1.926869	-0.852707	-0.710547	7
O	2.320169	-1.173657	-2.013847	8
H	-3.178530	-1.212237	0.650023	1
H	-1.130490	-1.057137	-0.317127	1
H	-1.066960	-1.005077	1.464413	1
H	-1.118181	1.512043	1.360653	1
H	-1.112561	1.442403	-0.388107	1
H	1.123479	0.311922	1.403353	1
H	1.156620	1.898392	0.611203	1
H	1.145370	0.846512	-1.666127	1
H	2.806220	-2.010257	-1.887057	1
Es	1.308633	0.282911	-0.730489	99
Es	2.578947	-1.623306	-1.942629	99
Es	2.516406	-0.953939	-2.092113	99
Es	-1.386894	-0.465537	0.567172	99
Es	1.031265	1.566469	0.577421	99
Es	1.040761	0.568781	-0.103806	99
Es	1.404143	-0.495542	-0.759338	99
Es	-2.800177	-0.317143	0.609232	99
Es	-1.062204	0.225492	0.536182	99
Es	-2.266693	-0.395440	0.594126	99
Es	-2.883299	-0.198472	0.340824	99
Es	2.320243	-1.173865	-2.013519	99
Es	2.148852	-1.033732	-1.444992	99
Es	-0.995213	1.317147	1.092017	99
Es	0.763982	0.878356	0.537487	99
Es	1.003034	0.492880	1.120290	99
Es	-2.987289	-0.808631	0.630878	99
Es	-0.757565	0.920916	0.509677	99
Es	-1.202209	-0.872122	-0.039788	99
Es	-0.989171	1.270620	-0.108658	99
Es	-1.156377	-0.837771	1.186059	99
Es	-2.866264	-0.181362	0.875336	99
Es	2.013801	-1.095602	-0.433631	99
Es	1.926750	-0.852349	-0.711027	99
Es	1.196178	0.663553	-1.357700	99
Es	1.910092	-0.216492	-0.675849	99
Es	2.059589	-1.226092	-2.163426	99
Es	0.015885	0.886499	0.509775	99
44
Properties=species:S:1:pos:R:3:Z:I:1 energy=-360.94436925340483 field_type=dipole dipole="0.000000 0.000000 0.000000" charge=0
O	-2.800340	-0.316817	0.609273	8
C	-1.386680	-0.465597	0.567163	6
C	-0.757621	0.920953	0.509683	6
C	0.763989	0.878372	0.537563	6
C	1.308650	0.282893	-0.730517	6
N	1.926869	-0.852707	-0.710547	7
O	2.320169	-1.173657	-2.013847	8
H	-3.178530	-1.212237	0.650023	1
H	-1.130490	-1.057137	-0.317127	1
H	-1.066960	-1.005077	1.464413	1
H	-1.118181	1.512043	1.360653	1
H	-1.112561	1.442403	-0.388107	1
H	1.123479	0.311922	1.403353	1
H	1.156620	1.898392	0.611203	1
H	1.145370	0.846512	-1.666127	1
H	2.806220	-2.010257	-1.887057	1
Es	1.308627	0.282917	-0.730495	99
Es	-2.987414	-0.808530	0.630460	99
Es	-0.989122	1.270572	-0.108622	99
Es	1.926750	-0.852353	-0.711036	99
Es	-2.866539	-0.181703	0.875174	99
Es	-1.062232	0.225528	0.536335	99
Es	2.515087	-0.952900	-2.093407	99
Es	2.580220	-1.622773	-1.942726	99
Es	2.320195	-1.173894	-2.013577	99
Es	-2.882996	-0.198157	0.340627	99
Es	0.763979	0.878354	0.537487	99
Es	-1.386895	-0.465535	0.567172	99
Es	1.909258	-0.216546	-0.676499	99
Es	1.040886	0.568936	-0.103731	99
Es	1.031309	1.566489	0.577436	99
Es	2.148487	-1.033996	-1.444962	99
Es	1.196290	0.663562	-1.357678	99
Es	-1.202214	-0.872063	-0.039771	99
Es	0.015892	0.886442	0.509889	99
Es	1.003092	0.492879	1.120188	99
Es	-0.757562	0.920916	0.509677	99
Es	2.060089	-1.227505	-2.162023	99
Es	-2.266631	-0.395547	0.594828	99
Es	-0.995219	1.317218	1.091904	99
Es	-2.800170	-0.317109	0.609300	99
Es	1.403499	-0.496338	-0.758854	99
Es	2.014958	-1.094764	-0.433534	99
Es	-1.156421	-0.837872	1.185948	99
44
Properties=species:S:1:pos:R:3:Z:I:1 energy=-360.94436925340483 field_type=dipole dipole="0.000000 0.000000 0.000000" charge=0
O	-2.800340	-0.316817	0.609273	8
C	-1.386680	-0.465597	0.567163	6
C	-0.757621	0.920953	0.509683	6
C	0.763989	0.878372	0.537563	6
C	1.308650	0.282893	-0.730517	6
N	1.926869	-0.852707	-0.710547	7
O	2.320169	-1.173657	-2.013847	8
H	-3.178530	-1.212237	0.650023	1
H	-1.130490	-1.057137	-0.317127	1
H	-1.066960	-1.005077	1.464413	1
H	-1.118181	1.512043	1.360653	1
H	-1.112561	1.442403	-0.388107	1
H	1.123479	0.311922	1.403353	1
H	1.156620	1.898392	0.611203	1
H	1.145370	0.846512	-1.666127	1
H	2.806220	-2.010257	-1.887057	1
Es	-2.883344	-0.197181	0.341216	99
Es	1.909502	-0.216574	-0.676238	99
Es	-1.062228	0.225478	0.536202	99
Es	1.196272	0.663519	-1.357720	99
Es	1.040856	0.568908	-0.103616	99
Es	1.031239	1.566489	0.577430	99
Es	-1.386903	-0.465538	0.567173	99
Es	0.763978	0.878354	0.537487	99
Es	-2.800179	-0.317045	0.609259	99
Es	-1.156410	-0.837855	1.186001	99
Es	2.148876	-1.033771	-1.444806	99
Es	-0.757567	0.920918	0.509677	99
Es	-2.266689	-0.395600	0.594478	99
Es	-2.987500	-0.808531	0.629836	99
Es	2.060182	-1.227484	-2.161464	99
Es	2.320259	-1.173851	-2.013575	99
Es	0.015906	0.886418	0.509757	99
Es	-1.202179	-0.872039	-0.039685	99
Es	1.403815	-0.495987	-0.759006	99
Es	2.014484	-1.094832	-0.433655	99
Es	-2.866084	-0.182702	0.875517	99
Es	1.308635	0.282911	-0.730489	99
Es	1.926750	-0.852352	-0.711020	99
Es	2.514825	-0.953082	-2.093942	99
Es	1.003076	0.492916	1.120245	99
Es	-0.989133	1.270612	-0.108542	99
Es	-0.995245	1.317153	1.091903	99
Es	2.580012	-1.623023	-1.942915	99
44
Properties=species:S:1:pos:R:3:Z:I:1 energy=-360.94436925340483 field_type=dipole dipole="0.000000 0.000000 0.000000" charge=0
O	-2.800340	-0.316817	0.609273	8
C	-1.386680	-0.465597	0.567163	6
C	-0.757621	0.920953	0.509683	6
C	0.763989	0.878372	0.537563	6
C	1.308650	0.282893	-0.730517	6
N	1.926869	-0.852707	-0.710547	7
O	2.320169	-1.173657	-2.013847	8
H	-3.178530	-1.212237	0.650023	1
H	-1.130490	-1.057137	-0.317127	1
H	-1.066960	-1.005077	1.464413	1
H	-1.118181	1.512043	1.360653	1
H	-1.112561	1.442403	-0.388107	1
H	1.123479	0.311922	1.403353	1
H	1.156620	1.898392	0.611203	1
H	1.145370	0.846512	-1.666127	1
H	2.806220	-2.010257	-1.887057	1
Es	1.308629	0.282917	-0.730486	99
Es	0.763978	0.878353	0.537487	99
Es	-1.062219	0.225507	0.536336	99
Es	2.148860	-1.033658	-1.444841	99
Es	-2.881578	-0.200977	0.339737	99
Es	2.514935	-0.953352	-2.093802	99
Es	-0.757565	0.920916	0.509677	99
Es	-1.386890	-0.465538	0.567170	99
Es	0.015873	0.886514	0.509674	99
Es	1.404056	-0.495869	-0.758989	99
Es	1.196288	0.663480	-1.357742	99
Es	1.909504	-0.216660	-0.676096	99
Es	1.031389	1.566451	0.577455	99
Es	2.579789	-1.623189	-1.942957	99
Es	2.060439	-1.227193	-2.161600	99
Es	1.040826	0.568908	-0.103453	99
Es	-2.987685	-0.808423	0.631943	99
Es	-1.202185	-0.872155	-0.039649	99
Es	-2.868010	-0.179105	0.873407	99
Es	-1.156440	-0.837757	1.185955	99
Es	-2.266366	-0.395461	0.595936	99
Es	2.320199	-1.173848	-2.013604	99
Es	1.003006	0.492874	1.120192	99
Es	1.926756	-0.852354	-0.711043	99
Es	-0.995197	1.317241	1.091814	99
Es	2.014175	-1.094811	-0.433767	99
Es	-2.800169	-0.317097	0.609323	99
Es	-0.989194	1.270513	-0.108567	99
44
Properties=species:S:1:pos:R:3:Z:I:1 energy=-360.94436925340483 field_type=dipole dipole="0.000000 0.000000 0.000000" charge=0
O	-2.800340	-0.316817	0.609273	8
C	-1.386680	-0.465597	0.567163	6
C	-0.757621	0.920953	0.509683	6
C	0.763989	0.878372	0.537563	6
C	1.308650	0.282893	-0.730517	6
N	1.926869	-0.852707	-0.710547	7
O	2.320169	-1.173657	-2.013847	8
H	-3.178530	-1.212237	0.650023	1
H	-1.130490	-1.057137	-0.317127	1
H	-1.066960	-1.005077	1.464413	1
H	-1.118181	1.512043	1.360653	1
H	-1.112561	1.442403	-0.388107	1
H	1.123479	0.311922	1.403353	1
H	1.156620	1.898392	0.611203	1
H	1.145370	0.846512	-1.666127	1
H	2.806220	-2.010257	-1.887057	1
Es	-1.062181	0.225517	0.536310	99
Es	-0.757566	0.920916	0.509677	99
Es	-1.386898	-0.465539	0.567173	99
Es	1.040919	0.568995	-0.103513	99
Es	1.403899	-0.496163	-0.758802	99
Es	1.196354	0.663557	-1.357705	99
Es	2.579467	-1.623423	-1.943184	99
Es	1.308641	0.282910	-0.730489	99
Es	0.015808	0.886575	0.509686	99
Es	0.763980	0.878354	0.537488	99
Es	-0.995207	1.317207	1.091870	99
Es	1.003079	0.492858	1.120195	99
Es	-0.989203	1.270539	-0.108542	99
Es	-2.987941	-0.808631	0.629884	99
Es	1.926760	-0.852358	-0.711044	99
Es	-2.866029	-0.182643	0.875085	99
Es	-2.800173	-0.317108	0.609258	99
Es	-2.266311	-0.395401	0.594340	99
Es	2.060972	-1.225683	-2.163402	99
Es	2.515597	-0.954241	-2.091878	99
Es	2.014561	-1.094447	-0.433680	99
Es	1.031329	1.566338	0.577494	99
Es	2.320179	-1.173903	-2.013540	99
Es	-2.883366	-0.197321	0.341842	99
Es	-1.156406	-0.837776	1.185883	99
Es	-1.202196	-0.872123	-0.039673	99
Es	1.909149	-0.216686	-0.676342	99
Es	2.147986	-1.034096	-1.444880	99
44
Properties=species:S:1:pos:R:3:Z:I:1 energy=-360.94436925340483 field_type=dipole dipole="0.000000 0.000000 0.000000" charge=0
O	-2.800340	-0.316817	0.609273	8
C	-1.386680	-0.465597	0.567163	6
C	-0.757621	0.920953	0.509683	6
C	0.763989	0.878372	0.537563	6
C	1.308650	0.282893	-0.730517	6
N	1.926869	-0.852707	-0.710547	7
O	2.320169	-1.173657	-2.013847	8
H	-3.178530	-1.212237	0.650023	1
H	-1.130490	-1.057137	-0.317127	1
H	-1.066960	-1.005077	1.464413	1
H	-1.118181	1.512043	1.360653	1
H	-1.112561	1.442403	-0.388107	1
H	1.123479	0.311922	1.403353	1
H	1.156620	1.898392	0.611203	1
H	1.145370	0.846512	-1.666127	1
H	2.806220	-2.010257	-1.887057	1
Es	-2.987412	-0.808437	0.632186	99
Es	1.196303	0.663483	-1.357776	99
Es	0.763979	0.878353	0.537487	99
Es	2.514095	-0.953763	-2.094000	99
Es	-2.800199	-0.317003	0.609273	99
Es	1.404139	-0.495918	-0.758844	99
Es	-0.757564	0.920914	0.509677	99
Es	-2.882395	-0.200905	0.340149	99
Es	2.149085	-1.033518	-1.444614	99
Es	1.909435	-0.216707	-0.676018	99
Es	-2.266164	-0.395121	0.595238	99
Es	2.060596	-1.227175	-2.161420	99
Es	1.926782	-0.852397	-0.711045	99
Es	1.040803	0.568853	-0.103379	99
Es	-0.989191	1.270543	-0.108517	99
Es	0.015879	0.886612	0.509740	99
Es	1.003051	0.492928	1.120235	99
Es	-1.202205	-0.872113	-0.039607	99
Es	1.031406	1.566385	0.577368	99
Es	-2.867683	-0.179633	0.873539	99
Es	1.308634	0.282909	-0.730489	99
Es	2.320289	-1.173823	-2.013531	99
Es	-1.156404	-0.837786	1.185884	99
Es	-1.386900	-0.465538	0.567172	99
Es	-0.995252	1.317174	1.091796	99
Es	2.014065	-1.094502	-0.433912	99
Es	2.580206	-1.623109	-1.943346	99
Es	-1.062171	0.225520	0.536258	99
44
Properties=species:S:1:pos:R:3:Z:I:1 energy=-360.94436925340483 field_type=dipole dipole="0.000000 0.000000 0.000000" charge=0
O	-2.800340	-0.316817	0.609273	8
C	-1.386680	-0.465597	0.567163	6
C	-0.757621	0.920953	0.509683	6
C	0.763989	0.878372	0.537563	6
C	1.308650	0.282893	-0.730517	6
N	1.926869	-0.852707	-0.710547	7
O	2.320169	-1.173657	-2.013847	8
H	-3.178530	-1.212237	0.650023	1
H	-1.130490	-1.057137	-0.317127	1
H	-1.066960	-1.005077	1.464413	1
H	-1.118181	1.512043	1.360653	1
H	-1.112561	1.442403	-0.388107	1
H	1.123479	0.311922	1.403353	1
H	1.156620	1.898392	0.611203	1
H	1.145370	0.846512	-1.666127	1
H	2.806220	-2.010257	-1.887057	1
Es	1.031316	1.566404	0.577394	99
Es	-1.156410	-0.837818	1.185845	99
Es	-1.202240	-0.872110	-0.039603	99
Es	2.014235	-1.094313	-0.433799	99
Es	1.003111	0.492962	1.120207	99
Es	1.926765	-0.852366	-0.711047	99
Es	2.580319	-1.623118	-1.943496	99
Es	-2.882286	-0.199518	0.341609	99
Es	-2.867203	-0.180650	0.874271	99
Es	1.404154	-0.495922	-0.758786	99
Es	1.308638	0.282909	-0.730491	99
Es	2.148893	-1.033672	-1.444589	99
Es	0.763976	0.878355	0.537488	99
Es	2.320242	-1.173818	-2.013593	99
Es	-2.800200	-0.317083	0.609266	99
Es	1.040916	0.568973	-0.103284	99
Es	-0.757564	0.920917	0.509678	99
Es	-1.062198	0.225532	0.536408	99
Es	-2.988106	-0.808516	0.630535	99
Es	-2.266049	-0.395329	0.594727	99
Es	-0.995212	1.317351	1.091734	99
Es	1.196343	0.663469	-1.357814	99
Es	2.060930	-1.227183	-2.161273	99
Es	-1.386894	-0.465537	0.567172	99
Es	-0.989196	1.270387	-0.108495	99
Es	2.513978	-0.953683	-2.093984	99
Es	0.015818	0.886452	0.509571	99
Es	1.909129	-0.216849	-0.676143	99
44
Properties=species:S:1:pos:R:3:Z:I:1 energy=-360.94436925340483 field_type=dipole dipole="0.000000 0.000000 0.000000" charge=0
O	-2.800340	-0.316817	0.609273	8
C	-1.386680	-0.465597	0.567163	6
C	-0.757621	0.920953	0.509683	6
C	0.763989	0.878372	0.537563	6
C	1.308650	0.282893	-0.730517	6
N	1.926869	-0.852707	-0.710547	7
O	2.320169	-1.173657	-2.013847	8
H	-3.178530	-1.212237	0.650023	1
H	-1.130490	-1.057137	-0.317127	1
H	-1.066960	-1.005077	1.464413	1
H	-1.118181	1.512043	1.360653	1
H	-1.112561	1.442403	-0.388107	1
H	1.123479	0.311922	1.403353	1
H	1.156620	1.898392	0.611203	1
H	1.145370	0.846512	-1.666127	1
H	2.806220	-2.010257	-1.887057	1
Es	-2.265979	-0.395435	0.594342	99
Es	2.014090	-1.094253	-0.433977	99
Es	-1.386893	-0.465536	0.567171	99
Es	0.763978	0.878353	0.537488	99
Es	-0.995166	1.317156	1.091727	99
Es	-2.800126	-0.317165	0.609463	99
Es	-1.202208	-0.872167	-0.039523	99
Es	-2.865996	-0.181852	0.873680	99
Es	1.926757	-0.852358	-0.711036	99
Es	-1.062232	0.225624	0.536295	99
Es	2.320242	-1.173841	-2.013576	99
Es	1.040878	0.569034	-0.103184	99
Es	1.003003	0.492822	1.120161	99
Es	-0.989269	1.270560	-0.108389	99
Es	1.031452	1.566339	0.577509	99
Es	1.308646	0.282911	-0.730486	99
Es	-1.156437	-0.837748	1.185778	99
Es	1.404225	-0.495843	-0.758785	99
Es	1.909260	-0.216857	-0.676077	99
Es	2.514087	-0.954037	-2.093537	99
Es	-2.883424	-0.198240	0.341635	99
Es	-2.988357	-0.808480	0.631284	99
Es	-0.757566	0.920916	0.509677	99
Es	1.196310	0.663406	-1.357792	99
Es	2.580135	-1.623249	-1.943668	99
Es	0.015887	0.886589	0.509516	99
Es	2.148771	-1.033751	-1.444508	99
Es	2.061136	-1.226670	-2.161679	99
44
Properties=species:S:1:pos:R:3:Z:I:1 energy=-360.94436925340483 field_type=dipole dipole="0.000000 0.000000 0.000000" charge=0
O	-2.800340	-0.316817	0.609273	8
C	-1.386680	-0.465597	0.567163	6
C	-0.757621	0.920953	0.509683	6
C	0.763989	0.878372	0.537563	6
C	1.308650	0.282893	-0.730517	6
N	1.926869	-0.852707	-0.710547	7
O	2.320169	-1.173657	-2.013847	8
H	-3.178530	-1.212237	0.650023	1
H	-1.130490	-1.057137	-0.317127	1
H	-1.066960	-1.005077	1.464413	1
H	-1.118181	1.512043	1.360653	1
H	-1.112561	1.442403	-0.388107	1
H	1.123479	0.311922	1.403353	1
H	1.156620	1.898392	0.611203	1
H	1.145370	0.846512	-1.666127	1
H	2.806220	-2.010257	-1.887057	1
Es	2.320253	-1.173842	-2.013583	99
Es	2.014124	-1.094202	-0.433967	99
Es	0.015874	0.886525	0.509693	99
Es	1.003087	0.492913	1.120160	99
Es	-2.800141	-0.317163	0.609298	99
Es	1.404365	-0.495818	-0.758707	99
Es	-1.156415	-0.837728	1.185752	99
Es	-0.989149	1.270455	-0.108430	99
Es	2.580166	-1.623346	-1.943809	99
Es	1.040807	0.569000	-0.103160	99
Es	-1.202215	-0.872174	-0.039524	99
Es	-2.882344	-0.199890	0.341242	99
Es	2.148690	-1.033646	-1.444488	99
Es	2.513842	-0.954075	-2.093742	99
Es	1.196349	0.663375	-1.357857	99
Es	1.909087	-0.216925	-0.676095	99
Es	-2.867298	-0.180334	0.873397	99
Es	0.763978	0.878352	0.537486	99
Es	1.926743	-0.852345	-0.711000	99
Es	2.061426	-1.226652	-2.161402	99
Es	-0.757569	0.920913	0.509675	99
Es	-2.265954	-0.395249	0.595144	99
Es	1.308628	0.282898	-0.730492	99
Es	-1.386896	-0.465539	0.567173	99
Es	-1.062252	0.225580	0.536331	99
Es	-0.995236	1.317291	1.091644	99
Es	-2.988183	-0.808502	0.631364	99
Es	1.031437	1.566355	0.577406	99
44
Properties=species:S:1:pos:R:3:Z:I:1 energy=-360.94436925340483 field_type=dipole dipole="0.000000 0.000000 0.000000" charge=0
O	-2.800340	-0.316817	0.609273	8
C	-1.386680	-0.465597	0.567163	6
C	-0.757621	0.920953	0.509683	6
C	0.763989	0.878372	0.537563	6
C	1.308650	0.282893	-0.730517	6
N	1.926869	-0.852707	-0.710547	7
O	2.320169	-1.173657	-2.013847	8
H	-3.178530	-1.212237	0.650023	1
H	-1.130490	-1.057137	-0.317127	1
H	-1.066960	-1.005077	1.464413	1
H	-1.118181	1.512043	1.360653	1
H	-1.112561	1.442403	-0.388107	1
H	1.123479	0.311922	1.403353	1
H	1.156620	1.898392	0.611203	1
H	1.145370	0.846512	-1.666127	1
H	2.806220	-2.010257	-1.887057	1
Es	2.061644	-1.226437	-2.161439	99
Es	-2.882999	-0.198887	0.342028	99
Es	1.404580	-0.495619	-0.758834	99
Es	-1.156436	-0.837791	1.185680	99
Es	0.015924	0.886564	0.509669	99
Es	2.320262	-1.173833	-2.013565	99
Es	0.763982	0.878353	0.537483	99
Es	-2.266015	-0.395421	0.594088	99
Es	-0.989169	1.270457	-0.108346	99
Es	-2.800131	-0.317149	0.609323	99
Es	1.031388	1.566328	0.577341	99
Es	2.513844	-0.954220	-2.093671	99
Es	-1.202204	-0.872113	-0.039488	99
Es	2.013852	-1.094113	-0.433849	99
Es	-0.757566	0.920918	0.509676	99
Es	1.040772	0.569015	-0.103088	99
Es	2.148670	-1.033762	-1.444442	99
Es	-1.062180	0.225606	0.536293	99
Es	-2.866332	-0.181204	0.873977	99
Es	2.580061	-1.623499	-1.943883	99
Es	1.308632	0.282908	-0.730489	99
Es	1.909055	-0.216974	-0.676123	99
Es	1.196359	0.663339	-1.357839	99
Es	-0.995324	1.317218	1.091653	99
Es	-1.386894	-0.465540	0.567174	99
Es	1.003142	0.492950	1.120215	99
Es	-2.988476	-0.808504	0.631009	99
Es	1.926762	-0.852364	-0.711043	99
