43
Properties=species:S:1:pos:R:3:Z:I:1 energy=-323.94345127552674 field_type=dipole dipole="0.000000 0.000000 0.000000" charge=0
O	-2.067715	-2.330269	-0.222017	8
C	-1.783495	-1.852569	0.871793	6
C	-0.866905	-0.676399	1.081383	6
C	-0.413395	-0.072829	-0.242407	6
N	0.463195	1.074331	0.033693	7
C	1.870914	0.830011	-0.270367	6
C	1.014405	1.665651	-1.183197	6
H	-2.193105	-2.293709	1.796263	1
H	-0.010505	-1.025219	1.668743	1
H	-1.413495	0.064121	1.676683	1
H	-1.293125	0.275691	-0.799687	1
H	0.065475	-0.842139	-0.862407	1
H	2.177715	-0.152499	-0.605967	1
H	2.585744	1.342351	0.361843	1
H	1.146205	2.740591	-1.164197	1
H	0.718085	1.252881	-2.140157	1
Es	1.618568	1.282246	-0.860737	99
Es	-1.783489	-1.852558	0.871794	99
Es	2.070580	0.156300	-0.494642	99
Es	2.358724	1.173721	0.161796	99
Es	-1.245192	-0.194841	1.480262	99
Es	-0.641837	-0.387033	0.430340	99
Es	0.109469	0.566015	-0.109823	99
Es	0.463402	1.073987	0.033185	99
Es	1.014378	1.665512	-1.182985	99
Es	-2.067634	-2.330119	-0.221722	99
Es	1.087062	0.863801	0.012494	99
Es	-1.324564	-1.263203	0.972443	99
Es	-2.060154	-2.147144	1.515881	99
Es	-2.163115	-2.000819	0.158679	99
Es	-2.260775	-2.574306	-0.202099	99
Es	-0.866934	-0.676452	1.081370	99
Es	-0.071633	-0.594628	-0.662299	99
Es	0.806984	1.379607	-1.830469	99
Es	-1.765754	-2.312185	0.190163	99
Es	-1.929686	-2.177349	-0.457009	99
Es	0.573890	1.375300	-0.541255	99
Es	0.381301	1.288635	0.307735	99
Es	-0.413319	-0.072740	-0.242307	99
Es	1.870683	0.830085	-0.270385	99
Es	-0.302123	-0.927713	1.474255	99
Es	1.101470	2.396238	-1.174195	99
Es	-1.012168	0.169109	-0.615675	99
43
Properties=species:S:1:pos:R:3:Z:I:1 energy=-323.94345127552674 field_type=dipole dipole="0.000000 0.000000 0.000000" charge=0
O	-2.067715	-2.330269	-0.222017	8
C	-1.783495	-1.852569	0.871793	6
C	-0.866905	-0.676399	1.081383	6
C	-0.413395	-0.072829	-0.242407	6
N	0.463195	1.074331	0.033693	7
C	1.870914	0.830011	-0.270367	6
C	1.014405	1.665651	-1.183197	6
H	-2.193105	-2.293709	1.796263	1
H	-0.010505	-1.025219	1.668743	1
H	-1.413495	0.064121	1.676683	1
H	-1.293125	0.275691	-0.799687	1
H	0.065475	-0.842139	-0.862407	1
H	2.177715	-0.152499	-0.605967	1
H	2.585744	1.342351	0.361843	1
H	1.146205	2.740591	-1.164197	1
H	0.718085	1.252881	-2.140157	1
Es	-1.324561	-1.263117	0.972468	99
Es	1.086890	0.863589	0.013242	99
Es	-1.245226	-0.194850	1.480179	99
Es	0.381380	1.288587	0.307205	99
Es	-0.866935	-0.676453	1.081369	99
Es	0.574071	1.375338	-0.541668	99
Es	-0.302175	-0.927684	1.474357	99
Es	-0.641706	-0.387162	0.430302	99
Es	-2.060233	-2.147113	1.515854	99
Es	1.014395	1.665516	-1.182990	99
Es	-1.783486	-1.852562	0.871790	99
Es	-1.928099	-2.175644	-0.455445	99
Es	2.358653	1.173596	0.161831	99
Es	-2.067649	-2.330154	-0.221686	99
Es	0.806906	1.379747	-1.830427	99
Es	0.109350	0.566103	-0.109369	99
Es	-1.012189	0.169097	-0.615636	99
Es	1.870675	0.830084	-0.270379	99
Es	1.618610	1.282429	-0.861017	99
Es	-1.766964	-2.312538	0.190412	99
Es	-2.260864	-2.574947	-0.204522	99
Es	2.070609	0.156374	-0.494684	99
Es	-0.071650	-0.594542	-0.662361	99
Es	1.101552	2.396117	-1.174189	99
Es	-2.163309	-2.001597	0.159286	99
Es	0.463408	1.073988	0.033179	99
Es	-0.413321	-0.072738	-0.242305	99
43
Properties=species:S:1:pos:R:3:Z:I:1 energy=-323.94345127552674 field_type=dipole dipole="0.000000 0.000000 0.000000" charge=0
O	-2.067715	-2.330269	-0.222017	8
C	-1.783495	-1.852569	0.871793	6
C	-0.866905	-0.676399	1.081383	6
C	-0.413395	-0.072829	-0.242407	6
N	0.463195	1.074331	0.033693	7
C	1.870914	0.830011	-0.270367	6
C	1.014405	1.665651	-1.183197	6
H	-2.193105	-2.293709	1.796263	1
H	-0.010505	-1.025219	1.668743	1
H	-1.413495	0.064121	1.676683	1
H	-1.293125	0.275691	-0.799687	1
H	0.065475	-0.842139	-0.862407	1
H	2.177715	-0.152499	-0.605967	1
H	2.585744	1.342351	0.361843	1
H	1.146205	2.740591	-1.164197	1
H	0.718085	1.252881	-2.140157	1
Es	0.573989	1.375740	-0.541530	99
Es	0.381713	1.288209	0.306785	99
Es	-1.783485	-1.852558	0.871792	99
Es	-0.071672	-0.594514	-0.662285	99
Es	-1.765823	-2.312030	0.189980	99
Es	-1.324467	-1.263126	0.972474	99
Es	-0.302147	-0.927696	1.474341	99
Es	0.806983	1.379725	-1.830332	99
Es	-2.260735	-2.574438	-0.202062	99
Es	1.086937	0.863324	0.013538	99
Es	1.014377	1.665516	-1.182989	99
Es	1.101415	2.396093	-1.174292	99
Es	-0.641850	-0.387146	0.430298	99
Es	2.070589	0.156443	-0.494486	99
Es	-1.245232	-0.194883	1.480203	99
Es	0.108898	0.566378	-0.109340	99
Es	1.618934	1.282444	-0.861191	99
Es	-0.413322	-0.072741	-0.242307	99
Es	-1.012101	0.169058	-0.615725	99
Es	0.463409	1.073993	0.033183	99
Es	-2.067634	-2.330150	-0.221724	99
Es	2.358603	1.173539	0.161747	99
Es	-1.929640	-2.178065	-0.456695	99
Es	1.870682	0.830084	-0.270382	99
Es	-2.060173	-2.147169	1.515879	99
Es	-2.163181	-2.000114	0.158547	99
Es	-0.866935	-0.676454	1.081370	99
43
Properties=species:S:1:pos:R:3:Z:I:1 energy=-323.94345127552674 field_type=dipole dipole="0.000000 0.000000 0.000000" charge=0
O	-2.067715	-2.330269	-0.222017	8
C	-1.783495	-1.852569	0.871793	6
C	-0.866905	-0.676399	1.081383	6
C	-0.413395	-0.072829	-0.242407	6
N	0.463195	1.074331	0.033693	7
C	1.870914	0.830011	-0.270367	6
C	1.014405	1.665651	-1.183197	6
H	-2.193105	-2.293709	1.796263	1
H	-0.010505	-1.025219	1.668743	1
H	-1.413495	0.064121	1.676683	1
H	-1.293125	0.275691	-0.799687	1
H	0.065475	-0.842139	-0.862407	1
H	2.177715	-0.152499	-0.605967	1
H	2.585744	1.342351	0.361843	1
H	1.146205	2.740591	-1.164197	1
H	0.718085	1.252881	-2.140157	1
Es	1.870689	0.830081	-0.270381	99
Es	0.109446	0.566295	-0.109465	99
Es	0.463405	1.073982	0.033175	99
Es	-0.071705	-0.594453	-0.662251	99
Es	2.070653	0.156561	-0.494516	99
Es	-2.163333	-2.000920	0.158941	99
Es	2.358558	1.173492	0.161707	99
Es	-0.302166	-0.927682	1.474361	99
Es	0.806875	1.379711	-1.830084	99
Es	-1.324447	-1.263018	0.972598	99
Es	-2.060172	-2.147263	1.515853	99
Es	1.087150	0.863321	0.013864	99
Es	-2.067628	-2.330128	-0.221724	99
Es	-1.245256	-0.194851	1.480177	99
Es	-1.929165	-2.177195	-0.456778	99
Es	-1.012082	0.169039	-0.615766	99
Es	-1.783488	-1.852557	0.871798	99
Es	0.573860	1.375760	-0.541742	99
Es	1.101266	2.396113	-1.174459	99
Es	1.014379	1.665510	-1.182979	99
Es	-0.866936	-0.676453	1.081370	99
Es	1.619070	1.282485	-0.861295	99
Es	-0.641870	-0.387275	0.430208	99
Es	-1.766420	-2.311927	0.190089	99
Es	-0.413323	-0.072742	-0.242308	99
Es	-2.260443	-2.574612	-0.202492	99
Es	0.381217	1.288191	0.306894	99
43
Properties=species:S:1:pos:R:3:Z:I:1 energy=-323.94345127552674 field_type=dipole dipole="0.000000 0.000000 0.000000" charge=0
O	-2.067715	-2.330269	-0.222017	8
C	-1.783495	-1.852569	0.871793	6
C	-0.866905	-0.676399	1.081383	6
C	-0.413395	-0.072829	-0.242407	6
N	0.463195	1.074331	0.033693	7
C	1.870914	0.830011	-0.270367	6
C	1.014405	1.665651	-1.183197	6
H	-2.193105	-2.293709	1.796263	1
H	-0.010505	-1.025219	1.668743	1
H	-1.413495	0.064121	1.676683	1
H	-1.293125	0.275691	-0.799687	1
H	0.065475	-0.842139	-0.862407	1
H	2.177715	-0.152499	-0.605967	1
H	2.585744	1.342351	0.361843	1
H	1.146205	2.740591	-1.164197	1
H	0.718085	1.252881	-2.140157	1
Es	1.101246	2.395894	-1.174332	99
Es	0.806846	1.379936	-1.830156	99
Es	1.619524	1.282547	-0.861604	99
Es	-0.866937	-0.676453	1.081371	99
Es	-2.162779	-2.000397	0.158624	99
Es	-2.067658	-2.330167	-0.221749	99
Es	0.381594	1.287806	0.306183	99
Es	1.087069	0.863458	0.014255	99
Es	-1.245127	-0.194899	1.480185	99
Es	0.573669	1.376044	-0.541719	99
Es	-0.641975	-0.387188	0.430238	99
Es	1.870681	0.830085	-0.270383	99
Es	0.109064	0.566311	-0.109059	99
Es	2.070542	0.156611	-0.494383	99
Es	-2.060255	-2.147262	1.515853	99
Es	0.463407	1.073990	0.033181	99
Es	1.014382	1.665514	-1.182987	99
Es	-0.302137	-0.927902	1.474400	99
Es	-1.783491	-1.852557	0.871791	99
Es	-1.766323	-2.311895	0.190001	99
Es	-0.071697	-0.594448	-0.662183	99
Es	-1.011987	0.168998	-0.615859	99
Es	-1.929427	-2.178068	-0.457372	99
Es	-1.324561	-1.262827	0.972548	99
Es	-2.260766	-2.574250	-0.201462	99
Es	2.358552	1.173326	0.161722	99
Es	-0.413324	-0.072741	-0.242307	99
43
Properties=species:S:1:pos:R:3:Z:I:1 energy=-323.94345127552674 field_type=dipole dipole="0.000000 0.000000 0.000000" charge=0
O	-2.067715	-2.330269	-0.222017	8
C	-1.783495	-1.852569	0.871793	6
C	-0.866905	-0.676399	1.081383	6
C	-0.413395	-0.072829	-0.242407	6
N	0.463195	1.074331	0.033693	7
C	1.870914	0.830011	-0.270367	6
C	1.014405	1.665651	-1.183197	6
H	-2.193105	-2.293709	1.796263	1
H	-0.010505	-1.025219	1.668743	1
H	-1.413495	0.064121	1.676683	1
H	-1.293125	0.275691	-0.799687	1
H	0.065475	-0.842139	-0.862407	1
H	2.177715	-0.152499	-0.605967	1
H	2.585744	1.342351	0.361843	1
H	1.146205	2.740591	-1.164197	1
H	0.718085	1.252881	-2.140157	1
Es	-2.060195	-2.147318	1.515870	99
Es	-0.071780	-0.594367	-0.662274	99
Es	-1.245300	-0.194898	1.480340	99
Es	-1.783484	-1.852563	0.871790	99
Es	1.619615	1.282609	-0.861770	99
Es	1.870692	0.830087	-0.270385	99
Es	-0.641833	-0.387261	0.430202	99
Es	-2.260456	-2.574465	-0.202981	99
Es	-1.927897	-2.177855	-0.456329	99
Es	1.087122	0.863385	0.014353	99
Es	-1.767414	-2.311968	0.190808	99
Es	-0.302271	-0.927830	1.474298	99
Es	0.806990	1.379983	-1.830098	99
Es	-0.866937	-0.676453	1.081370	99
Es	-2.163664	-2.000280	0.158307	99
Es	1.014377	1.665513	-1.182986	99
Es	-0.413324	-0.072741	-0.242308	99
Es	0.381578	1.287707	0.306083	99
Es	-1.324252	-1.262921	0.972520	99
Es	-2.067649	-2.330152	-0.221747	99
Es	0.463418	1.073997	0.033178	99
Es	1.101205	2.395830	-1.174379	99
Es	2.358500	1.173352	0.161686	99
Es	0.573437	1.376039	-0.541630	99
Es	0.109083	0.566385	-0.109055	99
Es	2.070593	0.156636	-0.494306	99
Es	-1.012021	0.169013	-0.615760	99
43
Properties=species:S:1:pos:R:3:Z:I:1 energy=-323.94345127552674 field_type=dipole dipole="0.000000 0.000000 0.000000" charge=0
O	-2.067715	-2.330269	-0.222017	8
C	-1.783495	-1.852569	0.871793	6
C	-0.866905	-0.676399	1.081383	6
C	-0.413395	-0.072829	-0.242407	6
N	0.463195	1.074331	0.033693	7
C	1.870914	0.830011	-0.270367	6
C	1.014405	1.665651	-1.183197	6
H	-2.193105	-2.293709	1.796263	1
H	-0.010505	-1.025219	1.668743	1
H	-1.413495	0.064121	1.676683	1
H	-1.293125	0.275691	-0.799687	1
H	0.065475	-0.842139	-0.862407	1
H	2.177715	-0.152499	-0.605967	1
H	2.585744	1.342351	0.361843	1
H	1.146205	2.740591	-1.164197	1
H	0.718085	1.252881	-2.140157	1
Es	1.101169	2.395755	-1.174426	99
Es	-2.067617	-2.330152	-0.221733	99
Es	0.381950	1.287313	0.305468	99
Es	-1.783489	-1.852560	0.871790	99
Es	1.619874	1.282683	-0.861984	99
Es	-1.930744	-2.176788	-0.457277	99
Es	-1.011973	0.168970	-0.615784	99
Es	-1.765515	-2.312186	0.188823	99
Es	-0.641858	-0.387228	0.430189	99
Es	-1.245364	-0.195000	1.480262	99
Es	0.463412	1.074002	0.033188	99
Es	1.870679	0.830083	-0.270380	99
Es	-0.071785	-0.594342	-0.662263	99
Es	-1.324289	-1.262775	0.972515	99
Es	-0.413324	-0.072741	-0.242307	99
Es	2.070534	0.156735	-0.494233	99
Es	0.108727	0.566498	-0.108694	99
Es	2.358473	1.173194	0.161670	99
Es	-2.260180	-2.574416	-0.201878	99
Es	-0.302250	-0.927844	1.474422	99
Es	1.014377	1.665514	-1.182985	99
Es	0.573157	1.376447	-0.541641	99
Es	-2.060318	-2.147250	1.515833	99
Es	-2.162835	-2.001336	0.160145	99
Es	1.087336	0.863284	0.014708	99
Es	-0.866937	-0.676452	1.081371	99
Es	0.806921	1.380055	-1.830003	99
43
Properties=species:S:1:pos:R:3:Z:I:1 energy=-323.94345127552674 field_type=dipole dipole="0.000000 0.000000 0.000000" charge=0
O	-2.067715	-2.330269	-0.222017	8
C	-1.783495	-1.852569	0.871793	6
C	-0.866905	-0.676399	1.081383	6
C	-0.413395	-0.072829	-0.242407	6
N	0.463195	1.074331	0.033693	7
C	1.870914	0.830011	-0.270367	6
C	1.014405	1.665651	-1.183197	6
H	-2.193105	-2.293709	1.796263	1
H	-0.010505	-1.025219	1.668743	1
H	-1.413495	0.064121	1.676683	1
H	-1.293125	0.275691	-0.799687	1
H	0.065475	-0.842139	-0.862407	1
H	2.177715	-0.152499	-0.605967	1
H	2.585744	1.342351	0.361843	1
H	1.146205	2.740591	-1.164197	1
H	0.718085	1.252881	-2.140157	1
Es	1.014391	1.665510	-1.182983	99
Es	0.108751	0.566508	-0.108720	99
Es	1.101200	2.395677	-1.174482	99
Es	-1.929218	-2.177680	-0.457112	99
Es	0.463407	1.074008	0.033198	99
Es	-2.060260	-2.147330	1.515821	99
Es	2.358402	1.173081	0.161643	99
Es	-0.302273	-0.927904	1.474475	99
Es	-2.260396	-2.574269	-0.202068	99
Es	-0.641755	-0.387301	0.430160	99
Es	1.087391	0.863285	0.014958	99
Es	2.070535	0.156804	-0.494169	99
Es	0.806889	1.380099	-1.829938	99
Es	-0.413325	-0.072742	-0.242308	99
Es	1.620047	1.282788	-0.862228	99
Es	0.573012	1.376626	-0.541504	99
Es	-1.766420	-2.311584	0.190911	99
Es	-0.071871	-0.594280	-0.662367	99
Es	-0.866935	-0.676453	1.081370	99
Es	-1.245371	-0.195028	1.480243	99
Es	-2.067652	-2.330159	-0.221710	99
Es	1.870678	0.830084	-0.270381	99
Es	-1.324196	-1.262717	0.972543	99
Es	-1.011991	0.168982	-0.615670	99
Es	-1.783493	-1.852552	0.871794	99
Es	-2.163353	-2.001090	0.158059	99
Es	0.381936	1.287100	0.305262	99
43
Properties=species:S:1:pos:R:3:Z:I:1 energy=-323.94345127552674 field_type=dipole dipole="0.000000 0.000000 0.000000" charge=0
O	-2.067715	-2.330269	-0.222017	8
C	-1.783495	-1.852569	0.871793	6
C	-0.866905	-0.676399	1.081383	6
C	-0.413395	-0.072829	-0.242407	6
N	0.463195	1.074331	0.033693	7
C	1.870914	0.830011	-0.270367	6
C	1.014405	1.665651	-1.183197	6
H	-2.193105	-2.293709	1.796263	1
H	-0.010505	-1.025219	1.668743	1
H	-1.413495	0.064121	1.676683	1
H	-1.293125	0.275691	-0.799687	1
H	0.065475	-0.842139	-0.862407	1
H	2.177715	-0.152499	-0.605967	1
H	2.585744	1.342351	0.361843	1
H	1.146205	2.740591	-1.164197	1
H	0.718085	1.252881	-2.140157	1
Es	1.620367	1.282861	-0.862369	99
Es	1.101047	2.395562	-1.174494	99
Es	0.108569	0.566570	-0.108406	99
Es	-1.011911	0.168921	-0.615759	99
Es	-1.929830	-2.177466	-0.457051	99
Es	-2.060317	-2.147310	1.515861	99
Es	-2.067672	-2.330178	-0.221708	99
Es	-1.783489	-1.852560	0.871789	99
Es	-2.260068	-2.574265	-0.202155	99
Es	1.087454	0.863247	0.015382	99
Es	-0.302383	-0.927923	1.474393	99
Es	2.358343	1.173004	0.161651	99
Es	1.014379	1.665511	-1.182981	99
Es	-0.641787	-0.387305	0.430120	99
Es	-1.324076	-1.262711	0.972509	99
Es	-1.245421	-0.195027	1.480369	99
Es	-0.866937	-0.676453	1.081370	99
Es	0.382105	1.286890	0.304705	99
Es	-0.413327	-0.072744	-0.242309	99
Es	-0.071884	-0.594228	-0.662292	99
Es	1.870680	0.830081	-0.270377	99
Es	-2.163282	-2.000979	0.159157	99
Es	0.572893	1.376811	-0.541709	99
Es	-1.766147	-2.311919	0.189859	99
Es	2.070541	0.156887	-0.494078	99
Es	0.463402	1.073997	0.033196	99
Es	0.806882	1.380190	-1.829876	99
43
Properties=species:S:1:pos:R:3:Z:I:1 energy=-323.94345127552674 field_type=dipole dipole="0.000000 0.000000 0.000000" charge=0
O	-2.067715	-2.330269	-0.222017	8
C	-1.783495	-1.852569	0.871793	6
C	-0.866905	-0.676399	1.081383	6
C	-0.413395	-0.072829	-0.242407	6
N	0.463195	1.074331	0.033693	7
C	1.870914	0.830011	-0.270367	6
C	1.014405	1.665651	-1.183197	6
H	-2.193105	-2.293709	1.796263	1
H	-0.010505	-1.025219	1.668743	1
H	-1.413495	0.064121	1.676683	1
H	-1.293125	0.275691	-0.799687	1
H	0.065475	-0.842139	-0.862407	1
H	2.177715	-0.152499	-0.605967	1
H	2.585744	1.342351	0.361843	1
H	1.146205	2.740591	-1.164197	1
H	0.718085	1.252881	-2.140157	1
Es	0.108576	0.566647	-0.108466	99
Es	-0.641811	-0.387263	0.430124	99
Es	1.101010	2.395520	-1.174449	99
Es	-0.413325	-0.072743	-0.242308	99
Es	-1.245444	-0.195059	1.480307	99
Es	1.620439	1.282913	-0.862584	99
Es	1.014385	1.665511	-1.182983	99
Es	-0.302353	-0.927925	1.474463	99
Es	2.070505	0.156924	-0.493989	99
Es	-1.324088	-1.262631	0.972537	99
Es	0.806977	1.380291	-1.829855	99
Es	-2.162497	-2.000237	0.158715	99
Es	0.382212	1.286618	0.304853	99
Es	-2.067627	-2.330167	-0.221760	99
Es	-0.071858	-0.594255	-0.662273	99
Es	-2.260177	-2.572834	-0.198845	99
Es	0.463406	1.073984	0.033177	99
Es	-1.766357	-2.312043	0.189872	99
Es	2.358342	1.172950	0.161561	99
Es	-1.011898	0.168903	-0.615776	99
Es	-1.783491	-1.852556	0.871792	99
Es	-1.930309	-2.179549	-0.459880	99
Es	-2.060342	-2.147344	1.515814	99
Es	-0.866935	-0.676454	1.081371	99
Es	0.572630	1.377004	-0.541609	99
Es	1.087478	0.863180	0.015368	99
Es	1.870686	0.830081	-0.270380	99
43
Properties=species:S:1:pos:R:3:Z:I:1 energy=-323.94345127552674 field_type=dipole dipole="0.000000 0.000000 0.000000" charge=0
O	-2.067715	-2.330269	-0.222017	8
C	-1.783495	-1.852569	0.871793	6
C	-0.866905	-0.676399	1.081383	6
C	-0.413395	-0.072829	-0.242407	6
N	0.463195	1.074331	0.033693	7
C	1.870914	0.830011	-0.270367	6
C	1.014405	1.665651	-1.183197	6
H	-2.193105	-2.293709	1.796263	1
H	-0.010505	-1.025219	1.668743	1
H	-1.413495	0.064121	1.676683	1
H	-1.293125	0.275691	-0.799687	1
H	0.065475	-0.842139	-0.862407	1
H	2.177715	-0.152499	-0.605967	1
H	2.585744	1.342351	0.361843	1
H	1.146205	2.740591	-1.164197	1
H	0.718085	1.252881	-2.140157	1
Es	-1.011838	0.168894	-0.615811	99
Es	0.572395	1.377384	-0.541462	99
Es	-0.302334	-0.927899	1.474488	99
Es	-0.413325	-0.072742	-0.242310	99
Es	-0.866935	-0.676453	1.081370	99
Es	1.101006	2.395463	-1.174493	99
Es	-2.162632	-2.000243	0.158759	99
Es	-1.324073	-1.262603	0.972537	99
Es	1.870677	0.830087	-0.270383	99
Es	-1.930527	-2.179207	-0.458749	99
Es	1.087684	0.863211	0.015688	99
Es	-1.245491	-0.195096	1.480290	99
Es	0.108391	0.566659	-0.108248	99
Es	0.463404	1.073988	0.033183	99
Es	2.358334	1.172897	0.161521	99
Es	-1.765897	-2.312046	0.189759	99
Es	-0.071882	-0.594230	-0.662251	99
Es	2.070463	0.156969	-0.493897	99
Es	-0.641885	-0.387261	0.430147	99
Es	1.620635	1.282907	-0.862862	99
Es	0.806879	1.380368	-1.829748	99
Es	-2.067574	-2.330059	-0.221725	99
Es	1.014372	1.665511	-1.182981	99
Es	0.382432	1.286179	0.304318	99
Es	-2.060346	-2.147348	1.515794	99
Es	-2.260312	-2.573307	-0.199931	99
Es	-1.783489	-1.852557	0.871794	99
43
Properties=species:S:1:pos:R:3:Z:I:1 energy=-323.94345127552674 field_type=dipole dipole="0.000000 0.000000 0.000000" charge=0
O	-2.067715	-2.330269	-0.222017	8
C	-1.783495	-1.852569	0.871793	6
C	-0.866905	-0.676399	1.081383	6
C	-0.413395	-0.072829	-0.242407	6
N	0.463195	1.074331	0.033693	7
C	1.870914	0.830011	-0.270367	6
C	1.014405	1.665651	-1.183197	6
H	-2.193105	-2.293709	1.796263	1
H	-0.010505	-1.025219	1.668743	1
H	-1.413495	0.064121	1.676683	1
H	-1.293125	0.275691	-0.799687	1
H	0.065475	-0.842139	-0.862407	1
H	2.177715	-0.152499	-0.605967	1
H	2.585744	1.342351	0.361843	1
H	1.146205	2.740591	-1.164197	1
H	0.718085	1.252881	-2.140157	1
Es	-1.783494	-1.852552	0.871796	99
Es	1.014381	1.665510	-1.182980	99
Es	-2.163040	-2.000981	0.159259	99
Es	-0.413330	-0.072750	-0.242317	99
Es	-1.245511	-0.195107	1.480346	99
Es	0.806827	1.380384	-1.829678	99
Es	0.572358	1.377531	-0.541487	99
Es	-0.071926	-0.594116	-0.662345	99
Es	-2.060383	-2.147342	1.515788	99
Es	0.463404	1.073990	0.033183	99
Es	-0.866936	-0.676454	1.081371	99
Es	-2.260074	-2.573896	-0.201637	99
Es	0.108264	0.566795	-0.108171	99
Es	-1.323986	-1.262464	0.972532	99
Es	-1.011852	0.168884	-0.615725	99
Es	0.382518	1.286101	0.304163	99
Es	1.100988	2.395389	-1.174563	99
Es	1.087580	0.863112	0.015825	99
Es	-2.067638	-2.330140	-0.221711	99
Es	1.620918	1.282888	-0.862950	99
Es	-0.302332	-0.928002	1.474476	99
Es	-1.765692	-2.312093	0.189661	99
Es	1.870675	0.830085	-0.270381	99
Es	-1.930503	-2.177791	-0.457439	99
Es	2.070464	0.157052	-0.493840	99
Es	2.358287	1.172819	0.161520	99
Es	-0.641835	-0.387387	0.430102	99
43
Properties=species:S:1:pos:R:3:Z:I:1 energy=-323.94345127552674 field_type=dipole dipole="0.000000 0.000000 0.000000" charge=0
O	-2.067715	-2.330269	-0.222017	8
C	-1.783495	-1.852569	0.871793	6
C	-0.866905	-0.676399	1.081383	6
C	-0.413395	-0.072829	-0.242407	6
N	0.463195	1.074331	0.033693	7
C	1.870914	0.830011	-0.270367	6
C	1.014405	1.665651	-1.183197	6
H	-2.193105	-2.293709	1.796263	1
H	-0.010505	-1.025219	1.668743	1
H	-1.413495	0.064121	1.676683	1
H	-1.293125	0.275691	-0.799687	1
H	0.065475	-0.842139	-0.862407	1
H	2.177715	-0.152499	-0.605967	1
H	2.585744	1.342351	0.361843	1
H	1.146205	2.740591	-1.164197	1
H	0.718085	1.252881	-2.140157	1
Es	2.070434	0.157101	-0.493844	99
Es	0.108205	0.566797	-0.108025	99
Es	-1.011757	0.168854	-0.615881	99
Es	-0.866934	-0.676453	1.081369	99
Es	-0.302394	-0.928035	1.474513	99
Es	-2.163438	-2.001718	0.159217	99
Es	-1.766772	-2.313336	0.190957	99
Es	-2.067588	-2.330075	-0.221725	99
Es	-1.928448	-2.175920	-0.454794	99
Es	-2.260742	-2.573802	-0.205513	99
Es	0.382852	1.285685	0.304165	99
Es	-2.060383	-2.147392	1.515796	99
Es	-1.323949	-1.262431	0.972513	99
Es	2.358210	1.172631	0.161572	99
Es	1.621315	1.283026	-0.863023	99
Es	0.806895	1.380402	-1.829575	99
Es	-0.413326	-0.072743	-0.242309	99
Es	-1.783488	-1.852558	0.871793	99
Es	1.087630	0.863189	0.015451	99
Es	0.571772	1.377902	-0.541247	99
Es	1.870669	0.830084	-0.270381	99
Es	1.014382	1.665511	-1.182981	99
Es	-1.245518	-0.195154	1.480344	99
Es	-0.071920	-0.594141	-0.662211	99
Es	-0.641912	-0.387281	0.430091	99
Es	0.463430	1.074010	0.033178	99
Es	1.100908	2.395310	-1.174656	99
