40
Properties=species:S:1:pos:R:3:Z:I:1 energy=-322.80928704675676 field_type=dipole dipole="0.000000 0.000000 0.000000" charge=0
O	-1.689881	-0.611848	0.903826	8
C	-0.379901	-0.418788	0.368787	6
C	-0.275361	-1.191798	-0.947443	6
C	1.105119	-1.230978	-1.439353	6
N	2.197859	-1.270228	-1.826174	7
C	-0.194941	1.063722	0.203977	6
C	0.773849	1.775392	0.795197	6
H	-1.750941	-0.061378	1.705246	1
H	0.330289	-0.825508	1.099556	1
H	-0.939711	-0.753698	-1.703844	1
H	-0.638631	-2.215468	-0.795673	1
H	-0.905921	1.578952	-0.439993	1
H	1.513649	1.315142	1.443967	1
H	0.854519	2.846482	0.631927	1
Es	2.543903	-1.282307	-1.948152	99
Es	0.086371	1.460230	0.766248	99
Es	2.197435	-1.270214	-1.826022	99
Es	0.831540	2.498343	0.691088	99
Es	-1.881240	-0.487941	0.697571	99
Es	1.273134	1.466275	1.235181	99
Es	-0.307409	-0.805025	-0.315444	99
Es	1.104757	-1.230975	-1.439224	99
Es	-1.186558	-0.524483	0.713311	99
Es	-0.488409	-1.868683	-0.848085	99
Es	-0.275181	-1.191775	-0.947480	99
Es	1.627705	-1.496578	-1.825605	99
Es	-1.705295	-0.906354	0.990131	99
Es	-0.681803	1.397907	-0.234411	99
Es	-1.700288	-0.312506	1.329560	99
Es	-0.195015	1.063643	0.203944	99
Es	0.479010	1.363297	0.249857	99
Es	-0.380132	-0.418819	0.368769	99
Es	0.117625	-0.692590	0.859418	99
Es	1.800195	-1.295442	-1.358707	99
Es	1.674564	-0.966596	-1.762929	99
Es	0.773914	1.775439	0.795245	99
Es	0.457377	-1.205349	-1.205231	99
Es	-1.689637	-0.611669	0.903955	99
Es	-0.271382	0.326414	0.271774	99
Es	-0.692050	-0.892494	-1.454524	99
40
Properties=species:S:1:pos:R:3:Z:I:1 energy=-322.80928704675676 field_type=dipole dipole="0.000000 0.000000 0.000000" charge=0
O	-1.689881	-0.611848	0.903826	8
C	-0.379901	-0.418788	0.368787	6
C	-0.275361	-1.191798	-0.947443	6
C	1.105119	-1.230978	-1.439353	6
N	2.197859	-1.270228	-1.826174	7
C	-0.194941	1.063722	0.203977	6
C	0.773849	1.775392	0.795197	6
H	-1.750941	-0.061378	1.705246	1
H	0.330289	-0.825508	1.099556	1
H	-0.939711	-0.753698	-1.703844	1
H	-0.638631	-2.215468	-0.795673	1
H	-0.905921	1.578952	-0.439993	1
H	1.513649	1.315142	1.443967	1
H	0.854519	2.846482	0.631927	1
Es	-1.704657	-0.905428	0.990487	99
Es	-0.307472	-0.805018	-0.315471	99
Es	0.086658	1.460369	0.765706	99
Es	1.104766	-1.230972	-1.439234	99
Es	-0.380127	-0.418818	0.368769	99
Es	-1.186450	-0.524498	0.712723	99
Es	-1.881944	-0.489026	0.697751	99
Es	-0.488409	-1.868683	-0.848124	99
Es	0.831514	2.498415	0.691170	99
Es	0.117685	-0.692563	0.859384	99
Es	0.773913	1.775441	0.795247	99
Es	-0.271662	0.326370	0.272230	99
Es	1.663836	-1.550046	-1.725518	99
Es	-0.681831	1.397910	-0.234439	99
Es	2.543876	-1.282692	-1.947689	99
Es	1.639157	-1.031806	-1.855922	99
Es	-0.275181	-1.191778	-0.947479	99
Es	0.479150	1.363135	0.249726	99
Es	2.197435	-1.270214	-1.826023	99
Es	-0.692022	-0.892500	-1.454490	99
Es	1.272998	1.466215	1.235329	99
Es	0.457267	-1.205483	-1.205370	99
Es	1.799618	-1.176211	-1.366102	99
Es	-1.689623	-0.611689	0.903973	99
Es	-0.195005	1.063645	0.203941	99
Es	-1.700354	-0.312332	1.329661	99
40
Properties=species:S:1:pos:R:3:Z:I:1 energy=-322.80928704675676 field_type=dipole dipole="0.000000 0.000000 0.000000" charge=0
O	-1.689881	-0.611848	0.903826	8
C	-0.379901	-0.418788	0.368787	6
C	-0.275361	-1.191798	-0.947443	6
C	1.105119	-1.230978	-1.439353	6
N	2.197859	-1.270228	-1.826174	7
C	-0.194941	1.063722	0.203977	6
C	0.773849	1.775392	0.795197	6
H	-1.750941	-0.061378	1.705246	1
H	0.330289	-0.825508	1.099556	1
H	-0.939711	-0.753698	-1.703844	1
H	-0.638631	-2.215468	-0.795673	1
H	-0.905921	1.578952	-0.439993	1
H	1.513649	1.315142	1.443967	1
H	0.854519	2.846482	0.631927	1
Es	-0.692113	-0.892673	-1.454595	99
Es	-0.380127	-0.418817	0.368772	99
Es	2.543604	-1.282666	-1.947706	99
Es	-1.705242	-0.905009	0.990049	99
Es	0.773913	1.775439	0.795243	99
Es	1.799450	-1.171887	-1.367427	99
Es	-0.307370	-0.804965	-0.315416	99
Es	-0.271456	0.326266	0.271951	99
Es	2.197434	-1.270214	-1.826023	99
Es	-0.195011	1.063642	0.203937	99
Es	-0.275183	-1.191778	-0.947479	99
Es	0.831615	2.498395	0.690932	99
Es	1.665577	-1.551571	-1.721014	99
Es	0.117599	-0.692483	0.859329	99
Es	0.086466	1.460306	0.765973	99
Es	-1.700683	-0.312358	1.329944	99
Es	1.104765	-1.230974	-1.439217	99
Es	-0.488158	-1.868784	-0.848045	99
Es	-1.186068	-0.524941	0.712713	99
Es	0.478866	1.363252	0.250179	99
Es	1.637852	-1.034692	-1.859208	99
Es	0.457084	-1.205296	-1.205278	99
Es	-1.881437	-0.489016	0.697972	99
Es	-0.681754	1.398006	-0.234487	99
Es	-1.689630	-0.611640	0.903957	99
Es	1.273139	1.466202	1.235181	99
40
Properties=species:S:1:pos:R:3:Z:I:1 energy=-322.80928704675676 field_type=dipole dipole="0.000000 0.000000 0.000000" charge=0
O	-1.689881	-0.611848	0.903826	8
C	-0.379901	-0.418788	0.368787	6
C	-0.275361	-1.191798	-0.947443	6
C	1.105119	-1.230978	-1.439353	6
N	2.197859	-1.270228	-1.826174	7
C	-0.194941	1.063722	0.203977	6
C	0.773849	1.775392	0.795197	6
H	-1.750941	-0.061378	1.705246	1
H	0.330289	-0.825508	1.099556	1
H	-0.939711	-0.753698	-1.703844	1
H	-0.638631	-2.215468	-0.795673	1
H	-0.905921	1.578952	-0.439993	1
H	1.513649	1.315142	1.443967	1
H	0.854519	2.846482	0.631927	1
Es	1.104764	-1.230966	-1.439234	99
Es	-0.307261	-0.804955	-0.315382	99
Es	-0.195010	1.063640	0.203939	99
Es	-0.275184	-1.191777	-0.947479	99
Es	2.197444	-1.270214	-1.826026	99
Es	0.831559	2.498340	0.691006	99
Es	0.457087	-1.205491	-1.205066	99
Es	-0.271502	0.326242	0.272252	99
Es	-1.186137	-0.524491	0.712542	99
Es	2.543080	-1.282302	-1.948209	99
Es	0.086543	1.460383	0.765769	99
Es	-1.689656	-0.611630	0.903922	99
Es	1.273123	1.466220	1.235290	99
Es	-1.702248	-0.903362	0.992460	99
Es	-1.701417	-0.311170	1.329023	99
Es	0.773916	1.775440	0.795245	99
Es	0.117611	-0.692409	0.859289	99
Es	1.762060	-1.491840	-1.462310	99
Es	-0.681812	1.397964	-0.234554	99
Es	0.478914	1.363226	0.250068	99
Es	1.595063	-1.303269	-1.935974	99
Es	-1.883610	-0.492380	0.696741	99
Es	-0.380124	-0.418817	0.368771	99
Es	-0.691973	-0.892485	-1.454721	99
Es	-0.488284	-1.868742	-0.848178	99
Es	1.746186	-0.963407	-1.548945	99
40
Properties=species:S:1:pos:R:3:Z:I:1 energy=-322.80928704675676 field_type=dipole dipole="0.000000 0.000000 0.000000" charge=0
O	-1.689881	-0.611848	0.903826	8
C	-0.379901	-0.418788	0.368787	6
C	-0.275361	-1.191798	-0.947443	6
C	1.105119	-1.230978	-1.439353	6
N	2.197859	-1.270228	-1.826174	7
C	-0.194941	1.063722	0.203977	6
C	0.773849	1.775392	0.795197	6
H	-1.750941	-0.061378	1.705246	1
H	0.330289	-0.825508	1.099556	1
H	-0.939711	-0.753698	-1.703844	1
H	-0.638631	-2.215468	-0.795673	1
H	-0.905921	1.578952	-0.439993	1
H	1.513649	1.315142	1.443967	1
H	0.854519	2.846482	0.631927	1
Es	0.086568	1.460399	0.765763	99
Es	2.543028	-1.282799	-1.947806	99
Es	-0.275183	-1.191776	-0.947481	99
Es	1.273111	1.466112	1.235233	99
Es	-0.681645	1.398036	-0.234534	99
Es	0.831596	2.498426	0.691012	99
Es	-1.700941	-0.311939	1.329166	99
Es	-0.271552	0.326115	0.272140	99
Es	-0.195013	1.063638	0.203938	99
Es	-1.881960	-0.489699	0.697418	99
Es	1.623899	-1.487275	-1.837213	99
Es	0.478819	1.363253	0.250190	99
Es	-1.185977	-0.524800	0.713078	99
Es	-0.488295	-1.868820	-0.848161	99
Es	2.197438	-1.270214	-1.826025	99
Es	-1.689674	-0.611691	0.903918	99
Es	0.773910	1.775438	0.795245	99
Es	1.799815	-1.310197	-1.360072	99
Es	-0.307226	-0.804793	-0.315329	99
Es	0.117594	-0.692417	0.859278	99
Es	-0.691864	-0.892535	-1.454793	99
Es	-1.704560	-0.904843	0.991130	99
Es	-0.380116	-0.418816	0.368769	99
Es	1.104782	-1.230951	-1.439213	99
Es	1.679667	-0.960621	-1.750305	99
Es	0.456913	-1.205484	-1.205107	99
40
Properties=species:S:1:pos:R:3:Z:I:1 energy=-322.80928704675676 field_type=dipole dipole="0.000000 0.000000 0.000000" charge=0
O	-1.689881	-0.611848	0.903826	8
C	-0.379901	-0.418788	0.368787	6
C	-0.275361	-1.191798	-0.947443	6
C	1.105119	-1.230978	-1.439353	6
N	2.197859	-1.270228	-1.826174	7
C	-0.194941	1.063722	0.203977	6
C	0.773849	1.775392	0.795197	6
H	-1.750941	-0.061378	1.705246	1
H	0.330289	-0.825508	1.099556	1
H	-0.939711	-0.753698	-1.703844	1
H	-0.638631	-2.215468	-0.795673	1
H	-0.905921	1.578952	-0.439993	1
H	1.513649	1.315142	1.443967	1
H	0.854519	2.846482	0.631927	1
Es	-0.488231	-1.868943	-0.848301	99
Es	-0.195011	1.063642	0.203941	99
Es	0.117619	-0.692388	0.859236	99
Es	1.104770	-1.230962	-1.439227	99
Es	-1.700785	-0.312680	1.329988	99
Es	1.273001	1.466097	1.235268	99
Es	-1.186101	-0.524392	0.712575	99
Es	-0.681753	1.398037	-0.234521	99
Es	0.773913	1.775438	0.795241	99
Es	-0.307332	-0.804769	-0.315275	99
Es	-1.705393	-0.905441	0.989699	99
Es	-1.881203	-0.488870	0.698566	99
Es	1.685162	-0.954972	-1.735114	99
Es	2.197436	-1.270213	-1.826023	99
Es	-0.691742	-0.892534	-1.454846	99
Es	-0.380124	-0.418817	0.368770	99
Es	0.478839	1.363270	0.250135	99
Es	1.798478	-1.327405	-1.363493	99
Es	2.542855	-1.282836	-1.947593	99
Es	-0.271482	0.326109	0.272177	99
Es	0.831686	2.498415	0.691065	99
Es	1.619970	-1.475659	-1.849212	99
Es	0.086580	1.460400	0.765696	99
Es	-0.275185	-1.191777	-0.947479	99
Es	0.456802	-1.205374	-1.204968	99
Es	-1.689634	-0.611632	0.903932	99
40
Properties=species:S:1:pos:R:3:Z:I:1 energy=-322.80928704675676 field_type=dipole dipole="0.000000 0.000000 0.000000" charge=0
O	-1.689881	-0.611848	0.903826	8
C	-0.379901	-0.418788	0.368787	6
C	-0.275361	-1.191798	-0.947443	6
C	1.105119	-1.230978	-1.439353	6
N	2.197859	-1.270228	-1.826174	7
C	-0.194941	1.063722	0.203977	6
C	0.773849	1.775392	0.795197	6
H	-1.750941	-0.061378	1.705246	1
H	0.330289	-0.825508	1.099556	1
H	-0.939711	-0.753698	-1.703844	1
H	-0.638631	-2.215468	-0.795673	1
H	-0.905921	1.578952	-0.439993	1
H	1.513649	1.315142	1.443967	1
H	0.854519	2.846482	0.631927	1
Es	-1.689625	-0.611563	0.903925	99
Es	0.456673	-1.205596	-1.204918	99
Es	-0.380121	-0.418817	0.368769	99
Es	1.753415	-1.511565	-1.485626	99
Es	2.197435	-1.270214	-1.826023	99
Es	-1.185924	-0.524466	0.712125	99
Es	-0.681763	1.398164	-0.234583	99
Es	1.273128	1.466159	1.235209	99
Es	-0.691851	-0.892573	-1.454862	99
Es	-0.275185	-1.191778	-0.947479	99
Es	0.086619	1.460301	0.765730	99
Es	1.754669	-0.975598	-1.522457	99
Es	1.595795	-1.271088	-1.939735	99
Es	-1.704243	-0.904088	0.990611	99
Es	2.542589	-1.282430	-1.947744	99
Es	0.478739	1.363234	0.250317	99
Es	0.831621	2.498378	0.690983	99
Es	0.773912	1.775439	0.795245	99
Es	-0.488166	-1.868940	-0.848175	99
Es	-0.307151	-0.804758	-0.315259	99
Es	-1.700991	-0.312326	1.329846	99
Es	0.117663	-0.692294	0.859271	99
Es	1.104767	-1.230965	-1.439224	99
Es	-0.195010	1.063644	0.203943	99
Es	-0.271492	0.325993	0.272052	99
Es	-1.882371	-0.490508	0.698295	99
40
Properties=species:S:1:pos:R:3:Z:I:1 energy=-322.80928704675676 field_type=dipole dipole="0.000000 0.000000 0.000000" charge=0
O	-1.689881	-0.611848	0.903826	8
C	-0.379901	-0.418788	0.368787	6
C	-0.275361	-1.191798	-0.947443	6
C	1.105119	-1.230978	-1.439353	6
N	2.197859	-1.270228	-1.826174	7
C	-0.194941	1.063722	0.203977	6
C	0.773849	1.775392	0.795197	6
H	-1.750941	-0.061378	1.705246	1
H	0.330289	-0.825508	1.099556	1
H	-0.939711	-0.753698	-1.703844	1
H	-0.638631	-2.215468	-0.795673	1
H	-0.905921	1.578952	-0.439993	1
H	1.513649	1.315142	1.443967	1
H	0.854519	2.846482	0.631927	1
Es	0.831628	2.498331	0.691039	99
Es	-1.701995	-0.903072	0.992396	99
Es	-0.488043	-1.869080	-0.848332	99
Es	-0.195007	1.063646	0.203937	99
Es	1.697288	-0.946467	-1.700827	99
Es	1.273113	1.466072	1.235328	99
Es	-1.689658	-0.611597	0.903916	99
Es	-1.701303	-0.311234	1.329241	99
Es	2.197437	-1.270214	-1.826023	99
Es	0.086687	1.460388	0.765540	99
Es	-1.883912	-0.493342	0.698396	99
Es	0.456585	-1.205180	-1.205087	99
Es	-0.306991	-0.804886	-0.315159	99
Es	-0.380122	-0.418817	0.368771	99
Es	2.542327	-1.282936	-1.947757	99
Es	-0.691914	-0.892498	-1.454764	99
Es	0.478752	1.363289	0.250207	99
Es	1.104768	-1.230965	-1.439230	99
Es	0.773913	1.775438	0.795244	99
Es	-0.271501	0.325985	0.272192	99
Es	-1.186313	-0.523678	0.710774	99
Es	1.794861	-1.362531	-1.373556	99
Es	1.611945	-1.449007	-1.873331	99
Es	-0.275185	-1.191778	-0.947479	99
Es	-0.681784	1.398160	-0.234520	99
Es	0.117557	-0.692281	0.859321	99
40
Properties=species:S:1:pos:R:3:Z:I:1 energy=-322.80928704675676 field_type=dipole dipole="0.000000 0.000000 0.000000" charge=0
O	-1.689881	-0.611848	0.903826	8
C	-0.379901	-0.418788	0.368787	6
C	-0.275361	-1.191798	-0.947443	6
C	1.105119	-1.230978	-1.439353	6
N	2.197859	-1.270228	-1.826174	7
C	-0.194941	1.063722	0.203977	6
C	0.773849	1.775392	0.795197	6
H	-1.750941	-0.061378	1.705246	1
H	0.330289	-0.825508	1.099556	1
H	-0.939711	-0.753698	-1.703844	1
H	-0.638631	-2.215468	-0.795673	1
H	-0.905921	1.578952	-0.439993	1
H	1.513649	1.315142	1.443967	1
H	0.854519	2.846482	0.631927	1
Es	0.478576	1.363301	0.250534	99
Es	0.831598	2.498446	0.690880	99
Es	-0.307024	-0.804751	-0.315176	99
Es	-1.689556	-0.611738	0.904038	99
Es	1.273168	1.466076	1.235248	99
Es	-1.185994	-0.523930	0.711254	99
Es	-1.701973	-0.310567	1.328767	99
Es	-0.380121	-0.418816	0.368770	99
Es	-0.275185	-1.191778	-0.947479	99
Es	-0.488039	-1.869009	-0.848310	99
Es	1.781369	-1.435152	-1.410415	99
Es	-1.702265	-0.902872	0.992691	99
Es	0.773918	1.775439	0.795240	99
Es	2.542099	-1.282628	-1.947842	99
Es	1.104768	-1.230966	-1.439229	99
Es	0.117588	-0.692276	0.859236	99
Es	-0.195009	1.063643	0.203943	99
Es	2.197435	-1.270214	-1.826022	99
Es	-1.883399	-0.493833	0.698060	99
Es	1.723351	-0.944188	-1.622602	99
Es	-0.271444	0.325855	0.272232	99
Es	1.599592	-1.378899	-1.914711	99
Es	0.456550	-1.205372	-1.204900	99
Es	0.086712	1.460339	0.765525	99
Es	-0.681722	1.398171	-0.234578	99
Es	-0.691860	-0.892535	-1.454917	99
40
Properties=species:S:1:pos:R:3:Z:I:1 energy=-322.80928704675676 field_type=dipole dipole="0.000000 0.000000 0.000000" charge=0
O	-1.689881	-0.611848	0.903826	8
C	-0.379901	-0.418788	0.368787	6
C	-0.275361	-1.191798	-0.947443	6
C	1.105119	-1.230978	-1.439353	6
N	2.197859	-1.270228	-1.826174	7
C	-0.194941	1.063722	0.203977	6
C	0.773849	1.775392	0.795197	6
H	-1.750941	-0.061378	1.705246	1
H	0.330289	-0.825508	1.099556	1
H	-0.939711	-0.753698	-1.703844	1
H	-0.638631	-2.215468	-0.795673	1
H	-0.905921	1.578952	-0.439993	1
H	1.513649	1.315142	1.443967	1
H	0.854519	2.846482	0.631927	1
Es	-0.691893	-0.892507	-1.454976	99
Es	2.541883	-1.282879	-1.947672	99
Es	-0.271384	0.325900	0.272316	99
Es	0.773914	1.775440	0.795245	99
Es	-1.689665	-0.611662	0.903915	99
Es	-1.880454	-0.490516	0.699485	99
Es	-0.306991	-0.804731	-0.315129	99
Es	-0.275181	-1.191777	-0.947480	99
Es	-0.681871	1.398144	-0.234593	99
Es	2.197441	-1.270213	-1.826024	99
Es	0.478631	1.363279	0.250414	99
Es	-0.195013	1.063644	0.203941	99
Es	1.104751	-1.230971	-1.439230	99
Es	0.086835	1.460298	0.765414	99
Es	-0.487966	-1.869045	-0.848324	99
Es	0.117626	-0.692271	0.859231	99
Es	1.273116	1.466110	1.235302	99
Es	0.831553	2.498443	0.690966	99
Es	-1.185713	-0.524211	0.711687	99
Es	1.618041	-1.470556	-1.855354	99
Es	0.456385	-1.205250	-1.205008	99
Es	-0.380124	-0.418817	0.368770	99
Es	1.798346	-1.335374	-1.364943	99
Es	1.688222	-0.952163	-1.727455	99
Es	-1.701858	-0.311566	1.329513	99
Es	-1.705496	-0.905006	0.990229	99
40
Properties=species:S:1:pos:R:3:Z:I:1 energy=-322.80928704675676 field_type=dipole dipole="0.000000 0.000000 0.000000" charge=0
O	-1.689881	-0.611848	0.903826	8
C	-0.379901	-0.418788	0.368787	6
C	-0.275361	-1.191798	-0.947443	6
C	1.105119	-1.230978	-1.439353	6
N	2.197859	-1.270228	-1.826174	7
C	-0.194941	1.063722	0.203977	6
C	0.773849	1.775392	0.795197	6
H	-1.750941	-0.061378	1.705246	1
H	0.330289	-0.825508	1.099556	1
H	-0.939711	-0.753698	-1.703844	1
H	-0.638631	-2.215468	-0.795673	1
H	-0.905921	1.578952	-0.439993	1
H	1.513649	1.315142	1.443967	1
H	0.854519	2.846482	0.631927	1
Es	-1.879987	-0.488703	0.699107	99
Es	-0.681758	1.398224	-0.234560	99
Es	-1.184998	-0.525832	0.712523	99
Es	0.773912	1.775439	0.795243	99
Es	2.541799	-1.282782	-1.947238	99
Es	0.456322	-1.205370	-1.204905	99
Es	1.801748	-1.290456	-1.356623	99
Es	-0.488047	-1.869042	-0.848417	99
Es	2.197434	-1.270215	-1.826021	99
Es	0.117529	-0.692251	0.859187	99
Es	-1.689520	-0.611745	0.904067	99
Es	0.086868	1.460321	0.765327	99
Es	1.104770	-1.230964	-1.439232	99
Es	-0.691713	-0.892515	-1.455020	99
Es	1.273104	1.466053	1.235310	99
Es	-0.380121	-0.418816	0.368771	99
Es	0.831566	2.498475	0.690967	99
Es	-1.707311	-0.904078	0.988800	99
Es	0.478552	1.363312	0.250499	99
Es	-1.701412	-0.312589	1.330331	99
Es	-0.195007	1.063648	0.203941	99
Es	1.629226	-1.500704	-1.823253	99
Es	1.673732	-0.966990	-1.768348	99
Es	-0.306980	-0.804681	-0.315089	99
Es	-0.271389	0.325783	0.272349	99
Es	-0.275184	-1.191778	-0.947478	99
40
Properties=species:S:1:pos:R:3:Z:I:1 energy=-322.80928704675676 field_type=dipole dipole="0.000000 0.000000 0.000000" charge=0
O	-1.689881	-0.611848	0.903826	8
C	-0.379901	-0.418788	0.368787	6
C	-0.275361	-1.191798	-0.947443	6
C	1.105119	-1.230978	-1.439353	6
N	2.197859	-1.270228	-1.826174	7
C	-0.194941	1.063722	0.203977	6
C	0.773849	1.775392	0.795197	6
H	-1.750941	-0.061378	1.705246	1
H	0.330289	-0.825508	1.099556	1
H	-0.939711	-0.753698	-1.703844	1
H	-0.638631	-2.215468	-0.795673	1
H	-0.905921	1.578952	-0.439993	1
H	1.513649	1.315142	1.443967	1
H	0.854519	2.846482	0.631927	1
Es	0.478527	1.363301	0.250532	99
Es	1.769123	-1.477273	-1.444471	99
Es	-1.689656	-0.611652	0.903929	99
Es	0.117517	-0.692186	0.859212	99
Es	0.773909	1.775437	0.795243	99
Es	-0.681721	1.398252	-0.234596	99
Es	-0.380120	-0.418816	0.368770	99
Es	0.086926	1.460369	0.765181	99
Es	-0.195005	1.063646	0.203944	99
Es	0.831535	2.498466	0.690971	99
Es	-0.691668	-0.892515	-1.455091	99
Es	-0.488031	-1.869123	-0.848367	99
Es	1.104766	-1.230970	-1.439233	99
Es	2.197449	-1.270215	-1.826028	99
Es	-0.306889	-0.804633	-0.315147	99
Es	1.740352	-0.955079	-1.570424	99
Es	-1.703675	-0.903324	0.991107	99
Es	2.541356	-1.282565	-1.947738	99
Es	-0.275187	-1.191778	-0.947479	99
Es	-1.882127	-0.492674	0.699482	99
Es	1.595625	-1.325882	-1.932935	99
Es	-0.271409	0.325664	0.272409	99
Es	-1.702046	-0.311408	1.329646	99
Es	1.273080	1.466055	1.235400	99
Es	-1.185740	-0.523855	0.710680	99
Es	0.456241	-1.205495	-1.204756	99
40
Properties=species:S:1:pos:R:3:Z:I:1 energy=-322.80928704675676 field_type=dipole dipole="0.000000 0.000000 0.000000" charge=0
O	-1.689881	-0.611848	0.903826	8
C	-0.379901	-0.418788	0.368787	6
C	-0.275361	-1.191798	-0.947443	6
C	1.105119	-1.230978	-1.439353	6
N	2.197859	-1.270228	-1.826174	7
C	-0.194941	1.063722	0.203977	6
C	0.773849	1.775392	0.795197	6
H	-1.750941	-0.061378	1.705246	1
H	0.330289	-0.825508	1.099556	1
H	-0.939711	-0.753698	-1.703844	1
H	-0.638631	-2.215468	-0.795673	1
H	-0.905921	1.578952	-0.439993	1
H	1.513649	1.315142	1.443967	1
H	0.854519	2.846482	0.631927	1
Es	-0.681759	1.398213	-0.234591	99
Es	-0.487966	-1.869179	-0.848419	99
Es	-1.185360	-0.524652	0.711704	99
Es	1.711118	-0.941787	-1.660883	99
Es	0.773905	1.775434	0.795243	99
Es	1.604757	-1.415181	-1.897226	99
Es	0.456073	-1.205412	-1.204781	99
Es	0.117511	-0.692147	0.859151	99
Es	-1.689625	-0.611684	0.903970	99
Es	1.273073	1.466075	1.235296	99
Es	-0.195007	1.063647	0.203943	99
Es	-1.701962	-0.311970	1.329941	99
Es	-0.691630	-0.892520	-1.455152	99
Es	-1.704673	-0.903223	0.990358	99
Es	2.197432	-1.270214	-1.826021	99
Es	-0.271386	0.325679	0.272446	99
Es	0.086872	1.460354	0.765269	99
Es	-0.380119	-0.418817	0.368770	99
Es	-0.275188	-1.191778	-0.947479	99
Es	2.541351	-1.282762	-1.947588	99
Es	1.789250	-1.401168	-1.389850	99
Es	-1.881663	-0.491407	0.698933	99
Es	1.104755	-1.230974	-1.439232	99
Es	0.831615	2.498513	0.690863	99
Es	0.478544	1.363256	0.250599	99
Es	-0.306786	-0.804552	-0.315028	99
40
Properties=species:S:1:pos:R:3:Z:I:1 energy=-322.80928704675676 field_type=dipole dipole="0.000000 0.000000 0.000000" charge=0
O	-1.689881	-0.611848	0.903826	8
C	-0.379901	-0.418788	0.368787	6
C	-0.275361	-1.191798	-0.947443	6
C	1.105119	-1.230978	-1.439353	6
N	2.197859	-1.270228	-1.826174	7
C	-0.194941	1.063722	0.203977	6
C	0.773849	1.775392	0.795197	6
H	-1.750941	-0.061378	1.705246	1
H	0.330289	-0.825508	1.099556	1
H	-0.939711	-0.753698	-1.703844	1
H	-0.638631	-2.215468	-0.795673	1
H	-0.905921	1.578952	-0.439993	1
H	1.513649	1.315142	1.443967	1
H	0.854519	2.846482	0.631927	1
Es	0.456074	-1.205421	-1.204699	99
Es	-1.882976	-0.494146	0.699218	99
Es	-0.271438	0.325640	0.272482	99
Es	-1.689599	-0.611663	0.904004	99
Es	-0.275188	-1.191779	-0.947479	99
Es	-0.306731	-0.804639	-0.315018	99
Es	0.478523	1.363242	0.250565	99
Es	-0.487923	-1.869204	-0.848467	99
Es	1.727902	-0.945261	-1.609709	99
Es	-1.185849	-0.523594	0.710379	99
Es	-0.195005	1.063646	0.203945	99
Es	2.197443	-1.270214	-1.826025	99
Es	1.273046	1.466044	1.235357	99
Es	0.117497	-0.692083	0.859193	99
Es	-0.691660	-0.892480	-1.455145	99
Es	1.779061	-1.446679	-1.417792	99
Es	0.831565	2.498527	0.690942	99
Es	-1.702330	-0.310917	1.329303	99
Es	2.541069	-1.282421	-1.947451	99
Es	-0.380116	-0.418816	0.368770	99
Es	0.087001	1.460339	0.765140	99
Es	1.598412	-1.366498	-1.920661	99
Es	-1.702552	-0.902624	0.991971	99
Es	0.773911	1.775438	0.795245	99
Es	-0.681772	1.398255	-0.234600	99
Es	1.104766	-1.230945	-1.439229	99
40
Properties=species:S:1:pos:R:3:Z:I:1 energy=-322.80928704675676 field_type=dipole dipole="0.000000 0.000000 0.000000" charge=0
O	-1.689881	-0.611848	0.903826	8
C	-0.379901	-0.418788	0.368787	6
C	-0.275361	-1.191798	-0.947443	6
C	1.105119	-1.230978	-1.439353	6
N	2.197859	-1.270228	-1.826174	7
C	-0.194941	1.063722	0.203977	6
C	0.773849	1.775392	0.795197	6
H	-1.750941	-0.061378	1.705246	1
H	0.330289	-0.825508	1.099556	1
H	-0.939711	-0.753698	-1.703844	1
H	-0.638631	-2.215468	-0.795673	1
H	-0.905921	1.578952	-0.439993	1
H	1.513649	1.315142	1.443967	1
H	0.854519	2.846482	0.631927	1
Es	0.087063	1.460267	0.765058	99
Es	-0.271396	0.325514	0.272511	99
Es	-0.380116	-0.418816	0.368770	99
Es	1.273113	1.465997	1.235315	99
Es	-0.691575	-0.892441	-1.455124	99
Es	-1.703204	-0.902925	0.991177	99
Es	-0.487955	-1.869200	-0.848586	99
Es	0.478380	1.363348	0.250713	99
Es	1.796984	-1.128208	-1.380753	99
Es	-0.681783	1.398372	-0.234560	99
Es	-0.306734	-0.804609	-0.315017	99
Es	-1.689557	-0.611704	0.904026	99
Es	0.455792	-1.205498	-1.204863	99
Es	2.197436	-1.270213	-1.826023	99
Es	-1.882637	-0.493284	0.699678	99
Es	1.626507	-1.068693	-1.888643	99
Es	-1.702112	-0.311546	1.329668	99
Es	-1.185788	-0.523492	0.710372	99
Es	0.831554	2.498526	0.690936	99
Es	-0.275189	-1.191779	-0.947479	99
Es	0.773910	1.775437	0.795243	99
Es	-0.195006	1.063642	0.203943	99
Es	1.682154	-1.561549	-1.679287	99
Es	2.541032	-1.282344	-1.946742	99
Es	1.104764	-1.230962	-1.439234	99
Es	0.117495	-0.692097	0.859140	99
40
Properties=species:S:1:pos:R:3:Z:I:1 energy=-322.80928704675676 field_type=dipole dipole="0.000000 0.000000 0.000000" charge=0
O	-1.689881	-0.611848	0.903826	8
C	-0.379901	-0.418788	0.368787	6
C	-0.275361	-1.191798	-0.947443	6
C	1.105119	-1.230978	-1.439353	6
N	2.197859	-1.270228	-1.826174	7
C	-0.194941	1.063722	0.203977	6
C	0.773849	1.775392	0.795197	6
H	-1.750941	-0.061378	1.705246	1
H	0.330289	-0.825508	1.099556	1
H	-0.939711	-0.753698	-1.703844	1
H	-0.638631	-2.215468	-0.795673	1
H	-0.905921	1.578952	-0.439993	1
H	1.513649	1.315142	1.443967	1
H	0.854519	2.846482	0.631927	1
Es	-1.880176	-0.488839	0.700513	99
Es	-0.306700	-0.804534	-0.315000	99
Es	0.455752	-1.205612	-1.204721	99
Es	-0.271326	0.325445	0.272512	99
Es	-0.275191	-1.191778	-0.947477	99
Es	-1.689632	-0.611621	0.903953	99
Es	0.117461	-0.692088	0.859082	99
Es	1.273110	1.465950	1.235380	99
Es	-0.195004	1.063646	0.203943	99
Es	-0.487876	-1.869186	-0.848507	99
Es	-0.681717	1.398387	-0.234618	99
Es	0.831573	2.498537	0.690860	99
Es	0.478282	1.363351	0.250866	99
Es	0.087072	1.460329	0.764968	99
Es	2.540732	-1.282081	-1.946877	99
Es	1.779804	-1.035673	-1.440966	99
Es	-1.707189	-0.903804	0.987994	99
Es	2.197449	-1.270213	-1.826029	99
Es	-0.380113	-0.418815	0.368771	99
Es	-0.691600	-0.892511	-1.455241	99
Es	1.604869	-1.168968	-1.932775	99
Es	1.721226	-1.553977	-1.574910	99
Es	1.104768	-1.230970	-1.439232	99
Es	-1.185014	-0.525108	0.711415	99
Es	-1.701336	-0.313555	1.331090	99
Es	0.773910	1.775438	0.795244	99
40
Properties=species:S:1:pos:R:3:Z:I:1 energy=-322.80928704675676 field_type=dipole dipole="0.000000 0.000000 0.000000" charge=0
O	-1.689881	-0.611848	0.903826	8
C	-0.379901	-0.418788	0.368787	6
C	-0.275361	-1.191798	-0.947443	6
C	1.105119	-1.230978	-1.439353	6
N	2.197859	-1.270228	-1.826174	7
C	-0.194941	1.063722	0.203977	6
C	0.773849	1.775392	0.795197	6
H	-1.750941	-0.061378	1.705246	1
H	0.330289	-0.825508	1.099556	1
H	-0.939711	-0.753698	-1.703844	1
H	-0.638631	-2.215468	-0.795673	1
H	-0.905921	1.578952	-0.439993	1
H	1.513649	1.315142	1.443967	1
H	0.854519	2.846482	0.631927	1
Es	-0.681738	1.398429	-0.234498	99
Es	1.622050	-1.482826	-1.844985	99
Es	-1.880852	-0.490048	0.700567	99
Es	-1.701357	-0.313241	1.331361	99
Es	-0.195009	1.063648	0.203943	99
Es	0.455731	-1.205350	-1.204741	99
Es	-0.271369	0.325404	0.272599	99
Es	1.683345	-0.955721	-1.742944	99
Es	-0.487796	-1.869257	-0.848524	99
Es	0.831531	2.498515	0.690952	99
Es	1.800531	-1.319553	-1.360568	99
Es	1.104767	-1.230963	-1.439237	99
Es	-0.691623	-0.892480	-1.455301	99
Es	0.117449	-0.692112	0.859040	99
Es	-0.380115	-0.418817	0.368770	99
Es	2.540577	-1.282870	-1.947011	99
Es	-1.706685	-0.902286	0.988352	99
Es	2.197441	-1.270214	-1.826026	99
Es	-1.689653	-0.611619	0.903937	99
Es	0.773914	1.775438	0.795244	99
Es	-0.306601	-0.804439	-0.315003	99
Es	-0.275191	-1.191780	-0.947479	99
Es	1.273132	1.465905	1.235403	99
Es	0.087160	1.460309	0.764868	99
Es	0.478279	1.363434	0.250752	99
Es	-1.184783	-0.525759	0.710766	99
40
Properties=species:S:1:pos:R:3:Z:I:1 energy=-322.80928704675676 field_type=dipole dipole="0.000000 0.000000 0.000000" charge=0
O	-1.689881	-0.611848	0.903826	8
C	-0.379901	-0.418788	0.368787	6
C	-0.275361	-1.191798	-0.947443	6
C	1.105119	-1.230978	-1.439353	6
N	2.197859	-1.270228	-1.826174	7
C	-0.194941	1.063722	0.203977	6
C	0.773849	1.775392	0.795197	6
H	-1.750941	-0.061378	1.705246	1
H	0.330289	-0.825508	1.099556	1
H	-0.939711	-0.753698	-1.703844	1
H	-0.638631	-2.215468	-0.795673	1
H	-0.905921	1.578952	-0.439993	1
H	1.513649	1.315142	1.443967	1
H	0.854519	2.846482	0.631927	1
Es	0.831491	2.498562	0.690947	99
Es	-1.689668	-0.611685	0.903930	99
Es	-1.703369	-0.902460	0.990927	99
Es	0.478306	1.363356	0.250790	99
Es	-0.691528	-0.892520	-1.455318	99
Es	-1.882007	-0.493605	0.699560	99
Es	-0.306590	-0.804411	-0.314918	99
Es	2.540248	-1.282125	-1.947421	99
Es	0.087201	1.460246	0.764876	99
Es	-0.271328	0.325379	0.272595	99
Es	0.117448	-0.692060	0.859065	99
Es	0.773913	1.775436	0.795240	99
Es	-0.380118	-0.418817	0.368770	99
Es	1.273114	1.465956	1.235384	99
Es	2.197434	-1.270217	-1.826018	99
Es	1.748406	-0.962826	-1.545641	99
Es	-1.702949	-0.311428	1.329825	99
Es	0.455625	-1.205507	-1.204644	99
Es	-0.681776	1.398428	-0.234567	99
Es	-1.185383	-0.523725	0.710744	99
Es	1.762647	-1.495554	-1.463765	99
Es	-0.487801	-1.869281	-0.848579	99
Es	-0.275192	-1.191779	-0.947480	99
Es	1.595245	-1.300299	-1.938779	99
Es	1.104770	-1.230966	-1.439230	99
Es	-0.195005	1.063648	0.203945	99
40
Properties=species:S:1:pos:R:3:Z:I:1 energy=-322.80928704675676 field_type=dipole dipole="0.000000 0.000000 0.000000" charge=0
O	-1.689881	-0.611848	0.903826	8
C	-0.379901	-0.418788	0.368787	6
C	-0.275361	-1.191798	-0.947443	6
C	1.105119	-1.230978	-1.439353	6
N	2.197859	-1.270228	-1.826174	7
C	-0.194941	1.063722	0.203977	6
C	0.773849	1.775392	0.795197	6
H	-1.750941	-0.061378	1.705246	1
H	0.330289	-0.825508	1.099556	1
H	-0.939711	-0.753698	-1.703844	1
H	-0.638631	-2.215468	-0.795673	1
H	-0.905921	1.578952	-0.439993	1
H	1.513649	1.315142	1.443967	1
H	0.854519	2.846482	0.631927	1
Es	-1.689619	-0.611619	0.903965	99
Es	-0.691500	-0.892503	-1.455353	99
Es	0.117437	-0.692011	0.859060	99
Es	1.104770	-1.230966	-1.439229	99
Es	1.273136	1.465945	1.235369	99
Es	-0.306537	-0.804391	-0.314928	99
Es	0.087204	1.460251	0.764843	99
Es	-0.275192	-1.191777	-0.947475	99
Es	-1.184430	-0.526058	0.711620	99
Es	-0.271318	0.325318	0.272639	99
Es	1.620923	-1.479737	-1.848590	99
Es	0.773909	1.775434	0.795240	99
Es	2.540233	-1.282937	-1.946884	99
Es	1.685020	-0.954121	-1.738734	99
Es	-0.681787	1.398448	-0.234563	99
Es	0.455564	-1.205398	-1.204659	99
Es	-1.880819	-0.491105	0.699506	99
Es	0.831500	2.498551	0.690932	99
Es	-0.487773	-1.869337	-0.848611	99
Es	-0.195002	1.063646	0.203945	99
Es	-1.706215	-0.901771	0.989196	99
Es	0.478250	1.363401	0.250838	99
Es	-1.702285	-0.312371	1.330716	99
Es	-0.380115	-0.418816	0.368768	99
Es	2.197438	-1.270214	-1.826023	99
Es	1.800341	-1.324119	-1.361350	99
40
Properties=species:S:1:pos:R:3:Z:I:1 energy=-322.80928704675676 field_type=dipole dipole="0.000000 0.000000 0.000000" charge=0
O	-1.689881	-0.611848	0.903826	8
C	-0.379901	-0.418788	0.368787	6
C	-0.275361	-1.191798	-0.947443	6
C	1.105119	-1.230978	-1.439353	6
N	2.197859	-1.270228	-1.826174	7
C	-0.194941	1.063722	0.203977	6
C	0.773849	1.775392	0.795197	6
H	-1.750941	-0.061378	1.705246	1
H	0.330289	-0.825508	1.099556	1
H	-0.939711	-0.753698	-1.703844	1
H	-0.638631	-2.215468	-0.795673	1
H	-0.905921	1.578952	-0.439993	1
H	1.513649	1.315142	1.443967	1
H	0.854519	2.846482	0.631927	1
Es	1.104778	-1.230970	-1.439211	99
Es	2.540137	-1.282184	-1.946156	99
Es	-0.487782	-1.869335	-0.848567	99
Es	1.702048	-1.563308	-1.626961	99
Es	0.117392	-0.691886	0.859029	99
Es	2.197439	-1.270213	-1.826024	99
Es	-0.271291	0.325283	0.272527	99
Es	0.455395	-1.205598	-1.204642	99
Es	-1.185126	-0.524332	0.710705	99
Es	-1.881523	-0.493025	0.699971	99
Es	0.478187	1.363428	0.250902	99
Es	-0.681792	1.398462	-0.234533	99
Es	-0.275191	-1.191778	-0.947478	99
Es	-0.195009	1.063645	0.203949	99
Es	-1.702720	-0.311592	1.330037	99
Es	-1.689617	-0.611619	0.903949	99
Es	-1.704404	-0.902361	0.990397	99
Es	-0.691430	-0.892592	-1.455400	99
Es	0.773912	1.775436	0.795244	99
Es	1.789981	-1.078442	-1.406706	99
Es	0.831551	2.498563	0.690887	99
Es	1.614525	-1.116775	-1.915718	99
Es	-0.306549	-0.804424	-0.314911	99
Es	1.273095	1.465896	1.235422	99
Es	0.087241	1.460282	0.764754	99
Es	-0.380116	-0.418816	0.368770	99
