42
Properties=species:S:1:pos:R:3:Z:I:1 energy=-339.97233535784795 field_type=dipole dipole="0.000000 0.000000 0.000000" charge=0
O	0.030061	-2.530168	-0.239057	8
C	-1.024249	-1.966278	0.522073	6
C	-0.894039	-0.476918	0.608573	6
C	0.044652	0.267392	0.006263	6
N	0.179852	1.630312	0.084443	7
C	1.086291	2.455152	-0.519317	6
N	2.022411	2.178832	-1.354847	7
H	-0.096869	-3.493498	-0.225117	1
H	-0.996759	-2.396358	1.528123	1
H	-1.976449	-2.227728	0.050253	1
H	-1.644749	0.011702	1.223013	1
H	0.795771	-0.218288	-0.612477	1
H	-0.496849	2.084122	0.689163	1
H	0.949961	3.506792	-0.213007	1
H	2.020961	1.174932	-1.548077	1
Es	-0.894077	-0.476959	0.608616	99
Es	0.616675	1.946444	-0.130667	99
Es	0.167593	1.655571	-0.051180	99
Es	-0.056193	-3.046464	-0.220374	99
Es	0.978521	3.163339	-0.299877	99
Es	-0.643758	-0.086928	0.054770	99
Es	-0.212562	1.905251	0.458895	99
Es	-1.409028	-0.145487	1.029628	99
Es	0.146527	1.038895	0.065403	99
Es	1.822653	2.231487	-0.802995	99
Es	-1.681604	-2.138547	0.204983	99
Es	-0.249389	-0.152708	0.587398	99
Es	0.551635	-0.040037	-0.409608	99
Es	-1.012270	-2.254379	1.215187	99
Es	0.029796	-2.530351	-0.238894	99
Es	2.007922	1.566883	-1.460271	99
Es	1.086118	2.455070	-0.519190	99
Es	2.022050	2.178520	-1.354588	99
Es	-0.944810	-1.213570	0.556115	99
Es	2.250835	2.407116	-1.500773	99
Es	0.287932	-2.473042	-0.084257	99
Es	1.463828	2.312855	-1.236751	99
Es	0.044738	0.267633	0.006231	99
Es	0.180663	1.630233	0.085090	99
Es	-0.012485	-2.438115	-0.528232	99
Es	-1.024066	-1.966306	0.521949	99
Es	-0.378765	-2.335105	0.053658	99
42
Properties=species:S:1:pos:R:3:Z:I:1 energy=-339.97233535784795 field_type=dipole dipole="0.000000 0.000000 0.000000" charge=0
O	0.030061	-2.530168	-0.239057	8
C	-1.024249	-1.966278	0.522073	6
C	-0.894039	-0.476918	0.608573	6
C	0.044652	0.267392	0.006263	6
N	0.179852	1.630312	0.084443	7
C	1.086291	2.455152	-0.519317	6
N	2.022411	2.178832	-1.354847	7
H	-0.096869	-3.493498	-0.225117	1
H	-0.996759	-2.396358	1.528123	1
H	-1.976449	-2.227728	0.050253	1
H	-1.644749	0.011702	1.223013	1
H	0.795771	-0.218288	-0.612477	1
H	-0.496849	2.084122	0.689163	1
H	0.949961	3.506792	-0.213007	1
H	2.020961	1.174932	-1.548077	1
Es	-1.409074	-0.145497	1.029678	99
Es	-0.378576	-2.334844	0.054263	99
Es	-0.643551	-0.087132	0.054865	99
Es	-0.944737	-1.213612	0.556043	99
Es	-0.894090	-0.476966	0.608613	99
Es	2.250755	2.406790	-1.500525	99
Es	-0.012805	-2.438507	-0.528543	99
Es	2.007799	1.566721	-1.460471	99
Es	0.044740	0.267635	0.006229	99
Es	1.463978	2.313577	-1.236572	99
Es	0.551632	-0.040078	-0.409693	99
Es	-1.681617	-2.138445	0.204929	99
Es	-1.024063	-1.966308	0.521948	99
Es	-0.055478	-3.046640	-0.219604	99
Es	-1.012342	-2.254346	1.215205	99
Es	0.287377	-2.472810	-0.085322	99
Es	0.195722	1.635524	0.053967	99
Es	-0.249429	-0.152497	0.587490	99
Es	1.086117	2.455069	-0.519187	99
Es	-0.223761	1.908393	0.447179	99
Es	0.978101	3.163471	-0.300062	99
Es	0.581472	1.960951	-0.189650	99
Es	2.022029	2.178554	-1.354578	99
Es	1.823036	2.231223	-0.802877	99
Es	0.029808	-2.530348	-0.238870	99
Es	0.127104	1.038854	0.040157	99
Es	0.218337	1.632562	0.075650	99
42
Properties=species:S:1:pos:R:3:Z:I:1 energy=-339.97233535784795 field_type=dipole dipole="0.000000 0.000000 0.000000" charge=0
O	0.030061	-2.530168	-0.239057	8
C	-1.024249	-1.966278	0.522073	6
C	-0.894039	-0.476918	0.608573	6
C	0.044652	0.267392	0.006263	6
N	0.179852	1.630312	0.084443	7
C	1.086291	2.455152	-0.519317	6
N	2.022411	2.178832	-1.354847	7
H	-0.096869	-3.493498	-0.225117	1
H	-0.996759	-2.396358	1.528123	1
H	-1.976449	-2.227728	0.050253	1
H	-1.644749	0.011702	1.223013	1
H	0.795771	-0.218288	-0.612477	1
H	-0.496849	2.084122	0.689163	1
H	0.949961	3.506792	-0.213007	1
H	2.020961	1.174932	-1.548077	1
Es	-0.233883	1.909422	0.431720	99
Es	-0.012375	-2.438497	-0.527547	99
Es	-0.642976	-0.087021	0.055258	99
Es	0.029802	-2.530300	-0.238877	99
Es	0.179451	1.630404	0.083686	99
Es	-1.024068	-1.966308	0.521944	99
Es	0.978058	3.163478	-0.300398	99
Es	0.312691	1.628155	0.130998	99
Es	-0.249511	-0.152572	0.587979	99
Es	2.022049	2.178532	-1.354604	99
Es	-1.012316	-2.254369	1.215131	99
Es	2.008303	1.566731	-1.460160	99
Es	-0.894086	-0.476960	0.608612	99
Es	0.551451	-0.040107	-0.409971	99
Es	2.250208	2.406999	-1.500986	99
Es	0.532948	1.961903	-0.235404	99
Es	-0.379268	-2.335104	0.053233	99
Es	-1.409263	-0.145471	1.029455	99
Es	0.044741	0.267633	0.006235	99
Es	-0.944838	-1.213598	0.555855	99
Es	1.463995	2.313373	-1.236194	99
Es	1.086117	2.455069	-0.519186	99
Es	0.107442	1.046416	0.016200	99
Es	0.288052	-2.472608	-0.084310	99
Es	1.823270	2.231209	-0.802786	99
Es	-0.055890	-3.046640	-0.220617	99
Es	-1.681620	-2.138475	0.204997	99
42
Properties=species:S:1:pos:R:3:Z:I:1 energy=-339.97233535784795 field_type=dipole dipole="0.000000 0.000000 0.000000" charge=0
O	0.030061	-2.530168	-0.239057	8
C	-1.024249	-1.966278	0.522073	6
C	-0.894039	-0.476918	0.608573	6
C	0.044652	0.267392	0.006263	6
N	0.179852	1.630312	0.084443	7
C	1.086291	2.455152	-0.519317	6
N	2.022411	2.178832	-1.354847	7
H	-0.096869	-3.493498	-0.225117	1
H	-0.996759	-2.396358	1.528123	1
H	-1.976449	-2.227728	0.050253	1
H	-1.644749	0.011702	1.223013	1
H	0.795771	-0.218288	-0.612477	1
H	-0.496849	2.084122	0.689163	1
H	0.949961	3.506792	-0.213007	1
H	2.020961	1.174932	-1.548077	1
Es	0.195860	1.635515	0.054120	99
Es	2.022050	2.178526	-1.354602	99
Es	-0.249511	-0.152432	0.587525	99
Es	0.219859	1.632243	0.077597	99
Es	-0.224752	1.908752	0.446062	99
Es	1.464001	2.313336	-1.236555	99
Es	-0.643310	-0.087070	0.055160	99
Es	0.551681	-0.040178	-0.409760	99
Es	-0.379055	-2.333939	0.053680	99
Es	-0.944832	-1.213617	0.555905	99
Es	-1.012360	-2.254297	1.215141	99
Es	0.044738	0.267635	0.006229	99
Es	0.126012	1.039103	0.038550	99
Es	1.822939	2.231222	-0.802758	99
Es	2.250132	2.406963	-1.500163	99
Es	0.029806	-2.530325	-0.238912	99
Es	0.286132	-2.474607	-0.083925	99
Es	-0.056350	-3.046537	-0.220378	99
Es	-1.681586	-2.138512	0.204990	99
Es	2.008446	1.566688	-1.460897	99
Es	0.978143	3.163620	-0.300174	99
Es	-1.024062	-1.966308	0.521949	99
Es	-0.894091	-0.476965	0.608611	99
Es	-0.010149	-2.437776	-0.528546	99
Es	1.086114	2.455069	-0.519188	99
Es	-1.409191	-0.145461	1.029549	99
Es	0.581817	1.960646	-0.188944	99
42
Properties=species:S:1:pos:R:3:Z:I:1 energy=-339.97233535784795 field_type=dipole dipole="0.000000 0.000000 0.000000" charge=0
O	0.030061	-2.530168	-0.239057	8
C	-1.024249	-1.966278	0.522073	6
C	-0.894039	-0.476918	0.608573	6
C	0.044652	0.267392	0.006263	6
N	0.179852	1.630312	0.084443	7
C	1.086291	2.455152	-0.519317	6
N	2.022411	2.178832	-1.354847	7
H	-0.096869	-3.493498	-0.225117	1
H	-0.996759	-2.396358	1.528123	1
H	-1.976449	-2.227728	0.050253	1
H	-1.644749	0.011702	1.223013	1
H	0.795771	-0.218288	-0.612477	1
H	-0.496849	2.084122	0.689163	1
H	0.949961	3.506792	-0.213007	1
H	2.020961	1.174932	-1.548077	1
Es	-0.894095	-0.476966	0.608608	99
Es	-0.011834	-2.438607	-0.527456	99
Es	0.978596	3.163473	-0.299881	99
Es	0.156118	1.658875	-0.068829	99
Es	-0.944768	-1.213657	0.555970	99
Es	-1.681562	-2.138422	0.205010	99
Es	1.464221	2.313011	-1.237154	99
Es	2.022042	2.178522	-1.354608	99
Es	-0.209132	1.904351	0.461892	99
Es	-1.012386	-2.254379	1.215127	99
Es	2.249975	2.406807	-1.500268	99
Es	0.551687	-0.040267	-0.409655	99
Es	0.044739	0.267633	0.006232	99
Es	-1.409204	-0.145472	1.029576	99
Es	0.287199	-2.472882	-0.085015	99
Es	0.029808	-2.530337	-0.238908	99
Es	0.150520	1.040089	0.070723	99
Es	2.008492	1.566530	-1.460711	99
Es	-0.055584	-3.046967	-0.220335	99
Es	-0.379208	-2.334387	0.053557	99
Es	1.822402	2.232103	-0.802720	99
Es	1.086121	2.455069	-0.519186	99
Es	0.620204	1.942661	-0.121437	99
Es	-1.024062	-1.966307	0.521947	99
Es	-0.643398	-0.086766	0.055262	99
Es	0.181206	1.630218	0.085238	99
Es	-0.249614	-0.152631	0.587285	99
42
Properties=species:S:1:pos:R:3:Z:I:1 energy=-339.97233535784795 field_type=dipole dipole="0.000000 0.000000 0.000000" charge=0
O	0.030061	-2.530168	-0.239057	8
C	-1.024249	-1.966278	0.522073	6
C	-0.894039	-0.476918	0.608573	6
C	0.044652	0.267392	0.006263	6
N	0.179852	1.630312	0.084443	7
C	1.086291	2.455152	-0.519317	6
N	2.022411	2.178832	-1.354847	7
H	-0.096869	-3.493498	-0.225117	1
H	-0.996759	-2.396358	1.528123	1
H	-1.976449	-2.227728	0.050253	1
H	-1.644749	0.011702	1.223013	1
H	0.795771	-0.218288	-0.612477	1
H	-0.496849	2.084122	0.689163	1
H	0.949961	3.506792	-0.213007	1
H	2.020961	1.174932	-1.548077	1
Es	-1.024067	-1.966307	0.521949	99
Es	-1.012492	-2.254445	1.215074	99
Es	2.022061	2.178533	-1.354613	99
Es	-0.379139	-2.334566	0.053975	99
Es	0.029760	-2.530359	-0.238876	99
Es	0.180443	1.630885	0.081065	99
Es	2.008809	1.566816	-1.461419	99
Es	0.978129	3.163651	-0.300434	99
Es	1.822644	2.230545	-0.802583	99
Es	0.285462	-2.475367	-0.083186	99
Es	0.106077	1.047505	0.014434	99
Es	0.551588	-0.040253	-0.409935	99
Es	-0.249707	-0.152181	0.587557	99
Es	-0.944689	-1.213729	0.556140	99
Es	-0.056495	-3.046752	-0.222135	99
Es	-1.409192	-0.145468	1.029506	99
Es	-0.643145	-0.087156	0.055331	99
Es	-0.234930	1.909370	0.429858	99
Es	-0.009163	-2.436170	-0.527943	99
Es	2.250025	2.407143	-1.499538	99
Es	-1.681531	-2.138311	0.204967	99
Es	1.086117	2.455069	-0.519187	99
Es	1.464255	2.313707	-1.236485	99
Es	0.044746	0.267632	0.006244	99
Es	-0.894095	-0.476965	0.608609	99
Es	0.317196	1.627012	0.139224	99
Es	0.529815	1.961456	-0.237337	99
42
Properties=species:S:1:pos:R:3:Z:I:1 energy=-339.97233535784795 field_type=dipole dipole="0.000000 0.000000 0.000000" charge=0
O	0.030061	-2.530168	-0.239057	8
C	-1.024249	-1.966278	0.522073	6
C	-0.894039	-0.476918	0.608573	6
C	0.044652	0.267392	0.006263	6
N	0.179852	1.630312	0.084443	7
C	1.086291	2.455152	-0.519317	6
N	2.022411	2.178832	-1.354847	7
H	-0.096869	-3.493498	-0.225117	1
H	-0.996759	-2.396358	1.528123	1
H	-1.976449	-2.227728	0.050253	1
H	-1.644749	0.011702	1.223013	1
H	0.795771	-0.218288	-0.612477	1
H	-0.496849	2.084122	0.689163	1
H	0.949961	3.506792	-0.213007	1
H	2.020961	1.174932	-1.548077	1
Es	-1.681553	-2.138422	0.205057	99
Es	-0.056348	-3.046996	-0.221537	99
Es	0.029799	-2.530348	-0.238921	99
Es	-0.944852	-1.213736	0.555993	99
Es	-0.379448	-2.333762	0.053392	99
Es	2.022049	2.178542	-1.354597	99
Es	-1.024065	-1.966308	0.521949	99
Es	1.464016	2.313718	-1.236433	99
Es	0.551647	-0.040255	-0.409895	99
Es	-1.012409	-2.254313	1.215097	99
Es	-0.894095	-0.476965	0.608606	99
Es	0.205984	1.631858	0.078530	99
Es	2.249767	2.406552	-1.499993	99
Es	-0.249655	-0.152524	0.587483	99
Es	0.200043	1.637656	0.040994	99
Es	0.129866	1.038389	0.043690	99
Es	0.044737	0.267631	0.006230	99
Es	0.978291	3.163723	-0.300127	99
Es	1.086114	2.455068	-0.519186	99
Es	-1.409196	-0.145409	1.029508	99
Es	-0.010479	-2.438137	-0.526637	99
Es	-0.643120	-0.086850	0.055335	99
Es	0.286927	-2.473984	-0.084483	99
Es	2.008376	1.566678	-1.461313	99
Es	-0.223124	1.908350	0.447975	99
Es	0.585892	1.959888	-0.183845	99
Es	1.823318	2.231252	-0.802607	99
42
Properties=species:S:1:pos:R:3:Z:I:1 energy=-339.97233535784795 field_type=dipole dipole="0.000000 0.000000 0.000000" charge=0
O	0.030061	-2.530168	-0.239057	8
C	-1.024249	-1.966278	0.522073	6
C	-0.894039	-0.476918	0.608573	6
C	0.044652	0.267392	0.006263	6
N	0.179852	1.630312	0.084443	7
C	1.086291	2.455152	-0.519317	6
N	2.022411	2.178832	-1.354847	7
H	-0.096869	-3.493498	-0.225117	1
H	-0.996759	-2.396358	1.528123	1
H	-1.976449	-2.227728	0.050253	1
H	-1.644749	0.011702	1.223013	1
H	0.795771	-0.218288	-0.612477	1
H	-0.496849	2.084122	0.689163	1
H	0.949961	3.506792	-0.213007	1
H	2.020961	1.174932	-1.548077	1
Es	1.463917	2.313725	-1.236813	99
Es	-1.409184	-0.145463	1.029468	99
Es	-0.894091	-0.476963	0.608609	99
Es	-0.011274	-2.438517	-0.526866	99
Es	-0.643269	-0.086970	0.055422	99
Es	0.127718	1.038726	0.040863	99
Es	2.249559	2.406467	-1.499804	99
Es	-0.249688	-0.152159	0.587339	99
Es	-1.024064	-1.966307	0.521949	99
Es	0.978201	3.163726	-0.300039	99
Es	0.286847	-2.473449	-0.085418	99
Es	-1.681556	-2.138337	0.204990	99
Es	1.823140	2.231587	-0.802716	99
Es	0.551728	-0.040348	-0.409889	99
Es	0.029813	-2.530340	-0.238904	99
Es	-1.012463	-2.254317	1.215134	99
Es	1.086109	2.455071	-0.519199	99
Es	0.044735	0.267627	0.006232	99
Es	0.582226	1.960510	-0.188674	99
Es	-0.944704	-1.213858	0.556039	99
Es	2.022030	2.178519	-1.354588	99
Es	-0.055580	-3.047040	-0.220962	99
Es	2.008844	1.566487	-1.461090	99
Es	-0.379350	-2.333914	0.053997	99
Es	0.216948	1.632517	0.075557	99
Es	0.196251	1.635625	0.053095	99
Es	-0.224361	1.908689	0.446532	99
42
Properties=species:S:1:pos:R:3:Z:I:1 energy=-339.97233535784795 field_type=dipole dipole="0.000000 0.000000 0.000000" charge=0
O	0.030061	-2.530168	-0.239057	8
C	-1.024249	-1.966278	0.522073	6
C	-0.894039	-0.476918	0.608573	6
C	0.044652	0.267392	0.006263	6
N	0.179852	1.630312	0.084443	7
C	1.086291	2.455152	-0.519317	6
N	2.022411	2.178832	-1.354847	7
H	-0.096869	-3.493498	-0.225117	1
H	-0.996759	-2.396358	1.528123	1
H	-1.976449	-2.227728	0.050253	1
H	-1.644749	0.011702	1.223013	1
H	0.795771	-0.218288	-0.612477	1
H	-0.496849	2.084122	0.689163	1
H	0.949961	3.506792	-0.213007	1
H	2.020961	1.174932	-1.548077	1
Es	-0.379497	-2.333498	0.053638	99
Es	-1.012518	-2.254366	1.215060	99
Es	-0.944831	-1.213814	0.556137	99
Es	0.128199	1.038656	0.041532	99
Es	2.022056	2.178528	-1.354603	99
Es	0.582898	1.960420	-0.187793	99
Es	0.198073	1.635988	0.050865	99
Es	2.009002	1.566537	-1.461434	99
Es	0.213450	1.632439	0.075651	99
Es	0.286247	-2.473372	-0.085534	99
Es	-0.010760	-2.438848	-0.527029	99
Es	0.029800	-2.530354	-0.238937	99
Es	-0.055330	-3.047236	-0.220330	99
Es	1.086119	2.455068	-0.519182	99
Es	0.551665	-0.040333	-0.409972	99
Es	-1.409039	-0.145319	1.029589	99
Es	0.044737	0.267631	0.006230	99
Es	-1.024067	-1.966306	0.521951	99
Es	-0.249699	-0.152408	0.587267	99
Es	1.822995	2.231418	-0.802573	99
Es	1.463974	2.313742	-1.236938	99
Es	-0.894082	-0.476962	0.608606	99
Es	-0.643171	-0.086896	0.055447	99
Es	2.249410	2.406438	-1.499445	99
Es	-0.223909	1.908606	0.447121	99
Es	0.978281	3.163824	-0.300082	99
Es	-1.681520	-2.138289	0.205024	99
42
Properties=species:S:1:pos:R:3:Z:I:1 energy=-339.97233535784795 field_type=dipole dipole="0.000000 0.000000 0.000000" charge=0
O	0.030061	-2.530168	-0.239057	8
C	-1.024249	-1.966278	0.522073	6
C	-0.894039	-0.476918	0.608573	6
C	0.044652	0.267392	0.006263	6
N	0.179852	1.630312	0.084443	7
C	1.086291	2.455152	-0.519317	6
N	2.022411	2.178832	-1.354847	7
H	-0.096869	-3.493498	-0.225117	1
H	-0.996759	-2.396358	1.528123	1
H	-1.976449	-2.227728	0.050253	1
H	-1.644749	0.011702	1.223013	1
H	0.795771	-0.218288	-0.612477	1
H	-0.496849	2.084122	0.689163	1
H	0.949961	3.506792	-0.213007	1
H	2.020961	1.174932	-1.548077	1
Es	1.086115	2.455070	-0.519190	99
Es	1.822812	2.232229	-0.802967	99
Es	0.029743	-2.530344	-0.238891	99
Es	-0.055229	-3.047257	-0.221092	99
Es	2.022054	2.178523	-1.354604	99
Es	-0.643471	-0.086742	0.055579	99
Es	-0.205532	1.902900	0.464453	99
Es	0.624918	1.936577	-0.105422	99
Es	2.009153	1.566451	-1.461258	99
Es	0.181119	1.630254	0.085099	99
Es	0.286350	-2.473679	-0.086273	99
Es	-1.024068	-1.966306	0.521951	99
Es	0.978762	3.163648	-0.299975	99
Es	-1.681559	-2.138357	0.205097	99
Es	0.156484	1.042274	0.078541	99
Es	-0.249859	-0.152360	0.586791	99
Es	2.249228	2.406422	-1.499587	99
Es	-0.894091	-0.476960	0.608607	99
Es	0.551741	-0.040490	-0.409666	99
Es	-1.409076	-0.145410	1.029698	99
Es	-1.012460	-2.254322	1.214988	99
Es	0.141961	1.664079	-0.094917	99
Es	-0.011286	-2.438394	-0.526657	99
Es	-0.944694	-1.213816	0.556133	99
Es	1.463727	2.313307	-1.237089	99
Es	-0.379094	-2.333630	0.054685	99
Es	0.044736	0.267628	0.006230	99
42
Properties=species:S:1:pos:R:3:Z:I:1 energy=-339.97233535784795 field_type=dipole dipole="0.000000 0.000000 0.000000" charge=0
O	0.030061	-2.530168	-0.239057	8
C	-1.024249	-1.966278	0.522073	6
C	-0.894039	-0.476918	0.608573	6
C	0.044652	0.267392	0.006263	6
N	0.179852	1.630312	0.084443	7
C	1.086291	2.455152	-0.519317	6
N	2.022411	2.178832	-1.354847	7
H	-0.096869	-3.493498	-0.225117	1
H	-0.996759	-2.396358	1.528123	1
H	-1.976449	-2.227728	0.050253	1
H	-1.644749	0.011702	1.223013	1
H	0.795771	-0.218288	-0.612477	1
H	-0.496849	2.084122	0.689163	1
H	0.949961	3.506792	-0.213007	1
H	2.020961	1.174932	-1.548077	1
Es	-0.944842	-1.213841	0.555974	99
Es	0.582823	1.960306	-0.187817	99
Es	-0.011511	-2.438680	-0.526240	99
Es	-0.249922	-0.152521	0.587434	99
Es	-0.379142	-2.333455	0.054756	99
Es	1.086115	2.455070	-0.519190	99
Es	1.822789	2.231337	-0.802552	99
Es	-0.642775	-0.086615	0.055643	99
Es	-1.024068	-1.966307	0.521950	99
Es	-1.012457	-2.254316	1.215044	99
Es	2.022051	2.178529	-1.354602	99
Es	0.214258	1.632353	0.076215	99
Es	2.009193	1.566628	-1.461589	99
Es	-1.409226	-0.145351	1.029452	99
Es	0.551667	-0.040442	-0.410025	99
Es	0.029731	-2.530357	-0.238937	99
Es	0.197403	1.636025	0.050553	99
Es	2.249475	2.406275	-1.499015	99
Es	0.128193	1.038651	0.041461	99
Es	0.286386	-2.473318	-0.086804	99
Es	-0.224003	1.908710	0.446958	99
Es	-1.681535	-2.138338	0.205099	99
Es	-0.894092	-0.476963	0.608607	99
Es	0.978319	3.163894	-0.300098	99
Es	0.044733	0.267625	0.006230	99
Es	-0.054987	-3.047496	-0.221020	99
Es	1.463906	2.313890	-1.237222	99
42
Properties=species:S:1:pos:R:3:Z:I:1 energy=-339.97233535784795 field_type=dipole dipole="0.000000 0.000000 0.000000" charge=0
O	0.030061	-2.530168	-0.239057	8
C	-1.024249	-1.966278	0.522073	6
C	-0.894039	-0.476918	0.608573	6
C	0.044652	0.267392	0.006263	6
N	0.179852	1.630312	0.084443	7
C	1.086291	2.455152	-0.519317	6
N	2.022411	2.178832	-1.354847	7
H	-0.096869	-3.493498	-0.225117	1
H	-0.996759	-2.396358	1.528123	1
H	-1.976449	-2.227728	0.050253	1
H	-1.644749	0.011702	1.223013	1
H	0.795771	-0.218288	-0.612477	1
H	-0.496849	2.084122	0.689163	1
H	0.949961	3.506792	-0.213007	1
H	2.020961	1.174932	-1.548077	1
Es	-0.055338	-3.047296	-0.221039	99
Es	0.127085	1.038875	0.039880	99
Es	-0.944913	-1.213845	0.556026	99
Es	0.287150	-2.473120	-0.086898	99
Es	1.463864	2.313749	-1.236594	99
Es	0.044738	0.267633	0.006231	99
Es	-1.681473	-2.138363	0.205123	99
Es	-0.224548	1.908727	0.446354	99
Es	-0.894094	-0.476962	0.608605	99
Es	-1.012505	-2.254273	1.215055	99
Es	0.978305	3.163950	-0.300158	99
Es	-0.011451	-2.439392	-0.525532	99
Es	2.009136	1.566580	-1.461642	99
Es	-1.024066	-1.966307	0.521950	99
Es	0.029594	-2.530351	-0.239109	99
Es	-0.249810	-0.152255	0.587288	99
Es	-1.409142	-0.145372	1.029492	99
Es	1.823334	2.231388	-0.802586	99
Es	2.022065	2.178560	-1.354609	99
Es	-0.379406	-2.333167	0.054339	99
Es	0.551710	-0.040468	-0.409956	99
Es	2.249039	2.406338	-1.499478	99
Es	-0.643042	-0.086827	0.055588	99
Es	0.218405	1.632252	0.077183	99
Es	1.086115	2.455070	-0.519186	99
Es	0.580367	1.960812	-0.190770	99
Es	0.197364	1.635359	0.054708	99
42
Properties=species:S:1:pos:R:3:Z:I:1 energy=-339.97233535784795 field_type=dipole dipole="0.000000 0.000000 0.000000" charge=0
O	0.030061	-2.530168	-0.239057	8
C	-1.024249	-1.966278	0.522073	6
C	-0.894039	-0.476918	0.608573	6
C	0.044652	0.267392	0.006263	6
N	0.179852	1.630312	0.084443	7
C	1.086291	2.455152	-0.519317	6
N	2.022411	2.178832	-1.354847	7
H	-0.096869	-3.493498	-0.225117	1
H	-0.996759	-2.396358	1.528123	1
H	-1.976449	-2.227728	0.050253	1
H	-1.644749	0.011702	1.223013	1
H	0.795771	-0.218288	-0.612477	1
H	-0.496849	2.084122	0.689163	1
H	0.949961	3.506792	-0.213007	1
H	2.020961	1.174932	-1.548077	1
Es	2.248947	2.406129	-1.498965	99
Es	-1.024070	-1.966307	0.521952	99
Es	-1.012444	-2.254220	1.215008	99
Es	0.195616	1.635847	0.051434	99
Es	0.029848	-2.530302	-0.238891	99
Es	-0.249882	-0.152124	0.587144	99
Es	-0.055286	-3.047355	-0.221675	99
Es	-1.681563	-2.138352	0.205162	99
Es	-0.010260	-2.438538	-0.525880	99
Es	-0.643049	-0.086914	0.055638	99
Es	0.128236	1.038651	0.041501	99
Es	0.583327	1.960119	-0.187229	99
Es	-0.894078	-0.476960	0.608617	99
Es	1.086115	2.455070	-0.519189	99
Es	0.044738	0.267631	0.006231	99
Es	0.978322	3.163960	-0.300078	99
Es	-0.379824	-2.333245	0.054128	99
Es	2.009164	1.566488	-1.462057	99
Es	0.215495	1.632592	0.074663	99
Es	-0.944769	-1.213897	0.556111	99
Es	1.464106	2.314098	-1.236951	99
Es	0.286043	-2.473927	-0.085947	99
Es	-0.224012	1.908735	0.446990	99
Es	0.551769	-0.040503	-0.409951	99
Es	-1.409172	-0.145346	1.029490	99
Es	2.022055	2.178531	-1.354602	99
Es	1.823112	2.231435	-0.802391	99
42
Properties=species:S:1:pos:R:3:Z:I:1 energy=-339.97233535784795 field_type=dipole dipole="0.000000 0.000000 0.000000" charge=0
O	0.030061	-2.530168	-0.239057	8
C	-1.024249	-1.966278	0.522073	6
C	-0.894039	-0.476918	0.608573	6
C	0.044652	0.267392	0.006263	6
N	0.179852	1.630312	0.084443	7
C	1.086291	2.455152	-0.519317	6
N	2.022411	2.178832	-1.354847	7
H	-0.096869	-3.493498	-0.225117	1
H	-0.996759	-2.396358	1.528123	1
H	-1.976449	-2.227728	0.050253	1
H	-1.644749	0.011702	1.223013	1
H	0.795771	-0.218288	-0.612477	1
H	-0.496849	2.084122	0.689163	1
H	0.949961	3.506792	-0.213007	1
H	2.020961	1.174932	-1.548077	1
Es	1.824334	2.231400	-0.802476	99
Es	0.515800	1.959085	-0.245953	99
Es	0.181267	1.630966	0.080832	99
Es	-0.944831	-1.213905	0.555975	99
Es	-0.010192	-2.438067	-0.526130	99
Es	-1.681523	-2.138283	0.205159	99
Es	0.978328	3.163951	-0.300616	99
Es	2.009124	1.566231	-1.461993	99
Es	0.338232	1.625072	0.160259	99
Es	0.100478	1.051724	0.007568	99
Es	-1.409178	-0.145328	1.029485	99
Es	0.029825	-2.530320	-0.238895	99
Es	-0.894092	-0.476962	0.608606	99
Es	2.022056	2.178517	-1.354606	99
Es	-0.237471	1.909232	0.424357	99
Es	-0.250040	-0.152110	0.587383	99
Es	0.044736	0.267632	0.006228	99
Es	-0.642682	-0.086982	0.055886	99
Es	0.551560	-0.040542	-0.410073	99
Es	1.464247	2.314368	-1.235451	99
Es	-1.012480	-2.254264	1.215027	99
Es	0.285520	-2.473756	-0.085749	99
Es	-0.054835	-3.047551	-0.221691	99
Es	1.086117	2.455069	-0.519186	99
Es	-1.024065	-1.966308	0.521950	99
Es	2.248070	2.406134	-1.499804	99
Es	-0.379820	-2.333705	0.054172	99
42
Properties=species:S:1:pos:R:3:Z:I:1 energy=-339.97233535784795 field_type=dipole dipole="0.000000 0.000000 0.000000" charge=0
O	0.030061	-2.530168	-0.239057	8
C	-1.024249	-1.966278	0.522073	6
C	-0.894039	-0.476918	0.608573	6
C	0.044652	0.267392	0.006263	6
N	0.179852	1.630312	0.084443	7
C	1.086291	2.455152	-0.519317	6
N	2.022411	2.178832	-1.354847	7
H	-0.096869	-3.493498	-0.225117	1
H	-0.996759	-2.396358	1.528123	1
H	-1.976449	-2.227728	0.050253	1
H	-1.644749	0.011702	1.223013	1
H	0.795771	-0.218288	-0.612477	1
H	-0.496849	2.084122	0.689163	1
H	0.949961	3.506792	-0.213007	1
H	2.020961	1.174932	-1.548077	1
Es	2.022057	2.178525	-1.354604	99
Es	2.009529	1.566397	-1.462037	99
Es	0.197125	1.635715	0.052266	99
Es	-1.012498	-2.254231	1.215006	99
Es	0.582176	1.960313	-0.188651	99
Es	-1.409138	-0.145343	1.029504	99
Es	0.551806	-0.040574	-0.410003	99
Es	-0.055893	-3.047400	-0.222972	99
Es	2.248409	2.406052	-1.499075	99
Es	-0.894089	-0.476961	0.608609	99
Es	-0.642939	-0.086737	0.055709	99
Es	0.978373	3.164068	-0.300110	99
Es	-1.681481	-2.138354	0.205188	99
Es	1.086120	2.455069	-0.519184	99
Es	-0.006584	-2.436758	-0.526073	99
Es	-0.250001	-0.152168	0.587120	99
Es	1.464019	2.313935	-1.236841	99
Es	-0.224156	1.908765	0.446874	99
Es	0.283943	-2.475771	-0.083210	99
Es	-0.944848	-1.213891	0.556069	99
Es	0.127855	1.038721	0.040973	99
Es	-1.024067	-1.966310	0.521949	99
Es	0.215627	1.632381	0.075936	99
Es	0.029781	-2.530336	-0.238938	99
Es	0.044734	0.267629	0.006228	99
Es	-0.380697	-2.333126	0.052915	99
Es	1.823321	2.231684	-0.802382	99
42
Properties=species:S:1:pos:R:3:Z:I:1 energy=-339.97233535784795 field_type=dipole dipole="0.000000 0.000000 0.000000" charge=0
O	0.030061	-2.530168	-0.239057	8
C	-1.024249	-1.966278	0.522073	6
C	-0.894039	-0.476918	0.608573	6
C	0.044652	0.267392	0.006263	6
N	0.179852	1.630312	0.084443	7
C	1.086291	2.455152	-0.519317	6
N	2.022411	2.178832	-1.354847	7
H	-0.096869	-3.493498	-0.225117	1
H	-0.996759	-2.396358	1.528123	1
H	-1.976449	-2.227728	0.050253	1
H	-1.644749	0.011702	1.223013	1
H	0.795771	-0.218288	-0.612477	1
H	-0.496849	2.084122	0.689163	1
H	0.949961	3.506792	-0.213007	1
H	2.020961	1.174932	-1.548077	1
Es	-0.249967	-0.152098	0.587024	99
Es	0.127950	1.038670	0.041056	99
Es	2.009836	1.566445	-1.462053	99
Es	-0.054395	-3.047784	-0.221498	99
Es	2.248427	2.405936	-1.498715	99
Es	-0.944889	-1.213946	0.555937	99
Es	-1.024070	-1.966306	0.521953	99
Es	-1.409083	-0.145359	1.029584	99
Es	1.823125	2.231670	-0.802377	99
Es	-0.224118	1.908681	0.446880	99
Es	0.029777	-2.530346	-0.238923	99
Es	0.196910	1.635558	0.053208	99
Es	1.463883	2.314012	-1.237205	99
Es	-1.012462	-2.254180	1.215029	99
Es	0.551801	-0.040580	-0.410002	99
Es	-0.643018	-0.086755	0.055816	99
Es	-1.681490	-2.138383	0.205213	99
Es	-0.379801	-2.333477	0.054394	99
Es	2.022043	2.178531	-1.354591	99
Es	-0.010454	-2.438421	-0.525771	99
Es	1.086116	2.455069	-0.519187	99
Es	0.978398	3.164090	-0.300087	99
Es	-0.894081	-0.476956	0.608604	99
Es	0.044740	0.267628	0.006229	99
Es	0.215806	1.632521	0.075008	99
Es	0.582064	1.960444	-0.188772	99
Es	0.285435	-2.473369	-0.086488	99
42
Properties=species:S:1:pos:R:3:Z:I:1 energy=-339.97233535784795 field_type=dipole dipole="0.000000 0.000000 0.000000" charge=0
O	0.030061	-2.530168	-0.239057	8
C	-1.024249	-1.966278	0.522073	6
C	-0.894039	-0.476918	0.608573	6
C	0.044652	0.267392	0.006263	6
N	0.179852	1.630312	0.084443	7
C	1.086291	2.455152	-0.519317	6
N	2.022411	2.178832	-1.354847	7
H	-0.096869	-3.493498	-0.225117	1
H	-0.996759	-2.396358	1.528123	1
H	-1.976449	-2.227728	0.050253	1
H	-1.644749	0.011702	1.223013	1
H	0.795771	-0.218288	-0.612477	1
H	-0.496849	2.084122	0.689163	1
H	0.949961	3.506792	-0.213007	1
H	2.020961	1.174932	-1.548077	1
Es	-0.250052	-0.152151	0.587069	99
Es	0.582886	1.960178	-0.187725	99
Es	-0.379456	-2.333014	0.055009	99
Es	-1.409087	-0.145302	1.029508	99
Es	-1.681497	-2.138285	0.205191	99
Es	0.551805	-0.040632	-0.410029	99
Es	-0.012139	-2.439798	-0.525341	99
Es	1.823081	2.231821	-0.802770	99
Es	-0.223545	1.908627	0.447643	99
Es	1.464015	2.314129	-1.236890	99
Es	2.022049	2.178531	-1.354603	99
Es	0.044740	0.267627	0.006232	99
Es	0.286469	-2.472605	-0.088320	99
Es	-0.944884	-1.213993	0.556060	99
Es	0.029866	-2.530320	-0.238884	99
Es	0.978431	3.164150	-0.300100	99
Es	-1.024070	-1.966307	0.521952	99
Es	-0.054152	-3.047707	-0.220762	99
Es	-0.894092	-0.476963	0.608611	99
Es	2.009789	1.566104	-1.462040	99
Es	0.198005	1.636062	0.050065	99
Es	2.248350	2.405978	-1.498628	99
Es	0.128223	1.038649	0.041366	99
Es	0.213019	1.632317	0.076011	99
Es	-1.012533	-2.254213	1.214966	99
Es	1.086118	2.455070	-0.519186	99
Es	-0.642854	-0.086662	0.055856	99
