42
Properties=species:S:1:pos:R:3:Z:I:1 energy=-339.9734540170986 field_type=dipole dipole="0.000000 0.000000 0.000000" charge=0
O	-2.852155	0.036705	-0.527513	8
C	-1.616545	-0.423495	0.007157	6
C	-0.611935	0.730145	0.071127	6
N	-1.054215	1.954315	0.081587	7
N	0.737715	0.518215	0.126117	7
C	1.475915	-0.630615	0.174997	6
C	2.808405	-0.710455	0.223657	6
H	-2.667275	0.307775	-1.445503	1
H	-1.242985	-1.235205	-0.621613	1
H	-1.789775	-0.796165	1.020547	1
H	-2.086815	1.912575	0.063987	1
H	1.266575	1.385125	0.162007	1
H	0.893105	-1.548415	0.176007	1
H	3.435625	0.174905	0.226697	1
H	3.304355	-1.675415	0.260747	1
Es	-0.882484	1.459862	-0.212878	99
Es	-2.851794	0.036648	-0.527709	99
Es	-0.611756	0.730007	0.071139	99
Es	-2.921394	0.293311	-0.372917	99
Es	2.808456	-0.710446	0.223660	99
Es	-0.898096	1.451727	0.353222	99
Es	1.053032	1.024870	0.162592	99
Es	-2.733331	0.174312	-1.016168	99
Es	-1.723314	-0.667348	0.688576	99
Es	-1.346268	-0.972460	-0.420851	99
Es	0.687630	0.473772	0.008763	99
Es	0.737011	0.517673	0.127849	99
Es	-1.082348	0.140224	0.034626	99
Es	-1.662569	1.926206	0.068587	99
Es	-2.363400	-0.129073	-0.340428	99
Es	-1.054424	1.953852	0.081559	99
Es	2.169021	-0.665704	0.527427	99
Es	1.475668	-0.630475	0.174986	99
Es	-0.845140	2.259747	0.095290	99
Es	3.231016	-0.106899	0.225925	99
Es	3.142346	-1.359492	0.248780	99
Es	1.066924	-1.243407	0.174402	99
Es	2.193935	-0.679676	-0.126585	99
Es	-3.033217	-0.209377	-0.537941	99
Es	0.151714	0.568033	0.158954	99
Es	-1.616677	-0.423337	0.007065	99
Es	1.037270	0.011870	0.180094	99
42
Properties=species:S:1:pos:R:3:Z:I:1 energy=-339.9734540170986 field_type=dipole dipole="0.000000 0.000000 0.000000" charge=0
O	-2.852155	0.036705	-0.527513	8
C	-1.616545	-0.423495	0.007157	6
C	-0.611935	0.730145	0.071127	6
N	-1.054215	1.954315	0.081587	7
N	0.737715	0.518215	0.126117	7
C	1.475915	-0.630615	0.174997	6
C	2.808405	-0.710455	0.223657	6
H	-2.667275	0.307775	-1.445503	1
H	-1.242985	-1.235205	-0.621613	1
H	-1.789775	-0.796165	1.020547	1
H	-2.086815	1.912575	0.063987	1
H	1.266575	1.385125	0.162007	1
H	0.893105	-1.548415	0.176007	1
H	3.435625	0.174905	0.226697	1
H	3.304355	-1.675415	0.260747	1
Es	-1.616682	-0.423337	0.007066	99
Es	1.066902	-1.243435	0.174283	99
Es	-0.883135	1.459982	-0.213183	99
Es	-2.734151	0.174757	-1.016800	99
Es	2.808457	-0.710446	0.223676	99
Es	0.720329	0.502418	0.109459	99
Es	3.142263	-1.359438	0.249041	99
Es	-0.897972	1.451248	0.352898	99
Es	0.145932	0.569521	0.104605	99
Es	-2.851857	0.036706	-0.527685	99
Es	-1.054434	1.953864	0.081567	99
Es	2.168844	-0.665271	0.527499	99
Es	1.054343	1.026595	0.145899	99
Es	-1.082327	0.140202	0.034517	99
Es	2.194060	-0.680139	-0.126627	99
Es	-0.611757	0.730007	0.071136	99
Es	3.231103	-0.106932	0.225780	99
Es	-2.363306	-0.129363	-0.340909	99
Es	1.041201	0.007819	0.144685	99
Es	-1.662386	1.926344	0.068907	99
Es	0.704982	0.490091	0.133561	99
Es	1.475664	-0.630472	0.174985	99
Es	-1.346228	-0.972220	-0.420886	99
Es	-1.723323	-0.667615	0.688553	99
Es	-0.844864	2.259840	0.095799	99
Es	-3.032584	-0.209005	-0.537504	99
Es	-2.921262	0.292701	-0.372304	99
42
Properties=species:S:1:pos:R:3:Z:I:1 energy=-339.9734540170986 field_type=dipole dipole="0.000000 0.000000 0.000000" charge=0
O	-2.852155	0.036705	-0.527513	8
C	-1.616545	-0.423495	0.007157	6
C	-0.611935	0.730145	0.071127	6
N	-1.054215	1.954315	0.081587	7
N	0.737715	0.518215	0.126117	7
C	1.475915	-0.630615	0.174997	6
C	2.808405	-0.710455	0.223657	6
H	-2.667275	0.307775	-1.445503	1
H	-1.242985	-1.235205	-0.621613	1
H	-1.789775	-0.796165	1.020547	1
H	-2.086815	1.912575	0.063987	1
H	1.266575	1.385125	0.162007	1
H	0.893105	-1.548415	0.176007	1
H	3.435625	0.174905	0.226697	1
H	3.304355	-1.675415	0.260747	1
Es	-1.346297	-0.972540	-0.420665	99
Es	1.475672	-0.630476	0.174981	99
Es	1.054077	1.026520	0.149378	99
Es	3.231071	-0.106896	0.225704	99
Es	-1.662664	1.926491	0.068246	99
Es	2.169008	-0.665548	0.527810	99
Es	-0.611755	0.730006	0.071136	99
Es	0.711824	0.494713	0.098450	99
Es	0.145956	0.569577	0.110244	99
Es	-1.082375	0.140102	0.034279	99
Es	-0.845415	2.259230	0.097008	99
Es	-2.733638	0.174671	-1.016730	99
Es	1.040978	0.007758	0.148137	99
Es	2.808452	-0.710448	0.223655	99
Es	-0.882224	1.460821	-0.213697	99
Es	1.066898	-1.243472	0.174184	99
Es	-1.054438	1.953868	0.081570	99
Es	-3.032629	-0.208844	-0.537878	99
Es	-2.921812	0.292365	-0.373050	99
Es	3.142322	-1.359316	0.248769	99
Es	-2.363350	-0.129131	-0.339903	99
Es	2.193849	-0.680007	-0.126444	99
Es	-2.851796	0.036748	-0.527679	99
Es	0.713963	0.497867	0.131961	99
Es	-1.616676	-0.423341	0.007065	99
Es	-0.897961	1.450905	0.352894	99
Es	-1.723225	-0.667204	0.688592	99
42
Properties=species:S:1:pos:R:3:Z:I:1 energy=-339.9734540170986 field_type=dipole dipole="0.000000 0.000000 0.000000" charge=0
O	-2.852155	0.036705	-0.527513	8
C	-1.616545	-0.423495	0.007157	6
C	-0.611935	0.730145	0.071127	6
N	-1.054215	1.954315	0.081587	7
N	0.737715	0.518215	0.126117	7
C	1.475915	-0.630615	0.174997	6
C	2.808405	-0.710455	0.223657	6
H	-2.667275	0.307775	-1.445503	1
H	-1.242985	-1.235205	-0.621613	1
H	-1.789775	-0.796165	1.020547	1
H	-2.086815	1.912575	0.063987	1
H	1.266575	1.385125	0.162007	1
H	0.893105	-1.548415	0.176007	1
H	3.435625	0.174905	0.226697	1
H	3.304355	-1.675415	0.260747	1
Es	-0.845295	2.259474	0.096513	99
Es	1.035018	0.015251	0.192420	99
Es	1.066936	-1.243558	0.174428	99
Es	3.142306	-1.359388	0.248922	99
Es	-1.616675	-0.423340	0.007066	99
Es	-0.897770	1.450377	0.352671	99
Es	-1.346204	-0.972330	-0.420801	99
Es	2.193918	-0.679658	-0.126500	99
Es	2.169043	-0.665726	0.527244	99
Es	3.231067	-0.106877	0.225860	99
Es	-2.851809	0.036703	-0.527695	99
Es	-1.662393	1.926481	0.068534	99
Es	-1.054431	1.953864	0.081566	99
Es	0.737332	0.517917	0.127342	99
Es	-1.082515	0.140200	0.034781	99
Es	-2.363433	-0.129800	-0.339876	99
Es	-2.921792	0.292445	-0.372823	99
Es	-0.611755	0.730007	0.071136	99
Es	0.156649	0.567344	0.175088	99
Es	1.475665	-0.630475	0.174985	99
Es	-3.032476	-0.208206	-0.537987	99
Es	-2.733757	0.174669	-1.016834	99
Es	-1.723227	-0.667467	0.688497	99
Es	2.808452	-0.710448	0.223654	99
Es	1.052424	1.023905	0.166161	99
Es	0.685226	0.471773	-0.022709	99
Es	-0.882691	1.461283	-0.213621	99
42
Properties=species:S:1:pos:R:3:Z:I:1 energy=-339.9734540170986 field_type=dipole dipole="0.000000 0.000000 0.000000" charge=0
O	-2.852155	0.036705	-0.527513	8
C	-1.616545	-0.423495	0.007157	6
C	-0.611935	0.730145	0.071127	6
N	-1.054215	1.954315	0.081587	7
N	0.737715	0.518215	0.126117	7
C	1.475915	-0.630615	0.174997	6
C	2.808405	-0.710455	0.223657	6
H	-2.667275	0.307775	-1.445503	1
H	-1.242985	-1.235205	-0.621613	1
H	-1.789775	-0.796165	1.020547	1
H	-2.086815	1.912575	0.063987	1
H	1.266575	1.385125	0.162007	1
H	0.893105	-1.548415	0.176007	1
H	3.435625	0.174905	0.226697	1
H	3.304355	-1.675415	0.260747	1
Es	3.231097	-0.106904	0.225789	99
Es	-0.897708	1.449900	0.352292	99
Es	2.808451	-0.710446	0.223662	99
Es	3.142290	-1.359334	0.248810	99
Es	-1.662393	1.926646	0.068406	99
Es	-1.723204	-0.667299	0.688539	99
Es	1.475668	-0.630474	0.174985	99
Es	-2.363079	-0.128984	-0.339638	99
Es	1.035006	0.015558	0.192787	99
Es	-2.733853	0.175347	-1.016684	99
Es	0.683994	0.472401	-0.029858	99
Es	-1.616678	-0.423340	0.007066	99
Es	-0.611756	0.730007	0.071144	99
Es	1.052044	1.023512	0.167894	99
Es	-0.845235	2.259351	0.097004	99
Es	-3.031530	-0.208856	-0.538607	99
Es	-1.054430	1.953862	0.081564	99
Es	2.193929	-0.679576	-0.126421	99
Es	-0.882710	1.461747	-0.213664	99
Es	0.737136	0.517793	0.127567	99
Es	-2.922953	0.291582	-0.372673	99
Es	-1.346066	-0.972424	-0.420815	99
Es	2.169021	-0.665690	0.527336	99
Es	-2.851862	0.036715	-0.527671	99
Es	-1.082809	0.140109	0.034828	99
Es	0.158449	0.566884	0.179951	99
Es	1.066994	-1.243667	0.174428	99
42
Properties=species:S:1:pos:R:3:Z:I:1 energy=-339.9734540170986 field_type=dipole dipole="0.000000 0.000000 0.000000" charge=0
O	-2.852155	0.036705	-0.527513	8
C	-1.616545	-0.423495	0.007157	6
C	-0.611935	0.730145	0.071127	6
N	-1.054215	1.954315	0.081587	7
N	0.737715	0.518215	0.126117	7
C	1.475915	-0.630615	0.174997	6
C	2.808405	-0.710455	0.223657	6
H	-2.667275	0.307775	-1.445503	1
H	-1.242985	-1.235205	-0.621613	1
H	-1.789775	-0.796165	1.020547	1
H	-2.086815	1.912575	0.063987	1
H	1.266575	1.385125	0.162007	1
H	0.893105	-1.548415	0.176007	1
H	3.435625	0.174905	0.226697	1
H	3.304355	-1.675415	0.260747	1
Es	1.040905	0.007893	0.147591	99
Es	-1.616678	-0.423340	0.007066	99
Es	-1.054399	1.953838	0.081568	99
Es	-2.851838	0.036681	-0.527678	99
Es	3.142379	-1.359241	0.248729	99
Es	-2.734231	0.175559	-1.016931	99
Es	-0.611756	0.730008	0.071134	99
Es	-1.723179	-0.667484	0.688565	99
Es	-1.082611	0.139956	0.034391	99
Es	1.066900	-1.243690	0.174147	99
Es	-0.882678	1.460755	-0.213229	99
Es	-1.346204	-0.972261	-0.420743	99
Es	-1.662542	1.926922	0.068298	99
Es	3.231029	-0.106865	0.225723	99
Es	-2.362933	-0.129111	-0.339606	99
Es	2.169234	-0.665675	0.527675	99
Es	1.475669	-0.630475	0.174984	99
Es	1.054282	1.026597	0.148586	99
Es	2.193572	-0.679839	-0.126273	99
Es	0.145966	0.569562	0.108038	99
Es	-3.031983	-0.208427	-0.538095	99
Es	0.712452	0.495262	0.100757	99
Es	2.808452	-0.710446	0.223644	99
Es	-0.897574	1.450850	0.353343	99
Es	-0.845333	2.258980	0.096061	99
Es	0.713239	0.497275	0.133249	99
Es	-2.922326	0.291137	-0.372975	99
42
Properties=species:S:1:pos:R:3:Z:I:1 energy=-339.9734540170986 field_type=dipole dipole="0.000000 0.000000 0.000000" charge=0
O	-2.852155	0.036705	-0.527513	8
C	-1.616545	-0.423495	0.007157	6
C	-0.611935	0.730145	0.071127	6
N	-1.054215	1.954315	0.081587	7
N	0.737715	0.518215	0.126117	7
C	1.475915	-0.630615	0.174997	6
C	2.808405	-0.710455	0.223657	6
H	-2.667275	0.307775	-1.445503	1
H	-1.242985	-1.235205	-0.621613	1
H	-1.789775	-0.796165	1.020547	1
H	-2.086815	1.912575	0.063987	1
H	1.266575	1.385125	0.162007	1
H	0.893105	-1.548415	0.176007	1
H	3.435625	0.174905	0.226697	1
H	3.304355	-1.675415	0.260747	1
Es	-2.851825	0.036709	-0.527682	99
Es	-1.346212	-0.972242	-0.420723	99
Es	0.717208	0.500654	0.130813	99
Es	-0.611759	0.730012	0.071128	99
Es	-2.734282	0.174942	-1.016878	99
Es	-3.032531	-0.207851	-0.537801	99
Es	1.066788	-1.243659	0.174236	99
Es	2.808451	-0.710446	0.223661	99
Es	-1.616678	-0.423338	0.007064	99
Es	-2.362937	-0.129610	-0.339521	99
Es	0.145953	0.569441	0.112559	99
Es	-1.723109	-0.667479	0.688557	99
Es	3.142381	-1.359336	0.248992	99
Es	1.040947	0.008045	0.150163	99
Es	-2.921802	0.291655	-0.373391	99
Es	-1.054437	1.953862	0.081567	99
Es	-0.844878	2.258695	0.095556	99
Es	0.708732	0.491901	0.094729	99
Es	-0.882913	1.460270	-0.213008	99
Es	3.231002	-0.106894	0.225853	99
Es	2.168766	-0.665401	0.527348	99
Es	2.194054	-0.680069	-0.126456	99
Es	-1.662577	1.927436	0.068429	99
Es	1.054125	1.026595	0.149950	99
Es	-0.897711	1.451083	0.353374	99
Es	-1.082613	0.139922	0.034513	99
Es	1.475673	-0.630477	0.174987	99
42
Properties=species:S:1:pos:R:3:Z:I:1 energy=-339.9734540170986 field_type=dipole dipole="0.000000 0.000000 0.000000" charge=0
O	-2.852155	0.036705	-0.527513	8
C	-1.616545	-0.423495	0.007157	6
C	-0.611935	0.730145	0.071127	6
N	-1.054215	1.954315	0.081587	7
N	0.737715	0.518215	0.126117	7
C	1.475915	-0.630615	0.174997	6
C	2.808405	-0.710455	0.223657	6
H	-2.667275	0.307775	-1.445503	1
H	-1.242985	-1.235205	-0.621613	1
H	-1.789775	-0.796165	1.020547	1
H	-2.086815	1.912575	0.063987	1
H	1.266575	1.385125	0.162007	1
H	0.893105	-1.548415	0.176007	1
H	3.435625	0.174905	0.226697	1
H	3.304355	-1.675415	0.260747	1
Es	-1.054429	1.953858	0.081567	99
Es	0.709274	0.493789	0.132253	99
Es	-2.362784	-0.129049	-0.339107	99
Es	1.066945	-1.243836	0.174294	99
Es	0.146027	0.569540	0.106844	99
Es	3.231036	-0.106909	0.225737	99
Es	-3.031217	-0.208226	-0.538591	99
Es	-1.082643	0.139924	0.034496	99
Es	-1.723190	-0.667505	0.688440	99
Es	-0.897466	1.451115	0.353390	99
Es	-1.662607	1.927219	0.068455	99
Es	-2.851980	0.036697	-0.527606	99
Es	0.716303	0.498774	0.104689	99
Es	3.142359	-1.359300	0.248880	99
Es	-2.923134	0.290870	-0.373105	99
Es	-0.882567	1.460547	-0.213287	99
Es	-1.346203	-0.972268	-0.420690	99
Es	-2.734243	0.175537	-1.016911	99
Es	2.193920	-0.679988	-0.126276	99
Es	-1.616675	-0.423341	0.007065	99
Es	1.054295	1.026705	0.148529	99
Es	-0.611754	0.730006	0.071132	99
Es	-0.845384	2.258617	0.095933	99
Es	2.808446	-0.710444	0.223660	99
Es	1.040924	0.007855	0.145847	99
Es	2.168881	-0.665287	0.527391	99
Es	1.475674	-0.630479	0.174989	99
42
Properties=species:S:1:pos:R:3:Z:I:1 energy=-339.9734540170986 field_type=dipole dipole="0.000000 0.000000 0.000000" charge=0
O	-2.852155	0.036705	-0.527513	8
C	-1.616545	-0.423495	0.007157	6
C	-0.611935	0.730145	0.071127	6
N	-1.054215	1.954315	0.081587	7
N	0.737715	0.518215	0.126117	7
C	1.475915	-0.630615	0.174997	6
C	2.808405	-0.710455	0.223657	6
H	-2.667275	0.307775	-1.445503	1
H	-1.242985	-1.235205	-0.621613	1
H	-1.789775	-0.796165	1.020547	1
H	-2.086815	1.912575	0.063987	1
H	1.266575	1.385125	0.162007	1
H	0.893105	-1.548415	0.176007	1
H	3.435625	0.174905	0.226697	1
H	3.304355	-1.675415	0.260747	1
Es	-3.031173	-0.208624	-0.538835	99
Es	1.066819	-1.243788	0.174220	99
Es	3.231092	-0.106936	0.225824	99
Es	0.709860	0.494262	0.130927	99
Es	-2.734145	0.175919	-1.016708	99
Es	3.142301	-1.359274	0.248929	99
Es	-0.882614	1.460054	-0.212905	99
Es	2.168872	-0.665359	0.527420	99
Es	-2.923614	0.290441	-0.373101	99
Es	1.041116	0.007917	0.146973	99
Es	2.808452	-0.710446	0.223658	99
Es	-1.346141	-0.972349	-0.420674	99
Es	1.054192	1.026648	0.148745	99
Es	-1.723180	-0.667403	0.688415	99
Es	1.475671	-0.630476	0.174988	99
Es	-0.845164	2.258175	0.095165	99
Es	0.715828	0.498299	0.102335	99
Es	-1.082737	0.139903	0.034456	99
Es	-2.851794	0.036721	-0.527684	99
Es	2.193928	-0.679981	-0.126379	99
Es	-1.662651	1.927785	0.068424	99
Es	-1.054420	1.953855	0.081569	99
Es	-1.616675	-0.423342	0.007066	99
Es	-0.611751	0.730004	0.071135	99
Es	-0.897588	1.451488	0.353849	99
Es	0.145977	0.569533	0.109232	99
Es	-2.362647	-0.128603	-0.339026	99
42
Properties=species:S:1:pos:R:3:Z:I:1 energy=-339.9734540170986 field_type=dipole dipole="0.000000 0.000000 0.000000" charge=0
O	-2.852155	0.036705	-0.527513	8
C	-1.616545	-0.423495	0.007157	6
C	-0.611935	0.730145	0.071127	6
N	-1.054215	1.954315	0.081587	7
N	0.737715	0.518215	0.126117	7
C	1.475915	-0.630615	0.174997	6
C	2.808405	-0.710455	0.223657	6
H	-2.667275	0.307775	-1.445503	1
H	-1.242985	-1.235205	-0.621613	1
H	-1.789775	-0.796165	1.020547	1
H	-2.086815	1.912575	0.063987	1
H	1.266575	1.385125	0.162007	1
H	0.893105	-1.548415	0.176007	1
H	3.435625	0.174905	0.226697	1
H	3.304355	-1.675415	0.260747	1
Es	-1.616677	-0.423343	0.007066	99
Es	2.194135	-0.679636	-0.126424	99
Es	-0.882234	1.461051	-0.213377	99
Es	1.066979	-1.243863	0.174478	99
Es	1.475669	-0.630476	0.174986	99
Es	-2.734614	0.174998	-1.017252	99
Es	0.156773	0.567327	0.173597	99
Es	-3.033102	-0.207396	-0.537084	99
Es	2.168802	-0.665479	0.527024	99
Es	-1.723179	-0.667492	0.688375	99
Es	1.051800	1.023439	0.168986	99
Es	-1.662755	1.927695	0.068455	99
Es	0.688459	0.473743	-0.025549	99
Es	-2.921070	0.290950	-0.374312	99
Es	2.808452	-0.710446	0.223661	99
Es	-1.054408	1.953890	0.081567	99
Es	-1.346135	-0.972271	-0.420700	99
Es	1.034644	0.015735	0.193236	99
Es	-0.897515	1.450894	0.353110	99
Es	-1.082820	0.140008	0.034766	99
Es	-0.611759	0.730009	0.071135	99
Es	-2.362712	-0.129374	-0.339018	99
Es	0.734969	0.515990	0.128039	99
Es	3.231049	-0.106959	0.225912	99
Es	3.142335	-1.359298	0.248973	99
Es	-2.851892	0.036688	-0.527683	99
Es	-0.845379	2.258035	0.096050	99
42
Properties=species:S:1:pos:R:3:Z:I:1 energy=-339.9734540170986 field_type=dipole dipole="0.000000 0.000000 0.000000" charge=0
O	-2.852155	0.036705	-0.527513	8
C	-1.616545	-0.423495	0.007157	6
C	-0.611935	0.730145	0.071127	6
N	-1.054215	1.954315	0.081587	7
N	0.737715	0.518215	0.126117	7
C	1.475915	-0.630615	0.174997	6
C	2.808405	-0.710455	0.223657	6
H	-2.667275	0.307775	-1.445503	1
H	-1.242985	-1.235205	-0.621613	1
H	-1.789775	-0.796165	1.020547	1
H	-2.086815	1.912575	0.063987	1
H	1.266575	1.385125	0.162007	1
H	0.893105	-1.548415	0.176007	1
H	3.435625	0.174905	0.226697	1
H	3.304355	-1.675415	0.260747	1
Es	3.142347	-1.359270	0.248813	99
Es	-1.616681	-0.423339	0.007063	99
Es	-1.346126	-0.972202	-0.420622	99
Es	0.711209	0.495405	0.130858	99
Es	-3.032834	-0.205996	-0.537010	99
Es	-2.852065	0.036696	-0.527572	99
Es	1.475671	-0.630476	0.174987	99
Es	-1.662724	1.927948	0.068276	99
Es	0.145992	0.569547	0.108249	99
Es	3.231055	-0.106973	0.225759	99
Es	0.714555	0.497185	0.102197	99
Es	-2.734785	0.174325	-1.017595	99
Es	1.040914	0.007936	0.147807	99
Es	1.054265	1.026663	0.149079	99
Es	2.193760	-0.679777	-0.126226	99
Es	2.169017	-0.665408	0.527458	99
Es	-0.897494	1.451129	0.353599	99
Es	-2.362964	-0.130716	-0.339052	99
Es	-2.920804	0.291551	-0.374187	99
Es	-1.082803	0.139788	0.034492	99
Es	-1.054426	1.953859	0.081568	99
Es	-0.611758	0.730009	0.071134	99
Es	-0.882284	1.460611	-0.213354	99
Es	-0.845419	2.257819	0.096048	99
Es	1.066873	-1.243922	0.174177	99
Es	2.808449	-0.710445	0.223661	99
Es	-1.723125	-0.667526	0.688411	99
42
Properties=species:S:1:pos:R:3:Z:I:1 energy=-339.9734540170986 field_type=dipole dipole="0.000000 0.000000 0.000000" charge=0
O	-2.852155	0.036705	-0.527513	8
C	-1.616545	-0.423495	0.007157	6
C	-0.611935	0.730145	0.071127	6
N	-1.054215	1.954315	0.081587	7
N	0.737715	0.518215	0.126117	7
C	1.475915	-0.630615	0.174997	6
C	2.808405	-0.710455	0.223657	6
H	-2.667275	0.307775	-1.445503	1
H	-1.242985	-1.235205	-0.621613	1
H	-1.789775	-0.796165	1.020547	1
H	-2.086815	1.912575	0.063987	1
H	1.266575	1.385125	0.162007	1
H	0.893105	-1.548415	0.176007	1
H	3.435625	0.174905	0.226697	1
H	3.304355	-1.675415	0.260747	1
Es	-1.616678	-0.423340	0.007065	99
Es	0.709354	0.493859	0.132718	99
Es	2.808448	-0.710445	0.223664	99
Es	-2.921777	0.290733	-0.373828	99
Es	-3.032340	-0.206729	-0.537472	99
Es	1.054311	1.026737	0.147611	99
Es	0.716208	0.498657	0.104102	99
Es	3.231065	-0.106966	0.225885	99
Es	1.475672	-0.630478	0.174980	99
Es	-1.662692	1.927823	0.068321	99
Es	0.146058	0.569635	0.107664	99
Es	1.066897	-1.244028	0.174246	99
Es	-0.882452	1.460987	-0.213453	99
Es	3.142327	-1.359250	0.249042	99
Es	-2.851823	0.036696	-0.527681	99
Es	-0.611757	0.730010	0.071131	99
Es	-0.845659	2.257836	0.095990	99
Es	-1.346187	-0.972209	-0.420569	99
Es	-1.723081	-0.667493	0.688445	99
Es	-1.082777	0.139709	0.034433	99
Es	-1.054421	1.953863	0.081567	99
Es	-2.734831	0.175146	-1.017389	99
Es	1.040992	0.007874	0.146099	99
Es	2.168699	-0.665139	0.527173	99
Es	2.194088	-0.679938	-0.126347	99
Es	-2.362705	-0.129979	-0.339043	99
Es	-0.897125	1.450848	0.353665	99
