41
Properties=species:S:1:pos:R:3:Z:I:1 energy=-359.7907070525768 field_type=dipole dipole="0.000000 0.000000 0.000000" charge=0
O	-1.270234	-0.249724	1.548126	8
C	-0.529754	-0.584404	0.376776	6
C	-1.464234	-0.985654	-0.755503	6
O	-2.688904	-1.003624	-0.628314	8
C	0.305616	0.600736	-0.002564	6
C	1.770236	0.638006	0.353936	6
N	1.340666	0.477626	-1.033123	7
H	-2.213494	-0.380414	1.317876	1
H	0.086846	-1.458384	0.612696	1
H	-0.975504	-1.298484	-1.694664	1
H	-0.253824	1.528806	0.009276	1
H	2.224206	-0.231934	0.813446	1
H	2.212866	1.589486	0.623976	1
H	1.455516	1.357966	-1.541944	1
Es	-1.000668	-0.776124	-0.195810	99
Es	-0.111609	-0.010334	0.156379	99
Es	0.783945	0.531386	-0.688437	99
Es	0.979325	0.638518	0.394195	99
Es	-1.003522	-0.382366	1.080818	99
Es	1.340548	0.478103	-1.032760	99
Es	2.074741	0.046820	0.665489	99
Es	-1.270377	-0.249719	1.547741	99
Es	2.070400	1.285605	0.534186	99
Es	-0.073251	1.228083	0.000127	99
Es	-1.193557	-0.457049	1.753671	99
Es	-2.236261	-1.233703	-0.594806	99
Es	1.661249	0.558397	-0.474215	99
Es	-2.844567	-1.095093	-0.877938	99
Es	0.305827	0.600661	-0.002714	99
Es	-0.529918	-0.584333	0.376886	99
Es	-2.769658	-0.908950	-0.332482	99
Es	-2.259332	-0.756271	-0.755040	99
Es	-1.123924	-1.193188	-1.386180	99
Es	-1.754979	-0.322231	1.414160	99
Es	1.770108	0.637988	0.353712	99
Es	-0.113315	-1.178891	0.510856	99
Es	1.384548	0.161843	-1.198381	99
Es	1.399577	1.015290	-1.319821	99
Es	-1.464253	-0.985636	-0.755484	99
Es	-2.688538	-1.003625	-0.628373	99
Es	-1.224723	0.048047	1.587256	99
41
Properties=species:S:1:pos:R:3:Z:I:1 energy=-359.7907070525768 field_type=dipole dipole="0.000000 0.000000 0.000000" charge=0
O	-1.270234	-0.249724	1.548126	8
C	-0.529754	-0.584404	0.376776	6
C	-1.464234	-0.985654	-0.755503	6
O	-2.688904	-1.003624	-0.628314	8
C	0.305616	0.600736	-0.002564	6
C	1.770236	0.638006	0.353936	6
N	1.340666	0.477626	-1.033123	7
H	-2.213494	-0.380414	1.317876	1
H	0.086846	-1.458384	0.612696	1
H	-0.975504	-1.298484	-1.694664	1
H	-0.253824	1.528806	0.009276	1
H	2.224206	-0.231934	0.813446	1
H	2.212866	1.589486	0.623976	1
H	1.455516	1.357966	-1.541944	1
Es	2.074828	0.046959	0.665364	99
Es	-1.123952	-1.193139	-1.386241	99
Es	1.661572	0.558450	-0.474467	99
Es	1.384352	0.162203	-1.197782	99
Es	-1.000629	-0.775946	-0.195723	99
Es	-2.769638	-0.908576	-0.332947	99
Es	-1.224956	0.047840	1.587822	99
Es	2.070406	1.285532	0.534157	99
Es	-2.258402	-0.756926	-0.754321	99
Es	0.305824	0.600661	-0.002709	99
Es	-1.270365	-0.249828	1.547817	99
Es	1.340549	0.478095	-1.032756	99
Es	1.399479	1.014976	-1.320457	99
Es	0.979034	0.638491	0.394696	99
Es	-0.113321	-1.178971	0.510675	99
Es	-2.688604	-1.003609	-0.628322	99
Es	-0.073257	1.228023	0.000101	99
Es	-1.193893	-0.457272	1.753387	99
Es	-2.844687	-1.094397	-0.878703	99
Es	0.784132	0.531250	-0.688423	99
Es	-1.464252	-0.985664	-0.755474	99
Es	1.770100	0.637993	0.353711	99
Es	-1.754837	-0.322135	1.414040	99
Es	-2.237019	-1.234198	-0.594290	99
Es	-1.003065	-0.381954	1.080732	99
Es	-0.111666	-0.010293	0.156270	99
Es	-0.529916	-0.584338	0.376880	99
41
Properties=species:S:1:pos:R:3:Z:I:1 energy=-359.7907070525768 field_type=dipole dipole="0.000000 0.000000 0.000000" charge=0
O	-1.270234	-0.249724	1.548126	8
C	-0.529754	-0.584404	0.376776	6
C	-1.464234	-0.985654	-0.755503	6
O	-2.688904	-1.003624	-0.628314	8
C	0.305616	0.600736	-0.002564	6
C	1.770236	0.638006	0.353936	6
N	1.340666	0.477626	-1.033123	7
H	-2.213494	-0.380414	1.317876	1
H	0.086846	-1.458384	0.612696	1
H	-0.975504	-1.298484	-1.694664	1
H	-0.253824	1.528806	0.009276	1
H	2.224206	-0.231934	0.813446	1
H	2.212866	1.589486	0.623976	1
H	1.455516	1.357966	-1.541944	1
Es	2.070390	1.285468	0.534175	99
Es	0.305820	0.600660	-0.002708	99
Es	1.384438	0.162949	-1.197534	99
Es	-0.113156	-1.178922	0.510784	99
Es	1.340553	0.478092	-1.032757	99
Es	1.399411	1.014897	-1.320589	99
Es	-2.769033	-0.908268	-0.333345	99
Es	-0.529915	-0.584336	0.376883	99
Es	-1.123961	-1.193171	-1.386248	99
Es	-1.270363	-0.249803	1.547802	99
Es	0.979114	0.638593	0.394710	99
Es	-1.224287	0.047766	1.588778	99
Es	-1.194395	-0.457603	1.752464	99
Es	-0.111889	-0.010144	0.156033	99
Es	0.783670	0.530744	-0.688752	99
Es	-1.754978	-0.321672	1.414222	99
Es	-2.258501	-0.756892	-0.754768	99
Es	-1.000521	-0.776112	-0.195534	99
Es	-2.688640	-1.003617	-0.628321	99
Es	2.074738	0.046940	0.665470	99
Es	1.770100	0.637992	0.353717	99
Es	-2.845250	-1.094908	-0.878327	99
Es	-0.073228	1.227933	0.000009	99
Es	-1.464252	-0.985645	-0.755480	99
Es	1.662057	0.558287	-0.474273	99
Es	-2.236923	-1.234030	-0.593860	99
Es	-1.003184	-0.381972	1.080487	99
41
Properties=species:S:1:pos:R:3:Z:I:1 energy=-359.7907070525768 field_type=dipole dipole="0.000000 0.000000 0.000000" charge=0
O	-1.270234	-0.249724	1.548126	8
C	-0.529754	-0.584404	0.376776	6
C	-1.464234	-0.985654	-0.755503	6
O	-2.688904	-1.003624	-0.628314	8
C	0.305616	0.600736	-0.002564	6
C	1.770236	0.638006	0.353936	6
N	1.340666	0.477626	-1.033123	7
H	-2.213494	-0.380414	1.317876	1
H	0.086846	-1.458384	0.612696	1
H	-0.975504	-1.298484	-1.694664	1
H	-0.253824	1.528806	0.009276	1
H	2.224206	-0.231934	0.813446	1
H	2.212866	1.589486	0.623976	1
H	1.455516	1.357966	-1.541944	1
Es	-1.194716	-0.456965	1.753115	99
Es	-0.113392	-1.178736	0.510809	99
Es	1.399539	1.014811	-1.320481	99
Es	-0.111630	-0.010067	0.156166	99
Es	-0.529916	-0.584336	0.376884	99
Es	-2.236150	-1.233377	-0.594692	99
Es	-0.073156	1.227837	0.000114	99
Es	1.384746	0.163242	-1.197488	99
Es	-2.688539	-1.003608	-0.628318	99
Es	-2.843250	-1.095148	-0.878499	99
Es	-1.755102	-0.321102	1.414191	99
Es	1.661980	0.558292	-0.474117	99
Es	2.074832	0.047092	0.665388	99
Es	-1.002857	-0.382805	1.080566	99
Es	0.979199	0.638575	0.395048	99
Es	0.783128	0.530550	-0.689351	99
Es	-2.771055	-0.909362	-0.332618	99
Es	-1.123977	-1.193222	-1.386248	99
Es	-2.259356	-0.756110	-0.754518	99
Es	-1.270345	-0.249811	1.547842	99
Es	1.770098	0.637992	0.353709	99
Es	0.305825	0.600662	-0.002712	99
Es	1.340549	0.478110	-1.032762	99
Es	2.070352	1.285318	0.534125	99
Es	-1.000541	-0.776309	-0.195651	99
Es	-1.224203	0.047349	1.588017	99
Es	-1.464250	-0.985645	-0.755481	99
41
Properties=species:S:1:pos:R:3:Z:I:1 energy=-359.7907070525768 field_type=dipole dipole="0.000000 0.000000 0.000000" charge=0
O	-1.270234	-0.249724	1.548126	8
C	-0.529754	-0.584404	0.376776	6
C	-1.464234	-0.985654	-0.755503	6
O	-2.688904	-1.003624	-0.628314	8
C	0.305616	0.600736	-0.002564	6
C	1.770236	0.638006	0.353936	6
N	1.340666	0.477626	-1.033123	7
H	-2.213494	-0.380414	1.317876	1
H	0.086846	-1.458384	0.612696	1
H	-0.975504	-1.298484	-1.694664	1
H	-0.253824	1.528806	0.009276	1
H	2.224206	-0.231934	0.813446	1
H	2.212866	1.589486	0.623976	1
H	1.455516	1.357966	-1.541944	1
Es	-0.073116	1.227726	0.000096	99
Es	0.979080	0.638659	0.395228	99
Es	2.070363	1.285235	0.534045	99
Es	1.662611	0.557997	-0.474261	99
Es	-2.258654	-0.756586	-0.755212	99
Es	-1.124033	-1.193215	-1.386272	99
Es	1.384469	0.163983	-1.196789	99
Es	-2.769422	-0.908574	-0.332954	99
Es	2.074848	0.047180	0.665409	99
Es	1.770104	0.637993	0.353712	99
Es	-1.002211	-0.383096	1.080741	99
Es	-1.000455	-0.776096	-0.195569	99
Es	-2.844816	-1.094875	-0.877729	99
Es	0.782724	0.530407	-0.689399	99
Es	-0.113238	-1.178841	0.510721	99
Es	-1.755131	-0.322686	1.414599	99
Es	-2.688579	-1.003607	-0.628313	99
Es	-1.464248	-0.985645	-0.755482	99
Es	-1.193354	-0.454677	1.755234	99
Es	-0.111846	-0.010016	0.156088	99
Es	1.399660	1.014503	-1.321089	99
Es	-0.529913	-0.584337	0.376881	99
Es	-1.270354	-0.249828	1.547834	99
Es	-1.226169	0.046935	1.585394	99
Es	1.340539	0.478087	-1.032773	99
Es	0.305827	0.600662	-0.002712	99
Es	-2.236871	-1.234064	-0.594394	99
41
Properties=species:S:1:pos:R:3:Z:I:1 energy=-359.7907070525768 field_type=dipole dipole="0.000000 0.000000 0.000000" charge=0
O	-1.270234	-0.249724	1.548126	8
C	-0.529754	-0.584404	0.376776	6
C	-1.464234	-0.985654	-0.755503	6
O	-2.688904	-1.003624	-0.628314	8
C	0.305616	0.600736	-0.002564	6
C	1.770236	0.638006	0.353936	6
N	1.340666	0.477626	-1.033123	7
H	-2.213494	-0.380414	1.317876	1
H	0.086846	-1.458384	0.612696	1
H	-0.975504	-1.298484	-1.694664	1
H	-0.253824	1.528806	0.009276	1
H	2.224206	-0.231934	0.813446	1
H	2.212866	1.589486	0.623976	1
H	1.455516	1.357966	-1.541944	1
Es	-1.225364	0.047325	1.586846	99
Es	-0.111720	-0.009976	0.156065	99
Es	-1.270360	-0.249824	1.547814	99
Es	2.074812	0.047244	0.665290	99
Es	-0.529915	-0.584336	0.376883	99
Es	1.770096	0.637992	0.353707	99
Es	-2.260427	-0.754988	-0.755432	99
Es	1.384444	0.163808	-1.196990	99
Es	-1.755165	-0.322466	1.414790	99
Es	1.662710	0.558272	-0.474410	99
Es	-1.124002	-1.193279	-1.386233	99
Es	-2.771165	-0.910072	-0.332416	99
Es	0.305830	0.600663	-0.002708	99
Es	1.399562	1.014223	-1.320917	99
Es	2.070389	1.285102	0.534129	99
Es	-2.688562	-1.003599	-0.628326	99
Es	0.978986	0.638698	0.395634	99
Es	-2.235275	-1.232655	-0.595147	99
Es	-1.193893	-0.455339	1.753803	99
Es	-2.842922	-1.096198	-0.877428	99
Es	-0.113340	-1.178762	0.510696	99
Es	-1.002469	-0.383048	1.080590	99
Es	-0.073126	1.227643	0.000092	99
Es	0.782836	0.530608	-0.689523	99
Es	-1.000444	-0.776273	-0.195506	99
Es	1.340555	0.478113	-1.032787	99
Es	-1.464252	-0.985648	-0.755479	99
41
Properties=species:S:1:pos:R:3:Z:I:1 energy=-359.7907070525768 field_type=dipole dipole="0.000000 0.000000 0.000000" charge=0
O	-1.270234	-0.249724	1.548126	8
C	-0.529754	-0.584404	0.376776	6
C	-1.464234	-0.985654	-0.755503	6
O	-2.688904	-1.003624	-0.628314	8
C	0.305616	0.600736	-0.002564	6
C	1.770236	0.638006	0.353936	6
N	1.340666	0.477626	-1.033123	7
H	-2.213494	-0.380414	1.317876	1
H	0.086846	-1.458384	0.612696	1
H	-0.975504	-1.298484	-1.694664	1
H	-0.253824	1.528806	0.009276	1
H	2.224206	-0.231934	0.813446	1
H	2.212866	1.589486	0.623976	1
H	1.455516	1.357966	-1.541944	1
Es	1.340542	0.478109	-1.032757	99
Es	1.399448	1.014014	-1.321342	99
Es	-0.529915	-0.584336	0.376883	99
Es	-2.688609	-1.003605	-0.628317	99
Es	-1.000438	-0.776143	-0.195476	99
Es	-0.111728	-0.009896	0.155961	99
Es	-1.002309	-0.382725	1.080362	99
Es	-1.124002	-1.193193	-1.386309	99
Es	0.979032	0.638787	0.395982	99
Es	0.305829	0.600663	-0.002709	99
Es	2.074848	0.047332	0.665293	99
Es	1.663133	0.558097	-0.474659	99
Es	-2.768687	-0.908930	-0.332572	99
Es	-0.073111	1.227553	0.000115	99
Es	1.770096	0.637992	0.353708	99
Es	2.070446	1.284994	0.533988	99
Es	-1.755264	-0.321869	1.414724	99
Es	-1.270367	-0.249823	1.547808	99
Es	-0.113348	-1.178794	0.510697	99
Es	0.782524	0.530319	-0.689507	99
Es	-2.845459	-1.093817	-0.877615	99
Es	-2.236675	-1.234581	-0.595376	99
Es	-2.258901	-0.756812	-0.754755	99
Es	-1.194172	-0.455667	1.753602	99
Es	1.384304	0.164449	-1.196554	99
Es	-1.225149	0.046757	1.587343	99
Es	-1.464251	-0.985644	-0.755481	99
41
Properties=species:S:1:pos:R:3:Z:I:1 energy=-359.7907070525768 field_type=dipole dipole="0.000000 0.000000 0.000000" charge=0
O	-1.270234	-0.249724	1.548126	8
C	-0.529754	-0.584404	0.376776	6
C	-1.464234	-0.985654	-0.755503	6
O	-2.688904	-1.003624	-0.628314	8
C	0.305616	0.600736	-0.002564	6
C	1.770236	0.638006	0.353936	6
N	1.340666	0.477626	-1.033123	7
H	-2.213494	-0.380414	1.317876	1
H	0.086846	-1.458384	0.612696	1
H	-0.975504	-1.298484	-1.694664	1
H	-0.253824	1.528806	0.009276	1
H	2.224206	-0.231934	0.813446	1
H	2.212866	1.589486	0.623976	1
H	1.455516	1.357966	-1.541944	1
Es	1.384478	0.164816	-1.196588	99
Es	-1.193194	-0.454001	1.754698	99
Es	1.663411	0.557890	-0.474586	99
Es	-1.002134	-0.383147	1.080304	99
Es	2.070398	1.284929	0.534044	99
Es	-0.113357	-1.178836	0.510618	99
Es	-2.843309	-1.094570	-0.878378	99
Es	-1.226442	0.046811	1.585585	99
Es	-1.124008	-1.193176	-1.386356	99
Es	-1.270336	-0.249806	1.547866	99
Es	0.305822	0.600662	-0.002707	99
Es	-0.529913	-0.584336	0.376882	99
Es	-0.073031	1.227501	0.000110	99
Es	1.770105	0.637993	0.353724	99
Es	-2.236874	-1.234458	-0.593526	99
Es	-0.111809	-0.009853	0.155934	99
Es	-1.464251	-0.985641	-0.755482	99
Es	0.781971	0.530250	-0.689778	99
Es	-2.771178	-0.908332	-0.333820	99
Es	-2.258428	-0.756780	-0.754558	99
Es	2.074834	0.047436	0.665241	99
Es	1.340546	0.478094	-1.032756	99
Es	-2.688535	-1.003620	-0.628360	99
Es	1.399776	1.013956	-1.321110	99
Es	-1.755185	-0.323186	1.415452	99
Es	-1.000380	-0.776084	-0.195371	99
Es	0.978840	0.638716	0.395956	99
41
Properties=species:S:1:pos:R:3:Z:I:1 energy=-359.7907070525768 field_type=dipole dipole="0.000000 0.000000 0.000000" charge=0
O	-1.270234	-0.249724	1.548126	8
C	-0.529754	-0.584404	0.376776	6
C	-1.464234	-0.985654	-0.755503	6
O	-2.688904	-1.003624	-0.628314	8
C	0.305616	0.600736	-0.002564	6
C	1.770236	0.638006	0.353936	6
N	1.340666	0.477626	-1.033123	7
H	-2.213494	-0.380414	1.317876	1
H	0.086846	-1.458384	0.612696	1
H	-0.975504	-1.298484	-1.694664	1
H	-0.253824	1.528806	0.009276	1
H	2.224206	-0.231934	0.813446	1
H	2.212866	1.589486	0.623976	1
H	1.455516	1.357966	-1.541944	1
Es	-0.113485	-1.178933	0.510554	99
Es	-0.529914	-0.584336	0.376882	99
Es	-1.124042	-1.193202	-1.386363	99
Es	-2.688580	-1.003608	-0.628318	99
Es	-1.000317	-0.775933	-0.195359	99
Es	-1.225508	0.046424	1.586902	99
Es	-0.111680	-0.009926	0.156049	99
Es	-2.236914	-1.234352	-0.594650	99
Es	-1.270358	-0.249913	1.547831	99
Es	0.978775	0.638915	0.396246	99
Es	1.384258	0.165039	-1.195851	99
Es	2.070447	1.284818	0.533997	99
Es	-2.844988	-1.094462	-0.877386	99
Es	-2.258596	-0.756602	-0.755187	99
Es	-1.194027	-0.454747	1.753803	99
Es	1.770094	0.637992	0.353706	99
Es	1.399941	1.013597	-1.321822	99
Es	2.074804	0.047488	0.665245	99
Es	1.663441	0.557928	-0.474616	99
Es	-0.073029	1.227422	0.000084	99
Es	-2.769239	-0.908704	-0.333119	99
Es	0.782040	0.530291	-0.690033	99
Es	1.340548	0.478115	-1.032762	99
Es	-1.755382	-0.322121	1.415136	99
Es	-1.464253	-0.985667	-0.755472	99
Es	0.305824	0.600662	-0.002707	99
Es	-1.002039	-0.382957	1.080249	99
41
Properties=species:S:1:pos:R:3:Z:I:1 energy=-359.7907070525768 field_type=dipole dipole="0.000000 0.000000 0.000000" charge=0
O	-1.270234	-0.249724	1.548126	8
C	-0.529754	-0.584404	0.376776	6
C	-1.464234	-0.985654	-0.755503	6
O	-2.688904	-1.003624	-0.628314	8
C	0.305616	0.600736	-0.002564	6
C	1.770236	0.638006	0.353936	6
N	1.340666	0.477626	-1.033123	7
H	-2.213494	-0.380414	1.317876	1
H	0.086846	-1.458384	0.612696	1
H	-0.975504	-1.298484	-1.694664	1
H	-0.253824	1.528806	0.009276	1
H	2.224206	-0.231934	0.813446	1
H	2.212866	1.589486	0.623976	1
H	1.455516	1.357966	-1.541944	1
Es	-2.688570	-1.003608	-0.628320	99
Es	-2.258864	-0.756380	-0.754814	99
Es	-0.529912	-0.584337	0.376880	99
Es	1.340552	0.478074	-1.032758	99
Es	0.978682	0.638881	0.396465	99
Es	-1.225486	0.046129	1.587014	99
Es	-1.755614	-0.322150	1.415134	99
Es	-1.270360	-0.249960	1.547811	99
Es	-2.846018	-1.094096	-0.877256	99
Es	1.383649	0.165294	-1.196159	99
Es	-1.464250	-0.985644	-0.755481	99
Es	2.070418	1.284763	0.534023	99
Es	-1.000308	-0.776001	-0.195231	99
Es	-1.194037	-0.454430	1.753668	99
Es	0.782114	0.530565	-0.689632	99
Es	1.399772	1.013517	-1.321650	99
Es	0.305830	0.600663	-0.002709	99
Es	-0.073026	1.227319	0.000048	99
Es	-1.124045	-1.193196	-1.386389	99
Es	1.664285	0.557543	-0.474952	99
Es	-2.236638	-1.234511	-0.594996	99
Es	2.074790	0.047569	0.665232	99
Es	-0.111829	-0.009789	0.155828	99
Es	-2.768222	-0.909134	-0.333280	99
Es	-0.113385	-1.178908	0.510518	99
Es	1.770092	0.637991	0.353700	99
Es	-1.001803	-0.382936	1.080343	99
41
Properties=species:S:1:pos:R:3:Z:I:1 energy=-359.7907070525768 field_type=dipole dipole="0.000000 0.000000 0.000000" charge=0
O	-1.270234	-0.249724	1.548126	8
C	-0.529754	-0.584404	0.376776	6
C	-1.464234	-0.985654	-0.755503	6
O	-2.688904	-1.003624	-0.628314	8
C	0.305616	0.600736	-0.002564	6
C	1.770236	0.638006	0.353936	6
N	1.340666	0.477626	-1.033123	7
H	-2.213494	-0.380414	1.317876	1
H	0.086846	-1.458384	0.612696	1
H	-0.975504	-1.298484	-1.694664	1
H	-0.253824	1.528806	0.009276	1
H	2.224206	-0.231934	0.813446	1
H	2.212866	1.589486	0.623976	1
H	1.455516	1.357966	-1.541944	1
Es	-1.223451	0.046278	1.588485	99
Es	-0.529912	-0.584337	0.376879	99
Es	-1.195437	-0.455557	1.752166	99
Es	0.781665	0.530184	-0.690029	99
Es	-2.258748	-0.756174	-0.755452	99
Es	-2.847370	-1.093277	-0.875886	99
Es	-0.111900	-0.009710	0.155740	99
Es	-1.270356	-0.249836	1.547828	99
Es	-0.072985	1.227275	0.000061	99
Es	-1.000301	-0.776004	-0.195192	99
Es	-2.766622	-0.909540	-0.332708	99
Es	0.305833	0.600664	-0.002708	99
Es	-2.237004	-1.235210	-0.596248	99
Es	2.070362	1.284705	0.533994	99
Es	1.770096	0.637992	0.353705	99
Es	-1.755825	-0.320340	1.415209	99
Es	-0.113337	-1.178860	0.510548	99
Es	-1.464252	-0.985643	-0.755481	99
Es	-1.002278	-0.383856	1.080289	99
Es	0.978715	0.638823	0.396652	99
Es	1.383805	0.165838	-1.195894	99
Es	1.399871	1.013478	-1.321734	99
Es	1.664401	0.557380	-0.474829	99
Es	-1.124014	-1.193189	-1.386430	99
Es	-2.688553	-1.003615	-0.628342	99
Es	2.074862	0.047658	0.665197	99
Es	1.340552	0.478102	-1.032781	99
41
Properties=species:S:1:pos:R:3:Z:I:1 energy=-359.7907070525768 field_type=dipole dipole="0.000000 0.000000 0.000000" charge=0
O	-1.270234	-0.249724	1.548126	8
C	-0.529754	-0.584404	0.376776	6
C	-1.464234	-0.985654	-0.755503	6
O	-2.688904	-1.003624	-0.628314	8
C	0.305616	0.600736	-0.002564	6
C	1.770236	0.638006	0.353936	6
N	1.340666	0.477626	-1.033123	7
H	-2.213494	-0.380414	1.317876	1
H	0.086846	-1.458384	0.612696	1
H	-0.975504	-1.298484	-1.694664	1
H	-0.253824	1.528806	0.009276	1
H	2.224206	-0.231934	0.813446	1
H	2.212866	1.589486	0.623976	1
H	1.455516	1.357966	-1.541944	1
Es	1.399841	1.013218	-1.321896	99
Es	-1.464251	-0.985644	-0.755480	99
Es	-0.111889	-0.009649	0.155708	99
Es	-1.193354	-0.452582	1.753910	99
Es	-2.236739	-1.234308	-0.594490	99
Es	-1.001981	-0.384271	1.080392	99
Es	0.781218	0.529844	-0.690724	99
Es	-2.769605	-0.908623	-0.333318	99
Es	2.074788	0.047720	0.665183	99
Es	-0.072943	1.227166	0.000062	99
Es	1.384547	0.165840	-1.195561	99
Es	1.663923	0.557949	-0.474540	99
Es	-1.226397	0.047473	1.585609	99
Es	-0.529913	-0.584337	0.376881	99
Es	2.070456	1.284620	0.533954	99
Es	1.770093	0.637992	0.353699	99
Es	-1.000216	-0.775983	-0.195107	99
Es	-0.113391	-1.178901	0.510492	99
Es	0.978899	0.638936	0.396922	99
Es	0.305830	0.600664	-0.002710	99
Es	-2.688547	-1.003620	-0.628359	99
Es	-2.258739	-0.756637	-0.755271	99
Es	1.340548	0.478094	-1.032757	99
Es	-1.755283	-0.324121	1.416265	99
Es	-1.124056	-1.193235	-1.386427	99
Es	-1.270352	-0.249818	1.547826	99
Es	-2.844670	-1.094559	-0.877225	99
41
Properties=species:S:1:pos:R:3:Z:I:1 energy=-359.7907070525768 field_type=dipole dipole="0.000000 0.000000 0.000000" charge=0
O	-1.270234	-0.249724	1.548126	8
C	-0.529754	-0.584404	0.376776	6
C	-1.464234	-0.985654	-0.755503	6
O	-2.688904	-1.003624	-0.628314	8
C	0.305616	0.600736	-0.002564	6
C	1.770236	0.638006	0.353936	6
N	1.340666	0.477626	-1.033123	7
H	-2.213494	-0.380414	1.317876	1
H	0.086846	-1.458384	0.612696	1
H	-0.975504	-1.298484	-1.694664	1
H	-0.253824	1.528806	0.009276	1
H	2.224206	-0.231934	0.813446	1
H	2.212866	1.589486	0.623976	1
H	1.455516	1.357966	-1.541944	1
Es	-1.270381	-0.249806	1.547816	99
Es	-1.225768	0.045520	1.584992	99
Es	1.383840	0.166310	-1.195567	99
Es	-0.113343	-1.178817	0.510492	99
Es	0.781182	0.530034	-0.690303	99
Es	2.074762	0.047794	0.665161	99
Es	1.340547	0.478095	-1.032751	99
Es	-0.111932	-0.009616	0.155683	99
Es	-1.000168	-0.776043	-0.195092	99
Es	-0.529912	-0.584338	0.376881	99
Es	-0.072921	1.227128	0.000096	99
Es	-2.688642	-1.003613	-0.628316	99
Es	-1.755817	-0.321893	1.415884	99
Es	-1.464250	-0.985645	-0.755480	99
Es	0.978719	0.638949	0.396955	99
Es	1.770095	0.637992	0.353704	99
Es	-2.237041	-1.234508	-0.593264	99
Es	-1.193484	-0.453048	1.755106	99
Es	-2.258392	-0.757254	-0.756140	99
Es	2.070431	1.284516	0.533980	99
Es	1.664836	0.557393	-0.474992	99
Es	-1.124105	-1.193206	-1.386456	99
Es	0.305829	0.600664	-0.002707	99
Es	1.399869	1.013143	-1.321971	99
Es	-2.769376	-0.907265	-0.334044	99
Es	-2.844839	-1.095163	-0.876875	99
Es	-1.001923	-0.384097	1.080243	99
