52
Properties=species:S:1:pos:R:3:Z:I:1 energy=-274.49444095360866 field_type=dipole dipole="0.000000 0.000000 0.000000" charge=0
C	-2.690484	-1.526170	-0.038401	6
C	-1.168864	-1.503870	-0.051421	6
C	-0.633154	-0.069730	-0.077701	6
C	0.904836	0.024280	0.018519	6
C	1.592866	-0.721390	-1.131171	6
C	1.385476	1.491340	0.020919	6
C	0.941956	2.284270	1.241559	6
H	-3.054164	-2.558800	-0.019821	1
H	-3.096464	-1.039310	-0.930531	1
H	-3.084354	-1.011900	0.844099	1
H	-0.824534	-2.058720	-0.930051	1
H	-0.793394	-2.025660	0.836429	1
H	-1.081834	0.473560	0.761809	1
H	-0.975394	0.428390	-0.993971	1
H	1.224696	-0.443430	0.958649	1
H	1.243286	-0.358900	-2.103801	1
H	1.405676	-1.797850	-1.077881	1
H	2.678986	-0.585310	-1.090091	1
H	1.038596	2.001490	-0.886011	1
H	2.482346	1.509610	-0.008561	1
H	-0.141764	2.433030	1.257169	1
H	1.407666	3.275040	1.233029	1
H	1.238026	1.780039	2.167229	1
Es	-0.633133	-0.069757	-0.077699	99
Es	2.335222	-0.624173	-1.100155	99
Es	1.385454	1.491344	0.020954	99
Es	1.261368	2.960827	1.234595	99
Es	1.142463	1.838834	-0.603411	99
Es	1.349895	-0.470209	-1.795269	99
Es	0.941962	2.284263	1.241546	99
Es	-2.939358	-2.232609	-0.025879	99
Es	1.152359	1.885553	0.638199	99
Es	1.144580	1.935318	1.873456	99
Es	-1.935957	-1.510445	-0.043042	99
Es	0.904830	0.024292	0.018473	99
Es	1.461378	-1.456471	-1.094874	99
Es	1.123944	-0.297255	0.668550	99
Es	0.133991	-0.025883	-0.034889	99
Es	-1.168895	-1.503841	-0.051419	99
Es	-0.893256	-0.789604	-0.067657	99
Es	-0.909230	-1.859973	0.560886	99
Es	-2.957590	-1.172085	0.566185	99
Es	-0.865614	0.271187	-0.711578	99
Es	2.140420	1.500070	0.001886	99
Es	1.592861	-0.721384	-1.131164	99
Es	1.247158	-0.354791	-0.567561	99
Es	-0.940321	0.301896	0.500530	99
Es	-2.965110	-1.191012	-0.649445	99
Es	0.200612	2.382338	1.251718	99
Es	-0.931428	-1.882874	-0.655192	99
Es	-2.690468	-1.526172	-0.038401	99
Es	1.136898	0.764553	0.022549	99
52
Properties=species:S:1:pos:R:3:Z:I:1 energy=-274.49444095360866 field_type=dipole dipole="0.000000 0.000000 0.000000" charge=0
C	-2.690484	-1.526170	-0.038401	6
C	-1.168864	-1.503870	-0.051421	6
C	-0.633154	-0.069730	-0.077701	6
C	0.904836	0.024280	0.018519	6
C	1.592866	-0.721390	-1.131171	6
C	1.385476	1.491340	0.020919	6
C	0.941956	2.284270	1.241559	6
H	-3.054164	-2.558800	-0.019821	1
H	-3.096464	-1.039310	-0.930531	1
H	-3.084354	-1.011900	0.844099	1
H	-0.824534	-2.058720	-0.930051	1
H	-0.793394	-2.025660	0.836429	1
H	-1.081834	0.473560	0.761809	1
H	-0.975394	0.428390	-0.993971	1
H	1.224696	-0.443430	0.958649	1
H	1.243286	-0.358900	-2.103801	1
H	1.405676	-1.797850	-1.077881	1
H	2.678986	-0.585310	-1.090091	1
H	1.038596	2.001490	-0.886011	1
H	2.482346	1.509610	-0.008561	1
H	-0.141764	2.433030	1.257169	1
H	1.407666	3.275040	1.233029	1
H	1.238026	1.780039	2.167229	1
Es	1.461674	-1.456546	-1.094951	99
Es	-0.909093	-1.860076	0.560877	99
Es	1.349918	-0.470195	-1.795344	99
Es	-2.939346	-2.232613	-0.025905	99
Es	0.941962	2.284263	1.241546	99
Es	-0.633135	-0.069756	-0.077699	99
Es	-1.935991	-1.510304	-0.043077	99
Es	2.335045	-0.623981	-1.100076	99
Es	-2.965170	-1.191036	-0.649362	99
Es	-0.893148	-0.789691	-0.067856	99
Es	1.385454	1.491344	0.020954	99
Es	0.133903	-0.025870	-0.034721	99
Es	-0.931575	-1.882776	-0.655060	99
Es	1.144572	1.935302	1.873477	99
Es	-0.865566	0.271268	-0.711554	99
Es	1.123917	-0.297048	0.668486	99
Es	-0.940349	0.301825	0.500499	99
Es	-2.957628	-1.172132	0.566160	99
Es	1.247102	-0.355086	-0.567468	99
Es	2.140373	1.500034	0.001935	99
Es	-1.168894	-1.503840	-0.051418	99
Es	1.592860	-0.721385	-1.131165	99
Es	1.142561	1.838752	-0.603479	99
Es	1.261309	2.960781	1.234666	99
Es	0.200637	2.382368	1.251720	99
Es	1.136966	0.764543	0.022497	99
Es	-2.690468	-1.526172	-0.038401	99
Es	1.152314	1.885673	0.638135	99
Es	0.904830	0.024292	0.018475	99
52
Properties=species:S:1:pos:R:3:Z:I:1 energy=-274.49444095360866 field_type=dipole dipole="0.000000 0.000000 0.000000" charge=0
C	-2.690484	-1.526170	-0.038401	6
C	-1.168864	-1.503870	-0.051421	6
C	-0.633154	-0.069730	-0.077701	6
C	0.904836	0.024280	0.018519	6
C	1.592866	-0.721390	-1.131171	6
C	1.385476	1.491340	0.020919	6
C	0.941956	2.284270	1.241559	6
H	-3.054164	-2.558800	-0.019821	1
H	-3.096464	-1.039310	-0.930531	1
H	-3.084354	-1.011900	0.844099	1
H	-0.824534	-2.058720	-0.930051	1
H	-0.793394	-2.025660	0.836429	1
H	-1.081834	0.473560	0.761809	1
H	-0.975394	0.428390	-0.993971	1
H	1.224696	-0.443430	0.958649	1
H	1.243286	-0.358900	-2.103801	1
H	1.405676	-1.797850	-1.077881	1
H	2.678986	-0.585310	-1.090091	1
H	1.038596	2.001490	-0.886011	1
H	2.482346	1.509610	-0.008561	1
H	-0.141764	2.433030	1.257169	1
H	1.407666	3.275040	1.233029	1
H	1.238026	1.780039	2.167229	1
Es	0.133916	-0.025890	-0.034774	99
Es	-1.168895	-1.503840	-0.051418	99
Es	1.261320	2.960843	1.234667	99
Es	2.140316	1.500150	0.001955	99
Es	1.136916	0.764367	0.022472	99
Es	-0.893172	-0.789708	-0.067654	99
Es	-2.939367	-2.232563	-0.025944	99
Es	0.941961	2.284263	1.241546	99
Es	0.200667	2.382328	1.251821	99
Es	1.349952	-0.470278	-1.795179	99
Es	-1.935950	-1.510323	-0.042964	99
Es	1.152276	1.885554	0.638077	99
Es	-2.957644	-1.172199	0.566160	99
Es	-0.931542	-1.882783	-0.655164	99
Es	1.144560	1.935384	1.873405	99
Es	-0.909113	-1.860061	0.560730	99
Es	1.247180	-0.354856	-0.567421	99
Es	1.385454	1.491343	0.020953	99
Es	1.142609	1.838793	-0.603423	99
Es	1.123967	-0.297028	0.668483	99
Es	1.592862	-0.721386	-1.131166	99
Es	0.904830	0.024290	0.018474	99
Es	-2.965204	-1.191011	-0.649322	99
Es	2.335199	-0.624149	-1.100238	99
Es	-2.690468	-1.526172	-0.038401	99
Es	-0.633134	-0.069755	-0.077700	99
Es	1.461465	-1.456459	-1.095009	99
Es	-0.940312	0.301849	0.500439	99
Es	-0.865616	0.271234	-0.711516	99
52
Properties=species:S:1:pos:R:3:Z:I:1 energy=-274.49444095360866 field_type=dipole dipole="0.000000 0.000000 0.000000" charge=0
C	-2.690484	-1.526170	-0.038401	6
C	-1.168864	-1.503870	-0.051421	6
C	-0.633154	-0.069730	-0.077701	6
C	0.904836	0.024280	0.018519	6
C	1.592866	-0.721390	-1.131171	6
C	1.385476	1.491340	0.020919	6
C	0.941956	2.284270	1.241559	6
H	-3.054164	-2.558800	-0.019821	1
H	-3.096464	-1.039310	-0.930531	1
H	-3.084354	-1.011900	0.844099	1
H	-0.824534	-2.058720	-0.930051	1
H	-0.793394	-2.025660	0.836429	1
H	-1.081834	0.473560	0.761809	1
H	-0.975394	0.428390	-0.993971	1
H	1.224696	-0.443430	0.958649	1
H	1.243286	-0.358900	-2.103801	1
H	1.405676	-1.797850	-1.077881	1
H	2.678986	-0.585310	-1.090091	1
H	1.038596	2.001490	-0.886011	1
H	2.482346	1.509610	-0.008561	1
H	-0.141764	2.433030	1.257169	1
H	1.407666	3.275040	1.233029	1
H	1.238026	1.780039	2.167229	1
Es	2.335175	-0.624310	-1.100303	99
Es	-0.893092	-0.789662	-0.067740	99
Es	0.941962	2.284263	1.241545	99
Es	1.261314	2.960830	1.234744	99
Es	1.123858	-0.297092	0.668461	99
Es	1.247288	-0.354826	-0.567377	99
Es	-1.168895	-1.503842	-0.051422	99
Es	-2.939388	-2.232556	-0.025933	99
Es	-2.965276	-1.190947	-0.649298	99
Es	0.200651	2.382330	1.251863	99
Es	-2.690468	-1.526172	-0.038401	99
Es	2.140247	1.500134	0.002040	99
Es	-2.957605	-1.172288	0.566115	99
Es	-0.909074	-1.860069	0.560669	99
Es	1.144547	1.935398	1.873343	99
Es	-0.633133	-0.069756	-0.077701	99
Es	1.142694	1.838705	-0.603547	99
Es	0.904829	0.024292	0.018474	99
Es	1.592861	-0.721387	-1.131164	99
Es	-1.935914	-1.510295	-0.042877	99
Es	-0.940381	0.301700	0.500346	99
Es	1.349966	-0.470212	-1.795179	99
Es	0.134025	-0.025823	-0.034592	99
Es	1.461372	-1.456419	-1.095034	99
Es	1.385452	1.491344	0.020956	99
Es	-0.931634	-1.882808	-0.655132	99
Es	1.136985	0.764411	0.022639	99
Es	-0.865590	0.271335	-0.711586	99
Es	1.152256	1.885659	0.637978	99
52
Properties=species:S:1:pos:R:3:Z:I:1 energy=-274.49444095360866 field_type=dipole dipole="0.000000 0.000000 0.000000" charge=0
C	-2.690484	-1.526170	-0.038401	6
C	-1.168864	-1.503870	-0.051421	6
C	-0.633154	-0.069730	-0.077701	6
C	0.904836	0.024280	0.018519	6
C	1.592866	-0.721390	-1.131171	6
C	1.385476	1.491340	0.020919	6
C	0.941956	2.284270	1.241559	6
H	-3.054164	-2.558800	-0.019821	1
H	-3.096464	-1.039310	-0.930531	1
H	-3.084354	-1.011900	0.844099	1
H	-0.824534	-2.058720	-0.930051	1
H	-0.793394	-2.025660	0.836429	1
H	-1.081834	0.473560	0.761809	1
H	-0.975394	0.428390	-0.993971	1
H	1.224696	-0.443430	0.958649	1
H	1.243286	-0.358900	-2.103801	1
H	1.405676	-1.797850	-1.077881	1
H	2.678986	-0.585310	-1.090091	1
H	1.038596	2.001490	-0.886011	1
H	2.482346	1.509610	-0.008561	1
H	-0.141764	2.433030	1.257169	1
H	1.407666	3.275040	1.233029	1
H	1.238026	1.780039	2.167229	1
Es	2.335182	-0.624233	-1.100291	99
Es	1.123692	-0.296805	0.668512	99
Es	-2.939397	-2.232524	-0.025886	99
Es	1.247317	-0.355131	-0.567117	99
Es	-2.957694	-1.172187	0.566065	99
Es	0.941959	2.284264	1.241546	99
Es	-0.893271	-0.789697	-0.067755	99
Es	2.140240	1.500123	0.001883	99
Es	-1.168894	-1.503841	-0.051418	99
Es	-0.865584	0.271255	-0.711412	99
Es	0.134022	-0.025819	-0.034853	99
Es	1.592861	-0.721386	-1.131165	99
Es	-0.633134	-0.069755	-0.077700	99
Es	1.144578	1.935528	1.873449	99
Es	1.137012	0.764376	0.022410	99
Es	-1.935910	-1.510404	-0.042928	99
Es	1.142678	1.838702	-0.603419	99
Es	-0.931535	-1.882795	-0.655048	99
Es	-2.965250	-1.191093	-0.649288	99
Es	1.349968	-0.470285	-1.795180	99
Es	1.152346	1.885599	0.638070	99
Es	-0.940321	0.301833	0.500311	99
Es	-0.909047	-1.859993	0.560656	99
Es	-2.690468	-1.526172	-0.038401	99
Es	0.904830	0.024292	0.018475	99
Es	1.261233	2.960800	1.234630	99
Es	1.461483	-1.456389	-1.095078	99
Es	0.200686	2.382330	1.251867	99
Es	1.385455	1.491345	0.020953	99
52
Properties=species:S:1:pos:R:3:Z:I:1 energy=-274.49444095360866 field_type=dipole dipole="0.000000 0.000000 0.000000" charge=0
C	-2.690484	-1.526170	-0.038401	6
C	-1.168864	-1.503870	-0.051421	6
C	-0.633154	-0.069730	-0.077701	6
C	0.904836	0.024280	0.018519	6
C	1.592866	-0.721390	-1.131171	6
C	1.385476	1.491340	0.020919	6
C	0.941956	2.284270	1.241559	6
H	-3.054164	-2.558800	-0.019821	1
H	-3.096464	-1.039310	-0.930531	1
H	-3.084354	-1.011900	0.844099	1
H	-0.824534	-2.058720	-0.930051	1
H	-0.793394	-2.025660	0.836429	1
H	-1.081834	0.473560	0.761809	1
H	-0.975394	0.428390	-0.993971	1
H	1.224696	-0.443430	0.958649	1
H	1.243286	-0.358900	-2.103801	1
H	1.405676	-1.797850	-1.077881	1
H	2.678986	-0.585310	-1.090091	1
H	1.038596	2.001490	-0.886011	1
H	2.482346	1.509610	-0.008561	1
H	-0.141764	2.433030	1.257169	1
H	1.407666	3.275040	1.233029	1
H	1.238026	1.780039	2.167229	1
Es	-2.965261	-1.191089	-0.649280	99
Es	1.261278	2.960772	1.234715	99
Es	2.335134	-0.624265	-1.100305	99
Es	0.134160	-0.025918	-0.034610	99
Es	-2.690469	-1.526172	-0.038401	99
Es	-0.931565	-1.882811	-0.655001	99
Es	1.136976	0.764560	0.022559	99
Es	1.152326	1.885642	0.637993	99
Es	-2.957695	-1.172205	0.566035	99
Es	-1.168894	-1.503841	-0.051419	99
Es	1.144533	1.935472	1.873406	99
Es	-1.935859	-1.510405	-0.042941	99
Es	2.140220	1.500188	0.001858	99
Es	1.592861	-0.721386	-1.131165	99
Es	-0.893167	-0.789668	-0.067726	99
Es	-0.633135	-0.069755	-0.077700	99
Es	0.200690	2.382389	1.251876	99
Es	-0.909099	-1.860029	0.560636	99
Es	1.385450	1.491354	0.020965	99
Es	-0.940321	0.301825	0.500303	99
Es	1.247132	-0.355042	-0.567247	99
Es	0.941962	2.284263	1.241546	99
Es	0.904830	0.024291	0.018475	99
Es	-0.865609	0.271245	-0.711434	99
Es	1.349980	-0.470286	-1.795215	99
Es	-2.939429	-2.232494	-0.025878	99
Es	1.461526	-1.456365	-1.095089	99
Es	1.123756	-0.297015	0.668260	99
Es	1.142722	1.838684	-0.603325	99
52
Properties=species:S:1:pos:R:3:Z:I:1 energy=-274.49444095360866 field_type=dipole dipole="0.000000 0.000000 0.000000" charge=0
C	-2.690484	-1.526170	-0.038401	6
C	-1.168864	-1.503870	-0.051421	6
C	-0.633154	-0.069730	-0.077701	6
C	0.904836	0.024280	0.018519	6
C	1.592866	-0.721390	-1.131171	6
C	1.385476	1.491340	0.020919	6
C	0.941956	2.284270	1.241559	6
H	-3.054164	-2.558800	-0.019821	1
H	-3.096464	-1.039310	-0.930531	1
H	-3.084354	-1.011900	0.844099	1
H	-0.824534	-2.058720	-0.930051	1
H	-0.793394	-2.025660	0.836429	1
H	-1.081834	0.473560	0.761809	1
H	-0.975394	0.428390	-0.993971	1
H	1.224696	-0.443430	0.958649	1
H	1.243286	-0.358900	-2.103801	1
H	1.405676	-1.797850	-1.077881	1
H	2.678986	-0.585310	-1.090091	1
H	1.038596	2.001490	-0.886011	1
H	2.482346	1.509610	-0.008561	1
H	-0.141764	2.433030	1.257169	1
H	1.407666	3.275040	1.233029	1
H	1.238026	1.780039	2.167229	1
Es	-0.865581	0.271261	-0.711242	99
Es	1.142744	1.838669	-0.603348	99
Es	-0.940329	0.301829	0.500253	99
Es	1.461577	-1.456333	-1.095122	99
Es	-2.939471	-2.232475	-0.025921	99
Es	1.592861	-0.721387	-1.131166	99
Es	0.200762	2.382357	1.251914	99
Es	1.385455	1.491344	0.020952	99
Es	0.941962	2.284263	1.241545	99
Es	1.123918	-0.296972	0.668249	99
Es	-2.965261	-1.191092	-0.649210	99
Es	1.152334	1.885618	0.638023	99
Es	-0.909095	-1.860047	0.560567	99
Es	-2.957727	-1.172226	0.566016	99
Es	-0.893187	-0.789737	-0.067823	99
Es	-0.931567	-1.882788	-0.654924	99
Es	1.247103	-0.354875	-0.567199	99
Es	-0.633135	-0.069755	-0.077700	99
Es	1.261233	2.960819	1.234740	99
Es	0.134041	-0.025807	-0.034609	99
Es	-2.690469	-1.526173	-0.038401	99
Es	1.144494	1.935524	1.873404	99
Es	2.140163	1.500178	0.001822	99
Es	-1.168894	-1.503841	-0.051419	99
Es	0.904828	0.024292	0.018474	99
Es	1.137029	0.764331	0.022539	99
Es	2.335130	-0.624263	-1.100394	99
Es	1.349990	-0.470378	-1.795171	99
Es	-1.935877	-1.510400	-0.042960	99
52
Properties=species:S:1:pos:R:3:Z:I:1 energy=-274.49444095360866 field_type=dipole dipole="0.000000 0.000000 0.000000" charge=0
C	-2.690484	-1.526170	-0.038401	6
C	-1.168864	-1.503870	-0.051421	6
C	-0.633154	-0.069730	-0.077701	6
C	0.904836	0.024280	0.018519	6
C	1.592866	-0.721390	-1.131171	6
C	1.385476	1.491340	0.020919	6
C	0.941956	2.284270	1.241559	6
H	-3.054164	-2.558800	-0.019821	1
H	-3.096464	-1.039310	-0.930531	1
H	-3.084354	-1.011900	0.844099	1
H	-0.824534	-2.058720	-0.930051	1
H	-0.793394	-2.025660	0.836429	1
H	-1.081834	0.473560	0.761809	1
H	-0.975394	0.428390	-0.993971	1
H	1.224696	-0.443430	0.958649	1
H	1.243286	-0.358900	-2.103801	1
H	1.405676	-1.797850	-1.077881	1
H	2.678986	-0.585310	-1.090091	1
H	1.038596	2.001490	-0.886011	1
H	2.482346	1.509610	-0.008561	1
H	-0.141764	2.433030	1.257169	1
H	1.407666	3.275040	1.233029	1
H	1.238026	1.780039	2.167229	1
Es	-2.690469	-1.526172	-0.038400	99
Es	-0.633134	-0.069755	-0.077700	99
Es	1.592863	-0.721388	-1.131167	99
Es	1.137034	0.764329	0.022567	99
Es	1.350048	-0.470314	-1.795133	99
Es	-2.965289	-1.191133	-0.649179	99
Es	-0.909073	-1.860033	0.560521	99
Es	-2.939486	-2.232430	-0.025916	99
Es	1.123820	-0.296960	0.668272	99
Es	0.134057	-0.025746	-0.034649	99
Es	-1.935838	-1.510449	-0.042966	99
Es	-2.957753	-1.172229	0.566000	99
Es	0.904831	0.024292	0.018475	99
Es	1.247144	-0.354938	-0.567133	99
Es	1.385456	1.491344	0.020952	99
Es	0.200871	2.382291	1.251961	99
Es	-1.168893	-1.503841	-0.051416	99
Es	2.335110	-0.624278	-1.100374	99
Es	1.261072	2.960850	1.234744	99
Es	2.140138	1.500178	0.001830	99
Es	-0.940310	0.301803	0.500194	99
Es	1.152350	1.885621	0.637910	99
Es	1.142773	1.838657	-0.603355	99
Es	0.941959	2.284263	1.241548	99
Es	-0.893163	-0.789744	-0.067729	99
Es	1.144523	1.935585	1.873462	99
Es	-0.931549	-1.882767	-0.654905	99
Es	-0.865625	0.271259	-0.711302	99
Es	1.461566	-1.456357	-1.095220	99
