38
Properties=species:S:1:pos:R:3:Z:I:1 energy=-358.6520290437166 field_type=dipole dipole="0.000000 0.000000 0.000000" charge=0
O	-1.954196	-1.672297	0.827932	8
C	-0.851476	-1.582247	0.307152	6
N	-0.094367	-0.452317	0.274002	7
C	-0.517246	0.925352	0.540342	6
C	0.659274	1.366473	-0.354068	6
O	1.109023	2.430702	-0.723878	8
C	1.030904	-0.111097	-0.594398	6
H	-0.365057	-2.433078	-0.197838	1
H	-0.422147	1.210412	1.589422	1
H	-1.503646	1.171872	0.143292	1
H	0.910963	-0.445448	-1.626488	1
H	1.997974	-0.408327	-0.185468	1
Es	0.389073	-0.375154	-0.117239	99
Es	-0.329160	0.109662	0.411683	99
Es	1.108916	2.430427	-0.723778	99
Es	-0.047795	-0.669666	0.528635	99
Es	0.659251	1.366389	-0.354050	99
Es	0.949666	2.663426	-0.610528	99
Es	-1.468609	-1.704099	0.863554	99
Es	0.791551	2.035831	-0.793719	99
Es	-0.851346	-1.582117	0.307153	99
Es	1.678306	-0.303051	-0.321386	99
Es	-0.094678	-0.452336	0.273579	99
Es	-2.038562	-1.400361	0.952316	99
Es	1.030752	-0.111115	-0.594291	99
Es	0.946567	-0.330318	-1.285624	99
Es	-1.164780	1.091579	0.265986	99
Es	-1.953914	-1.672261	0.827787	99
Es	-0.445433	1.120643	1.234757	99
Es	-0.517154	0.925195	0.540280	99
Es	0.044833	1.220579	0.113573	99
Es	0.913265	0.632012	-0.525518	99
Es	1.099875	2.047905	-0.385392	99
Es	1.349396	2.390981	-0.904239	99
Es	-1.689230	-1.575230	0.434492	99
Es	-0.458217	-0.839481	0.137391	99
Es	-0.505651	-2.154525	-0.042467	99
Es	-2.068269	-1.955273	0.800698	99
38
Properties=species:S:1:pos:R:3:Z:I:1 energy=-358.6520290437166 field_type=dipole dipole="0.000000 0.000000 0.000000" charge=0
O	-1.954196	-1.672297	0.827932	8
C	-0.851476	-1.582247	0.307152	6
N	-0.094367	-0.452317	0.274002	7
C	-0.517246	0.925352	0.540342	6
C	0.659274	1.366473	-0.354068	6
O	1.109023	2.430702	-0.723878	8
C	1.030904	-0.111097	-0.594398	6
H	-0.365057	-2.433078	-0.197838	1
H	-0.422147	1.210412	1.589422	1
H	-1.503646	1.171872	0.143292	1
H	0.910963	-0.445448	-1.626488	1
H	1.997974	-0.408327	-0.185468	1
Es	-0.851356	-1.582119	0.307157	99
Es	0.946550	-0.330236	-1.285635	99
Es	-1.468219	-1.701806	0.864428	99
Es	-0.505636	-2.154530	-0.042393	99
Es	0.913343	0.631953	-0.525494	99
Es	1.350320	2.393514	-0.904920	99
Es	0.659254	1.366391	-0.354049	99
Es	0.388834	-0.375103	-0.117402	99
Es	-0.047563	-0.669806	0.528994	99
Es	-1.164735	1.091597	0.266119	99
Es	-0.094661	-0.452327	0.273596	99
Es	1.678335	-0.303036	-0.321440	99
Es	-0.445426	1.120630	1.234702	99
Es	-2.039260	-1.399168	0.949022	99
Es	0.792212	2.035668	-0.793726	99
Es	-2.067610	-1.955411	0.804166	99
Es	-0.517152	0.925187	0.540278	99
Es	1.030752	-0.111116	-0.594291	99
Es	1.108849	2.430393	-0.723738	99
Es	1.099897	2.047500	-0.386233	99
Es	0.948112	2.661491	-0.609026	99
Es	-1.953909	-1.672251	0.827799	99
Es	-1.689596	-1.578596	0.433380	99
Es	-0.458048	-0.839382	0.137346	99
Es	0.044776	1.220664	0.113503	99
Es	-0.329409	0.109537	0.411510	99
38
Properties=species:S:1:pos:R:3:Z:I:1 energy=-358.6520290437166 field_type=dipole dipole="0.000000 0.000000 0.000000" charge=0
O	-1.954196	-1.672297	0.827932	8
C	-0.851476	-1.582247	0.307152	6
N	-0.094367	-0.452317	0.274002	7
C	-0.517246	0.925352	0.540342	6
C	0.659274	1.366473	-0.354068	6
O	1.109023	2.430702	-0.723878	8
C	1.030904	-0.111097	-0.594398	6
H	-0.365057	-2.433078	-0.197838	1
H	-0.422147	1.210412	1.589422	1
H	-1.503646	1.171872	0.143292	1
H	0.910963	-0.445448	-1.626488	1
H	1.997974	-0.408327	-0.185468	1
Es	-1.953903	-1.672277	0.827790	99
Es	-1.689675	-1.576887	0.433697	99
Es	-0.445460	1.120696	1.234672	99
Es	-0.517152	0.925190	0.540278	99
Es	1.108860	2.430369	-0.723748	99
Es	0.044734	1.220671	0.113545	99
Es	-0.505653	-2.154557	-0.042412	99
Es	-1.164716	1.091583	0.266078	99
Es	-0.851344	-1.582117	0.307156	99
Es	1.350679	2.394870	-0.905873	99
Es	-0.049646	-0.673621	0.529783	99
Es	0.389745	-0.375259	-0.116497	99
Es	-1.468204	-1.703739	0.863946	99
Es	0.913350	0.631994	-0.525526	99
Es	-0.094572	-0.452311	0.273707	99
Es	0.948227	2.659410	-0.609757	99
Es	0.659249	1.366385	-0.354051	99
Es	-0.328556	0.109658	0.412766	99
Es	0.791422	2.035502	-0.793211	99
Es	1.100254	2.048391	-0.385053	99
Es	1.030752	-0.111116	-0.594291	99
Es	-0.457810	-0.835624	0.134365	99
Es	-2.037886	-1.399711	0.950649	99
Es	-2.068928	-1.954612	0.802737	99
Es	1.678298	-0.303019	-0.321489	99
Es	0.946588	-0.330227	-1.285610	99
38
Properties=species:S:1:pos:R:3:Z:I:1 energy=-358.6520290437166 field_type=dipole dipole="0.000000 0.000000 0.000000" charge=0
O	-1.954196	-1.672297	0.827932	8
C	-0.851476	-1.582247	0.307152	6
N	-0.094367	-0.452317	0.274002	7
C	-0.517246	0.925352	0.540342	6
C	0.659274	1.366473	-0.354068	6
O	1.109023	2.430702	-0.723878	8
C	1.030904	-0.111097	-0.594398	6
H	-0.365057	-2.433078	-0.197838	1
H	-0.422147	1.210412	1.589422	1
H	-1.503646	1.171872	0.143292	1
H	0.910963	-0.445448	-1.626488	1
H	1.997974	-0.408327	-0.185468	1
Es	-0.517153	0.925190	0.540278	99
Es	-1.953915	-1.672262	0.827800	99
Es	1.350025	2.389870	-0.904059	99
Es	-2.039657	-1.399058	0.948663	99
Es	0.946631	-0.330247	-1.285600	99
Es	1.678275	-0.302977	-0.321488	99
Es	1.108883	2.430372	-0.723758	99
Es	-0.851344	-1.582115	0.307150	99
Es	1.098500	2.047665	-0.385456	99
Es	0.913434	0.631957	-0.525552	99
Es	0.659251	1.366389	-0.354050	99
Es	0.790463	2.037031	-0.793819	99
Es	-1.687419	-1.578241	0.433731	99
Es	0.389618	-0.375374	-0.116755	99
Es	-0.457786	-0.837382	0.135901	99
Es	-0.445484	1.120693	1.234578	99
Es	1.030754	-0.111115	-0.594292	99
Es	-0.094675	-0.452335	0.273586	99
Es	0.044798	1.220679	0.113716	99
Es	-0.048961	-0.671691	0.529416	99
Es	-1.469308	-1.703111	0.866195	99
Es	-1.164726	1.091669	0.266021	99
Es	0.951465	2.663616	-0.610609	99
Es	-0.329102	0.109550	0.412001	99
Es	-2.068241	-1.954550	0.802529	99
Es	-0.505672	-2.154582	-0.042472	99
38
Properties=species:S:1:pos:R:3:Z:I:1 energy=-358.6520290437166 field_type=dipole dipole="0.000000 0.000000 0.000000" charge=0
O	-1.954196	-1.672297	0.827932	8
C	-0.851476	-1.582247	0.307152	6
N	-0.094367	-0.452317	0.274002	7
C	-0.517246	0.925352	0.540342	6
C	0.659274	1.366473	-0.354068	6
O	1.109023	2.430702	-0.723878	8
C	1.030904	-0.111097	-0.594398	6
H	-0.365057	-2.433078	-0.197838	1
H	-0.422147	1.210412	1.589422	1
H	-1.503646	1.171872	0.143292	1
H	0.910963	-0.445448	-1.626488	1
H	1.997974	-0.408327	-0.185468	1
Es	-0.445459	1.120713	1.234656	99
Es	1.678270	-0.303024	-0.321542	99
Es	-1.953862	-1.672250	0.827782	99
Es	1.108776	2.430369	-0.723685	99
Es	0.389945	-0.375434	-0.116446	99
Es	0.946621	-0.330196	-1.285573	99
Es	-0.457679	-0.836548	0.135222	99
Es	1.350270	2.392115	-0.904863	99
Es	-0.328998	0.109602	0.412230	99
Es	-0.851354	-1.582116	0.307151	99
Es	0.791009	2.036200	-0.793376	99
Es	0.659250	1.366388	-0.354049	99
Es	1.030753	-0.111115	-0.594291	99
Es	-1.689174	-1.574697	0.434435	99
Es	0.950015	2.661747	-0.610395	99
Es	-0.505649	-2.154620	-0.042446	99
Es	1.099318	2.048115	-0.385310	99
Es	-0.094564	-0.452276	0.273683	99
Es	-2.068078	-1.955049	0.800297	99
Es	-1.164649	1.091631	0.266105	99
Es	0.044667	1.220729	0.113582	99
Es	0.913473	0.631967	-0.525573	99
Es	-0.517153	0.925190	0.540279	99
Es	-1.468377	-1.703976	0.864242	99
Es	-0.049655	-0.672612	0.529405	99
Es	-2.039063	-1.401211	0.952135	99
38
Properties=species:S:1:pos:R:3:Z:I:1 energy=-358.6520290437166 field_type=dipole dipole="0.000000 0.000000 0.000000" charge=0
O	-1.954196	-1.672297	0.827932	8
C	-0.851476	-1.582247	0.307152	6
N	-0.094367	-0.452317	0.274002	7
C	-0.517246	0.925352	0.540342	6
C	0.659274	1.366473	-0.354068	6
O	1.109023	2.430702	-0.723878	8
C	1.030904	-0.111097	-0.594398	6
H	-0.365057	-2.433078	-0.197838	1
H	-0.422147	1.210412	1.589422	1
H	-1.503646	1.171872	0.143292	1
H	0.910963	-0.445448	-1.626488	1
H	1.997974	-0.408327	-0.185468	1
Es	-0.445538	1.120748	1.234562	99
Es	1.350087	2.393087	-0.904906	99
Es	0.950011	2.661332	-0.608665	99
Es	-0.094583	-0.452314	0.273692	99
Es	1.099530	2.046898	-0.386381	99
Es	-1.953930	-1.672258	0.827810	99
Es	0.389776	-0.375500	-0.116729	99
Es	-2.038383	-1.399801	0.950359	99
Es	-1.467115	-1.702686	0.863249	99
Es	0.659253	1.366389	-0.354044	99
Es	-0.328936	0.109683	0.412856	99
Es	-0.851342	-1.582112	0.307148	99
Es	-1.691175	-1.577659	0.433571	99
Es	0.913506	0.631977	-0.525636	99
Es	-1.164629	1.091674	0.266030	99
Es	-2.067984	-1.954721	0.803859	99
Es	-0.049451	-0.671840	0.528338	99
Es	-0.517152	0.925188	0.540278	99
Es	0.790819	2.036832	-0.793951	99
Es	-0.457789	-0.837391	0.136019	99
Es	1.108882	2.430390	-0.723775	99
Es	0.946640	-0.330190	-1.285501	99
Es	-0.505631	-2.154686	-0.042389	99
Es	0.044742	1.220738	0.113714	99
Es	1.030752	-0.111116	-0.594291	99
Es	1.678296	-0.303021	-0.321564	99
38
Properties=species:S:1:pos:R:3:Z:I:1 energy=-358.6520290437166 field_type=dipole dipole="0.000000 0.000000 0.000000" charge=0
O	-1.954196	-1.672297	0.827932	8
C	-0.851476	-1.582247	0.307152	6
N	-0.094367	-0.452317	0.274002	7
C	-0.517246	0.925352	0.540342	6
C	0.659274	1.366473	-0.354068	6
O	1.109023	2.430702	-0.723878	8
C	1.030904	-0.111097	-0.594398	6
H	-0.365057	-2.433078	-0.197838	1
H	-0.422147	1.210412	1.589422	1
H	-1.503646	1.171872	0.143292	1
H	0.910963	-0.445448	-1.626488	1
H	1.997974	-0.408327	-0.185468	1
Es	0.044690	1.220898	0.113667	99
Es	-0.048921	-0.670093	0.527898	99
Es	-1.468038	-1.703167	0.864607	99
Es	0.791719	2.035523	-0.793363	99
Es	0.949119	2.661713	-0.610649	99
Es	0.389782	-0.375689	-0.116756	99
Es	-0.505653	-2.154675	-0.042449	99
Es	-0.445524	1.120677	1.234431	99
Es	0.946705	-0.330163	-1.285435	99
Es	1.030753	-0.111115	-0.594292	99
Es	-0.094800	-0.452436	0.273501	99
Es	-1.953918	-1.672281	0.827792	99
Es	-1.164647	1.091699	0.266216	99
Es	1.678287	-0.302956	-0.321631	99
Es	0.659249	1.366387	-0.354051	99
Es	1.099408	2.048436	-0.385243	99
Es	1.350255	2.392436	-0.904566	99
Es	-0.517151	0.925188	0.540279	99
Es	-1.689537	-1.577072	0.433658	99
Es	-2.041145	-1.400297	0.951236	99
Es	0.913475	0.631995	-0.525724	99
Es	-0.851347	-1.582116	0.307151	99
Es	-2.065898	-1.954348	0.801604	99
Es	-0.457864	-0.838861	0.137263	99
Es	-0.329247	0.109546	0.412285	99
Es	1.108901	2.430413	-0.723775	99
38
Properties=species:S:1:pos:R:3:Z:I:1 energy=-358.6520290437166 field_type=dipole dipole="0.000000 0.000000 0.000000" charge=0
O	-1.954196	-1.672297	0.827932	8
C	-0.851476	-1.582247	0.307152	6
N	-0.094367	-0.452317	0.274002	7
C	-0.517246	0.925352	0.540342	6
C	0.659274	1.366473	-0.354068	6
O	1.109023	2.430702	-0.723878	8
C	1.030904	-0.111097	-0.594398	6
H	-0.365057	-2.433078	-0.197838	1
H	-0.422147	1.210412	1.589422	1
H	-1.503646	1.171872	0.143292	1
H	0.910963	-0.445448	-1.626488	1
H	1.997974	-0.408327	-0.185468	1
Es	-0.445484	1.120801	1.234504	99
Es	-0.329138	0.109594	0.412826	99
Es	0.389946	-0.375673	-0.116558	99
Es	0.948904	2.661948	-0.611139	99
Es	0.659253	1.366388	-0.354045	99
Es	-0.094609	-0.452317	0.273660	99
Es	1.678180	-0.302994	-0.321684	99
Es	-1.164547	1.091705	0.266182	99
Es	1.099873	2.048617	-0.384946	99
Es	-2.038566	-1.399655	0.949980	99
Es	-0.505651	-2.154710	-0.042394	99
Es	0.044573	1.220843	0.113609	99
Es	1.108889	2.430406	-0.723769	99
Es	-0.457499	-0.836812	0.135699	99
Es	-1.953897	-1.672257	0.827793	99
Es	0.792018	2.035185	-0.793167	99
Es	0.913571	0.632055	-0.525732	99
Es	-0.517153	0.925188	0.540279	99
Es	-1.468240	-1.703332	0.864467	99
Es	-2.068299	-1.954195	0.803418	99
Es	-1.689542	-1.577714	0.433229	99
Es	-0.049812	-0.672360	0.528567	99
Es	1.349726	2.392353	-0.904566	99
Es	-0.851346	-1.582115	0.307148	99
Es	0.946748	-0.330196	-1.285416	99
Es	1.030752	-0.111112	-0.594290	99
38
Properties=species:S:1:pos:R:3:Z:I:1 energy=-358.6520290437166 field_type=dipole dipole="0.000000 0.000000 0.000000" charge=0
O	-1.954196	-1.672297	0.827932	8
C	-0.851476	-1.582247	0.307152	6
N	-0.094367	-0.452317	0.274002	7
C	-0.517246	0.925352	0.540342	6
C	0.659274	1.366473	-0.354068	6
O	1.109023	2.430702	-0.723878	8
C	1.030904	-0.111097	-0.594398	6
H	-0.365057	-2.433078	-0.197838	1
H	-0.422147	1.210412	1.589422	1
H	-1.503646	1.171872	0.143292	1
H	0.910963	-0.445448	-1.626488	1
H	1.997974	-0.408327	-0.185468	1
Es	-1.953902	-1.672286	0.827791	99
Es	-0.049466	-0.670738	0.527707	99
Es	1.349811	2.392025	-0.904246	99
Es	-0.505641	-2.154747	-0.042452	99
Es	-1.689600	-1.576648	0.433558	99
Es	-0.851349	-1.582117	0.307149	99
Es	-0.329263	0.109630	0.412605	99
Es	0.389993	-0.375761	-0.116561	99
Es	-0.517150	0.925196	0.540278	99
Es	1.099327	2.047774	-0.385489	99
Es	0.913653	0.631992	-0.525665	99
Es	1.030753	-0.111115	-0.594292	99
Es	0.949867	2.662205	-0.610401	99
Es	0.659242	1.366377	-0.354053	99
Es	-2.067359	-1.954344	0.802160	99
Es	-1.164577	1.091701	0.266305	99
Es	-1.468049	-1.703308	0.864563	99
Es	1.108897	2.430407	-0.723774	99
Es	-0.445391	1.120796	1.234480	99
Es	-0.094725	-0.452380	0.273556	99
Es	0.044499	1.220886	0.113574	99
Es	1.678220	-0.303023	-0.321696	99
Es	0.791470	2.036086	-0.793729	99
Es	0.946697	-0.330117	-1.285459	99
Es	-0.457700	-0.838304	0.136900	99
Es	-2.039605	-1.400546	0.950843	99
38
Properties=species:S:1:pos:R:3:Z:I:1 energy=-358.6520290437166 field_type=dipole dipole="0.000000 0.000000 0.000000" charge=0
O	-1.954196	-1.672297	0.827932	8
C	-0.851476	-1.582247	0.307152	6
N	-0.094367	-0.452317	0.274002	7
C	-0.517246	0.925352	0.540342	6
C	0.659274	1.366473	-0.354068	6
O	1.109023	2.430702	-0.723878	8
C	1.030904	-0.111097	-0.594398	6
H	-0.365057	-2.433078	-0.197838	1
H	-0.422147	1.210412	1.589422	1
H	-1.503646	1.171872	0.143292	1
H	0.910963	-0.445448	-1.626488	1
H	1.997974	-0.408327	-0.185468	1
Es	-1.953863	-1.672270	0.827777	99
Es	-2.040705	-1.400727	0.950412	99
Es	0.390141	-0.375748	-0.116312	99
Es	-0.457359	-0.836322	0.135446	99
Es	-0.445495	1.120788	1.234404	99
Es	-0.050249	-0.672825	0.528659	99
Es	-0.851347	-1.582117	0.307152	99
Es	-0.094562	-0.452282	0.273691	99
Es	-0.505617	-2.154812	-0.042345	99
Es	1.030750	-0.111114	-0.594290	99
Es	0.946677	-0.330136	-1.285431	99
Es	0.044557	1.220903	0.113755	99
Es	0.659251	1.366389	-0.354050	99
Es	1.099800	2.048272	-0.385431	99
Es	-2.066007	-1.954624	0.803108	99
Es	1.108904	2.430423	-0.723784	99
Es	-1.467449	-1.701998	0.864378	99
Es	0.949863	2.662081	-0.610588	99
Es	1.349559	2.392009	-0.904707	99
Es	-0.517152	0.925192	0.540279	99
Es	0.913756	0.631998	-0.525753	99
Es	-1.164606	1.091739	0.266163	99
Es	1.678173	-0.303048	-0.321789	99
Es	0.791256	2.035697	-0.793088	99
Es	-1.690533	-1.577442	0.433176	99
Es	-0.329088	0.109615	0.412821	99
38
Properties=species:S:1:pos:R:3:Z:I:1 energy=-358.6520290437166 field_type=dipole dipole="0.000000 0.000000 0.000000" charge=0
O	-1.954196	-1.672297	0.827932	8
C	-0.851476	-1.582247	0.307152	6
N	-0.094367	-0.452317	0.274002	7
C	-0.517246	0.925352	0.540342	6
C	0.659274	1.366473	-0.354068	6
O	1.109023	2.430702	-0.723878	8
C	1.030904	-0.111097	-0.594398	6
H	-0.365057	-2.433078	-0.197838	1
H	-0.422147	1.210412	1.589422	1
H	-1.503646	1.171872	0.143292	1
H	0.910963	-0.445448	-1.626488	1
H	1.997974	-0.408327	-0.185468	1
Es	0.946777	-0.330199	-1.285434	99
Es	-0.049747	-0.670771	0.527525	99
Es	-0.329374	0.109649	0.412515	99
Es	0.791457	2.035420	-0.793165	99
Es	0.659251	1.366386	-0.354047	99
Es	-0.445523	1.120793	1.234431	99
Es	-1.690188	-1.577914	0.433032	99
Es	-1.164471	1.091766	0.266238	99
Es	0.390130	-0.375986	-0.116464	99
Es	-0.457565	-0.838260	0.137048	99
Es	0.913671	0.631980	-0.525802	99
Es	1.030753	-0.111116	-0.594295	99
Es	1.108902	2.430444	-0.723783	99
Es	0.950479	2.663655	-0.611959	99
Es	1.099546	2.048747	-0.384864	99
Es	0.044501	1.220971	0.113677	99
Es	-0.517153	0.925192	0.540279	99
Es	-0.851339	-1.582116	0.307159	99
Es	1.349019	2.390214	-0.903788	99
Es	-1.953884	-1.672264	0.827784	99
Es	-2.067811	-1.954021	0.803827	99
Es	-2.038915	-1.399925	0.949888	99
Es	-0.094628	-0.452316	0.273635	99
Es	1.678154	-0.302915	-0.321721	99
Es	-0.505662	-2.154774	-0.042424	99
Es	-1.467728	-1.703000	0.864362	99
38
Properties=species:S:1:pos:R:3:Z:I:1 energy=-358.6520290437166 field_type=dipole dipole="0.000000 0.000000 0.000000" charge=0
O	-1.954196	-1.672297	0.827932	8
C	-0.851476	-1.582247	0.307152	6
N	-0.094367	-0.452317	0.274002	7
C	-0.517246	0.925352	0.540342	6
C	0.659274	1.366473	-0.354068	6
O	1.109023	2.430702	-0.723878	8
C	1.030904	-0.111097	-0.594398	6
H	-0.365057	-2.433078	-0.197838	1
H	-0.422147	1.210412	1.589422	1
H	-1.503646	1.171872	0.143292	1
H	0.910963	-0.445448	-1.626488	1
H	1.997974	-0.408327	-0.185468	1
Es	0.390153	-0.375939	-0.116458	99
Es	-0.049976	-0.671045	0.527163	99
Es	0.791601	2.035744	-0.793138	99
Es	-2.068153	-1.953759	0.803299	99
Es	-1.164524	1.091739	0.266316	99
Es	0.946810	-0.330174	-1.285335	99
Es	1.099910	2.048041	-0.385300	99
Es	-0.445445	1.120874	1.234323	99
Es	0.913704	0.632005	-0.525901	99
Es	-0.517153	0.925194	0.540279	99
Es	1.678188	-0.302931	-0.321741	99
Es	-1.953880	-1.672304	0.827770	99
Es	0.949424	2.661488	-0.610523	99
Es	1.349536	2.392785	-0.904841	99
Es	-0.505633	-2.154812	-0.042451	99
Es	-1.689542	-1.577723	0.433233	99
Es	-0.329207	0.109617	0.413131	99
Es	0.044433	1.220980	0.113652	99
Es	1.030749	-0.111115	-0.594291	99
Es	1.108901	2.430411	-0.723780	99
Es	-0.851346	-1.582115	0.307148	99
Es	-0.457576	-0.838055	0.136883	99
Es	-1.468025	-1.703407	0.864832	99
Es	-0.094653	-0.452335	0.273615	99
Es	-2.038892	-1.399909	0.949816	99
Es	0.659249	1.366386	-0.354049	99
38
Properties=species:S:1:pos:R:3:Z:I:1 energy=-358.6520290437166 field_type=dipole dipole="0.000000 0.000000 0.000000" charge=0
O	-1.954196	-1.672297	0.827932	8
C	-0.851476	-1.582247	0.307152	6
N	-0.094367	-0.452317	0.274002	7
C	-0.517246	0.925352	0.540342	6
C	0.659274	1.366473	-0.354068	6
O	1.109023	2.430702	-0.723878	8
C	1.030904	-0.111097	-0.594398	6
H	-0.365057	-2.433078	-0.197838	1
H	-0.422147	1.210412	1.589422	1
H	-1.503646	1.171872	0.143292	1
H	0.910963	-0.445448	-1.626488	1
H	1.997974	-0.408327	-0.185468	1
Es	-0.329372	0.109613	0.412815	99
Es	-1.689490	-1.577697	0.433451	99
Es	0.946825	-0.330136	-1.285358	99
Es	1.349388	2.389329	-0.904072	99
Es	-0.505646	-2.154841	-0.042445	99
Es	-0.445574	1.120832	1.234388	99
Es	-0.050093	-0.671062	0.527332	99
Es	-2.039993	-1.399961	0.950303	99
Es	1.030753	-0.111114	-0.594293	99
Es	0.951766	2.663819	-0.612026	99
Es	-0.851349	-1.582116	0.307148	99
Es	-1.467965	-1.703446	0.864821	99
Es	1.678145	-0.302962	-0.321761	99
Es	-0.457461	-0.837950	0.136946	99
Es	-0.517152	0.925192	0.540279	99
Es	0.044479	1.221029	0.113752	99
Es	1.108869	2.430372	-0.723749	99
Es	0.659249	1.366384	-0.354047	99
Es	-2.067167	-1.953672	0.802619	99
Es	1.098909	2.049010	-0.385055	99
Es	-0.094623	-0.452316	0.273634	99
Es	-1.164424	1.091757	0.266232	99
Es	0.913756	0.632012	-0.525850	99
Es	-1.953864	-1.672318	0.827760	99
Es	0.790427	2.035929	-0.792687	99
Es	0.390260	-0.376045	-0.116484	99
38
Properties=species:S:1:pos:R:3:Z:I:1 energy=-358.6520290437166 field_type=dipole dipole="0.000000 0.000000 0.000000" charge=0
O	-1.954196	-1.672297	0.827932	8
C	-0.851476	-1.582247	0.307152	6
N	-0.094367	-0.452317	0.274002	7
C	-0.517246	0.925352	0.540342	6
C	0.659274	1.366473	-0.354068	6
O	1.109023	2.430702	-0.723878	8
C	1.030904	-0.111097	-0.594398	6
H	-0.365057	-2.433078	-0.197838	1
H	-0.422147	1.210412	1.589422	1
H	-1.503646	1.171872	0.143292	1
H	0.910963	-0.445448	-1.626488	1
H	1.997974	-0.408327	-0.185468	1
Es	-1.164387	1.091743	0.266248	99
Es	0.950611	2.662724	-0.611261	99
Es	-2.037597	-1.399097	0.948526	99
Es	0.390420	-0.376066	-0.116271	99
Es	1.678126	-0.302925	-0.321840	99
Es	0.913857	0.631975	-0.525763	99
Es	0.659249	1.366385	-0.354050	99
Es	0.791440	2.036339	-0.794021	99
Es	1.098374	2.047878	-0.385141	99
Es	-0.851344	-1.582117	0.307155	99
Es	-1.468918	-1.704606	0.866108	99
Es	-0.094685	-0.452346	0.273596	99
Es	-0.505643	-2.154851	-0.042470	99
Es	-0.457414	-0.837137	0.136273	99
Es	-0.445617	1.120859	1.234343	99
Es	0.946837	-0.330040	-1.285391	99
Es	-0.050485	-0.671895	0.527414	99
Es	-1.687906	-1.578291	0.433236	99
Es	-1.953902	-1.672261	0.827807	99
Es	-2.070134	-1.952851	0.803307	99
Es	0.044494	1.221072	0.113766	99
Es	1.349965	2.391097	-0.903431	99
Es	-0.329189	0.109564	0.413301	99
Es	1.030753	-0.111115	-0.594291	99
Es	1.108904	2.430411	-0.723777	99
Es	-0.517153	0.925192	0.540279	99
38
Properties=species:S:1:pos:R:3:Z:I:1 energy=-358.6520290437166 field_type=dipole dipole="0.000000 0.000000 0.000000" charge=0
O	-1.954196	-1.672297	0.827932	8
C	-0.851476	-1.582247	0.307152	6
N	-0.094367	-0.452317	0.274002	7
C	-0.517246	0.925352	0.540342	6
C	0.659274	1.366473	-0.354068	6
O	1.109023	2.430702	-0.723878	8
C	1.030904	-0.111097	-0.594398	6
H	-0.365057	-2.433078	-0.197838	1
H	-0.422147	1.210412	1.589422	1
H	-1.503646	1.171872	0.143292	1
H	0.910963	-0.445448	-1.626488	1
H	1.997974	-0.408327	-0.185468	1
Es	-0.445582	1.120904	1.234311	99
Es	0.913863	0.632030	-0.525843	99
Es	-2.067650	-1.953586	0.803176	99
Es	1.349736	2.391104	-0.904541	99
Es	-1.467740	-1.703312	0.864779	99
Es	1.108931	2.430476	-0.723799	99
Es	0.659249	1.366385	-0.354048	99
Es	-0.851344	-1.582118	0.307155	99
Es	-0.094667	-0.452356	0.273617	99
Es	-1.689882	-1.577512	0.433158	99
Es	-0.505651	-2.154903	-0.042428	99
Es	-0.517151	0.925193	0.540278	99
Es	-0.457240	-0.836880	0.136130	99
Es	0.790662	2.036219	-0.792914	99
Es	0.390577	-0.376100	-0.116144	99
Es	1.030752	-0.111114	-0.594291	99
Es	-1.953858	-1.672313	0.827758	99
Es	-1.164382	1.091741	0.266282	99
Es	1.099018	2.048530	-0.384862	99
Es	0.951008	2.662099	-0.611457	99
Es	1.678128	-0.303020	-0.321867	99
Es	0.946778	-0.330085	-1.285339	99
Es	-0.329326	0.109576	0.413006	99
Es	-0.050652	-0.672074	0.527737	99
Es	0.044410	1.221096	0.113728	99
Es	-2.039337	-1.400340	0.950073	99
