42
Properties=species:S:1:pos:R:3:Z:I:1 energy=-339.9776260781187 field_type=dipole dipole="0.000000 0.000000 0.000000" charge=0
O	-1.423666	-2.898073	0.876271	8
C	-1.921716	-1.823793	0.571221	6
N	-1.231446	-0.689163	0.247241	7
C	0.205524	-0.689773	0.108211	6
C	0.711464	0.712007	0.254151	6
C	1.671264	1.295267	-0.748739	6
N	0.279194	1.739037	-0.701359	7
H	-3.011186	-1.666283	0.533591	1
H	-1.729226	0.093297	-0.159719	1
H	0.438284	-1.110243	-0.876569	1
H	0.652934	-1.340633	0.866991	1
H	0.778114	1.021927	1.290441	1
H	1.950984	0.707167	-1.614019	1
H	2.418664	1.997387	-0.401949	1
H	0.210804	2.651867	-0.245769	1
Es	0.335817	1.299866	-0.222495	99
Es	2.178624	1.775111	-0.512510	99
Es	-1.641411	-3.103320	0.942527	99
Es	0.711434	0.712156	0.253953	99
Es	0.449993	0.018337	0.165196	99
Es	-1.527099	-0.236828	-0.004471	99
Es	-1.584421	-2.463280	1.011683	99
Es	0.253527	2.279913	-0.412988	99
Es	-1.231465	-0.689350	0.246984	99
Es	-1.483649	-1.169604	0.192698	99
Es	-1.423860	-2.897753	0.876169	99
Es	-1.357683	-0.768339	0.572711	99
Es	-0.624626	-0.695542	0.180896	99
Es	1.671017	1.295317	-0.748676	99
Es	0.371083	-0.968960	-0.565162	99
Es	-1.921652	-1.823639	0.571184	99
Es	0.759262	0.929735	0.958929	99
Es	1.860886	0.895365	-1.333684	99
Es	-2.668856	-1.704750	0.540897	99
Es	0.205329	-0.689718	0.108231	99
Es	0.279598	1.739101	-0.700913	99
Es	0.910131	1.646893	-0.816912	99
Es	0.049910	1.646639	-0.964269	99
Es	1.360270	0.867466	-0.165626	99
Es	-1.592463	-2.608613	0.534582	99
Es	-1.112419	-2.888001	0.867799	99
Es	0.506321	-1.111872	0.621802	99
42
Properties=species:S:1:pos:R:3:Z:I:1 energy=-339.9776260781187 field_type=dipole dipole="0.000000 0.000000 0.000000" charge=0
O	-1.423666	-2.898073	0.876271	8
C	-1.921716	-1.823793	0.571221	6
N	-1.231446	-0.689163	0.247241	7
C	0.205524	-0.689773	0.108211	6
C	0.711464	0.712007	0.254151	6
C	1.671264	1.295267	-0.748739	6
N	0.279194	1.739037	-0.701359	7
H	-3.011186	-1.666283	0.533591	1
H	-1.729226	0.093297	-0.159719	1
H	0.438284	-1.110243	-0.876569	1
H	0.652934	-1.340633	0.866991	1
H	0.778114	1.021927	1.290441	1
H	1.950984	0.707167	-1.614019	1
H	2.418664	1.997387	-0.401949	1
H	0.210804	2.651867	-0.245769	1
Es	-1.231490	-0.689417	0.246910	99
Es	-1.423773	-2.897798	0.876196	99
Es	-1.584146	-2.462994	1.012206	99
Es	2.178638	1.775027	-0.512576	99
Es	0.279607	1.739085	-0.700915	99
Es	-1.638725	-3.107043	0.944320	99
Es	0.050650	1.647088	-0.963813	99
Es	-1.526933	-0.236966	-0.004536	99
Es	-0.624561	-0.695637	0.180901	99
Es	-1.595121	-2.609253	0.536623	99
Es	1.360366	0.867317	-0.165381	99
Es	0.253217	2.279907	-0.413118	99
Es	-1.484313	-1.170202	0.193524	99
Es	0.205330	-0.689719	0.108234	99
Es	0.506361	-1.112023	0.621722	99
Es	-1.921652	-1.823640	0.571187	99
Es	0.759168	0.929705	0.958797	99
Es	-1.112800	-2.883848	0.863472	99
Es	0.450015	0.018395	0.165288	99
Es	-1.357231	-0.767469	0.571952	99
Es	-2.668884	-1.704748	0.540896	99
Es	0.910270	1.647217	-0.817463	99
Es	0.711431	0.712165	0.253948	99
Es	1.671017	1.295317	-0.748676	99
Es	0.335273	1.299331	-0.222489	99
Es	1.860879	0.895375	-1.333569	99
Es	0.371004	-0.968841	-0.565106	99
42
Properties=species:S:1:pos:R:3:Z:I:1 energy=-339.9776260781187 field_type=dipole dipole="0.000000 0.000000 0.000000" charge=0
O	-1.423666	-2.898073	0.876271	8
C	-1.921716	-1.823793	0.571221	6
N	-1.231446	-0.689163	0.247241	7
C	0.205524	-0.689773	0.108211	6
C	0.711464	0.712007	0.254151	6
C	1.671264	1.295267	-0.748739	6
N	0.279194	1.739037	-0.701359	7
H	-3.011186	-1.666283	0.533591	1
H	-1.729226	0.093297	-0.159719	1
H	0.438284	-1.110243	-0.876569	1
H	0.652934	-1.340633	0.866991	1
H	0.778114	1.021927	1.290441	1
H	1.950984	0.707167	-1.614019	1
H	2.418664	1.997387	-0.401949	1
H	0.210804	2.651867	-0.245769	1
Es	-1.423792	-2.897793	0.876190	99
Es	1.860883	0.895445	-1.333525	99
Es	1.671032	1.295313	-0.748681	99
Es	0.371017	-0.968907	-0.565111	99
Es	0.711428	0.712166	0.253947	99
Es	-0.624645	-0.695479	0.180656	99
Es	0.335026	1.299581	-0.222264	99
Es	-1.231477	-0.689382	0.246951	99
Es	0.205329	-0.689719	0.108234	99
Es	-1.638887	-3.106316	0.944121	99
Es	1.360490	0.867202	-0.165366	99
Es	2.178590	1.774932	-0.512629	99
Es	-1.921652	-1.823642	0.571185	99
Es	0.506343	-1.111965	0.621778	99
Es	-1.526970	-0.236932	-0.004246	99
Es	-2.668891	-1.704771	0.540880	99
Es	0.050853	1.646823	-0.963663	99
Es	0.449951	0.018366	0.165370	99
Es	-1.358503	-0.769432	0.574492	99
Es	-1.594050	-2.608879	0.534723	99
Es	-1.482927	-1.168436	0.190860	99
Es	0.252988	2.280052	-0.413517	99
Es	0.279628	1.739109	-0.700874	99
Es	0.759255	0.929717	0.958652	99
Es	-1.584333	-2.463500	1.012136	99
Es	-1.113486	-2.884434	0.865696	99
Es	0.910397	1.647210	-0.817462	99
42
Properties=species:S:1:pos:R:3:Z:I:1 energy=-339.9776260781187 field_type=dipole dipole="0.000000 0.000000 0.000000" charge=0
O	-1.423666	-2.898073	0.876271	8
C	-1.921716	-1.823793	0.571221	6
N	-1.231446	-0.689163	0.247241	7
C	0.205524	-0.689773	0.108211	6
C	0.711464	0.712007	0.254151	6
C	1.671264	1.295267	-0.748739	6
N	0.279194	1.739037	-0.701359	7
H	-3.011186	-1.666283	0.533591	1
H	-1.729226	0.093297	-0.159719	1
H	0.438284	-1.110243	-0.876569	1
H	0.652934	-1.340633	0.866991	1
H	0.778114	1.021927	1.290441	1
H	1.950984	0.707167	-1.614019	1
H	2.418664	1.997387	-0.401949	1
H	0.210804	2.651867	-0.245769	1
Es	0.252842	2.279977	-0.413427	99
Es	-1.423802	-2.897781	0.876188	99
Es	-1.585846	-2.463968	1.011680	99
Es	1.360610	0.867025	-0.165237	99
Es	0.279607	1.739084	-0.700912	99
Es	-1.526921	-0.236799	-0.003884	99
Es	0.371010	-0.968864	-0.565064	99
Es	0.205332	-0.689720	0.108234	99
Es	0.051312	1.647317	-0.963053	99
Es	0.334507	1.299094	-0.222364	99
Es	0.759196	0.929679	0.958607	99
Es	-2.668947	-1.704771	0.540914	99
Es	0.910515	1.647393	-0.818159	99
Es	0.711432	0.712160	0.253948	99
Es	1.860934	0.895613	-1.333478	99
Es	-1.594363	-2.609385	0.534665	99
Es	2.178517	1.774877	-0.512648	99
Es	-1.483192	-1.168961	0.190945	99
Es	0.450098	0.018387	0.165411	99
Es	-0.624519	-0.695183	0.181190	99
Es	-1.921652	-1.823640	0.571180	99
Es	1.671010	1.295319	-0.748674	99
Es	0.506349	-1.112001	0.621698	99
Es	-1.636948	-3.108394	0.944514	99
Es	-1.358441	-0.769451	0.573389	99
Es	-1.231459	-0.689309	0.247053	99
Es	-1.113584	-2.881369	0.865818	99
42
Properties=species:S:1:pos:R:3:Z:I:1 energy=-339.9776260781187 field_type=dipole dipole="0.000000 0.000000 0.000000" charge=0
O	-1.423666	-2.898073	0.876271	8
C	-1.921716	-1.823793	0.571221	6
N	-1.231446	-0.689163	0.247241	7
C	0.205524	-0.689773	0.108211	6
C	0.711464	0.712007	0.254151	6
C	1.671264	1.295267	-0.748739	6
N	0.279194	1.739037	-0.701359	7
H	-3.011186	-1.666283	0.533591	1
H	-1.729226	0.093297	-0.159719	1
H	0.438284	-1.110243	-0.876569	1
H	0.652934	-1.340633	0.866991	1
H	0.778114	1.021927	1.290441	1
H	1.950984	0.707167	-1.614019	1
H	2.418664	1.997387	-0.401949	1
H	0.210804	2.651867	-0.245769	1
Es	1.360797	0.867181	-0.165273	99
Es	0.252751	2.279998	-0.413920	99
Es	2.178539	1.774852	-0.512791	99
Es	0.051206	1.647002	-0.962720	99
Es	1.860886	0.895561	-1.333360	99
Es	0.450132	0.018388	0.165327	99
Es	-1.921652	-1.823644	0.571182	99
Es	-1.357605	-0.767578	0.573643	99
Es	0.711435	0.712160	0.253949	99
Es	-1.594166	-2.609368	0.534468	99
Es	-1.526964	-0.237546	-0.005008	99
Es	-1.584507	-2.463188	1.012120	99
Es	-1.483705	-1.169480	0.192849	99
Es	-0.624758	-0.695709	0.180202	99
Es	1.671015	1.295319	-0.748677	99
Es	0.371104	-0.968958	-0.565011	99
Es	-2.668914	-1.704735	0.540900	99
Es	0.759237	0.929566	0.958558	99
Es	-1.231499	-0.689426	0.246932	99
Es	0.279610	1.739084	-0.700912	99
Es	-1.113316	-2.885049	0.865929	99
Es	-1.638861	-3.105476	0.944166	99
Es	0.506309	-1.111886	0.621757	99
Es	0.205331	-0.689720	0.108234	99
Es	0.334637	1.299213	-0.221677	99
Es	-1.423762	-2.897833	0.876206	99
Es	0.910319	1.647600	-0.818536	99
42
Properties=species:S:1:pos:R:3:Z:I:1 energy=-339.9776260781187 field_type=dipole dipole="0.000000 0.000000 0.000000" charge=0
O	-1.423666	-2.898073	0.876271	8
C	-1.921716	-1.823793	0.571221	6
N	-1.231446	-0.689163	0.247241	7
C	0.205524	-0.689773	0.108211	6
C	0.711464	0.712007	0.254151	6
C	1.671264	1.295267	-0.748739	6
N	0.279194	1.739037	-0.701359	7
H	-3.011186	-1.666283	0.533591	1
H	-1.729226	0.093297	-0.159719	1
H	0.438284	-1.110243	-0.876569	1
H	0.652934	-1.340633	0.866991	1
H	0.778114	1.021927	1.290441	1
H	1.950984	0.707167	-1.614019	1
H	2.418664	1.997387	-0.401949	1
H	0.210804	2.651867	-0.245769	1
Es	0.051725	1.647259	-0.962272	99
Es	0.711443	0.712155	0.253954	99
Es	2.178430	1.774793	-0.512887	99
Es	-1.423789	-2.897780	0.876190	99
Es	0.279608	1.739087	-0.700913	99
Es	-1.921651	-1.823644	0.571181	99
Es	1.361263	0.866777	-0.165028	99
Es	-1.359664	-0.771328	0.576181	99
Es	-1.526904	-0.236774	-0.003703	99
Es	-2.668993	-1.704749	0.540988	99
Es	1.671022	1.295316	-0.748677	99
Es	0.371041	-0.968795	-0.565095	99
Es	1.860902	0.895715	-1.333362	99
Es	-1.481819	-1.166914	0.188463	99
Es	-1.585444	-2.462391	1.010976	99
Es	-1.231489	-0.689410	0.246928	99
Es	0.910212	1.647628	-0.818765	99
Es	0.252486	2.280089	-0.413852	99
Es	-1.113600	-2.883879	0.866804	99
Es	-1.638056	-3.105974	0.945013	99
Es	0.334323	1.299015	-0.222126	99
Es	0.759106	0.929603	0.958449	99
Es	0.450066	0.018471	0.165592	99
Es	0.506343	-1.112004	0.621613	99
Es	0.205329	-0.689719	0.108232	99
Es	-1.593666	-2.610872	0.533854	99
Es	-0.624628	-0.695348	0.180796	99
42
Properties=species:S:1:pos:R:3:Z:I:1 energy=-339.9776260781187 field_type=dipole dipole="0.000000 0.000000 0.000000" charge=0
O	-1.423666	-2.898073	0.876271	8
C	-1.921716	-1.823793	0.571221	6
N	-1.231446	-0.689163	0.247241	7
C	0.205524	-0.689773	0.108211	6
C	0.711464	0.712007	0.254151	6
C	1.671264	1.295267	-0.748739	6
N	0.279194	1.739037	-0.701359	7
H	-3.011186	-1.666283	0.533591	1
H	-1.729226	0.093297	-0.159719	1
H	0.438284	-1.110243	-0.876569	1
H	0.652934	-1.340633	0.866991	1
H	0.778114	1.021927	1.290441	1
H	1.950984	0.707167	-1.614019	1
H	2.418664	1.997387	-0.401949	1
H	0.210804	2.651867	-0.245769	1
Es	-1.483330	-1.168660	0.191623	99
Es	0.910488	1.647704	-0.818848	99
Es	2.178431	1.774773	-0.512988	99
Es	-1.526933	-0.237102	-0.004288	99
Es	-2.669032	-1.704785	0.540918	99
Es	0.205335	-0.689722	0.108234	99
Es	-1.423764	-2.897736	0.876176	99
Es	1.860880	0.895698	-1.333265	99
Es	-1.921651	-1.823643	0.571196	99
Es	0.450102	0.018452	0.165678	99
Es	0.333870	1.299104	-0.222001	99
Es	-0.624951	-0.695896	0.179716	99
Es	-1.357794	-0.768613	0.574635	99
Es	-1.584107	-2.463283	1.012720	99
Es	0.759154	0.929562	0.958315	99
Es	-1.113562	-2.885483	0.865402	99
Es	0.371084	-0.968755	-0.565005	99
Es	0.506288	-1.112060	0.621593	99
Es	0.711438	0.712160	0.253948	99
Es	0.252517	2.279831	-0.413963	99
Es	0.051814	1.647512	-0.962261	99
Es	0.279601	1.739088	-0.700920	99
Es	1.361328	0.866734	-0.164874	99
Es	-1.638770	-3.105449	0.943869	99
Es	1.671014	1.295316	-0.748674	99
Es	-1.594322	-2.608901	0.534716	99
Es	-1.231533	-0.689517	0.246884	99
42
Properties=species:S:1:pos:R:3:Z:I:1 energy=-339.9776260781187 field_type=dipole dipole="0.000000 0.000000 0.000000" charge=0
O	-1.423666	-2.898073	0.876271	8
C	-1.921716	-1.823793	0.571221	6
N	-1.231446	-0.689163	0.247241	7
C	0.205524	-0.689773	0.108211	6
C	0.711464	0.712007	0.254151	6
C	1.671264	1.295267	-0.748739	6
N	0.279194	1.739037	-0.701359	7
H	-3.011186	-1.666283	0.533591	1
H	-1.729226	0.093297	-0.159719	1
H	0.438284	-1.110243	-0.876569	1
H	0.652934	-1.340633	0.866991	1
H	0.778114	1.021927	1.290441	1
H	1.950984	0.707167	-1.614019	1
H	2.418664	1.997387	-0.401949	1
H	0.210804	2.651867	-0.245769	1
Es	0.711434	0.712167	0.253942	99
Es	0.371092	-0.968852	-0.565017	99
Es	0.759172	0.929503	0.958337	99
Es	-1.526811	-0.237028	-0.003878	99
Es	-1.231470	-0.689353	0.247001	99
Es	0.910493	1.647883	-0.819206	99
Es	0.052327	1.647535	-0.961794	99
Es	1.361410	0.866568	-0.164948	99
Es	-1.359799	-0.771269	0.576667	99
Es	1.671008	1.295314	-0.748669	99
Es	-2.669037	-1.704784	0.540995	99
Es	2.178350	1.774673	-0.512896	99
Es	-1.113591	-2.884513	0.866841	99
Es	-1.593487	-2.610140	0.534037	99
Es	0.205333	-0.689719	0.108234	99
Es	-1.481745	-1.166739	0.188258	99
Es	0.333551	1.298888	-0.221832	99
Es	-1.585443	-2.462756	1.011699	99
Es	0.450121	0.018505	0.165596	99
Es	0.506319	-1.111934	0.621613	99
Es	-1.921651	-1.823640	0.571188	99
Es	1.860969	0.895857	-1.333279	99
Es	0.252183	2.279940	-0.414260	99
Es	-0.624718	-0.695403	0.180548	99
Es	0.279598	1.739085	-0.700919	99
Es	-1.638252	-3.105692	0.944093	99
Es	-1.423757	-2.897765	0.876183	99
42
Properties=species:S:1:pos:R:3:Z:I:1 energy=-339.9776260781187 field_type=dipole dipole="0.000000 0.000000 0.000000" charge=0
O	-1.423666	-2.898073	0.876271	8
C	-1.921716	-1.823793	0.571221	6
N	-1.231446	-0.689163	0.247241	7
C	0.205524	-0.689773	0.108211	6
C	0.711464	0.712007	0.254151	6
C	1.671264	1.295267	-0.748739	6
N	0.279194	1.739037	-0.701359	7
H	-3.011186	-1.666283	0.533591	1
H	-1.729226	0.093297	-0.159719	1
H	0.438284	-1.110243	-0.876569	1
H	0.652934	-1.340633	0.866991	1
H	0.778114	1.021927	1.290441	1
H	1.950984	0.707167	-1.614019	1
H	2.418664	1.997387	-0.401949	1
H	0.210804	2.651867	-0.245769	1
Es	-1.526889	-0.237638	-0.004687	99
Es	-1.595349	-2.609982	0.534372	99
Es	-1.483081	-1.168937	0.191443	99
Es	0.506292	-1.111957	0.621650	99
Es	0.333130	1.298637	-0.221857	99
Es	2.178344	1.774610	-0.512961	99
Es	1.361504	0.866365	-0.164847	99
Es	-1.921652	-1.823640	0.571188	99
Es	0.371069	-0.968891	-0.564970	99
Es	0.279612	1.739081	-0.700908	99
Es	-1.358408	-0.768519	0.574054	99
Es	0.759163	0.929456	0.958289	99
Es	0.205333	-0.689719	0.108232	99
Es	-1.584327	-2.462992	1.012231	99
Es	-1.423796	-2.897779	0.876188	99
Es	-2.669073	-1.704737	0.540983	99
Es	-1.113781	-2.883873	0.864740	99
Es	0.252275	2.279929	-0.414239	99
Es	1.860950	0.895913	-1.333205	99
Es	-1.231555	-0.689531	0.246908	99
Es	0.711435	0.712163	0.253946	99
Es	1.671013	1.295317	-0.748673	99
Es	-0.624561	-0.695130	0.180863	99
Es	-1.637307	-3.106232	0.945329	99
Es	0.052629	1.647957	-0.961517	99
Es	0.450089	0.018574	0.165565	99
Es	0.910540	1.647886	-0.819583	99
42
Properties=species:S:1:pos:R:3:Z:I:1 energy=-339.9776260781187 field_type=dipole dipole="0.000000 0.000000 0.000000" charge=0
O	-1.423666	-2.898073	0.876271	8
C	-1.921716	-1.823793	0.571221	6
N	-1.231446	-0.689163	0.247241	7
C	0.205524	-0.689773	0.108211	6
C	0.711464	0.712007	0.254151	6
C	1.671264	1.295267	-0.748739	6
N	0.279194	1.739037	-0.701359	7
H	-3.011186	-1.666283	0.533591	1
H	-1.729226	0.093297	-0.159719	1
H	0.438284	-1.110243	-0.876569	1
H	0.652934	-1.340633	0.866991	1
H	0.778114	1.021927	1.290441	1
H	1.950984	0.707167	-1.614019	1
H	2.418664	1.997387	-0.401949	1
H	0.210804	2.651867	-0.245769	1
Es	1.671012	1.295314	-0.748671	99
Es	0.279609	1.739086	-0.700911	99
Es	0.371107	-0.968947	-0.564863	99
Es	-1.638655	-3.104771	0.945995	99
Es	-0.624623	-0.695561	0.180208	99
Es	-1.595047	-2.610667	0.534422	99
Es	2.178249	1.774557	-0.512982	99
Es	0.450049	0.018643	0.165537	99
Es	-1.583071	-2.461736	1.011750	99
Es	-1.358764	-0.769499	0.575242	99
Es	0.252080	2.279898	-0.414537	99
Es	0.332914	1.298608	-0.221582	99
Es	-1.231528	-0.689462	0.246964	99
Es	-2.669096	-1.704777	0.541019	99
Es	-1.482754	-1.167884	0.190386	99
Es	1.361763	0.866200	-0.164852	99
Es	0.052839	1.647909	-0.961163	99
Es	0.910559	1.648036	-0.819820	99
Es	-1.526883	-0.237426	-0.004319	99
Es	0.759156	0.929430	0.958183	99
Es	-1.921651	-1.823640	0.571192	99
Es	1.860977	0.896101	-1.333228	99
Es	0.205329	-0.689719	0.108233	99
Es	0.506322	-1.111877	0.621687	99
Es	-1.113980	-2.885830	0.864492	99
Es	0.711440	0.712165	0.253941	99
Es	-1.423757	-2.897824	0.876214	99
42
Properties=species:S:1:pos:R:3:Z:I:1 energy=-339.9776260781187 field_type=dipole dipole="0.000000 0.000000 0.000000" charge=0
O	-1.423666	-2.898073	0.876271	8
C	-1.921716	-1.823793	0.571221	6
N	-1.231446	-0.689163	0.247241	7
C	0.205524	-0.689773	0.108211	6
C	0.711464	0.712007	0.254151	6
C	1.671264	1.295267	-0.748739	6
N	0.279194	1.739037	-0.701359	7
H	-3.011186	-1.666283	0.533591	1
H	-1.729226	0.093297	-0.159719	1
H	0.438284	-1.110243	-0.876569	1
H	0.652934	-1.340633	0.866991	1
H	0.778114	1.021927	1.290441	1
H	1.950984	0.707167	-1.614019	1
H	2.418664	1.997387	-0.401949	1
H	0.210804	2.651867	-0.245769	1
Es	-1.231461	-0.689330	0.247012	99
Es	0.332722	1.298662	-0.221407	99
Es	-1.482565	-1.167670	0.190102	99
Es	-0.624739	-0.695619	0.180068	99
Es	0.371103	-0.968902	-0.564899	99
Es	-1.921652	-1.823642	0.571188	99
Es	-1.637311	-3.105990	0.944570	99
Es	0.506337	-1.111885	0.621629	99
Es	0.251999	2.279863	-0.414662	99
Es	-2.669080	-1.704809	0.541017	99
Es	-1.358910	-0.769684	0.575731	99
Es	0.759243	0.929411	0.958163	99
Es	0.711442	0.712162	0.253946	99
Es	2.178329	1.774509	-0.513045	99
Es	0.279596	1.739067	-0.700941	99
Es	0.052845	1.647863	-0.960891	99
Es	0.450143	0.018627	0.165626	99
Es	1.671010	1.295315	-0.748671	99
Es	-1.423787	-2.897784	0.876192	99
Es	1.361670	0.866332	-0.164901	99
Es	-1.595657	-2.609346	0.534941	99
Es	-1.526865	-0.237535	-0.004448	99
Es	-1.113525	-2.884360	0.864207	99
Es	0.205334	-0.689723	0.108232	99
Es	0.910715	1.648122	-0.820157	99
Es	1.860932	0.896006	-1.333085	99
Es	-1.584270	-2.463331	1.013019	99
42
Properties=species:S:1:pos:R:3:Z:I:1 energy=-339.9776260781187 field_type=dipole dipole="0.000000 0.000000 0.000000" charge=0
O	-1.423666	-2.898073	0.876271	8
C	-1.921716	-1.823793	0.571221	6
N	-1.231446	-0.689163	0.247241	7
C	0.205524	-0.689773	0.108211	6
C	0.711464	0.712007	0.254151	6
C	1.671264	1.295267	-0.748739	6
N	0.279194	1.739037	-0.701359	7
H	-3.011186	-1.666283	0.533591	1
H	-1.729226	0.093297	-0.159719	1
H	0.438284	-1.110243	-0.876569	1
H	0.652934	-1.340633	0.866991	1
H	0.778114	1.021927	1.290441	1
H	1.950984	0.707167	-1.614019	1
H	2.418664	1.997387	-0.401949	1
H	0.210804	2.651867	-0.245769	1
Es	-1.482104	-1.166980	0.189018	99
Es	0.711435	0.712164	0.253946	99
Es	-1.231516	-0.689463	0.246898	99
Es	1.361988	0.866038	-0.164520	99
Es	-1.586768	-2.462111	1.011282	99
Es	-1.423786	-2.897760	0.876183	99
Es	-0.624757	-0.695561	0.180009	99
Es	0.251719	2.279742	-0.414557	99
Es	-1.359355	-0.770487	0.576607	99
Es	0.279582	1.739103	-0.700920	99
Es	0.332866	1.298653	-0.221755	99
Es	2.178189	1.774481	-0.513152	99
Es	0.205333	-0.689720	0.108233	99
Es	0.910667	1.648399	-0.820319	99
Es	-1.113343	-2.883867	0.867394	99
Es	-1.593095	-2.611270	0.534160	99
Es	0.759123	0.929410	0.958038	99
Es	0.506306	-1.111897	0.621642	99
Es	0.371135	-0.968886	-0.564891	99
Es	1.671013	1.295315	-0.748671	99
Es	-1.921652	-1.823638	0.571183	99
Es	0.450064	0.018651	0.165709	99
Es	1.860981	0.896072	-1.333071	99
Es	-1.637501	-3.105808	0.943833	99
Es	-2.669134	-1.704803	0.541067	99
Es	0.053019	1.647905	-0.960731	99
Es	-1.526811	-0.237352	-0.004078	99
