35
Properties=species:S:1:pos:R:3:Z:I:1 energy=-357.37535544583045 field_type=dipole dipole="0.000000 0.000000 0.000000" charge=0
O	-2.640136	0.588987	1.193904	8
C	-2.195556	1.294557	0.301334	6
O	-1.007236	1.186067	-0.369326	8
N	-0.280766	0.079987	0.110314	7
C	0.828704	0.001507	-0.530866	6
C	1.634314	-1.105413	-0.102716	6
C	2.311354	-2.031543	0.252844	6
H	-2.729186	2.167377	-0.106026	1
H	1.177604	0.675717	-1.327816	1
H	2.900904	-2.857243	0.578354	1
Es	-2.588313	0.684779	0.704652	99
Es	1.933504	-1.436336	0.399412	99
Es	1.251905	-0.560402	-0.322049	99
Es	0.828789	0.001409	-0.530835	99
Es	1.713534	-1.765410	-0.060409	99
Es	-0.871629	1.431284	-0.291695	99
Es	-2.640012	0.589170	1.193668	99
Es	-2.545725	1.885747	0.018335	99
Es	-1.007381	1.185836	-0.369031	99
Es	-2.364467	0.982565	1.051721	99
Es	2.243341	-1.452325	-0.139856	99
Es	-0.430880	-0.116906	0.373626	99
Es	0.092890	-0.121826	-0.374589	99
Es	-1.444266	1.194495	-0.091278	99
Es	2.311482	-2.031723	0.252918	99
Es	2.694174	-2.566118	0.462827	99
Es	-0.702189	0.716534	-0.162073	99
Es	-1.103511	1.124077	-0.634889	99
Es	-2.908887	0.704729	1.267875	99
Es	0.343400	0.212524	0.017959	99
Es	-2.195293	1.294521	0.301207	99
Es	-0.280508	0.080378	0.109817	99
Es	1.059788	0.441265	-1.052990	99
Es	-2.460830	0.362229	1.272834	99
Es	1.634159	-1.105186	-0.102811	99
35
Properties=species:S:1:pos:R:3:Z:I:1 energy=-357.37535544583045 field_type=dipole dipole="0.000000 0.000000 0.000000" charge=0
O	-2.640136	0.588987	1.193904	8
C	-2.195556	1.294557	0.301334	6
O	-1.007236	1.186067	-0.369326	8
N	-0.280766	0.079987	0.110314	7
C	0.828704	0.001507	-0.530866	6
C	1.634314	-1.105413	-0.102716	6
C	2.311354	-2.031543	0.252844	6
H	-2.729186	2.167377	-0.106026	1
H	1.177604	0.675717	-1.327816	1
H	2.900904	-2.857243	0.578354	1
Es	0.092577	-0.122344	-0.374368	99
Es	-0.702369	0.716047	-0.162446	99
Es	-2.640058	0.589118	1.193723	99
Es	-1.007385	1.185819	-0.369022	99
Es	0.828782	0.001410	-0.530829	99
Es	1.250776	-0.561110	-0.321678	99
Es	-2.909698	0.701165	1.269908	99
Es	-2.545753	1.885717	0.018287	99
Es	-0.872198	1.430356	-0.290601	99
Es	1.059805	0.441301	-1.052983	99
Es	1.634139	-1.105206	-0.102828	99
Es	2.196205	-1.317548	0.192973	99
Es	2.311482	-2.031715	0.252907	99
Es	2.694792	-2.565882	0.462377	99
Es	0.343070	0.212265	0.017972	99
Es	-0.430433	-0.116719	0.373694	99
Es	-1.444406	1.194594	-0.091331	99
Es	1.706033	-1.677160	0.277904	99
Es	-0.280522	0.080402	0.109804	99
Es	-2.195292	1.294521	0.301207	99
Es	-2.457603	0.364523	1.271032	99
Es	-1.102863	1.125509	-0.635400	99
Es	1.989117	-1.658445	-0.272088	99
Es	-2.588446	0.684782	0.704272	99
Es	-2.366680	0.983908	1.051860	99
35
Properties=species:S:1:pos:R:3:Z:I:1 energy=-357.37535544583045 field_type=dipole dipole="0.000000 0.000000 0.000000" charge=0
O	-2.640136	0.588987	1.193904	8
C	-2.195556	1.294557	0.301334	6
O	-1.007236	1.186067	-0.369326	8
N	-0.280766	0.079987	0.110314	7
C	0.828704	0.001507	-0.530866	6
C	1.634314	-1.105413	-0.102716	6
C	2.311354	-2.031543	0.252844	6
H	-2.729186	2.167377	-0.106026	1
H	1.177604	0.675717	-1.327816	1
H	2.900904	-2.857243	0.578354	1
Es	-1.007411	1.185777	-0.369002	99
Es	-2.639992	0.589187	1.193638	99
Es	-2.545790	1.885707	0.018288	99
Es	1.682659	-1.763308	0.031434	99
Es	2.009137	-1.381535	0.372544	99
Es	-0.875100	1.428112	-0.283154	99
Es	-1.446436	1.192207	-0.094492	99
Es	-2.459497	0.363394	1.271210	99
Es	0.828782	0.001401	-0.530843	99
Es	2.198764	-1.508932	-0.204409	99
Es	0.092871	-0.122001	-0.374473	99
Es	1.251643	-0.560741	-0.322487	99
Es	-2.364741	0.983154	1.051515	99
Es	-2.909533	0.702973	1.269484	99
Es	-2.195299	1.294516	0.301201	99
Es	-2.588695	0.684787	0.704969	99
Es	-0.430438	-0.116892	0.373385	99
Es	-0.702881	0.715431	-0.162945	99
Es	1.059737	0.441295	-1.053008	99
Es	2.311478	-2.031716	0.252913	99
Es	2.694410	-2.565906	0.462802	99
Es	-1.097510	1.130866	-0.639205	99
Es	-0.280533	0.080413	0.109801	99
Es	1.634155	-1.105184	-0.102810	99
Es	0.343291	0.212302	0.017991	99
35
Properties=species:S:1:pos:R:3:Z:I:1 energy=-357.37535544583045 field_type=dipole dipole="0.000000 0.000000 0.000000" charge=0
O	-2.640136	0.588987	1.193904	8
C	-2.195556	1.294557	0.301334	6
O	-1.007236	1.186067	-0.369326	8
N	-0.280766	0.079987	0.110314	7
C	0.828704	0.001507	-0.530866	6
C	1.634314	-1.105413	-0.102716	6
C	2.311354	-2.031543	0.252844	6
H	-2.729186	2.167377	-0.106026	1
H	1.177604	0.675717	-1.327816	1
H	2.900904	-2.857243	0.578354	1
Es	1.059795	0.441341	-1.053056	99
Es	1.634157	-1.105182	-0.102811	99
Es	0.092617	-0.122318	-0.374165	99
Es	1.251110	-0.560693	-0.321117	99
Es	-2.195298	1.294518	0.301202	99
Es	0.343008	0.212009	0.018094	99
Es	2.239865	-1.330518	0.107594	99
Es	-2.460339	0.362364	1.271349	99
Es	-2.640002	0.589162	1.193667	99
Es	-1.104326	1.123914	-0.633046	99
Es	2.311483	-2.031714	0.252909	99
Es	-0.280530	0.080409	0.109804	99
Es	2.694815	-2.565935	0.462158	99
Es	1.746895	-1.623275	0.339659	99
Es	-2.908321	0.703589	1.269193	99
Es	-2.545803	1.885722	0.018303	99
Es	-1.007375	1.185844	-0.369053	99
Es	-0.701904	0.716136	-0.162025	99
Es	-2.589347	0.685472	0.704519	99
Es	-2.364429	0.982908	1.052111	99
Es	-0.430163	-0.116659	0.373504	99
Es	0.828786	0.001408	-0.530836	99
Es	-1.444136	1.195234	-0.091040	99
Es	1.904193	-1.699761	-0.248933	99
Es	-0.871681	1.431334	-0.293637	99
35
Properties=species:S:1:pos:R:3:Z:I:1 energy=-357.37535544583045 field_type=dipole dipole="0.000000 0.000000 0.000000" charge=0
O	-2.640136	0.588987	1.193904	8
C	-2.195556	1.294557	0.301334	6
O	-1.007236	1.186067	-0.369326	8
N	-0.280766	0.079987	0.110314	7
C	0.828704	0.001507	-0.530866	6
C	1.634314	-1.105413	-0.102716	6
C	2.311354	-2.031543	0.252844	6
H	-2.729186	2.167377	-0.106026	1
H	1.177604	0.675717	-1.327816	1
H	2.900904	-2.857243	0.578354	1
Es	0.343170	0.212128	0.017974	99
Es	2.311480	-2.031714	0.252910	99
Es	-2.195301	1.294513	0.301200	99
Es	-0.873042	1.430212	-0.290873	99
Es	0.828784	0.001407	-0.530835	99
Es	1.251627	-0.560781	-0.322489	99
Es	0.092878	-0.122072	-0.374273	99
Es	1.059736	0.441332	-1.053028	99
Es	-2.587334	0.683734	0.704310	99
Es	-0.430161	-0.116853	0.373189	99
Es	1.681137	-1.762049	0.040446	99
Es	-1.445053	1.194344	-0.092021	99
Es	2.694529	-2.565798	0.462748	99
Es	-0.701913	0.716090	-0.162232	99
Es	-2.640017	0.589153	1.193683	99
Es	2.193819	-1.514254	-0.209960	99
Es	-0.280524	0.080401	0.109803	99
Es	-1.102193	1.126008	-0.634588	99
Es	-2.545848	1.885725	0.018295	99
Es	-2.908665	0.705744	1.266328	99
Es	-2.462629	0.362438	1.274396	99
Es	-1.007365	1.185876	-0.369061	99
Es	2.015556	-1.377502	0.369115	99
Es	-2.363761	0.982412	1.052124	99
Es	1.634160	-1.105185	-0.102813	99
35
Properties=species:S:1:pos:R:3:Z:I:1 energy=-357.37535544583045 field_type=dipole dipole="0.000000 0.000000 0.000000" charge=0
O	-2.640136	0.588987	1.193904	8
C	-2.195556	1.294557	0.301334	6
O	-1.007236	1.186067	-0.369326	8
N	-0.280766	0.079987	0.110314	7
C	0.828704	0.001507	-0.530866	6
C	1.634314	-1.105413	-0.102716	6
C	2.311354	-2.031543	0.252844	6
H	-2.729186	2.167377	-0.106026	1
H	1.177604	0.675717	-1.327816	1
H	2.900904	-2.857243	0.578354	1
Es	1.634167	-1.105190	-0.102826	99
Es	-2.195301	1.294515	0.301206	99
Es	-0.701970	0.715591	-0.162547	99
Es	-2.460755	0.363221	1.272694	99
Es	1.059766	0.441439	-1.053018	99
Es	-2.587606	0.684492	0.704314	99
Es	1.251789	-0.560293	-0.321493	99
Es	1.857934	-1.503123	0.401848	99
Es	1.767607	-1.752957	-0.146515	99
Es	-1.007387	1.185827	-0.369048	99
Es	-1.445872	1.193282	-0.093470	99
Es	-1.099728	1.128946	-0.636394	99
Es	2.264906	-1.398005	-0.056697	99
Es	2.311485	-2.031713	0.252904	99
Es	-0.429914	-0.116661	0.373137	99
Es	-0.874735	1.428936	-0.287291	99
Es	2.694377	-2.566065	0.462349	99
Es	0.343188	0.212009	0.018123	99
Es	-2.364918	0.983173	1.052451	99
Es	-2.545879	1.885703	0.018278	99
Es	0.092764	-0.122243	-0.374038	99
Es	-2.639977	0.589175	1.193641	99
Es	0.828793	0.001413	-0.530830	99
Es	-2.909132	0.703427	1.267762	99
Es	-0.280531	0.080407	0.109806	99
35
Properties=species:S:1:pos:R:3:Z:I:1 energy=-357.37535544583045 field_type=dipole dipole="0.000000 0.000000 0.000000" charge=0
O	-2.640136	0.588987	1.193904	8
C	-2.195556	1.294557	0.301334	6
O	-1.007236	1.186067	-0.369326	8
N	-0.280766	0.079987	0.110314	7
C	0.828704	0.001507	-0.530866	6
C	1.634314	-1.105413	-0.102716	6
C	2.311354	-2.031543	0.252844	6
H	-2.729186	2.167377	-0.106026	1
H	1.177604	0.675717	-1.327816	1
H	2.900904	-2.857243	0.578354	1
Es	-1.445653	1.193712	-0.093127	99
Es	-0.874665	1.428891	-0.288151	99
Es	0.828783	0.001402	-0.530842	99
Es	-2.461644	0.362343	1.273463	99
Es	-2.195299	1.294514	0.301203	99
Es	1.634163	-1.105186	-0.102815	99
Es	-2.639995	0.589225	1.193609	99
Es	-2.589244	0.684170	0.704384	99
Es	0.343121	0.211927	0.018141	99
Es	0.092861	-0.122115	-0.374165	99
Es	1.059788	0.441361	-1.053074	99
Es	2.016972	-1.376632	0.368158	99
Es	-2.363905	0.982611	1.051376	99
Es	2.311481	-2.031713	0.252912	99
Es	1.680460	-1.762500	0.041186	99
Es	-2.907593	0.705086	1.267983	99
Es	2.694468	-2.565783	0.462780	99
Es	-2.545896	1.885754	0.018337	99
Es	1.251451	-0.560902	-0.322428	99
Es	-1.100243	1.128609	-0.635941	99
Es	-0.280518	0.080395	0.109807	99
Es	-0.429881	-0.116708	0.372928	99
Es	-0.701839	0.715593	-0.162449	99
Es	-1.007387	1.185829	-0.369057	99
Es	2.193286	-1.514576	-0.209872	99
35
Properties=species:S:1:pos:R:3:Z:I:1 energy=-357.37535544583045 field_type=dipole dipole="0.000000 0.000000 0.000000" charge=0
O	-2.640136	0.588987	1.193904	8
C	-2.195556	1.294557	0.301334	6
O	-1.007236	1.186067	-0.369326	8
N	-0.280766	0.079987	0.110314	7
C	0.828704	0.001507	-0.530866	6
C	1.634314	-1.105413	-0.102716	6
C	2.311354	-2.031543	0.252844	6
H	-2.729186	2.167377	-0.106026	1
H	1.177604	0.675717	-1.327816	1
H	2.900904	-2.857243	0.578354	1
Es	2.695026	-2.565741	0.462162	99
Es	-1.447464	1.191402	-0.095973	99
Es	1.059825	0.441395	-1.053063	99
Es	-0.429693	-0.116579	0.372828	99
Es	-2.639942	0.589155	1.193636	99
Es	1.715320	-1.664096	0.295737	99
Es	-1.094966	1.134163	-0.640061	99
Es	0.342944	0.211734	0.018425	99
Es	1.965751	-1.670298	-0.268291	99
Es	0.092593	-0.122470	-0.373842	99
Es	2.210117	-1.318784	0.170868	99
Es	1.250759	-0.561122	-0.321243	99
Es	2.311481	-2.031712	0.252915	99
Es	-0.878061	1.426132	-0.280628	99
Es	-2.545927	1.885733	0.018303	99
Es	0.828787	0.001409	-0.530836	99
Es	-1.007356	1.185872	-0.369073	99
Es	-2.909118	0.703633	1.266765	99
Es	-0.280515	0.080385	0.109814	99
Es	-2.586989	0.684383	0.704297	99
Es	1.634155	-1.105192	-0.102805	99
Es	-2.364845	0.983223	1.052835	99
Es	-0.702038	0.715119	-0.162938	99
Es	-2.461475	0.363047	1.273314	99
Es	-2.195297	1.294516	0.301201	99
