38
Properties=species:S:1:pos:R:3:Z:I:1 energy=-358.58724139639116 field_type=dipole dipole="0.000000 0.000000 0.000000" charge=0
O	-2.936918	0.121550	0.179892	8
N	-1.639558	0.645200	0.129242	7
C	-0.798798	-0.333080	0.014642	6
C	0.665752	-0.132880	-0.054678	6
C	1.459452	-1.214690	-0.073298	6
C	1.262982	1.224910	-0.094238	6
O	2.470062	1.429440	-0.171418	8
H	-3.484398	0.919540	0.307852	1
H	-1.149888	-1.381060	-0.030578	1
H	1.068232	-2.225130	-0.038148	1
H	2.540382	-1.111850	-0.115488	1
H	0.542702	2.058050	-0.053778	1
Es	-2.936858	0.121863	0.179929	99
Es	2.173268	-1.157720	-0.100996	99
Es	-1.639690	0.644577	0.129210	99
Es	-2.938155	-0.049548	0.435838	99
Es	0.943182	0.537092	-0.073246	99
Es	2.638720	1.163401	-0.179309	99
Es	2.469752	1.429377	-0.171398	99
Es	-2.979435	0.008318	-0.100699	99
Es	2.013254	1.345736	-0.394300	99
Es	1.459482	-1.214767	-0.073293	99
Es	0.665642	-0.132794	-0.054673	99
Es	-0.798727	-0.333060	0.014621	99
Es	2.044498	1.350295	0.107676	99
Es	-1.596479	1.021833	0.150386	99
Es	0.768385	1.781777	-0.066346	99
Es	1.262968	1.224834	-0.094232	99
Es	1.028944	-0.612921	0.250268	99
Es	-2.366484	0.351516	0.158211	99
Es	1.191730	-1.893268	-0.050388	99
Es	-1.271742	0.231943	-0.211870	99
Es	-1.026511	-1.036216	-0.015368	99
Es	-0.073521	-0.208011	-0.021819	99
Es	2.538107	1.732517	-0.177897	99
Es	1.005898	-0.623411	-0.377705	99
Es	-3.224057	0.551190	0.247515	99
Es	-1.233680	0.195316	0.366472	99
38
Properties=species:S:1:pos:R:3:Z:I:1 energy=-358.58724139639116 field_type=dipole dipole="0.000000 0.000000 0.000000" charge=0
O	-2.936918	0.121550	0.179892	8
N	-1.639558	0.645200	0.129242	7
C	-0.798798	-0.333080	0.014642	6
C	0.665752	-0.132880	-0.054678	6
C	1.459452	-1.214690	-0.073298	6
C	1.262982	1.224910	-0.094238	6
O	2.470062	1.429440	-0.171418	8
H	-3.484398	0.919540	0.307852	1
H	-1.149888	-1.381060	-0.030578	1
H	1.068232	-2.225130	-0.038148	1
H	2.540382	-1.111850	-0.115488	1
H	0.542702	2.058050	-0.053778	1
Es	2.173297	-1.157777	-0.101001	99
Es	-0.798727	-0.333061	0.014634	99
Es	0.665642	-0.132796	-0.054673	99
Es	-2.938286	-0.049445	0.434652	99
Es	2.044431	1.350207	0.107648	99
Es	-2.979459	0.008249	-0.100428	99
Es	0.943117	0.537074	-0.073163	99
Es	-1.271681	0.232125	-0.211657	99
Es	-2.936780	0.121938	0.180113	99
Es	0.768397	1.781819	-0.066378	99
Es	1.005882	-0.623181	-0.377713	99
Es	2.469737	1.429417	-0.171397	99
Es	1.191582	-1.893275	-0.050444	99
Es	-0.073511	-0.207899	-0.021700	99
Es	2.012757	1.348766	-0.394309	99
Es	1.262967	1.224833	-0.094238	99
Es	-2.366103	0.351313	0.158464	99
Es	-1.026434	-1.036287	-0.015359	99
Es	-1.596354	1.021969	0.150498	99
Es	-1.233847	0.195119	0.366086	99
Es	2.634499	1.161228	-0.180720	99
Es	-1.639680	0.644586	0.129210	99
Es	2.542881	1.731697	-0.176406	99
Es	-3.224447	0.551111	0.247944	99
Es	1.029128	-0.613093	0.250222	99
Es	1.459482	-1.214767	-0.073297	99
38
Properties=species:S:1:pos:R:3:Z:I:1 energy=-358.58724139639116 field_type=dipole dipole="0.000000 0.000000 0.000000" charge=0
O	-2.936918	0.121550	0.179892	8
N	-1.639558	0.645200	0.129242	7
C	-0.798798	-0.333080	0.014642	6
C	0.665752	-0.132880	-0.054678	6
C	1.459452	-1.214690	-0.073298	6
C	1.262982	1.224910	-0.094238	6
O	2.470062	1.429440	-0.171418	8
H	-3.484398	0.919540	0.307852	1
H	-1.149888	-1.381060	-0.030578	1
H	1.068232	-2.225130	-0.038148	1
H	2.540382	-1.111850	-0.115488	1
H	0.542702	2.058050	-0.053778	1
Es	2.636934	1.162612	-0.180884	99
Es	-2.936844	0.121872	0.179950	99
Es	1.028939	-0.612937	0.250300	99
Es	2.013516	1.348167	-0.394582	99
Es	-1.271593	0.232272	-0.212035	99
Es	0.768312	1.781856	-0.066265	99
Es	1.005994	-0.623454	-0.377560	99
Es	-1.026487	-1.036232	-0.015394	99
Es	-0.073487	-0.207961	-0.021794	99
Es	1.262965	1.224830	-0.094236	99
Es	0.943278	0.537084	-0.073215	99
Es	-2.979260	0.009059	-0.100081	99
Es	2.173300	-1.157725	-0.101026	99
Es	-3.224622	0.551104	0.248029	99
Es	2.043895	1.348987	0.107344	99
Es	-2.366012	0.351454	0.158659	99
Es	-1.596306	1.021440	0.150689	99
Es	2.540147	1.732183	-0.175822	99
Es	-0.798728	-0.333060	0.014638	99
Es	2.469749	1.429379	-0.171397	99
Es	1.459478	-1.214761	-0.073301	99
Es	0.665641	-0.132795	-0.054675	99
Es	-2.938555	-0.050056	0.434321	99
Es	-1.639668	0.644580	0.129209	99
Es	1.191675	-1.893261	-0.050475	99
Es	-1.233772	0.195234	0.366192	99
38
Properties=species:S:1:pos:R:3:Z:I:1 energy=-358.58724139639116 field_type=dipole dipole="0.000000 0.000000 0.000000" charge=0
O	-2.936918	0.121550	0.179892	8
N	-1.639558	0.645200	0.129242	7
C	-0.798798	-0.333080	0.014642	6
C	0.665752	-0.132880	-0.054678	6
C	1.459452	-1.214690	-0.073298	6
C	1.262982	1.224910	-0.094238	6
O	2.470062	1.429440	-0.171418	8
H	-3.484398	0.919540	0.307852	1
H	-1.149888	-1.381060	-0.030578	1
H	1.068232	-2.225130	-0.038148	1
H	2.540382	-1.111850	-0.115488	1
H	0.542702	2.058050	-0.053778	1
Es	0.943148	0.537010	-0.073142	99
Es	0.665640	-0.132794	-0.054676	99
Es	2.013418	1.347082	-0.394014	99
Es	1.006076	-0.623479	-0.377372	99
Es	1.028934	-0.612948	0.250146	99
Es	1.191577	-1.893331	-0.050418	99
Es	-2.365845	0.351560	0.158527	99
Es	-3.224748	0.550977	0.248131	99
Es	-0.798727	-0.333060	0.014637	99
Es	-1.639673	0.644586	0.129211	99
Es	-1.596125	1.021330	0.150707	99
Es	2.538916	1.731397	-0.178007	99
Es	2.469711	1.429294	-0.171395	99
Es	2.043972	1.350551	0.108602	99
Es	2.638187	1.163031	-0.180446	99
Es	-1.271620	0.232270	-0.211910	99
Es	1.459482	-1.214770	-0.073296	99
Es	1.262966	1.224833	-0.094238	99
Es	-0.073469	-0.207904	-0.021966	99
Es	-1.026477	-1.036221	-0.015339	99
Es	-2.938945	-0.051062	0.433867	99
Es	-1.233804	0.195212	0.366026	99
Es	0.768420	1.781883	-0.066374	99
Es	-2.979119	0.010100	-0.099580	99
Es	2.173396	-1.157603	-0.101043	99
Es	-2.936803	0.121929	0.179949	99
38
Properties=species:S:1:pos:R:3:Z:I:1 energy=-358.58724139639116 field_type=dipole dipole="0.000000 0.000000 0.000000" charge=0
O	-2.936918	0.121550	0.179892	8
N	-1.639558	0.645200	0.129242	7
C	-0.798798	-0.333080	0.014642	6
C	0.665752	-0.132880	-0.054678	6
C	1.459452	-1.214690	-0.073298	6
C	1.262982	1.224910	-0.094238	6
O	2.470062	1.429440	-0.171418	8
H	-3.484398	0.919540	0.307852	1
H	-1.149888	-1.381060	-0.030578	1
H	1.068232	-2.225130	-0.038148	1
H	2.540382	-1.111850	-0.115488	1
H	0.542702	2.058050	-0.053778	1
Es	-0.798730	-0.333057	0.014628	99
Es	-1.271553	0.232306	-0.211809	99
Es	2.173439	-1.157527	-0.100999	99
Es	0.768400	1.781911	-0.066389	99
Es	-3.225061	0.550972	0.248205	99
Es	0.665641	-0.132798	-0.054669	99
Es	-2.938750	-0.050202	0.433453	99
Es	-1.233651	0.195440	0.366154	99
Es	0.943190	0.537045	-0.072956	99
Es	2.638288	1.163412	-0.181212	99
Es	1.262974	1.224834	-0.094238	99
Es	-0.073411	-0.207886	-0.021753	99
Es	1.191603	-1.893344	-0.050472	99
Es	1.028876	-0.613116	0.249915	99
Es	2.012629	1.347153	-0.393787	99
Es	-1.596185	1.021125	0.150487	99
Es	-1.026528	-1.036280	-0.015354	99
Es	1.006025	-0.623441	-0.377519	99
Es	1.459483	-1.214767	-0.073300	99
Es	2.469714	1.429432	-0.171397	99
Es	2.538621	1.732027	-0.177082	99
Es	-1.639693	0.644583	0.129211	99
Es	-2.979092	0.009449	-0.099572	99
Es	2.044906	1.349336	0.108289	99
Es	-2.936881	0.121772	0.179915	99
Es	-2.365765	0.351492	0.158838	99
38
Properties=species:S:1:pos:R:3:Z:I:1 energy=-358.58724139639116 field_type=dipole dipole="0.000000 0.000000 0.000000" charge=0
O	-2.936918	0.121550	0.179892	8
N	-1.639558	0.645200	0.129242	7
C	-0.798798	-0.333080	0.014642	6
C	0.665752	-0.132880	-0.054678	6
C	1.459452	-1.214690	-0.073298	6
C	1.262982	1.224910	-0.094238	6
O	2.470062	1.429440	-0.171418	8
H	-3.484398	0.919540	0.307852	1
H	-1.149888	-1.381060	-0.030578	1
H	1.068232	-2.225130	-0.038148	1
H	2.540382	-1.111850	-0.115488	1
H	0.542702	2.058050	-0.053778	1
Es	-1.271465	0.232504	-0.211960	99
Es	-1.026576	-1.036236	-0.015344	99
Es	-2.936838	0.121931	0.179862	99
Es	-2.365849	0.351853	0.158407	99
Es	2.173439	-1.157443	-0.101086	99
Es	2.539614	1.731887	-0.177228	99
Es	2.013031	1.347529	-0.393794	99
Es	1.028885	-0.612837	0.250092	99
Es	0.665639	-0.132790	-0.054677	99
Es	-2.979542	0.005022	-0.098228	99
Es	-3.225529	0.551034	0.245958	99
Es	2.469743	1.429366	-0.171399	99
Es	2.637392	1.162906	-0.181086	99
Es	1.262970	1.224835	-0.094237	99
Es	-1.233809	0.195279	0.365687	99
Es	-0.798731	-0.333058	0.014628	99
Es	-2.937999	-0.046226	0.434889	99
Es	2.044338	1.349676	0.108249	99
Es	1.006102	-0.623730	-0.377261	99
Es	1.459480	-1.214763	-0.073299	99
Es	-1.595920	1.020959	0.150971	99
Es	1.191643	-1.893387	-0.050411	99
Es	-0.073467	-0.207872	-0.021730	99
Es	-1.639681	0.644582	0.129210	99
Es	0.943210	0.536901	-0.073291	99
Es	0.768410	1.781948	-0.066334	99
38
Properties=species:S:1:pos:R:3:Z:I:1 energy=-358.58724139639116 field_type=dipole dipole="0.000000 0.000000 0.000000" charge=0
O	-2.936918	0.121550	0.179892	8
N	-1.639558	0.645200	0.129242	7
C	-0.798798	-0.333080	0.014642	6
C	0.665752	-0.132880	-0.054678	6
C	1.459452	-1.214690	-0.073298	6
C	1.262982	1.224910	-0.094238	6
O	2.470062	1.429440	-0.171418	8
H	-3.484398	0.919540	0.307852	1
H	-1.149888	-1.381060	-0.030578	1
H	1.068232	-2.225130	-0.038148	1
H	2.540382	-1.111850	-0.115488	1
H	0.542702	2.058050	-0.053778	1
Es	2.539721	1.731547	-0.176447	99
Es	-0.798728	-0.333059	0.014631	99
Es	2.173444	-1.157513	-0.101081	99
Es	1.029002	-0.612990	0.250108	99
Es	-1.233800	0.195305	0.365658	99
Es	2.637434	1.162490	-0.181446	99
Es	0.768440	1.781978	-0.066334	99
Es	-1.026551	-1.036227	-0.015299	99
Es	-1.639705	0.644575	0.129210	99
Es	-0.073412	-0.207813	-0.021740	99
Es	-2.938665	-0.050631	0.432808	99
Es	2.044189	1.349516	0.107939	99
Es	0.943172	0.536861	-0.073219	99
Es	1.006139	-0.623523	-0.377249	99
Es	-2.979293	0.009861	-0.098677	99
Es	2.469746	1.429372	-0.171401	99
Es	-1.595948	1.020583	0.151238	99
Es	-1.271368	0.232729	-0.212381	99
Es	1.459481	-1.214765	-0.073297	99
Es	1.262963	1.224832	-0.094235	99
Es	-2.936853	0.121890	0.179919	99
Es	-2.365636	0.351736	0.158310	99
Es	1.191491	-1.893407	-0.050496	99
Es	2.012996	1.348456	-0.393894	99
Es	0.665644	-0.132797	-0.054659	99
Es	-3.225411	0.550865	0.248622	99
38
Properties=species:S:1:pos:R:3:Z:I:1 energy=-358.58724139639116 field_type=dipole dipole="0.000000 0.000000 0.000000" charge=0
O	-2.936918	0.121550	0.179892	8
N	-1.639558	0.645200	0.129242	7
C	-0.798798	-0.333080	0.014642	6
C	0.665752	-0.132880	-0.054678	6
C	1.459452	-1.214690	-0.073298	6
C	1.262982	1.224910	-0.094238	6
O	2.470062	1.429440	-0.171418	8
H	-3.484398	0.919540	0.307852	1
H	-1.149888	-1.381060	-0.030578	1
H	1.068232	-2.225130	-0.038148	1
H	2.540382	-1.111850	-0.115488	1
H	0.542702	2.058050	-0.053778	1
Es	-2.938436	-0.048175	0.433417	99
Es	0.665636	-0.132792	-0.054671	99
Es	1.006209	-0.623635	-0.377144	99
Es	0.768428	1.782006	-0.066350	99
Es	-2.365595	0.351977	0.158317	99
Es	-0.073376	-0.207781	-0.021865	99
Es	0.943158	0.536875	-0.073285	99
Es	1.459481	-1.214765	-0.073294	99
Es	2.173429	-1.157427	-0.101091	99
Es	2.542353	1.731353	-0.176890	99
Es	1.029013	-0.612879	0.249990	99
Es	2.043932	1.350368	0.107829	99
Es	-1.026528	-1.036236	-0.015419	99
Es	1.262967	1.224834	-0.094236	99
Es	1.191506	-1.893480	-0.050418	99
Es	-2.979473	0.007319	-0.097993	99
Es	-2.936816	0.121906	0.179963	99
Es	-0.798728	-0.333060	0.014631	99
Es	-1.233626	0.195519	0.366233	99
Es	-1.271511	0.232436	-0.211769	99
Es	2.013062	1.348213	-0.394446	99
Es	-1.595881	1.020345	0.150345	99
Es	-1.639678	0.644583	0.129209	99
Es	-3.225726	0.550901	0.247233	99
Es	2.634990	1.162025	-0.180311	99
Es	2.469700	1.429442	-0.171399	99
38
Properties=species:S:1:pos:R:3:Z:I:1 energy=-358.58724139639116 field_type=dipole dipole="0.000000 0.000000 0.000000" charge=0
O	-2.936918	0.121550	0.179892	8
N	-1.639558	0.645200	0.129242	7
C	-0.798798	-0.333080	0.014642	6
C	0.665752	-0.132880	-0.054678	6
C	1.459452	-1.214690	-0.073298	6
C	1.262982	1.224910	-0.094238	6
O	2.470062	1.429440	-0.171418	8
H	-3.484398	0.919540	0.307852	1
H	-1.149888	-1.381060	-0.030578	1
H	1.068232	-2.225130	-0.038148	1
H	2.540382	-1.111850	-0.115488	1
H	0.542702	2.058050	-0.053778	1
Es	-2.937304	-0.045788	0.434012	99
Es	1.191416	-1.893433	-0.050457	99
Es	-0.798734	-0.333050	0.014636	99
Es	1.459481	-1.214766	-0.073298	99
Es	0.943218	0.536834	-0.073166	99
Es	2.044533	1.349521	0.108257	99
Es	-1.233543	0.195626	0.366189	99
Es	2.173526	-1.157442	-0.101056	99
Es	2.012523	1.348721	-0.393986	99
Es	-2.365566	0.351930	0.156889	99
Es	-3.225935	0.550926	0.247086	99
Es	1.028863	-0.612823	0.249869	99
Es	-2.936851	0.121869	0.179939	99
Es	2.636379	1.162493	-0.181689	99
Es	0.665647	-0.132803	-0.054676	99
Es	-2.980443	0.004890	-0.097071	99
Es	-1.271426	0.232568	-0.211770	99
Es	-0.073375	-0.207781	-0.021851	99
Es	1.006345	-0.623774	-0.377146	99
Es	2.540733	1.731351	-0.176392	99
Es	1.262966	1.224833	-0.094237	99
Es	-1.595926	1.020257	0.150430	99
Es	-1.639677	0.644582	0.129211	99
Es	-1.026594	-1.036243	-0.015379	99
Es	2.469811	1.429384	-0.171392	99
Es	0.768424	1.781987	-0.066366	99
38
Properties=species:S:1:pos:R:3:Z:I:1 energy=-358.58724139639116 field_type=dipole dipole="0.000000 0.000000 0.000000" charge=0
O	-2.936918	0.121550	0.179892	8
N	-1.639558	0.645200	0.129242	7
C	-0.798798	-0.333080	0.014642	6
C	0.665752	-0.132880	-0.054678	6
C	1.459452	-1.214690	-0.073298	6
C	1.262982	1.224910	-0.094238	6
O	2.470062	1.429440	-0.171418	8
H	-3.484398	0.919540	0.307852	1
H	-1.149888	-1.381060	-0.030578	1
H	1.068232	-2.225130	-0.038148	1
H	2.540382	-1.111850	-0.115488	1
H	0.542702	2.058050	-0.053778	1
Es	2.012669	1.347890	-0.394401	99
Es	1.191375	-1.893450	-0.050404	99
Es	1.029370	-0.613502	0.249595	99
Es	1.459480	-1.214765	-0.073295	99
Es	1.005831	-0.623162	-0.377377	99
Es	-1.026608	-1.036215	-0.015337	99
Es	-2.936846	0.121872	0.179914	99
Es	0.665641	-0.132793	-0.054672	99
Es	-3.226129	0.550698	0.247981	99
Es	2.636883	1.163080	-0.180917	99
Es	-1.233544	0.195669	0.366119	99
Es	-1.595892	1.020073	0.150523	99
Es	-0.073325	-0.207716	-0.021591	99
Es	2.540252	1.731181	-0.176914	99
Es	0.943276	0.536774	-0.072980	99
Es	-1.639671	0.644587	0.129209	99
Es	-2.938538	-0.048731	0.432214	99
Es	1.262968	1.224834	-0.094236	99
Es	2.173545	-1.157425	-0.100990	99
Es	-2.365365	0.351938	0.158674	99
Es	2.469751	1.429397	-0.171398	99
Es	0.768423	1.782009	-0.066368	99
Es	2.044375	1.349940	0.108353	99
Es	-2.979316	0.008075	-0.097856	99
Es	-1.271392	0.232673	-0.211888	99
Es	-0.798727	-0.333060	0.014630	99
38
Properties=species:S:1:pos:R:3:Z:I:1 energy=-358.58724139639116 field_type=dipole dipole="0.000000 0.000000 0.000000" charge=0
O	-2.936918	0.121550	0.179892	8
N	-1.639558	0.645200	0.129242	7
C	-0.798798	-0.333080	0.014642	6
C	0.665752	-0.132880	-0.054678	6
C	1.459452	-1.214690	-0.073298	6
C	1.262982	1.224910	-0.094238	6
O	2.470062	1.429440	-0.171418	8
H	-3.484398	0.919540	0.307852	1
H	-1.149888	-1.381060	-0.030578	1
H	1.068232	-2.225130	-0.038148	1
H	2.540382	-1.111850	-0.115488	1
H	0.542702	2.058050	-0.053778	1
Es	1.191392	-1.893499	-0.050385	99
Es	-1.639674	0.644586	0.129208	99
Es	-1.271357	0.232733	-0.211943	99
Es	-2.978429	0.011351	-0.097776	99
Es	2.637258	1.163054	-0.180070	99
Es	-1.595812	1.019843	0.150533	99
Es	-2.936822	0.121915	0.179941	99
Es	-2.939567	-0.051800	0.430762	99
Es	2.173530	-1.157365	-0.101095	99
Es	2.012944	1.347490	-0.394617	99
Es	0.943184	0.536786	-0.073226	99
Es	1.262964	1.224834	-0.094239	99
Es	-1.026539	-1.036302	-0.015316	99
Es	0.665648	-0.132801	-0.054672	99
Es	-0.073402	-0.207697	-0.021796	99
Es	2.539998	1.730814	-0.177397	99
Es	-1.233541	0.195726	0.366014	99
Es	1.459482	-1.214765	-0.073297	99
Es	2.469712	1.429438	-0.171396	99
Es	0.768407	1.782039	-0.066367	99
Es	1.029233	-0.613168	0.249835	99
Es	-2.365177	0.351871	0.159302	99
Es	-3.226340	0.550611	0.248719	99
Es	2.043990	1.350671	0.108310	99
Es	1.006134	-0.623435	-0.377092	99
Es	-0.798728	-0.333060	0.014646	99
38
Properties=species:S:1:pos:R:3:Z:I:1 energy=-358.58724139639116 field_type=dipole dipole="0.000000 0.000000 0.000000" charge=0
O	-2.936918	0.121550	0.179892	8
N	-1.639558	0.645200	0.129242	7
C	-0.798798	-0.333080	0.014642	6
C	0.665752	-0.132880	-0.054678	6
C	1.459452	-1.214690	-0.073298	6
C	1.262982	1.224910	-0.094238	6
O	2.470062	1.429440	-0.171418	8
H	-3.484398	0.919540	0.307852	1
H	-1.149888	-1.381060	-0.030578	1
H	1.068232	-2.225130	-0.038148	1
H	2.540382	-1.111850	-0.115488	1
H	0.542702	2.058050	-0.053778	1
Es	-1.233577	0.195652	0.365867	99
Es	-0.798729	-0.333057	0.014643	99
Es	0.665644	-0.132800	-0.054685	99
Es	-1.595785	1.019652	0.150792	99
Es	1.191269	-1.893412	-0.050508	99
Es	1.262966	1.224834	-0.094235	99
Es	1.006341	-0.623787	-0.376902	99
Es	-2.365159	0.352032	0.158397	99
Es	0.768453	1.782090	-0.066372	99
Es	2.539762	1.731291	-0.176726	99
Es	1.459477	-1.214758	-0.073297	99
Es	2.637326	1.163218	-0.181067	99
Es	-2.936879	0.121774	0.179922	99
Es	-2.938655	-0.047654	0.432512	99
Es	2.044384	1.349685	0.108183	99
Es	-0.073381	-0.207707	-0.021702	99
Es	2.173648	-1.157433	-0.101073	99
Es	2.012613	1.347929	-0.394172	99
Es	-1.271250	0.232978	-0.212084	99
Es	-1.026608	-1.036226	-0.015297	99
Es	-2.979298	0.007188	-0.096707	99
Es	0.943208	0.536674	-0.073411	99
Es	1.029075	-0.612867	0.249848	99
Es	-3.226442	0.550621	0.246854	99
Es	-1.639673	0.644584	0.129210	99
Es	2.469760	1.429371	-0.171402	99
38
Properties=species:S:1:pos:R:3:Z:I:1 energy=-358.58724139639116 field_type=dipole dipole="0.000000 0.000000 0.000000" charge=0
O	-2.936918	0.121550	0.179892	8
N	-1.639558	0.645200	0.129242	7
C	-0.798798	-0.333080	0.014642	6
C	0.665752	-0.132880	-0.054678	6
C	1.459452	-1.214690	-0.073298	6
C	1.262982	1.224910	-0.094238	6
O	2.470062	1.429440	-0.171418	8
H	-3.484398	0.919540	0.307852	1
H	-1.149888	-1.381060	-0.030578	1
H	1.068232	-2.225130	-0.038148	1
H	2.540382	-1.111850	-0.115488	1
H	0.542702	2.058050	-0.053778	1
Es	1.262963	1.224832	-0.094236	99
Es	-0.073292	-0.207631	-0.021813	99
Es	2.173615	-1.157277	-0.101124	99
Es	2.469735	1.429331	-0.171398	99
Es	-2.365193	0.352140	0.158592	99
Es	-1.639696	0.644594	0.129210	99
Es	0.943189	0.536637	-0.073391	99
Es	-2.979132	0.008916	-0.096983	99
Es	2.012659	1.347055	-0.393945	99
Es	-2.936823	0.121915	0.179948	99
Es	0.768467	1.782099	-0.066354	99
Es	-2.938864	-0.049385	0.431280	99
Es	-1.026641	-1.036230	-0.015360	99
Es	-3.226568	0.550565	0.248127	99
Es	1.006334	-0.623860	-0.376882	99
Es	-1.233473	0.195823	0.366069	99
Es	-1.595650	1.019451	0.150427	99
Es	1.028998	-0.612908	0.249995	99
Es	2.639312	1.164072	-0.180921	99
Es	-1.271317	0.232788	-0.211776	99
Es	2.044481	1.349660	0.108261	99
Es	1.191375	-1.893500	-0.050574	99
Es	-0.798729	-0.333058	0.014636	99
Es	0.665647	-0.132800	-0.054689	99
Es	2.537615	1.731406	-0.177210	99
Es	1.459477	-1.214766	-0.073302	99
38
Properties=species:S:1:pos:R:3:Z:I:1 energy=-358.58724139639116 field_type=dipole dipole="0.000000 0.000000 0.000000" charge=0
O	-2.936918	0.121550	0.179892	8
N	-1.639558	0.645200	0.129242	7
C	-0.798798	-0.333080	0.014642	6
C	0.665752	-0.132880	-0.054678	6
C	1.459452	-1.214690	-0.073298	6
C	1.262982	1.224910	-0.094238	6
O	2.470062	1.429440	-0.171418	8
H	-3.484398	0.919540	0.307852	1
H	-1.149888	-1.381060	-0.030578	1
H	1.068232	-2.225130	-0.038148	1
H	2.540382	-1.111850	-0.115488	1
H	0.542702	2.058050	-0.053778	1
Es	0.665647	-0.132801	-0.054667	99
Es	0.943241	0.536646	-0.073283	99
Es	1.191217	-1.893559	-0.050490	99
Es	1.006487	-0.623805	-0.376827	99
Es	-0.798729	-0.333059	0.014639	99
Es	-2.979404	0.007178	-0.096305	99
Es	-1.639674	0.644586	0.129209	99
Es	-1.595669	1.019328	0.150341	99
Es	2.044122	1.350803	0.107917	99
Es	-0.073306	-0.207669	-0.021795	99
Es	-1.233444	0.195899	0.366067	99
Es	-1.271293	0.232844	-0.211762	99
Es	-1.026661	-1.036205	-0.015356	99
Es	-3.226808	0.550587	0.247332	99
Es	2.173593	-1.157330	-0.101090	99
Es	1.459481	-1.214769	-0.073301	99
Es	-2.365067	0.352116	0.158356	99
Es	2.540347	1.731062	-0.177424	99
Es	-2.938541	-0.047641	0.431704	99
Es	1.262968	1.224833	-0.094235	99
Es	1.029085	-0.612847	0.249718	99
Es	2.012655	1.347411	-0.394413	99
Es	2.469749	1.429371	-0.171398	99
Es	-2.936832	0.121889	0.179908	99
Es	2.636875	1.162887	-0.179906	99
Es	0.768451	1.782114	-0.066354	99
38
Properties=species:S:1:pos:R:3:Z:I:1 energy=-358.58724139639116 field_type=dipole dipole="0.000000 0.000000 0.000000" charge=0
O	-2.936918	0.121550	0.179892	8
N	-1.639558	0.645200	0.129242	7
C	-0.798798	-0.333080	0.014642	6
C	0.665752	-0.132880	-0.054678	6
C	1.459452	-1.214690	-0.073298	6
C	1.262982	1.224910	-0.094238	6
O	2.470062	1.429440	-0.171418	8
H	-3.484398	0.919540	0.307852	1
H	-1.149888	-1.381060	-0.030578	1
H	1.068232	-2.225130	-0.038148	1
H	2.540382	-1.111850	-0.115488	1
H	0.542702	2.058050	-0.053778	1
Es	-2.936841	0.121882	0.179893	99
Es	-2.979673	0.007223	-0.095994	99
Es	-0.073312	-0.207698	-0.021799	99
Es	1.006408	-0.623752	-0.376565	99
Es	0.943284	0.536635	-0.073369	99
Es	-1.233553	0.195760	0.365812	99
Es	2.469750	1.429384	-0.171399	99
Es	-1.639714	0.644619	0.129219	99
Es	0.768468	1.782125	-0.066396	99
Es	-2.938267	-0.047633	0.431449	99
Es	-2.365050	0.352226	0.157790	99
Es	2.043734	1.349773	0.108226	99
Es	1.262966	1.224833	-0.094239	99
Es	-1.026648	-1.036211	-0.015345	99
Es	2.636564	1.163203	-0.180933	99
Es	-0.798731	-0.333057	0.014642	99
Es	1.029134	-0.612985	0.249519	99
Es	2.540631	1.730908	-0.176516	99
Es	-1.271153	0.233179	-0.212118	99
Es	0.665651	-0.132807	-0.054692	99
Es	2.173706	-1.157264	-0.101066	99
Es	1.191144	-1.893550	-0.050479	99
Es	2.013017	1.348342	-0.394539	99
Es	-3.226920	0.550497	0.247795	99
Es	1.459481	-1.214765	-0.073298	99
Es	-1.595587	1.019001	0.150989	99
38
Properties=species:S:1:pos:R:3:Z:I:1 energy=-358.58724139639116 field_type=dipole dipole="0.000000 0.000000 0.000000" charge=0
O	-2.936918	0.121550	0.179892	8
N	-1.639558	0.645200	0.129242	7
C	-0.798798	-0.333080	0.014642	6
C	0.665752	-0.132880	-0.054678	6
C	1.459452	-1.214690	-0.073298	6
C	1.262982	1.224910	-0.094238	6
O	2.470062	1.429440	-0.171418	8
H	-3.484398	0.919540	0.307852	1
H	-1.149888	-1.381060	-0.030578	1
H	1.068232	-2.225130	-0.038148	1
H	2.540382	-1.111850	-0.115488	1
H	0.542702	2.058050	-0.053778	1
Es	-2.938567	-0.048420	0.430306	99
Es	-1.026633	-1.036285	-0.015376	99
Es	-2.936833	0.121909	0.179861	99
Es	-3.227208	0.550301	0.248399	99
Es	2.173669	-1.157318	-0.101021	99
Es	-0.798731	-0.333059	0.014636	99
Es	-1.233479	0.195875	0.365953	99
Es	1.006321	-0.623617	-0.376890	99
Es	0.943266	0.536634	-0.073274	99
Es	0.665650	-0.132806	-0.054670	99
Es	-1.595472	1.019290	0.150077	99
Es	2.044342	1.349614	0.108381	99
Es	-2.364944	0.352333	0.158769	99
Es	0.768459	1.782165	-0.066382	99
Es	-1.639672	0.644589	0.129204	99
Es	1.262967	1.224834	-0.094234	99
Es	1.191140	-1.893546	-0.050414	99
Es	1.029268	-0.613143	0.249520	99
Es	-2.979245	0.008122	-0.096357	99
Es	-1.271319	0.232765	-0.211384	99
Es	2.469784	1.429375	-0.171406	99
Es	-0.073283	-0.207545	-0.021682	99
Es	2.012539	1.347656	-0.394239	99
Es	2.539289	1.731133	-0.176849	99
Es	2.637703	1.163777	-0.181042	99
Es	1.459479	-1.214763	-0.073298	99
38
Properties=species:S:1:pos:R:3:Z:I:1 energy=-358.58724139639116 field_type=dipole dipole="0.000000 0.000000 0.000000" charge=0
O	-2.936918	0.121550	0.179892	8
N	-1.639558	0.645200	0.129242	7
C	-0.798798	-0.333080	0.014642	6
C	0.665752	-0.132880	-0.054678	6
C	1.459452	-1.214690	-0.073298	6
C	1.262982	1.224910	-0.094238	6
O	2.470062	1.429440	-0.171418	8
H	-3.484398	0.919540	0.307852	1
H	-1.149888	-1.381060	-0.030578	1
H	1.068232	-2.225130	-0.038148	1
H	2.540382	-1.111850	-0.115488	1
H	0.542702	2.058050	-0.053778	1
Es	0.665650	-0.132803	-0.054674	99
Es	1.459482	-1.214759	-0.073300	99
Es	-1.639670	0.644587	0.129210	99
Es	2.012464	1.348252	-0.394100	99
Es	2.539875	1.730786	-0.176827	99
Es	-2.936836	0.121892	0.179932	99
Es	1.191081	-1.893551	-0.050475	99
Es	1.006507	-0.623846	-0.376652	99
Es	-1.026684	-1.036209	-0.015350	99
Es	-1.233388	0.196014	0.366040	99
Es	0.943242	0.536560	-0.073370	99
Es	1.262964	1.224833	-0.094233	99
Es	-0.798730	-0.333057	0.014632	99
Es	-3.227245	0.550251	0.248011	99
Es	2.173709	-1.157298	-0.101118	99
Es	-0.073262	-0.207600	-0.021771	99
Es	-1.271238	0.232984	-0.211603	99
Es	0.768481	1.782185	-0.066366	99
Es	-2.364878	0.352327	0.158455	99
Es	2.469793	1.429386	-0.171406	99
Es	2.044260	1.349822	0.108502	99
Es	-2.938865	-0.048982	0.430460	99
Es	-1.595564	1.018924	0.150223	99
Es	-2.979072	0.008740	-0.095871	99
Es	2.637224	1.163335	-0.181353	99
Es	1.029191	-0.612906	0.249591	99
38
Properties=species:S:1:pos:R:3:Z:I:1 energy=-358.58724139639116 field_type=dipole dipole="0.000000 0.000000 0.000000" charge=0
O	-2.936918	0.121550	0.179892	8
N	-1.639558	0.645200	0.129242	7
C	-0.798798	-0.333080	0.014642	6
C	0.665752	-0.132880	-0.054678	6
C	1.459452	-1.214690	-0.073298	6
C	1.262982	1.224910	-0.094238	6
O	2.470062	1.429440	-0.171418	8
H	-3.484398	0.919540	0.307852	1
H	-1.149888	-1.381060	-0.030578	1
H	1.068232	-2.225130	-0.038148	1
H	2.540382	-1.111850	-0.115488	1
H	0.542702	2.058050	-0.053778	1
Es	-2.979941	0.003457	-0.094432	99
Es	-3.227600	0.550607	0.245870	99
Es	1.459480	-1.214763	-0.073297	99
Es	2.637029	1.163299	-0.181462	99
Es	-2.936819	0.121912	0.180034	99
Es	2.044389	1.349589	0.108288	99
Es	-2.937827	-0.043908	0.431786	99
Es	-2.364835	0.352323	0.157794	99
Es	-1.639678	0.644595	0.129212	99
Es	-1.271205	0.233082	-0.211848	99
Es	-1.026675	-1.036203	-0.015338	99
Es	2.173706	-1.157282	-0.101070	99
Es	-0.798733	-0.333052	0.014643	99
Es	0.665647	-0.132804	-0.054674	99
Es	1.006509	-0.623714	-0.376729	99
Es	1.191056	-1.893577	-0.050485	99
Es	-1.595470	1.018598	0.150476	99
Es	2.012225	1.348612	-0.394328	99
Es	1.262966	1.224834	-0.094239	99
Es	2.540168	1.730708	-0.176299	99
Es	-0.073230	-0.207564	-0.021737	99
Es	-1.233416	0.196032	0.365924	99
Es	0.768488	1.782213	-0.066328	99
Es	0.943215	0.536537	-0.073305	99
Es	2.469748	1.429371	-0.171394	99
Es	1.029292	-0.613032	0.249524	99
38
Properties=species:S:1:pos:R:3:Z:I:1 energy=-358.58724139639116 field_type=dipole dipole="0.000000 0.000000 0.000000" charge=0
O	-2.936918	0.121550	0.179892	8
N	-1.639558	0.645200	0.129242	7
C	-0.798798	-0.333080	0.014642	6
C	0.665752	-0.132880	-0.054678	6
C	1.459452	-1.214690	-0.073298	6
C	1.262982	1.224910	-0.094238	6
O	2.470062	1.429440	-0.171418	8
H	-3.484398	0.919540	0.307852	1
H	-1.149888	-1.381060	-0.030578	1
H	1.068232	-2.225130	-0.038148	1
H	2.540382	-1.111850	-0.115488	1
H	0.542702	2.058050	-0.053778	1
Es	1.262964	1.224833	-0.094236	99
Es	-1.026681	-1.036185	-0.015364	99
Es	2.012266	1.347779	-0.393735	99
Es	0.768505	1.782215	-0.066385	99
Es	-1.233366	0.196095	0.366034	99
Es	1.191089	-1.893620	-0.050446	99
Es	2.539720	1.730615	-0.177718	99
Es	2.173747	-1.157160	-0.101068	99
Es	-2.938508	-0.048302	0.429585	99
Es	-1.639682	0.644596	0.129214	99
Es	-2.364858	0.352495	0.158549	99
Es	-0.073250	-0.207566	-0.021759	99
Es	-1.595456	1.018394	0.150466	99
Es	-2.936826	0.121903	0.179935	99
Es	-2.979231	0.008155	-0.095604	99
Es	-0.798732	-0.333056	0.014637	99
Es	0.943270	0.536485	-0.073252	99
Es	2.044374	1.350418	0.108902	99
Es	1.006403	-0.623638	-0.376658	99
Es	-3.227688	0.550218	0.248541	99
Es	-1.271182	0.233136	-0.211846	99
Es	0.665649	-0.132802	-0.054658	99
Es	2.469747	1.429375	-0.171400	99
Es	2.637385	1.163465	-0.181184	99
Es	1.029353	-0.613218	0.249334	99
Es	1.459477	-1.214763	-0.073298	99
38
Properties=species:S:1:pos:R:3:Z:I:1 energy=-358.58724139639116 field_type=dipole dipole="0.000000 0.000000 0.000000" charge=0
O	-2.936918	0.121550	0.179892	8
N	-1.639558	0.645200	0.129242	7
C	-0.798798	-0.333080	0.014642	6
C	0.665752	-0.132880	-0.054678	6
C	1.459452	-1.214690	-0.073298	6
C	1.262982	1.224910	-0.094238	6
O	2.470062	1.429440	-0.171418	8
H	-3.484398	0.919540	0.307852	1
H	-1.149888	-1.381060	-0.030578	1
H	1.068232	-2.225130	-0.038148	1
H	2.540382	-1.111850	-0.115488	1
H	0.542702	2.058050	-0.053778	1
Es	2.173776	-1.157243	-0.101082	99
Es	0.943266	0.536503	-0.073297	99
Es	2.637252	1.163831	-0.181004	99
Es	-1.233395	0.196054	0.365844	99
Es	-1.271116	0.233222	-0.211786	99
Es	2.044238	1.349836	0.108542	99
Es	-2.364773	0.352480	0.158460	99
Es	0.768494	1.782233	-0.066382	99
Es	-0.073200	-0.207493	-0.022091	99
Es	2.539868	1.730813	-0.176994	99
Es	-2.979107	0.007512	-0.095032	99
Es	2.469704	1.429374	-0.171395	99
Es	2.012392	1.347773	-0.394299	99
Es	1.191000	-1.893573	-0.050413	99
Es	1.262966	1.224834	-0.094236	99
Es	-1.595456	1.018392	0.150525	99
Es	1.029119	-0.612965	0.249595	99
Es	0.665639	-0.132802	-0.054680	99
Es	-1.639672	0.644587	0.129210	99
Es	-1.026715	-1.036219	-0.015344	99
Es	-3.227794	0.550235	0.247546	99
Es	-0.798731	-0.333051	0.014635	99
Es	-2.938607	-0.047631	0.430141	99
Es	1.006718	-0.623908	-0.376481	99
Es	1.459479	-1.214770	-0.073299	99
Es	-2.936855	0.121846	0.179906	99
38
Properties=species:S:1:pos:R:3:Z:I:1 energy=-358.58724139639116 field_type=dipole dipole="0.000000 0.000000 0.000000" charge=0
O	-2.936918	0.121550	0.179892	8
N	-1.639558	0.645200	0.129242	7
C	-0.798798	-0.333080	0.014642	6
C	0.665752	-0.132880	-0.054678	6
C	1.459452	-1.214690	-0.073298	6
C	1.262982	1.224910	-0.094238	6
O	2.470062	1.429440	-0.171418	8
H	-3.484398	0.919540	0.307852	1
H	-1.149888	-1.381060	-0.030578	1
H	1.068232	-2.225130	-0.038148	1
H	2.540382	-1.111850	-0.115488	1
H	0.542702	2.058050	-0.053778	1
Es	0.943269	0.536440	-0.073214	99
Es	1.191022	-1.893640	-0.050424	99
Es	-1.233122	0.196497	0.366436	99
Es	2.173791	-1.157119	-0.101180	99
Es	-2.364743	0.352529	0.159705	99
Es	-1.026711	-1.036211	-0.015471	99
Es	-2.978496	0.009519	-0.095741	99
Es	-0.798736	-0.333050	0.014632	99
Es	-1.271318	0.232750	-0.211166	99
Es	0.768493	1.782259	-0.066364	99
Es	1.262963	1.224832	-0.094236	99
Es	1.006496	-0.623773	-0.376552	99
Es	0.665652	-0.132813	-0.054673	99
Es	-0.073233	-0.207482	-0.021898	99
Es	2.637228	1.163588	-0.181049	99
Es	2.469752	1.429378	-0.171399	99
Es	2.012378	1.348030	-0.394221	99
Es	-3.227776	0.550095	0.248239	99
Es	1.029371	-0.613115	0.249350	99
Es	-2.936805	0.121938	0.179950	99
Es	-2.939443	-0.049502	0.428883	99
Es	1.459482	-1.214765	-0.073301	99
Es	-1.639668	0.644590	0.129210	99
Es	-1.595401	1.018238	0.149600	99
Es	2.539916	1.730631	-0.176979	99
Es	2.044130	1.350029	0.108451	99
38
Properties=species:S:1:pos:R:3:Z:I:1 energy=-358.58724139639116 field_type=dipole dipole="0.000000 0.000000 0.000000" charge=0
O	-2.936918	0.121550	0.179892	8
N	-1.639558	0.645200	0.129242	7
C	-0.798798	-0.333080	0.014642	6
C	0.665752	-0.132880	-0.054678	6
C	1.459452	-1.214690	-0.073298	6
C	1.262982	1.224910	-0.094238	6
O	2.470062	1.429440	-0.171418	8
H	-3.484398	0.919540	0.307852	1
H	-1.149888	-1.381060	-0.030578	1
H	1.068232	-2.225130	-0.038148	1
H	2.540382	-1.111850	-0.115488	1
H	0.542702	2.058050	-0.053778	1
Es	-3.228035	0.550193	0.247341	99
Es	1.006663	-0.623959	-0.376401	99
Es	2.044464	1.349796	0.108678	99
Es	-1.271131	0.233151	-0.211505	99
Es	-0.798731	-0.333056	0.014641	99
Es	-2.978862	0.007777	-0.094575	99
Es	-2.938884	-0.047846	0.429688	99
Es	1.191041	-1.893613	-0.050485	99
Es	-2.364701	0.352620	0.158682	99
Es	2.637095	1.163742	-0.181491	99
Es	1.459478	-1.214763	-0.073300	99
Es	0.768525	1.782249	-0.066382	99
Es	-0.073274	-0.207516	-0.021908	99
Es	0.943233	0.536337	-0.073408	99
Es	2.173838	-1.157085	-0.101136	99
Es	-2.936850	0.121908	0.179888	99
Es	-1.026740	-1.036217	-0.015464	99
Es	-1.233286	0.196222	0.366102	99
Es	1.029279	-0.612972	0.249459	99
Es	2.469749	1.429371	-0.171400	99
Es	-1.639672	0.644591	0.129209	99
Es	2.011993	1.348290	-0.394119	99
Es	0.665642	-0.132803	-0.054677	99
Es	1.262965	1.224834	-0.094236	99
Es	-1.595331	1.018067	0.150193	99
Es	2.540023	1.730551	-0.176807	99
38
Properties=species:S:1:pos:R:3:Z:I:1 energy=-358.58724139639116 field_type=dipole dipole="0.000000 0.000000 0.000000" charge=0
O	-2.936918	0.121550	0.179892	8
N	-1.639558	0.645200	0.129242	7
C	-0.798798	-0.333080	0.014642	6
C	0.665752	-0.132880	-0.054678	6
C	1.459452	-1.214690	-0.073298	6
C	1.262982	1.224910	-0.094238	6
O	2.470062	1.429440	-0.171418	8
H	-3.484398	0.919540	0.307852	1
H	-1.149888	-1.381060	-0.030578	1
H	1.068232	-2.225130	-0.038148	1
H	2.540382	-1.111850	-0.115488	1
H	0.542702	2.058050	-0.053778	1
Es	2.044288	1.349826	0.108621	99
Es	-2.978623	0.009624	-0.094907	99
Es	1.262964	1.224833	-0.094238	99
Es	-1.026779	-1.036211	-0.015306	99
Es	1.190916	-1.893602	-0.050456	99
Es	-0.798733	-0.333056	0.014633	99
Es	1.006655	-0.623971	-0.376366	99
Es	2.469688	1.429458	-0.171392	99
Es	0.768523	1.782295	-0.066400	99
Es	-2.364673	0.352667	0.158965	99
Es	-1.233310	0.196230	0.365823	99
Es	-2.936837	0.121893	0.179917	99
Es	2.637095	1.163951	-0.181145	99
Es	0.665649	-0.132805	-0.054673	99
Es	0.943270	0.536416	-0.073365	99
Es	2.012227	1.347743	-0.394088	99
Es	2.540008	1.730716	-0.177116	99
Es	1.459479	-1.214764	-0.073295	99
Es	2.173858	-1.157157	-0.101188	99
Es	-1.271111	0.233242	-0.211643	99
Es	-0.073150	-0.207483	-0.021820	99
Es	-1.595272	1.017873	0.150360	99
Es	1.029307	-0.612983	0.249377	99
Es	-2.939218	-0.049507	0.428736	99
Es	-3.228063	0.550053	0.248343	99
Es	-1.639670	0.644590	0.129209	99
38
Properties=species:S:1:pos:R:3:Z:I:1 energy=-358.58724139639116 field_type=dipole dipole="0.000000 0.000000 0.000000" charge=0
O	-2.936918	0.121550	0.179892	8
N	-1.639558	0.645200	0.129242	7
C	-0.798798	-0.333080	0.014642	6
C	0.665752	-0.132880	-0.054678	6
C	1.459452	-1.214690	-0.073298	6
C	1.262982	1.224910	-0.094238	6
O	2.470062	1.429440	-0.171418	8
H	-3.484398	0.919540	0.307852	1
H	-1.149888	-1.381060	-0.030578	1
H	1.068232	-2.225130	-0.038148	1
H	2.540382	-1.111850	-0.115488	1
H	0.542702	2.058050	-0.053778	1
Es	-1.026775	-1.036189	-0.015304	99
Es	1.029357	-0.613223	0.249226	99
Es	1.262967	1.224832	-0.094237	99
Es	0.665655	-0.132814	-0.054679	99
Es	0.768518	1.782309	-0.066391	99
Es	2.540665	1.730134	-0.177289	99
Es	1.006616	-0.623768	-0.376275	99
Es	-2.936819	0.121911	0.179988	99
Es	2.044052	1.350525	0.108759	99
Es	1.190989	-1.893716	-0.050491	99
Es	2.173824	-1.157006	-0.101088	99
Es	-3.228235	0.550035	0.247967	99
Es	-0.073162	-0.207522	-0.021869	99
Es	-1.639680	0.644594	0.129210	99
Es	-1.233352	0.196153	0.365794	99
Es	-2.938696	-0.048479	0.429244	99
Es	-0.798734	-0.333051	0.014633	99
Es	1.459479	-1.214761	-0.073299	99
Es	2.469733	1.429409	-0.171396	99
Es	2.636609	1.163234	-0.181155	99
Es	-1.595247	1.017761	0.150442	99
Es	2.012190	1.348398	-0.394046	99
Es	0.943313	0.536443	-0.073288	99
Es	-2.364688	0.352834	0.157891	99
Es	-2.979016	0.008463	-0.094068	99
Es	-1.271074	0.233364	-0.211691	99
