38
Properties=species:S:1:pos:R:3:Z:I:1 energy=-358.5354208176862 field_type=dipole dipole="0.000000 0.000000 0.000000" charge=0
O	-2.737221	-0.607149	-0.408728	8
N	-1.370601	-0.665179	-0.703448	7
C	-0.699791	-0.446189	0.386942	6
C	0.819509	-0.418909	0.392912	6
O	1.346969	-1.113659	-0.727138	8
C	1.301519	0.942261	0.392912	6
C	1.698809	2.064161	0.392912	6
H	-3.150361	-0.792419	-1.273608	1
H	-1.204031	-0.234179	1.346532	1
H	1.151099	-0.943539	1.294592	1
H	0.783059	-0.851809	-1.479558	1
H	2.061039	3.066611	0.385682	1
Es	-2.781749	-0.843867	-0.219092	99
Es	1.392641	1.538728	0.051835	99
Es	-2.133158	-0.631668	-0.539920	99
Es	-2.737106	-0.607254	-0.409019	99
Es	1.346714	-1.113405	-0.727136	99
Es	1.264729	1.578131	0.660309	99
Es	1.301414	0.942001	0.392915	99
Es	1.829584	1.391760	0.473424	99
Es	-1.261002	-0.737102	-1.062533	99
Es	-1.067328	-0.858148	-0.163447	99
Es	-2.785050	-0.314218	-0.331476	99
Es	1.933699	2.717151	0.388798	99
Es	1.053729	0.291266	0.399285	99
Es	1.036483	-0.752795	0.999866	99
Es	1.630073	-1.005268	-0.769607	99
Es	1.127458	-0.822358	-0.302572	99
Es	-1.370840	-0.665070	-0.702919	99
Es	-2.951488	-0.707163	-0.873071	99
Es	0.052142	-0.421698	0.379497	99
Es	1.283558	-1.404935	-0.669450	99
Es	-1.029508	-0.304688	1.030029	99
Es	0.819525	-0.418890	0.392720	99
Es	1.044340	-0.959013	-1.114422	99
Es	-1.072222	-0.285738	-0.284741	99
Es	1.698897	2.064401	0.392910	99
Es	-0.699725	-0.446182	0.386932	99
38
Properties=species:S:1:pos:R:3:Z:I:1 energy=-358.5354208176862 field_type=dipole dipole="0.000000 0.000000 0.000000" charge=0
O	-2.737221	-0.607149	-0.408728	8
N	-1.370601	-0.665179	-0.703448	7
C	-0.699791	-0.446189	0.386942	6
C	0.819509	-0.418909	0.392912	6
O	1.346969	-1.113659	-0.727138	8
C	1.301519	0.942261	0.392912	6
C	1.698809	2.064161	0.392912	6
H	-3.150361	-0.792419	-1.273608	1
H	-1.204031	-0.234179	1.346532	1
H	1.151099	-0.943539	1.294592	1
H	0.783059	-0.851809	-1.479558	1
H	2.061039	3.066611	0.385682	1
Es	-1.029549	-0.304659	1.029964	99
Es	1.698888	2.064405	0.392900	99
Es	1.933673	2.717143	0.388621	99
Es	-2.951846	-0.704906	-0.873593	99
Es	1.808252	1.401969	0.542381	99
Es	1.219782	1.596150	0.605579	99
Es	-0.699724	-0.446177	0.386931	99
Es	-1.261060	-0.736736	-1.062174	99
Es	1.127143	-0.822543	-0.302655	99
Es	0.052167	-0.421630	0.379519	99
Es	1.458918	1.510542	0.037685	99
Es	1.301418	0.942004	0.392921	99
Es	1.285038	-1.406030	-0.669545	99
Es	-2.737096	-0.607216	-0.409054	99
Es	1.053800	0.291115	0.399476	99
Es	1.346700	-1.113426	-0.727160	99
Es	1.036431	-0.752797	0.999833	99
Es	-1.370803	-0.665063	-0.702876	99
Es	-2.785615	-0.315218	-0.328078	99
Es	0.819525	-0.418888	0.392720	99
Es	1.628727	-1.004002	-0.769243	99
Es	-2.781172	-0.845096	-0.222035	99
Es	-2.133053	-0.631816	-0.539978	99
Es	1.044598	-0.958951	-1.114641	99
Es	-1.072176	-0.285780	-0.284803	99
Es	-1.067155	-0.858414	-0.163578	99
38
Properties=species:S:1:pos:R:3:Z:I:1 energy=-358.5354208176862 field_type=dipole dipole="0.000000 0.000000 0.000000" charge=0
O	-2.737221	-0.607149	-0.408728	8
N	-1.370601	-0.665179	-0.703448	7
C	-0.699791	-0.446189	0.386942	6
C	0.819509	-0.418909	0.392912	6
O	1.346969	-1.113659	-0.727138	8
C	1.301519	0.942261	0.392912	6
C	1.698809	2.064161	0.392912	6
H	-3.150361	-0.792419	-1.273608	1
H	-1.204031	-0.234179	1.346532	1
H	1.151099	-0.943539	1.294592	1
H	0.783059	-0.851809	-1.479558	1
H	2.061039	3.066611	0.385682	1
Es	0.819525	-0.418888	0.392716	99
Es	-2.737074	-0.607226	-0.409060	99
Es	-1.072106	-0.285837	-0.284842	99
Es	-2.952283	-0.706240	-0.873358	99
Es	1.630060	-1.005655	-0.769302	99
Es	1.044819	-0.959061	-1.114751	99
Es	1.831835	1.390275	0.458843	99
Es	0.052120	-0.421613	0.379546	99
Es	1.933713	2.717143	0.388868	99
Es	-1.029577	-0.304658	1.029950	99
Es	-1.067120	-0.858385	-0.163661	99
Es	-2.132962	-0.632658	-0.539895	99
Es	1.127289	-0.822204	-0.302568	99
Es	-0.699724	-0.446195	0.386933	99
Es	1.346718	-1.113480	-0.727116	99
Es	-2.781703	-0.843187	-0.220685	99
Es	1.301422	0.942004	0.392927	99
Es	-1.261009	-0.736674	-1.061929	99
Es	1.379727	1.544217	0.056257	99
Es	1.036548	-0.752631	0.999896	99
Es	1.698890	2.064403	0.392908	99
Es	-2.784934	-0.314952	-0.329863	99
Es	1.283347	-1.404651	-0.669497	99
Es	1.275299	1.574122	0.670370	99
Es	1.053792	0.291070	0.399308	99
Es	-1.370803	-0.665058	-0.702875	99
38
Properties=species:S:1:pos:R:3:Z:I:1 energy=-358.5354208176862 field_type=dipole dipole="0.000000 0.000000 0.000000" charge=0
O	-2.737221	-0.607149	-0.408728	8
N	-1.370601	-0.665179	-0.703448	7
C	-0.699791	-0.446189	0.386942	6
C	0.819509	-0.418909	0.392912	6
O	1.346969	-1.113659	-0.727138	8
C	1.301519	0.942261	0.392912	6
C	1.698809	2.064161	0.392912	6
H	-3.150361	-0.792419	-1.273608	1
H	-1.204031	-0.234179	1.346532	1
H	1.151099	-0.943539	1.294592	1
H	0.783059	-0.851809	-1.479558	1
H	2.061039	3.066611	0.385682	1
Es	-2.952416	-0.707072	-0.873202	99
Es	-2.737087	-0.607193	-0.409032	99
Es	1.284702	-1.404552	-0.669661	99
Es	-1.029639	-0.304616	1.029888	99
Es	1.834772	1.387970	0.435352	99
Es	1.127158	-0.822705	-0.302224	99
Es	1.292320	1.567858	0.684935	99
Es	0.819525	-0.418889	0.392715	99
Es	-2.782675	-0.841855	-0.218581	99
Es	1.053657	0.291076	0.399315	99
Es	1.044128	-0.959688	-1.114610	99
Es	0.052229	-0.421523	0.379563	99
Es	-1.370807	-0.665052	-0.702874	99
Es	1.346687	-1.113427	-0.727134	99
Es	1.698892	2.064402	0.392909	99
Es	1.629611	-1.004681	-0.769683	99
Es	-1.072056	-0.286070	-0.284682	99
Es	-2.132776	-0.632737	-0.539757	99
Es	1.036529	-0.752621	0.999962	99
Es	1.933754	2.717064	0.388935	99
Es	-2.784134	-0.315344	-0.332346	99
Es	1.359777	1.552799	0.065164	99
Es	-1.261051	-0.736201	-1.061739	99
Es	-1.066983	-0.858817	-0.163926	99
Es	1.301417	0.942018	0.392902	99
Es	-0.699725	-0.446166	0.386926	99
38
Properties=species:S:1:pos:R:3:Z:I:1 energy=-358.5354208176862 field_type=dipole dipole="0.000000 0.000000 0.000000" charge=0
O	-2.737221	-0.607149	-0.408728	8
N	-1.370601	-0.665179	-0.703448	7
C	-0.699791	-0.446189	0.386942	6
C	0.819509	-0.418909	0.392912	6
O	1.346969	-1.113659	-0.727138	8
C	1.301519	0.942261	0.392912	6
C	1.698809	2.064161	0.392912	6
H	-3.150361	-0.792419	-1.273608	1
H	-1.204031	-0.234179	1.346532	1
H	1.151099	-0.943539	1.294592	1
H	0.783059	-0.851809	-1.479558	1
H	2.061039	3.066611	0.385682	1
Es	1.933723	2.717052	0.388873	99
Es	-2.132872	-0.633084	-0.540079	99
Es	-1.029660	-0.304678	1.029923	99
Es	-2.783495	-0.315058	-0.334533	99
Es	0.819525	-0.418889	0.392721	99
Es	0.052309	-0.421521	0.379526	99
Es	-0.699723	-0.446184	0.386933	99
Es	-1.370820	-0.665063	-0.702887	99
Es	1.301424	0.942000	0.392917	99
Es	1.698891	2.064407	0.392906	99
Es	-2.952509	-0.708252	-0.872776	99
Es	-2.783276	-0.840606	-0.216677	99
Es	1.044901	-0.959123	-1.114888	99
Es	1.036536	-0.752634	1.000011	99
Es	-1.072002	-0.285891	-0.284925	99
Es	1.269181	1.576444	0.664857	99
Es	1.127390	-0.822066	-0.302356	99
Es	1.053606	0.290993	0.399282	99
Es	1.629378	-1.005757	-0.769340	99
Es	1.346726	-1.113345	-0.727152	99
Es	1.283892	-1.404749	-0.669645	99
Es	-2.737075	-0.607282	-0.409046	99
Es	-1.067124	-0.858146	-0.163753	99
Es	1.830453	1.391184	0.467462	99
Es	-1.260844	-0.736804	-1.061463	99
Es	1.387279	1.541034	0.053227	99
38
Properties=species:S:1:pos:R:3:Z:I:1 energy=-358.5354208176862 field_type=dipole dipole="0.000000 0.000000 0.000000" charge=0
O	-2.737221	-0.607149	-0.408728	8
N	-1.370601	-0.665179	-0.703448	7
C	-0.699791	-0.446189	0.386942	6
C	0.819509	-0.418909	0.392912	6
O	1.346969	-1.113659	-0.727138	8
C	1.301519	0.942261	0.392912	6
C	1.698809	2.064161	0.392912	6
H	-3.150361	-0.792419	-1.273608	1
H	-1.204031	-0.234179	1.346532	1
H	1.151099	-0.943539	1.294592	1
H	0.783059	-0.851809	-1.479558	1
H	2.061039	3.066611	0.385682	1
Es	1.283834	-1.404480	-0.669390	99
Es	1.036563	-0.752583	1.000044	99
Es	-1.370822	-0.665052	-0.702875	99
Es	-2.132747	-0.632043	-0.540059	99
Es	1.301420	0.942006	0.392918	99
Es	1.045266	-0.959286	-1.115458	99
Es	1.053550	0.290923	0.399250	99
Es	-1.260879	-0.736383	-1.061308	99
Es	-1.071989	-0.286127	-0.284937	99
Es	-2.785412	-0.315910	-0.329750	99
Es	1.933721	2.717041	0.388903	99
Es	1.272021	1.575360	0.667573	99
Es	1.698891	2.064401	0.392910	99
Es	1.831191	1.390715	0.463462	99
Es	-2.737078	-0.607274	-0.409034	99
Es	0.819524	-0.418888	0.392719	99
Es	1.629305	-1.006030	-0.768873	99
Es	-0.699724	-0.446183	0.386932	99
Es	0.052352	-0.421451	0.379540	99
Es	-1.066966	-0.858319	-0.163885	99
Es	1.127203	-0.821842	-0.302591	99
Es	1.346715	-1.113421	-0.727135	99
Es	1.383716	1.542569	0.054521	99
Es	-2.952736	-0.706679	-0.873258	99
Es	-2.781420	-0.842396	-0.221003	99
Es	-1.029687	-0.304687	1.029901	99
38
Properties=species:S:1:pos:R:3:Z:I:1 energy=-358.5354208176862 field_type=dipole dipole="0.000000 0.000000 0.000000" charge=0
O	-2.737221	-0.607149	-0.408728	8
N	-1.370601	-0.665179	-0.703448	7
C	-0.699791	-0.446189	0.386942	6
C	0.819509	-0.418909	0.392912	6
O	1.346969	-1.113659	-0.727138	8
C	1.301519	0.942261	0.392912	6
C	1.698809	2.064161	0.392912	6
H	-3.150361	-0.792419	-1.273608	1
H	-1.204031	-0.234179	1.346532	1
H	1.151099	-0.943539	1.294592	1
H	0.783059	-0.851809	-1.479558	1
H	2.061039	3.066611	0.385682	1
Es	-2.953084	-0.705182	-0.873499	99
Es	-1.066976	-0.858283	-0.163938	99
Es	-2.781758	-0.842874	-0.221274	99
Es	1.284119	-1.404380	-0.669698	99
Es	1.248631	1.584356	0.643426	99
Es	1.628828	-1.006148	-0.769179	99
Es	1.823959	1.394803	0.497349	99
Es	1.127576	-0.821889	-0.302066	99
Es	0.819526	-0.418891	0.392716	99
Es	1.414351	1.529497	0.044829	99
Es	-2.737053	-0.607219	-0.409080	99
Es	1.301415	0.941999	0.392917	99
Es	1.053535	0.290861	0.399214	99
Es	1.698892	2.064405	0.392909	99
Es	1.045126	-0.959208	-1.115394	99
Es	-0.699724	-0.446194	0.386933	99
Es	-1.029668	-0.304656	1.029916	99
Es	1.036592	-0.752513	1.000067	99
Es	-2.785126	-0.317253	-0.329210	99
Es	-1.370805	-0.665057	-0.702875	99
Es	1.346697	-1.113467	-0.727115	99
Es	0.052352	-0.421506	0.379502	99
Es	-1.072025	-0.286187	-0.284834	99
Es	1.933705	2.717029	0.388863	99
Es	-1.260753	-0.736195	-1.061073	99
Es	-2.132522	-0.631868	-0.540287	99
38
Properties=species:S:1:pos:R:3:Z:I:1 energy=-358.5354208176862 field_type=dipole dipole="0.000000 0.000000 0.000000" charge=0
O	-2.737221	-0.607149	-0.408728	8
N	-1.370601	-0.665179	-0.703448	7
C	-0.699791	-0.446189	0.386942	6
C	0.819509	-0.418909	0.392912	6
O	1.346969	-1.113659	-0.727138	8
C	1.301519	0.942261	0.392912	6
C	1.698809	2.064161	0.392912	6
H	-3.150361	-0.792419	-1.273608	1
H	-1.204031	-0.234179	1.346532	1
H	1.151099	-0.943539	1.294592	1
H	0.783059	-0.851809	-1.479558	1
H	2.061039	3.066611	0.385682	1
Es	-1.260766	-0.736394	-1.060943	99
Es	1.628969	-1.006333	-0.769494	99
Es	-1.370815	-0.665062	-0.702879	99
Es	-1.066920	-0.858129	-0.163994	99
Es	1.044838	-0.959708	-1.115352	99
Es	-2.783924	-0.316792	-0.331175	99
Es	1.698892	2.064400	0.392909	99
Es	-1.029776	-0.304710	1.029888	99
Es	0.052381	-0.421404	0.379582	99
Es	1.127656	-0.821662	-0.301990	99
Es	1.301419	0.942005	0.392922	99
Es	1.828112	1.392605	0.480246	99
Es	1.346724	-1.113446	-0.727137	99
Es	1.933645	2.717042	0.388916	99
Es	1.036668	-0.752472	1.000086	99
Es	-2.953393	-0.705896	-0.873348	99
Es	-2.132591	-0.633048	-0.540078	99
Es	1.398814	1.536111	0.049283	99
Es	-0.699721	-0.446184	0.386932	99
Es	-2.782603	-0.841384	-0.219712	99
Es	-2.737112	-0.607200	-0.408970	99
Es	-1.071925	-0.286260	-0.284985	99
Es	1.260085	1.579902	0.655961	99
Es	1.284167	-1.403923	-0.669541	99
Es	1.053460	0.290812	0.399276	99
Es	0.819526	-0.418891	0.392718	99
38
Properties=species:S:1:pos:R:3:Z:I:1 energy=-358.5354208176862 field_type=dipole dipole="0.000000 0.000000 0.000000" charge=0
O	-2.737221	-0.607149	-0.408728	8
N	-1.370601	-0.665179	-0.703448	7
C	-0.699791	-0.446189	0.386942	6
C	0.819509	-0.418909	0.392912	6
O	1.346969	-1.113659	-0.727138	8
C	1.301519	0.942261	0.392912	6
C	1.698809	2.064161	0.392912	6
H	-3.150361	-0.792419	-1.273608	1
H	-1.204031	-0.234179	1.346532	1
H	1.151099	-0.943539	1.294592	1
H	0.783059	-0.851809	-1.479558	1
H	2.061039	3.066611	0.385682	1
Es	-2.132460	-0.632676	-0.540213	99
Es	-2.784432	-0.316731	-0.331539	99
Es	1.346739	-1.113481	-0.727135	99
Es	1.127264	-0.822224	-0.301834	99
Es	1.933766	2.716964	0.388964	99
Es	-2.953528	-0.707084	-0.873013	99
Es	1.036646	-0.752458	1.000153	99
Es	1.283590	1.571033	0.677834	99
Es	-2.782168	-0.840670	-0.219723	99
Es	-1.260735	-0.736125	-1.060775	99
Es	-1.071935	-0.286390	-0.284905	99
Es	0.052449	-0.421377	0.379516	99
Es	1.285614	-1.404293	-0.669759	99
Es	-1.029786	-0.304707	1.029876	99
Es	-0.699724	-0.446182	0.386932	99
Es	0.819524	-0.418889	0.392722	99
Es	1.698889	2.064397	0.392913	99
Es	1.053388	0.290781	0.399120	99
Es	-2.737162	-0.607188	-0.408912	99
Es	-1.066857	-0.858200	-0.164100	99
Es	1.628219	-1.005039	-0.769468	99
Es	1.833369	1.389132	0.447995	99
Es	1.369958	1.548474	0.059793	99
Es	1.044582	-0.960039	-1.115367	99
Es	1.301416	0.942011	0.392923	99
Es	-1.370814	-0.665059	-0.702880	99
