45
Properties=species:S:1:pos:R:3:Z:I:1 energy=-629.4790676527838 field_type=dipole dipole="0.000000 0.000000 0.000000" charge=0
C	-2.694809	0.371529	-0.013369	6
C	-1.207299	0.294259	-0.005969	6
C	-0.293259	1.326649	-0.001039	6
C	1.051180	0.855349	0.005631	6
C	1.122481	-0.522381	0.005491	6
C	2.344541	-1.375631	0.011371	6
S	-0.433569	-1.231281	-0.003259	16
H	-3.032419	1.413319	-0.004639	1
H	-3.114429	-0.123281	0.868771	1
H	-3.104089	-0.105331	-0.910109	1
H	-0.572629	2.373379	-0.002019	1
H	1.923241	1.498219	0.010401	1
H	2.109181	-2.444681	0.021451	1
H	2.952231	-1.157221	0.895661	1
H	2.949650	-1.172891	-0.878379	1
Es	-0.293244	1.326676	-0.001040	99
Es	-0.480980	2.035216	-0.001653	99
Es	-0.433139	-1.230574	-0.003706	99
Es	2.174295	-2.095875	0.018006	99
Es	-0.482523	-1.380773	0.421472	99
Es	1.051188	0.855379	0.005623	99
Es	-1.207324	0.294057	-0.005969	99
Es	1.044472	0.191176	-0.307918	99
Es	1.122375	-0.522553	0.005479	99
Es	2.744903	-1.232508	-0.587536	99
Es	-2.694739	0.371522	-0.013367	99
Es	-0.322491	-1.190607	0.012248	99
Es	-1.941078	0.323477	-0.009689	99
Es	0.394883	1.134909	0.002381	99
Es	2.344479	-1.375596	0.011371	99
Es	1.715638	-0.956261	0.008402	99
Es	-2.961070	0.045980	-0.617033	99
Es	-0.429938	-1.327255	-0.067071	99
Es	-0.485721	-1.253252	0.103087	99
Es	0.383553	-0.891471	0.000652	99
Es	-0.711095	0.797198	0.311156	99
Es	-2.968220	0.033567	0.580588	99
Es	-0.495480	-1.151713	-0.060793	99
Es	-0.862372	-0.456527	-0.005326	99
Es	-2.913706	1.077000	-0.007491	99
Es	-0.707944	0.797492	-0.317715	99
Es	1.640778	1.291586	0.008876	99
Es	-0.479562	-1.383738	-0.427597	99
Es	1.041094	0.190941	0.318768	99
Es	2.746760	-1.221943	0.606567	99
45
Properties=species:S:1:pos:R:3:Z:I:1 energy=-629.4790676527838 field_type=dipole dipole="0.000000 0.000000 0.000000" charge=0
C	-2.694809	0.371529	-0.013369	6
C	-1.207299	0.294259	-0.005969	6
C	-0.293259	1.326649	-0.001039	6
C	1.051180	0.855349	0.005631	6
C	1.122481	-0.522381	0.005491	6
C	2.344541	-1.375631	0.011371	6
S	-0.433569	-1.231281	-0.003259	16
H	-3.032419	1.413319	-0.004639	1
H	-3.114429	-0.123281	0.868771	1
H	-3.104089	-0.105331	-0.910109	1
H	-0.572629	2.373379	-0.002019	1
H	1.923241	1.498219	0.010401	1
H	2.109181	-2.444681	0.021451	1
H	2.952231	-1.157221	0.895661	1
H	2.949650	-1.172891	-0.878379	1
Es	-0.707759	0.797617	-0.317385	99
Es	-1.207321	0.294062	-0.005976	99
Es	2.744986	-1.232588	-0.587538	99
Es	-0.389287	-1.297620	-0.087445	99
Es	-0.862097	-0.456669	-0.004456	99
Es	-0.293249	1.326670	-0.001038	99
Es	-0.483737	-1.384082	0.420654	99
Es	2.174275	-2.095827	0.018062	99
Es	-2.913694	1.076891	-0.007532	99
Es	1.044454	0.191352	-0.307531	99
Es	-0.433555	-1.231033	-0.003291	99
Es	0.394892	1.134922	0.002149	99
Es	-0.362316	-1.139445	0.011653	99
Es	1.640867	1.291639	0.008867	99
Es	2.746732	-1.221988	0.606526	99
Es	-0.439984	-1.291444	0.098235	99
Es	1.040701	0.191190	0.318480	99
Es	1.122377	-0.522557	0.005490	99
Es	-2.694739	0.371523	-0.013369	99
Es	2.344478	-1.375596	0.011371	99
Es	-2.961053	0.046002	-0.617073	99
Es	-0.481244	2.035230	-0.001636	99
Es	1.715727	-0.956131	0.008449	99
Es	-2.968314	0.033607	0.580606	99
Es	-0.710870	0.797145	0.310662	99
Es	-0.478123	-1.380687	-0.428395	99
Es	1.051186	0.855360	0.005601	99
Es	0.383431	-0.891491	0.001602	99
Es	-0.541951	-1.194061	-0.035529	99
Es	-1.941019	0.323536	-0.009441	99
45
Properties=species:S:1:pos:R:3:Z:I:1 energy=-629.4790676527838 field_type=dipole dipole="0.000000 0.000000 0.000000" charge=0
C	-2.694809	0.371529	-0.013369	6
C	-1.207299	0.294259	-0.005969	6
C	-0.293259	1.326649	-0.001039	6
C	1.051180	0.855349	0.005631	6
C	1.122481	-0.522381	0.005491	6
C	2.344541	-1.375631	0.011371	6
S	-0.433569	-1.231281	-0.003259	16
H	-3.032419	1.413319	-0.004639	1
H	-3.114429	-0.123281	0.868771	1
H	-3.104089	-0.105331	-0.910109	1
H	-0.572629	2.373379	-0.002019	1
H	1.923241	1.498219	0.010401	1
H	2.109181	-2.444681	0.021451	1
H	2.952231	-1.157221	0.895661	1
H	2.949650	-1.172891	-0.878379	1
Es	1.044357	0.191325	-0.307124	99
Es	-2.968201	0.033698	0.580650	99
Es	2.174271	-2.095834	0.018099	99
Es	-0.526951	-1.240978	0.067422	99
Es	-0.479764	-1.383646	-0.427257	99
Es	2.344479	-1.375596	0.011371	99
Es	2.744943	-1.232603	-0.587565	99
Es	-1.941153	0.323757	-0.009497	99
Es	-2.913675	1.076833	-0.007491	99
Es	1.051187	0.855375	0.005635	99
Es	2.746773	-1.221935	0.606517	99
Es	1.640965	1.291566	0.008778	99
Es	-2.694741	0.371523	-0.013369	99
Es	1.715894	-0.956062	0.008390	99
Es	-2.961148	0.045904	-0.617158	99
Es	-0.707586	0.797661	-0.317027	99
Es	-0.481116	2.035264	-0.001658	99
Es	1.040336	0.191312	0.318287	99
Es	-0.710440	0.797253	0.310640	99
Es	1.122377	-0.522558	0.005494	99
Es	0.394808	1.134897	0.002081	99
Es	-0.380136	-1.335859	-0.012735	99
Es	-0.293251	1.326665	-0.001024	99
Es	-0.357146	-1.150479	0.041442	99
Es	-0.483079	-1.381537	0.421247	99
Es	0.383484	-0.891602	0.000784	99
Es	-0.433613	-1.231284	-0.003188	99
Es	-0.468652	-1.194941	-0.109346	99
Es	-0.862109	-0.456649	-0.005656	99
Es	-1.207324	0.294060	-0.005970	99
45
Properties=species:S:1:pos:R:3:Z:I:1 energy=-629.4790676527838 field_type=dipole dipole="0.000000 0.000000 0.000000" charge=0
C	-2.694809	0.371529	-0.013369	6
C	-1.207299	0.294259	-0.005969	6
C	-0.293259	1.326649	-0.001039	6
C	1.051180	0.855349	0.005631	6
C	1.122481	-0.522381	0.005491	6
C	2.344541	-1.375631	0.011371	6
S	-0.433569	-1.231281	-0.003259	16
H	-3.032419	1.413319	-0.004639	1
H	-3.114429	-0.123281	0.868771	1
H	-3.104089	-0.105331	-0.910109	1
H	-0.572629	2.373379	-0.002019	1
H	1.923241	1.498219	0.010401	1
H	2.109181	-2.444681	0.021451	1
H	2.952231	-1.157221	0.895661	1
H	2.949650	-1.172891	-0.878379	1
Es	-0.395279	-1.121988	0.027350	99
Es	-2.694740	0.371523	-0.013368	99
Es	-0.433495	-1.231205	-0.003033	99
Es	-0.345542	-1.289877	-0.050752	99
Es	2.344479	-1.375596	0.011371	99
Es	1.122377	-0.522556	0.005493	99
Es	-1.941167	0.323718	-0.009541	99
Es	1.043843	0.191557	-0.306930	99
Es	1.716033	-0.956025	0.008404	99
Es	-2.961183	0.045871	-0.617103	99
Es	-2.913710	1.076917	-0.007460	99
Es	-0.477156	-1.377219	-0.428476	99
Es	2.744925	-1.232569	-0.587530	99
Es	-0.293250	1.326662	-0.001041	99
Es	0.394896	1.134940	0.002329	99
Es	-0.524072	-1.222963	-0.081945	99
Es	-2.968142	0.033715	0.580582	99
Es	1.051194	0.855379	0.005630	99
Es	-1.207325	0.294059	-0.005964	99
Es	-0.710358	0.797322	0.310375	99
Es	1.641076	1.291536	0.008756	99
Es	-0.468307	-1.287455	0.092094	99
Es	1.040405	0.191388	0.317781	99
Es	-0.485519	-1.388425	0.419902	99
Es	-0.862016	-0.456747	-0.004295	99
Es	2.174269	-2.095868	0.018057	99
Es	2.746784	-1.221933	0.606523	99
Es	-0.481232	2.035265	-0.001777	99
Es	0.383261	-0.891562	0.002132	99
Es	-0.707256	0.797663	-0.316790	99
45
Properties=species:S:1:pos:R:3:Z:I:1 energy=-629.4790676527838 field_type=dipole dipole="0.000000 0.000000 0.000000" charge=0
C	-2.694809	0.371529	-0.013369	6
C	-1.207299	0.294259	-0.005969	6
C	-0.293259	1.326649	-0.001039	6
C	1.051180	0.855349	0.005631	6
C	1.122481	-0.522381	0.005491	6
C	2.344541	-1.375631	0.011371	6
S	-0.433569	-1.231281	-0.003259	16
H	-3.032419	1.413319	-0.004639	1
H	-3.114429	-0.123281	0.868771	1
H	-3.104089	-0.105331	-0.910109	1
H	-0.572629	2.373379	-0.002019	1
H	1.923241	1.498219	0.010401	1
H	2.109181	-2.444681	0.021451	1
H	2.952231	-1.157221	0.895661	1
H	2.949650	-1.172891	-0.878379	1
Es	1.040108	0.191566	0.317678	99
Es	-0.480553	-1.385782	-0.426474	99
Es	1.043795	0.191737	-0.306558	99
Es	-1.207323	0.294060	-0.005969	99
Es	-0.433243	-1.231494	-0.003497	99
Es	-2.968128	0.033687	0.580613	99
Es	1.716128	-0.955943	0.008432	99
Es	-0.481340	2.035396	-0.001658	99
Es	-0.482366	-1.380580	0.421236	99
Es	1.051188	0.855371	0.005631	99
Es	-0.707139	0.797676	-0.316300	99
Es	1.641108	1.291506	0.008813	99
Es	-2.913758	1.076884	-0.007482	99
Es	2.174289	-2.095852	0.018051	99
Es	-2.961136	0.045854	-0.617115	99
Es	-0.862018	-0.456769	-0.005734	99
Es	-0.412277	-1.200670	-0.120571	99
Es	-0.457350	-1.343135	0.007388	99
Es	2.344479	-1.375596	0.011371	99
Es	2.744944	-1.232560	-0.587528	99
Es	2.746779	-1.221952	0.606516	99
Es	-0.710009	0.797197	0.309952	99
Es	-2.694741	0.371523	-0.013368	99
Es	0.383321	-0.891645	0.000291	99
Es	0.394873	1.134879	0.002013	99
Es	1.122378	-0.522555	0.005488	99
Es	-0.293251	1.326665	-0.001049	99
Es	-0.340024	-1.205604	0.063422	99
Es	-1.941276	0.323919	-0.009551	99
Es	-0.523669	-1.172254	0.036732	99
45
Properties=species:S:1:pos:R:3:Z:I:1 energy=-629.4790676527838 field_type=dipole dipole="0.000000 0.000000 0.000000" charge=0
C	-2.694809	0.371529	-0.013369	6
C	-1.207299	0.294259	-0.005969	6
C	-0.293259	1.326649	-0.001039	6
C	1.051180	0.855349	0.005631	6
C	1.122481	-0.522381	0.005491	6
C	2.344541	-1.375631	0.011371	6
S	-0.433569	-1.231281	-0.003259	16
H	-3.032419	1.413319	-0.004639	1
H	-3.114429	-0.123281	0.868771	1
H	-3.104089	-0.105331	-0.910109	1
H	-0.572629	2.373379	-0.002019	1
H	1.923241	1.498219	0.010401	1
H	2.109181	-2.444681	0.021451	1
H	2.952231	-1.157221	0.895661	1
H	2.949650	-1.172891	-0.878379	1
Es	1.122377	-0.522552	0.005495	99
Es	1.044318	0.191515	-0.306252	99
Es	-1.207323	0.294060	-0.005970	99
Es	0.383053	-0.891552	0.002542	99
Es	2.746889	-1.221783	0.606429	99
Es	2.344479	-1.375596	0.011371	99
Es	-0.433634	-1.231447	-0.002899	99
Es	-2.968164	0.033678	0.580619	99
Es	2.744819	-1.232676	-0.587710	99
Es	-0.470209	-1.272104	-0.108217	99
Es	1.716271	-0.955999	0.008429	99
Es	-2.694740	0.371522	-0.013369	99
Es	1.641226	1.291531	0.008872	99
Es	-0.707233	0.797715	-0.316041	99
Es	-2.961135	0.045897	-0.617064	99
Es	-0.481419	2.035377	-0.001701	99
Es	-0.485925	-1.389417	0.419144	99
Es	-0.477139	-1.377393	-0.428660	99
Es	-2.913745	1.076899	-0.007506	99
Es	2.174270	-2.095834	0.018278	99
Es	-0.293242	1.326681	-0.001043	99
Es	-0.709468	0.797109	0.309635	99
Es	-0.315105	-1.219730	-0.003877	99
Es	-0.482426	-1.125905	0.015963	99
Es	-1.941272	0.324055	-0.009670	99
Es	1.051187	0.855374	0.005636	99
Es	-0.861957	-0.456924	-0.003790	99
Es	0.394896	1.134811	0.002150	99
Es	-0.465096	-1.303896	0.082805	99
Es	1.039237	0.192113	0.317177	99
45
Properties=species:S:1:pos:R:3:Z:I:1 energy=-629.4790676527838 field_type=dipole dipole="0.000000 0.000000 0.000000" charge=0
C	-2.694809	0.371529	-0.013369	6
C	-1.207299	0.294259	-0.005969	6
C	-0.293259	1.326649	-0.001039	6
C	1.051180	0.855349	0.005631	6
C	1.122481	-0.522381	0.005491	6
C	2.344541	-1.375631	0.011371	6
S	-0.433569	-1.231281	-0.003259	16
H	-3.032419	1.413319	-0.004639	1
H	-3.114429	-0.123281	0.868771	1
H	-3.104089	-0.105331	-0.910109	1
H	-0.572629	2.373379	-0.002019	1
H	1.923241	1.498219	0.010401	1
H	2.109181	-2.444681	0.021451	1
H	2.952231	-1.157221	0.895661	1
H	2.949650	-1.172891	-0.878379	1
Es	-2.961103	0.045853	-0.617090	99
Es	-0.481447	2.035397	-0.001674	99
Es	2.744939	-1.232555	-0.587593	99
Es	-0.706477	0.797614	-0.315895	99
Es	1.051188	0.855377	0.005632	99
Es	-0.393403	-1.121833	-0.032592	99
Es	0.382988	-0.891592	0.000740	99
Es	-0.293245	1.326675	-0.001039	99
Es	-2.694741	0.371523	-0.013369	99
Es	2.344482	-1.375597	0.011368	99
Es	-0.392727	-1.257150	0.100619	99
Es	-2.968127	0.033672	0.580540	99
Es	1.039946	0.191688	0.316836	99
Es	2.174268	-2.095782	0.018044	99
Es	-0.552472	-1.231640	0.000656	99
Es	-0.479754	-1.385022	-0.427088	99
Es	-1.207315	0.294064	-0.005964	99
Es	-0.861931	-0.456982	-0.005274	99
Es	-1.941349	0.324218	-0.009501	99
Es	1.122379	-0.522551	0.005490	99
Es	0.394916	1.134816	0.002379	99
Es	-0.394741	-1.310935	-0.081556	99
Es	-0.709752	0.797247	0.309267	99
Es	1.043127	0.192129	-0.306160	99
Es	-2.913817	1.076917	-0.007465	99
Es	1.641300	1.291504	0.008984	99
Es	-0.433775	-1.231536	-0.003324	99
Es	-0.482740	-1.382155	0.420732	99
Es	2.746797	-1.221954	0.606585	99
Es	1.716378	-0.955883	0.008484	99
45
Properties=species:S:1:pos:R:3:Z:I:1 energy=-629.4790676527838 field_type=dipole dipole="0.000000 0.000000 0.000000" charge=0
C	-2.694809	0.371529	-0.013369	6
C	-1.207299	0.294259	-0.005969	6
C	-0.293259	1.326649	-0.001039	6
C	1.051180	0.855349	0.005631	6
C	1.122481	-0.522381	0.005491	6
C	2.344541	-1.375631	0.011371	6
S	-0.433569	-1.231281	-0.003259	16
H	-3.032419	1.413319	-0.004639	1
H	-3.114429	-0.123281	0.868771	1
H	-3.104089	-0.105331	-0.910109	1
H	-0.572629	2.373379	-0.002019	1
H	1.923241	1.498219	0.010401	1
H	2.109181	-2.444681	0.021451	1
H	2.952231	-1.157221	0.895661	1
H	2.949650	-1.172891	-0.878379	1
Es	-1.207318	0.294063	-0.005976	99
Es	2.744834	-1.232574	-0.587600	99
Es	-2.961147	0.045848	-0.617088	99
Es	1.641348	1.291447	0.008881	99
Es	2.344478	-1.375596	0.011371	99
Es	-0.481522	2.035433	-0.001697	99
Es	-0.480932	-1.387326	-0.426469	99
Es	-0.536257	-1.209108	-0.056354	99
Es	2.746890	-1.221873	0.606359	99
Es	-2.913787	1.076864	-0.007500	99
Es	-1.941334	0.324290	-0.009512	99
Es	-0.397861	-1.334801	-0.035433	99
Es	-0.351788	-1.149817	-0.036884	99
Es	1.043187	0.192031	-0.305858	99
Es	-2.694739	0.371522	-0.013369	99
Es	-0.482392	-1.380284	0.420957	99
Es	-0.706446	0.797687	-0.315547	99
Es	1.122380	-0.522558	0.005493	99
Es	-0.447096	-1.227800	0.115735	99
Es	0.382906	-0.891650	0.000346	99
Es	2.174241	-2.095935	0.018171	99
Es	-0.709305	0.797261	0.309106	99
Es	0.394906	1.134876	0.002384	99
Es	1.716549	-0.955707	0.008568	99
Es	1.051188	0.855375	0.005632	99
Es	-2.968154	0.033733	0.580575	99
Es	-0.433559	-1.231380	-0.003231	99
Es	-0.293243	1.326677	-0.001034	99
Es	1.039578	0.191877	0.316619	99
Es	-0.861814	-0.457045	-0.005875	99
45
Properties=species:S:1:pos:R:3:Z:I:1 energy=-629.4790676527838 field_type=dipole dipole="0.000000 0.000000 0.000000" charge=0
C	-2.694809	0.371529	-0.013369	6
C	-1.207299	0.294259	-0.005969	6
C	-0.293259	1.326649	-0.001039	6
C	1.051180	0.855349	0.005631	6
C	1.122481	-0.522381	0.005491	6
C	2.344541	-1.375631	0.011371	6
S	-0.433569	-1.231281	-0.003259	16
H	-3.032419	1.413319	-0.004639	1
H	-3.114429	-0.123281	0.868771	1
H	-3.104089	-0.105331	-0.910109	1
H	-0.572629	2.373379	-0.002019	1
H	1.923241	1.498219	0.010401	1
H	2.109181	-2.444681	0.021451	1
H	2.952231	-1.157221	0.895661	1
H	2.949650	-1.172891	-0.878379	1
Es	-0.424315	-1.328474	-0.072331	99
Es	2.744952	-1.232575	-0.587600	99
Es	-2.961136	0.045843	-0.617120	99
Es	1.039611	0.192002	0.316305	99
Es	1.122379	-0.522553	0.005490	99
Es	-2.694740	0.371523	-0.013369	99
Es	-0.357835	-1.148140	-0.039967	99
Es	-0.433663	-1.231149	-0.003130	99
Es	1.716586	-0.955738	0.008492	99
Es	0.382722	-0.891625	0.000155	99
Es	-0.709373	0.797270	0.308739	99
Es	-0.293247	1.326673	-0.001037	99
Es	-0.408904	-1.256571	0.108561	99
Es	2.344480	-1.375597	0.011371	99
Es	-1.941488	0.324312	-0.009497	99
Es	1.051189	0.855378	0.005631	99
Es	-2.913758	1.076923	-0.007459	99
Es	-0.480606	-1.387830	-0.426218	99
Es	-0.481593	2.035499	-0.001673	99
Es	1.042881	0.192347	-0.305532	99
Es	-1.207326	0.294065	-0.005978	99
Es	-0.481941	-1.380284	0.420999	99
Es	2.746798	-1.221919	0.606499	99
Es	-0.706111	0.797579	-0.315243	99
Es	-2.968110	0.033698	0.580577	99
Es	-0.542394	-1.188503	-0.009459	99
Es	1.641412	1.291473	0.008898	99
Es	2.174243	-2.095828	0.018115	99
Es	-0.861793	-0.457019	-0.005756	99
Es	0.394869	1.134752	0.002308	99
45
Properties=species:S:1:pos:R:3:Z:I:1 energy=-629.4790676527838 field_type=dipole dipole="0.000000 0.000000 0.000000" charge=0
C	-2.694809	0.371529	-0.013369	6
C	-1.207299	0.294259	-0.005969	6
C	-0.293259	1.326649	-0.001039	6
C	1.051180	0.855349	0.005631	6
C	1.122481	-0.522381	0.005491	6
C	2.344541	-1.375631	0.011371	6
S	-0.433569	-1.231281	-0.003259	16
H	-3.032419	1.413319	-0.004639	1
H	-3.114429	-0.123281	0.868771	1
H	-3.104089	-0.105331	-0.910109	1
H	-0.572629	2.373379	-0.002019	1
H	1.923241	1.498219	0.010401	1
H	2.109181	-2.444681	0.021451	1
H	2.952231	-1.157221	0.895661	1
H	2.949650	-1.172891	-0.878379	1
Es	-0.478442	-1.381831	-0.426532	99
Es	-2.694741	0.371522	-0.013368	99
Es	-1.941500	0.324455	-0.009399	99
Es	1.051188	0.855373	0.005638	99
Es	-0.370210	-1.175961	0.078806	99
Es	2.746834	-1.221939	0.606495	99
Es	1.122376	-0.522555	0.005492	99
Es	-0.547878	-1.196748	0.004970	99
Es	-0.293244	1.326674	-0.001039	99
Es	0.382763	-0.891697	0.001101	99
Es	1.716739	-0.955634	0.008437	99
Es	-2.961073	0.045926	-0.617142	99
Es	-0.708995	0.797136	0.308422	99
Es	-0.425598	-1.347906	0.011826	99
Es	1.042713	0.192435	-0.305207	99
Es	-0.706139	0.797643	-0.315052	99
Es	-0.433558	-1.231236	-0.003285	99
Es	2.174258	-2.095860	0.018052	99
Es	2.744918	-1.232536	-0.587549	99
Es	1.641520	1.291421	0.008877	99
Es	0.394932	1.134801	0.002191	99
Es	-0.484300	-1.387474	0.419462	99
Es	-2.968203	0.033646	0.580555	99
Es	1.039308	0.192120	0.316116	99
Es	-1.207322	0.294062	-0.005965	99
Es	-0.481647	2.035496	-0.001607	99
Es	2.344479	-1.375597	0.011371	99
Es	-0.389863	-1.200007	-0.108828	99
Es	-0.861784	-0.457121	-0.004611	99
Es	-2.913739	1.076920	-0.007457	99
45
Properties=species:S:1:pos:R:3:Z:I:1 energy=-629.4790676527838 field_type=dipole dipole="0.000000 0.000000 0.000000" charge=0
C	-2.694809	0.371529	-0.013369	6
C	-1.207299	0.294259	-0.005969	6
C	-0.293259	1.326649	-0.001039	6
C	1.051180	0.855349	0.005631	6
C	1.122481	-0.522381	0.005491	6
C	2.344541	-1.375631	0.011371	6
S	-0.433569	-1.231281	-0.003259	16
H	-3.032419	1.413319	-0.004639	1
H	-3.114429	-0.123281	0.868771	1
H	-3.104089	-0.105331	-0.910109	1
H	-0.572629	2.373379	-0.002019	1
H	1.923241	1.498219	0.010401	1
H	2.109181	-2.444681	0.021451	1
H	2.952231	-1.157221	0.895661	1
H	2.949650	-1.172891	-0.878379	1
Es	1.641583	1.291406	0.008905	99
Es	-0.705689	0.797539	-0.314667	99
Es	-0.487521	-1.393838	0.417609	99
Es	1.122376	-0.522552	0.005511	99
Es	-0.330782	-1.281418	0.027871	99
Es	-2.694743	0.371524	-0.013368	99
Es	-0.433618	-1.231346	-0.003268	99
Es	1.042701	0.192424	-0.305015	99
Es	2.744978	-1.232559	-0.587553	99
Es	-1.941504	0.324537	-0.009660	99
Es	-0.861764	-0.457243	-0.003066	99
Es	-0.293242	1.326680	-0.001030	99
Es	-0.418598	-1.113592	-0.018112	99
Es	-2.961235	0.045946	-0.617002	99
Es	1.051191	0.855373	0.005625	99
Es	-2.968092	0.033668	0.580571	99
Es	0.395056	1.134838	0.002060	99
Es	-0.468765	-1.276567	-0.103240	99
Es	1.716841	-0.955588	0.008377	99
Es	1.038932	0.192333	0.315876	99
Es	0.382607	-0.891662	0.003458	99
Es	2.174267	-2.095877	0.018120	99
Es	-0.708802	0.797119	0.308171	99
Es	-0.476457	-1.374757	-0.428836	99
Es	2.746766	-1.221876	0.606486	99
Es	2.344480	-1.375597	0.011370	99
Es	-1.207325	0.294062	-0.005968	99
Es	-0.514310	-1.249915	0.080654	99
Es	-0.481801	2.035507	-0.001680	99
Es	-2.913740	1.076958	-0.007428	99
45
Properties=species:S:1:pos:R:3:Z:I:1 energy=-629.4790676527838 field_type=dipole dipole="0.000000 0.000000 0.000000" charge=0
C	-2.694809	0.371529	-0.013369	6
C	-1.207299	0.294259	-0.005969	6
C	-0.293259	1.326649	-0.001039	6
C	1.051180	0.855349	0.005631	6
C	1.122481	-0.522381	0.005491	6
C	2.344541	-1.375631	0.011371	6
S	-0.433569	-1.231281	-0.003259	16
H	-3.032419	1.413319	-0.004639	1
H	-3.114429	-0.123281	0.868771	1
H	-3.104089	-0.105331	-0.910109	1
H	-0.572629	2.373379	-0.002019	1
H	1.923241	1.498219	0.010401	1
H	2.109181	-2.444681	0.021451	1
H	2.952231	-1.157221	0.895661	1
H	2.949650	-1.172891	-0.878379	1
Es	0.394868	1.134742	0.002228	99
Es	2.745017	-1.232480	-0.587531	99
Es	-2.961073	0.045831	-0.617043	99
Es	-2.694742	0.371522	-0.013370	99
Es	-0.505596	-1.299893	-0.050461	99
Es	-0.433830	-1.231765	-0.003682	99
Es	-0.861716	-0.457277	-0.006113	99
Es	1.716987	-0.955523	0.008450	99
Es	1.042439	0.192599	-0.304558	99
Es	1.038968	0.192356	0.315512	99
Es	1.051186	0.855373	0.005631	99
Es	-0.481599	-1.378996	0.420622	99
Es	-0.480629	-1.122412	-0.007717	99
Es	2.174209	-2.095920	0.018062	99
Es	2.746733	-1.221947	0.606471	99
Es	-2.968077	0.033649	0.580619	99
Es	-0.708468	0.797180	0.307928	99
Es	-0.327932	-1.235252	-0.064662	99
Es	-0.482036	-1.390494	-0.425412	99
Es	-0.418444	-1.262911	0.110479	99
Es	2.344480	-1.375596	0.011371	99
Es	-2.913858	1.076923	-0.007519	99
Es	-0.293246	1.326673	-0.001027	99
Es	-1.941597	0.324783	-0.009617	99
Es	0.382591	-0.891664	-0.000233	99
Es	-0.705809	0.797584	-0.314340	99
Es	-0.481776	2.035578	-0.001695	99
Es	1.641687	1.291358	0.008861	99
Es	1.122378	-0.522553	0.005486	99
Es	-1.207322	0.294062	-0.005970	99
