44
Properties=species:S:1:pos:R:3:Z:I:1 energy=-645.4748815646299 field_type=dipole dipole="0.000000 0.000000 0.000000" charge=0
C	-2.496918	0.240575	-0.009980	6
C	-1.009418	0.169425	-0.007230	6
C	-0.098248	1.204235	0.003950	6
C	1.248102	0.733695	-0.007460	6
C	1.324352	-0.639675	-0.031310	6
N	2.441312	-1.389775	-0.061400	7
S	-0.228008	-1.352315	-0.023670	16
H	-2.838638	1.281055	-0.001250	1
H	-2.912138	-0.255575	0.873310	1
H	-2.906908	-0.238065	-0.905540	1
H	-0.378608	2.250375	0.014630	1
H	2.116692	1.379425	-0.007210	1
H	2.379112	-2.394245	0.068360	1
H	3.359312	-0.989135	0.094800	1
Es	-0.297356	-1.297170	0.052255	99
Es	-0.554602	0.659092	-0.320958	99
Es	-0.098229	1.204267	0.003941	99
Es	-1.009433	0.169207	-0.007233	99
Es	-0.256508	-1.518784	0.409318	99
Es	0.607918	-1.015627	-0.032040	99
Es	-0.650225	-0.587679	-0.015532	99
Es	-0.186903	-1.273282	-0.095599	99
Es	1.230306	0.142701	-0.326495	99
Es	1.248112	0.733689	-0.007506	99
Es	-2.496853	0.240568	-0.009980	99
Es	1.232341	0.135853	0.293429	99
Es	-0.554080	0.653244	0.317795	99
Es	2.970806	-1.144689	0.063096	99
Es	-0.272447	-1.527120	-0.453440	99
Es	1.966591	-1.079593	0.056466	99
Es	2.370031	-1.339848	-0.308035	99
Es	-1.743222	0.190876	-0.008113	99
Es	-0.135998	-1.402092	0.034614	99
Es	-0.290863	-1.434529	-0.085874	99
Es	2.396207	-1.979511	0.046827	99
Es	-0.285757	1.912124	0.011423	99
Es	0.590298	1.010020	-0.000194	99
Es	1.324342	-0.639944	-0.031318	99
Es	1.841421	1.169486	-0.006048	99
Es	-2.770317	-0.099128	0.586229	99
Es	2.441051	-1.389625	-0.060618	99
Es	-2.766680	-0.087126	-0.614294	99
Es	-0.227981	-1.352314	-0.023662	99
Es	-2.718048	0.945172	-0.003816	99
44
Properties=species:S:1:pos:R:3:Z:I:1 energy=-645.4748815646299 field_type=dipole dipole="0.000000 0.000000 0.000000" charge=0
C	-2.496918	0.240575	-0.009980	6
C	-1.009418	0.169425	-0.007230	6
C	-0.098248	1.204235	0.003950	6
C	1.248102	0.733695	-0.007460	6
C	1.324352	-0.639675	-0.031310	6
N	2.441312	-1.389775	-0.061400	7
S	-0.228008	-1.352315	-0.023670	16
H	-2.838638	1.281055	-0.001250	1
H	-2.912138	-0.255575	0.873310	1
H	-2.906908	-0.238065	-0.905540	1
H	-0.378608	2.250375	0.014630	1
H	2.116692	1.379425	-0.007210	1
H	2.379112	-2.394245	0.068360	1
H	3.359312	-0.989135	0.094800	1
Es	-2.766726	-0.087292	-0.614265	99
Es	-2.496848	0.240568	-0.009980	99
Es	-0.127018	-1.290954	-0.005876	99
Es	2.370777	-1.340207	-0.309206	99
Es	-0.554732	0.659348	-0.320442	99
Es	-0.233210	-1.440564	0.052314	99
Es	-1.743251	0.191030	-0.008284	99
Es	-0.256504	-1.519539	0.409294	99
Es	1.231521	0.136842	0.293611	99
Es	-2.718084	0.945158	-0.003898	99
Es	1.248115	0.733694	-0.007480	99
Es	-0.553748	0.652962	0.317902	99
Es	2.441094	-1.389659	-0.060689	99
Es	-0.321369	-1.281059	-0.006866	99
Es	1.230843	0.142007	-0.325948	99
Es	-2.770228	-0.098993	0.586280	99
Es	-1.009429	0.169225	-0.007228	99
Es	-0.650235	-0.587748	-0.015798	99
Es	1.841513	1.169386	-0.006234	99
Es	0.607878	-1.015721	-0.032228	99
Es	2.970325	-1.144714	0.064088	99
Es	2.396066	-1.979157	0.047700	99
Es	-0.272577	-1.527008	-0.452932	99
Es	-0.098231	1.204266	0.003952	99
Es	1.324341	-0.639945	-0.031321	99
Es	-0.285748	1.912125	0.011354	99
Es	-0.229459	-1.394174	-0.134369	99
Es	-0.227996	-1.352303	-0.023670	99
Es	1.966497	-1.079425	0.055833	99
Es	0.590348	1.010086	-0.000974	99
44
Properties=species:S:1:pos:R:3:Z:I:1 energy=-645.4748815646299 field_type=dipole dipole="0.000000 0.000000 0.000000" charge=0
C	-2.496918	0.240575	-0.009980	6
C	-1.009418	0.169425	-0.007230	6
C	-0.098248	1.204235	0.003950	6
C	1.248102	0.733695	-0.007460	6
C	1.324352	-0.639675	-0.031310	6
N	2.441312	-1.389775	-0.061400	7
S	-0.228008	-1.352315	-0.023670	16
H	-2.838638	1.281055	-0.001250	1
H	-2.912138	-0.255575	0.873310	1
H	-2.906908	-0.238065	-0.905540	1
H	-0.378608	2.250375	0.014630	1
H	2.116692	1.379425	-0.007210	1
H	2.379112	-2.394245	0.068360	1
H	3.359312	-0.989135	0.094800	1
Es	1.968210	-1.080405	0.059109	99
Es	2.396314	-1.979252	0.047351	99
Es	-1.743328	0.191173	-0.008151	99
Es	-0.223605	-1.449496	0.031132	99
Es	-1.009431	0.169213	-0.007238	99
Es	0.607729	-1.015707	-0.031977	99
Es	-0.229653	-1.350000	-0.023910	99
Es	1.231507	0.136641	0.293343	99
Es	-0.098231	1.204263	0.003957	99
Es	-0.272245	-1.527554	-0.452941	99
Es	2.440973	-1.389580	-0.060557	99
Es	1.248114	0.733689	-0.007429	99
Es	-0.285904	1.912134	0.011428	99
Es	-0.199091	-1.370759	-0.138521	99
Es	1.324346	-0.639947	-0.031321	99
Es	-2.496853	0.240568	-0.009979	99
Es	-0.336098	-1.316812	-0.016754	99
Es	-0.554396	0.659281	-0.320284	99
Es	-0.256423	-1.519267	0.409079	99
Es	1.230590	0.142247	-0.325856	99
Es	-2.770272	-0.099022	0.586290	99
Es	0.590464	1.010082	-0.000834	99
Es	-2.718083	0.945173	-0.003931	99
Es	-0.151010	-1.272049	0.029620	99
Es	-0.553605	0.653122	0.317361	99
Es	-2.766677	-0.087266	-0.614245	99
Es	-0.650326	-0.587783	-0.015821	99
Es	2.368560	-1.339095	-0.310910	99
Es	1.841568	1.169393	-0.006151	99
Es	2.970779	-1.144747	0.062779	99
44
Properties=species:S:1:pos:R:3:Z:I:1 energy=-645.4748815646299 field_type=dipole dipole="0.000000 0.000000 0.000000" charge=0
C	-2.496918	0.240575	-0.009980	6
C	-1.009418	0.169425	-0.007230	6
C	-0.098248	1.204235	0.003950	6
C	1.248102	0.733695	-0.007460	6
C	1.324352	-0.639675	-0.031310	6
N	2.441312	-1.389775	-0.061400	7
S	-0.228008	-1.352315	-0.023670	16
H	-2.838638	1.281055	-0.001250	1
H	-2.912138	-0.255575	0.873310	1
H	-2.906908	-0.238065	-0.905540	1
H	-0.378608	2.250375	0.014630	1
H	2.116692	1.379425	-0.007210	1
H	2.379112	-2.394245	0.068360	1
H	3.359312	-0.989135	0.094800	1
Es	-0.224311	-1.323337	-0.134754	99
Es	2.369263	-1.339139	-0.313538	99
Es	-0.650299	-0.587797	-0.015407	99
Es	0.607596	-1.015742	-0.031318	99
Es	-0.271653	-1.524785	-0.453404	99
Es	1.248115	0.733692	-0.007462	99
Es	-0.554144	0.659378	-0.320095	99
Es	-0.129363	-1.408463	0.001886	99
Es	1.968467	-1.080556	0.059173	99
Es	-2.718144	0.945222	-0.003909	99
Es	-2.496852	0.240567	-0.009980	99
Es	-0.285947	1.912211	0.011405	99
Es	2.396114	-1.978703	0.048310	99
Es	-0.227989	-1.352307	-0.023572	99
Es	0.590416	1.010108	-0.000589	99
Es	-0.553386	0.653143	0.317111	99
Es	-1.743350	0.191202	-0.008021	99
Es	1.841620	1.169343	-0.006088	99
Es	-0.318361	-1.424032	-0.006534	99
Es	1.230083	0.142762	-0.325807	99
Es	-2.770305	-0.099052	0.586182	99
Es	2.970010	-1.144983	0.064515	99
Es	2.441052	-1.389629	-0.060649	99
Es	1.324342	-0.639945	-0.031319	99
Es	-1.009434	0.169206	-0.007228	99
Es	-0.238813	-1.251103	0.044533	99
Es	-0.098231	1.204269	0.003950	99
Es	1.231808	0.136121	0.292990	99
Es	-0.257767	-1.522160	0.408492	99
Es	-2.766611	-0.087256	-0.614234	99
44
Properties=species:S:1:pos:R:3:Z:I:1 energy=-645.4748815646299 field_type=dipole dipole="0.000000 0.000000 0.000000" charge=0
C	-2.496918	0.240575	-0.009980	6
C	-1.009418	0.169425	-0.007230	6
C	-0.098248	1.204235	0.003950	6
C	1.248102	0.733695	-0.007460	6
C	1.324352	-0.639675	-0.031310	6
N	2.441312	-1.389775	-0.061400	7
S	-0.228008	-1.352315	-0.023670	16
H	-2.838638	1.281055	-0.001250	1
H	-2.912138	-0.255575	0.873310	1
H	-2.906908	-0.238065	-0.905540	1
H	-0.378608	2.250375	0.014630	1
H	2.116692	1.379425	-0.007210	1
H	2.379112	-2.394245	0.068360	1
H	3.359312	-0.989135	0.094800	1
Es	1.841672	1.169370	-0.006110	99
Es	-0.286037	1.912196	0.011455	99
Es	0.590546	1.010051	-0.000785	99
Es	-0.227609	-1.352560	-0.021851	99
Es	-2.770356	-0.099066	0.586169	99
Es	-1.743363	0.191195	-0.008099	99
Es	-0.098230	1.204264	0.003954	99
Es	1.324339	-0.639943	-0.031318	99
Es	2.441058	-1.389636	-0.060583	99
Es	0.607556	-1.015825	-0.031416	99
Es	-1.009434	0.169208	-0.007240	99
Es	2.969543	-1.145110	0.065247	99
Es	-0.277264	-1.455340	-0.048021	99
Es	-2.496851	0.240568	-0.009980	99
Es	1.968873	-1.080726	0.059657	99
Es	2.396154	-1.978638	0.048463	99
Es	1.230168	0.142577	-0.325519	99
Es	1.248114	0.733694	-0.007453	99
Es	1.231486	0.136364	0.292913	99
Es	-0.650229	-0.587904	-0.014700	99
Es	-0.258294	-1.523273	0.407975	99
Es	-0.115178	-1.355354	-0.056598	99
Es	-2.718050	0.945243	-0.003865	99
Es	-0.237461	-1.324668	0.093746	99
Es	-2.766673	-0.087149	-0.614222	99
Es	-0.553889	0.659271	-0.319824	99
Es	-0.281036	-1.271123	-0.085630	99
Es	-0.271677	-1.524089	-0.453474	99
Es	-0.553321	0.653424	0.316722	99
Es	2.369366	-1.338785	-0.314975	99
44
Properties=species:S:1:pos:R:3:Z:I:1 energy=-645.4748815646299 field_type=dipole dipole="0.000000 0.000000 0.000000" charge=0
C	-2.496918	0.240575	-0.009980	6
C	-1.009418	0.169425	-0.007230	6
C	-0.098248	1.204235	0.003950	6
C	1.248102	0.733695	-0.007460	6
C	1.324352	-0.639675	-0.031310	6
N	2.441312	-1.389775	-0.061400	7
S	-0.228008	-1.352315	-0.023670	16
H	-2.838638	1.281055	-0.001250	1
H	-2.912138	-0.255575	0.873310	1
H	-2.906908	-0.238065	-0.905540	1
H	-0.378608	2.250375	0.014630	1
H	2.116692	1.379425	-0.007210	1
H	2.379112	-2.394245	0.068360	1
H	3.359312	-0.989135	0.094800	1
Es	-2.718107	0.945197	-0.003941	99
Es	2.441012	-1.389598	-0.060672	99
Es	-1.009429	0.169216	-0.007234	99
Es	-0.342766	-1.347505	-0.004999	99
Es	-1.743465	0.191448	-0.008128	99
Es	1.230273	0.142406	-0.325386	99
Es	1.841689	1.169370	-0.006094	99
Es	-0.226233	-1.352638	-0.023637	99
Es	-0.177464	-1.383759	0.074352	99
Es	-0.553778	0.659304	-0.319451	99
Es	2.396307	-1.978630	0.048174	99
Es	1.970039	-1.081514	0.061971	99
Es	0.590525	1.009987	-0.000755	99
Es	-0.185170	-1.242058	-0.060500	99
Es	-0.098228	1.204266	0.003946	99
Es	1.248115	0.733696	-0.007449	99
Es	-2.766628	-0.087239	-0.614223	99
Es	-0.271466	-1.525293	-0.453081	99
Es	-2.496855	0.240567	-0.009980	99
Es	2.969919	-1.145129	0.064467	99
Es	-0.553101	0.653296	0.316544	99
Es	2.367745	-1.337982	-0.316096	99
Es	-0.207787	-1.433192	-0.103629	99
Es	-0.257515	-1.522314	0.408312	99
Es	0.607406	-1.015737	-0.031591	99
Es	1.231228	0.136762	0.292693	99
Es	1.324341	-0.639943	-0.031320	99
Es	-0.286091	1.912260	0.011436	99
Es	-0.650280	-0.587962	-0.015341	99
Es	-2.770311	-0.099047	0.586251	99
44
Properties=species:S:1:pos:R:3:Z:I:1 energy=-645.4748815646299 field_type=dipole dipole="0.000000 0.000000 0.000000" charge=0
C	-2.496918	0.240575	-0.009980	6
C	-1.009418	0.169425	-0.007230	6
C	-0.098248	1.204235	0.003950	6
C	1.248102	0.733695	-0.007460	6
C	1.324352	-0.639675	-0.031310	6
N	2.441312	-1.389775	-0.061400	7
S	-0.228008	-1.352315	-0.023670	16
H	-2.838638	1.281055	-0.001250	1
H	-2.912138	-0.255575	0.873310	1
H	-2.906908	-0.238065	-0.905540	1
H	-0.378608	2.250375	0.014630	1
H	2.116692	1.379425	-0.007210	1
H	2.379112	-2.394245	0.068360	1
H	3.359312	-0.989135	0.094800	1
Es	0.607350	-1.015816	-0.032127	99
Es	-0.552846	0.653276	0.316312	99
Es	-2.766675	-0.087186	-0.614224	99
Es	1.324341	-0.639946	-0.031319	99
Es	-2.496854	0.240568	-0.009980	99
Es	-1.743481	0.191560	-0.008194	99
Es	2.367069	-1.338384	-0.317366	99
Es	-0.256549	-1.519021	0.408738	99
Es	2.396353	-1.978120	0.049301	99
Es	-0.144168	-1.349599	0.060593	99
Es	1.232214	0.135155	0.292342	99
Es	1.970710	-1.081769	0.062793	99
Es	-1.009423	0.169217	-0.007249	99
Es	1.248114	0.733701	-0.007471	99
Es	-0.185096	-1.402859	-0.122893	99
Es	-0.098230	1.204263	0.003952	99
Es	2.440820	-1.389490	-0.060513	99
Es	-0.321268	-1.411047	0.015289	99
Es	-0.227999	-1.352289	-0.023673	99
Es	-0.273008	-1.529301	-0.452060	99
Es	2.970141	-1.145010	0.063669	99
Es	-0.650290	-0.587985	-0.016174	99
Es	1.841746	1.169309	-0.006015	99
Es	-0.553620	0.659364	-0.319260	99
Es	-0.260509	-1.242820	-0.047707	99
Es	-2.770260	-0.099102	0.586222	99
Es	1.229052	0.144038	-0.325359	99
Es	-2.718136	0.945187	-0.003853	99
Es	0.590566	1.010037	-0.000672	99
Es	-0.286140	1.912306	0.011537	99
44
Properties=species:S:1:pos:R:3:Z:I:1 energy=-645.4748815646299 field_type=dipole dipole="0.000000 0.000000 0.000000" charge=0
C	-2.496918	0.240575	-0.009980	6
C	-1.009418	0.169425	-0.007230	6
C	-0.098248	1.204235	0.003950	6
C	1.248102	0.733695	-0.007460	6
C	1.324352	-0.639675	-0.031310	6
N	2.441312	-1.389775	-0.061400	7
S	-0.228008	-1.352315	-0.023670	16
H	-2.838638	1.281055	-0.001250	1
H	-2.912138	-0.255575	0.873310	1
H	-2.906908	-0.238065	-0.905540	1
H	-0.378608	2.250375	0.014630	1
H	2.116692	1.379425	-0.007210	1
H	2.379112	-2.394245	0.068360	1
H	3.359312	-0.989135	0.094800	1
Es	-0.650439	-0.588043	-0.015645	99
Es	-0.257984	-1.523395	0.407793	99
Es	0.590629	1.009995	-0.000688	99
Es	1.229963	0.142533	-0.325191	99
Es	-2.496853	0.240569	-0.009980	99
Es	-0.346006	-1.330792	-0.032944	99
Es	-2.718199	0.945232	-0.003897	99
Es	-0.166534	-1.274578	-0.089636	99
Es	-0.271171	-1.525191	-0.452809	99
Es	1.841774	1.169336	-0.005968	99
Es	-0.193759	-1.341364	0.086676	99
Es	-0.098229	1.204265	0.003950	99
Es	-2.766587	-0.087242	-0.614210	99
Es	-0.286269	1.912328	0.011450	99
Es	1.231138	0.136659	0.292187	99
Es	2.367759	-1.337880	-0.318806	99
Es	-0.227750	-1.352481	-0.021859	99
Es	2.396154	-1.978096	0.049209	99
Es	-1.009429	0.169217	-0.007240	99
Es	0.607162	-1.015716	-0.031324	99
Es	2.969408	-1.145270	0.065470	99
Es	1.324342	-0.639944	-0.031321	99
Es	-0.205262	-1.459456	-0.060441	99
Es	1.970809	-1.081846	0.062667	99
Es	1.248116	0.733701	-0.007459	99
Es	-1.743543	0.191674	-0.008121	99
Es	-2.770269	-0.099107	0.586184	99
Es	-0.552579	0.653164	0.316106	99
Es	2.441031	-1.389614	-0.060664	99
Es	-0.553497	0.659579	-0.318850	99
44
Properties=species:S:1:pos:R:3:Z:I:1 energy=-645.4748815646299 field_type=dipole dipole="0.000000 0.000000 0.000000" charge=0
C	-2.496918	0.240575	-0.009980	6
C	-1.009418	0.169425	-0.007230	6
C	-0.098248	1.204235	0.003950	6
C	1.248102	0.733695	-0.007460	6
C	1.324352	-0.639675	-0.031310	6
N	2.441312	-1.389775	-0.061400	7
S	-0.228008	-1.352315	-0.023670	16
H	-2.838638	1.281055	-0.001250	1
H	-2.912138	-0.255575	0.873310	1
H	-2.906908	-0.238065	-0.905540	1
H	-0.378608	2.250375	0.014630	1
H	2.116692	1.379425	-0.007210	1
H	2.379112	-2.394245	0.068360	1
H	3.359312	-0.989135	0.094800	1
Es	2.369247	-1.338662	-0.317467	99
Es	-2.766635	-0.087230	-0.614270	99
Es	2.396008	-1.978095	0.049549	99
Es	-0.188167	-1.401267	0.081890	99
Es	-1.009428	0.169219	-0.007246	99
Es	-0.227983	-1.352477	-0.023730	99
Es	-0.552533	0.653344	0.315624	99
Es	-0.098229	1.204266	0.003951	99
Es	0.590756	1.009939	-0.000597	99
Es	-0.258128	-1.523946	0.407598	99
Es	-0.271075	-1.524737	-0.453011	99
Es	-0.170161	-1.394835	-0.120958	99
Es	1.231112	0.136590	0.292253	99
Es	1.229724	0.142742	-0.325152	99
Es	-2.496853	0.240568	-0.009980	99
Es	-0.212243	-1.241652	-0.020302	99
Es	-1.743635	0.191748	-0.008035	99
Es	2.441107	-1.389677	-0.060897	99
Es	-0.650220	-0.588095	-0.015078	99
Es	-2.718153	0.945181	-0.003860	99
Es	-2.770239	-0.099100	0.586240	99
Es	1.969736	-1.080930	0.060619	99
Es	2.969119	-1.145226	0.066069	99
Es	0.607141	-1.015814	-0.031207	99
Es	-0.553313	0.659480	-0.318616	99
Es	1.841757	1.169346	-0.006058	99
Es	-0.286347	1.912352	0.011396	99
Es	1.248115	0.733688	-0.007462	99
Es	1.324340	-0.639943	-0.031324	99
Es	-0.340898	-1.368540	-0.035300	99
44
Properties=species:S:1:pos:R:3:Z:I:1 energy=-645.4748815646299 field_type=dipole dipole="0.000000 0.000000 0.000000" charge=0
C	-2.496918	0.240575	-0.009980	6
C	-1.009418	0.169425	-0.007230	6
C	-0.098248	1.204235	0.003950	6
C	1.248102	0.733695	-0.007460	6
C	1.324352	-0.639675	-0.031310	6
N	2.441312	-1.389775	-0.061400	7
S	-0.228008	-1.352315	-0.023670	16
H	-2.838638	1.281055	-0.001250	1
H	-2.912138	-0.255575	0.873310	1
H	-2.906908	-0.238065	-0.905540	1
H	-0.378608	2.250375	0.014630	1
H	2.116692	1.379425	-0.007210	1
H	2.379112	-2.394245	0.068360	1
H	3.359312	-0.989135	0.094800	1
Es	-1.009426	0.169220	-0.007230	99
Es	2.366963	-1.337144	-0.320276	99
Es	-2.718138	0.945158	-0.003877	99
Es	-0.291086	-1.292222	-0.101813	99
Es	1.248110	0.733694	-0.007477	99
Es	-0.274456	-1.533267	-0.450556	99
Es	2.969326	-1.145453	0.065503	99
Es	-0.286422	1.912379	0.011496	99
Es	-0.228134	-1.352131	-0.023559	99
Es	0.606955	-1.015748	-0.033433	99
Es	1.324341	-0.639943	-0.031322	99
Es	1.230055	0.142291	-0.324549	99
Es	-0.650301	-0.588201	-0.017342	99
Es	-0.553002	0.659219	-0.318429	99
Es	-0.170202	-1.274803	0.048845	99
Es	1.230648	0.137061	0.292030	99
Es	2.396222	-1.978065	0.049059	99
Es	-2.766569	-0.087172	-0.614295	99
Es	1.841902	1.169304	-0.006146	99
Es	-1.743685	0.191952	-0.008189	99
Es	0.590678	1.009994	-0.000695	99
Es	-2.496855	0.240567	-0.009980	99
Es	-0.552408	0.653550	0.315441	99
Es	-0.098230	1.204264	0.003951	99
Es	-2.770294	-0.099165	0.586277	99
Es	-0.299323	-1.420664	0.038614	99
Es	-0.255552	-1.515421	0.409558	99
Es	2.440985	-1.389585	-0.060647	99
Es	-0.149971	-1.419120	-0.080618	99
Es	1.971793	-1.082313	0.064298	99
44
Properties=species:S:1:pos:R:3:Z:I:1 energy=-645.4748815646299 field_type=dipole dipole="0.000000 0.000000 0.000000" charge=0
C	-2.496918	0.240575	-0.009980	6
C	-1.009418	0.169425	-0.007230	6
C	-0.098248	1.204235	0.003950	6
C	1.248102	0.733695	-0.007460	6
C	1.324352	-0.639675	-0.031310	6
N	2.441312	-1.389775	-0.061400	7
S	-0.228008	-1.352315	-0.023670	16
H	-2.838638	1.281055	-0.001250	1
H	-2.912138	-0.255575	0.873310	1
H	-2.906908	-0.238065	-0.905540	1
H	-0.378608	2.250375	0.014630	1
H	2.116692	1.379425	-0.007210	1
H	2.379112	-2.394245	0.068360	1
H	3.359312	-0.989135	0.094800	1
Es	-0.133696	-1.279575	-0.036054	99
Es	-2.766553	-0.087225	-0.614263	99
Es	2.396327	-1.977798	0.049517	99
Es	0.590723	1.009912	-0.000853	99
Es	1.972644	-1.082696	0.065741	99
Es	-0.244815	-1.373074	0.090432	99
Es	-0.552191	0.653383	0.315255	99
Es	-0.208492	-1.453853	-0.081251	99
Es	-0.552920	0.659476	-0.318142	99
Es	-0.227991	-1.352297	-0.023652	99
Es	-2.496854	0.240567	-0.009981	99
Es	2.440914	-1.389544	-0.060619	99
Es	2.365470	-1.337128	-0.320721	99
Es	-0.270731	-1.523240	-0.453469	99
Es	-1.743699	0.191880	-0.008105	99
Es	1.229864	0.142423	-0.324635	99
Es	0.606878	-1.015763	-0.030638	99
Es	-0.650360	-0.588183	-0.014417	99
Es	-2.770302	-0.099114	0.586174	99
Es	1.248112	0.733684	-0.007426	99
Es	1.841874	1.169325	-0.006086	99
Es	1.324340	-0.639944	-0.031320	99
Es	2.969980	-1.145301	0.064028	99
Es	-0.286487	1.912437	0.011458	99
Es	-0.098229	1.204263	0.003951	99
Es	-0.323773	-1.299886	-0.067459	99
Es	1.230676	0.137005	0.291792	99
Es	-0.259186	-1.525954	0.406498	99
Es	-2.718173	0.945239	-0.003884	99
Es	-1.009427	0.169216	-0.007232	99
