43
Properties=species:S:1:pos:R:3:Z:I:1 energy=-665.308372085807 field_type=dipole dipole="0.000000 0.000000 0.000000" charge=0
C	-1.797719	-0.183191	-0.003544	6
C	-0.307930	-0.109491	-0.000164	6
C	0.431290	1.056799	-0.001324	6
O	-0.021950	2.305559	-0.005074	8
S	2.111681	0.765249	0.002946	16
C	1.883111	-0.925961	0.005986	6
C	0.548560	-1.261521	0.003876	6
H	-2.255899	0.810359	0.007756	1
H	-2.151780	-0.728231	0.877876	1
H	-2.148600	-0.707371	-0.898174	1
H	0.779530	2.856799	-0.004524	1
H	2.734060	-1.593691	0.009126	1
H	0.195640	-2.285311	0.005236	1
Es	-0.021651	2.305421	-0.005099	99
Es	0.304135	-1.948652	0.004837	99
Es	-0.307946	-0.109492	-0.000165	99
Es	2.110537	0.648981	-0.021666	99
Es	2.231261	0.883738	0.431898	99
Es	1.236025	-1.065518	0.320056	99
Es	0.431424	1.057100	-0.001324	99
Es	1.883216	-0.925772	0.005988	99
Es	-2.101410	0.487252	0.004028	99
Es	2.111588	0.764937	0.002842	99
Es	0.088941	-0.710739	0.001619	99
Es	-2.028519	-0.554248	0.592189	99
Es	2.026209	-0.105117	0.004152	99
Es	0.082826	0.392893	0.318569	99
Es	-0.146604	2.320328	0.255003	99
Es	0.548539	-1.261528	0.003875	99
Es	0.083967	0.391973	-0.319191	99
Es	1.237448	-1.067069	-0.310164	99
Es	2.236587	0.884206	-0.424883	99
Es	-1.045526	-0.140320	-0.001600	99
Es	-2.026215	-0.539977	-0.608408	99
Es	0.411620	2.585541	-0.006002	99
Es	2.459356	-1.358948	0.008120	99
Es	0.177877	1.823883	-0.006175	99
Es	-1.797655	-0.183195	-0.003546	99
Es	-0.157458	2.325130	-0.261904	99
Es	2.222876	0.807179	-0.003301	99
Es	2.044256	0.821217	-0.073975	99
Es	2.067170	0.782231	0.110730	99
Es	1.243281	0.952109	-0.000139	99
43
Properties=species:S:1:pos:R:3:Z:I:1 energy=-665.308372085807 field_type=dipole dipole="0.000000 0.000000 0.000000" charge=0
C	-1.797719	-0.183191	-0.003544	6
C	-0.307930	-0.109491	-0.000164	6
C	0.431290	1.056799	-0.001324	6
O	-0.021950	2.305559	-0.005074	8
S	2.111681	0.765249	0.002946	16
C	1.883111	-0.925961	0.005986	6
C	0.548560	-1.261521	0.003876	6
H	-2.255899	0.810359	0.007756	1
H	-2.151780	-0.728231	0.877876	1
H	-2.148600	-0.707371	-0.898174	1
H	0.779530	2.856799	-0.004524	1
H	2.734060	-1.593691	0.009126	1
H	0.195640	-2.285311	0.005236	1
Es	2.235605	0.883457	-0.424983	99
Es	-1.045729	-0.140256	-0.001821	99
Es	2.026244	-0.105009	0.004407	99
Es	2.222041	0.730600	-0.004264	99
Es	2.107869	0.880603	0.035323	99
Es	0.548537	-1.261530	0.003877	99
Es	-2.101393	0.487305	0.003797	99
Es	1.237264	-1.066689	-0.309882	99
Es	0.084056	0.391629	-0.318911	99
Es	0.411463	2.586343	-0.005730	99
Es	0.082867	0.392737	0.318179	99
Es	1.243273	0.952215	0.000485	99
Es	-2.026255	-0.540064	-0.608184	99
Es	0.304204	-1.948777	0.004794	99
Es	-0.152828	2.322406	-0.262416	99
Es	-0.151533	2.322062	0.254188	99
Es	-1.797654	-0.183194	-0.003543	99
Es	1.883210	-0.925773	0.005976	99
Es	2.112090	0.764872	0.003156	99
Es	-2.028475	-0.554167	0.592409	99
Es	0.088935	-0.710660	0.001762	99
Es	0.431424	1.057098	-0.001326	99
Es	1.235883	-1.065598	0.319715	99
Es	2.459248	-1.359063	0.007997	99
Es	2.232817	0.884250	0.431359	99
Es	0.178195	1.824076	-0.005143	99
Es	-0.307946	-0.109491	-0.000189	99
Es	-0.021587	2.305413	-0.005068	99
Es	2.052378	0.697287	0.081598	99
Es	2.061953	0.751463	-0.101201	99
43
Properties=species:S:1:pos:R:3:Z:I:1 energy=-665.308372085807 field_type=dipole dipole="0.000000 0.000000 0.000000" charge=0
C	-1.797719	-0.183191	-0.003544	6
C	-0.307930	-0.109491	-0.000164	6
C	0.431290	1.056799	-0.001324	6
O	-0.021950	2.305559	-0.005074	8
S	2.111681	0.765249	0.002946	16
C	1.883111	-0.925961	0.005986	6
C	0.548560	-1.261521	0.003876	6
H	-2.255899	0.810359	0.007756	1
H	-2.151780	-0.728231	0.877876	1
H	-2.148600	-0.707371	-0.898174	1
H	0.779530	2.856799	-0.004524	1
H	2.734060	-1.593691	0.009126	1
H	0.195640	-2.285311	0.005236	1
Es	0.082812	0.392570	0.317884	99
Es	0.084014	0.391479	-0.318751	99
Es	-2.101476	0.487210	0.003965	99
Es	1.235674	-1.065464	0.319381	99
Es	0.411618	2.586433	-0.005194	99
Es	2.459187	-1.359145	0.008094	99
Es	2.047674	0.863397	0.028958	99
Es	-2.028435	-0.554312	0.592329	99
Es	2.234509	0.886198	0.430564	99
Es	-1.797653	-0.183194	-0.003543	99
Es	2.199748	0.790014	-0.075504	99
Es	1.883215	-0.925773	0.005999	99
Es	2.234359	0.881981	-0.425498	99
Es	2.026428	-0.105101	0.005326	99
Es	0.304238	-1.948868	0.004775	99
Es	2.154557	0.717776	0.101120	99
Es	0.177923	1.824042	-0.001303	99
Es	0.089039	-0.710504	0.001996	99
Es	-2.026231	-0.539957	-0.608295	99
Es	1.237094	-1.066543	-0.309723	99
Es	0.548537	-1.261529	0.003877	99
Es	-0.307945	-0.109490	-0.000162	99
Es	-0.153685	2.324252	0.251839	99
Es	-0.150697	2.320154	-0.264428	99
Es	-0.021575	2.305406	-0.005070	99
Es	1.243504	0.952070	0.000497	99
Es	2.041939	0.689550	-0.043365	99
Es	2.112086	0.764076	0.003740	99
Es	0.431425	1.057105	-0.001335	99
Es	-1.045728	-0.140287	-0.001808	99
43
Properties=species:S:1:pos:R:3:Z:I:1 energy=-665.308372085807 field_type=dipole dipole="0.000000 0.000000 0.000000" charge=0
C	-1.797719	-0.183191	-0.003544	6
C	-0.307930	-0.109491	-0.000164	6
C	0.431290	1.056799	-0.001324	6
O	-0.021950	2.305559	-0.005074	8
S	2.111681	0.765249	0.002946	16
C	1.883111	-0.925961	0.005986	6
C	0.548560	-1.261521	0.003876	6
H	-2.255899	0.810359	0.007756	1
H	-2.151780	-0.728231	0.877876	1
H	-2.148600	-0.707371	-0.898174	1
H	0.779530	2.856799	-0.004524	1
H	2.734060	-1.593691	0.009126	1
H	0.195640	-2.285311	0.005236	1
Es	0.083114	0.391749	0.317910	99
Es	2.459140	-1.359293	0.008100	99
Es	0.177418	1.823599	-0.003227	99
Es	1.243580	0.952018	-0.001082	99
Es	2.111631	0.765226	0.002936	99
Es	0.088899	-0.710536	0.001449	99
Es	1.235441	-1.065044	0.319275	99
Es	2.155379	0.812262	0.102789	99
Es	2.242386	0.888512	-0.423439	99
Es	0.411908	2.586036	-0.004784	99
Es	0.083903	0.391919	-0.318358	99
Es	-2.026197	-0.539943	-0.608308	99
Es	-0.021602	2.305416	-0.005094	99
Es	1.236906	-1.066704	-0.309270	99
Es	-1.045799	-0.140063	-0.001771	99
Es	-2.101505	0.487187	0.003971	99
Es	-2.028458	-0.554331	0.592303	99
Es	0.431424	1.057100	-0.001323	99
Es	0.304315	-1.948923	0.004749	99
Es	-0.150980	2.321688	-0.263483	99
Es	-1.797656	-0.183194	-0.003543	99
Es	0.548536	-1.261529	0.003875	99
Es	2.227156	0.879810	0.432484	99
Es	-0.307943	-0.109487	-0.000163	99
Es	2.026338	-0.104813	0.003041	99
Es	-0.153160	2.323539	0.252432	99
Es	2.021077	0.831090	-0.036201	99
Es	1.883214	-0.925772	0.005984	99
Es	2.073014	0.656219	0.024854	99
Es	2.194677	0.759807	-0.079743	99
43
Properties=species:S:1:pos:R:3:Z:I:1 energy=-665.308372085807 field_type=dipole dipole="0.000000 0.000000 0.000000" charge=0
C	-1.797719	-0.183191	-0.003544	6
C	-0.307930	-0.109491	-0.000164	6
C	0.431290	1.056799	-0.001324	6
O	-0.021950	2.305559	-0.005074	8
S	2.111681	0.765249	0.002946	16
C	1.883111	-0.925961	0.005986	6
C	0.548560	-1.261521	0.003876	6
H	-2.255899	0.810359	0.007756	1
H	-2.151780	-0.728231	0.877876	1
H	-2.148600	-0.707371	-0.898174	1
H	0.779530	2.856799	-0.004524	1
H	2.734060	-1.593691	0.009126	1
H	0.195640	-2.285311	0.005236	1
Es	0.089015	-0.710565	0.001930	99
Es	-2.028493	-0.554223	0.592288	99
Es	0.411614	2.586771	-0.004400	99
Es	0.082780	0.392716	0.317330	99
Es	1.243639	0.951969	-0.000444	99
Es	2.459066	-1.359339	0.008034	99
Es	-2.026296	-0.539968	-0.608302	99
Es	0.548536	-1.261523	0.003876	99
Es	2.186263	0.776207	-0.087908	99
Es	2.144826	0.674536	0.071060	99
Es	0.177825	1.823851	-0.002827	99
Es	-1.045815	-0.140090	-0.001732	99
Es	-0.154022	2.323342	0.251885	99
Es	2.238790	0.885521	-0.424282	99
Es	2.230881	0.883225	0.431502	99
Es	-1.797656	-0.183193	-0.003544	99
Es	1.883212	-0.925774	0.005985	99
Es	1.236712	-1.066365	-0.309322	99
Es	0.304307	-1.948944	0.004824	99
Es	0.431427	1.057105	-0.001327	99
Es	1.235265	-1.065133	0.319104	99
Es	0.084288	0.390612	-0.318288	99
Es	-0.307942	-0.109489	-0.000166	99
Es	-0.150353	2.320887	-0.263742	99
Es	2.111237	0.863719	0.066415	99
Es	-0.021592	2.305413	-0.005076	99
Es	-2.101436	0.487174	0.003964	99
Es	2.001940	0.744805	-0.037806	99
Es	2.026544	-0.104927	0.004266	99
Es	2.111596	0.765226	0.003065	99
43
Properties=species:S:1:pos:R:3:Z:I:1 energy=-665.308372085807 field_type=dipole dipole="0.000000 0.000000 0.000000" charge=0
C	-1.797719	-0.183191	-0.003544	6
C	-0.307930	-0.109491	-0.000164	6
C	0.431290	1.056799	-0.001324	6
O	-0.021950	2.305559	-0.005074	8
S	2.111681	0.765249	0.002946	16
C	1.883111	-0.925961	0.005986	6
C	0.548560	-1.261521	0.003876	6
H	-2.255899	0.810359	0.007756	1
H	-2.151780	-0.728231	0.877876	1
H	-2.148600	-0.707371	-0.898174	1
H	0.779530	2.856799	-0.004524	1
H	2.734060	-1.593691	0.009126	1
H	0.195640	-2.285311	0.005236	1
Es	-2.028457	-0.554324	0.592209	99
Es	2.108025	0.767291	0.003758	99
Es	0.411559	2.587181	-0.005360	99
Es	-2.101455	0.487198	0.004101	99
Es	1.235169	-1.065035	0.318627	99
Es	0.548537	-1.261529	0.003876	99
Es	-2.026300	-0.539886	-0.608365	99
Es	2.141918	0.796407	0.114043	99
Es	0.177870	1.823779	-0.002908	99
Es	2.002867	0.759789	-0.003530	99
Es	2.235202	0.886315	0.430282	99
Es	0.082730	0.392606	0.316970	99
Es	2.152864	0.843314	-0.080499	99
Es	2.150096	0.657100	-0.018896	99
Es	-0.151796	2.320935	-0.262947	99
Es	-1.045916	-0.140102	-0.001745	99
Es	0.084369	0.390376	-0.318255	99
Es	0.431424	1.057099	-0.001324	99
Es	2.459068	-1.359410	0.008127	99
Es	2.026397	-0.104701	0.004758	99
Es	-0.152624	2.322937	0.252123	99
Es	-0.021581	2.305419	-0.005044	99
Es	-0.307948	-0.109493	-0.000167	99
Es	1.243777	0.951893	0.001181	99
Es	0.089009	-0.710345	0.002237	99
Es	1.883213	-0.925774	0.005966	99
Es	-1.797656	-0.183194	-0.003544	99
Es	1.236508	-1.066305	-0.308942	99
Es	0.304342	-1.949074	0.004797	99
Es	2.234944	0.883083	-0.425165	99
43
Properties=species:S:1:pos:R:3:Z:I:1 energy=-665.308372085807 field_type=dipole dipole="0.000000 0.000000 0.000000" charge=0
C	-1.797719	-0.183191	-0.003544	6
C	-0.307930	-0.109491	-0.000164	6
C	0.431290	1.056799	-0.001324	6
O	-0.021950	2.305559	-0.005074	8
S	2.111681	0.765249	0.002946	16
C	1.883111	-0.925961	0.005986	6
C	0.548560	-1.261521	0.003876	6
H	-2.255899	0.810359	0.007756	1
H	-2.151780	-0.728231	0.877876	1
H	-2.148600	-0.707371	-0.898174	1
H	0.779530	2.856799	-0.004524	1
H	2.734060	-1.593691	0.009126	1
H	0.195640	-2.285311	0.005236	1
Es	2.026564	-0.104668	0.004261	99
Es	-0.307943	-0.109485	-0.000185	99
Es	0.089018	-0.710294	0.001721	99
Es	2.111673	0.765236	0.002954	99
Es	0.411636	2.586999	-0.004748	99
Es	2.168432	0.859767	0.044170	99
Es	-1.797656	-0.183193	-0.003544	99
Es	-0.147810	2.319399	-0.263645	99
Es	0.083026	0.391780	0.317100	99
Es	0.431423	1.057101	-0.001326	99
Es	1.236392	-1.066300	-0.308614	99
Es	0.177639	1.823700	-0.002025	99
Es	0.548543	-1.261526	0.003883	99
Es	-0.156487	2.324748	0.251318	99
Es	-2.028440	-0.554177	0.592254	99
Es	2.189335	0.678389	-0.018882	99
Es	2.458991	-1.359543	0.008091	99
Es	-2.101450	0.487218	0.003994	99
Es	1.243824	0.951781	-0.000167	99
Es	2.238721	0.885454	-0.424232	99
Es	1.234980	-1.064755	0.318487	99
Es	2.054311	0.793033	-0.096355	99
Es	-1.045984	-0.140117	-0.001739	99
Es	0.084173	0.390826	-0.317758	99
Es	2.032315	0.727884	0.082602	99
Es	1.883213	-0.925773	0.005982	99
Es	0.304387	-1.949140	0.004791	99
Es	-2.026323	-0.540028	-0.608313	99
Es	-0.021633	2.305394	-0.005036	99
Es	2.231287	0.883837	0.431325	99
43
Properties=species:S:1:pos:R:3:Z:I:1 energy=-665.308372085807 field_type=dipole dipole="0.000000 0.000000 0.000000" charge=0
C	-1.797719	-0.183191	-0.003544	6
C	-0.307930	-0.109491	-0.000164	6
C	0.431290	1.056799	-0.001324	6
O	-0.021950	2.305559	-0.005074	8
S	2.111681	0.765249	0.002946	16
C	1.883111	-0.925961	0.005986	6
C	0.548560	-1.261521	0.003876	6
H	-2.255899	0.810359	0.007756	1
H	-2.151780	-0.728231	0.877876	1
H	-2.148600	-0.707371	-0.898174	1
H	0.779530	2.856799	-0.004524	1
H	2.734060	-1.593691	0.009126	1
H	0.195640	-2.285311	0.005236	1
Es	2.026491	-0.104547	0.005036	99
Es	-0.307945	-0.109490	-0.000155	99
Es	2.165981	0.781985	0.106625	99
Es	-1.046071	-0.139998	-0.001686	99
Es	0.083070	0.391778	0.316819	99
Es	2.235316	0.886518	0.430196	99
Es	0.548538	-1.261529	0.003867	99
Es	1.236170	-1.066128	-0.308303	99
Es	0.431423	1.057096	-0.001326	99
Es	0.177840	1.823466	-0.003465	99
Es	1.883213	-0.925774	0.005984	99
Es	-2.026299	-0.539987	-0.608300	99
Es	0.084219	0.390580	-0.317648	99
Es	-2.028450	-0.554228	0.592300	99
Es	2.175150	0.692696	-0.064606	99
Es	-2.101450	0.487198	0.003974	99
Es	-1.797655	-0.183194	-0.003543	99
Es	-0.151106	2.321293	-0.262724	99
Es	2.235671	0.883075	-0.424940	99
Es	2.458937	-1.359609	0.008021	99
Es	0.411419	2.587448	-0.004421	99
Es	-0.021534	2.305372	-0.005128	99
Es	1.243979	0.951724	0.000668	99
Es	0.088934	-0.710190	0.001675	99
Es	2.005864	0.716081	0.022614	99
Es	1.234830	-1.064765	0.318231	99
Es	2.111541	0.765263	0.002814	99
Es	0.304439	-1.949207	0.004755	99
Es	2.096935	0.867957	-0.052543	99
Es	-0.153296	2.322656	0.251572	99
43
Properties=species:S:1:pos:R:3:Z:I:1 energy=-665.308372085807 field_type=dipole dipole="0.000000 0.000000 0.000000" charge=0
C	-1.797719	-0.183191	-0.003544	6
C	-0.307930	-0.109491	-0.000164	6
C	0.431290	1.056799	-0.001324	6
O	-0.021950	2.305559	-0.005074	8
S	2.111681	0.765249	0.002946	16
C	1.883111	-0.925961	0.005986	6
C	0.548560	-1.261521	0.003876	6
H	-2.255899	0.810359	0.007756	1
H	-2.151780	-0.728231	0.877876	1
H	-2.148600	-0.707371	-0.898174	1
H	0.779530	2.856799	-0.004524	1
H	2.734060	-1.593691	0.009126	1
H	0.195640	-2.285311	0.005236	1
Es	2.026480	-0.104459	0.003493	99
Es	0.089068	-0.710082	0.002126	99
Es	-2.101447	0.487235	0.004155	99
Es	2.111724	0.766484	0.002492	99
Es	2.123949	0.877149	-0.015448	99
Es	1.244028	0.951671	-0.000466	99
Es	-1.046187	-0.140014	-0.001925	99
Es	2.458961	-1.359755	0.008242	99
Es	1.234656	-1.064643	0.317664	99
Es	1.236098	-1.066044	-0.308149	99
Es	-2.026414	-0.539938	-0.608337	99
Es	1.883212	-0.925773	0.005991	99
Es	2.025001	0.721201	-0.068725	99
Es	0.084336	0.390458	-0.317467	99
Es	0.431425	1.057100	-0.001331	99
Es	-0.307944	-0.109489	-0.000163	99
Es	0.083013	0.391588	0.316512	99
Es	2.079023	0.749434	0.113672	99
Es	-0.156354	2.323717	-0.260707	99
Es	-2.028289	-0.554304	0.592288	99
Es	2.231107	0.883003	0.431468	99
Es	2.216071	0.710096	-0.017045	99
Es	-1.797658	-0.183194	-0.003544	99
Es	2.239782	0.886411	-0.423654	99
Es	-0.021641	2.305415	-0.005104	99
Es	0.304397	-1.949278	0.004789	99
Es	-0.147929	2.320144	0.253568	99
Es	0.548536	-1.261532	0.003883	99
Es	0.177538	1.823550	-0.005895	99
Es	0.411614	2.587394	-0.006019	99
43
Properties=species:S:1:pos:R:3:Z:I:1 energy=-665.308372085807 field_type=dipole dipole="0.000000 0.000000 0.000000" charge=0
C	-1.797719	-0.183191	-0.003544	6
C	-0.307930	-0.109491	-0.000164	6
C	0.431290	1.056799	-0.001324	6
O	-0.021950	2.305559	-0.005074	8
S	2.111681	0.765249	0.002946	16
C	1.883111	-0.925961	0.005986	6
C	0.548560	-1.261521	0.003876	6
H	-2.255899	0.810359	0.007756	1
H	-2.151780	-0.728231	0.877876	1
H	-2.148600	-0.707371	-0.898174	1
H	0.779530	2.856799	-0.004524	1
H	2.734060	-1.593691	0.009126	1
H	0.195640	-2.285311	0.005236	1
Es	-2.026284	-0.539918	-0.608368	99
Es	-1.046207	-0.139908	-0.001767	99
Es	0.304568	-1.949337	0.004782	99
Es	2.082346	0.801139	-0.107608	99
Es	-0.150238	2.319870	-0.263325	99
Es	2.235710	0.883133	-0.424572	99
Es	2.458803	-1.359771	0.008085	99
Es	2.187904	0.689072	-0.007108	99
Es	-0.021612	2.305457	-0.005088	99
Es	1.235874	-1.065940	-0.307886	99
Es	0.083542	0.390347	0.316684	99
Es	0.548538	-1.261528	0.003875	99
Es	0.083966	0.391348	-0.316905	99
Es	0.411156	2.588133	-0.004398	99
Es	0.431424	1.057095	-0.001323	99
Es	1.244056	0.951681	0.000691	99
Es	1.883211	-0.925774	0.005985	99
Es	0.178180	1.823775	-0.002228	99
Es	0.088894	-0.710125	0.001267	99
Es	2.015424	0.713777	0.057633	99
Es	2.157971	0.854595	0.068688	99
Es	-2.028504	-0.554270	0.592269	99
Es	2.235720	0.886950	0.430171	99
Es	-2.101408	0.487194	0.004025	99
Es	-0.154316	2.322966	0.250865	99
Es	1.234533	-1.064519	0.317791	99
Es	2.111882	0.765171	0.002917	99
Es	-0.307944	-0.109490	-0.000159	99
Es	-1.797657	-0.183194	-0.003544	99
Es	2.026625	-0.104384	0.004916	99
43
Properties=species:S:1:pos:R:3:Z:I:1 energy=-665.308372085807 field_type=dipole dipole="0.000000 0.000000 0.000000" charge=0
C	-1.797719	-0.183191	-0.003544	6
C	-0.307930	-0.109491	-0.000164	6
C	0.431290	1.056799	-0.001324	6
O	-0.021950	2.305559	-0.005074	8
S	2.111681	0.765249	0.002946	16
C	1.883111	-0.925961	0.005986	6
C	0.548560	-1.261521	0.003876	6
H	-2.255899	0.810359	0.007756	1
H	-2.151780	-0.728231	0.877876	1
H	-2.148600	-0.707371	-0.898174	1
H	0.779530	2.856799	-0.004524	1
H	2.734060	-1.593691	0.009126	1
H	0.195640	-2.285311	0.005236	1
Es	0.177399	1.823377	-0.003376	99
Es	0.411652	2.587658	-0.005109	99
Es	2.026708	-0.104425	0.003646	99
Es	2.241595	0.887715	-0.423136	99
Es	1.244252	0.951516	-0.000454	99
Es	-0.307945	-0.109490	-0.000165	99
Es	2.188160	0.800446	0.085222	99
Es	1.883211	-0.925774	0.005989	99
Es	-0.152513	2.322553	0.251641	99
Es	0.548539	-1.261529	0.003877	99
Es	-1.046263	-0.139955	-0.001521	99
Es	-2.028500	-0.554232	0.592261	99
Es	-0.021602	2.305418	-0.005095	99
Es	-0.151824	2.321189	-0.262202	99
Es	2.111464	0.765300	0.002900	99
Es	2.004923	0.757609	0.050422	99
Es	0.088938	-0.709990	0.001868	99
Es	-2.026257	-0.539975	-0.608381	99
Es	2.143480	0.657299	-0.040457	99
Es	0.083088	0.391626	0.316105	99
Es	-1.797657	-0.183194	-0.003543	99
Es	0.084416	0.389880	-0.317098	99
Es	2.107634	0.843278	-0.083781	99
Es	2.458793	-1.359911	0.008109	99
Es	1.235738	-1.065751	-0.307633	99
Es	2.229775	0.882455	0.431446	99
Es	1.234329	-1.064423	0.317350	99
Es	0.304615	-1.949436	0.004811	99
Es	-2.101418	0.487213	0.003999	99
Es	0.431424	1.057098	-0.001331	99
43
Properties=species:S:1:pos:R:3:Z:I:1 energy=-665.308372085807 field_type=dipole dipole="0.000000 0.000000 0.000000" charge=0
C	-1.797719	-0.183191	-0.003544	6
C	-0.307930	-0.109491	-0.000164	6
C	0.431290	1.056799	-0.001324	6
O	-0.021950	2.305559	-0.005074	8
S	2.111681	0.765249	0.002946	16
C	1.883111	-0.925961	0.005986	6
C	0.548560	-1.261521	0.003876	6
H	-2.255899	0.810359	0.007756	1
H	-2.151780	-0.728231	0.877876	1
H	-2.148600	-0.707371	-0.898174	1
H	0.779530	2.856799	-0.004524	1
H	2.734060	-1.593691	0.009126	1
H	0.195640	-2.285311	0.005236	1
Es	0.088857	-0.710117	0.001693	99
Es	0.304731	-1.949509	0.004761	99
Es	-0.156308	2.324203	-0.259987	99
Es	2.110881	0.762722	0.003732	99
Es	2.184954	0.714708	0.076448	99
Es	-2.028405	-0.554395	0.592313	99
Es	0.411555	2.588166	-0.005192	99
Es	2.158368	0.865423	-0.033639	99
Es	0.084420	0.389991	-0.316855	99
Es	2.094007	0.694792	-0.089216	99
Es	1.244236	0.951598	0.000208	99
Es	-2.026346	-0.539819	-0.608303	99
Es	-0.307945	-0.109490	-0.000166	99
Es	-0.021616	2.305409	-0.005036	99
Es	0.431424	1.057098	-0.001325	99
Es	0.083218	0.391124	0.315931	99
Es	2.238046	0.884405	-0.423741	99
Es	2.458715	-1.359986	0.008021	99
Es	-0.148008	2.319091	0.253063	99
Es	1.234166	-1.064272	0.317321	99
Es	-2.101444	0.487200	0.004098	99
Es	0.177408	1.823299	-0.007035	99
Es	2.234210	0.885626	0.430601	99
Es	2.026691	-0.104311	0.004438	99
Es	-1.046324	-0.139810	-0.001861	99
Es	-1.797655	-0.183194	-0.003542	99
Es	1.235628	-1.065512	-0.307376	99
Es	0.548536	-1.261532	0.003875	99
Es	2.006943	0.786413	0.057147	99
Es	1.883211	-0.925773	0.005986	99
43
Properties=species:S:1:pos:R:3:Z:I:1 energy=-665.308372085807 field_type=dipole dipole="0.000000 0.000000 0.000000" charge=0
C	-1.797719	-0.183191	-0.003544	6
C	-0.307930	-0.109491	-0.000164	6
C	0.431290	1.056799	-0.001324	6
O	-0.021950	2.305559	-0.005074	8
S	2.111681	0.765249	0.002946	16
C	1.883111	-0.925961	0.005986	6
C	0.548560	-1.261521	0.003876	6
H	-2.255899	0.810359	0.007756	1
H	-2.151780	-0.728231	0.877876	1
H	-2.148600	-0.707371	-0.898174	1
H	0.779530	2.856799	-0.004524	1
H	2.734060	-1.593691	0.009126	1
H	0.195640	-2.285311	0.005236	1
Es	0.411678	2.588137	-0.004342	99
Es	0.548539	-1.261529	0.003876	99
Es	0.088957	-0.709892	0.002269	99
Es	0.177143	1.823113	-0.001658	99
Es	0.431424	1.057097	-0.001325	99
Es	0.304640	-1.949517	0.004798	99
Es	2.241910	0.891443	0.428335	99
Es	-0.154601	2.323654	0.249843	99
Es	-1.046314	-0.139761	-0.001742	99
Es	0.083172	0.391075	0.315606	99
Es	1.234211	-1.064735	0.316766	99
Es	-2.026266	-0.539987	-0.608283	99
Es	1.244418	0.951386	0.002641	99
Es	2.111683	0.765232	0.002949	99
Es	2.107709	0.786243	-0.112904	99
Es	-2.101522	0.487130	0.003948	99
Es	2.001876	0.738707	0.040480	99
Es	2.458717	-1.360013	0.008119	99
Es	-0.149705	2.319849	-0.262964	99
Es	2.026672	-0.104210	0.006636	99
Es	-0.307945	-0.109490	-0.000161	99
Es	-0.021563	2.305392	-0.005023	99
Es	2.229685	0.879054	-0.426206	99
Es	1.883209	-0.925775	0.005992	99
Es	0.084467	0.389694	-0.316760	99
Es	2.183622	0.673618	0.023684	99
Es	-2.028470	-0.554233	0.592291	99
Es	1.235451	-1.065007	-0.307502	99
Es	2.151015	0.860063	0.060543	99
Es	-1.797657	-0.183194	-0.003545	99
43
Properties=species:S:1:pos:R:3:Z:I:1 energy=-665.308372085807 field_type=dipole dipole="0.000000 0.000000 0.000000" charge=0
C	-1.797719	-0.183191	-0.003544	6
C	-0.307930	-0.109491	-0.000164	6
C	0.431290	1.056799	-0.001324	6
O	-0.021950	2.305559	-0.005074	8
S	2.111681	0.765249	0.002946	16
C	1.883111	-0.925961	0.005986	6
C	0.548560	-1.261521	0.003876	6
H	-2.255899	0.810359	0.007756	1
H	-2.151780	-0.728231	0.877876	1
H	-2.148600	-0.707371	-0.898174	1
H	0.779530	2.856799	-0.004524	1
H	2.734060	-1.593691	0.009126	1
H	0.195640	-2.285311	0.005236	1
Es	2.458668	-1.360101	0.008104	99
Es	1.235356	-1.065438	-0.307021	99
Es	2.109192	0.766291	0.003564	99
Es	2.156430	0.784212	0.114527	99
Es	2.238787	0.888307	0.429404	99
Es	-1.797658	-0.183194	-0.003542	99
Es	0.083078	0.391279	0.315510	99
Es	0.304750	-1.949626	0.004747	99
Es	-2.026307	-0.540137	-0.608391	99
Es	0.088893	-0.709922	0.002032	99
Es	-0.154203	2.322945	0.250474	99
Es	2.026713	-0.104162	0.004865	99
Es	-0.307943	-0.109488	-0.000161	99
Es	0.431425	1.057094	-0.001323	99
Es	-1.046403	-0.139665	-0.001684	99
Es	2.016949	0.808536	-0.000796	99
Es	2.175467	0.818228	-0.082918	99
Es	1.244426	0.951379	0.001463	99
Es	1.233984	-1.063934	0.316813	99
Es	0.084579	0.389264	-0.316514	99
Es	1.883212	-0.925767	0.005996	99
Es	2.096956	0.646824	-0.019567	99
Es	-2.101538	0.487136	0.004022	99
Es	0.411585	2.588295	-0.004443	99
Es	0.548540	-1.261527	0.003883	99
Es	-0.021603	2.305427	-0.005053	99
Es	0.177320	1.823231	-0.002755	99
Es	2.234022	0.881921	-0.424722	99
Es	-2.028356	-0.554125	0.592239	99
Es	-0.150166	2.320260	-0.262390	99
43
Properties=species:S:1:pos:R:3:Z:I:1 energy=-665.308372085807 field_type=dipole dipole="0.000000 0.000000 0.000000" charge=0
C	-1.797719	-0.183191	-0.003544	6
C	-0.307930	-0.109491	-0.000164	6
C	0.431290	1.056799	-0.001324	6
O	-0.021950	2.305559	-0.005074	8
S	2.111681	0.765249	0.002946	16
C	1.883111	-0.925961	0.005986	6
C	0.548560	-1.261521	0.003876	6
H	-2.255899	0.810359	0.007756	1
H	-2.151780	-0.728231	0.877876	1
H	-2.148600	-0.707371	-0.898174	1
H	0.779530	2.856799	-0.004524	1
H	2.734060	-1.593691	0.009126	1
H	0.195640	-2.285311	0.005236	1
Es	2.080678	0.713283	-0.099633	99
Es	0.431424	1.057095	-0.001317	99
Es	-2.026191	-0.539916	-0.608366	99
Es	-0.307944	-0.109487	-0.000165	99
Es	2.055820	0.708623	0.091652	99
Es	1.883212	-0.925773	0.005962	99
Es	0.548539	-1.261528	0.003873	99
Es	-0.153063	2.322178	-0.261600	99
Es	1.244570	0.951220	0.002590	99
Es	0.176885	1.822915	-0.003986	99
Es	0.088952	-0.709820	0.001711	99
Es	1.233950	-1.063768	0.316656	99
Es	1.235046	-1.065413	-0.306616	99
Es	2.458584	-1.360238	0.008003	99
Es	-2.101474	0.487155	0.003970	99
Es	0.304812	-1.949701	0.004682	99
Es	-2.028579	-0.554280	0.592231	99
Es	-0.151157	2.321452	0.250814	99
Es	2.026828	-0.104114	0.006202	99
Es	2.079213	0.878049	0.001550	99
Es	-1.797659	-0.183193	-0.003542	99
Es	2.111672	0.765239	0.002946	99
Es	2.227471	0.758978	0.018197	99
Es	-1.046462	-0.139738	-0.001567	99
Es	0.411729	2.588186	-0.004405	99
Es	0.084588	0.389303	-0.316202	99
Es	-0.021560	2.305400	-0.004981	99
Es	2.242440	0.891250	0.428187	99
Es	0.083234	0.391103	0.315254	99
Es	2.230599	0.879086	-0.425738	99
43
Properties=species:S:1:pos:R:3:Z:I:1 energy=-665.308372085807 field_type=dipole dipole="0.000000 0.000000 0.000000" charge=0
C	-1.797719	-0.183191	-0.003544	6
C	-0.307930	-0.109491	-0.000164	6
C	0.431290	1.056799	-0.001324	6
O	-0.021950	2.305559	-0.005074	8
S	2.111681	0.765249	0.002946	16
C	1.883111	-0.925961	0.005986	6
C	0.548560	-1.261521	0.003876	6
H	-2.255899	0.810359	0.007756	1
H	-2.151780	-0.728231	0.877876	1
H	-2.148600	-0.707371	-0.898174	1
H	0.779530	2.856799	-0.004524	1
H	2.734060	-1.593691	0.009126	1
H	0.195640	-2.285311	0.005236	1
Es	2.052174	0.752283	-0.100333	99
Es	2.111934	0.764707	0.003771	99
Es	1.883211	-0.925770	0.005988	99
Es	0.304872	-1.949753	0.004871	99
Es	2.033040	0.779617	0.089313	99
Es	2.172551	0.669090	0.022897	99
Es	2.458539	-1.360284	0.008083	99
Es	1.233732	-1.063719	0.316337	99
Es	2.236757	0.887724	0.429400	99
Es	-1.797656	-0.183194	-0.003542	99
Es	0.431424	1.057096	-0.001326	99
Es	2.185541	0.857560	-0.001171	99
Es	2.236058	0.883669	-0.424036	99
Es	-0.156505	2.323886	0.249923	99
Es	0.548539	-1.261527	0.003876	99
Es	1.244566	0.951274	0.001110	99
Es	-0.021778	2.305512	-0.005048	99
Es	2.026870	-0.104123	0.004948	99
Es	0.083096	0.391332	0.315037	99
Es	0.411991	2.588113	-0.003913	99
Es	-2.028470	-0.554256	0.592206	99
Es	0.176519	1.822774	-0.003043	99
Es	-2.101514	0.487186	0.004030	99
Es	-1.046506	-0.139698	-0.001746	99
Es	-0.307945	-0.109489	-0.000163	99
Es	-0.147438	2.319834	-0.262075	99
Es	0.088910	-0.709805	0.002015	99
Es	-2.026266	-0.539959	-0.608336	99
Es	0.084794	0.388722	-0.316150	99
Es	1.235115	-1.065258	-0.306561	99
43
Properties=species:S:1:pos:R:3:Z:I:1 energy=-665.308372085807 field_type=dipole dipole="0.000000 0.000000 0.000000" charge=0
C	-1.797719	-0.183191	-0.003544	6
C	-0.307930	-0.109491	-0.000164	6
C	0.431290	1.056799	-0.001324	6
O	-0.021950	2.305559	-0.005074	8
S	2.111681	0.765249	0.002946	16
C	1.883111	-0.925961	0.005986	6
C	0.548560	-1.261521	0.003876	6
H	-2.255899	0.810359	0.007756	1
H	-2.151780	-0.728231	0.877876	1
H	-2.148600	-0.707371	-0.898174	1
H	0.779530	2.856799	-0.004524	1
H	2.734060	-1.593691	0.009126	1
H	0.195640	-2.285311	0.005236	1
Es	0.304821	-1.949790	0.004784	99
Es	2.101254	0.853911	-0.073007	99
Es	2.139847	0.664740	-0.055495	99
Es	-1.797659	-0.183192	-0.003542	99
Es	0.177221	1.822980	-0.001897	99
Es	1.233539	-1.063654	0.316244	99
Es	1.883219	-0.925769	0.005988	99
Es	1.235037	-1.065183	-0.306227	99
Es	2.228951	0.881554	0.431661	99
Es	-0.307940	-0.109481	-0.000179	99
Es	-2.026325	-0.539941	-0.608334	99
Es	0.089016	-0.709667	0.001577	99
Es	0.431425	1.057096	-0.001325	99
Es	-0.155894	2.323473	0.249195	99
Es	2.008207	0.749803	0.056109	99
Es	-2.028433	-0.554262	0.592258	99
Es	-2.101496	0.487146	0.004050	99
Es	2.244498	0.889598	-0.421435	99
Es	0.084452	0.389619	-0.315670	99
Es	-0.148387	2.319027	-0.262303	99
Es	2.458525	-1.360343	0.008079	99
Es	-0.021617	2.305411	-0.005046	99
Es	0.548539	-1.261527	0.003876	99
Es	0.083487	0.390196	0.315095	99
Es	2.111658	0.765239	0.002950	99
Es	0.411407	2.589208	-0.004095	99
Es	2.026885	-0.104081	0.002584	99
Es	-1.046562	-0.139651	-0.001749	99
Es	1.244636	0.951213	-0.001656	99
Es	2.193846	0.789875	0.083871	99
43
Properties=species:S:1:pos:R:3:Z:I:1 energy=-665.308372085807 field_type=dipole dipole="0.000000 0.000000 0.000000" charge=0
C	-1.797719	-0.183191	-0.003544	6
C	-0.307930	-0.109491	-0.000164	6
C	0.431290	1.056799	-0.001324	6
O	-0.021950	2.305559	-0.005074	8
S	2.111681	0.765249	0.002946	16
C	1.883111	-0.925961	0.005986	6
C	0.548560	-1.261521	0.003876	6
H	-2.255899	0.810359	0.007756	1
H	-2.151780	-0.728231	0.877876	1
H	-2.148600	-0.707371	-0.898174	1
H	0.779530	2.856799	-0.004524	1
H	2.734060	-1.593691	0.009126	1
H	0.195640	-2.285311	0.005236	1
Es	0.411476	2.588967	-0.004702	99
Es	0.089003	-0.709617	0.001882	99
Es	2.458452	-1.360488	0.008122	99
Es	2.133166	0.720789	0.109593	99
Es	-0.307946	-0.109489	-0.000158	99
Es	0.084594	0.389219	-0.315641	99
Es	2.200148	0.739483	-0.071551	99
Es	-1.797657	-0.183194	-0.003543	99
Es	0.177176	1.823029	-0.003212	99
Es	2.010776	0.717327	-0.036887	99
Es	-0.021601	2.305416	-0.005071	99
Es	2.098757	0.881644	0.010954	99
Es	0.083383	0.390342	0.314709	99
Es	0.431424	1.057094	-0.001325	99
Es	2.026947	-0.104009	0.005883	99
Es	0.548539	-1.261528	0.003876	99
Es	2.233443	0.881203	-0.425212	99
Es	-1.046594	-0.139658	-0.001709	99
Es	-0.153271	2.322206	0.250359	99
Es	-2.028509	-0.554159	0.592243	99
Es	1.244702	0.951154	0.002149	99
Es	1.234869	-1.064603	-0.306214	99
Es	1.233484	-1.063848	0.315733	99
Es	1.883207	-0.925779	0.005986	99
Es	-2.101479	0.487183	0.003942	99
Es	0.304872	-1.949880	0.004866	99
Es	2.240519	0.889053	0.428185	99
Es	-2.026282	-0.540023	-0.608304	99
Es	2.111682	0.765245	0.002942	99
Es	-0.151126	2.320465	-0.261531	99
43
Properties=species:S:1:pos:R:3:Z:I:1 energy=-665.308372085807 field_type=dipole dipole="0.000000 0.000000 0.000000" charge=0
C	-1.797719	-0.183191	-0.003544	6
C	-0.307930	-0.109491	-0.000164	6
C	0.431290	1.056799	-0.001324	6
O	-0.021950	2.305559	-0.005074	8
S	2.111681	0.765249	0.002946	16
C	1.883111	-0.925961	0.005986	6
C	0.548560	-1.261521	0.003876	6
H	-2.255899	0.810359	0.007756	1
H	-2.151780	-0.728231	0.877876	1
H	-2.148600	-0.707371	-0.898174	1
H	0.779530	2.856799	-0.004524	1
H	2.734060	-1.593691	0.009126	1
H	0.195640	-2.285311	0.005236	1
Es	1.883208	-0.925773	0.005979	99
Es	0.548541	-1.261534	0.003872	99
Es	2.156409	0.662005	0.037586	99
Es	1.234738	-1.065193	-0.305874	99
Es	-2.028446	-0.554243	0.592309	99
Es	0.083462	0.390220	0.314714	99
Es	1.233406	-1.063260	0.315850	99
Es	1.244765	0.951118	0.001363	99
Es	0.431424	1.057092	-0.001323	99
Es	-0.153006	2.320794	-0.261654	99
Es	0.304934	-1.949889	0.004834	99
Es	-0.151362	2.321807	0.249870	99
Es	2.238605	0.888590	0.428578	99
Es	0.088986	-0.709543	0.001382	99
Es	0.411468	2.589126	-0.004876	99
Es	-2.101499	0.487143	0.003976	99
Es	-0.021597	2.305416	-0.005075	99
Es	2.235279	0.883048	-0.424029	99
Es	0.177106	1.822911	-0.002411	99
Es	-1.046683	-0.139596	-0.001721	99
Es	-2.026282	-0.539976	-0.608320	99
Es	2.111624	0.765233	0.002980	99
Es	-1.797658	-0.183195	-0.003541	99
Es	-0.307947	-0.109488	-0.000189	99
Es	2.187064	0.817997	-0.070344	99
Es	2.026970	-0.103960	0.004802	99
Es	2.091517	0.832275	0.097736	99
Es	2.008106	0.745706	-0.052922	99
Es	0.084616	0.389179	-0.315364	99
Es	2.458410	-1.360465	0.008174	99
43
Properties=species:S:1:pos:R:3:Z:I:1 energy=-665.308372085807 field_type=dipole dipole="0.000000 0.000000 0.000000" charge=0
C	-1.797719	-0.183191	-0.003544	6
C	-0.307930	-0.109491	-0.000164	6
C	0.431290	1.056799	-0.001324	6
O	-0.021950	2.305559	-0.005074	8
S	2.111681	0.765249	0.002946	16
C	1.883111	-0.925961	0.005986	6
C	0.548560	-1.261521	0.003876	6
H	-2.255899	0.810359	0.007756	1
H	-2.151780	-0.728231	0.877876	1
H	-2.148600	-0.707371	-0.898174	1
H	0.779530	2.856799	-0.004524	1
H	2.734060	-1.593691	0.009126	1
H	0.195640	-2.285311	0.005236	1
Es	1.883212	-0.925774	0.005970	99
Es	0.548542	-1.261526	0.003876	99
Es	2.210005	0.700805	0.001897	99
Es	-1.046731	-0.139487	-0.001749	99
Es	-2.101425	0.487101	0.003911	99
Es	-0.307944	-0.109490	-0.000153	99
Es	-2.028467	-0.554113	0.592377	99
Es	0.305011	-1.950023	0.004777	99
Es	0.411236	2.589663	-0.004628	99
Es	1.234663	-1.064807	-0.305518	99
Es	2.240538	0.887146	-0.422069	99
Es	0.084707	0.388893	-0.315212	99
Es	2.039924	0.727451	0.089817	99
Es	1.244757	0.951081	-0.000163	99
Es	2.111659	0.765237	0.002925	99
Es	-0.153276	2.321596	0.250228	99
Es	0.177412	1.823045	-0.003688	99
Es	0.088934	-0.709511	0.001630	99
Es	0.083479	0.390157	0.314438	99
Es	2.027074	-0.103994	0.003596	99
Es	-1.797660	-0.183189	-0.003543	99
Es	-0.021601	2.305431	-0.005074	99
Es	2.139223	0.878708	0.019088	99
Es	2.458357	-1.360651	0.008007	99
Es	1.233280	-1.063204	0.315557	99
Es	0.431425	1.057097	-0.001325	99
Es	-0.151217	2.320316	-0.261002	99
Es	2.233823	0.884691	0.429923	99
Es	-2.026360	-0.540045	-0.608309	99
Es	2.053574	0.750941	-0.099219	99
43
Properties=species:S:1:pos:R:3:Z:I:1 energy=-665.308372085807 field_type=dipole dipole="0.000000 0.000000 0.000000" charge=0
C	-1.797719	-0.183191	-0.003544	6
C	-0.307930	-0.109491	-0.000164	6
C	0.431290	1.056799	-0.001324	6
O	-0.021950	2.305559	-0.005074	8
S	2.111681	0.765249	0.002946	16
C	1.883111	-0.925961	0.005986	6
C	0.548560	-1.261521	0.003876	6
H	-2.255899	0.810359	0.007756	1
H	-2.151780	-0.728231	0.877876	1
H	-2.148600	-0.707371	-0.898174	1
H	0.779530	2.856799	-0.004524	1
H	2.734060	-1.593691	0.009126	1
H	0.195640	-2.285311	0.005236	1
Es	-1.797657	-0.183193	-0.003543	99
Es	-2.026328	-0.539860	-0.608389	99
Es	2.211364	0.703816	-0.017440	99
Es	1.233188	-1.063289	0.315354	99
Es	0.431424	1.057094	-0.001325	99
Es	-1.046757	-0.139589	-0.001694	99
Es	2.027046	-0.103911	0.004566	99
Es	-2.101391	0.487148	0.004054	99
Es	0.084736	0.388918	-0.315001	99
Es	2.018113	0.702192	-0.032902	99
Es	1.883210	-0.925772	0.005987	99
Es	2.236089	0.886897	0.428155	99
Es	2.238056	0.885256	-0.423329	99
Es	0.088968	-0.709473	0.001668	99
Es	1.234563	-1.064637	-0.305457	99
Es	0.548540	-1.261526	0.003875	99
Es	-2.028557	-0.554256	0.592239	99
Es	2.098940	0.785361	0.119219	99
Es	2.114646	0.866353	-0.056183	99
Es	0.411674	2.589035	-0.003313	99
Es	-0.021571	2.305443	-0.005120	99
Es	0.176679	1.822754	-0.004096	99
Es	1.244896	0.951003	0.000723	99
Es	0.305034	-1.950035	0.004766	99
Es	-0.153324	2.321400	0.249775	99
Es	0.083556	0.389952	0.314284	99
Es	2.458340	-1.360661	0.008080	99
Es	2.111637	0.765229	0.002980	99
Es	-0.307945	-0.109487	-0.000163	99
Es	-0.151013	2.321384	-0.261408	99
43
Properties=species:S:1:pos:R:3:Z:I:1 energy=-665.308372085807 field_type=dipole dipole="0.000000 0.000000 0.000000" charge=0
C	-1.797719	-0.183191	-0.003544	6
C	-0.307930	-0.109491	-0.000164	6
C	0.431290	1.056799	-0.001324	6
O	-0.021950	2.305559	-0.005074	8
S	2.111681	0.765249	0.002946	16
C	1.883111	-0.925961	0.005986	6
C	0.548560	-1.261521	0.003876	6
H	-2.255899	0.810359	0.007756	1
H	-2.151780	-0.728231	0.877876	1
H	-2.148600	-0.707371	-0.898174	1
H	0.779530	2.856799	-0.004524	1
H	2.734060	-1.593691	0.009126	1
H	0.195640	-2.285311	0.005236	1
Es	2.027182	-0.103899	0.005451	99
Es	2.110924	0.753943	-0.125262	99
Es	2.458320	-1.360749	0.008058	99
Es	-0.307946	-0.109493	-0.000162	99
Es	-1.046805	-0.139394	-0.001669	99
Es	2.003037	0.798619	0.061173	99
Es	2.234734	0.882027	-0.423780	99
Es	0.548536	-1.261535	0.003876	99
Es	0.431425	1.057099	-0.001325	99
Es	0.089074	-0.709439	0.001539	99
Es	0.304978	-1.950066	0.004753	99
Es	0.176961	1.822793	-0.002384	99
Es	-2.026252	-0.539933	-0.608388	99
Es	1.883210	-0.925774	0.005989	99
Es	0.411426	2.589507	-0.004207	99
Es	-1.797666	-0.183193	-0.003542	99
Es	2.111514	0.763079	0.003126	99
Es	-2.101544	0.487110	0.004063	99
Es	1.233124	-1.063018	0.315224	99
Es	-0.149610	2.319531	-0.261688	99
Es	2.107791	0.735595	0.008353	99
Es	2.220829	0.772177	0.066861	99
Es	1.244938	0.950878	0.001982	99
Es	2.240099	0.889799	0.428022	99
Es	-2.028459	-0.554287	0.592215	99
Es	-0.154773	2.322743	0.249222	99
Es	0.084696	0.388778	-0.314829	99
Es	0.083619	0.389881	0.314029	99
Es	1.234399	-1.064651	-0.305257	99
Es	-0.021605	2.305417	-0.005080	99
43
Properties=species:S:1:pos:R:3:Z:I:1 energy=-665.308372085807 field_type=dipole dipole="0.000000 0.000000 0.000000" charge=0
C	-1.797719	-0.183191	-0.003544	6
C	-0.307930	-0.109491	-0.000164	6
C	0.431290	1.056799	-0.001324	6
O	-0.021950	2.305559	-0.005074	8
S	2.111681	0.765249	0.002946	16
C	1.883111	-0.925961	0.005986	6
C	0.548560	-1.261521	0.003876	6
H	-2.255899	0.810359	0.007756	1
H	-2.151780	-0.728231	0.877876	1
H	-2.148600	-0.707371	-0.898174	1
H	0.779530	2.856799	-0.004524	1
H	2.734060	-1.593691	0.009126	1
H	0.195640	-2.285311	0.005236	1
Es	-0.307942	-0.109485	-0.000158	99
Es	0.176904	1.822593	-0.002643	99
Es	-1.046888	-0.139508	-0.001839	99
Es	0.305160	-1.950162	0.004826	99
Es	2.235210	0.885043	0.429854	99
Es	2.240399	0.886385	-0.421429	99
Es	2.093207	0.662886	0.058119	99
Es	1.883211	-0.925768	0.005988	99
Es	-0.154960	2.322839	0.249205	99
Es	-0.149418	2.319350	-0.260961	99
Es	2.103643	0.745195	-0.111153	99
Es	0.411387	2.589821	-0.004613	99
Es	0.088939	-0.709447	0.001854	99
Es	-1.797663	-0.183197	-0.003546	99
Es	0.431427	1.057097	-0.001317	99
Es	0.083625	0.389576	0.313885	99
Es	1.234327	-1.064313	-0.305149	99
Es	2.218486	0.810309	0.031254	99
Es	-0.021551	2.305382	-0.005140	99
Es	2.026557	0.839917	0.032558	99
Es	2.458302	-1.360799	0.008080	99
Es	-2.101424	0.487201	0.004054	99
Es	-2.028511	-0.554295	0.592254	99
Es	2.027061	-0.103849	0.003811	99
Es	0.084775	0.388924	-0.314672	99
Es	-2.026301	-0.539860	-0.608356	99
Es	2.111682	0.765385	0.002901	99
Es	0.548541	-1.261523	0.003882	99
Es	1.232968	-1.063079	0.314952	99
Es	1.245000	0.950926	-0.000135	99
