41
Properties=species:S:1:pos:R:3:Z:I:1 energy=-644.2887670134668 field_type=dipole dipole="0.000000 0.000000 0.000000" charge=0
C	-0.633630	-2.089107	0.244574	6
C	-1.143710	-0.874217	-0.003566	6
C	-0.431220	0.368943	-0.108466	6
N	-1.090030	1.503113	-0.361286	7
S	-0.024610	2.766253	-0.426806	16
C	1.371680	1.834523	-0.116556	6
C	0.990450	0.518323	0.039214	6
H	-1.289370	-2.953277	0.298174	1
H	0.424840	-2.265357	0.399264	1
H	-2.221560	-0.803337	-0.144376	1
H	2.357610	2.273453	-0.065436	1
H	1.689550	-0.279317	0.245264	1
Es	-0.028793	2.873464	-0.379434	99
Es	0.026467	2.848987	-0.868514	99
Es	-1.089473	1.503060	-0.361212	99
Es	-0.128641	2.740654	-0.477641	99
Es	-0.431249	0.368985	-0.108477	99
Es	-1.437047	1.580751	-0.415133	99
Es	-1.070244	-2.675075	0.281891	99
Es	1.453368	-0.023683	0.177735	99
Es	1.078713	1.173874	0.260081	99
Es	1.371600	1.834670	-0.116599	99
Es	2.021121	2.133007	-0.084306	99
Es	-0.835094	-1.500088	-0.197747	99
Es	-0.795730	1.080442	0.016542	99
Es	-1.143709	-0.874111	-0.003583	99
Es	-0.731544	0.998415	-0.518285	99
Es	-0.070703	2.965875	-0.025464	99
Es	-1.865251	-0.820044	-0.098838	99
Es	0.290812	0.403179	-0.027074	99
Es	1.149918	1.081878	-0.338623	99
Es	-0.024569	2.766183	-0.426809	99
Es	0.741607	2.304805	-0.265899	99
Es	-0.633586	-2.089183	0.244593	99
Es	-0.911147	-1.403078	0.433301	99
Es	-0.775789	-0.254387	-0.054441	99
Es	-0.618689	2.016921	-0.383929	99
Es	0.990441	0.518312	0.039214	99
Es	0.083971	-2.209891	0.349663	99
Es	0.065915	2.757776	-0.506826	99
Es	-0.006061	2.689697	-0.342729	99
41
Properties=species:S:1:pos:R:3:Z:I:1 energy=-644.2887670134668 field_type=dipole dipole="0.000000 0.000000 0.000000" charge=0
C	-0.633630	-2.089107	0.244574	6
C	-1.143710	-0.874217	-0.003566	6
C	-0.431220	0.368943	-0.108466	6
N	-1.090030	1.503113	-0.361286	7
S	-0.024610	2.766253	-0.426806	16
C	1.371680	1.834523	-0.116556	6
C	0.990450	0.518323	0.039214	6
H	-1.289370	-2.953277	0.298174	1
H	0.424840	-2.265357	0.399264	1
H	-2.221560	-0.803337	-0.144376	1
H	2.357610	2.273453	-0.065436	1
H	1.689550	-0.279317	0.245264	1
Es	0.083993	-2.209833	0.349666	99
Es	2.021220	2.132754	-0.084276	99
Es	-1.436631	1.580592	-0.414775	99
Es	-0.071735	2.969061	-0.027009	99
Es	-0.731316	0.998207	-0.518499	99
Es	0.027286	2.846262	-0.868482	99
Es	-0.795493	1.080031	0.016530	99
Es	1.149994	1.082084	-0.338373	99
Es	0.741728	2.305205	-0.264908	99
Es	-1.865244	-0.820009	-0.098794	99
Es	-0.025113	2.766870	-0.426240	99
Es	-0.132361	2.820901	-0.437444	99
Es	0.291015	0.403103	-0.027450	99
Es	0.057857	2.842387	-0.398297	99
Es	-1.143709	-0.874113	-0.003583	99
Es	-0.618751	2.017286	-0.383464	99
Es	1.453407	-0.023686	0.177588	99
Es	-1.070199	-2.675111	0.281858	99
Es	-0.775773	-0.254419	-0.054348	99
Es	-0.431247	0.368982	-0.108487	99
Es	-0.633586	-2.089183	0.244594	99
Es	-0.028046	2.682700	-0.344653	99
Es	-0.911191	-1.403112	0.433275	99
Es	1.371600	1.834674	-0.116589	99
Es	1.077614	1.173513	0.260303	99
Es	-1.089471	1.503061	-0.361211	99
Es	0.990441	0.518320	0.039230	99
Es	-0.835122	-1.500124	-0.197751	99
Es	0.005446	2.714994	-0.526949	99
41
Properties=species:S:1:pos:R:3:Z:I:1 energy=-644.2887670134668 field_type=dipole dipole="0.000000 0.000000 0.000000" charge=0
C	-0.633630	-2.089107	0.244574	6
C	-1.143710	-0.874217	-0.003566	6
C	-0.431220	0.368943	-0.108466	6
N	-1.090030	1.503113	-0.361286	7
S	-0.024610	2.766253	-0.426806	16
C	1.371680	1.834523	-0.116556	6
C	0.990450	0.518323	0.039214	6
H	-1.289370	-2.953277	0.298174	1
H	0.424840	-2.265357	0.399264	1
H	-2.221560	-0.803337	-0.144376	1
H	2.357610	2.273453	-0.065436	1
H	1.689550	-0.279317	0.245264	1
Es	-1.089458	1.503067	-0.361210	99
Es	-1.436659	1.580339	-0.414387	99
Es	-0.024374	2.766351	-0.426524	99
Es	-0.775944	-0.254306	-0.054393	99
Es	0.741449	2.305531	-0.263252	99
Es	2.021324	2.132677	-0.084200	99
Es	-1.865249	-0.820139	-0.098783	99
Es	1.077681	1.173380	0.259543	99
Es	0.070623	2.697925	-0.418444	99
Es	-0.431253	0.368994	-0.108465	99
Es	0.290965	0.403172	-0.026443	99
Es	-0.795149	1.079693	0.016021	99
Es	0.084002	-2.209863	0.349733	99
Es	-1.143709	-0.874111	-0.003584	99
Es	1.371598	1.834672	-0.116591	99
Es	-0.730871	0.998023	-0.518453	99
Es	0.990444	0.518317	0.039210	99
Es	-0.074434	2.978312	-0.030448	99
Es	0.029941	2.837289	-0.868042	99
Es	1.453570	-0.023666	0.177630	99
Es	-0.911019	-1.403267	0.433063	99
Es	-0.618891	2.017691	-0.382574	99
Es	-0.095548	2.723589	-0.511963	99
Es	-1.070355	-2.675093	0.281931	99
Es	-0.633588	-2.089179	0.244593	99
Es	-0.835035	-1.499943	-0.197739	99
Es	-0.081022	2.762749	-0.324238	99
Es	1.149215	1.081917	-0.338504	99
Es	0.008356	2.877276	-0.452029	99
41
Properties=species:S:1:pos:R:3:Z:I:1 energy=-644.2887670134668 field_type=dipole dipole="0.000000 0.000000 0.000000" charge=0
C	-0.633630	-2.089107	0.244574	6
C	-1.143710	-0.874217	-0.003566	6
C	-0.431220	0.368943	-0.108466	6
N	-1.090030	1.503113	-0.361286	7
S	-0.024610	2.766253	-0.426806	16
C	1.371680	1.834523	-0.116556	6
C	0.990450	0.518323	0.039214	6
H	-1.289370	-2.953277	0.298174	1
H	0.424840	-2.265357	0.399264	1
H	-2.221560	-0.803337	-0.144376	1
H	2.357610	2.273453	-0.065436	1
H	1.689550	-0.279317	0.245264	1
Es	0.290930	0.403186	-0.026594	99
Es	0.029143	2.840742	-0.868022	99
Es	-0.775984	-0.254408	-0.054343	99
Es	1.371601	1.834671	-0.116596	99
Es	-0.073490	2.976290	-0.029899	99
Es	1.148681	1.081650	-0.338200	99
Es	-0.090985	2.744937	-0.520333	99
Es	1.077569	1.173334	0.259220	99
Es	-0.619083	2.017910	-0.382930	99
Es	-0.835008	-1.500088	-0.197666	99
Es	-0.050390	2.685882	-0.346132	99
Es	-1.436515	1.580131	-0.414225	99
Es	-0.431249	0.368986	-0.108478	99
Es	-0.730469	0.997975	-0.518410	99
Es	-1.865283	-0.820093	-0.098903	99
Es	1.453587	-0.023650	0.177763	99
Es	0.741267	2.305579	-0.263298	99
Es	0.084003	-2.209897	0.349582	99
Es	-1.070260	-2.675073	0.281895	99
Es	0.089645	2.754225	-0.456310	99
Es	-0.794904	1.079393	0.015910	99
Es	-0.024596	2.766267	-0.426811	99
Es	2.021413	2.132529	-0.084205	99
Es	0.990444	0.518323	0.039215	99
Es	-0.911103	-1.403097	0.433267	99
Es	-1.089460	1.503060	-0.361211	99
Es	-0.633587	-2.089183	0.244593	99
Es	-1.143708	-0.874115	-0.003577	99
Es	-0.045594	2.875931	-0.383840	99
41
Properties=species:S:1:pos:R:3:Z:I:1 energy=-644.2887670134668 field_type=dipole dipole="0.000000 0.000000 0.000000" charge=0
C	-0.633630	-2.089107	0.244574	6
C	-1.143710	-0.874217	-0.003566	6
C	-0.431220	0.368943	-0.108466	6
N	-1.090030	1.503113	-0.361286	7
S	-0.024610	2.766253	-0.426806	16
C	1.371680	1.834523	-0.116556	6
C	0.990450	0.518323	0.039214	6
H	-1.289370	-2.953277	0.298174	1
H	0.424840	-2.265357	0.399264	1
H	-2.221560	-0.803337	-0.144376	1
H	2.357610	2.273453	-0.065436	1
H	1.689550	-0.279317	0.245264	1
Es	0.990443	0.518317	0.039210	99
Es	-0.128691	2.757776	-0.372077	99
Es	-0.024560	2.765993	-0.427040	99
Es	-0.069549	2.962695	-0.025123	99
Es	0.064137	2.749386	-0.348439	99
Es	-1.865368	-0.820063	-0.098757	99
Es	-0.775970	-0.254467	-0.054451	99
Es	0.741493	2.305148	-0.266720	99
Es	-1.089473	1.503047	-0.361202	99
Es	-0.431249	0.368985	-0.108480	99
Es	0.084037	-2.209881	0.349702	99
Es	-0.014942	2.871114	-0.474156	99
Es	-1.143710	-0.874108	-0.003582	99
Es	-0.835026	-1.500005	-0.197562	99
Es	0.024689	2.855808	-0.868225	99
Es	-0.794796	1.079202	0.016415	99
Es	-0.618584	2.017546	-0.384627	99
Es	-1.070397	-2.675083	0.281904	99
Es	1.453620	-0.023698	0.177810	99
Es	0.291098	0.403103	-0.027511	99
Es	1.076364	1.172922	0.259383	99
Es	2.021483	2.132446	-0.084244	99
Es	-0.910934	-1.403197	0.432990	99
Es	-0.730475	0.997896	-0.517628	99
Es	1.371599	1.834671	-0.116589	99
Es	-0.633586	-2.089181	0.244591	99
Es	-1.436338	1.580203	-0.414963	99
Es	1.149110	1.081990	-0.337517	99
Es	-0.017814	2.682831	-0.511650	99
41
Properties=species:S:1:pos:R:3:Z:I:1 energy=-644.2887670134668 field_type=dipole dipole="0.000000 0.000000 0.000000" charge=0
C	-0.633630	-2.089107	0.244574	6
C	-1.143710	-0.874217	-0.003566	6
C	-0.431220	0.368943	-0.108466	6
N	-1.090030	1.503113	-0.361286	7
S	-0.024610	2.766253	-0.426806	16
C	1.371680	1.834523	-0.116556	6
C	0.990450	0.518323	0.039214	6
H	-1.289370	-2.953277	0.298174	1
H	0.424840	-2.265357	0.399264	1
H	-2.221560	-0.803337	-0.144376	1
H	2.357610	2.273453	-0.065436	1
H	1.689550	-0.279317	0.245264	1
Es	-1.089466	1.503048	-0.361206	99
Es	-0.834985	-1.500052	-0.197632	99
Es	-0.776062	-0.254525	-0.054427	99
Es	0.990444	0.518319	0.039214	99
Es	1.371595	1.834670	-0.116589	99
Es	1.148175	1.081629	-0.337589	99
Es	-0.072231	2.972736	-0.028877	99
Es	1.076460	1.172869	0.258928	99
Es	0.046991	2.681205	-0.385443	99
Es	-0.431248	0.368984	-0.108476	99
Es	0.084044	-2.209882	0.349663	99
Es	-0.024570	2.766261	-0.426808	99
Es	-0.794065	1.079679	0.016198	99
Es	0.028133	2.846488	-0.867687	99
Es	0.741274	2.305593	-0.264519	99
Es	2.021580	2.132276	-0.084158	99
Es	0.020492	2.808423	-0.527484	99
Es	-1.143709	-0.874113	-0.003582	99
Es	1.453767	-0.023619	0.177771	99
Es	-0.910957	-1.403158	0.433049	99
Es	-1.436505	1.579443	-0.415207	99
Es	-1.070336	-2.675065	0.281923	99
Es	-0.633586	-2.089184	0.244591	99
Es	-0.618989	2.018115	-0.384124	99
Es	-0.131630	2.720152	-0.447320	99
Es	-0.033497	2.850551	-0.346031	99
Es	-0.730272	0.997537	-0.516723	99
Es	-1.865391	-0.820054	-0.098792	99
Es	0.291156	0.403070	-0.027201	99
41
Properties=species:S:1:pos:R:3:Z:I:1 energy=-644.2887670134668 field_type=dipole dipole="0.000000 0.000000 0.000000" charge=0
C	-0.633630	-2.089107	0.244574	6
C	-1.143710	-0.874217	-0.003566	6
C	-0.431220	0.368943	-0.108466	6
N	-1.090030	1.503113	-0.361286	7
S	-0.024610	2.766253	-0.426806	16
C	1.371680	1.834523	-0.116556	6
C	0.990450	0.518323	0.039214	6
H	-1.289370	-2.953277	0.298174	1
H	0.424840	-2.265357	0.399264	1
H	-2.221560	-0.803337	-0.144376	1
H	2.357610	2.273453	-0.065436	1
H	1.689550	-0.279317	0.245264	1
Es	0.084069	-2.209901	0.349662	99
Es	-0.075740	2.984278	-0.033551	99
Es	-0.026279	2.651476	-0.453390	99
Es	-1.143705	-0.874123	-0.003587	99
Es	0.291100	0.403209	-0.026753	99
Es	-1.865397	-0.820071	-0.098868	99
Es	-0.094962	2.820959	-0.497831	99
Es	0.088177	2.810774	-0.438101	99
Es	-0.025139	2.766440	-0.427132	99
Es	1.147925	1.081676	-0.337527	99
Es	-0.619114	2.018588	-0.382599	99
Es	-0.729706	0.997503	-0.517153	99
Es	2.021615	2.132300	-0.084126	99
Es	1.371597	1.834669	-0.116587	99
Es	-0.911004	-1.403147	0.433048	99
Es	-0.063049	2.777459	-0.316213	99
Es	-1.089462	1.503064	-0.361211	99
Es	0.990441	0.518313	0.039213	99
Es	-1.070353	-2.675051	0.281870	99
Es	-0.431250	0.368987	-0.108470	99
Es	-1.436313	1.579352	-0.414611	99
Es	1.076354	1.172787	0.258526	99
Es	-0.633587	-2.089182	0.244591	99
Es	1.453811	-0.023672	0.177718	99
Es	-0.834947	-1.500056	-0.197509	99
Es	0.740745	2.306049	-0.261583	99
Es	-0.794003	1.078952	0.015667	99
Es	-0.776091	-0.254524	-0.054347	99
Es	0.030882	2.834286	-0.867684	99
41
Properties=species:S:1:pos:R:3:Z:I:1 energy=-644.2887670134668 field_type=dipole dipole="0.000000 0.000000 0.000000" charge=0
C	-0.633630	-2.089107	0.244574	6
C	-1.143710	-0.874217	-0.003566	6
C	-0.431220	0.368943	-0.108466	6
N	-1.090030	1.503113	-0.361286	7
S	-0.024610	2.766253	-0.426806	16
C	1.371680	1.834523	-0.116556	6
C	0.990450	0.518323	0.039214	6
H	-1.289370	-2.953277	0.298174	1
H	0.424840	-2.265357	0.399264	1
H	-2.221560	-0.803337	-0.144376	1
H	2.357610	2.273453	-0.065436	1
H	1.689550	-0.279317	0.245264	1
Es	-1.070371	-2.675049	0.281806	99
Es	-0.729840	0.997279	-0.516748	99
Es	0.026878	2.849922	-0.867665	99
Es	-0.024676	2.766332	-0.427020	99
Es	-0.793340	1.079040	0.015611	99
Es	0.990443	0.518317	0.039214	99
Es	1.453835	-0.023642	0.177817	99
Es	-0.063806	2.706738	-0.331748	99
Es	0.741101	2.305597	-0.265311	99
Es	-0.633587	-2.089180	0.244590	99
Es	-0.834868	-1.500009	-0.197427	99
Es	-0.000920	2.874866	-0.396825	99
Es	0.075501	2.712911	-0.467807	99
Es	-0.776155	-0.254536	-0.054302	99
Es	-0.431249	0.368985	-0.108476	99
Es	-1.865394	-0.820090	-0.098971	99
Es	1.371598	1.834670	-0.116587	99
Es	0.084093	-2.209907	0.349672	99
Es	1.076276	1.172843	0.258388	99
Es	-0.072030	2.970179	-0.027957	99
Es	-1.143709	-0.874113	-0.003582	99
Es	-1.436360	1.579187	-0.414366	99
Es	1.147319	1.081382	-0.337232	99
Es	-0.618913	2.018457	-0.384486	99
Es	-1.089467	1.503056	-0.361212	99
Es	2.021699	2.132116	-0.084164	99
Es	-0.911043	-1.403202	0.433066	99
Es	0.291187	0.403152	-0.027127	99
Es	-0.107588	2.766097	-0.509691	99
41
Properties=species:S:1:pos:R:3:Z:I:1 energy=-644.2887670134668 field_type=dipole dipole="0.000000 0.000000 0.000000" charge=0
C	-0.633630	-2.089107	0.244574	6
C	-1.143710	-0.874217	-0.003566	6
C	-0.431220	0.368943	-0.108466	6
N	-1.090030	1.503113	-0.361286	7
S	-0.024610	2.766253	-0.426806	16
C	1.371680	1.834523	-0.116556	6
C	0.990450	0.518323	0.039214	6
H	-1.289370	-2.953277	0.298174	1
H	0.424840	-2.265357	0.399264	1
H	-2.221560	-0.803337	-0.144376	1
H	2.357610	2.273453	-0.065436	1
H	1.689550	-0.279317	0.245264	1
Es	-0.065317	2.951076	-0.021355	99
Es	0.005709	2.649341	-0.412291	99
Es	-0.137983	2.775260	-0.426239	99
Es	-1.143709	-0.874114	-0.003582	99
Es	0.020642	2.870884	-0.866887	99
Es	-0.633586	-2.089182	0.244591	99
Es	0.019495	2.810411	-0.530442	99
Es	-1.089462	1.503043	-0.361206	99
Es	-0.023876	2.766238	-0.426694	99
Es	-0.729742	0.997315	-0.516415	99
Es	-0.910960	-1.403221	0.432942	99
Es	0.990444	0.518315	0.039214	99
Es	0.741547	2.304856	-0.271022	99
Es	1.147613	1.081690	-0.336674	99
Es	-1.436266	1.578838	-0.414395	99
Es	1.371597	1.834668	-0.116591	99
Es	0.291291	0.403117	-0.027563	99
Es	-1.070388	-2.675082	0.281874	99
Es	1.075222	1.172415	0.258383	99
Es	0.014236	2.825348	-0.337817	99
Es	-0.618915	2.018516	-0.386250	99
Es	2.021764	2.131991	-0.084141	99
Es	-0.834956	-1.500044	-0.197405	99
Es	-1.865416	-0.820055	-0.098868	99
Es	-0.776184	-0.254556	-0.054416	99
Es	0.084125	-2.209843	0.349675	99
Es	1.453887	-0.023690	0.177853	99
Es	-0.792952	1.078876	0.015660	99
Es	-0.431247	0.368984	-0.108479	99
41
Properties=species:S:1:pos:R:3:Z:I:1 energy=-644.2887670134668 field_type=dipole dipole="0.000000 0.000000 0.000000" charge=0
C	-0.633630	-2.089107	0.244574	6
C	-1.143710	-0.874217	-0.003566	6
C	-0.431220	0.368943	-0.108466	6
N	-1.090030	1.503113	-0.361286	7
S	-0.024610	2.766253	-0.426806	16
C	1.371680	1.834523	-0.116556	6
C	0.990450	0.518323	0.039214	6
H	-1.289370	-2.953277	0.298174	1
H	0.424840	-2.265357	0.399264	1
H	-2.221560	-0.803337	-0.144376	1
H	2.357610	2.273453	-0.065436	1
H	1.689550	-0.279317	0.245264	1
Es	-0.037073	2.683413	-0.344261	99
Es	0.741612	2.305102	-0.269899	99
Es	1.147492	1.081762	-0.336619	99
Es	2.021830	2.131881	-0.084105	99
Es	1.453890	-0.023702	0.177846	99
Es	-0.618985	2.018822	-0.385983	99
Es	-0.729175	0.997355	-0.515786	99
Es	0.291316	0.403177	-0.027551	99
Es	1.371600	1.834667	-0.116588	99
Es	0.990444	0.518319	0.039211	99
Es	-0.024582	2.766225	-0.426816	99
Es	-1.143708	-0.874115	-0.003580	99
Es	0.021134	2.869282	-0.866797	99
Es	-0.910897	-1.403182	0.432901	99
Es	-0.067178	2.953580	-0.022873	99
Es	-0.031334	2.871380	-0.377265	99
Es	-0.834992	-1.500088	-0.197318	99
Es	-0.110898	2.753433	-0.505476	99
Es	-1.089440	1.503061	-0.361210	99
Es	0.084164	-2.209842	0.349602	99
Es	0.082538	2.751508	-0.479499	99
Es	-0.792819	1.078669	0.015537	99
Es	-1.070403	-2.675075	0.281900	99
Es	-1.436269	1.578363	-0.414956	99
Es	-0.431249	0.368986	-0.108478	99
Es	-0.633587	-2.089180	0.244598	99
Es	1.074856	1.172271	0.258205	99
Es	-0.776230	-0.254599	-0.054443	99
Es	-1.865441	-0.820075	-0.098836	99
