47
Properties=species:S:1:pos:R:3:Z:I:1 energy=-305.27988905338987 field_type=dipole dipole="0.000000 0.000000 0.000000" charge=0
C	-2.151226	0.294183	-0.370129	6
C	-0.634576	0.269313	-0.393579	6
C	0.079794	1.350943	0.465941	6
C	1.100754	0.277583	0.909920	6
N	2.252934	0.305783	-0.003039	7
C	0.048424	-0.795867	0.509561	6
N	0.619694	-1.857347	-0.324129	7
H	-2.558246	-0.577787	-0.893269	1
H	-2.529126	1.192453	-0.869899	1
H	-2.541426	0.287083	0.653561	1
H	-0.276856	0.283873	-1.433139	1
H	-0.527796	1.725653	1.299971	1
H	0.465384	2.215443	-0.083389	1
H	1.375194	0.296193	1.967991	1
H	2.024844	0.482853	-0.977780	1
H	2.756994	-0.581777	0.015091	1
H	-0.556506	-1.152207	1.351061	1
H	1.134424	-1.517897	-1.133169	1
H	-0.082686	-2.498467	-0.691569	1
Es	1.739282	0.261916	0.366807	99
Es	0.359257	-1.402606	0.016529	99
Es	1.301595	0.284680	1.635105	99
Es	0.636336	0.880142	0.727058	99
Es	-0.371425	-1.042113	1.077424	99
Es	1.100823	0.277586	0.909785	99
Es	0.903132	-1.626152	-0.815804	99
Es	-0.377071	0.269149	-1.105176	99
Es	-2.408225	0.908101	-0.712168	99
Es	2.461707	0.562480	0.097375	99
Es	-0.342736	1.594612	1.037382	99
Es	2.080579	0.389368	-0.589597	99
Es	0.048485	-0.795959	0.509450	99
Es	-0.355147	-0.308470	0.027857	99
Es	-1.404747	0.283326	-0.383770	99
Es	0.173893	-2.218899	-0.552980	99
Es	-2.411292	0.288605	0.333126	99
Es	2.252521	0.305311	-0.003230	99
Es	-2.151224	0.294178	-0.370137	99
Es	-2.427106	-0.305328	-0.727707	99
Es	0.349376	1.941585	0.089697	99
Es	-0.634594	0.269360	-0.393545	99
Es	0.619316	-1.857028	-0.324445	99
Es	-0.327235	0.881591	0.000418	99
Es	0.611776	-0.327499	0.754775	99
Es	2.538211	-0.237480	0.003779	99
Es	0.079790	1.350894	0.465944	99
Es	0.845713	-2.053263	-0.137492	99
47
Properties=species:S:1:pos:R:3:Z:I:1 energy=-305.27988905338987 field_type=dipole dipole="0.000000 0.000000 0.000000" charge=0
C	-2.151226	0.294183	-0.370129	6
C	-0.634576	0.269313	-0.393579	6
C	0.079794	1.350943	0.465941	6
C	1.100754	0.277583	0.909920	6
N	2.252934	0.305783	-0.003039	7
C	0.048424	-0.795867	0.509561	6
N	0.619694	-1.857347	-0.324129	7
H	-2.558246	-0.577787	-0.893269	1
H	-2.529126	1.192453	-0.869899	1
H	-2.541426	0.287083	0.653561	1
H	-0.276856	0.283873	-1.433139	1
H	-0.527796	1.725653	1.299971	1
H	0.465384	2.215443	-0.083389	1
H	1.375194	0.296193	1.967991	1
H	2.024844	0.482853	-0.977780	1
H	2.756994	-0.581777	0.015091	1
H	-0.556506	-1.152207	1.351061	1
H	1.134424	-1.517897	-1.133169	1
H	-0.082686	-2.498467	-0.691569	1
Es	-0.371371	-1.042084	1.077377	99
Es	2.462158	0.561814	0.097108	99
Es	2.080702	0.389612	-0.589592	99
Es	-2.427046	-0.305237	-0.727856	99
Es	2.537593	-0.237837	0.003662	99
Es	0.636401	0.880261	0.727210	99
Es	-0.342710	1.594640	1.037312	99
Es	1.301645	0.284627	1.634988	99
Es	-0.327183	0.881612	0.000452	99
Es	-0.634592	0.269355	-0.393544	99
Es	0.611779	-0.327581	0.754868	99
Es	1.739286	0.262662	0.367151	99
Es	0.174030	-2.219279	-0.553036	99
Es	0.349281	1.941553	0.089723	99
Es	0.619334	-1.857056	-0.324432	99
Es	-0.355229	-0.308447	0.027748	99
Es	-2.411306	0.288389	0.333132	99
Es	1.100826	0.277587	0.909785	99
Es	-2.408286	0.908157	-0.712013	99
Es	-1.404742	0.283408	-0.383819	99
Es	0.845084	-2.052741	-0.137512	99
Es	-2.151225	0.294177	-0.370137	99
Es	0.048485	-0.795955	0.509452	99
Es	2.252559	0.305348	-0.003217	99
Es	0.359059	-1.402590	0.016476	99
Es	0.079792	1.350893	0.465943	99
Es	-0.377106	0.269122	-1.105109	99
Es	0.903771	-1.626324	-0.815657	99
47
Properties=species:S:1:pos:R:3:Z:I:1 energy=-305.27988905338987 field_type=dipole dipole="0.000000 0.000000 0.000000" charge=0
C	-2.151226	0.294183	-0.370129	6
C	-0.634576	0.269313	-0.393579	6
C	0.079794	1.350943	0.465941	6
C	1.100754	0.277583	0.909920	6
N	2.252934	0.305783	-0.003039	7
C	0.048424	-0.795867	0.509561	6
N	0.619694	-1.857347	-0.324129	7
H	-2.558246	-0.577787	-0.893269	1
H	-2.529126	1.192453	-0.869899	1
H	-2.541426	0.287083	0.653561	1
H	-0.276856	0.283873	-1.433139	1
H	-0.527796	1.725653	1.299971	1
H	0.465384	2.215443	-0.083389	1
H	1.375194	0.296193	1.967991	1
H	2.024844	0.482853	-0.977780	1
H	2.756994	-0.581777	0.015091	1
H	-0.556506	-1.152207	1.351061	1
H	1.134424	-1.517897	-1.133169	1
H	-0.082686	-2.498467	-0.691569	1
Es	0.359005	-1.402646	0.016495	99
Es	-0.355257	-0.308474	0.027772	99
Es	0.903263	-1.626197	-0.815692	99
Es	-0.327183	0.881690	0.000294	99
Es	-0.342665	1.594606	1.037222	99
Es	1.100826	0.277586	0.909785	99
Es	-0.371329	-1.042070	1.077341	99
Es	-1.404593	0.283395	-0.383924	99
Es	2.252543	0.305324	-0.003245	99
Es	-2.427141	-0.305227	-0.727720	99
Es	0.636417	0.880329	0.727279	99
Es	1.739238	0.262329	0.366932	99
Es	0.079791	1.350891	0.465943	99
Es	0.174025	-2.218691	-0.553151	99
Es	0.619306	-1.857028	-0.324463	99
Es	0.048484	-0.795957	0.509451	99
Es	-2.411337	0.288548	0.333100	99
Es	-2.408306	0.908012	-0.712068	99
Es	0.611825	-0.327655	0.754996	99
Es	-2.151224	0.294178	-0.370137	99
Es	2.080787	0.389670	-0.589376	99
Es	-0.634594	0.269359	-0.393545	99
Es	-0.377168	0.269089	-1.105012	99
Es	0.845621	-2.053454	-0.137379	99
Es	0.349245	1.941573	0.089879	99
Es	1.301591	0.284686	1.634865	99
Es	2.537373	-0.237887	0.003387	99
Es	2.462446	0.562106	0.097432	99
47
Properties=species:S:1:pos:R:3:Z:I:1 energy=-305.27988905338987 field_type=dipole dipole="0.000000 0.000000 0.000000" charge=0
C	-2.151226	0.294183	-0.370129	6
C	-0.634576	0.269313	-0.393579	6
C	0.079794	1.350943	0.465941	6
C	1.100754	0.277583	0.909920	6
N	2.252934	0.305783	-0.003039	7
C	0.048424	-0.795867	0.509561	6
N	0.619694	-1.857347	-0.324129	7
H	-2.558246	-0.577787	-0.893269	1
H	-2.529126	1.192453	-0.869899	1
H	-2.541426	0.287083	0.653561	1
H	-0.276856	0.283873	-1.433139	1
H	-0.527796	1.725653	1.299971	1
H	0.465384	2.215443	-0.083389	1
H	1.375194	0.296193	1.967991	1
H	2.024844	0.482853	-0.977780	1
H	2.756994	-0.581777	0.015091	1
H	-0.556506	-1.152207	1.351061	1
H	1.134424	-1.517897	-1.133169	1
H	-0.082686	-2.498467	-0.691569	1
Es	0.349202	1.941469	0.089935	99
Es	-2.427161	-0.305187	-0.727645	99
Es	0.174011	-2.219021	-0.553094	99
Es	0.359053	-1.402631	0.016329	99
Es	-0.371257	-1.042062	1.077304	99
Es	2.537668	-0.237613	0.003489	99
Es	2.252558	0.305384	-0.003207	99
Es	-0.327318	0.881763	0.000299	99
Es	-2.408299	0.907958	-0.712134	99
Es	0.048483	-0.795956	0.509457	99
Es	-0.355351	-0.308454	0.027830	99
Es	0.619315	-1.857029	-0.324449	99
Es	1.100826	0.277586	0.909785	99
Es	0.902949	-1.626162	-0.815643	99
Es	0.611737	-0.327601	0.755065	99
Es	-0.342605	1.594712	1.037176	99
Es	0.636490	0.880368	0.727370	99
Es	-2.411330	0.288608	0.333174	99
Es	0.079791	1.350894	0.465943	99
Es	2.080651	0.389424	-0.589429	99
Es	0.845956	-2.053222	-0.137397	99
Es	-2.151224	0.294178	-0.370136	99
Es	1.739270	0.262106	0.367031	99
Es	2.462289	0.562212	0.097248	99
Es	-0.634595	0.269361	-0.393544	99
Es	-0.377127	0.269057	-1.105000	99
Es	1.301574	0.284673	1.634761	99
Es	-1.404568	0.283273	-0.384057	99
47
Properties=species:S:1:pos:R:3:Z:I:1 energy=-305.27988905338987 field_type=dipole dipole="0.000000 0.000000 0.000000" charge=0
C	-2.151226	0.294183	-0.370129	6
C	-0.634576	0.269313	-0.393579	6
C	0.079794	1.350943	0.465941	6
C	1.100754	0.277583	0.909920	6
N	2.252934	0.305783	-0.003039	7
C	0.048424	-0.795867	0.509561	6
N	0.619694	-1.857347	-0.324129	7
H	-2.558246	-0.577787	-0.893269	1
H	-2.529126	1.192453	-0.869899	1
H	-2.541426	0.287083	0.653561	1
H	-0.276856	0.283873	-1.433139	1
H	-0.527796	1.725653	1.299971	1
H	0.465384	2.215443	-0.083389	1
H	1.375194	0.296193	1.967991	1
H	2.024844	0.482853	-0.977780	1
H	2.756994	-0.581777	0.015091	1
H	-0.556506	-1.152207	1.351061	1
H	1.134424	-1.517897	-1.133169	1
H	-0.082686	-2.498467	-0.691569	1
Es	-0.355319	-0.308449	0.027746	99
Es	2.080713	0.389423	-0.589386	99
Es	0.619304	-1.857013	-0.324459	99
Es	0.048484	-0.795953	0.509452	99
Es	-0.327323	0.881983	0.000138	99
Es	1.739207	0.261995	0.366971	99
Es	-0.371292	-1.042100	1.077146	99
Es	2.462433	0.562347	0.097374	99
Es	0.902946	-1.626229	-0.815563	99
Es	0.636474	0.880333	0.727473	99
Es	0.846012	-2.053523	-0.137193	99
Es	0.611837	-0.327675	0.755261	99
Es	-0.342622	1.594735	1.037078	99
Es	0.174093	-2.218750	-0.553231	99
Es	-0.634595	0.269361	-0.393544	99
Es	-1.404523	0.283237	-0.383955	99
Es	-2.427207	-0.305249	-0.727687	99
Es	1.301588	0.284629	1.634700	99
Es	0.079791	1.350894	0.465942	99
Es	-2.411318	0.288557	0.332967	99
Es	1.100821	0.277586	0.909786	99
Es	2.537539	-0.237591	0.003397	99
Es	0.358910	-1.402518	0.016262	99
Es	-2.151225	0.294178	-0.370135	99
Es	-2.408307	0.908084	-0.712049	99
Es	-0.377197	0.269018	-1.104894	99
Es	2.252556	0.305349	-0.003217	99
Es	0.349211	1.941428	0.090081	99
47
Properties=species:S:1:pos:R:3:Z:I:1 energy=-305.27988905338987 field_type=dipole dipole="0.000000 0.000000 0.000000" charge=0
C	-2.151226	0.294183	-0.370129	6
C	-0.634576	0.269313	-0.393579	6
C	0.079794	1.350943	0.465941	6
C	1.100754	0.277583	0.909920	6
N	2.252934	0.305783	-0.003039	7
C	0.048424	-0.795867	0.509561	6
N	0.619694	-1.857347	-0.324129	7
H	-2.558246	-0.577787	-0.893269	1
H	-2.529126	1.192453	-0.869899	1
H	-2.541426	0.287083	0.653561	1
H	-0.276856	0.283873	-1.433139	1
H	-0.527796	1.725653	1.299971	1
H	0.465384	2.215443	-0.083389	1
H	1.375194	0.296193	1.967991	1
H	2.024844	0.482853	-0.977780	1
H	2.756994	-0.581777	0.015091	1
H	-0.556506	-1.152207	1.351061	1
H	1.134424	-1.517897	-1.133169	1
H	-0.082686	-2.498467	-0.691569	1
Es	1.100821	0.277585	0.909785	99
Es	0.846181	-2.053734	-0.137400	99
Es	-2.151224	0.294178	-0.370137	99
Es	0.358991	-1.402606	0.016473	99
Es	-0.634593	0.269361	-0.393541	99
Es	0.902686	-1.626142	-0.815564	99
Es	-2.427209	-0.305186	-0.727739	99
Es	0.619369	-1.857075	-0.324390	99
Es	2.537361	-0.237602	0.003365	99
Es	0.611854	-0.327659	0.755257	99
Es	-2.411356	0.288544	0.333053	99
Es	1.301610	0.284540	1.634608	99
Es	0.048485	-0.795957	0.509450	99
Es	-0.377175	0.268983	-1.104828	99
Es	2.462552	0.562318	0.097434	99
Es	-0.327340	0.881887	0.000139	99
Es	-0.342541	1.594707	1.037067	99
Es	-2.408333	0.907952	-0.711977	99
Es	2.080822	0.389448	-0.589383	99
Es	0.079791	1.350896	0.465944	99
Es	2.252593	0.305366	-0.003194	99
Es	-0.355415	-0.308462	0.027744	99
Es	0.349145	1.941451	0.090090	99
Es	-1.404470	0.283314	-0.384134	99
Es	1.739132	0.261992	0.366915	99
Es	0.173991	-2.218541	-0.553283	99
Es	-0.371224	-1.042040	1.077124	99
Es	0.636485	0.880568	0.727585	99
47
Properties=species:S:1:pos:R:3:Z:I:1 energy=-305.27988905338987 field_type=dipole dipole="0.000000 0.000000 0.000000" charge=0
C	-2.151226	0.294183	-0.370129	6
C	-0.634576	0.269313	-0.393579	6
C	0.079794	1.350943	0.465941	6
C	1.100754	0.277583	0.909920	6
N	2.252934	0.305783	-0.003039	7
C	0.048424	-0.795867	0.509561	6
N	0.619694	-1.857347	-0.324129	7
H	-2.558246	-0.577787	-0.893269	1
H	-2.529126	1.192453	-0.869899	1
H	-2.541426	0.287083	0.653561	1
H	-0.276856	0.283873	-1.433139	1
H	-0.527796	1.725653	1.299971	1
H	0.465384	2.215443	-0.083389	1
H	1.375194	0.296193	1.967991	1
H	2.024844	0.482853	-0.977780	1
H	2.756994	-0.581777	0.015091	1
H	-0.556506	-1.152207	1.351061	1
H	1.134424	-1.517897	-1.133169	1
H	-0.082686	-2.498467	-0.691569	1
Es	0.358954	-1.402648	0.016505	99
Es	-0.634592	0.269360	-0.393540	99
Es	2.080915	0.389795	-0.589359	99
Es	0.902681	-1.626176	-0.815589	99
Es	-0.327353	0.881927	0.000057	99
Es	0.619272	-1.856988	-0.324475	99
Es	-2.427141	-0.305215	-0.727690	99
Es	1.301580	0.284583	1.634516	99
Es	0.611855	-0.327746	0.755346	99
Es	0.846200	-2.053396	-0.137457	99
Es	2.537133	-0.237705	0.003126	99
Es	-2.411416	0.288587	0.333041	99
Es	0.636540	0.880606	0.727636	99
Es	-0.371106	-1.041998	1.077072	99
Es	1.739155	0.261994	0.367001	99
Es	2.252571	0.305365	-0.003211	99
Es	2.462734	0.562056	0.097618	99
Es	-0.355481	-0.308501	0.027648	99
Es	0.079791	1.350893	0.465943	99
Es	0.048484	-0.795956	0.509447	99
Es	0.349109	1.941401	0.090171	99
Es	-1.404485	0.283328	-0.384062	99
Es	-2.151224	0.294178	-0.370137	99
Es	1.100819	0.277586	0.909789	99
Es	-2.408334	0.907927	-0.712079	99
Es	0.174093	-2.218941	-0.553110	99
Es	-0.342488	1.594758	1.037010	99
Es	-0.377277	0.269011	-1.104756	99
47
Properties=species:S:1:pos:R:3:Z:I:1 energy=-305.27988905338987 field_type=dipole dipole="0.000000 0.000000 0.000000" charge=0
C	-2.151226	0.294183	-0.370129	6
C	-0.634576	0.269313	-0.393579	6
C	0.079794	1.350943	0.465941	6
C	1.100754	0.277583	0.909920	6
N	2.252934	0.305783	-0.003039	7
C	0.048424	-0.795867	0.509561	6
N	0.619694	-1.857347	-0.324129	7
H	-2.558246	-0.577787	-0.893269	1
H	-2.529126	1.192453	-0.869899	1
H	-2.541426	0.287083	0.653561	1
H	-0.276856	0.283873	-1.433139	1
H	-0.527796	1.725653	1.299971	1
H	0.465384	2.215443	-0.083389	1
H	1.375194	0.296193	1.967991	1
H	2.024844	0.482853	-0.977780	1
H	2.756994	-0.581777	0.015091	1
H	-0.556506	-1.152207	1.351061	1
H	1.134424	-1.517897	-1.133169	1
H	-0.082686	-2.498467	-0.691569	1
Es	0.845663	-2.053728	-0.136898	99
Es	0.358707	-1.402542	0.016113	99
Es	0.611899	-0.327862	0.755516	99
Es	2.462534	0.562435	0.097318	99
Es	2.252562	0.305349	-0.003218	99
Es	2.537498	-0.237511	0.003370	99
Es	0.903399	-1.626409	-0.815431	99
Es	-0.342422	1.594788	1.036949	99
Es	0.619324	-1.857030	-0.324436	99
Es	-2.427389	-0.305161	-0.727644	99
Es	0.048484	-0.795953	0.509451	99
Es	1.739184	0.261879	0.367029	99
Es	0.636522	0.880646	0.727621	99
Es	-0.377256	0.269012	-1.104641	99
Es	0.079791	1.350894	0.465943	99
Es	-2.408295	0.908097	-0.711961	99
Es	-2.151223	0.294178	-0.370137	99
Es	-1.404522	0.283154	-0.384266	99
Es	-0.355540	-0.308520	0.027547	99
Es	-0.634593	0.269361	-0.393540	99
Es	1.100821	0.277586	0.909785	99
Es	-2.411221	0.288573	0.332985	99
Es	-0.327355	0.881908	-0.000036	99
Es	-0.371086	-1.041984	1.077045	99
Es	0.349072	1.941349	0.090318	99
Es	2.080773	0.389303	-0.589311	99
Es	1.301554	0.284743	1.634430	99
Es	0.174103	-2.218469	-0.553438	99
47
Properties=species:S:1:pos:R:3:Z:I:1 energy=-305.27988905338987 field_type=dipole dipole="0.000000 0.000000 0.000000" charge=0
C	-2.151226	0.294183	-0.370129	6
C	-0.634576	0.269313	-0.393579	6
C	0.079794	1.350943	0.465941	6
C	1.100754	0.277583	0.909920	6
N	2.252934	0.305783	-0.003039	7
C	0.048424	-0.795867	0.509561	6
N	0.619694	-1.857347	-0.324129	7
H	-2.558246	-0.577787	-0.893269	1
H	-2.529126	1.192453	-0.869899	1
H	-2.541426	0.287083	0.653561	1
H	-0.276856	0.283873	-1.433139	1
H	-0.527796	1.725653	1.299971	1
H	0.465384	2.215443	-0.083389	1
H	1.375194	0.296193	1.967991	1
H	2.024844	0.482853	-0.977780	1
H	2.756994	-0.581777	0.015091	1
H	-0.556506	-1.152207	1.351061	1
H	1.134424	-1.517897	-1.133169	1
H	-0.082686	-2.498467	-0.691569	1
Es	2.537285	-0.237525	0.003198	99
Es	-1.404372	0.283250	-0.384238	99
Es	-0.634594	0.269361	-0.393543	99
Es	2.080675	0.389178	-0.589165	99
Es	1.100821	0.277587	0.909785	99
Es	1.301574	0.284623	1.634446	99
Es	-0.342359	1.594892	1.036859	99
Es	0.349016	1.941252	0.090357	99
Es	0.846626	-2.054300	-0.137729	99
Es	0.173950	-2.218112	-0.553462	99
Es	-2.411348	0.288578	0.333002	99
Es	0.902143	-1.626002	-0.815458	99
Es	-0.377339	0.268967	-1.104634	99
Es	2.462839	0.562707	0.097414	99
Es	-0.371070	-1.042028	1.076944	99
Es	0.079792	1.350894	0.465943	99
Es	-0.327474	0.882004	-0.000126	99
Es	1.739153	0.261686	0.366921	99
Es	0.611898	-0.327744	0.755566	99
Es	-2.427270	-0.305145	-0.727638	99
Es	0.619354	-1.857069	-0.324394	99
Es	-0.355551	-0.308546	0.027604	99
Es	0.048484	-0.795952	0.509450	99
Es	2.252586	0.305383	-0.003195	99
Es	0.359127	-1.402674	0.016948	99
Es	-2.151224	0.294178	-0.370137	99
Es	-2.408365	0.907947	-0.712006	99
Es	0.636630	0.880695	0.727751	99
47
Properties=species:S:1:pos:R:3:Z:I:1 energy=-305.27988905338987 field_type=dipole dipole="0.000000 0.000000 0.000000" charge=0
C	-2.151226	0.294183	-0.370129	6
C	-0.634576	0.269313	-0.393579	6
C	0.079794	1.350943	0.465941	6
C	1.100754	0.277583	0.909920	6
N	2.252934	0.305783	-0.003039	7
C	0.048424	-0.795867	0.509561	6
N	0.619694	-1.857347	-0.324129	7
H	-2.558246	-0.577787	-0.893269	1
H	-2.529126	1.192453	-0.869899	1
H	-2.541426	0.287083	0.653561	1
H	-0.276856	0.283873	-1.433139	1
H	-0.527796	1.725653	1.299971	1
H	0.465384	2.215443	-0.083389	1
H	1.375194	0.296193	1.967991	1
H	2.024844	0.482853	-0.977780	1
H	2.756994	-0.581777	0.015091	1
H	-0.556506	-1.152207	1.351061	1
H	1.134424	-1.517897	-1.133169	1
H	-0.082686	-2.498467	-0.691569	1
Es	0.846278	-2.053619	-0.137279	99
Es	0.079792	1.350893	0.465944	99
Es	-2.411422	0.288471	0.333027	99
Es	0.619316	-1.857027	-0.324444	99
Es	0.636569	0.880796	0.727867	99
Es	0.048484	-0.795954	0.509450	99
Es	2.080760	0.389169	-0.589146	99
Es	0.349003	1.941371	0.090463	99
Es	2.252555	0.305357	-0.003208	99
Es	2.463060	0.562470	0.097204	99
Es	-2.427205	-0.305063	-0.727721	99
Es	-0.342389	1.594745	1.036845	99
Es	-0.355514	-0.308592	0.027630	99
Es	2.537107	-0.237462	0.003115	99
Es	1.739114	0.261944	0.367215	99
Es	-0.327408	0.882060	-0.000238	99
Es	0.358785	-1.402610	0.016374	99
Es	1.301569	0.284589	1.634253	99
Es	0.611941	-0.327866	0.755656	99
Es	0.902653	-1.626247	-0.815489	99
Es	1.100818	0.277586	0.909789	99
Es	-0.377392	0.268969	-1.104587	99
Es	-0.634594	0.269361	-0.393540	99
Es	-0.371087	-1.041965	1.076897	99
Es	0.174114	-2.218718	-0.553263	99
Es	-2.151224	0.294177	-0.370137	99
Es	-1.404292	0.283340	-0.384278	99
Es	-2.408401	0.907910	-0.711942	99
47
Properties=species:S:1:pos:R:3:Z:I:1 energy=-305.27988905338987 field_type=dipole dipole="0.000000 0.000000 0.000000" charge=0
C	-2.151226	0.294183	-0.370129	6
C	-0.634576	0.269313	-0.393579	6
C	0.079794	1.350943	0.465941	6
C	1.100754	0.277583	0.909920	6
N	2.252934	0.305783	-0.003039	7
C	0.048424	-0.795867	0.509561	6
N	0.619694	-1.857347	-0.324129	7
H	-2.558246	-0.577787	-0.893269	1
H	-2.529126	1.192453	-0.869899	1
H	-2.541426	0.287083	0.653561	1
H	-0.276856	0.283873	-1.433139	1
H	-0.527796	1.725653	1.299971	1
H	0.465384	2.215443	-0.083389	1
H	1.375194	0.296193	1.967991	1
H	2.024844	0.482853	-0.977780	1
H	2.756994	-0.581777	0.015091	1
H	-0.556506	-1.152207	1.351061	1
H	1.134424	-1.517897	-1.133169	1
H	-0.082686	-2.498467	-0.691569	1
Es	-0.355713	-0.308507	0.027579	99
Es	0.048484	-0.795952	0.509451	99
Es	-0.342342	1.594845	1.036832	99
Es	-2.427288	-0.305116	-0.727627	99
Es	0.611952	-0.327864	0.755634	99
Es	2.537169	-0.237382	0.003103	99
Es	2.080648	0.388912	-0.589014	99
Es	-2.411375	0.288565	0.332944	99
Es	0.358925	-1.402700	0.016839	99
Es	-0.327403	0.882121	-0.000181	99
Es	-1.404259	0.283276	-0.384329	99
Es	0.902266	-1.626135	-0.815484	99
Es	0.174051	-2.218375	-0.553349	99
Es	2.463108	0.563120	0.097494	99
Es	1.301523	0.284530	1.634207	99
Es	1.100818	0.277587	0.909787	99
Es	0.619351	-1.857068	-0.324412	99
Es	0.079792	1.350892	0.465943	99
Es	0.846500	-2.054006	-0.137678	99
Es	-2.408417	0.907905	-0.711963	99
Es	0.348921	1.941258	0.090470	99
Es	2.252567	0.305357	-0.003212	99
Es	-0.634593	0.269361	-0.393541	99
Es	-0.377367	0.268882	-1.104525	99
Es	-2.151224	0.294178	-0.370137	99
Es	-0.370932	-1.041912	1.076893	99
Es	0.636671	0.880908	0.727884	99
Es	1.739157	0.261407	0.366856	99
47
Properties=species:S:1:pos:R:3:Z:I:1 energy=-305.27988905338987 field_type=dipole dipole="0.000000 0.000000 0.000000" charge=0
C	-2.151226	0.294183	-0.370129	6
C	-0.634576	0.269313	-0.393579	6
C	0.079794	1.350943	0.465941	6
C	1.100754	0.277583	0.909920	6
N	2.252934	0.305783	-0.003039	7
C	0.048424	-0.795867	0.509561	6
N	0.619694	-1.857347	-0.324129	7
H	-2.558246	-0.577787	-0.893269	1
H	-2.529126	1.192453	-0.869899	1
H	-2.541426	0.287083	0.653561	1
H	-0.276856	0.283873	-1.433139	1
H	-0.527796	1.725653	1.299971	1
H	0.465384	2.215443	-0.083389	1
H	1.375194	0.296193	1.967991	1
H	2.024844	0.482853	-0.977780	1
H	2.756994	-0.581777	0.015091	1
H	-0.556506	-1.152207	1.351061	1
H	1.134424	-1.517897	-1.133169	1
H	-0.082686	-2.498467	-0.691569	1
Es	0.358982	-1.402618	0.016774	99
Es	0.348892	1.941250	0.090578	99
Es	0.079792	1.350892	0.465943	99
Es	0.048485	-0.795952	0.509446	99
Es	2.462693	0.562419	0.097328	99
Es	1.739134	0.261680	0.367105	99
Es	-2.411373	0.288558	0.332915	99
Es	0.174114	-2.218573	-0.553333	99
Es	-0.342285	1.594836	1.036775	99
Es	0.636722	0.880954	0.727973	99
Es	1.100807	0.277586	0.909789	99
Es	0.619269	-1.856982	-0.324471	99
Es	-2.427292	-0.305100	-0.727589	99
Es	0.846025	-2.053784	-0.137640	99
Es	0.611865	-0.327841	0.755845	99
Es	-0.634592	0.269360	-0.393538	99
Es	-0.355682	-0.308572	0.027537	99
Es	2.252572	0.305360	-0.003221	99
Es	-2.151224	0.294178	-0.370137	99
Es	1.301551	0.284544	1.634100	99
Es	-1.404246	0.283228	-0.384367	99
Es	-0.327450	0.882202	-0.000282	99
Es	2.537403	-0.237426	0.003163	99
Es	2.080858	0.389352	-0.589176	99
Es	0.902798	-1.626279	-0.815429	99
Es	-0.377429	0.268901	-1.104432	99
Es	-0.370947	-1.041989	1.076774	99
Es	-2.408453	0.907904	-0.711967	99
47
Properties=species:S:1:pos:R:3:Z:I:1 energy=-305.27988905338987 field_type=dipole dipole="0.000000 0.000000 0.000000" charge=0
C	-2.151226	0.294183	-0.370129	6
C	-0.634576	0.269313	-0.393579	6
C	0.079794	1.350943	0.465941	6
C	1.100754	0.277583	0.909920	6
N	2.252934	0.305783	-0.003039	7
C	0.048424	-0.795867	0.509561	6
N	0.619694	-1.857347	-0.324129	7
H	-2.558246	-0.577787	-0.893269	1
H	-2.529126	1.192453	-0.869899	1
H	-2.541426	0.287083	0.653561	1
H	-0.276856	0.283873	-1.433139	1
H	-0.527796	1.725653	1.299971	1
H	0.465384	2.215443	-0.083389	1
H	1.375194	0.296193	1.967991	1
H	2.024844	0.482853	-0.977780	1
H	2.756994	-0.581777	0.015091	1
H	-0.556506	-1.152207	1.351061	1
H	1.134424	-1.517897	-1.133169	1
H	-0.082686	-2.498467	-0.691569	1
Es	2.462671	0.562936	0.097095	99
Es	-1.404127	0.283147	-0.384391	99
Es	1.100818	0.277586	0.909788	99
Es	0.611948	-0.328022	0.755839	99
Es	0.358942	-1.402592	0.016845	99
Es	0.348850	1.941235	0.090612	99
Es	-2.151221	0.294179	-0.370138	99
Es	0.048485	-0.795953	0.509450	99
Es	1.739176	0.261571	0.367120	99
Es	-0.377535	0.268974	-1.104335	99
Es	2.252583	0.305362	-0.003213	99
Es	0.079792	1.350890	0.465940	99
Es	0.846105	-2.054037	-0.137644	99
Es	0.902669	-1.626313	-0.815316	99
Es	-0.370932	-1.041903	1.076790	99
Es	2.537630	-0.237284	0.003269	99
Es	-0.634595	0.269361	-0.393539	99
Es	-2.411426	0.288535	0.332871	99
Es	-2.408450	0.907892	-0.711933	99
Es	2.080641	0.388841	-0.589029	99
Es	-0.342256	1.594849	1.036718	99
Es	0.174018	-2.218330	-0.553501	99
Es	1.301522	0.284558	1.634009	99
Es	0.619347	-1.857032	-0.324423	99
Es	0.636713	0.881051	0.728067	99
Es	-0.355639	-0.308603	0.027320	99
Es	-0.327420	0.882232	-0.000206	99
Es	-2.427321	-0.305041	-0.727601	99
47
Properties=species:S:1:pos:R:3:Z:I:1 energy=-305.27988905338987 field_type=dipole dipole="0.000000 0.000000 0.000000" charge=0
C	-2.151226	0.294183	-0.370129	6
C	-0.634576	0.269313	-0.393579	6
C	0.079794	1.350943	0.465941	6
C	1.100754	0.277583	0.909920	6
N	2.252934	0.305783	-0.003039	7
C	0.048424	-0.795867	0.509561	6
N	0.619694	-1.857347	-0.324129	7
H	-2.558246	-0.577787	-0.893269	1
H	-2.529126	1.192453	-0.869899	1
H	-2.541426	0.287083	0.653561	1
H	-0.276856	0.283873	-1.433139	1
H	-0.527796	1.725653	1.299971	1
H	0.465384	2.215443	-0.083389	1
H	1.375194	0.296193	1.967991	1
H	2.024844	0.482853	-0.977780	1
H	2.756994	-0.581777	0.015091	1
H	-0.556506	-1.152207	1.351061	1
H	1.134424	-1.517897	-1.133169	1
H	-0.082686	-2.498467	-0.691569	1
Es	-0.634593	0.269360	-0.393533	99
Es	0.174022	-2.218355	-0.553492	99
Es	-0.377464	0.268893	-1.104314	99
Es	0.612041	-0.328029	0.755968	99
Es	0.079793	1.350888	0.465943	99
Es	-0.327439	0.882237	-0.000436	99
Es	0.636651	0.881101	0.728089	99
Es	-2.151221	0.294178	-0.370138	99
Es	-0.355767	-0.308621	0.027517	99
Es	0.902947	-1.626312	-0.815350	99
Es	2.537354	-0.237352	0.003195	99
Es	-2.408449	0.907891	-0.711916	99
Es	-0.342276	1.594887	1.036712	99
Es	-2.427369	-0.305084	-0.727586	99
Es	0.359031	-1.402666	0.017184	99
Es	2.462850	0.562562	0.097062	99
Es	-1.404166	0.283241	-0.384477	99
Es	0.348870	1.941174	0.090707	99
Es	2.080771	0.389040	-0.589087	99
Es	0.048485	-0.795949	0.509448	99
Es	-2.411366	0.288576	0.332871	99
Es	1.301515	0.284561	1.633913	99
Es	0.845704	-2.053943	-0.137965	99
Es	2.252579	0.305367	-0.003209	99
Es	1.739166	0.261804	0.367324	99
Es	1.100822	0.277589	0.909781	99
Es	0.619357	-1.857052	-0.324425	99
Es	-0.370859	-1.041898	1.076675	99
47
Properties=species:S:1:pos:R:3:Z:I:1 energy=-305.27988905338987 field_type=dipole dipole="0.000000 0.000000 0.000000" charge=0
C	-2.151226	0.294183	-0.370129	6
C	-0.634576	0.269313	-0.393579	6
C	0.079794	1.350943	0.465941	6
C	1.100754	0.277583	0.909920	6
N	2.252934	0.305783	-0.003039	7
C	0.048424	-0.795867	0.509561	6
N	0.619694	-1.857347	-0.324129	7
H	-2.558246	-0.577787	-0.893269	1
H	-2.529126	1.192453	-0.869899	1
H	-2.541426	0.287083	0.653561	1
H	-0.276856	0.283873	-1.433139	1
H	-0.527796	1.725653	1.299971	1
H	0.465384	2.215443	-0.083389	1
H	1.375194	0.296193	1.967991	1
H	2.024844	0.482853	-0.977780	1
H	2.756994	-0.581777	0.015091	1
H	-0.556506	-1.152207	1.351061	1
H	1.134424	-1.517897	-1.133169	1
H	-0.082686	-2.498467	-0.691569	1
Es	0.359226	-1.402642	0.017136	99
Es	0.619391	-1.857098	-0.324454	99
Es	2.080948	0.389335	-0.589115	99
Es	-2.151226	0.294177	-0.370137	99
Es	2.252571	0.305361	-0.003217	99
Es	-0.327502	0.882355	-0.000487	99
Es	0.903165	-1.626387	-0.815185	99
Es	-2.427345	-0.304992	-0.727498	99
Es	0.348805	1.941133	0.090772	99
Es	-0.342215	1.594913	1.036668	99
Es	0.048486	-0.795952	0.509446	99
Es	1.100815	0.277588	0.909786	99
Es	-0.370832	-1.041903	1.076656	99
Es	1.739078	0.261421	0.367052	99
Es	0.845531	-2.054329	-0.137767	99
Es	-2.411351	0.288504	0.332863	99
Es	-0.355779	-0.308563	0.027468	99
Es	0.173822	-2.217882	-0.553756	99
Es	2.537396	-0.237318	0.003085	99
Es	-1.404100	0.283127	-0.384586	99
Es	0.079791	1.350892	0.465942	99
Es	0.611913	-0.328018	0.756034	99
Es	1.301511	0.284561	1.633862	99
Es	2.462757	0.562568	0.097465	99
Es	0.636770	0.881145	0.728136	99
Es	-0.377488	0.268828	-1.104237	99
Es	-0.634592	0.269362	-0.393538	99
Es	-2.408557	0.907901	-0.711934	99
