49
Properties=species:S:1:pos:R:3:Z:I:1 energy=-663.8546082551828 field_type=dipole dipole="0.000000 0.000000 0.000000" charge=0
C	-0.752851	-1.494376	1.425639	6
C	-1.197461	-0.585676	0.287839	6
C	-0.574181	0.806284	0.371049	6
N	0.868199	0.778984	0.202969	7
C	1.589269	0.774144	-0.937381	6
N	0.932639	0.835184	-2.108561	7
S	3.246839	0.722184	-0.894391	16
H	-1.262111	-2.460726	1.357259	1
H	-0.993871	-1.052316	2.397519	1
H	0.325009	-1.680086	1.389439	1
H	-2.288721	-0.486496	0.324159	1
H	-0.947751	-1.059776	-0.668361	1
H	-0.777891	1.260844	1.346419	1
H	-1.010021	1.455834	-0.394911	1
H	1.429059	0.716024	1.045249	1
H	-0.060941	0.684774	-2.181641	1
H	1.474789	0.785194	-2.962291	1
Es	3.218780	0.840562	-0.907700	99
Es	3.247398	0.721918	-0.894857	99
Es	0.259215	0.779751	0.253619	99
Es	1.183766	0.732462	0.701300	99
Es	-1.021796	-0.900297	-0.370557	99
Es	-1.101151	-2.149026	1.376543	99
Es	3.188890	0.656096	-0.974069	99
Es	-0.876200	0.111320	0.326876	99
Es	0.868231	0.778761	0.202835	99
Es	-0.573987	0.806258	0.371010	99
Es	3.050789	1.103457	-0.906018	99
Es	1.589094	0.774155	-0.937391	99
Es	-0.918757	-1.184333	2.086645	99
Es	1.043958	1.053897	-0.064785	99
Es	-1.197436	-0.585657	0.287861	99
Es	-0.021955	-1.614548	1.399602	99
Es	-0.752867	-1.494348	1.425614	99
Es	2.314613	0.704282	-0.917318	99
Es	0.932699	0.834833	-2.108450	99
Es	-0.867597	1.245190	-0.160151	99
Es	3.358478	0.545928	-1.382054	99
Es	3.218312	0.685869	-0.787625	99
Es	-0.708033	1.108835	1.035265	99
Es	3.359451	0.706632	-0.907732	99
Es	-0.968364	-1.033115	0.857953	99
Es	0.345513	0.731527	-2.143558	99
Es	1.240790	0.788716	-2.606232	99
Es	3.333746	0.560191	-0.395598	99
Es	-1.943744	-0.509923	0.313051	99
Es	1.017104	1.101555	-1.914775	99
Es	1.074057	0.527496	-0.176456	99
Es	1.177659	0.631711	-1.663052	99
49
Properties=species:S:1:pos:R:3:Z:I:1 energy=-663.8546082551828 field_type=dipole dipole="0.000000 0.000000 0.000000" charge=0
C	-0.752851	-1.494376	1.425639	6
C	-1.197461	-0.585676	0.287839	6
C	-0.574181	0.806284	0.371049	6
N	0.868199	0.778984	0.202969	7
C	1.589269	0.774144	-0.937381	6
N	0.932639	0.835184	-2.108561	7
S	3.246839	0.722184	-0.894391	16
H	-1.262111	-2.460726	1.357259	1
H	-0.993871	-1.052316	2.397519	1
H	0.325009	-1.680086	1.389439	1
H	-2.288721	-0.486496	0.324159	1
H	-0.947751	-1.059776	-0.668361	1
H	-0.777891	1.260844	1.346419	1
H	-1.010021	1.455834	-0.394911	1
H	1.429059	0.716024	1.045249	1
H	-0.060941	0.684774	-2.181641	1
H	1.474789	0.785194	-2.962291	1
Es	-1.943723	-0.509876	0.313092	99
Es	1.047687	1.053683	-0.073844	99
Es	3.245406	0.723824	-0.895918	99
Es	3.244224	0.836789	-0.863632	99
Es	-0.022012	-1.614465	1.399672	99
Es	-0.968342	-1.033025	0.857956	99
Es	-0.708215	1.108905	1.035095	99
Es	1.183763	0.735037	0.701401	99
Es	3.346465	0.886310	-0.400510	99
Es	3.271774	0.710160	-1.008837	99
Es	0.259312	0.780957	0.253987	99
Es	1.070344	0.524196	-0.167627	99
Es	-0.876331	0.111314	0.326884	99
Es	3.371045	0.879175	-1.384449	99
Es	-0.573983	0.806259	0.371011	99
Es	-0.867437	1.245150	-0.160149	99
Es	0.932711	0.834795	-2.108430	99
Es	0.345610	0.731001	-2.143534	99
Es	-1.101222	-2.149186	1.376602	99
Es	1.015378	1.099921	-1.916641	99
Es	3.329197	0.669859	-0.834164	99
Es	1.240890	0.788791	-2.606104	99
Es	3.021325	0.340544	-0.897681	99
Es	0.868229	0.778728	0.202835	99
Es	2.319439	0.807254	-0.918274	99
Es	1.178986	0.634333	-1.661484	99
Es	-1.021826	-0.900265	-0.370621	99
Es	-0.752867	-1.494349	1.425614	99
Es	-1.197438	-0.585658	0.287861	99
Es	3.141810	0.670216	-0.869428	99
Es	1.589095	0.774159	-0.937394	99
Es	-0.918641	-1.184381	2.086508	99
49
Properties=species:S:1:pos:R:3:Z:I:1 energy=-663.8546082551828 field_type=dipole dipole="0.000000 0.000000 0.000000" charge=0
C	-0.752851	-1.494376	1.425639	6
C	-1.197461	-0.585676	0.287839	6
C	-0.574181	0.806284	0.371049	6
N	0.868199	0.778984	0.202969	7
C	1.589269	0.774144	-0.937381	6
N	0.932639	0.835184	-2.108561	7
S	3.246839	0.722184	-0.894391	16
H	-1.262111	-2.460726	1.357259	1
H	-0.993871	-1.052316	2.397519	1
H	0.325009	-1.680086	1.389439	1
H	-2.288721	-0.486496	0.324159	1
H	-0.947751	-1.059776	-0.668361	1
H	-0.777891	1.260844	1.346419	1
H	-1.010021	1.455834	-0.394911	1
H	1.429059	0.716024	1.045249	1
H	-0.060941	0.684774	-2.181641	1
H	1.474789	0.785194	-2.962291	1
Es	3.345708	0.886053	-0.400802	99
Es	-0.867522	1.245147	-0.160153	99
Es	0.259182	0.779594	0.253756	99
Es	0.932692	0.834836	-2.108456	99
Es	3.158171	0.644859	-0.915613	99
Es	1.179969	0.636915	-1.658609	99
Es	-1.101090	-2.148975	1.376548	99
Es	1.014127	1.099098	-1.919764	99
Es	-0.918888	-1.184477	2.086527	99
Es	-0.752867	-1.494350	1.425615	99
Es	2.320128	0.808003	-0.918143	99
Es	1.240987	0.787221	-2.605817	99
Es	1.183921	0.732649	0.701258	99
Es	-0.708120	1.108899	1.035144	99
Es	-1.197437	-0.585658	0.287861	99
Es	1.042563	1.053200	-0.064083	99
Es	3.200592	0.823416	-0.857363	99
Es	-1.943641	-0.509930	0.313130	99
Es	-0.573987	0.806260	0.371010	99
Es	3.319478	0.678920	-0.811019	99
Es	0.345755	0.730791	-2.143457	99
Es	-1.021848	-0.900289	-0.370687	99
Es	0.868205	0.778822	0.202878	99
Es	3.307276	0.741342	-0.993704	99
Es	-0.968374	-1.033048	0.857921	99
Es	3.246754	0.722389	-0.894324	99
Es	1.589095	0.774157	-0.937393	99
Es	3.370501	0.881361	-1.383483	99
Es	-0.021843	-1.614529	1.399772	99
Es	-0.876355	0.111323	0.326931	99
Es	1.075309	0.528416	-0.177250	99
Es	3.022213	0.337739	-0.898435	99
49
Properties=species:S:1:pos:R:3:Z:I:1 energy=-663.8546082551828 field_type=dipole dipole="0.000000 0.000000 0.000000" charge=0
C	-0.752851	-1.494376	1.425639	6
C	-1.197461	-0.585676	0.287839	6
C	-0.574181	0.806284	0.371049	6
N	0.868199	0.778984	0.202969	7
C	1.589269	0.774144	-0.937381	6
N	0.932639	0.835184	-2.108561	7
S	3.246839	0.722184	-0.894391	16
H	-1.262111	-2.460726	1.357259	1
H	-0.993871	-1.052316	2.397519	1
H	0.325009	-1.680086	1.389439	1
H	-2.288721	-0.486496	0.324159	1
H	-0.947751	-1.059776	-0.668361	1
H	-0.777891	1.260844	1.346419	1
H	-1.010021	1.455834	-0.394911	1
H	1.429059	0.716024	1.045249	1
H	-0.060941	0.684774	-2.181641	1
H	1.474789	0.785194	-2.962291	1
Es	0.259146	0.779265	0.253773	99
Es	-1.943618	-0.509853	0.313107	99
Es	1.177452	0.631792	-1.662607	99
Es	-1.197437	-0.585658	0.287861	99
Es	-0.752867	-1.494349	1.425614	99
Es	1.589095	0.774158	-0.937391	99
Es	1.016934	1.102018	-1.915170	99
Es	3.246831	0.722184	-0.894393	99
Es	3.355086	0.707108	-0.849234	99
Es	-0.708149	1.108946	1.035133	99
Es	-0.968456	-1.032926	0.857900	99
Es	-0.876359	0.111237	0.326899	99
Es	0.868241	0.778788	0.202834	99
Es	-0.918657	-1.184524	2.086502	99
Es	0.932772	0.834675	-2.108335	99
Es	-0.867466	1.245123	-0.160113	99
Es	1.240791	0.788175	-2.606164	99
Es	-1.101141	-2.149050	1.376656	99
Es	2.317151	0.699926	-0.917724	99
Es	-0.573981	0.806258	0.371011	99
Es	-1.021860	-0.900290	-0.370701	99
Es	3.224696	0.836603	-0.907965	99
Es	0.345722	0.731593	-2.143624	99
Es	-0.021988	-1.614562	1.399742	99
Es	3.356530	0.544852	-1.380006	99
Es	1.183671	0.732320	0.701050	99
Es	3.329162	0.551842	-0.400830	99
Es	3.165145	0.675658	-0.820753	99
Es	1.043125	1.053796	-0.063260	99
Es	3.055999	1.117746	-0.902359	99
Es	1.075009	0.528105	-0.177998	99
Es	3.240077	0.669196	-0.999660	99
49
Properties=species:S:1:pos:R:3:Z:I:1 energy=-663.8546082551828 field_type=dipole dipole="0.000000 0.000000 0.000000" charge=0
C	-0.752851	-1.494376	1.425639	6
C	-1.197461	-0.585676	0.287839	6
C	-0.574181	0.806284	0.371049	6
N	0.868199	0.778984	0.202969	7
C	1.589269	0.774144	-0.937381	6
N	0.932639	0.835184	-2.108561	7
S	3.246839	0.722184	-0.894391	16
H	-1.262111	-2.460726	1.357259	1
H	-0.993871	-1.052316	2.397519	1
H	0.325009	-1.680086	1.389439	1
H	-2.288721	-0.486496	0.324159	1
H	-0.947751	-1.059776	-0.668361	1
H	-0.777891	1.260844	1.346419	1
H	-1.010021	1.455834	-0.394911	1
H	1.429059	0.716024	1.045249	1
H	-0.060941	0.684774	-2.181641	1
H	1.474789	0.785194	-2.962291	1
Es	-0.573987	0.806260	0.371010	99
Es	0.346146	0.729966	-2.143413	99
Es	-0.918633	-1.184478	2.086563	99
Es	-0.752867	-1.494349	1.425614	99
Es	1.589096	0.774155	-0.937393	99
Es	-0.968310	-1.033166	0.857879	99
Es	1.038778	1.053704	-0.056027	99
Es	-0.708155	1.108960	1.035189	99
Es	-0.022019	-1.614599	1.399680	99
Es	1.183654	0.731297	0.700940	99
Es	3.357704	0.761532	-0.900635	99
Es	-0.867443	1.245099	-0.160080	99
Es	-1.197435	-0.585657	0.287858	99
Es	1.179696	0.635251	-1.658643	99
Es	3.055293	1.119118	-0.909856	99
Es	3.243463	0.606895	-0.920216	99
Es	-1.022019	-0.900102	-0.370577	99
Es	3.331332	0.558960	-0.397922	99
Es	-1.101123	-2.149012	1.376677	99
Es	-1.943605	-0.509931	0.313079	99
Es	1.240701	0.787717	-2.605984	99
Es	0.259166	0.776671	0.253449	99
Es	1.014335	1.100516	-1.919327	99
Es	-0.876403	0.111367	0.326760	99
Es	1.079377	0.531770	-0.184971	99
Es	3.353786	0.537500	-1.376358	99
Es	0.932708	0.834808	-2.108438	99
Es	2.317711	0.698306	-0.916776	99
Es	3.179705	0.781130	-0.971917	99
Es	0.868221	0.778829	0.202858	99
Es	3.204896	0.739500	-0.784835	99
Es	3.246887	0.722138	-0.894391	99
49
Properties=species:S:1:pos:R:3:Z:I:1 energy=-663.8546082551828 field_type=dipole dipole="0.000000 0.000000 0.000000" charge=0
C	-0.752851	-1.494376	1.425639	6
C	-1.197461	-0.585676	0.287839	6
C	-0.574181	0.806284	0.371049	6
N	0.868199	0.778984	0.202969	7
C	1.589269	0.774144	-0.937381	6
N	0.932639	0.835184	-2.108561	7
S	3.246839	0.722184	-0.894391	16
H	-1.262111	-2.460726	1.357259	1
H	-0.993871	-1.052316	2.397519	1
H	0.325009	-1.680086	1.389439	1
H	-2.288721	-0.486496	0.324159	1
H	-0.947751	-1.059776	-0.668361	1
H	-0.777891	1.260844	1.346419	1
H	-1.010021	1.455834	-0.394911	1
H	1.429059	0.716024	1.045249	1
H	-0.060941	0.684774	-2.181641	1
H	1.474789	0.785194	-2.962291	1
Es	1.589098	0.774158	-0.937392	99
Es	1.016995	1.102990	-1.912744	99
Es	-0.918691	-1.184513	2.086459	99
Es	3.338236	0.729970	-0.961789	99
Es	3.368937	0.882171	-1.381941	99
Es	3.024672	0.327750	-0.896182	99
Es	0.932717	0.834752	-2.108421	99
Es	-0.867452	1.245064	-0.160094	99
Es	-0.752868	-1.494348	1.425614	99
Es	1.240503	0.789050	-2.606265	99
Es	-1.101120	-2.149030	1.376704	99
Es	-0.708145	1.109020	1.035082	99
Es	-1.197438	-0.585661	0.287862	99
Es	3.198746	0.616996	-0.910344	99
Es	0.259126	0.780942	0.253792	99
Es	1.183634	0.734232	0.701245	99
Es	-0.022008	-1.614593	1.399833	99
Es	1.071437	0.525232	-0.169935	99
Es	-0.876408	0.111299	0.326909	99
Es	3.164897	0.811303	-0.922649	99
Es	-1.021909	-0.900163	-0.370576	99
Es	1.046678	1.053434	-0.071667	99
Es	0.868223	0.778886	0.202860	99
Es	1.177126	0.631020	-1.665129	99
Es	3.343488	0.891210	-0.404422	99
Es	2.322360	0.811748	-0.918099	99
Es	-0.573988	0.806260	0.371010	99
Es	3.282848	0.730761	-0.782829	99
Es	3.246806	0.722195	-0.894405	99
Es	0.346134	0.731003	-2.143528	99
Es	-0.968396	-1.033078	0.857864	99
Es	-1.943584	-0.509906	0.312970	99
49
Properties=species:S:1:pos:R:3:Z:I:1 energy=-663.8546082551828 field_type=dipole dipole="0.000000 0.000000 0.000000" charge=0
C	-0.752851	-1.494376	1.425639	6
C	-1.197461	-0.585676	0.287839	6
C	-0.574181	0.806284	0.371049	6
N	0.868199	0.778984	0.202969	7
C	1.589269	0.774144	-0.937381	6
N	0.932639	0.835184	-2.108561	7
S	3.246839	0.722184	-0.894391	16
H	-1.262111	-2.460726	1.357259	1
H	-0.993871	-1.052316	2.397519	1
H	0.325009	-1.680086	1.389439	1
H	-2.288721	-0.486496	0.324159	1
H	-0.947751	-1.059776	-0.668361	1
H	-0.777891	1.260844	1.346419	1
H	-1.010021	1.455834	-0.394911	1
H	1.429059	0.716024	1.045249	1
H	-0.060941	0.684774	-2.181641	1
H	1.474789	0.785194	-2.962291	1
Es	-0.968435	-1.033037	0.857874	99
Es	0.868243	0.778849	0.202827	99
Es	-0.752867	-1.494350	1.425616	99
Es	1.589096	0.774155	-0.937393	99
Es	-1.021963	-0.900183	-0.370575	99
Es	0.346092	0.730816	-2.143709	99
Es	3.242529	0.727914	-0.905627	99
Es	3.330356	0.557415	-0.399354	99
Es	1.176603	0.630506	-1.664193	99
Es	0.259138	0.780855	0.253881	99
Es	-1.101090	-2.149042	1.376690	99
Es	-0.918658	-1.184572	2.086487	99
Es	1.183794	0.734351	0.701243	99
Es	3.056480	1.124023	-0.909666	99
Es	1.047745	1.053478	-0.072168	99
Es	-0.876406	0.111258	0.326838	99
Es	3.352981	0.536436	-1.375152	99
Es	-0.708142	1.108981	1.035046	99
Es	1.240603	0.787943	-2.605927	99
Es	1.017495	1.104186	-1.913489	99
Es	3.342809	0.807253	-0.880451	99
Es	3.266232	0.610824	-0.955459	99
Es	1.070294	0.524677	-0.169614	99
Es	-0.867442	1.245103	-0.160009	99
Es	3.247987	0.720083	-0.890393	99
Es	0.932719	0.834747	-2.108430	99
Es	-1.197440	-0.585661	0.287857	99
Es	2.318797	0.696474	-0.916688	99
Es	-0.022072	-1.614598	1.399848	99
Es	-1.943534	-0.509835	0.312963	99
Es	-0.573994	0.806260	0.371010	99
Es	3.132708	0.744844	-0.840088	99
49
Properties=species:S:1:pos:R:3:Z:I:1 energy=-663.8546082551828 field_type=dipole dipole="0.000000 0.000000 0.000000" charge=0
C	-0.752851	-1.494376	1.425639	6
C	-1.197461	-0.585676	0.287839	6
C	-0.574181	0.806284	0.371049	6
N	0.868199	0.778984	0.202969	7
C	1.589269	0.774144	-0.937381	6
N	0.932639	0.835184	-2.108561	7
S	3.246839	0.722184	-0.894391	16
H	-1.262111	-2.460726	1.357259	1
H	-0.993871	-1.052316	2.397519	1
H	0.325009	-1.680086	1.389439	1
H	-2.288721	-0.486496	0.324159	1
H	-0.947751	-1.059776	-0.668361	1
H	-0.777891	1.260844	1.346419	1
H	-1.010021	1.455834	-0.394911	1
H	1.429059	0.716024	1.045249	1
H	-0.060941	0.684774	-2.181641	1
H	1.474789	0.785194	-2.962291	1
Es	1.589096	0.774160	-0.937392	99
Es	-0.708198	1.109009	1.034946	99
Es	1.240478	0.788453	-2.605923	99
Es	-1.021973	-0.900105	-0.370612	99
Es	-0.918610	-1.184621	2.086556	99
Es	3.246829	0.722167	-0.894394	99
Es	-0.968438	-1.033049	0.857875	99
Es	3.342997	0.891590	-0.405209	99
Es	-1.197438	-0.585659	0.287861	99
Es	1.047791	1.053570	-0.074040	99
Es	3.367818	0.883911	-1.380414	99
Es	-0.752866	-1.494350	1.425616	99
Es	1.070288	0.524400	-0.167736	99
Es	0.932691	0.834906	-2.108455	99
Es	1.176837	0.630857	-1.665277	99
Es	3.223178	0.756940	-0.782918	99
Es	-1.101022	-2.149039	1.376690	99
Es	2.323934	0.814380	-0.918178	99
Es	3.355908	0.748232	-0.919001	99
Es	-0.573991	0.806262	0.371009	99
Es	-0.876505	0.111232	0.326891	99
Es	0.346106	0.731004	-2.143683	99
Es	-0.022130	-1.614587	1.399796	99
Es	-1.943522	-0.509844	0.312963	99
Es	0.868209	0.779019	0.202896	99
Es	1.183662	0.734666	0.701152	99
Es	3.024828	0.323100	-0.896986	99
Es	1.017223	1.103596	-1.912623	99
Es	3.230879	0.605162	-0.903762	99
Es	3.174742	0.778653	-0.971848	99
Es	-0.867423	1.245079	-0.160022	99
Es	0.259279	0.781057	0.254019	99
49
Properties=species:S:1:pos:R:3:Z:I:1 energy=-663.8546082551828 field_type=dipole dipole="0.000000 0.000000 0.000000" charge=0
C	-0.752851	-1.494376	1.425639	6
C	-1.197461	-0.585676	0.287839	6
C	-0.574181	0.806284	0.371049	6
N	0.868199	0.778984	0.202969	7
C	1.589269	0.774144	-0.937381	6
N	0.932639	0.835184	-2.108561	7
S	3.246839	0.722184	-0.894391	16
H	-1.262111	-2.460726	1.357259	1
H	-0.993871	-1.052316	2.397519	1
H	0.325009	-1.680086	1.389439	1
H	-2.288721	-0.486496	0.324159	1
H	-0.947751	-1.059776	-0.668361	1
H	-0.777891	1.260844	1.346419	1
H	-1.010021	1.455834	-0.394911	1
H	1.429059	0.716024	1.045249	1
H	-0.060941	0.684774	-2.181641	1
H	1.474789	0.785194	-2.962291	1
Es	1.017590	1.104772	-1.913234	99
Es	0.868234	0.778784	0.202839	99
Es	3.353930	0.540158	-1.376105	99
Es	3.185094	0.699706	-0.989903	99
Es	2.320801	0.691732	-0.916663	99
Es	1.589096	0.774154	-0.937392	99
Es	3.330764	0.555076	-0.400926	99
Es	-0.867321	1.245081	-0.159991	99
Es	0.259190	0.778063	0.253800	99
Es	3.346204	0.784681	-0.923050	99
Es	1.176461	0.630136	-1.664458	99
Es	-1.197437	-0.585659	0.287861	99
Es	-1.101022	-2.149079	1.376765	99
Es	-0.752864	-1.494349	1.425616	99
Es	3.053765	1.127328	-0.907100	99
Es	0.932723	0.834794	-2.108412	99
Es	-0.708201	1.109062	1.034978	99
Es	3.273784	0.619016	-0.840074	99
Es	1.077332	0.530382	-0.182366	99
Es	-0.022139	-1.614566	1.399878	99
Es	-1.943496	-0.509869	0.312848	99
Es	3.179512	0.785329	-0.824150	99
Es	-0.573990	0.806260	0.371010	99
Es	-0.968453	-1.033089	0.857888	99
Es	1.183545	0.731051	0.700715	99
Es	1.240469	0.787789	-2.605911	99
Es	1.040882	1.053959	-0.058916	99
Es	3.247140	0.722261	-0.894820	99
Es	0.346215	0.730635	-2.143637	99
Es	-0.918622	-1.184581	2.086469	99
Es	-0.876594	0.111240	0.326779	99
Es	-1.021936	-0.900104	-0.370543	99
49
Properties=species:S:1:pos:R:3:Z:I:1 energy=-663.8546082551828 field_type=dipole dipole="0.000000 0.000000 0.000000" charge=0
C	-0.752851	-1.494376	1.425639	6
C	-1.197461	-0.585676	0.287839	6
C	-0.574181	0.806284	0.371049	6
N	0.868199	0.778984	0.202969	7
C	1.589269	0.774144	-0.937381	6
N	0.932639	0.835184	-2.108561	7
S	3.246839	0.722184	-0.894391	16
H	-1.262111	-2.460726	1.357259	1
H	-0.993871	-1.052316	2.397519	1
H	0.325009	-1.680086	1.389439	1
H	-2.288721	-0.486496	0.324159	1
H	-0.947751	-1.059776	-0.668361	1
H	-0.777891	1.260844	1.346419	1
H	-1.010021	1.455834	-0.394911	1
H	1.429059	0.716024	1.045249	1
H	-0.060941	0.684774	-2.181641	1
H	1.474789	0.785194	-2.962291	1
Es	0.868220	0.778864	0.202862	99
Es	1.075271	0.528370	-0.178435	99
Es	0.259141	0.778835	0.253807	99
Es	3.327560	0.549436	-0.403827	99
Es	-0.022121	-1.614553	1.399869	99
Es	1.176938	0.631062	-1.663254	99
Es	-1.100963	-2.149056	1.376776	99
Es	-0.918630	-1.184637	2.086484	99
Es	-1.021852	-0.900057	-0.370474	99
Es	-0.867408	1.245095	-0.159957	99
Es	-0.752867	-1.494348	1.425615	99
Es	-0.968508	-1.033072	0.857910	99
Es	-0.708104	1.109063	1.034911	99
Es	-1.943556	-0.509901	0.312755	99
Es	-1.197438	-0.585659	0.287860	99
Es	0.932726	0.834792	-2.108407	99
Es	1.183585	0.732314	0.700821	99
Es	1.016968	1.104204	-1.914432	99
Es	1.042971	1.053809	-0.063104	99
Es	3.057707	1.130062	-0.902940	99
Es	0.346245	0.730505	-2.143672	99
Es	3.239964	0.609745	-0.878285	99
Es	3.201118	0.749513	-1.004171	99
Es	-0.573992	0.806260	0.371009	99
Es	-0.876642	0.111189	0.326880	99
Es	1.240522	0.787547	-2.605814	99
Es	3.361706	0.757656	-0.882990	99
Es	2.320559	0.693257	-0.917186	99
Es	3.353900	0.541714	-1.376854	99
Es	1.589095	0.774159	-0.937391	99
Es	3.246875	0.722150	-0.894398	99
Es	3.181665	0.771833	-0.812173	99
49
Properties=species:S:1:pos:R:3:Z:I:1 energy=-663.8546082551828 field_type=dipole dipole="0.000000 0.000000 0.000000" charge=0
C	-0.752851	-1.494376	1.425639	6
C	-1.197461	-0.585676	0.287839	6
C	-0.574181	0.806284	0.371049	6
N	0.868199	0.778984	0.202969	7
C	1.589269	0.774144	-0.937381	6
N	0.932639	0.835184	-2.108561	7
S	3.246839	0.722184	-0.894391	16
H	-1.262111	-2.460726	1.357259	1
H	-0.993871	-1.052316	2.397519	1
H	0.325009	-1.680086	1.389439	1
H	-2.288721	-0.486496	0.324159	1
H	-0.947751	-1.059776	-0.668361	1
H	-0.777891	1.260844	1.346419	1
H	-1.010021	1.455834	-0.394911	1
H	1.429059	0.716024	1.045249	1
H	-0.060941	0.684774	-2.181641	1
H	1.474789	0.785194	-2.962291	1
Es	-0.708160	1.108949	1.034935	99
Es	-1.943417	-0.509812	0.312863	99
Es	3.261129	0.837337	-0.880422	99
Es	3.195410	0.701538	-1.000043	99
Es	3.328052	0.551431	-0.403260	99
Es	2.321683	0.690801	-0.917010	99
Es	1.050021	1.053971	-0.076332	99
Es	-1.197438	-0.585657	0.287860	99
Es	-0.022168	-1.614657	1.399927	99
Es	0.346285	0.730783	-2.143860	99
Es	-0.573988	0.806261	0.371010	99
Es	-1.022055	-0.900029	-0.370568	99
Es	3.353326	0.539968	-1.375615	99
Es	1.176778	0.630845	-1.663020	99
Es	1.240628	0.787784	-2.605843	99
Es	-0.918593	-1.184679	2.086473	99
Es	0.259197	0.781130	0.254048	99
Es	3.246932	0.721701	-0.894375	99
Es	0.932698	0.834879	-2.108446	99
Es	1.589098	0.774155	-0.937393	99
Es	1.183504	0.735066	0.701017	99
Es	-0.867412	1.245157	-0.159909	99
Es	-0.752867	-1.494350	1.425615	99
Es	3.056494	1.132372	-0.904972	99
Es	-0.876523	0.111220	0.326803	99
Es	3.176955	0.683007	-0.808800	99
Es	1.016979	1.103778	-1.914362	99
Es	1.068240	0.523162	-0.165639	99
Es	-1.101023	-2.149008	1.376768	99
Es	3.351130	0.667249	-0.888331	99
Es	-0.968467	-1.033109	0.857822	99
Es	0.868229	0.778907	0.202853	99
49
Properties=species:S:1:pos:R:3:Z:I:1 energy=-663.8546082551828 field_type=dipole dipole="0.000000 0.000000 0.000000" charge=0
C	-0.752851	-1.494376	1.425639	6
C	-1.197461	-0.585676	0.287839	6
C	-0.574181	0.806284	0.371049	6
N	0.868199	0.778984	0.202969	7
C	1.589269	0.774144	-0.937381	6
N	0.932639	0.835184	-2.108561	7
S	3.246839	0.722184	-0.894391	16
H	-1.262111	-2.460726	1.357259	1
H	-0.993871	-1.052316	2.397519	1
H	0.325009	-1.680086	1.389439	1
H	-2.288721	-0.486496	0.324159	1
H	-0.947751	-1.059776	-0.668361	1
H	-0.777891	1.260844	1.346419	1
H	-1.010021	1.455834	-0.394911	1
H	1.429059	0.716024	1.045249	1
H	-0.060941	0.684774	-2.181641	1
H	1.474789	0.785194	-2.962291	1
Es	1.183483	0.730641	0.700483	99
Es	1.589098	0.774160	-0.937393	99
Es	3.143096	0.658073	-0.899421	99
Es	3.246904	0.722292	-0.894459	99
Es	3.221769	0.836186	-0.912999	99
Es	-0.968520	-1.033035	0.857940	99
Es	-1.100978	-2.149041	1.376807	99
Es	-0.876598	0.111248	0.326637	99
Es	-0.918541	-1.184699	2.086484	99
Es	3.342146	0.898100	-0.409368	99
Es	3.320885	0.685113	-0.976555	99
Es	0.868259	0.778835	0.202802	99
Es	1.016983	1.104727	-1.912597	99
Es	1.240380	0.788083	-2.605748	99
Es	-1.943454	-0.509832	0.312743	99
Es	1.176627	0.630709	-1.665356	99
Es	-1.197439	-0.585659	0.287859	99
Es	-0.573995	0.806260	0.371010	99
Es	2.326848	0.819405	-0.918938	99
Es	3.022283	0.319539	-0.889320	99
Es	1.039050	1.053847	-0.057505	99
Es	-0.867371	1.245134	-0.159888	99
Es	0.932742	0.834773	-2.108376	99
Es	0.259161	0.777539	0.253744	99
Es	3.296995	0.709689	-0.788630	99
Es	3.370466	0.875722	-1.382846	99
Es	-0.752867	-1.494348	1.425614	99
Es	-0.022199	-1.614614	1.399886	99
Es	0.346463	0.730515	-2.143743	99
Es	-1.022005	-0.900086	-0.370423	99
Es	-0.708136	1.108994	1.034958	99
Es	1.079118	0.531881	-0.183606	99
49
Properties=species:S:1:pos:R:3:Z:I:1 energy=-663.8546082551828 field_type=dipole dipole="0.000000 0.000000 0.000000" charge=0
C	-0.752851	-1.494376	1.425639	6
C	-1.197461	-0.585676	0.287839	6
C	-0.574181	0.806284	0.371049	6
N	0.868199	0.778984	0.202969	7
C	1.589269	0.774144	-0.937381	6
N	0.932639	0.835184	-2.108561	7
S	3.246839	0.722184	-0.894391	16
H	-1.262111	-2.460726	1.357259	1
H	-0.993871	-1.052316	2.397519	1
H	0.325009	-1.680086	1.389439	1
H	-2.288721	-0.486496	0.324159	1
H	-0.947751	-1.059776	-0.668361	1
H	-0.777891	1.260844	1.346419	1
H	-1.010021	1.455834	-0.394911	1
H	1.429059	0.716024	1.045249	1
H	-0.060941	0.684774	-2.181641	1
H	1.474789	0.785194	-2.962291	1
Es	-0.876666	0.111172	0.326735	99
Es	1.017352	1.104384	-1.911516	99
Es	1.240365	0.788793	-2.605893	99
Es	1.176303	0.629832	-1.666047	99
Es	-1.022083	-0.899990	-0.370536	99
Es	1.183508	0.732929	0.700777	99
Es	0.259109	0.779003	0.253797	99
Es	-0.918526	-1.184662	2.086386	99
Es	-0.867367	1.245150	-0.159819	99
Es	3.342978	0.893560	-0.407287	99
Es	-0.022250	-1.614604	1.399999	99
Es	3.274021	0.783837	-0.799836	99
Es	1.075290	0.528292	-0.176267	99
Es	2.327429	0.820357	-0.918192	99
Es	3.246659	0.721848	-0.894957	99
Es	-0.752864	-1.494350	1.425615	99
Es	3.192149	0.792823	-0.969636	99
Es	-1.943407	-0.509855	0.312854	99
Es	3.346890	0.676451	-0.944716	99
Es	1.042973	1.053715	-0.065288	99
Es	0.932673	0.834944	-2.108478	99
Es	-0.573989	0.806261	0.371009	99
Es	3.022507	0.317480	-0.894828	99
Es	3.170340	0.636143	-0.862917	99
Es	-0.968482	-1.033128	0.857670	99
Es	-0.708106	1.109005	1.034898	99
Es	-1.100923	-2.149071	1.376970	99
Es	-1.197441	-0.585659	0.287862	99
Es	0.346441	0.730821	-2.143856	99
Es	3.368451	0.881661	-1.380166	99
Es	1.589099	0.774161	-0.937394	99
Es	0.868223	0.778852	0.202855	99
49
Properties=species:S:1:pos:R:3:Z:I:1 energy=-663.8546082551828 field_type=dipole dipole="0.000000 0.000000 0.000000" charge=0
C	-0.752851	-1.494376	1.425639	6
C	-1.197461	-0.585676	0.287839	6
C	-0.574181	0.806284	0.371049	6
N	0.868199	0.778984	0.202969	7
C	1.589269	0.774144	-0.937381	6
N	0.932639	0.835184	-2.108561	7
S	3.246839	0.722184	-0.894391	16
H	-1.262111	-2.460726	1.357259	1
H	-0.993871	-1.052316	2.397519	1
H	0.325009	-1.680086	1.389439	1
H	-2.288721	-0.486496	0.324159	1
H	-0.947751	-1.059776	-0.668361	1
H	-0.777891	1.260844	1.346419	1
H	-1.010021	1.455834	-0.394911	1
H	1.429059	0.716024	1.045249	1
H	-0.060941	0.684774	-2.181641	1
H	1.474789	0.785194	-2.962291	1
Es	-0.752866	-1.494350	1.425616	99
Es	3.155671	0.645553	-0.926715	99
Es	3.246328	0.720701	-0.895580	99
Es	1.175623	0.629120	-1.667222	99
Es	1.183798	0.734588	0.700826	99
Es	-0.867335	1.245085	-0.159806	99
Es	3.200797	0.826538	-0.865675	99
Es	0.868217	0.778870	0.202872	99
Es	2.327631	0.820500	-0.918541	99
Es	1.047704	1.053127	-0.073969	99
Es	-0.968465	-1.033048	0.857877	99
Es	-1.197440	-0.585662	0.287860	99
Es	-0.876642	0.111152	0.326620	99
Es	-1.943419	-0.509819	0.312741	99
Es	3.307030	0.680384	-0.803073	99
Es	-0.573992	0.806261	0.371010	99
Es	0.346577	0.730677	-2.143809	99
Es	-0.918474	-1.184679	2.086455	99
Es	0.932727	0.834830	-2.108403	99
Es	1.240171	0.787978	-2.605651	99
Es	1.589104	0.774159	-0.937394	99
Es	3.319264	0.738139	-0.980953	99
Es	-1.101018	-2.149018	1.376882	99
Es	3.023923	0.316064	-0.892873	99
Es	-0.708172	1.109042	1.034897	99
Es	-0.022261	-1.614696	1.399923	99
Es	1.070337	0.524660	-0.168167	99
Es	3.342111	0.895761	-0.408644	99
Es	1.018000	1.106184	-1.910684	99
Es	3.368705	0.880535	-1.380432	99
Es	0.259064	0.781551	0.254247	99
Es	-1.022041	-0.900036	-0.370441	99
49
Properties=species:S:1:pos:R:3:Z:I:1 energy=-663.8546082551828 field_type=dipole dipole="0.000000 0.000000 0.000000" charge=0
C	-0.752851	-1.494376	1.425639	6
C	-1.197461	-0.585676	0.287839	6
C	-0.574181	0.806284	0.371049	6
N	0.868199	0.778984	0.202969	7
C	1.589269	0.774144	-0.937381	6
N	0.932639	0.835184	-2.108561	7
S	3.246839	0.722184	-0.894391	16
H	-1.262111	-2.460726	1.357259	1
H	-0.993871	-1.052316	2.397519	1
H	0.325009	-1.680086	1.389439	1
H	-2.288721	-0.486496	0.324159	1
H	-0.947751	-1.059776	-0.668361	1
H	-0.777891	1.260844	1.346419	1
H	-1.010021	1.455834	-0.394911	1
H	1.429059	0.716024	1.045249	1
H	-0.060941	0.684774	-2.181641	1
H	1.474789	0.785194	-2.962291	1
Es	-0.708102	1.109011	1.034908	99
Es	3.298924	0.716783	-0.796640	99
Es	3.175129	0.622847	-0.907311	99
Es	-0.876766	0.111183	0.326612	99
Es	0.346625	0.730406	-2.143892	99
Es	-1.943376	-0.509822	0.312711	99
Es	1.240193	0.788083	-2.605762	99
Es	-1.197439	-0.585660	0.287861	99
Es	1.183474	0.730875	0.700528	99
Es	3.326831	0.546585	-0.406239	99
Es	-0.752867	-1.494351	1.425616	99
Es	1.175218	0.627816	-1.666525	99
Es	1.589098	0.774159	-0.937395	99
Es	3.329503	0.726326	-0.978089	99
Es	3.059704	1.134480	-0.899949	99
Es	-0.918513	-1.184782	2.086461	99
Es	-0.022263	-1.614662	1.399971	99
Es	3.354455	0.544203	-1.376689	99
Es	-0.573994	0.806261	0.371010	99
Es	-0.867298	1.245175	-0.159727	99
Es	-1.022061	-0.899960	-0.370461	99
Es	1.041217	1.053958	-0.059374	99
Es	2.322823	0.689079	-0.917442	99
Es	-1.100929	-2.149008	1.376861	99
Es	1.018506	1.106815	-1.910778	99
Es	0.868235	0.778831	0.202842	99
Es	3.177203	0.822962	-0.895777	99
Es	-0.968523	-1.033076	0.857847	99
Es	0.932715	0.834854	-2.108421	99
Es	1.077147	0.530554	-0.182119	99
Es	0.259058	0.777975	0.253691	99
Es	3.246728	0.722255	-0.894533	99
49
Properties=species:S:1:pos:R:3:Z:I:1 energy=-663.8546082551828 field_type=dipole dipole="0.000000 0.000000 0.000000" charge=0
C	-0.752851	-1.494376	1.425639	6
C	-1.197461	-0.585676	0.287839	6
C	-0.574181	0.806284	0.371049	6
N	0.868199	0.778984	0.202969	7
C	1.589269	0.774144	-0.937381	6
N	0.932639	0.835184	-2.108561	7
S	3.246839	0.722184	-0.894391	16
H	-1.262111	-2.460726	1.357259	1
H	-0.993871	-1.052316	2.397519	1
H	0.325009	-1.680086	1.389439	1
H	-2.288721	-0.486496	0.324159	1
H	-0.947751	-1.059776	-0.668361	1
H	-0.777891	1.260844	1.346419	1
H	-1.010021	1.455834	-0.394911	1
H	1.429059	0.716024	1.045249	1
H	-0.060941	0.684774	-2.181641	1
H	1.474789	0.785194	-2.962291	1
Es	1.178767	0.635014	-1.659279	99
Es	0.932698	0.834864	-2.108456	99
Es	1.013995	1.105703	-1.919130	99
Es	1.183557	0.731522	0.700427	99
Es	3.056970	1.138435	-0.905380	99
Es	-0.918556	-1.184786	2.086431	99
Es	3.246517	0.719148	-0.893892	99
Es	-1.100866	-2.149059	1.376879	99
Es	-1.943392	-0.509803	0.312717	99
Es	-1.197440	-0.585659	0.287861	99
Es	-0.022284	-1.614598	1.400037	99
Es	2.324081	0.686466	-0.916906	99
Es	1.042575	1.054269	-0.062183	99
Es	-1.022119	-0.899957	-0.370404	99
Es	3.317976	0.741945	-0.999009	99
Es	1.589100	0.774158	-0.937400	99
Es	-0.708164	1.109069	1.034837	99
Es	0.347386	0.727313	-2.143364	99
Es	1.075631	0.529245	-0.179607	99
Es	-0.573995	0.806260	0.371010	99
Es	3.282533	0.771564	-0.780639	99
Es	0.259188	0.778370	0.254052	99
Es	-0.968479	-1.033108	0.857810	99
Es	1.240349	0.785146	-2.605020	99
Es	-0.876707	0.111163	0.326601	99
Es	3.353076	0.539348	-1.373775	99
Es	-0.752867	-1.494348	1.425615	99
Es	-0.867290	1.245101	-0.159775	99
Es	0.868206	0.778778	0.202878	99
Es	3.134191	0.661156	-0.905602	99
Es	3.248102	0.716537	-0.892940	99
Es	3.327919	0.550896	-0.404599	99
