45
Properties=species:S:1:pos:R:3:Z:I:1 energy=-739.2940932049956 field_type=dipole dipole="0.000000 0.000000 0.000000" charge=0
C	-1.667399	-0.248639	-0.253973	6
C	-0.232689	-0.328489	0.149167	6
C	0.378521	-1.465409	0.525637	6
S	0.686221	1.153971	0.130027	16
O	1.717711	0.816171	-1.063523	8
O	-0.130739	2.258992	-0.319823	8
O	1.507571	1.261861	1.316807	8
H	-2.213929	0.432851	0.405877	1
H	-2.159599	-1.225579	-0.201593	1
H	-1.757779	0.113311	-1.283113	1
H	-0.155719	-2.409778	0.553597	1
H	1.424891	-1.483459	0.818607	1
H	2.602941	1.124192	-0.777693	1
Es	-0.214337	2.091722	-0.555668	99
Es	0.154527	-0.903378	0.023588	99
Es	-0.232652	-0.328264	0.149136	99
Es	1.717777	0.816376	-1.063208	99
Es	0.762362	1.129009	0.220788	99
Es	0.189655	0.368552	0.136275	99
Es	1.288063	1.308991	1.499855	99
Es	1.634875	1.484363	1.149977	99
Es	-1.713814	-0.009913	-0.938444	99
Es	1.074652	-1.480868	0.718140	99
Es	1.507262	1.261766	1.316444	99
Es	2.158693	0.990185	-0.895452	99
Es	1.173268	1.222635	0.897723	99
Es	0.019922	-2.094111	0.542286	99
Es	0.378548	-1.465449	0.525648	99
Es	0.098941	2.439151	-0.306059	99
Es	-1.980840	-0.914957	-0.212302	99
Es	1.718193	0.529612	-1.036737	99
Es	-0.923337	-0.273756	-0.049297	99
Es	1.391488	0.945922	-0.653492	99
Es	-0.130582	2.258760	-0.319733	99
Es	-2.018762	0.204232	0.192313	99
Es	0.741763	1.145482	0.027858	99
Es	1.603434	0.979916	1.235999	99
Es	0.686753	1.152681	0.129975	99
Es	-0.014938	-0.792619	0.637013	99
Es	0.188617	1.853790	-0.170982	99
Es	0.599687	1.078070	0.129827	99
Es	0.640856	1.264359	0.141238	99
Es	-1.667301	-0.248655	-0.253943	99
Es	-0.270775	2.180882	-0.052784	99
Es	1.613169	0.964377	-1.294318	99
45
Properties=species:S:1:pos:R:3:Z:I:1 energy=-739.2940932049956 field_type=dipole dipole="0.000000 0.000000 0.000000" charge=0
C	-1.667399	-0.248639	-0.253973	6
C	-0.232689	-0.328489	0.149167	6
C	0.378521	-1.465409	0.525637	6
S	0.686221	1.153971	0.130027	16
O	1.717711	0.816171	-1.063523	8
O	-0.130739	2.258992	-0.319823	8
O	1.507571	1.261861	1.316807	8
H	-2.213929	0.432851	0.405877	1
H	-2.159599	-1.225579	-0.201593	1
H	-1.757779	0.113311	-1.283113	1
H	-0.155719	-2.409778	0.553597	1
H	1.424891	-1.483459	0.818607	1
H	2.602941	1.124192	-0.777693	1
Es	1.646709	1.481506	1.159288	99
Es	1.074647	-1.480831	0.718167	99
Es	-1.713760	-0.009809	-0.938365	99
Es	-0.232651	-0.328268	0.149135	99
Es	0.378548	-1.465451	0.525650	99
Es	1.507457	1.261836	1.316606	99
Es	0.691046	1.153421	0.131952	99
Es	-0.212315	2.077901	-0.549887	99
Es	-2.018806	0.204176	0.192348	99
Es	1.612352	0.964551	-1.293539	99
Es	0.154561	-0.903376	0.023716	99
Es	0.189027	1.858061	-0.162998	99
Es	0.189746	0.368482	0.136226	99
Es	1.717766	0.816312	-1.063234	99
Es	-1.667298	-0.248656	-0.253942	99
Es	-0.272652	2.189094	-0.053285	99
Es	1.719334	0.529502	-1.037557	99
Es	1.391511	0.944480	-0.652980	99
Es	0.642358	1.041774	0.119031	99
Es	1.592937	0.975775	1.240880	99
Es	1.279906	1.310209	1.491971	99
Es	-1.980856	-0.914981	-0.212456	99
Es	0.787558	1.148331	0.168732	99
Es	2.158369	0.991637	-0.895884	99
Es	0.098360	2.440480	-0.319356	99
Es	0.019966	-2.094127	0.542252	99
Es	0.691819	1.205245	0.024195	99
Es	0.618592	1.220854	0.205813	99
Es	1.179874	1.228372	0.891259	99
Es	-0.923404	-0.273800	-0.049328	99
Es	-0.130567	2.258755	-0.319723	99
Es	-0.014963	-0.792591	0.636973	99
45
Properties=species:S:1:pos:R:3:Z:I:1 energy=-739.2940932049956 field_type=dipole dipole="0.000000 0.000000 0.000000" charge=0
C	-1.667399	-0.248639	-0.253973	6
C	-0.232689	-0.328489	0.149167	6
C	0.378521	-1.465409	0.525637	6
S	0.686221	1.153971	0.130027	16
O	1.717711	0.816171	-1.063523	8
O	-0.130739	2.258992	-0.319823	8
O	1.507571	1.261861	1.316807	8
H	-2.213929	0.432851	0.405877	1
H	-2.159599	-1.225579	-0.201593	1
H	-1.757779	0.113311	-1.283113	1
H	-0.155719	-2.409778	0.553597	1
H	1.424891	-1.483459	0.818607	1
H	2.602941	1.124192	-0.777693	1
Es	0.669933	1.077885	0.218255	99
Es	1.613462	0.965389	-1.291136	99
Es	0.686265	1.153919	0.129993	99
Es	-0.130604	2.258800	-0.319748	99
Es	1.507404	1.261838	1.316552	99
Es	-0.232648	-0.328276	0.149142	99
Es	-1.980919	-0.914904	-0.212259	99
Es	0.019896	-2.094152	0.542196	99
Es	-0.195465	2.065986	-0.550692	99
Es	0.378548	-1.465451	0.525648	99
Es	1.168764	1.221368	0.903294	99
Es	1.641785	1.473352	1.135301	99
Es	1.391143	0.945427	-0.653268	99
Es	0.154583	-0.903368	0.023996	99
Es	-0.282917	2.175900	-0.061574	99
Es	-1.713758	-0.009973	-0.938459	99
Es	1.295735	1.326278	1.502129	99
Es	1.717749	0.816324	-1.063215	99
Es	0.602538	1.238574	0.135010	99
Es	0.678795	1.095920	0.026254	99
Es	1.593213	0.974864	1.242703	99
Es	-1.667301	-0.248654	-0.253943	99
Es	-0.923456	-0.273906	-0.049434	99
Es	0.198779	1.870146	-0.155922	99
Es	0.189776	0.368482	0.136222	99
Es	-2.018739	0.204318	0.192259	99
Es	1.717661	0.528705	-1.039681	99
Es	0.082029	2.453444	-0.317299	99
Es	2.159301	0.990638	-0.895912	99
Es	0.793860	1.203326	0.140160	99
Es	1.074684	-1.480825	0.718157	99
Es	-0.014930	-0.792506	0.636932	99
45
Properties=species:S:1:pos:R:3:Z:I:1 energy=-739.2940932049956 field_type=dipole dipole="0.000000 0.000000 0.000000" charge=0
C	-1.667399	-0.248639	-0.253973	6
C	-0.232689	-0.328489	0.149167	6
C	0.378521	-1.465409	0.525637	6
S	0.686221	1.153971	0.130027	16
O	1.717711	0.816171	-1.063523	8
O	-0.130739	2.258992	-0.319823	8
O	1.507571	1.261861	1.316807	8
H	-2.213929	0.432851	0.405877	1
H	-2.159599	-1.225579	-0.201593	1
H	-1.757779	0.113311	-1.283113	1
H	-0.155719	-2.409778	0.553597	1
H	1.424891	-1.483459	0.818607	1
H	2.602941	1.124192	-0.777693	1
Es	2.158874	0.990431	-0.895321	99
Es	1.612855	0.963951	-1.294786	99
Es	0.189806	0.368405	0.136154	99
Es	0.019879	-2.094163	0.542203	99
Es	1.718929	0.531272	-1.036840	99
Es	-0.130594	2.258775	-0.319792	99
Es	1.507417	1.261827	1.316559	99
Es	-1.980870	-0.914958	-0.212287	99
Es	0.585556	1.090947	0.118900	99
Es	1.074711	-1.480794	0.718157	99
Es	-0.237100	2.084392	-0.537877	99
Es	1.276912	1.315312	1.486711	99
Es	-2.018771	0.204244	0.192251	99
Es	0.088614	2.449339	-0.323688	99
Es	-0.247739	2.172181	-0.035817	99
Es	0.668073	1.264693	0.092829	99
Es	1.181384	1.219602	0.892132	99
Es	1.641141	1.484551	1.153752	99
Es	-1.713787	-0.009934	-0.938437	99
Es	0.771858	1.104235	0.064374	99
Es	1.390873	0.944523	-0.652981	99
Es	-0.014856	-0.792657	0.636841	99
Es	-0.923510	-0.273788	-0.049473	99
Es	1.599949	0.976431	1.250879	99
Es	0.686230	1.153969	0.130028	99
Es	0.719712	1.155783	0.243578	99
Es	0.378547	-1.465451	0.525651	99
Es	-0.232655	-0.328259	0.149141	99
Es	0.154581	-0.903240	0.024033	99
Es	1.717803	0.816302	-1.063278	99
Es	-1.667299	-0.248655	-0.253943	99
Es	0.198643	1.859599	-0.187990	99
45
Properties=species:S:1:pos:R:3:Z:I:1 energy=-739.2940932049956 field_type=dipole dipole="0.000000 0.000000 0.000000" charge=0
C	-1.667399	-0.248639	-0.253973	6
C	-0.232689	-0.328489	0.149167	6
C	0.378521	-1.465409	0.525637	6
S	0.686221	1.153971	0.130027	16
O	1.717711	0.816171	-1.063523	8
O	-0.130739	2.258992	-0.319823	8
O	1.507571	1.261861	1.316807	8
H	-2.213929	0.432851	0.405877	1
H	-2.159599	-1.225579	-0.201593	1
H	-1.757779	0.113311	-1.283113	1
H	-0.155719	-2.409778	0.553597	1
H	1.424891	-1.483459	0.818607	1
H	2.602941	1.124192	-0.777693	1
Es	0.632741	1.192704	0.032734	99
Es	-0.130502	2.258738	-0.319679	99
Es	1.390509	0.944969	-0.653496	99
Es	-2.018742	0.204228	0.192326	99
Es	-0.232650	-0.328274	0.149124	99
Es	1.612724	0.962404	-1.295117	99
Es	0.803268	1.151761	0.111121	99
Es	0.154594	-0.903392	0.024280	99
Es	-1.980835	-0.914993	-0.212301	99
Es	1.593481	0.976423	1.243580	99
Es	0.202001	1.865359	-0.175631	99
Es	-0.221795	2.074020	-0.541142	99
Es	0.662609	1.227907	0.218665	99
Es	0.686287	1.153944	0.130061	99
Es	-0.259587	2.170798	-0.045566	99
Es	2.158448	0.991972	-0.895714	99
Es	1.507404	1.261835	1.316557	99
Es	-0.014810	-0.792438	0.636740	99
Es	-1.713761	-0.009871	-0.938476	99
Es	0.378548	-1.465449	0.525648	99
Es	1.644467	1.478074	1.147348	99
Es	0.019859	-2.094190	0.542180	99
Es	1.074745	-1.480779	0.718085	99
Es	1.284970	1.318623	1.496608	99
Es	0.081688	2.455338	-0.323178	99
Es	1.719878	0.530830	-1.035681	99
Es	-1.667300	-0.248655	-0.253943	99
Es	1.176496	1.222820	0.895916	99
Es	1.717773	0.816324	-1.063213	99
Es	0.646507	1.043282	0.157114	99
Es	0.189844	0.368408	0.136165	99
Es	-0.923690	-0.273856	-0.049455	99
45
Properties=species:S:1:pos:R:3:Z:I:1 energy=-739.2940932049956 field_type=dipole dipole="0.000000 0.000000 0.000000" charge=0
C	-1.667399	-0.248639	-0.253973	6
C	-0.232689	-0.328489	0.149167	6
C	0.378521	-1.465409	0.525637	6
S	0.686221	1.153971	0.130027	16
O	1.717711	0.816171	-1.063523	8
O	-0.130739	2.258992	-0.319823	8
O	1.507571	1.261861	1.316807	8
H	-2.213929	0.432851	0.405877	1
H	-2.159599	-1.225579	-0.201593	1
H	-1.757779	0.113311	-1.283113	1
H	-0.155719	-2.409778	0.553597	1
H	1.424891	-1.483459	0.818607	1
H	2.602941	1.124192	-0.777693	1
Es	-2.018703	0.204335	0.192253	99
Es	0.094825	2.443564	-0.313934	99
Es	1.717792	0.816320	-1.063233	99
Es	-0.232650	-0.328270	0.149136	99
Es	0.745993	1.254130	0.149388	99
Es	0.378548	-1.465449	0.525647	99
Es	-1.980945	-0.914961	-0.212262	99
Es	0.569250	1.173595	0.143945	99
Es	0.189915	1.861455	-0.157321	99
Es	0.707681	1.116581	0.019456	99
Es	1.602672	0.979047	1.243362	99
Es	0.189886	0.368414	0.136320	99
Es	1.390522	0.946734	-0.654085	99
Es	1.507426	1.261834	1.316572	99
Es	0.722146	1.071506	0.206912	99
Es	1.173982	1.217390	0.899115	99
Es	-0.014794	-0.792488	0.636649	99
Es	-0.130594	2.258771	-0.319736	99
Es	-0.283638	2.185532	-0.060544	99
Es	-1.713700	-0.009940	-0.938463	99
Es	-0.923686	-0.273867	-0.049472	99
Es	0.686347	1.153833	0.129980	99
Es	2.159323	0.989373	-0.895043	99
Es	1.717049	0.529247	-1.038274	99
Es	-0.198669	2.074950	-0.553672	99
Es	1.614617	0.964786	-1.292615	99
Es	0.154578	-0.903379	0.024297	99
Es	1.074755	-1.480788	0.718078	99
Es	1.287116	1.317063	1.497912	99
Es	1.635621	1.482391	1.143030	99
Es	-1.667301	-0.248654	-0.253944	99
Es	0.019804	-2.094191	0.542207	99
45
Properties=species:S:1:pos:R:3:Z:I:1 energy=-739.2940932049956 field_type=dipole dipole="0.000000 0.000000 0.000000" charge=0
C	-1.667399	-0.248639	-0.253973	6
C	-0.232689	-0.328489	0.149167	6
C	0.378521	-1.465409	0.525637	6
S	0.686221	1.153971	0.130027	16
O	1.717711	0.816171	-1.063523	8
O	-0.130739	2.258992	-0.319823	8
O	1.507571	1.261861	1.316807	8
H	-2.213929	0.432851	0.405877	1
H	-2.159599	-1.225579	-0.201593	1
H	-1.757779	0.113311	-1.283113	1
H	-0.155719	-2.409778	0.553597	1
H	1.424891	-1.483459	0.818607	1
H	2.602941	1.124192	-0.777693	1
Es	0.095317	2.443778	-0.317141	99
Es	-0.224070	2.084921	-0.547277	99
Es	-0.232651	-0.328260	0.149134	99
Es	1.718708	0.529527	-1.035936	99
Es	0.709363	1.137601	0.245335	99
Es	1.598549	0.977362	1.243820	99
Es	-0.014646	-0.792731	0.636398	99
Es	1.285817	1.317734	1.496498	99
Es	1.613031	0.962462	-1.293844	99
Es	0.686220	1.153974	0.130011	99
Es	0.154626	-0.903171	0.024203	99
Es	1.507434	1.261822	1.316600	99
Es	0.378548	-1.465458	0.525651	99
Es	0.192563	1.857390	-0.176012	99
Es	-1.667303	-0.248653	-0.253943	99
Es	1.175162	1.220163	0.897563	99
Es	-1.713814	-0.009833	-0.938408	99
Es	-0.261428	2.179417	-0.045038	99
Es	0.712042	1.266007	0.099404	99
Es	2.158849	0.991523	-0.896539	99
Es	1.717754	0.816326	-1.063232	99
Es	0.572215	1.133494	0.110225	99
Es	1.639807	1.480664	1.145535	99
Es	-2.018801	0.204151	0.192321	99
Es	0.751616	1.078550	0.064729	99
Es	1.074734	-1.480799	0.718269	99
Es	-0.923726	-0.273742	-0.049380	99
Es	0.019745	-2.094154	0.542178	99
Es	-0.130571	2.258753	-0.319728	99
Es	-1.980787	-0.915014	-0.212372	99
Es	0.189881	0.368421	0.136316	99
Es	1.390985	0.946641	-0.653680	99
45
Properties=species:S:1:pos:R:3:Z:I:1 energy=-739.2940932049956 field_type=dipole dipole="0.000000 0.000000 0.000000" charge=0
C	-1.667399	-0.248639	-0.253973	6
C	-0.232689	-0.328489	0.149167	6
C	0.378521	-1.465409	0.525637	6
S	0.686221	1.153971	0.130027	16
O	1.717711	0.816171	-1.063523	8
O	-0.130739	2.258992	-0.319823	8
O	1.507571	1.261861	1.316807	8
H	-2.213929	0.432851	0.405877	1
H	-2.159599	-1.225579	-0.201593	1
H	-1.757779	0.113311	-1.283113	1
H	-0.155719	-2.409778	0.553597	1
H	1.424891	-1.483459	0.818607	1
H	2.602941	1.124192	-0.777693	1
Es	0.784663	1.096513	0.090508	99
Es	-1.980774	-0.914918	-0.212330	99
Es	1.613255	0.961310	-1.293983	99
Es	0.019654	-2.094186	0.542175	99
Es	-0.232651	-0.328274	0.149137	99
Es	0.686121	1.154035	0.130067	99
Es	1.718466	0.530115	-1.035349	99
Es	1.645332	1.479738	1.151208	99
Es	-1.713755	-0.009937	-0.938486	99
Es	0.154619	-0.903242	0.024363	99
Es	-0.218469	2.081198	-0.547793	99
Es	-0.923747	-0.273795	-0.049285	99
Es	-1.667301	-0.248654	-0.253944	99
Es	0.189856	0.368422	0.136311	99
Es	-0.264121	2.170865	-0.047854	99
Es	1.175684	1.227272	0.896589	99
Es	0.716295	1.258815	0.175015	99
Es	1.285809	1.313240	1.497926	99
Es	2.159370	0.991689	-0.896517	99
Es	-0.130597	2.258783	-0.319740	99
Es	1.390429	0.947047	-0.654170	99
Es	-2.018871	0.204203	0.192271	99
Es	1.717810	0.816329	-1.063217	99
Es	0.633321	1.089925	0.213491	99
Es	0.611034	1.170314	0.040623	99
Es	0.197206	1.862147	-0.175565	99
Es	-0.014569	-0.792616	0.636390	99
Es	1.592469	0.975684	1.237702	99
Es	0.087811	2.451259	-0.314257	99
Es	0.378548	-1.465448	0.525644	99
Es	1.074800	-1.480795	0.718152	99
Es	1.507470	1.261826	1.316582	99
45
Properties=species:S:1:pos:R:3:Z:I:1 energy=-739.2940932049956 field_type=dipole dipole="0.000000 0.000000 0.000000" charge=0
C	-1.667399	-0.248639	-0.253973	6
C	-0.232689	-0.328489	0.149167	6
C	0.378521	-1.465409	0.525637	6
S	0.686221	1.153971	0.130027	16
O	1.717711	0.816171	-1.063523	8
O	-0.130739	2.258992	-0.319823	8
O	1.507571	1.261861	1.316807	8
H	-2.213929	0.432851	0.405877	1
H	-2.159599	-1.225579	-0.201593	1
H	-1.757779	0.113311	-1.283113	1
H	-0.155719	-2.409778	0.553597	1
H	1.424891	-1.483459	0.818607	1
H	2.602941	1.124192	-0.777693	1
Es	1.637081	1.481898	1.144071	99
Es	-0.014621	-0.792666	0.636417	99
Es	1.390762	0.945661	-0.653288	99
Es	1.718190	0.530088	-1.037674	99
Es	0.665120	1.203201	0.236202	99
Es	-1.713761	-0.009869	-0.938464	99
Es	0.019720	-2.094182	0.542124	99
Es	0.072289	2.462865	-0.324950	99
Es	-0.923785	-0.273824	-0.049381	99
Es	-1.980833	-0.914965	-0.212327	99
Es	-0.232653	-0.328272	0.149139	99
Es	0.205653	1.875830	-0.160782	99
Es	1.288562	1.314643	1.501106	99
Es	0.686214	1.153926	0.129988	99
Es	-0.200789	2.058907	-0.542953	99
Es	1.074843	-1.480776	0.718112	99
Es	0.644798	1.224961	0.042659	99
Es	0.635460	1.044718	0.123726	99
Es	-1.667300	-0.248655	-0.253943	99
Es	-0.274599	2.167799	-0.056725	99
Es	-0.130707	2.258855	-0.319810	99
Es	2.159482	0.990939	-0.896323	99
Es	0.378550	-1.465448	0.525646	99
Es	1.507388	1.261824	1.316535	99
Es	1.173326	1.219847	0.899447	99
Es	1.600414	0.979563	1.238816	99
Es	1.717771	0.816336	-1.063240	99
Es	1.613120	0.963458	-1.292722	99
Es	-2.018790	0.204186	0.192267	99
Es	0.189954	0.368424	0.136315	99
Es	0.154524	-0.903210	0.024546	99
Es	0.799784	1.142799	0.117128	99
45
Properties=species:S:1:pos:R:3:Z:I:1 energy=-739.2940932049956 field_type=dipole dipole="0.000000 0.000000 0.000000" charge=0
C	-1.667399	-0.248639	-0.253973	6
C	-0.232689	-0.328489	0.149167	6
C	0.378521	-1.465409	0.525637	6
S	0.686221	1.153971	0.130027	16
O	1.717711	0.816171	-1.063523	8
O	-0.130739	2.258992	-0.319823	8
O	1.507571	1.261861	1.316807	8
H	-2.213929	0.432851	0.405877	1
H	-2.159599	-1.225579	-0.201593	1
H	-1.757779	0.113311	-1.283113	1
H	-0.155719	-2.409778	0.553597	1
H	1.424891	-1.483459	0.818607	1
H	2.602941	1.124192	-0.777693	1
Es	1.642413	1.472023	1.135963	99
Es	-0.130625	2.258813	-0.319736	99
Es	0.195517	1.861146	-0.175699	99
Es	0.686190	1.153958	0.130049	99
Es	-0.264002	2.171395	-0.047950	99
Es	1.507452	1.261823	1.316613	99
Es	1.390645	0.945649	-0.653136	99
Es	1.074850	-1.480737	0.718166	99
Es	0.154566	-0.903165	0.024614	99
Es	0.189990	0.368370	0.136330	99
Es	1.590129	0.974980	1.232412	99
Es	0.664428	1.079174	0.220262	99
Es	1.718179	0.529971	-1.038201	99
Es	-1.667305	-0.248654	-0.253944	99
Es	0.019642	-2.094205	0.542144	99
Es	1.717779	0.816305	-1.063227	99
Es	0.657392	1.263278	0.162161	99
Es	-1.713729	-0.009943	-0.938478	99
Es	1.301531	1.321639	1.509105	99
Es	2.159555	0.991102	-0.896577	99
Es	-2.018723	0.204309	0.192261	99
Es	0.378548	-1.465449	0.525650	99
Es	0.089771	2.450755	-0.313685	99
Es	0.801561	1.150808	0.102607	99
Es	-0.923947	-0.273816	-0.049412	99
Es	1.613159	0.963479	-1.292113	99
Es	-0.218831	2.082157	-0.548068	99
Es	-0.232653	-0.328282	0.149121	99
Es	1.165227	1.227276	0.905902	99
Es	-1.980875	-0.914986	-0.212240	99
Es	0.621828	1.122396	0.034584	99
Es	-0.014494	-0.792704	0.636186	99
45
Properties=species:S:1:pos:R:3:Z:I:1 energy=-739.2940932049956 field_type=dipole dipole="0.000000 0.000000 0.000000" charge=0
C	-1.667399	-0.248639	-0.253973	6
C	-0.232689	-0.328489	0.149167	6
C	0.378521	-1.465409	0.525637	6
S	0.686221	1.153971	0.130027	16
O	1.717711	0.816171	-1.063523	8
O	-0.130739	2.258992	-0.319823	8
O	1.507571	1.261861	1.316807	8
H	-2.213929	0.432851	0.405877	1
H	-2.159599	-1.225579	-0.201593	1
H	-1.757779	0.113311	-1.283113	1
H	-0.155719	-2.409778	0.553597	1
H	1.424891	-1.483459	0.818607	1
H	2.602941	1.124192	-0.777693	1
Es	0.644215	1.190647	0.026612	99
Es	0.089844	2.450128	-0.322560	99
Es	0.154532	-0.903022	0.024457	99
Es	-2.018766	0.204248	0.192289	99
Es	1.507307	1.261888	1.316488	99
Es	2.160075	0.989978	-0.896182	99
Es	-0.262944	2.177403	-0.046784	99
Es	0.378547	-1.465447	0.525643	99
Es	1.597014	0.976706	1.238908	99
Es	0.633385	1.049511	0.161426	99
Es	0.663855	1.235854	0.210817	99
Es	1.167711	1.219980	0.905470	99
Es	-0.130588	2.258773	-0.319736	99
Es	0.019622	-2.094255	0.542277	99
Es	1.390354	0.946837	-0.653768	99
Es	0.803707	1.139673	0.120857	99
Es	-0.014397	-0.792916	0.636132	99
Es	0.686239	1.153935	0.129985	99
Es	0.195827	1.862026	-0.172529	99
Es	1.297174	1.323516	1.505439	99
Es	1.717781	0.816273	-1.063292	99
Es	-1.980872	-0.914931	-0.212331	99
Es	0.189983	0.368353	0.136474	99
Es	-1.713749	-0.009895	-0.938440	99
Es	1.717213	0.530456	-1.037262	99
Es	1.613902	0.962955	-1.292742	99
Es	-1.667303	-0.248653	-0.253944	99
Es	1.074847	-1.480676	0.718103	99
Es	-0.232654	-0.328278	0.149146	99
Es	-0.923877	-0.273808	-0.049416	99
Es	-0.220320	2.075915	-0.543575	99
Es	1.637503	1.475690	1.133699	99
45
Properties=species:S:1:pos:R:3:Z:I:1 energy=-739.2940932049956 field_type=dipole dipole="0.000000 0.000000 0.000000" charge=0
C	-1.667399	-0.248639	-0.253973	6
C	-0.232689	-0.328489	0.149167	6
C	0.378521	-1.465409	0.525637	6
S	0.686221	1.153971	0.130027	16
O	1.717711	0.816171	-1.063523	8
O	-0.130739	2.258992	-0.319823	8
O	1.507571	1.261861	1.316807	8
H	-2.213929	0.432851	0.405877	1
H	-2.159599	-1.225579	-0.201593	1
H	-1.757779	0.113311	-1.283113	1
H	-0.155719	-2.409778	0.553597	1
H	1.424891	-1.483459	0.818607	1
H	2.602941	1.124192	-0.777693	1
Es	-0.923985	-0.273837	-0.049594	99
Es	0.660812	1.257608	0.077479	99
Es	0.154624	-0.903378	0.025024	99
Es	1.631058	1.478363	1.131534	99
Es	-0.260081	2.180670	-0.045173	99
Es	-0.224818	2.079904	-0.544329	99
Es	0.192862	1.858901	-0.174031	99
Es	1.601360	0.980622	1.229140	99
Es	0.637824	1.151255	0.238228	99
Es	1.613361	0.963209	-1.292483	99
Es	1.507459	1.261847	1.316621	99
Es	-2.018708	0.204306	0.192301	99
Es	0.686499	1.154071	0.129988	99
Es	0.643142	1.064321	0.064707	99
Es	0.094499	2.445957	-0.321845	99
Es	-0.232648	-0.328281	0.149137	99
Es	1.074916	-1.480653	0.718044	99
Es	1.717761	0.816362	-1.063241	99
Es	0.378547	-1.465448	0.525643	99
Es	-0.130619	2.258819	-0.319799	99
Es	-1.667303	-0.248654	-0.253945	99
Es	-0.014586	-0.792436	0.636143	99
Es	1.716763	0.530733	-1.037596	99
Es	-1.980829	-0.914928	-0.212176	99
Es	0.019629	-2.094303	0.542059	99
Es	0.803110	1.142386	0.139321	99
Es	1.303833	1.317295	1.513106	99
Es	2.160587	0.989693	-0.896469	99
Es	0.190043	0.368322	0.136274	99
Es	-1.713792	-0.009972	-0.938543	99
Es	1.162985	1.219622	0.909599	99
Es	1.390861	0.946490	-0.653462	99
45
Properties=species:S:1:pos:R:3:Z:I:1 energy=-739.2940932049956 field_type=dipole dipole="0.000000 0.000000 0.000000" charge=0
C	-1.667399	-0.248639	-0.253973	6
C	-0.232689	-0.328489	0.149167	6
C	0.378521	-1.465409	0.525637	6
S	0.686221	1.153971	0.130027	16
O	1.717711	0.816171	-1.063523	8
O	-0.130739	2.258992	-0.319823	8
O	1.507571	1.261861	1.316807	8
H	-2.213929	0.432851	0.405877	1
H	-2.159599	-1.225579	-0.201593	1
H	-1.757779	0.113311	-1.283113	1
H	-0.155719	-2.409778	0.553597	1
H	1.424891	-1.483459	0.818607	1
H	2.602941	1.124192	-0.777693	1
Es	0.378545	-1.465446	0.525655	99
Es	0.190074	0.368311	0.136475	99
Es	-1.667304	-0.248653	-0.253945	99
Es	1.390089	0.945588	-0.653161	99
Es	0.060381	2.470727	-0.333758	99
Es	1.717782	0.816358	-1.063217	99
Es	0.154599	-0.903141	0.024796	99
Es	1.291505	1.322864	1.499736	99
Es	1.074898	-1.480620	0.718122	99
Es	1.638526	1.478381	1.137179	99
Es	-1.980859	-0.914954	-0.212285	99
Es	0.627413	1.244563	0.081956	99
Es	1.507433	1.261835	1.316578	99
Es	-0.195782	2.046726	-0.536719	99
Es	0.685653	1.153835	0.129716	99
Es	0.679853	1.062914	0.058322	99
Es	-0.924056	-0.273823	-0.049419	99
Es	-0.274475	2.162939	-0.057651	99
Es	1.598193	0.976677	1.243996	99
Es	-0.014363	-0.792749	0.635904	99
Es	-2.018732	0.204248	0.192301	99
Es	0.804560	1.183512	0.151722	99
Es	0.212386	1.885067	-0.157241	99
Es	0.019571	-2.094304	0.542170	99
Es	-0.232650	-0.328278	0.149137	99
Es	1.171010	1.218037	0.902505	99
Es	1.717114	0.530253	-1.039947	99
Es	2.160125	0.989663	-0.895910	99
Es	1.614203	0.964636	-1.291036	99
Es	0.633895	1.124804	0.227980	99
Es	-0.130675	2.258779	-0.319817	99
Es	-1.713748	-0.009884	-0.938482	99
45
Properties=species:S:1:pos:R:3:Z:I:1 energy=-739.2940932049956 field_type=dipole dipole="0.000000 0.000000 0.000000" charge=0
C	-1.667399	-0.248639	-0.253973	6
C	-0.232689	-0.328489	0.149167	6
C	0.378521	-1.465409	0.525637	6
S	0.686221	1.153971	0.130027	16
O	1.717711	0.816171	-1.063523	8
O	-0.130739	2.258992	-0.319823	8
O	1.507571	1.261861	1.316807	8
H	-2.213929	0.432851	0.405877	1
H	-2.159599	-1.225579	-0.201593	1
H	-1.757779	0.113311	-1.283113	1
H	-0.155719	-2.409778	0.553597	1
H	1.424891	-1.483459	0.818607	1
H	2.602941	1.124192	-0.777693	1
Es	0.688332	1.153896	0.129982	99
Es	-0.924153	-0.273741	-0.049362	99
Es	-1.980787	-0.914959	-0.212305	99
Es	1.507399	1.261826	1.316537	99
Es	0.083474	2.455486	-0.322687	99
Es	1.636200	1.476959	1.133771	99
Es	-0.211592	2.068956	-0.544115	99
Es	1.074927	-1.480585	0.718142	99
Es	-2.018870	0.204262	0.192231	99
Es	-0.232651	-0.328280	0.149138	99
Es	-0.268676	2.173817	-0.051703	99
Es	1.289573	1.327654	1.498665	99
Es	0.719986	1.121559	0.022523	99
Es	1.717801	0.816280	-1.063197	99
Es	-0.014330	-0.792762	0.635805	99
Es	1.390305	0.944327	-0.652456	99
Es	0.199252	1.867218	-0.166874	99
Es	1.172848	1.213309	0.901611	99
Es	-0.130596	2.258782	-0.319740	99
Es	0.378549	-1.465448	0.525648	99
Es	1.717366	0.530317	-1.041459	99
Es	1.600640	0.978037	1.249404	99
Es	-1.713671	-0.009961	-0.938491	99
Es	2.160310	0.990252	-0.896442	99
Es	0.776834	1.146543	0.205825	99
Es	0.019563	-2.094313	0.542152	99
Es	0.600134	1.082112	0.165472	99
Es	-1.667301	-0.248655	-0.253944	99
Es	0.646083	1.265501	0.125861	99
Es	1.613519	0.965324	-1.289726	99
Es	0.154590	-0.903112	0.024937	99
Es	0.190112	0.368265	0.136456	99
45
Properties=species:S:1:pos:R:3:Z:I:1 energy=-739.2940932049956 field_type=dipole dipole="0.000000 0.000000 0.000000" charge=0
C	-1.667399	-0.248639	-0.253973	6
C	-0.232689	-0.328489	0.149167	6
C	0.378521	-1.465409	0.525637	6
S	0.686221	1.153971	0.130027	16
O	1.717711	0.816171	-1.063523	8
O	-0.130739	2.258992	-0.319823	8
O	1.507571	1.261861	1.316807	8
H	-2.213929	0.432851	0.405877	1
H	-2.159599	-1.225579	-0.201593	1
H	-1.757779	0.113311	-1.283113	1
H	-0.155719	-2.409778	0.553597	1
H	1.424891	-1.483459	0.818607	1
H	2.602941	1.124192	-0.777693	1
Es	1.717813	0.816174	-1.063084	99
Es	1.292997	1.329596	1.502036	99
Es	0.092538	2.448797	-0.320275	99
Es	-2.018686	0.204168	0.192343	99
Es	1.594261	0.975900	1.245861	99
Es	1.507442	1.261839	1.316613	99
Es	1.390254	0.945826	-0.653175	99
Es	1.074959	-1.480573	0.718163	99
Es	-1.667304	-0.248653	-0.253944	99
Es	0.154583	-0.903081	0.025066	99
Es	-0.014288	-0.792780	0.635768	99
Es	1.171321	1.218177	0.902376	99
Es	0.190116	0.368280	0.136386	99
Es	0.624626	1.053967	0.150394	99
Es	0.669335	1.189638	0.017554	99
Es	-0.232651	-0.328277	0.149139	99
Es	2.159876	0.990739	-0.896549	99
Es	-1.713770	-0.009777	-0.938489	99
Es	0.192950	1.861715	-0.167929	99
Es	-1.980852	-0.914987	-0.212317	99
Es	0.378547	-1.465446	0.525648	99
Es	0.686221	1.153962	0.130001	99
Es	1.613404	0.962874	-1.292469	99
Es	0.019521	-2.094322	0.542100	99
Es	1.717955	0.530900	-1.038006	99
Es	-0.924187	-0.273838	-0.049459	99
Es	0.802557	1.134661	0.149110	99
Es	0.648669	1.237391	0.202692	99
Es	-0.215075	2.075247	-0.546627	99
Es	1.640631	1.472305	1.133097	99
Es	-0.267950	2.179664	-0.050703	99
Es	-0.130645	2.258781	-0.319660	99
45
Properties=species:S:1:pos:R:3:Z:I:1 energy=-739.2940932049956 field_type=dipole dipole="0.000000 0.000000 0.000000" charge=0
C	-1.667399	-0.248639	-0.253973	6
C	-0.232689	-0.328489	0.149167	6
C	0.378521	-1.465409	0.525637	6
S	0.686221	1.153971	0.130027	16
O	1.717711	0.816171	-1.063523	8
O	-0.130739	2.258992	-0.319823	8
O	1.507571	1.261861	1.316807	8
H	-2.213929	0.432851	0.405877	1
H	-2.159599	-1.225579	-0.201593	1
H	-1.757779	0.113311	-1.283113	1
H	-0.155719	-2.409778	0.553597	1
H	1.424891	-1.483459	0.818607	1
H	2.602941	1.124192	-0.777693	1
Es	0.084836	2.454428	-0.325974	99
Es	-0.232651	-0.328271	0.149140	99
Es	0.653311	1.211312	0.032755	99
Es	1.074959	-1.480533	0.718149	99
Es	1.507429	1.261835	1.316575	99
Es	1.717744	0.816325	-1.063253	99
Es	1.170066	1.219480	0.903555	99
Es	-0.014280	-0.792806	0.635638	99
Es	0.019499	-2.094354	0.542141	99
Es	-0.271171	2.177858	-0.053153	99
Es	0.197817	1.867480	-0.163190	99
Es	-0.924175	-0.273840	-0.049532	99
Es	0.686518	1.153937	0.130377	99
Es	-1.667305	-0.248654	-0.253945	99
Es	0.154637	-0.903076	0.025106	99
Es	1.639337	1.473981	1.133875	99
Es	1.614169	0.963867	-1.290310	99
Es	0.190108	0.368275	0.136564	99
Es	0.768242	1.074803	0.100931	99
Es	0.378546	-1.465442	0.525651	99
Es	0.730783	1.231880	0.209585	99
Es	-0.209268	2.065717	-0.543147	99
Es	1.389775	0.945808	-0.653297	99
Es	-2.018771	0.204294	0.192284	99
Es	1.595623	0.975441	1.243413	99
Es	0.592564	1.097651	0.176049	99
Es	2.159685	0.991058	-0.896522	99
Es	-0.130380	2.258733	-0.319715	99
Es	-1.713748	-0.009967	-0.938504	99
Es	1.717920	0.529452	-1.039901	99
Es	-1.980827	-0.914914	-0.212246	99
Es	1.294175	1.327104	1.502561	99
45
Properties=species:S:1:pos:R:3:Z:I:1 energy=-739.2940932049956 field_type=dipole dipole="0.000000 0.000000 0.000000" charge=0
C	-1.667399	-0.248639	-0.253973	6
C	-0.232689	-0.328489	0.149167	6
C	0.378521	-1.465409	0.525637	6
S	0.686221	1.153971	0.130027	16
O	1.717711	0.816171	-1.063523	8
O	-0.130739	2.258992	-0.319823	8
O	1.507571	1.261861	1.316807	8
H	-2.213929	0.432851	0.405877	1
H	-2.159599	-1.225579	-0.201593	1
H	-1.757779	0.113311	-1.283113	1
H	-0.155719	-2.409778	0.553597	1
H	1.424891	-1.483459	0.818607	1
H	2.602941	1.124192	-0.777693	1
Es	-1.667304	-0.248654	-0.253944	99
Es	-0.210588	2.073194	-0.546809	99
Es	1.590058	0.974402	1.246901	99
Es	1.074962	-1.480541	0.718154	99
Es	1.294654	1.331998	1.501469	99
Es	-2.018734	0.204226	0.192350	99
Es	0.686237	1.153935	0.130123	99
Es	2.161248	0.989456	-0.898484	99
Es	0.190177	0.368258	0.136468	99
Es	1.644352	1.470311	1.131705	99
Es	0.646379	1.265819	0.134722	99
Es	0.195816	1.864576	-0.167675	99
Es	0.703267	1.121783	0.016613	99
Es	-0.924281	-0.273906	-0.049485	99
Es	-0.014180	-0.792811	0.635588	99
Es	-1.980835	-0.914922	-0.212307	99
Es	-0.270524	2.174329	-0.052470	99
Es	1.717811	0.816334	-1.063200	99
Es	1.391373	0.947585	-0.652524	99
Es	1.507393	1.261850	1.316541	99
Es	-1.713737	-0.009852	-0.938513	99
Es	0.154592	-0.903041	0.025190	99
Es	0.378548	-1.465448	0.525648	99
Es	1.170179	1.219246	0.903347	99
Es	0.788552	1.146157	0.188534	99
Es	0.019478	-2.094340	0.542164	99
Es	-0.232650	-0.328270	0.149132	99
Es	-0.130603	2.258786	-0.319745	99
Es	1.612849	0.962458	-1.291230	99
Es	0.606958	1.081922	0.179693	99
Es	0.087719	2.453336	-0.318442	99
Es	1.716005	0.530688	-1.037853	99
45
Properties=species:S:1:pos:R:3:Z:I:1 energy=-739.2940932049956 field_type=dipole dipole="0.000000 0.000000 0.000000" charge=0
C	-1.667399	-0.248639	-0.253973	6
C	-0.232689	-0.328489	0.149167	6
C	0.378521	-1.465409	0.525637	6
S	0.686221	1.153971	0.130027	16
O	1.717711	0.816171	-1.063523	8
O	-0.130739	2.258992	-0.319823	8
O	1.507571	1.261861	1.316807	8
H	-2.213929	0.432851	0.405877	1
H	-2.159599	-1.225579	-0.201593	1
H	-1.757779	0.113311	-1.283113	1
H	-0.155719	-2.409778	0.553597	1
H	1.424891	-1.483459	0.818607	1
H	2.602941	1.124192	-0.777693	1
Es	1.614136	0.963905	-1.291335	99
Es	-1.667305	-0.248653	-0.253945	99
Es	1.717801	0.816327	-1.063236	99
Es	1.164299	1.218807	0.908732	99
Es	-1.713724	-0.009936	-0.938455	99
Es	0.658795	1.038759	0.122159	99
Es	1.639883	1.469080	1.125146	99
Es	1.303523	1.331269	1.510152	99
Es	1.389925	0.945896	-0.653412	99
Es	1.591376	0.976819	1.239302	99
Es	-1.980898	-0.914923	-0.212276	99
Es	-2.018723	0.204320	0.192277	99
Es	0.089557	2.451506	-0.313034	99
Es	-0.232652	-0.328282	0.149151	99
Es	0.154618	-0.902979	0.025160	99
Es	-0.224821	2.084354	-0.547241	99
Es	2.160382	0.989818	-0.896045	99
Es	0.686374	1.153895	0.130088	99
Es	-0.258232	2.168630	-0.045073	99
Es	0.190242	0.368254	0.136609	99
Es	0.195940	1.860881	-0.180017	99
Es	0.744885	1.184480	0.034515	99
Es	0.378546	-1.465447	0.525649	99
Es	-0.924254	-0.273853	-0.049484	99
Es	0.019445	-2.094368	0.542131	99
Es	1.717050	0.530600	-1.039270	99
Es	-0.014162	-0.792915	0.635453	99
Es	0.585522	1.221542	0.139943	99
Es	-0.130639	2.258834	-0.319758	99
Es	0.755845	1.170953	0.222983	99
Es	1.507484	1.261835	1.316648	99
Es	1.074951	-1.480544	0.718148	99
45
Properties=species:S:1:pos:R:3:Z:I:1 energy=-739.2940932049956 field_type=dipole dipole="0.000000 0.000000 0.000000" charge=0
C	-1.667399	-0.248639	-0.253973	6
C	-0.232689	-0.328489	0.149167	6
C	0.378521	-1.465409	0.525637	6
S	0.686221	1.153971	0.130027	16
O	1.717711	0.816171	-1.063523	8
O	-0.130739	2.258992	-0.319823	8
O	1.507571	1.261861	1.316807	8
H	-2.213929	0.432851	0.405877	1
H	-2.159599	-1.225579	-0.201593	1
H	-1.757779	0.113311	-1.283113	1
H	-0.155719	-2.409778	0.553597	1
H	1.424891	-1.483459	0.818607	1
H	2.602941	1.124192	-0.777693	1
Es	-0.274724	2.180226	-0.055423	99
Es	1.641585	1.471155	1.131780	99
Es	1.591770	0.975274	1.240849	99
Es	-0.232653	-0.328288	0.149136	99
Es	1.297587	1.328189	1.505633	99
Es	-0.924319	-0.273911	-0.049581	99
Es	-0.014175	-0.792663	0.635557	99
Es	2.160657	0.989552	-0.896427	99
Es	0.378547	-1.465446	0.525648	99
Es	0.609556	1.068364	0.163129	99
Es	0.087239	2.452989	-0.325299	99
Es	1.075010	-1.480501	0.718062	99
Es	0.195714	1.867097	-0.160152	99
Es	-0.205689	2.065051	-0.544511	99
Es	0.690087	1.238598	0.212762	99
Es	0.650594	1.201078	0.028608	99
Es	-1.713745	-0.009851	-0.938489	99
Es	0.019446	-2.094397	0.542095	99
Es	0.190215	0.368222	0.136436	99
Es	1.717800	0.816275	-1.063172	99
Es	0.794927	1.107578	0.115162	99
Es	-1.980826	-0.914921	-0.212325	99
Es	-1.667311	-0.248655	-0.253944	99
Es	1.614095	0.963989	-1.290775	99
Es	1.390135	0.946152	-0.653172	99
Es	0.686226	1.153986	0.130040	99
Es	-0.130702	2.258839	-0.319778	99
Es	1.716600	0.530552	-1.039746	99
Es	1.168100	1.221236	0.905007	99
Es	0.154619	-0.903132	0.025470	99
Es	1.507531	1.261984	1.316709	99
Es	-2.018730	0.204243	0.192374	99
45
Properties=species:S:1:pos:R:3:Z:I:1 energy=-739.2940932049956 field_type=dipole dipole="0.000000 0.000000 0.000000" charge=0
C	-1.667399	-0.248639	-0.253973	6
C	-0.232689	-0.328489	0.149167	6
C	0.378521	-1.465409	0.525637	6
S	0.686221	1.153971	0.130027	16
O	1.717711	0.816171	-1.063523	8
O	-0.130739	2.258992	-0.319823	8
O	1.507571	1.261861	1.316807	8
H	-2.213929	0.432851	0.405877	1
H	-2.159599	-1.225579	-0.201593	1
H	-1.757779	0.113311	-1.283113	1
H	-0.155719	-2.409778	0.553597	1
H	1.424891	-1.483459	0.818607	1
H	2.602941	1.124192	-0.777693	1
Es	-0.924376	-0.273883	-0.049483	99
Es	1.612680	0.959405	-1.293498	99
Es	0.019427	-2.094420	0.542055	99
Es	-1.713676	-0.009846	-0.938468	99
Es	1.389979	0.947049	-0.653543	99
Es	0.587764	1.193435	0.075417	99
Es	-1.980797	-0.914938	-0.212395	99
Es	0.660979	1.056183	0.188263	99
Es	1.717784	0.816296	-1.063189	99
Es	1.317496	1.318135	1.522993	99
Es	2.160048	0.992478	-0.898062	99
Es	-0.130596	2.258782	-0.319740	99
Es	-0.014116	-0.792778	0.635460	99
Es	0.093886	2.446584	-0.332167	99
Es	1.616671	1.479962	1.118193	99
Es	0.768960	1.129343	0.049189	99
Es	-1.667306	-0.248654	-0.253946	99
Es	1.718808	0.531276	-1.034976	99
Es	0.190205	0.368242	0.136419	99
Es	1.610899	0.986596	1.221835	99
Es	1.154080	1.211361	0.920476	99
Es	1.075021	-1.480460	0.718124	99
Es	0.378548	-1.465447	0.525649	99
Es	0.686288	1.154081	0.129984	99
Es	-0.217849	2.067745	-0.540464	99
Es	0.727470	1.236576	0.206820	99
Es	-0.266198	2.188411	-0.048446	99
Es	0.192584	1.862675	-0.164342	99
Es	0.154618	-0.903033	0.025525	99
Es	1.507362	1.261773	1.316496	99
Es	-2.018824	0.204217	0.192345	99
Es	-0.232652	-0.328282	0.149138	99
45
Properties=species:S:1:pos:R:3:Z:I:1 energy=-739.2940932049956 field_type=dipole dipole="0.000000 0.000000 0.000000" charge=0
C	-1.667399	-0.248639	-0.253973	6
C	-0.232689	-0.328489	0.149167	6
C	0.378521	-1.465409	0.525637	6
S	0.686221	1.153971	0.130027	16
O	1.717711	0.816171	-1.063523	8
O	-0.130739	2.258992	-0.319823	8
O	1.507571	1.261861	1.316807	8
H	-2.213929	0.432851	0.405877	1
H	-2.159599	-1.225579	-0.201593	1
H	-1.757779	0.113311	-1.283113	1
H	-0.155719	-2.409778	0.553597	1
H	1.424891	-1.483459	0.818607	1
H	2.602941	1.124192	-0.777693	1
Es	1.390079	0.947531	-0.653425	99
Es	0.645600	1.238209	0.056726	99
Es	0.019348	-2.094358	0.542023	99
Es	-0.262918	2.164734	-0.048200	99
Es	-0.924482	-0.273874	-0.049439	99
Es	1.075025	-1.480522	0.718248	99
Es	-1.980830	-0.914942	-0.212308	99
Es	1.318493	1.319637	1.524157	99
Es	1.717794	0.816306	-1.063163	99
Es	0.378547	-1.465446	0.525648	99
Es	1.596153	0.981151	1.219384	99
Es	-0.214337	2.064480	-0.539610	99
Es	0.686363	1.153682	0.130174	99
Es	0.190253	0.368221	0.136481	99
Es	1.507457	1.261831	1.316586	99
Es	-1.667304	-0.248654	-0.253945	99
Es	1.154477	1.221696	0.918853	99
Es	1.614066	0.962329	-1.290954	99
Es	0.074368	2.463508	-0.325534	99
Es	-0.130581	2.258766	-0.319732	99
Es	-1.713730	-0.009852	-0.938500	99
Es	2.160837	0.989993	-0.897361	99
Es	0.799983	1.133561	0.106287	99
Es	-0.013975	-0.792960	0.635264	99
Es	0.676737	1.191406	0.240447	99
Es	1.716508	0.530357	-1.038385	99
Es	-0.232653	-0.328280	0.149148	99
Es	1.629937	1.473500	1.121002	99
Es	0.154642	-0.902867	0.025452	99
Es	-2.018728	0.204240	0.192352	99
Es	0.622709	1.052760	0.116087	99
Es	0.205333	1.872721	-0.172098	99
45
Properties=species:S:1:pos:R:3:Z:I:1 energy=-739.2940932049956 field_type=dipole dipole="0.000000 0.000000 0.000000" charge=0
C	-1.667399	-0.248639	-0.253973	6
C	-0.232689	-0.328489	0.149167	6
C	0.378521	-1.465409	0.525637	6
S	0.686221	1.153971	0.130027	16
O	1.717711	0.816171	-1.063523	8
O	-0.130739	2.258992	-0.319823	8
O	1.507571	1.261861	1.316807	8
H	-2.213929	0.432851	0.405877	1
H	-2.159599	-1.225579	-0.201593	1
H	-1.757779	0.113311	-1.283113	1
H	-0.155719	-2.409778	0.553597	1
H	1.424891	-1.483459	0.818607	1
H	2.602941	1.124192	-0.777693	1
Es	0.646151	1.262970	0.109148	99
Es	0.190251	0.368226	0.136513	99
Es	1.389806	0.945996	-0.653085	99
Es	1.154247	1.222174	0.919227	99
Es	0.594851	1.082566	0.156109	99
Es	0.154632	-0.903008	0.025684	99
Es	0.378547	-1.465448	0.525648	99
Es	-0.232651	-0.328285	0.149137	99
Es	-1.980826	-0.914937	-0.212252	99
Es	1.717776	0.816355	-1.063182	99
Es	1.718178	0.530787	-1.038053	99
Es	0.762912	1.156371	0.221172	99
Es	-2.018737	0.204304	0.192316	99
Es	1.319405	1.325486	1.523171	99
Es	0.741243	1.113650	0.033137	99
Es	-1.713698	-0.009925	-0.938527	99
Es	0.686273	1.154054	0.130116	99
Es	1.632335	1.469526	1.118052	99
Es	0.205107	1.873968	-0.168060	99
Es	2.160340	0.991733	-0.897664	99
Es	-0.213044	2.059382	-0.537207	99
Es	-0.014046	-0.792792	0.635276	99
Es	-0.130609	2.258797	-0.319754	99
Es	1.507369	1.261807	1.316494	99
Es	-1.667305	-0.248653	-0.253945	99
Es	1.613171	0.961646	-1.291315	99
Es	1.075071	-1.480449	0.718099	99
Es	0.019372	-2.094419	0.542063	99
Es	1.593145	0.978821	1.223023	99
Es	0.074343	2.463307	-0.331048	99
Es	-0.263948	2.168759	-0.049052	99
Es	-0.924493	-0.273904	-0.049581	99
45
Properties=species:S:1:pos:R:3:Z:I:1 energy=-739.2940932049956 field_type=dipole dipole="0.000000 0.000000 0.000000" charge=0
C	-1.667399	-0.248639	-0.253973	6
C	-0.232689	-0.328489	0.149167	6
C	0.378521	-1.465409	0.525637	6
S	0.686221	1.153971	0.130027	16
O	1.717711	0.816171	-1.063523	8
O	-0.130739	2.258992	-0.319823	8
O	1.507571	1.261861	1.316807	8
H	-2.213929	0.432851	0.405877	1
H	-2.159599	-1.225579	-0.201593	1
H	-1.757779	0.113311	-1.283113	1
H	-0.155719	-2.409778	0.553597	1
H	1.424891	-1.483459	0.818607	1
H	2.602941	1.124192	-0.777693	1
Es	1.592836	0.975427	1.244843	99
Es	0.019359	-2.094443	0.542066	99
Es	1.390110	0.945140	-0.652520	99
Es	0.190350	0.368157	0.136475	99
Es	1.166162	1.217148	0.907451	99
Es	-0.217171	2.073544	-0.544090	99
Es	0.197184	1.864828	-0.172220	99
Es	-0.264094	2.172037	-0.048484	99
Es	-0.232650	-0.328292	0.149143	99
Es	0.154624	-0.902937	0.025714	99
Es	1.613463	0.963854	-1.289878	99
Es	-0.013956	-0.792860	0.635185	99
Es	1.717723	0.816385	-1.063176	99
Es	0.760044	1.227676	0.078606	99
Es	-1.667306	-0.248652	-0.253945	99
Es	0.594632	1.134729	0.057067	99
Es	1.300685	1.335069	1.506364	99
Es	0.686193	1.153944	0.129902	99
Es	0.742752	1.052153	0.149112	99
Es	-1.980829	-0.914919	-0.212294	99
Es	0.378547	-1.465445	0.525647	99
Es	0.086488	2.454986	-0.320593	99
Es	2.160639	0.990529	-0.897196	99
Es	-1.713698	-0.009878	-0.938524	99
Es	1.075066	-1.480412	0.718120	99
Es	0.647816	1.201126	0.235006	99
Es	1.507409	1.261842	1.316560	99
Es	1.639344	1.468374	1.124782	99
Es	-0.130598	2.258783	-0.319740	99
Es	-2.018721	0.204282	0.192366	99
Es	1.717340	0.530635	-1.040534	99
Es	-0.924575	-0.273941	-0.049556	99
45
Properties=species:S:1:pos:R:3:Z:I:1 energy=-739.2940932049956 field_type=dipole dipole="0.000000 0.000000 0.000000" charge=0
C	-1.667399	-0.248639	-0.253973	6
C	-0.232689	-0.328489	0.149167	6
C	0.378521	-1.465409	0.525637	6
S	0.686221	1.153971	0.130027	16
O	1.717711	0.816171	-1.063523	8
O	-0.130739	2.258992	-0.319823	8
O	1.507571	1.261861	1.316807	8
H	-2.213929	0.432851	0.405877	1
H	-2.159599	-1.225579	-0.201593	1
H	-1.757779	0.113311	-1.283113	1
H	-0.155719	-2.409778	0.553597	1
H	1.424891	-1.483459	0.818607	1
H	2.602941	1.124192	-0.777693	1
Es	0.214050	1.881124	-0.174049	99
Es	-0.130592	2.258766	-0.319740	99
Es	-0.266037	2.140493	-0.057178	99
Es	0.378547	-1.465441	0.525649	99
Es	1.156675	1.224671	0.916082	99
Es	-2.018749	0.204292	0.192365	99
Es	-0.013909	-0.792781	0.635138	99
Es	1.715766	0.530004	-1.044923	99
Es	1.613568	0.967359	-1.286574	99
Es	1.316570	1.331745	1.519556	99
Es	1.586548	0.975358	1.229050	99
Es	0.190257	0.368219	0.136587	99
Es	-1.980798	-0.914954	-0.212298	99
Es	1.717797	0.816345	-1.063207	99
Es	0.722153	1.268842	0.114184	99
Es	-1.667305	-0.248653	-0.253945	99
Es	0.056299	2.477387	-0.307897	99
Es	1.639261	1.464215	1.118716	99
Es	2.161377	0.989055	-0.897102	99
Es	0.580638	1.134815	0.078790	99
Es	0.154662	-0.902950	0.025893	99
Es	0.672633	1.137941	0.237443	99
Es	-0.232651	-0.328285	0.149144	99
Es	-0.201845	2.066421	-0.546362	99
Es	1.507416	1.261834	1.316552	99
Es	1.390731	0.943759	-0.651526	99
Es	0.686423	1.153735	0.130285	99
Es	0.769600	1.074287	0.089016	99
Es	-1.713673	-0.009889	-0.938518	99
Es	1.075086	-1.480420	0.718078	99
Es	-0.924642	-0.273968	-0.049576	99
Es	0.019315	-2.094461	0.542023	99
