48
Properties=species:S:1:pos:R:3:Z:I:1 energy=-289.3206813483591 field_type=dipole dipole="0.000000 0.000000 0.000000" charge=0
C	-1.510235	0.167635	1.247937	6
C	0.011255	0.140645	1.078417	6
C	0.495205	-1.201685	0.512437	6
C	0.202845	-1.346765	-0.981323	6
N	0.753615	-0.231825	-1.755773	7
C	0.210085	1.048015	-1.294853	6
C	0.502455	1.290165	0.185827	6
H	-1.830405	1.116785	1.690617	1
H	-1.836025	-0.636355	1.916027	1
H	-2.038225	0.047245	0.297837	1
H	0.447625	0.270465	2.077547	1
H	0.040285	-2.034145	1.060987	1
H	1.578995	-1.279995	0.669967	1
H	0.647835	-2.279215	-1.346763	1
H	-0.875345	-1.429715	-1.162023	1
H	1.767175	-0.220095	-1.639413	1
H	0.661015	1.851585	-1.887063	1
H	-0.867145	1.087925	-1.492133	1
H	1.586805	1.400585	0.319707	1
H	0.052185	2.238745	0.502037	1
Es	-0.539274	-1.392506	-1.098835	99
Es	0.341368	-1.271030	-0.223095	99
Es	0.680734	-0.276879	-2.101072	99
Es	-0.531493	1.066396	-1.421088	99
Es	1.252282	1.359385	0.272281	99
Es	0.202904	-1.346650	-0.981357	99
Es	0.523734	1.600932	-1.696483	99
Es	1.367441	-0.220554	-1.653342	99
Es	0.189012	1.940827	0.403620	99
Es	0.524055	0.317593	-1.525914	99
Es	0.011228	0.140640	1.078375	99
Es	0.495197	-1.201663	0.512433	99
Es	0.210142	1.047898	-1.294855	99
Es	-0.761632	0.152336	1.150148	99
Es	0.312136	0.230094	1.766768	99
Es	0.246937	-0.533424	0.787869	99
Es	-1.510226	0.167635	1.247932	99
Es	-1.865843	0.084976	0.595708	99
Es	0.512474	-1.986773	-1.227156	99
Es	0.178595	-1.772444	0.889742	99
Es	1.244683	-1.250475	0.613746	99
Es	0.520635	-0.702178	-1.392194	99
Es	-1.730172	-0.384434	1.703701	99
Es	0.348581	1.168917	-0.542726	99
Es	0.250450	0.716307	0.624000	99
Es	0.753736	-0.231739	-1.755151	99
Es	-1.726194	0.818588	1.549037	99
Es	0.502445	1.290142	0.185830	99
48
Properties=species:S:1:pos:R:3:Z:I:1 energy=-289.3206813483591 field_type=dipole dipole="0.000000 0.000000 0.000000" charge=0
C	-1.510235	0.167635	1.247937	6
C	0.011255	0.140645	1.078417	6
C	0.495205	-1.201685	0.512437	6
C	0.202845	-1.346765	-0.981323	6
N	0.753615	-0.231825	-1.755773	7
C	0.210085	1.048015	-1.294853	6
C	0.502455	1.290165	0.185827	6
H	-1.830405	1.116785	1.690617	1
H	-1.836025	-0.636355	1.916027	1
H	-2.038225	0.047245	0.297837	1
H	0.447625	0.270465	2.077547	1
H	0.040285	-2.034145	1.060987	1
H	1.578995	-1.279995	0.669967	1
H	0.647835	-2.279215	-1.346763	1
H	-0.875345	-1.429715	-1.162023	1
H	1.767175	-0.220095	-1.639413	1
H	0.661015	1.851585	-1.887063	1
H	-0.867145	1.087925	-1.492133	1
H	1.586805	1.400585	0.319707	1
H	0.052185	2.238745	0.502037	1
Es	-1.730136	-0.384360	1.703690	99
Es	0.341406	-1.271039	-0.223135	99
Es	-1.510225	0.167636	1.247933	99
Es	0.495198	-1.201662	0.512433	99
Es	-0.531484	1.066461	-1.421099	99
Es	0.348587	1.168905	-0.542747	99
Es	1.244666	-1.250431	0.613738	99
Es	0.680713	-0.276883	-2.100820	99
Es	-0.761579	0.152433	1.150286	99
Es	1.367185	-0.220714	-1.653817	99
Es	0.178685	-1.772529	0.889624	99
Es	0.520759	-0.702204	-1.392159	99
Es	0.011229	0.140640	1.078377	99
Es	0.250514	0.716283	0.624014	99
Es	0.523733	1.600915	-1.696428	99
Es	0.524148	0.317930	-1.525807	99
Es	0.502446	1.290142	0.185830	99
Es	0.189030	1.940766	0.403615	99
Es	0.246736	-0.533486	0.787994	99
Es	0.202903	-1.346652	-0.981356	99
Es	0.312203	0.230054	1.766645	99
Es	0.753725	-0.231749	-1.755196	99
Es	0.210142	1.047896	-1.294855	99
Es	-0.539272	-1.392689	-1.098780	99
Es	0.512524	-1.986682	-1.227099	99
Es	-1.726264	0.818580	1.549020	99
Es	-1.865883	0.084896	0.595743	99
Es	1.252246	1.359459	0.272279	99
48
Properties=species:S:1:pos:R:3:Z:I:1 energy=-289.3206813483591 field_type=dipole dipole="0.000000 0.000000 0.000000" charge=0
C	-1.510235	0.167635	1.247937	6
C	0.011255	0.140645	1.078417	6
C	0.495205	-1.201685	0.512437	6
C	0.202845	-1.346765	-0.981323	6
N	0.753615	-0.231825	-1.755773	7
C	0.210085	1.048015	-1.294853	6
C	0.502455	1.290165	0.185827	6
H	-1.830405	1.116785	1.690617	1
H	-1.836025	-0.636355	1.916027	1
H	-2.038225	0.047245	0.297837	1
H	0.447625	0.270465	2.077547	1
H	0.040285	-2.034145	1.060987	1
H	1.578995	-1.279995	0.669967	1
H	0.647835	-2.279215	-1.346763	1
H	-0.875345	-1.429715	-1.162023	1
H	1.767175	-0.220095	-1.639413	1
H	0.661015	1.851585	-1.887063	1
H	-0.867145	1.087925	-1.492133	1
H	1.586805	1.400585	0.319707	1
H	0.052185	2.238745	0.502037	1
Es	1.367046	-0.220439	-1.653409	99
Es	0.210134	1.047893	-1.294855	99
Es	-1.865739	0.084866	0.595854	99
Es	0.681562	-0.276688	-2.100442	99
Es	-0.531416	1.066523	-1.421184	99
Es	0.341386	-1.271050	-0.223096	99
Es	0.246816	-0.533394	0.787923	99
Es	0.520520	-0.702790	-1.392530	99
Es	0.178546	-1.772434	0.889591	99
Es	0.512462	-1.986708	-1.227116	99
Es	0.202901	-1.346654	-0.981355	99
Es	0.348352	1.168872	-0.542729	99
Es	-1.510222	0.167634	1.247932	99
Es	0.753742	-0.231745	-1.755147	99
Es	-0.539188	-1.392627	-1.098871	99
Es	0.189128	1.940760	0.403655	99
Es	0.495198	-1.201663	0.512433	99
Es	0.011229	0.140640	1.078377	99
Es	0.502448	1.290144	0.185830	99
Es	1.244610	-1.250622	0.613826	99
Es	1.252244	1.359431	0.272181	99
Es	-1.726412	0.818614	1.548925	99
Es	0.312223	0.229977	1.766626	99
Es	0.523752	0.317984	-1.526293	99
Es	-0.761492	0.152523	1.150345	99
Es	0.523775	1.600957	-1.696323	99
Es	0.250546	0.716322	0.624113	99
Es	-1.730214	-0.384412	1.703661	99
48
Properties=species:S:1:pos:R:3:Z:I:1 energy=-289.3206813483591 field_type=dipole dipole="0.000000 0.000000 0.000000" charge=0
C	-1.510235	0.167635	1.247937	6
C	0.011255	0.140645	1.078417	6
C	0.495205	-1.201685	0.512437	6
C	0.202845	-1.346765	-0.981323	6
N	0.753615	-0.231825	-1.755773	7
C	0.210085	1.048015	-1.294853	6
C	0.502455	1.290165	0.185827	6
H	-1.830405	1.116785	1.690617	1
H	-1.836025	-0.636355	1.916027	1
H	-2.038225	0.047245	0.297837	1
H	0.447625	0.270465	2.077547	1
H	0.040285	-2.034145	1.060987	1
H	1.578995	-1.279995	0.669967	1
H	0.647835	-2.279215	-1.346763	1
H	-0.875345	-1.429715	-1.162023	1
H	1.767175	-0.220095	-1.639413	1
H	0.661015	1.851585	-1.887063	1
H	-0.867145	1.087925	-1.492133	1
H	1.586805	1.400585	0.319707	1
H	0.052185	2.238745	0.502037	1
Es	-1.730226	-0.384334	1.703609	99
Es	0.495198	-1.201663	0.512433	99
Es	-1.726315	0.818477	1.549030	99
Es	0.348508	1.168984	-0.542713	99
Es	-0.539171	-1.392629	-1.098829	99
Es	-1.865931	0.084979	0.595864	99
Es	0.189051	1.940750	0.403590	99
Es	0.520683	-0.702629	-1.392559	99
Es	0.523643	1.600938	-1.696418	99
Es	1.252216	1.359498	0.272267	99
Es	0.512427	-1.986757	-1.227034	99
Es	1.367321	-0.220607	-1.654006	99
Es	0.202901	-1.346654	-0.981356	99
Es	0.341327	-1.271028	-0.223148	99
Es	0.312230	0.230001	1.766564	99
Es	0.753752	-0.231729	-1.755144	99
Es	0.680982	-0.276685	-2.100150	99
Es	0.250510	0.716280	0.624089	99
Es	0.246854	-0.533379	0.787987	99
Es	-0.531375	1.066432	-1.421141	99
Es	1.244575	-1.250602	0.613773	99
Es	0.502448	1.290143	0.185829	99
Es	0.210140	1.047902	-1.294854	99
Es	0.178640	-1.772426	0.889626	99
Es	-1.510226	0.167634	1.247932	99
Es	0.523965	0.317936	-1.526020	99
Es	0.011229	0.140640	1.078377	99
Es	-0.761417	0.152444	1.150325	99
48
Properties=species:S:1:pos:R:3:Z:I:1 energy=-289.3206813483591 field_type=dipole dipole="0.000000 0.000000 0.000000" charge=0
C	-1.510235	0.167635	1.247937	6
C	0.011255	0.140645	1.078417	6
C	0.495205	-1.201685	0.512437	6
C	0.202845	-1.346765	-0.981323	6
N	0.753615	-0.231825	-1.755773	7
C	0.210085	1.048015	-1.294853	6
C	0.502455	1.290165	0.185827	6
H	-1.830405	1.116785	1.690617	1
H	-1.836025	-0.636355	1.916027	1
H	-2.038225	0.047245	0.297837	1
H	0.447625	0.270465	2.077547	1
H	0.040285	-2.034145	1.060987	1
H	1.578995	-1.279995	0.669967	1
H	0.647835	-2.279215	-1.346763	1
H	-0.875345	-1.429715	-1.162023	1
H	1.767175	-0.220095	-1.639413	1
H	0.661015	1.851585	-1.887063	1
H	-0.867145	1.087925	-1.492133	1
H	1.586805	1.400585	0.319707	1
H	0.052185	2.238745	0.502037	1
Es	0.523750	0.318041	-1.526245	99
Es	-1.726328	0.818459	1.548931	99
Es	0.523549	1.600979	-1.696560	99
Es	0.495198	-1.201662	0.512433	99
Es	0.348681	1.169084	-0.542716	99
Es	0.681245	-0.276683	-2.099948	99
Es	0.753730	-0.231747	-1.755164	99
Es	0.250490	0.716211	0.624145	99
Es	0.202902	-1.346652	-0.981356	99
Es	0.502449	1.290143	0.185828	99
Es	0.512373	-1.986597	-1.227069	99
Es	0.011229	0.140640	1.078377	99
Es	0.178662	-1.772361	0.889622	99
Es	1.244560	-1.250656	0.613785	99
Es	-1.865910	0.084938	0.595866	99
Es	1.252186	1.359539	0.272287	99
Es	1.367332	-0.220612	-1.653908	99
Es	-0.761465	0.152460	1.150328	99
Es	0.189075	1.940714	0.403552	99
Es	-1.510228	0.167637	1.247935	99
Es	0.312166	0.230013	1.766504	99
Es	0.246944	-0.533328	0.788028	99
Es	-0.539155	-1.392745	-1.098859	99
Es	0.341357	-1.271235	-0.223086	99
Es	0.210141	1.047902	-1.294847	99
Es	0.520559	-0.702648	-1.392645	99
Es	-1.730249	-0.384316	1.703683	99
Es	-0.531308	1.066395	-1.420977	99
48
Properties=species:S:1:pos:R:3:Z:I:1 energy=-289.3206813483591 field_type=dipole dipole="0.000000 0.000000 0.000000" charge=0
C	-1.510235	0.167635	1.247937	6
C	0.011255	0.140645	1.078417	6
C	0.495205	-1.201685	0.512437	6
C	0.202845	-1.346765	-0.981323	6
N	0.753615	-0.231825	-1.755773	7
C	0.210085	1.048015	-1.294853	6
C	0.502455	1.290165	0.185827	6
H	-1.830405	1.116785	1.690617	1
H	-1.836025	-0.636355	1.916027	1
H	-2.038225	0.047245	0.297837	1
H	0.447625	0.270465	2.077547	1
H	0.040285	-2.034145	1.060987	1
H	1.578995	-1.279995	0.669967	1
H	0.647835	-2.279215	-1.346763	1
H	-0.875345	-1.429715	-1.162023	1
H	1.767175	-0.220095	-1.639413	1
H	0.661015	1.851585	-1.887063	1
H	-0.867145	1.087925	-1.492133	1
H	1.586805	1.400585	0.319707	1
H	0.052185	2.238745	0.502037	1
Es	0.495198	-1.201663	0.512433	99
Es	0.178760	-1.772402	0.889626	99
Es	0.523439	0.318013	-1.526739	99
Es	0.341232	-1.271091	-0.223072	99
Es	0.210141	1.047898	-1.294856	99
Es	-0.539067	-1.392670	-1.098876	99
Es	0.523611	1.600925	-1.696405	99
Es	-1.730234	-0.384357	1.703608	99
Es	1.252130	1.359548	0.272223	99
Es	0.189137	1.940709	0.403598	99
Es	0.502448	1.290143	0.185830	99
Es	0.011229	0.140640	1.078377	99
Es	-1.510225	0.167635	1.247932	99
Es	0.250619	0.716220	0.624222	99
Es	0.348492	1.169083	-0.542731	99
Es	0.512375	-1.986734	-1.227043	99
Es	-1.726372	0.818430	1.549005	99
Es	-0.761404	0.152510	1.150229	99
Es	0.246941	-0.533365	0.788158	99
Es	0.312089	0.230007	1.766479	99
Es	0.682028	-0.276588	-2.099777	99
Es	1.244513	-1.250628	0.613711	99
Es	1.367112	-0.220204	-1.653414	99
Es	0.753742	-0.231776	-1.755197	99
Es	0.202902	-1.346653	-0.981356	99
Es	-1.865941	0.084994	0.595943	99
Es	-0.531315	1.066478	-1.421148	99
Es	0.520358	-0.703186	-1.392837	99
48
Properties=species:S:1:pos:R:3:Z:I:1 energy=-289.3206813483591 field_type=dipole dipole="0.000000 0.000000 0.000000" charge=0
C	-1.510235	0.167635	1.247937	6
C	0.011255	0.140645	1.078417	6
C	0.495205	-1.201685	0.512437	6
C	0.202845	-1.346765	-0.981323	6
N	0.753615	-0.231825	-1.755773	7
C	0.210085	1.048015	-1.294853	6
C	0.502455	1.290165	0.185827	6
H	-1.830405	1.116785	1.690617	1
H	-1.836025	-0.636355	1.916027	1
H	-2.038225	0.047245	0.297837	1
H	0.447625	0.270465	2.077547	1
H	0.040285	-2.034145	1.060987	1
H	1.578995	-1.279995	0.669967	1
H	0.647835	-2.279215	-1.346763	1
H	-0.875345	-1.429715	-1.162023	1
H	1.767175	-0.220095	-1.639413	1
H	0.661015	1.851585	-1.887063	1
H	-0.867145	1.087925	-1.492133	1
H	1.586805	1.400585	0.319707	1
H	0.052185	2.238745	0.502037	1
Es	-0.539069	-1.392688	-1.098861	99
Es	-1.865903	0.084993	0.596012	99
Es	0.202902	-1.346654	-0.981355	99
Es	0.681477	-0.276640	-2.099560	99
Es	1.367299	-0.220623	-1.653998	99
Es	-1.510223	0.167635	1.247932	99
Es	0.178731	-1.772370	0.889564	99
Es	1.244541	-1.250661	0.613770	99
Es	0.246896	-0.533379	0.788125	99
Es	0.523688	0.318135	-1.526480	99
Es	0.011229	0.140641	1.078379	99
Es	-1.730325	-0.384325	1.703603	99
Es	0.753746	-0.231745	-1.755181	99
Es	0.312126	0.230001	1.766402	99
Es	-0.531262	1.066533	-1.421130	99
Es	-1.726396	0.818442	1.548937	99
Es	0.189185	1.940688	0.403523	99
Es	1.252120	1.359561	0.272251	99
Es	0.250525	0.716272	0.624287	99
Es	0.495198	-1.201665	0.512434	99
Es	0.523577	1.600907	-1.696403	99
Es	0.210140	1.047901	-1.294856	99
Es	0.502449	1.290145	0.185830	99
Es	0.341274	-1.271148	-0.223078	99
Es	-0.761319	0.152474	1.150335	99
Es	0.520468	-0.702883	-1.392809	99
Es	0.512340	-1.986712	-1.227022	99
Es	0.348524	1.169083	-0.542724	99
48
Properties=species:S:1:pos:R:3:Z:I:1 energy=-289.3206813483591 field_type=dipole dipole="0.000000 0.000000 0.000000" charge=0
C	-1.510235	0.167635	1.247937	6
C	0.011255	0.140645	1.078417	6
C	0.495205	-1.201685	0.512437	6
C	0.202845	-1.346765	-0.981323	6
N	0.753615	-0.231825	-1.755773	7
C	0.210085	1.048015	-1.294853	6
C	0.502455	1.290165	0.185827	6
H	-1.830405	1.116785	1.690617	1
H	-1.836025	-0.636355	1.916027	1
H	-2.038225	0.047245	0.297837	1
H	0.447625	0.270465	2.077547	1
H	0.040285	-2.034145	1.060987	1
H	1.578995	-1.279995	0.669967	1
H	0.647835	-2.279215	-1.346763	1
H	-0.875345	-1.429715	-1.162023	1
H	1.767175	-0.220095	-1.639413	1
H	0.661015	1.851585	-1.887063	1
H	-0.867145	1.087925	-1.492133	1
H	1.586805	1.400585	0.319707	1
H	0.052185	2.238745	0.502037	1
Es	-0.761326	0.152473	1.150304	99
Es	0.348580	1.169103	-0.542767	99
Es	1.244409	-1.250729	0.613768	99
Es	-1.726412	0.818459	1.548846	99
Es	0.189170	1.940695	0.403529	99
Es	0.178754	-1.772406	0.889522	99
Es	-1.510228	0.167635	1.247933	99
Es	0.312188	0.229906	1.766411	99
Es	0.523608	0.318189	-1.526667	99
Es	1.252045	1.359597	0.272272	99
Es	-0.531237	1.066498	-1.421100	99
Es	0.682147	-0.276621	-2.099759	99
Es	0.753678	-0.231757	-1.755252	99
Es	0.250578	0.716255	0.624319	99
Es	0.011229	0.140640	1.078377	99
Es	0.520356	-0.703068	-1.392952	99
Es	0.523491	1.600936	-1.696395	99
Es	0.502448	1.290144	0.185830	99
Es	-1.865976	0.084860	0.596058	99
Es	-0.539030	-1.392690	-1.098847	99
Es	0.246890	-0.533195	0.788156	99
Es	-1.730269	-0.384224	1.703701	99
Es	1.366943	-0.220485	-1.653447	99
Es	0.210141	1.047900	-1.294855	99
Es	0.341350	-1.271168	-0.223095	99
Es	0.512307	-1.986710	-1.227045	99
Es	0.495199	-1.201664	0.512434	99
Es	0.202901	-1.346655	-0.981355	99
48
Properties=species:S:1:pos:R:3:Z:I:1 energy=-289.3206813483591 field_type=dipole dipole="0.000000 0.000000 0.000000" charge=0
C	-1.510235	0.167635	1.247937	6
C	0.011255	0.140645	1.078417	6
C	0.495205	-1.201685	0.512437	6
C	0.202845	-1.346765	-0.981323	6
N	0.753615	-0.231825	-1.755773	7
C	0.210085	1.048015	-1.294853	6
C	0.502455	1.290165	0.185827	6
H	-1.830405	1.116785	1.690617	1
H	-1.836025	-0.636355	1.916027	1
H	-2.038225	0.047245	0.297837	1
H	0.447625	0.270465	2.077547	1
H	0.040285	-2.034145	1.060987	1
H	1.578995	-1.279995	0.669967	1
H	0.647835	-2.279215	-1.346763	1
H	-0.875345	-1.429715	-1.162023	1
H	1.767175	-0.220095	-1.639413	1
H	0.661015	1.851585	-1.887063	1
H	-0.867145	1.087925	-1.492133	1
H	1.586805	1.400585	0.319707	1
H	0.052185	2.238745	0.502037	1
Es	0.523519	1.600872	-1.696378	99
Es	0.348602	1.169136	-0.542790	99
Es	0.246876	-0.533296	0.788234	99
Es	0.210140	1.047903	-1.294854	99
Es	-1.510225	0.167635	1.247932	99
Es	0.011231	0.140643	1.078375	99
Es	0.189216	1.940687	0.403501	99
Es	0.753737	-0.231741	-1.755163	99
Es	-1.726421	0.818427	1.548904	99
Es	0.502448	1.290144	0.185829	99
Es	1.244460	-1.250711	0.613771	99
Es	0.523733	0.318118	-1.526433	99
Es	0.512316	-1.986657	-1.227025	99
Es	-1.730324	-0.384259	1.703618	99
Es	0.341286	-1.271230	-0.223034	99
Es	0.312147	0.229991	1.766310	99
Es	-0.531243	1.066565	-1.421130	99
Es	-0.538993	-1.392752	-1.098893	99
Es	0.681306	-0.276556	-2.099264	99
Es	0.520526	-0.702938	-1.392807	99
Es	0.202897	-1.346657	-0.981355	99
Es	0.250557	0.716237	0.624332	99
Es	-1.865953	0.084947	0.596067	99
Es	-0.761295	0.152464	1.150382	99
Es	0.178792	-1.772380	0.889500	99
Es	0.495198	-1.201663	0.512434	99
Es	1.367400	-0.220618	-1.654412	99
Es	1.252005	1.359605	0.272276	99
48
Properties=species:S:1:pos:R:3:Z:I:1 energy=-289.3206813483591 field_type=dipole dipole="0.000000 0.000000 0.000000" charge=0
C	-1.510235	0.167635	1.247937	6
C	0.011255	0.140645	1.078417	6
C	0.495205	-1.201685	0.512437	6
C	0.202845	-1.346765	-0.981323	6
N	0.753615	-0.231825	-1.755773	7
C	0.210085	1.048015	-1.294853	6
C	0.502455	1.290165	0.185827	6
H	-1.830405	1.116785	1.690617	1
H	-1.836025	-0.636355	1.916027	1
H	-2.038225	0.047245	0.297837	1
H	0.447625	0.270465	2.077547	1
H	0.040285	-2.034145	1.060987	1
H	1.578995	-1.279995	0.669967	1
H	0.647835	-2.279215	-1.346763	1
H	-0.875345	-1.429715	-1.162023	1
H	1.767175	-0.220095	-1.639413	1
H	0.661015	1.851585	-1.887063	1
H	-0.867145	1.087925	-1.492133	1
H	1.586805	1.400585	0.319707	1
H	0.052185	2.238745	0.502037	1
Es	0.512247	-1.986588	-1.227022	99
Es	-0.761254	0.152501	1.150404	99
Es	0.202901	-1.346655	-0.981355	99
Es	0.495197	-1.201660	0.512436	99
Es	0.502448	1.290144	0.185830	99
Es	0.246924	-0.533357	0.788156	99
Es	0.312114	0.229995	1.766266	99
Es	0.341152	-1.271378	-0.222955	99
Es	1.367348	-0.220473	-1.654057	99
Es	0.179026	-1.772505	0.889785	99
Es	0.011231	0.140640	1.078377	99
Es	0.523493	0.318194	-1.526985	99
Es	1.252039	1.359600	0.272256	99
Es	1.244392	-1.250474	0.613480	99
Es	-1.726440	0.818390	1.548918	99
Es	0.189310	1.940639	0.403462	99
Es	-0.531193	1.066573	-1.421167	99
Es	-1.865957	0.084981	0.596078	99
Es	0.210140	1.047902	-1.294856	99
Es	0.520467	-0.702771	-1.392743	99
Es	0.753742	-0.231740	-1.755123	99
Es	-0.538962	-1.392831	-1.098858	99
Es	0.250494	0.716260	0.624469	99
Es	-1.510224	0.167634	1.247932	99
Es	-1.730357	-0.384253	1.703577	99
Es	0.523491	1.600866	-1.696362	99
Es	0.681668	-0.276923	-2.099247	99
Es	0.348497	1.169206	-0.542773	99
48
Properties=species:S:1:pos:R:3:Z:I:1 energy=-289.3206813483591 field_type=dipole dipole="0.000000 0.000000 0.000000" charge=0
C	-1.510235	0.167635	1.247937	6
C	0.011255	0.140645	1.078417	6
C	0.495205	-1.201685	0.512437	6
C	0.202845	-1.346765	-0.981323	6
N	0.753615	-0.231825	-1.755773	7
C	0.210085	1.048015	-1.294853	6
C	0.502455	1.290165	0.185827	6
H	-1.830405	1.116785	1.690617	1
H	-1.836025	-0.636355	1.916027	1
H	-2.038225	0.047245	0.297837	1
H	0.447625	0.270465	2.077547	1
H	0.040285	-2.034145	1.060987	1
H	1.578995	-1.279995	0.669967	1
H	0.647835	-2.279215	-1.346763	1
H	-0.875345	-1.429715	-1.162023	1
H	1.767175	-0.220095	-1.639413	1
H	0.661015	1.851585	-1.887063	1
H	-0.867145	1.087925	-1.492133	1
H	1.586805	1.400585	0.319707	1
H	0.052185	2.238745	0.502037	1
Es	0.250546	0.716322	0.624526	99
Es	1.244364	-1.250775	0.613857	99
Es	0.681763	-0.276011	-2.099615	99
Es	1.251972	1.359597	0.272252	99
Es	0.520252	-0.703314	-1.393324	99
Es	-1.510233	0.167635	1.247934	99
Es	-1.865939	0.084983	0.596122	99
Es	1.367062	-0.220675	-1.653966	99
Es	0.502448	1.290144	0.185830	99
Es	-1.726467	0.818369	1.548876	99
Es	0.011229	0.140640	1.078378	99
Es	0.523903	0.317973	-1.526058	99
Es	0.312065	0.229928	1.766228	99
Es	0.523460	1.600882	-1.696388	99
Es	-0.538930	-1.392679	-1.098788	99
Es	0.495198	-1.201663	0.512431	99
Es	0.753737	-0.231736	-1.755158	99
Es	0.189322	1.940686	0.403431	99
Es	0.348520	1.169189	-0.542755	99
Es	0.178835	-1.772310	0.889455	99
Es	0.512214	-1.986736	-1.227092	99
Es	0.246938	-0.533267	0.788280	99
Es	-0.531129	1.066571	-1.421162	99
Es	-1.730397	-0.384238	1.703573	99
Es	-0.761216	0.152467	1.150411	99
Es	0.341377	-1.271311	-0.223148	99
Es	0.202901	-1.346655	-0.981355	99
Es	0.210141	1.047901	-1.294853	99
48
Properties=species:S:1:pos:R:3:Z:I:1 energy=-289.3206813483591 field_type=dipole dipole="0.000000 0.000000 0.000000" charge=0
C	-1.510235	0.167635	1.247937	6
C	0.011255	0.140645	1.078417	6
C	0.495205	-1.201685	0.512437	6
C	0.202845	-1.346765	-0.981323	6
N	0.753615	-0.231825	-1.755773	7
C	0.210085	1.048015	-1.294853	6
C	0.502455	1.290165	0.185827	6
H	-1.830405	1.116785	1.690617	1
H	-1.836025	-0.636355	1.916027	1
H	-2.038225	0.047245	0.297837	1
H	0.447625	0.270465	2.077547	1
H	0.040285	-2.034145	1.060987	1
H	1.578995	-1.279995	0.669967	1
H	0.647835	-2.279215	-1.346763	1
H	-0.875345	-1.429715	-1.162023	1
H	1.767175	-0.220095	-1.639413	1
H	0.661015	1.851585	-1.887063	1
H	-0.867145	1.087925	-1.492133	1
H	1.586805	1.400585	0.319707	1
H	0.052185	2.238745	0.502037	1
Es	0.348527	1.169256	-0.542730	99
Es	1.244350	-1.250769	0.613788	99
Es	0.512195	-1.986667	-1.227035	99
Es	0.011229	0.140640	1.078379	99
Es	-1.510227	0.167634	1.247934	99
Es	-1.726484	0.818349	1.548901	99
Es	0.250598	0.716246	0.624482	99
Es	0.246947	-0.533266	0.788330	99
Es	-0.538901	-1.392746	-1.098870	99
Es	0.523728	0.318208	-1.526535	99
Es	-0.531111	1.066575	-1.421167	99
Es	0.312066	0.229961	1.766180	99
Es	0.502448	1.290144	0.185830	99
Es	0.681489	-0.276454	-2.098353	99
Es	0.210140	1.047900	-1.294855	99
Es	0.495199	-1.201664	0.512434	99
Es	-0.761174	0.152477	1.150414	99
Es	0.520565	-0.703051	-1.392881	99
Es	-1.730395	-0.384234	1.703548	99
Es	0.202901	-1.346656	-0.981354	99
Es	1.251953	1.359658	0.272224	99
Es	1.367395	-0.220651	-1.654718	99
Es	0.753593	-0.231814	-1.755689	99
Es	0.523419	1.600862	-1.696384	99
Es	0.178854	-1.772346	0.889479	99
Es	-1.865974	0.084999	0.596162	99
Es	0.341307	-1.271323	-0.223052	99
Es	0.189298	1.940649	0.403464	99
48
Properties=species:S:1:pos:R:3:Z:I:1 energy=-289.3206813483591 field_type=dipole dipole="0.000000 0.000000 0.000000" charge=0
C	-1.510235	0.167635	1.247937	6
C	0.011255	0.140645	1.078417	6
C	0.495205	-1.201685	0.512437	6
C	0.202845	-1.346765	-0.981323	6
N	0.753615	-0.231825	-1.755773	7
C	0.210085	1.048015	-1.294853	6
C	0.502455	1.290165	0.185827	6
H	-1.830405	1.116785	1.690617	1
H	-1.836025	-0.636355	1.916027	1
H	-2.038225	0.047245	0.297837	1
H	0.447625	0.270465	2.077547	1
H	0.040285	-2.034145	1.060987	1
H	1.578995	-1.279995	0.669967	1
H	0.647835	-2.279215	-1.346763	1
H	-0.875345	-1.429715	-1.162023	1
H	1.767175	-0.220095	-1.639413	1
H	0.661015	1.851585	-1.887063	1
H	-0.867145	1.087925	-1.492133	1
H	1.586805	1.400585	0.319707	1
H	0.052185	2.238745	0.502037	1
Es	-1.866006	0.085016	0.596198	99
Es	1.244349	-1.250788	0.613802	99
Es	0.753728	-0.231759	-1.755183	99
Es	0.681235	-0.276567	-2.098651	99
Es	0.502445	1.290143	0.185828	99
Es	-0.531063	1.066567	-1.421165	99
Es	0.189304	1.940646	0.403447	99
Es	-1.726498	0.818308	1.548905	99
Es	0.312109	0.229972	1.766140	99
Es	-0.761157	0.152515	1.150428	99
Es	0.011230	0.140641	1.078379	99
Es	1.367502	-0.220669	-1.654932	99
Es	0.520611	-0.703005	-1.392839	99
Es	1.251946	1.359671	0.272219	99
Es	0.246934	-0.533261	0.788344	99
Es	0.523375	1.600899	-1.696362	99
Es	-1.510225	0.167632	1.247931	99
Es	0.348475	1.169260	-0.542739	99
Es	0.512171	-1.986660	-1.227033	99
Es	0.523748	0.318212	-1.526603	99
Es	0.202900	-1.346658	-0.981355	99
Es	0.178866	-1.772333	0.889443	99
Es	0.495198	-1.201664	0.512434	99
Es	0.210144	1.047898	-1.294855	99
Es	-0.538862	-1.392759	-1.098881	99
Es	-1.730401	-0.384221	1.703536	99
Es	0.250587	0.716216	0.624516	99
Es	0.341289	-1.271334	-0.223028	99
48
Properties=species:S:1:pos:R:3:Z:I:1 energy=-289.3206813483591 field_type=dipole dipole="0.000000 0.000000 0.000000" charge=0
C	-1.510235	0.167635	1.247937	6
C	0.011255	0.140645	1.078417	6
C	0.495205	-1.201685	0.512437	6
C	0.202845	-1.346765	-0.981323	6
N	0.753615	-0.231825	-1.755773	7
C	0.210085	1.048015	-1.294853	6
C	0.502455	1.290165	0.185827	6
H	-1.830405	1.116785	1.690617	1
H	-1.836025	-0.636355	1.916027	1
H	-2.038225	0.047245	0.297837	1
H	0.447625	0.270465	2.077547	1
H	0.040285	-2.034145	1.060987	1
H	1.578995	-1.279995	0.669967	1
H	0.647835	-2.279215	-1.346763	1
H	-0.875345	-1.429715	-1.162023	1
H	1.767175	-0.220095	-1.639413	1
H	0.661015	1.851585	-1.887063	1
H	-0.867145	1.087925	-1.492133	1
H	1.586805	1.400585	0.319707	1
H	0.052185	2.238745	0.502037	1
Es	-0.761101	0.152465	1.150377	99
Es	0.341305	-1.271301	-0.223073	99
Es	0.520319	-0.703500	-1.393239	99
Es	0.312036	0.229964	1.766107	99
Es	0.523551	0.318502	-1.526902	99
Es	0.210139	1.047901	-1.294854	99
Es	0.512133	-1.986704	-1.226992	99
Es	-1.730412	-0.384214	1.703516	99
Es	1.244294	-1.250819	0.613828	99
Es	0.246994	-0.533254	0.788399	99
Es	-1.510226	0.167635	1.247932	99
Es	0.682039	-0.276428	-2.098422	99
Es	0.753729	-0.231750	-1.755193	99
Es	0.178894	-1.772294	0.889449	99
Es	-1.726507	0.818300	1.548913	99
Es	0.502450	1.290145	0.185831	99
Es	0.250570	0.716263	0.624561	99
Es	-1.866032	0.085029	0.596258	99
Es	0.202897	-1.346663	-0.981354	99
Es	-0.538838	-1.392727	-1.098868	99
Es	0.189347	1.940629	0.403416	99
Es	1.251923	1.359679	0.272228	99
Es	0.348501	1.169289	-0.542703	99
Es	0.011229	0.140641	1.078378	99
Es	0.523369	1.600855	-1.696358	99
Es	1.367184	-0.220642	-1.654534	99
Es	-0.531051	1.066579	-1.421209	99
Es	0.495198	-1.201662	0.512433	99
48
Properties=species:S:1:pos:R:3:Z:I:1 energy=-289.3206813483591 field_type=dipole dipole="0.000000 0.000000 0.000000" charge=0
C	-1.510235	0.167635	1.247937	6
C	0.011255	0.140645	1.078417	6
C	0.495205	-1.201685	0.512437	6
C	0.202845	-1.346765	-0.981323	6
N	0.753615	-0.231825	-1.755773	7
C	0.210085	1.048015	-1.294853	6
C	0.502455	1.290165	0.185827	6
H	-1.830405	1.116785	1.690617	1
H	-1.836025	-0.636355	1.916027	1
H	-2.038225	0.047245	0.297837	1
H	0.447625	0.270465	2.077547	1
H	0.040285	-2.034145	1.060987	1
H	1.578995	-1.279995	0.669967	1
H	0.647835	-2.279215	-1.346763	1
H	-0.875345	-1.429715	-1.162023	1
H	1.767175	-0.220095	-1.639413	1
H	0.661015	1.851585	-1.887063	1
H	-0.867145	1.087925	-1.492133	1
H	1.586805	1.400585	0.319707	1
H	0.052185	2.238745	0.502037	1
Es	0.681090	-0.276446	-2.098356	99
Es	0.523362	1.600844	-1.696361	99
Es	1.244283	-1.250826	0.613772	99
Es	-1.865983	0.085090	0.596272	99
Es	0.250580	0.716317	0.624666	99
Es	0.247076	-0.533261	0.788339	99
Es	-0.761048	0.152486	1.150478	99
Es	0.753729	-0.231743	-1.755145	99
Es	0.523834	0.318261	-1.526528	99
Es	-0.538812	-1.392769	-1.098865	99
Es	0.341244	-1.271436	-0.223052	99
Es	0.520653	-0.703125	-1.392829	99
Es	-0.531026	1.066610	-1.421199	99
Es	0.311999	0.229907	1.766028	99
Es	1.251829	1.359690	0.272249	99
Es	0.210140	1.047903	-1.294854	99
Es	0.348532	1.169343	-0.542785	99
Es	0.189375	1.940629	0.403455	99
Es	0.202900	-1.346660	-0.981356	99
Es	1.367508	-0.220727	-1.655400	99
Es	-1.510230	0.167634	1.247927	99
Es	0.512107	-1.986645	-1.227045	99
Es	-1.730473	-0.384247	1.703479	99
Es	0.502448	1.290144	0.185830	99
Es	-1.726545	0.818244	1.548905	99
Es	0.011230	0.140640	1.078378	99
Es	0.495200	-1.201663	0.512436	99
Es	0.178935	-1.772278	0.889483	99
48
Properties=species:S:1:pos:R:3:Z:I:1 energy=-289.3206813483591 field_type=dipole dipole="0.000000 0.000000 0.000000" charge=0
C	-1.510235	0.167635	1.247937	6
C	0.011255	0.140645	1.078417	6
C	0.495205	-1.201685	0.512437	6
C	0.202845	-1.346765	-0.981323	6
N	0.753615	-0.231825	-1.755773	7
C	0.210085	1.048015	-1.294853	6
C	0.502455	1.290165	0.185827	6
H	-1.830405	1.116785	1.690617	1
H	-1.836025	-0.636355	1.916027	1
H	-2.038225	0.047245	0.297837	1
H	0.447625	0.270465	2.077547	1
H	0.040285	-2.034145	1.060987	1
H	1.578995	-1.279995	0.669967	1
H	0.647835	-2.279215	-1.346763	1
H	-0.875345	-1.429715	-1.162023	1
H	1.767175	-0.220095	-1.639413	1
H	0.661015	1.851585	-1.887063	1
H	-0.867145	1.087925	-1.492133	1
H	1.586805	1.400585	0.319707	1
H	0.052185	2.238745	0.502037	1
Es	0.202902	-1.346654	-0.981354	99
Es	0.523316	1.600822	-1.696381	99
Es	-1.510225	0.167635	1.247933	99
Es	0.753772	-0.231750	-1.755173	99
Es	-1.726561	0.818274	1.548873	99
Es	0.341257	-1.271462	-0.223014	99
Es	0.312005	0.229926	1.766044	99
Es	0.523923	0.318090	-1.526343	99
Es	1.367330	-0.220609	-1.655332	99
Es	0.189403	1.940574	0.403419	99
Es	-0.530986	1.066618	-1.421191	99
Es	-1.865999	0.085030	0.596294	99
Es	0.250641	0.716217	0.624654	99
Es	0.178951	-1.772304	0.889435	99
Es	0.246967	-0.533221	0.788446	99
Es	0.502448	1.290144	0.185830	99
Es	0.512093	-1.986651	-1.227050	99
Es	-1.730488	-0.384173	1.703477	99
Es	0.520966	-0.702933	-1.392604	99
Es	0.011230	0.140639	1.078378	99
Es	-0.538745	-1.392788	-1.098893	99
Es	-0.761023	0.152490	1.150450	99
Es	1.251850	1.359745	0.272212	99
Es	1.244244	-1.250831	0.613795	99
Es	0.680824	-0.276574	-2.098808	99
Es	0.348504	1.169424	-0.542750	99
Es	0.210139	1.047903	-1.294855	99
Es	0.495198	-1.201665	0.512434	99
48
Properties=species:S:1:pos:R:3:Z:I:1 energy=-289.3206813483591 field_type=dipole dipole="0.000000 0.000000 0.000000" charge=0
C	-1.510235	0.167635	1.247937	6
C	0.011255	0.140645	1.078417	6
C	0.495205	-1.201685	0.512437	6
C	0.202845	-1.346765	-0.981323	6
N	0.753615	-0.231825	-1.755773	7
C	0.210085	1.048015	-1.294853	6
C	0.502455	1.290165	0.185827	6
H	-1.830405	1.116785	1.690617	1
H	-1.836025	-0.636355	1.916027	1
H	-2.038225	0.047245	0.297837	1
H	0.447625	0.270465	2.077547	1
H	0.040285	-2.034145	1.060987	1
H	1.578995	-1.279995	0.669967	1
H	0.647835	-2.279215	-1.346763	1
H	-0.875345	-1.429715	-1.162023	1
H	1.767175	-0.220095	-1.639413	1
H	0.661015	1.851585	-1.887063	1
H	-0.867145	1.087925	-1.492133	1
H	1.586805	1.400585	0.319707	1
H	0.052185	2.238745	0.502037	1
Es	0.210140	1.047902	-1.294854	99
Es	0.348542	1.169436	-0.542729	99
Es	-0.760998	0.152485	1.150489	99
Es	0.250634	0.716218	0.624661	99
Es	0.512081	-1.986582	-1.226959	99
Es	0.753736	-0.231748	-1.755148	99
Es	0.246996	-0.533218	0.788508	99
Es	0.341218	-1.271480	-0.223011	99
Es	-1.510227	0.167635	1.247932	99
Es	-1.730501	-0.384170	1.703467	99
Es	0.523282	1.600816	-1.696389	99
Es	0.502449	1.290144	0.185831	99
Es	0.189402	1.940584	0.403402	99
Es	0.681111	-0.276594	-2.098443	99
Es	0.523886	0.318310	-1.526643	99
Es	0.179001	-1.772318	0.889438	99
Es	0.520679	-0.702897	-1.392811	99
Es	-0.530965	1.066610	-1.421192	99
Es	0.495199	-1.201664	0.512435	99
Es	0.011230	0.140640	1.078378	99
Es	-0.538742	-1.392870	-1.098934	99
Es	-1.726579	0.818253	1.548865	99
Es	-1.866008	0.085043	0.596332	99
Es	1.367456	-0.220822	-1.655290	99
Es	0.312001	0.229936	1.765971	99
Es	1.244200	-1.250833	0.613761	99
Es	0.202898	-1.346658	-0.981352	99
Es	1.251815	1.359759	0.272209	99
48
Properties=species:S:1:pos:R:3:Z:I:1 energy=-289.3206813483591 field_type=dipole dipole="0.000000 0.000000 0.000000" charge=0
C	-1.510235	0.167635	1.247937	6
C	0.011255	0.140645	1.078417	6
C	0.495205	-1.201685	0.512437	6
C	0.202845	-1.346765	-0.981323	6
N	0.753615	-0.231825	-1.755773	7
C	0.210085	1.048015	-1.294853	6
C	0.502455	1.290165	0.185827	6
H	-1.830405	1.116785	1.690617	1
H	-1.836025	-0.636355	1.916027	1
H	-2.038225	0.047245	0.297837	1
H	0.447625	0.270465	2.077547	1
H	0.040285	-2.034145	1.060987	1
H	1.578995	-1.279995	0.669967	1
H	0.647835	-2.279215	-1.346763	1
H	-0.875345	-1.429715	-1.162023	1
H	1.767175	-0.220095	-1.639413	1
H	0.661015	1.851585	-1.887063	1
H	-0.867145	1.087925	-1.492133	1
H	1.586805	1.400585	0.319707	1
H	0.052185	2.238745	0.502037	1
Es	0.523711	0.318374	-1.526748	99
Es	-0.530931	1.066629	-1.421209	99
Es	0.178997	-1.772297	0.889391	99
Es	0.202900	-1.346658	-0.981353	99
Es	0.495199	-1.201664	0.512434	99
Es	0.520565	-0.703284	-1.393060	99
Es	0.512021	-1.986574	-1.227017	99
Es	0.348508	1.169455	-0.542720	99
Es	0.247007	-0.533204	0.788535	99
Es	0.502448	1.290143	0.185830	99
Es	0.681423	-0.276415	-2.098059	99
Es	0.189439	1.940579	0.403388	99
Es	0.210139	1.047903	-1.294854	99
Es	0.753733	-0.231746	-1.755175	99
Es	-0.760961	0.152507	1.150502	99
Es	0.311994	0.229934	1.765941	99
Es	-1.866047	0.085026	0.596346	99
Es	0.011230	0.140640	1.078378	99
Es	-1.730525	-0.384119	1.703506	99
Es	1.367441	-0.220730	-1.655313	99
Es	0.250637	0.716211	0.624725	99
Es	0.523263	1.600808	-1.696370	99
Es	1.244194	-1.250869	0.613792	99
Es	-1.510226	0.167635	1.247933	99
Es	1.251800	1.359765	0.272194	99
Es	-1.726583	0.818200	1.548808	99
Es	-0.538734	-1.392824	-1.098918	99
Es	0.341294	-1.271508	-0.222983	99
48
Properties=species:S:1:pos:R:3:Z:I:1 energy=-289.3206813483591 field_type=dipole dipole="0.000000 0.000000 0.000000" charge=0
C	-1.510235	0.167635	1.247937	6
C	0.011255	0.140645	1.078417	6
C	0.495205	-1.201685	0.512437	6
C	0.202845	-1.346765	-0.981323	6
N	0.753615	-0.231825	-1.755773	7
C	0.210085	1.048015	-1.294853	6
C	0.502455	1.290165	0.185827	6
H	-1.830405	1.116785	1.690617	1
H	-1.836025	-0.636355	1.916027	1
H	-2.038225	0.047245	0.297837	1
H	0.447625	0.270465	2.077547	1
H	0.040285	-2.034145	1.060987	1
H	1.578995	-1.279995	0.669967	1
H	0.647835	-2.279215	-1.346763	1
H	-0.875345	-1.429715	-1.162023	1
H	1.767175	-0.220095	-1.639413	1
H	0.661015	1.851585	-1.887063	1
H	-0.867145	1.087925	-1.492133	1
H	1.586805	1.400585	0.319707	1
H	0.052185	2.238745	0.502037	1
Es	0.011230	0.140637	1.078379	99
Es	0.502448	1.290144	0.185832	99
Es	0.250671	0.716240	0.624737	99
Es	1.244183	-1.250845	0.613801	99
Es	-0.530939	1.066572	-1.421195	99
Es	0.179041	-1.772313	0.889356	99
Es	0.348514	1.169470	-0.542725	99
Es	0.512009	-1.986605	-1.227035	99
Es	1.367408	-0.220711	-1.655278	99
Es	0.311968	0.229907	1.765914	99
Es	0.246935	-0.533198	0.788581	99
Es	-1.730545	-0.384093	1.703414	99
Es	0.189474	1.940599	0.403382	99
Es	-1.510228	0.167639	1.247933	99
Es	0.341312	-1.271537	-0.222991	99
Es	0.210142	1.047901	-1.294853	99
Es	0.523215	1.600826	-1.696385	99
Es	-0.760947	0.152443	1.150530	99
Es	1.251772	1.359744	0.272180	99
Es	-0.538696	-1.392820	-1.098885	99
Es	0.520585	-0.703307	-1.393172	99
Es	-1.866023	0.085027	0.596362	99
Es	0.495200	-1.201663	0.512435	99
Es	0.202899	-1.346658	-0.981352	99
Es	0.681415	-0.276290	-2.098183	99
Es	0.523773	0.318310	-1.526550	99
Es	-1.726602	0.818243	1.548866	99
Es	0.753722	-0.231747	-1.755175	99
48
Properties=species:S:1:pos:R:3:Z:I:1 energy=-289.3206813483591 field_type=dipole dipole="0.000000 0.000000 0.000000" charge=0
C	-1.510235	0.167635	1.247937	6
C	0.011255	0.140645	1.078417	6
C	0.495205	-1.201685	0.512437	6
C	0.202845	-1.346765	-0.981323	6
N	0.753615	-0.231825	-1.755773	7
C	0.210085	1.048015	-1.294853	6
C	0.502455	1.290165	0.185827	6
H	-1.830405	1.116785	1.690617	1
H	-1.836025	-0.636355	1.916027	1
H	-2.038225	0.047245	0.297837	1
H	0.447625	0.270465	2.077547	1
H	0.040285	-2.034145	1.060987	1
H	1.578995	-1.279995	0.669967	1
H	0.647835	-2.279215	-1.346763	1
H	-0.875345	-1.429715	-1.162023	1
H	1.767175	-0.220095	-1.639413	1
H	0.661015	1.851585	-1.887063	1
H	-0.867145	1.087925	-1.492133	1
H	1.586805	1.400585	0.319707	1
H	0.052185	2.238745	0.502037	1
Es	-0.530877	1.066645	-1.421222	99
Es	0.250648	0.716220	0.624786	99
Es	0.011229	0.140641	1.078377	99
Es	0.202899	-1.346659	-0.981353	99
Es	-1.510227	0.167629	1.247936	99
Es	0.348497	1.169503	-0.542735	99
Es	0.753729	-0.231744	-1.755195	99
Es	0.523711	0.318413	-1.526823	99
Es	0.179037	-1.772275	0.889354	99
Es	-1.730568	-0.384128	1.703505	99
Es	1.251743	1.359777	0.272198	99
Es	0.341286	-1.271571	-0.223001	99
Es	-0.538681	-1.392843	-1.098915	99
Es	0.502450	1.290138	0.185828	99
Es	-1.726639	0.818234	1.548747	99
Es	0.520595	-0.703253	-1.393018	99
Es	0.495200	-1.201664	0.512434	99
Es	0.189506	1.940563	0.403356	99
Es	0.246982	-0.533154	0.788598	99
Es	-0.760989	0.152527	1.150596	99
Es	0.210139	1.047905	-1.294854	99
Es	1.244148	-1.250900	0.613817	99
Es	0.512004	-1.986585	-1.227016	99
Es	1.367420	-0.220736	-1.655421	99
Es	0.311998	0.229908	1.765857	99
Es	0.523222	1.600799	-1.696363	99
Es	-1.865961	0.085001	0.596372	99
Es	0.681432	-0.276475	-2.097923	99
48
Properties=species:S:1:pos:R:3:Z:I:1 energy=-289.3206813483591 field_type=dipole dipole="0.000000 0.000000 0.000000" charge=0
C	-1.510235	0.167635	1.247937	6
C	0.011255	0.140645	1.078417	6
C	0.495205	-1.201685	0.512437	6
C	0.202845	-1.346765	-0.981323	6
N	0.753615	-0.231825	-1.755773	7
C	0.210085	1.048015	-1.294853	6
C	0.502455	1.290165	0.185827	6
H	-1.830405	1.116785	1.690617	1
H	-1.836025	-0.636355	1.916027	1
H	-2.038225	0.047245	0.297837	1
H	0.447625	0.270465	2.077547	1
H	0.040285	-2.034145	1.060987	1
H	1.578995	-1.279995	0.669967	1
H	0.647835	-2.279215	-1.346763	1
H	-0.875345	-1.429715	-1.162023	1
H	1.767175	-0.220095	-1.639413	1
H	0.661015	1.851585	-1.887063	1
H	-0.867145	1.087925	-1.492133	1
H	1.586805	1.400585	0.319707	1
H	0.052185	2.238745	0.502037	1
Es	0.753753	-0.231750	-1.755185	99
Es	0.523375	0.318769	-1.527636	99
Es	-1.726568	0.818101	1.548822	99
Es	-1.866092	0.085128	0.596405	99
Es	0.210141	1.047904	-1.294854	99
Es	-1.730590	-0.384120	1.703473	99
Es	-0.538642	-1.392843	-1.098906	99
Es	-1.510225	0.167631	1.247931	99
Es	1.251763	1.359778	0.272214	99
Es	0.502443	1.290144	0.185828	99
Es	0.495198	-1.201663	0.512432	99
Es	0.179064	-1.772290	0.889338	99
Es	0.511981	-1.986591	-1.227027	99
Es	0.011227	0.140642	1.078379	99
Es	-0.760880	0.152481	1.150545	99
Es	0.341284	-1.271585	-0.222978	99
Es	0.520616	-0.703078	-1.392778	99
Es	0.348461	1.169533	-0.542635	99
Es	0.250622	0.716273	0.624775	99
Es	0.311941	0.229891	1.765821	99
Es	1.367435	-0.220662	-1.655357	99
Es	0.202898	-1.346660	-0.981353	99
Es	0.523203	1.600747	-1.696293	99
Es	1.244116	-1.250915	0.613793	99
Es	0.681725	-0.277041	-2.097494	99
Es	0.189496	1.940544	0.403368	99
Es	0.247023	-0.533142	0.788626	99
Es	-0.530832	1.066690	-1.421330	99
