45
Properties=species:S:1:pos:R:3:Z:I:1 energy=-739.2965939143933 field_type=dipole dipole="0.000000 0.000000 0.000000" charge=0
C	-0.083566	-2.076990	0.724428	6
C	-0.329396	-0.783970	-0.015992	6
O	-1.226936	-0.748930	-0.866772	8
S	0.576764	0.767870	0.245008	16
C	-0.166016	1.906600	-0.891392	6
O	0.265544	1.177560	1.601718	8
O	1.939694	0.498690	-0.173212	8
H	0.811394	-1.976150	1.343588	1
H	0.072944	-2.884760	0.005618	1
H	-0.940506	-2.295840	1.365588	1
H	-0.034806	1.531920	-1.908171	1
H	0.339204	2.868920	-0.783491	1
H	-1.224316	2.015080	-0.646922	1
Es	0.265594	1.177478	1.601459	99
Es	0.675421	0.716640	0.224167	99
Es	0.493168	0.729006	0.163956	99
Es	-1.363519	-1.024304	-0.890410	99
Es	-1.226718	-0.748943	-0.866567	99
Es	-0.165936	1.906497	-0.891277	99
Es	0.593545	0.887359	0.238298	99
Es	-0.070697	1.649303	-1.549628	99
Es	0.512640	-2.007172	1.137880	99
Es	0.013837	-2.592234	0.236850	99
Es	1.939408	0.498742	-0.173128	99
Es	0.093364	-0.081005	0.112999	99
Es	0.373803	1.438401	1.567836	99
Es	-0.728200	-0.813340	-0.734249	99
Es	0.432079	1.040939	1.109942	99
Es	0.390889	0.932230	1.710601	99
Es	1.973137	0.314123	0.056592	99
Es	-1.258351	-0.467913	-1.002323	99
Es	-0.018849	1.122899	1.457332	99
Es	-0.854947	1.967920	-0.717989	99
Es	0.576826	0.767718	0.244928	99
Es	0.171036	1.356878	-0.363057	99
Es	-0.171920	-1.385894	0.366207	99
Es	1.769852	0.383018	-0.414984	99
Es	1.447621	0.619755	0.009282	99
Es	-0.083578	-2.076871	0.724372	99
Es	-0.655719	-2.201025	1.134360	99
Es	-0.329360	-0.783860	-0.016002	99
Es	0.181325	2.521310	-0.799267	99
Es	0.544736	0.738550	0.353568	99
Es	2.000875	0.779217	-0.180346	99
Es	-1.058838	-0.679568	-0.380495	99
45
Properties=species:S:1:pos:R:3:Z:I:1 energy=-739.2965939143933 field_type=dipole dipole="0.000000 0.000000 0.000000" charge=0
C	-0.083566	-2.076990	0.724428	6
C	-0.329396	-0.783970	-0.015992	6
O	-1.226936	-0.748930	-0.866772	8
S	0.576764	0.767870	0.245008	16
C	-0.166016	1.906600	-0.891392	6
O	0.265544	1.177560	1.601718	8
O	1.939694	0.498690	-0.173212	8
H	0.811394	-1.976150	1.343588	1
H	0.072944	-2.884760	0.005618	1
H	-0.940506	-2.295840	1.365588	1
H	-0.034806	1.531920	-1.908171	1
H	0.339204	2.868920	-0.783491	1
H	-1.224316	2.015080	-0.646922	1
Es	0.519084	0.800661	0.147988	99
Es	0.576771	0.767862	0.244991	99
Es	0.691182	0.801449	0.236461	99
Es	0.570411	0.650160	0.255493	99
Es	-0.019100	1.125623	1.465077	99
Es	-1.361791	-1.023897	-0.890336	99
Es	0.424831	1.035585	1.108337	99
Es	-0.655758	-2.201051	1.134369	99
Es	1.767439	0.410732	-0.425370	99
Es	-1.059727	-0.680635	-0.380432	99
Es	1.449232	0.616318	0.014046	99
Es	-0.165937	1.906496	-0.891275	99
Es	0.394092	0.934408	1.711405	99
Es	-0.171876	-1.385958	0.366095	99
Es	2.007119	0.777678	-0.156445	99
Es	0.378127	1.438897	1.560915	99
Es	-0.854975	1.967909	-0.717994	99
Es	-0.083576	-2.076872	0.724375	99
Es	0.512647	-2.007149	1.137874	99
Es	0.170933	1.356817	-0.363155	99
Es	1.939363	0.498751	-0.173101	99
Es	-1.226684	-0.748975	-0.866518	99
Es	0.526242	0.819108	0.340007	99
Es	-1.258940	-0.466925	-1.003678	99
Es	-0.329360	-0.783858	-0.016001	99
Es	0.181343	2.521289	-0.799171	99
Es	0.265602	1.177467	1.601424	99
Es	-0.728529	-0.813623	-0.733029	99
Es	-0.070644	1.649342	-1.549666	99
Es	0.013864	-2.592213	0.236938	99
Es	0.093400	-0.080987	0.113013	99
Es	1.967742	0.291444	0.038273	99
45
Properties=species:S:1:pos:R:3:Z:I:1 energy=-739.2965939143933 field_type=dipole dipole="0.000000 0.000000 0.000000" charge=0
C	-0.083566	-2.076990	0.724428	6
C	-0.329396	-0.783970	-0.015992	6
O	-1.226936	-0.748930	-0.866772	8
S	0.576764	0.767870	0.245008	16
C	-0.166016	1.906600	-0.891392	6
O	0.265544	1.177560	1.601718	8
O	1.939694	0.498690	-0.173212	8
H	0.811394	-1.976150	1.343588	1
H	0.072944	-2.884760	0.005618	1
H	-0.940506	-2.295840	1.365588	1
H	-0.034806	1.531920	-1.908171	1
H	0.339204	2.868920	-0.783491	1
H	-1.224316	2.015080	-0.646922	1
Es	0.013869	-2.592228	0.236959	99
Es	0.171030	1.356948	-0.363052	99
Es	-0.165936	1.906497	-0.891277	99
Es	0.265591	1.177480	1.601456	99
Es	0.365430	1.443865	1.566442	99
Es	-1.059141	-0.680047	-0.380537	99
Es	0.093409	-0.080962	0.112962	99
Es	-0.855012	1.967843	-0.718066	99
Es	-0.172066	-1.385967	0.366120	99
Es	-0.083575	-2.076874	0.724378	99
Es	0.512672	-2.007105	1.137919	99
Es	2.007637	0.777251	-0.187047	99
Es	0.424076	1.043957	1.105921	99
Es	0.691871	0.753759	0.242530	99
Es	-0.015769	1.111602	1.466999	99
Es	-1.258496	-0.467498	-1.002759	99
Es	-0.655666	-2.201102	1.134318	99
Es	-0.728110	-0.814102	-0.733945	99
Es	0.524248	0.660699	0.236238	99
Es	0.404218	0.935052	1.706352	99
Es	-1.363234	-1.023450	-0.890244	99
Es	1.978258	0.301983	0.046152	99
Es	-0.329357	-0.783858	-0.016000	99
Es	0.576697	0.767906	0.244973	99
Es	1.939384	0.498760	-0.173121	99
Es	0.544524	0.836740	0.153209	99
Es	0.181314	2.521376	-0.799288	99
Es	1.455037	0.623907	0.020641	99
Es	-1.226663	-0.748923	-0.866519	99
Es	-0.070606	1.649245	-1.549546	99
Es	0.546323	0.820134	0.347994	99
Es	1.750569	0.392966	-0.409253	99
45
Properties=species:S:1:pos:R:3:Z:I:1 energy=-739.2965939143933 field_type=dipole dipole="0.000000 0.000000 0.000000" charge=0
C	-0.083566	-2.076990	0.724428	6
C	-0.329396	-0.783970	-0.015992	6
O	-1.226936	-0.748930	-0.866772	8
S	0.576764	0.767870	0.245008	16
C	-0.166016	1.906600	-0.891392	6
O	0.265544	1.177560	1.601718	8
O	1.939694	0.498690	-0.173212	8
H	0.811394	-1.976150	1.343588	1
H	0.072944	-2.884760	0.005618	1
H	-0.940506	-2.295840	1.365588	1
H	-0.034806	1.531920	-1.908171	1
H	0.339204	2.868920	-0.783491	1
H	-1.224316	2.015080	-0.646922	1
Es	-0.329358	-0.783858	-0.015999	99
Es	-1.256104	-0.467406	-1.002443	99
Es	-0.854975	1.967938	-0.718063	99
Es	0.665432	0.787847	0.318943	99
Es	0.181419	2.521341	-0.799249	99
Es	0.430480	1.035387	1.111353	99
Es	-1.059237	-0.679697	-0.380178	99
Es	0.013811	-2.592197	0.236913	99
Es	-0.083576	-2.076874	0.724376	99
Es	-0.655721	-2.201043	1.134289	99
Es	-0.165941	1.906501	-0.891282	99
Es	0.512713	-2.007162	1.137951	99
Es	0.576772	0.767906	0.245009	99
Es	2.006864	0.778477	-0.168183	99
Es	1.939440	0.498727	-0.173160	99
Es	-0.015330	1.123323	1.455788	99
Es	0.583386	0.654724	0.202908	99
Es	1.972215	0.296617	0.041297	99
Es	1.451507	0.618203	0.017332	99
Es	0.389095	0.934036	1.715993	99
Es	-0.728824	-0.815171	-0.733437	99
Es	0.170949	1.356783	-0.363130	99
Es	0.265599	1.177466	1.601440	99
Es	0.373693	1.441734	1.562575	99
Es	0.093436	-0.080935	0.112952	99
Es	0.473767	0.784597	0.302239	99
Es	-0.070691	1.649336	-1.549532	99
Es	-1.226690	-0.748907	-0.866550	99
Es	-0.171984	-1.386001	0.366207	99
Es	1.760864	0.402850	-0.419876	99
Es	-1.364759	-1.022896	-0.891425	99
Es	0.584273	0.844203	0.155851	99
45
Properties=species:S:1:pos:R:3:Z:I:1 energy=-739.2965939143933 field_type=dipole dipole="0.000000 0.000000 0.000000" charge=0
C	-0.083566	-2.076990	0.724428	6
C	-0.329396	-0.783970	-0.015992	6
O	-1.226936	-0.748930	-0.866772	8
S	0.576764	0.767870	0.245008	16
C	-0.166016	1.906600	-0.891392	6
O	0.265544	1.177560	1.601718	8
O	1.939694	0.498690	-0.173212	8
H	0.811394	-1.976150	1.343588	1
H	0.072944	-2.884760	0.005618	1
H	-0.940506	-2.295840	1.365588	1
H	-0.034806	1.531920	-1.908171	1
H	0.339204	2.868920	-0.783491	1
H	-1.224316	2.015080	-0.646922	1
Es	-0.018158	1.138072	1.466006	99
Es	2.017284	0.777166	-0.179834	99
Es	0.013833	-2.592215	0.236905	99
Es	-0.655695	-2.201065	1.134320	99
Es	1.971249	0.290637	0.036539	99
Es	-0.070661	1.649349	-1.549516	99
Es	0.512699	-2.007124	1.137922	99
Es	-0.083575	-2.076874	0.724377	99
Es	0.093340	-0.080861	0.112976	99
Es	-0.329355	-0.783858	-0.016002	99
Es	-1.256780	-0.466751	-1.001358	99
Es	0.551688	0.862860	0.178709	99
Es	-0.172014	-1.385996	0.366261	99
Es	0.389204	1.435424	1.556949	99
Es	0.494430	0.682964	0.226669	99
Es	0.387052	0.930739	1.714423	99
Es	-0.855002	1.967947	-0.718092	99
Es	0.181415	2.521328	-0.799253	99
Es	-1.365035	-1.022453	-0.891532	99
Es	0.577258	0.798866	0.359111	99
Es	0.170918	1.356789	-0.363093	99
Es	-1.058850	-0.680804	-0.380615	99
Es	0.683509	0.726687	0.215414	99
Es	1.939466	0.498768	-0.173137	99
Es	1.456666	0.623532	0.023236	99
Es	-1.226669	-0.748913	-0.866528	99
Es	0.419935	1.030251	1.108328	99
Es	1.746198	0.404744	-0.409420	99
Es	-0.728231	-0.815219	-0.734046	99
Es	0.265578	1.177487	1.601453	99
Es	-0.165938	1.906498	-0.891279	99
Es	0.576765	0.767877	0.245016	99
45
Properties=species:S:1:pos:R:3:Z:I:1 energy=-739.2965939143933 field_type=dipole dipole="0.000000 0.000000 0.000000" charge=0
C	-0.083566	-2.076990	0.724428	6
C	-0.329396	-0.783970	-0.015992	6
O	-1.226936	-0.748930	-0.866772	8
S	0.576764	0.767870	0.245008	16
C	-0.166016	1.906600	-0.891392	6
O	0.265544	1.177560	1.601718	8
O	1.939694	0.498690	-0.173212	8
H	0.811394	-1.976150	1.343588	1
H	0.072944	-2.884760	0.005618	1
H	-0.940506	-2.295840	1.365588	1
H	-0.034806	1.531920	-1.908171	1
H	0.339204	2.868920	-0.783491	1
H	-1.224316	2.015080	-0.646922	1
Es	-0.015170	1.116091	1.464260	99
Es	1.763125	0.420159	-0.423802	99
Es	0.400281	0.935044	1.711406	99
Es	-0.165938	1.906497	-0.891279	99
Es	-0.655754	-2.201060	1.134203	99
Es	-1.257637	-0.468153	-1.002986	99
Es	0.673522	0.698243	0.227488	99
Es	0.576713	0.767514	0.244793	99
Es	2.008492	0.778573	-0.153324	99
Es	1.450089	0.613855	0.016984	99
Es	0.580387	0.863312	0.173264	99
Es	-1.059588	-0.679333	-0.380463	99
Es	0.512620	-2.007114	1.138047	99
Es	-0.329357	-0.783862	-0.016007	99
Es	0.170975	1.356764	-0.363128	99
Es	-0.171947	-1.386058	0.366187	99
Es	-1.226701	-0.748947	-0.866541	99
Es	0.576024	0.804020	0.354228	99
Es	0.424465	1.039791	1.107736	99
Es	-0.728173	-0.814247	-0.733424	99
Es	0.368474	1.443510	1.562218	99
Es	0.181365	2.521298	-0.799247	99
Es	0.265531	1.177508	1.601531	99
Es	0.477007	0.706186	0.225167	99
Es	0.093383	-0.080867	0.112933	99
Es	-0.854931	1.967969	-0.718045	99
Es	-1.363538	-1.023377	-0.890565	99
Es	0.013919	-2.592234	0.236931	99
Es	1.969747	0.283552	0.030701	99
Es	-0.083575	-2.076874	0.724377	99
Es	1.939421	0.498737	-0.173135	99
Es	-0.070705	1.649353	-1.549601	99
45
Properties=species:S:1:pos:R:3:Z:I:1 energy=-739.2965939143933 field_type=dipole dipole="0.000000 0.000000 0.000000" charge=0
C	-0.083566	-2.076990	0.724428	6
C	-0.329396	-0.783970	-0.015992	6
O	-1.226936	-0.748930	-0.866772	8
S	0.576764	0.767870	0.245008	16
C	-0.166016	1.906600	-0.891392	6
O	0.265544	1.177560	1.601718	8
O	1.939694	0.498690	-0.173212	8
H	0.811394	-1.976150	1.343588	1
H	0.072944	-2.884760	0.005618	1
H	-0.940506	-2.295840	1.365588	1
H	-0.034806	1.531920	-1.908171	1
H	0.339204	2.868920	-0.783491	1
H	-1.224316	2.015080	-0.646922	1
Es	1.459095	0.626673	0.025288	99
Es	-1.226785	-0.748924	-0.866623	99
Es	-0.070756	1.649380	-1.549629	99
Es	-0.165938	1.906498	-0.891280	99
Es	-0.329358	-0.783859	-0.016002	99
Es	0.577406	0.823117	0.141719	99
Es	-0.171991	-1.386115	0.366200	99
Es	0.170988	1.356752	-0.363127	99
Es	2.019671	0.774473	-0.178752	99
Es	0.387830	0.934119	1.715790	99
Es	0.372844	1.442731	1.563813	99
Es	0.013810	-2.592242	0.236926	99
Es	-0.655707	-2.201022	1.134283	99
Es	-1.259698	-0.468740	-1.003045	99
Es	0.181356	2.521314	-0.799229	99
Es	0.093383	-0.080828	0.112957	99
Es	-0.083575	-2.076874	0.724377	99
Es	0.576780	0.767876	0.245017	99
Es	-1.362325	-1.024460	-0.889368	99
Es	-0.854897	1.967946	-0.717997	99
Es	0.660892	0.686507	0.244088	99
Es	0.470828	0.714587	0.260450	99
Es	-0.015071	1.122217	1.453509	99
Es	1.969577	0.288421	0.035151	99
Es	1.939400	0.498740	-0.173131	99
Es	-1.058577	-0.679180	-0.380463	99
Es	0.597747	0.847174	0.333670	99
Es	0.432352	1.035426	1.112551	99
Es	-0.728200	-0.812730	-0.734505	99
Es	0.265626	1.177464	1.601491	99
Es	1.743123	0.406558	-0.411183	99
Es	0.512695	-2.007146	1.137961	99
45
Properties=species:S:1:pos:R:3:Z:I:1 energy=-739.2965939143933 field_type=dipole dipole="0.000000 0.000000 0.000000" charge=0
C	-0.083566	-2.076990	0.724428	6
C	-0.329396	-0.783970	-0.015992	6
O	-1.226936	-0.748930	-0.866772	8
S	0.576764	0.767870	0.245008	16
C	-0.166016	1.906600	-0.891392	6
O	0.265544	1.177560	1.601718	8
O	1.939694	0.498690	-0.173212	8
H	0.811394	-1.976150	1.343588	1
H	0.072944	-2.884760	0.005618	1
H	-0.940506	-2.295840	1.365588	1
H	-0.034806	1.531920	-1.908171	1
H	0.339204	2.868920	-0.783491	1
H	-1.224316	2.015080	-0.646922	1
Es	-0.017925	1.129085	1.468535	99
Es	-0.165939	1.906500	-0.891283	99
Es	0.635152	0.807593	0.145371	99
Es	-0.070723	1.649368	-1.549547	99
Es	0.548195	0.855482	0.305416	99
Es	0.093347	-0.080808	0.112913	99
Es	0.381605	1.439294	1.554579	99
Es	0.576533	0.768320	0.245336	99
Es	0.181400	2.521322	-0.799258	99
Es	-0.329359	-0.783859	-0.016001	99
Es	0.419177	1.031589	1.108180	99
Es	-0.083575	-2.076874	0.724378	99
Es	-1.259219	-0.468287	-1.003549	99
Es	-1.059000	-0.679391	-0.380655	99
Es	-0.728050	-0.813892	-0.733958	99
Es	0.475985	0.708026	0.216419	99
Es	1.744760	0.400226	-0.408843	99
Es	0.170942	1.356752	-0.363115	99
Es	-0.854946	1.967963	-0.718054	99
Es	-0.171989	-1.386126	0.366215	99
Es	-0.655711	-2.201044	1.134249	99
Es	0.265579	1.177503	1.601549	99
Es	2.007402	0.779650	-0.185265	99
Es	0.647792	0.699795	0.312408	99
Es	-1.362640	-1.023489	-0.889337	99
Es	1.457428	0.620042	0.026275	99
Es	1.981909	0.296219	0.038294	99
Es	1.939357	0.498735	-0.173067	99
Es	0.013794	-2.592204	0.236933	99
Es	0.512733	-2.007158	1.137994	99
Es	0.395182	0.934506	1.714301	99
Es	-1.226672	-0.748985	-0.866505	99
45
Properties=species:S:1:pos:R:3:Z:I:1 energy=-739.2965939143933 field_type=dipole dipole="0.000000 0.000000 0.000000" charge=0
C	-0.083566	-2.076990	0.724428	6
C	-0.329396	-0.783970	-0.015992	6
O	-1.226936	-0.748930	-0.866772	8
S	0.576764	0.767870	0.245008	16
C	-0.166016	1.906600	-0.891392	6
O	0.265544	1.177560	1.601718	8
O	1.939694	0.498690	-0.173212	8
H	0.811394	-1.976150	1.343588	1
H	0.072944	-2.884760	0.005618	1
H	-0.940506	-2.295840	1.365588	1
H	-0.034806	1.531920	-1.908171	1
H	0.339204	2.868920	-0.783491	1
H	-1.224316	2.015080	-0.646922	1
Es	-0.083575	-2.076874	0.724378	99
Es	-0.165939	1.906499	-0.891281	99
Es	-1.260167	-0.469492	-1.004332	99
Es	-0.854921	1.967999	-0.718143	99
Es	-0.655737	-2.200983	1.134237	99
Es	0.489005	0.812108	0.313172	99
Es	0.512687	-2.007208	1.138010	99
Es	-0.171910	-1.386123	0.366222	99
Es	1.969959	0.278774	0.024325	99
Es	1.740255	0.419669	-0.413497	99
Es	-1.226690	-0.748937	-0.866540	99
Es	1.460439	0.622648	0.029756	99
Es	-1.058991	-0.678285	-0.380654	99
Es	0.532632	0.687740	0.170582	99
Es	-0.012116	1.111026	1.455657	99
Es	1.939472	0.498701	-0.173156	99
Es	0.181372	2.521282	-0.799177	99
Es	0.013785	-2.592232	0.236945	99
Es	0.430539	1.050828	1.107959	99
Es	2.020750	0.775140	-0.170012	99
Es	0.265596	1.177477	1.601452	99
Es	0.396079	0.927207	1.701896	99
Es	-0.727806	-0.813227	-0.734230	99
Es	0.363460	1.445417	1.580177	99
Es	0.624576	0.854517	0.182644	99
Es	0.170885	1.356717	-0.363080	99
Es	-0.070636	1.649388	-1.549607	99
Es	0.660852	0.717300	0.313536	99
Es	0.093337	-0.080772	0.112938	99
Es	0.576591	0.767530	0.244999	99
Es	-1.361898	-1.024124	-0.888265	99
Es	-0.329360	-0.783859	-0.016001	99
45
Properties=species:S:1:pos:R:3:Z:I:1 energy=-739.2965939143933 field_type=dipole dipole="0.000000 0.000000 0.000000" charge=0
C	-0.083566	-2.076990	0.724428	6
C	-0.329396	-0.783970	-0.015992	6
O	-1.226936	-0.748930	-0.866772	8
S	0.576764	0.767870	0.245008	16
C	-0.166016	1.906600	-0.891392	6
O	0.265544	1.177560	1.601718	8
O	1.939694	0.498690	-0.173212	8
H	0.811394	-1.976150	1.343588	1
H	0.072944	-2.884760	0.005618	1
H	-0.940506	-2.295840	1.365588	1
H	-0.034806	1.531920	-1.908171	1
H	0.339204	2.868920	-0.783491	1
H	-1.224316	2.015080	-0.646922	1
Es	1.976825	0.296046	0.040207	99
Es	-0.083574	-2.076875	0.724378	99
Es	-0.655717	-2.201084	1.134268	99
Es	0.485834	0.838724	0.217070	99
Es	0.265586	1.177473	1.601436	99
Es	-0.854975	1.967937	-0.718018	99
Es	0.560159	0.722553	0.353654	99
Es	-0.165939	1.906500	-0.891281	99
Es	0.424364	1.027036	1.111805	99
Es	1.939408	0.498736	-0.173123	99
Es	-1.363525	-1.023295	-0.889609	99
Es	1.749115	0.400271	-0.411569	99
Es	0.512721	-2.007113	1.137981	99
Es	0.013843	-2.592195	0.236921	99
Es	-0.070681	1.649393	-1.549607	99
Es	0.181356	2.521282	-0.799209	99
Es	0.677700	0.830290	0.242591	99
Es	-0.172058	-1.386173	0.366267	99
Es	-1.259121	-0.468440	-1.002344	99
Es	1.456044	0.620405	0.022534	99
Es	0.390260	0.937717	1.722464	99
Es	0.576613	0.767803	0.244957	99
Es	0.170938	1.356786	-0.363132	99
Es	-0.014667	1.127828	1.460446	99
Es	-0.329358	-0.783857	-0.015999	99
Es	2.009468	0.779450	-0.180624	99
Es	-1.058282	-0.679568	-0.380624	99
Es	0.583362	0.679893	0.166642	99
Es	-0.727876	-0.813865	-0.734928	99
Es	0.378050	1.441866	1.550988	99
Es	0.093354	-0.080772	0.112927	99
Es	-1.226701	-0.748902	-0.866562	99
45
Properties=species:S:1:pos:R:3:Z:I:1 energy=-739.2965939143933 field_type=dipole dipole="0.000000 0.000000 0.000000" charge=0
C	-0.083566	-2.076990	0.724428	6
C	-0.329396	-0.783970	-0.015992	6
O	-1.226936	-0.748930	-0.866772	8
S	0.576764	0.767870	0.245008	16
C	-0.166016	1.906600	-0.891392	6
O	0.265544	1.177560	1.601718	8
O	1.939694	0.498690	-0.173212	8
H	0.811394	-1.976150	1.343588	1
H	0.072944	-2.884760	0.005618	1
H	-0.940506	-2.295840	1.365588	1
H	-0.034806	1.531920	-1.908171	1
H	0.339204	2.868920	-0.783491	1
H	-1.224316	2.015080	-0.646922	1
Es	0.170900	1.356718	-0.363103	99
Es	0.426058	1.033502	1.110855	99
Es	0.093439	-0.080794	0.112845	99
Es	1.452961	0.618241	0.016820	99
Es	-0.727875	-0.813282	-0.733016	99
Es	0.683084	0.778430	0.296809	99
Es	1.939479	0.498682	-0.173127	99
Es	-0.083565	-2.076888	0.724376	99
Es	-1.259045	-0.469434	-1.004323	99
Es	0.538275	0.656281	0.256280	99
Es	0.388669	0.932256	1.715998	99
Es	0.512676	-2.007230	1.137987	99
Es	0.265604	1.177475	1.601440	99
Es	-1.226698	-0.748926	-0.866559	99
Es	0.181366	2.521319	-0.799226	99
Es	-1.361997	-1.023979	-0.889349	99
Es	0.377320	1.442427	1.560833	99
Es	0.499940	0.841269	0.297283	99
Es	1.757897	0.407380	-0.418189	99
Es	0.585584	0.795352	0.129540	99
Es	-0.014063	1.126304	1.457985	99
Es	-0.070742	1.649370	-1.549617	99
Es	2.012455	0.779546	-0.166374	99
Es	-0.171804	-1.386259	0.366184	99
Es	-0.329362	-0.783861	-0.016001	99
Es	1.968074	0.291079	0.038333	99
Es	-1.060035	-0.678315	-0.380646	99
Es	0.576771	0.767864	0.244999	99
Es	-0.165939	1.906499	-0.891281	99
Es	0.013817	-2.592140	0.236953	99
Es	-0.854865	1.967979	-0.718062	99
Es	-0.655853	-2.201014	1.134260	99
