48
Properties=species:S:1:pos:R:3:Z:I:1 energy=-740.4758853297742 field_type=dipole dipole="0.000000 0.000000 0.000000" charge=0
C	-1.975257	-1.016404	-0.123665	6
C	-0.471007	-0.840284	-0.173425	6
S	-0.008347	0.882006	-0.106225	16
O	-0.473597	1.525596	-1.319475	8
O	-0.370657	1.400396	1.201945	8
C	1.788122	0.811816	-0.160865	6
O	2.412792	0.236936	0.994865	8
H	-2.235917	-2.078014	-0.171825	1
H	-2.460337	-0.506944	-0.962395	1
H	-2.389807	-0.604304	0.801905	1
H	-0.068617	-1.251854	-1.103685	1
H	0.000313	-1.342404	0.676325	1
H	2.147413	1.839216	-0.270195	1
H	2.078093	0.239296	-1.045685	1
H	2.026813	0.704946	1.762395	1
Es	-0.008316	0.881967	-0.106217	99
Es	-0.191560	-1.098057	-0.797116	99
Es	-2.244971	-0.741407	0.499423	99
Es	2.319958	-0.056358	1.010090	99
Es	-0.470993	-0.840143	-0.173425	99
Es	-2.293047	-0.675934	-0.689442	99
Es	-0.175078	1.164724	1.283453	99
Es	-0.348286	1.782399	-1.256679	99
Es	2.694953	0.324461	0.960328	99
Es	-2.133378	-1.734250	-0.156900	99
Es	0.044025	0.982230	-0.077790	99
Es	-0.744361	1.442529	-1.226153	99
Es	1.788061	0.811702	-0.160641	99
Es	-0.264866	1.226773	0.703362	99
Es	-0.230105	1.653641	1.135113	99
Es	2.202635	0.495446	1.387610	99
Es	-0.123467	0.901427	-0.112366	99
Es	-1.197505	-0.898615	-0.148908	99
Es	-0.370554	1.400266	1.201636	99
Es	-0.149689	-1.158157	0.393124	99
Es	2.412501	0.237182	0.994872	99
Es	-0.292367	1.312229	-0.857992	99
Es	-0.308364	1.298048	-1.450559	99
Es	-0.473501	1.525453	-1.319230	99
Es	0.013796	0.799998	-0.021024	99
Es	-0.252424	-0.036995	-0.141817	99
Es	-1.975152	-1.016399	-0.123670	99
Es	1.962073	0.423411	-0.751961	99
Es	1.999614	1.504705	-0.236958	99
Es	0.952893	0.827730	-0.126056	99
Es	2.135502	0.465408	0.562659	99
Es	0.032302	0.844354	-0.213734	99
Es	-0.652977	1.343066	1.173101	99
48
Properties=species:S:1:pos:R:3:Z:I:1 energy=-740.4758853297742 field_type=dipole dipole="0.000000 0.000000 0.000000" charge=0
C	-1.975257	-1.016404	-0.123665	6
C	-0.471007	-0.840284	-0.173425	6
S	-0.008347	0.882006	-0.106225	16
O	-0.473597	1.525596	-1.319475	8
O	-0.370657	1.400396	1.201945	8
C	1.788122	0.811816	-0.160865	6
O	2.412792	0.236936	0.994865	8
H	-2.235917	-2.078014	-0.171825	1
H	-2.460337	-0.506944	-0.962395	1
H	-2.389807	-0.604304	0.801905	1
H	-0.068617	-1.251854	-1.103685	1
H	0.000313	-1.342404	0.676325	1
H	2.147413	1.839216	-0.270195	1
H	2.078093	0.239296	-1.045685	1
H	2.026813	0.704946	1.762395	1
Es	-0.741815	1.433837	-1.230810	99
Es	-0.191477	-1.098041	-0.797074	99
Es	-0.240265	1.658404	1.139530	99
Es	2.319376	-0.055204	1.009848	99
Es	-0.008307	0.881987	-0.106291	99
Es	2.412501	0.237190	0.994855	99
Es	-2.245074	-0.741367	0.499491	99
Es	-1.197740	-0.898637	-0.148841	99
Es	2.136922	0.465854	0.561415	99
Es	-0.055007	0.826603	-0.011699	99
Es	1.962013	0.423435	-0.751897	99
Es	-0.300711	1.297698	-1.445563	99
Es	0.014659	0.995520	-0.078967	99
Es	1.788062	0.811703	-0.160638	99
Es	-2.293020	-0.676067	-0.689407	99
Es	0.092106	0.828034	-0.138044	99
Es	-0.470994	-0.840144	-0.173425	99
Es	-0.473492	1.525462	-1.319223	99
Es	-0.356258	1.785784	-1.260347	99
Es	-0.370601	1.400326	1.201827	99
Es	-0.149590	-1.158000	0.392944	99
Es	-0.085053	0.877857	-0.196112	99
Es	-0.263713	1.232149	0.702209	99
Es	-2.133299	-1.734234	-0.156948	99
Es	1.999650	1.504732	-0.237019	99
Es	-1.975149	-1.016400	-0.123669	99
Es	2.694773	0.322765	0.961644	99
Es	-0.252409	-0.037061	-0.141796	99
Es	-0.168873	1.166013	1.281128	99
Es	2.201984	0.495491	1.387825	99
Es	-0.650136	1.331565	1.171967	99
Es	0.952908	0.827714	-0.126096	99
Es	-0.294616	1.317867	-0.854685	99
48
Properties=species:S:1:pos:R:3:Z:I:1 energy=-740.4758853297742 field_type=dipole dipole="0.000000 0.000000 0.000000" charge=0
C	-1.975257	-1.016404	-0.123665	6
C	-0.471007	-0.840284	-0.173425	6
S	-0.008347	0.882006	-0.106225	16
O	-0.473597	1.525596	-1.319475	8
O	-0.370657	1.400396	1.201945	8
C	1.788122	0.811816	-0.160865	6
O	2.412792	0.236936	0.994865	8
H	-2.235917	-2.078014	-0.171825	1
H	-2.460337	-0.506944	-0.962395	1
H	-2.389807	-0.604304	0.801905	1
H	-0.068617	-1.251854	-1.103685	1
H	0.000313	-1.342404	0.676325	1
H	2.147413	1.839216	-0.270195	1
H	2.078093	0.239296	-1.045685	1
H	2.026813	0.704946	1.762395	1
Es	-0.291479	1.303118	-1.442612	99
Es	-0.037520	0.962409	-0.026977	99
Es	-0.149575	-1.158002	0.392946	99
Es	0.952888	0.827705	-0.126193	99
Es	-0.296523	1.318953	-0.854066	99
Es	1.999577	1.504709	-0.236982	99
Es	-0.741219	1.424558	-1.237540	99
Es	-0.212542	1.646870	1.146398	99
Es	-2.133337	-1.734240	-0.157053	99
Es	2.320073	-0.055095	1.010781	99
Es	-0.186989	1.149547	1.274685	99
Es	2.202846	0.495754	1.387762	99
Es	2.135062	0.464598	0.561897	99
Es	-0.101660	0.861722	-0.176070	99
Es	-2.293057	-0.675980	-0.689286	99
Es	-0.473498	1.525466	-1.319268	99
Es	0.083798	0.922546	-0.171734	99
Es	1.962083	0.423513	-0.751904	99
Es	-0.364140	1.788573	-1.257147	99
Es	-0.008563	0.882024	-0.106252	99
Es	-0.654519	1.357543	1.172152	99
Es	-0.370571	1.400292	1.201717	99
Es	-1.975161	-1.016399	-0.123664	99
Es	-0.470994	-0.840144	-0.173425	99
Es	2.694975	0.323726	0.960309	99
Es	-0.191439	-1.097998	-0.797004	99
Es	0.022310	0.781212	-0.050074	99
Es	1.788063	0.811702	-0.160643	99
Es	2.412622	0.237111	0.994872	99
Es	-2.245013	-0.741460	0.499532	99
Es	-0.252429	-0.037043	-0.141759	99
Es	-0.268973	1.234232	0.701696	99
Es	-1.197743	-0.898689	-0.148960	99
48
Properties=species:S:1:pos:R:3:Z:I:1 energy=-740.4758853297742 field_type=dipole dipole="0.000000 0.000000 0.000000" charge=0
C	-1.975257	-1.016404	-0.123665	6
C	-0.471007	-0.840284	-0.173425	6
S	-0.008347	0.882006	-0.106225	16
O	-0.473597	1.525596	-1.319475	8
O	-0.370657	1.400396	1.201945	8
C	1.788122	0.811816	-0.160865	6
O	2.412792	0.236936	0.994865	8
H	-2.235917	-2.078014	-0.171825	1
H	-2.460337	-0.506944	-0.962395	1
H	-2.389807	-0.604304	0.801905	1
H	-0.068617	-1.251854	-1.103685	1
H	0.000313	-1.342404	0.676325	1
H	2.147413	1.839216	-0.270195	1
H	2.078093	0.239296	-1.045685	1
H	2.026813	0.704946	1.762395	1
Es	-2.133469	-1.734165	-0.156947	99
Es	-0.649057	1.326491	1.175372	99
Es	2.693596	0.324697	0.960392	99
Es	-0.252369	-0.037106	-0.141792	99
Es	-0.470993	-0.840143	-0.173424	99
Es	-0.166306	1.170331	1.278747	99
Es	-0.048646	0.938948	-0.010245	99
Es	0.059077	0.788565	-0.073362	99
Es	2.321381	-0.056236	1.010291	99
Es	1.999654	1.504641	-0.237066	99
Es	-2.293046	-0.675960	-0.689357	99
Es	0.056234	0.955607	-0.170245	99
Es	-0.742649	1.432097	-1.235343	99
Es	-0.473528	1.525402	-1.319164	99
Es	1.961995	0.423515	-0.751875	99
Es	-0.191539	-1.097906	-0.797029	99
Es	2.135105	0.465148	0.561990	99
Es	-0.356061	1.787142	-1.257642	99
Es	-0.296766	1.299192	-1.443237	99
Es	-0.008430	0.882596	-0.106863	99
Es	0.952882	0.827768	-0.126139	99
Es	-0.149440	-1.158044	0.392822	99
Es	-2.245016	-0.741446	0.499402	99
Es	-1.975151	-1.016400	-0.123670	99
Es	1.788060	0.811704	-0.160644	99
Es	-1.197726	-0.898797	-0.148740	99
Es	-0.297857	1.316862	-0.855217	99
Es	2.412552	0.237162	0.994851	99
Es	-0.243116	1.661724	1.138167	99
Es	-0.370575	1.400281	1.201679	99
Es	-0.099850	0.844218	-0.170385	99
Es	-0.264558	1.229666	0.702665	99
Es	2.202964	0.495282	1.388142	99
48
Properties=species:S:1:pos:R:3:Z:I:1 energy=-740.4758853297742 field_type=dipole dipole="0.000000 0.000000 0.000000" charge=0
C	-1.975257	-1.016404	-0.123665	6
C	-0.471007	-0.840284	-0.173425	6
S	-0.008347	0.882006	-0.106225	16
O	-0.473597	1.525596	-1.319475	8
O	-0.370657	1.400396	1.201945	8
C	1.788122	0.811816	-0.160865	6
O	2.412792	0.236936	0.994865	8
H	-2.235917	-2.078014	-0.171825	1
H	-2.460337	-0.506944	-0.962395	1
H	-2.389807	-0.604304	0.801905	1
H	-0.068617	-1.251854	-1.103685	1
H	0.000313	-1.342404	0.676325	1
H	2.147413	1.839216	-0.270195	1
H	2.078093	0.239296	-1.045685	1
H	2.026813	0.704946	1.762395	1
Es	-2.245059	-0.741515	0.499385	99
Es	-0.049775	0.774752	-0.055543	99
Es	-0.169839	1.162478	1.274800	99
Es	-0.370667	1.400271	1.201832	99
Es	-0.252354	-0.037112	-0.141807	99
Es	-0.291767	1.308886	-0.860078	99
Es	-0.308519	1.301392	-1.454575	99
Es	1.961960	0.423561	-0.751844	99
Es	-0.470993	-0.840143	-0.173424	99
Es	2.320460	-0.055245	1.011138	99
Es	-0.191424	-1.097949	-0.796938	99
Es	-2.133401	-1.734150	-0.156960	99
Es	-0.473504	1.525391	-1.319187	99
Es	2.204013	0.495948	1.388064	99
Es	-0.651479	1.339884	1.180743	99
Es	-0.350849	1.784748	-1.252307	99
Es	0.952914	0.827756	-0.126170	99
Es	-1.197789	-0.898761	-0.148774	99
Es	0.007867	0.904227	-0.069744	99
Es	-0.149481	-1.157944	0.392809	99
Es	1.999631	1.504661	-0.237092	99
Es	2.134211	0.464509	0.562101	99
Es	-0.742260	1.440289	-1.224440	99
Es	-0.097606	0.960095	-0.147454	99
Es	-1.975157	-1.016402	-0.123669	99
Es	2.694388	0.323658	0.959524	99
Es	-2.293096	-0.675987	-0.689345	99
Es	-0.229264	1.655686	1.136519	99
Es	2.412565	0.237143	0.994862	99
Es	0.005377	0.899690	-0.077882	99
Es	0.092502	0.871155	-0.180520	99
Es	1.788061	0.811702	-0.160644	99
Es	-0.272311	1.230162	0.702753	99
48
Properties=species:S:1:pos:R:3:Z:I:1 energy=-740.4758853297742 field_type=dipole dipole="0.000000 0.000000 0.000000" charge=0
C	-1.975257	-1.016404	-0.123665	6
C	-0.471007	-0.840284	-0.173425	6
S	-0.008347	0.882006	-0.106225	16
O	-0.473597	1.525596	-1.319475	8
O	-0.370657	1.400396	1.201945	8
C	1.788122	0.811816	-0.160865	6
O	2.412792	0.236936	0.994865	8
H	-2.235917	-2.078014	-0.171825	1
H	-2.460337	-0.506944	-0.962395	1
H	-2.389807	-0.604304	0.801905	1
H	-0.068617	-1.251854	-1.103685	1
H	0.000313	-1.342404	0.676325	1
H	2.147413	1.839216	-0.270195	1
H	2.078093	0.239296	-1.045685	1
H	2.026813	0.704946	1.762395	1
Es	-0.008263	0.882045	-0.106184	99
Es	-0.266374	1.227716	0.703940	99
Es	1.961970	0.423546	-0.751776	99
Es	2.325894	-0.057469	1.009166	99
Es	-0.308720	1.293920	-1.446181	99
Es	-1.975153	-1.016399	-0.123669	99
Es	2.691500	0.328382	0.962218	99
Es	0.005105	0.936987	-0.001533	99
Es	1.999648	1.504638	-0.237164	99
Es	-2.133431	-1.734128	-0.156967	99
Es	-0.470993	-0.840144	-0.173425	99
Es	-0.743607	1.442792	-1.227079	99
Es	-0.294761	1.314862	-0.856603	99
Es	2.135329	0.465047	0.561179	99
Es	-2.245085	-0.741520	0.499370	99
Es	-1.197789	-0.898766	-0.148756	99
Es	-0.075823	0.948598	-0.178487	99
Es	1.788062	0.811704	-0.160643	99
Es	0.952890	0.827759	-0.126221	99
Es	-0.232159	1.657222	1.136265	99
Es	-0.652709	1.337138	1.176425	99
Es	-0.473293	1.525373	-1.319191	99
Es	-0.370571	1.400279	1.201682	99
Es	-0.252337	-0.037137	-0.141888	99
Es	0.097070	0.866165	-0.155400	99
Es	2.200359	0.492876	1.388321	99
Es	-0.191462	-1.097941	-0.796887	99
Es	2.412541	0.237225	0.994866	99
Es	-0.059713	0.776114	-0.089534	99
Es	-0.171764	1.166127	1.278319	99
Es	-0.149394	-1.157912	0.392780	99
Es	-2.293110	-0.676029	-0.689293	99
Es	-0.346505	1.783768	-1.261515	99
48
Properties=species:S:1:pos:R:3:Z:I:1 energy=-740.4758853297742 field_type=dipole dipole="0.000000 0.000000 0.000000" charge=0
C	-1.975257	-1.016404	-0.123665	6
C	-0.471007	-0.840284	-0.173425	6
S	-0.008347	0.882006	-0.106225	16
O	-0.473597	1.525596	-1.319475	8
O	-0.370657	1.400396	1.201945	8
C	1.788122	0.811816	-0.160865	6
O	2.412792	0.236936	0.994865	8
H	-2.235917	-2.078014	-0.171825	1
H	-2.460337	-0.506944	-0.962395	1
H	-2.389807	-0.604304	0.801905	1
H	-0.068617	-1.251854	-1.103685	1
H	0.000313	-1.342404	0.676325	1
H	2.147413	1.839216	-0.270195	1
H	2.078093	0.239296	-1.045685	1
H	2.026813	0.704946	1.762395	1
Es	1.962046	0.423603	-0.751881	99
Es	1.788061	0.811704	-0.160645	99
Es	-2.293132	-0.676045	-0.689262	99
Es	-0.262352	1.226478	0.705535	99
Es	2.693192	0.323890	0.960644	99
Es	2.412534	0.237179	0.994847	99
Es	2.203164	0.495233	1.388538	99
Es	-1.197837	-0.898729	-0.148769	99
Es	-0.232666	1.656272	1.134450	99
Es	-0.370633	1.400385	1.201863	99
Es	-0.298377	1.296740	-1.441073	99
Es	-0.046437	0.985031	-0.061311	99
Es	2.135091	0.465052	0.561253	99
Es	1.999537	1.504647	-0.237041	99
Es	-1.975154	-1.016399	-0.123669	99
Es	-0.743388	1.431798	-1.233268	99
Es	-0.473510	1.525479	-1.319273	99
Es	-0.100978	0.810017	-0.124147	99
Es	0.048051	0.901561	-0.209607	99
Es	-2.133463	-1.734149	-0.156928	99
Es	-0.252289	-0.037174	-0.141733	99
Es	-0.173918	1.166509	1.283803	99
Es	-2.245070	-0.741508	0.499310	99
Es	-0.470993	-0.840140	-0.173424	99
Es	-0.654026	1.338884	1.170944	99
Es	-0.355286	1.787252	-1.261741	99
Es	2.321649	-0.055322	1.010458	99
Es	-0.149442	-1.157925	0.392676	99
Es	-0.008331	0.881957	-0.106181	99
Es	-0.191395	-1.097894	-0.796904	99
Es	-0.296289	1.319402	-0.855266	99
Es	0.952923	0.827681	-0.126205	99
Es	0.066069	0.831367	-0.029860	99
48
Properties=species:S:1:pos:R:3:Z:I:1 energy=-740.4758853297742 field_type=dipole dipole="0.000000 0.000000 0.000000" charge=0
C	-1.975257	-1.016404	-0.123665	6
C	-0.471007	-0.840284	-0.173425	6
S	-0.008347	0.882006	-0.106225	16
O	-0.473597	1.525596	-1.319475	8
O	-0.370657	1.400396	1.201945	8
C	1.788122	0.811816	-0.160865	6
O	2.412792	0.236936	0.994865	8
H	-2.235917	-2.078014	-0.171825	1
H	-2.460337	-0.506944	-0.962395	1
H	-2.389807	-0.604304	0.801905	1
H	-0.068617	-1.251854	-1.103685	1
H	0.000313	-1.342404	0.676325	1
H	2.147413	1.839216	-0.270195	1
H	2.078093	0.239296	-1.045685	1
H	2.026813	0.704946	1.762395	1
Es	1.961996	0.423600	-0.751870	99
Es	0.075288	0.887814	-0.190869	99
Es	-0.742764	1.433275	-1.229379	99
Es	-1.975154	-1.016399	-0.123668	99
Es	-0.473482	1.525404	-1.319190	99
Es	-0.110891	0.844794	-0.153572	99
Es	0.025953	0.806157	-0.021948	99
Es	-0.354347	1.787700	-1.260881	99
Es	-0.023629	0.989156	-0.058485	99
Es	-1.197835	-0.898718	-0.148823	99
Es	1.788062	0.811705	-0.160646	99
Es	-0.236828	1.658370	1.134202	99
Es	-0.370563	1.400268	1.201745	99
Es	-0.266582	1.228195	0.704272	99
Es	-0.167370	1.168552	1.278905	99
Es	-0.191408	-1.097931	-0.796828	99
Es	2.202248	0.494628	1.388190	99
Es	-0.252226	-0.037199	-0.141836	99
Es	-0.008349	0.882012	-0.106231	99
Es	-2.293152	-0.676084	-0.689207	99
Es	-0.293968	1.316987	-0.856994	99
Es	-0.149422	-1.157886	0.392685	99
Es	0.952921	0.827737	-0.126202	99
Es	-2.133457	-1.734058	-0.157001	99
Es	2.693569	0.325043	0.960986	99
Es	-2.245118	-0.741554	0.499382	99
Es	2.322732	-0.054946	1.010730	99
Es	-0.652246	1.333126	1.177480	99
Es	-0.302301	1.297325	-1.444146	99
Es	1.999515	1.504558	-0.237141	99
Es	2.412596	0.237123	0.994824	99
Es	-0.470995	-0.840146	-0.173425	99
Es	2.134560	0.464228	0.561073	99
48
Properties=species:S:1:pos:R:3:Z:I:1 energy=-740.4758853297742 field_type=dipole dipole="0.000000 0.000000 0.000000" charge=0
C	-1.975257	-1.016404	-0.123665	6
C	-0.471007	-0.840284	-0.173425	6
S	-0.008347	0.882006	-0.106225	16
O	-0.473597	1.525596	-1.319475	8
O	-0.370657	1.400396	1.201945	8
C	1.788122	0.811816	-0.160865	6
O	2.412792	0.236936	0.994865	8
H	-2.235917	-2.078014	-0.171825	1
H	-2.460337	-0.506944	-0.962395	1
H	-2.389807	-0.604304	0.801905	1
H	-0.068617	-1.251854	-1.103685	1
H	0.000313	-1.342404	0.676325	1
H	2.147413	1.839216	-0.270195	1
H	2.078093	0.239296	-1.045685	1
H	2.026813	0.704946	1.762395	1
Es	2.693004	0.324452	0.961696	99
Es	-0.008324	0.881993	-0.106224	99
Es	2.322307	-0.055152	1.009926	99
Es	2.412616	0.237118	0.994857	99
Es	-2.133540	-1.734075	-0.156862	99
Es	0.952821	0.827834	-0.126196	99
Es	-1.975153	-1.016398	-0.123668	99
Es	-0.737924	1.422861	-1.219872	99
Es	0.061247	0.813243	-0.172955	99
Es	-1.197782	-0.898769	-0.148947	99
Es	-0.118183	0.835875	-0.102501	99
Es	-0.191274	-1.097917	-0.796737	99
Es	1.788066	0.811705	-0.160646	99
Es	0.036008	0.887821	0.003433	99
Es	-2.293164	-0.676134	-0.689230	99
Es	-0.012404	0.991002	-0.152895	99
Es	1.999615	1.504463	-0.237154	99
Es	-0.364799	1.793093	-1.272034	99
Es	1.961980	0.423663	-0.751840	99
Es	-0.237541	1.660502	1.148981	99
Es	-0.473491	1.525457	-1.319239	99
Es	-0.285712	1.324676	-0.857435	99
Es	2.202096	0.494254	1.388527	99
Es	-0.149497	-1.157861	0.392752	99
Es	-0.252269	-0.037196	-0.141852	99
Es	2.135678	0.465333	0.560787	99
Es	-2.245097	-0.741489	0.499230	99
Es	-0.370562	1.400285	1.201659	99
Es	-0.264664	1.238782	0.701989	99
Es	-0.169762	1.161265	1.270920	99
Es	-0.304917	1.294653	-1.441987	99
Es	-0.651032	1.327642	1.173077	99
Es	-0.470993	-0.840145	-0.173425	99
48
Properties=species:S:1:pos:R:3:Z:I:1 energy=-740.4758853297742 field_type=dipole dipole="0.000000 0.000000 0.000000" charge=0
C	-1.975257	-1.016404	-0.123665	6
C	-0.471007	-0.840284	-0.173425	6
S	-0.008347	0.882006	-0.106225	16
O	-0.473597	1.525596	-1.319475	8
O	-0.370657	1.400396	1.201945	8
C	1.788122	0.811816	-0.160865	6
O	2.412792	0.236936	0.994865	8
H	-2.235917	-2.078014	-0.171825	1
H	-2.460337	-0.506944	-0.962395	1
H	-2.389807	-0.604304	0.801905	1
H	-0.068617	-1.251854	-1.103685	1
H	0.000313	-1.342404	0.676325	1
H	2.147413	1.839216	-0.270195	1
H	2.078093	0.239296	-1.045685	1
H	2.026813	0.704946	1.762395	1
Es	-0.252266	-0.037205	-0.141798	99
Es	-0.473497	1.525464	-1.319243	99
Es	-0.354130	1.787149	-1.262395	99
Es	-0.191288	-1.097895	-0.796807	99
Es	-0.107453	0.848851	-0.051394	99
Es	-2.293040	-0.676050	-0.689104	99
Es	1.961931	0.423673	-0.751825	99
Es	-0.310541	1.296553	-1.450059	99
Es	-0.168171	1.167724	1.275007	99
Es	-0.652317	1.326384	1.174151	99
Es	-2.245241	-0.741614	0.499309	99
Es	0.952896	0.827772	-0.126191	99
Es	-2.133558	-1.734047	-0.157136	99
Es	-0.470991	-0.840145	-0.173425	99
Es	2.322360	-0.054566	1.010863	99
Es	2.412488	0.237196	0.994839	99
Es	-0.149374	-1.157759	0.392537	99
Es	-0.370554	1.400277	1.201656	99
Es	-0.286718	1.316260	-0.860081	99
Es	-0.008319	0.882027	-0.106218	99
Es	-0.240104	1.661035	1.142066	99
Es	2.693156	0.323816	0.959706	99
Es	0.067587	0.928929	-0.026810	99
Es	-0.262448	1.233054	0.703729	99
Es	-0.741960	1.435318	-1.218782	99
Es	2.203829	0.495332	1.388983	99
Es	1.999578	1.504520	-0.237171	99
Es	2.133894	0.464201	0.561429	99
Es	0.041142	0.787442	-0.157552	99
Es	1.788062	0.811706	-0.160647	99
Es	-1.197842	-0.898864	-0.148652	99
Es	-0.034600	0.962698	-0.189185	99
Es	-1.975155	-1.016399	-0.123668	99
48
Properties=species:S:1:pos:R:3:Z:I:1 energy=-740.4758853297742 field_type=dipole dipole="0.000000 0.000000 0.000000" charge=0
C	-1.975257	-1.016404	-0.123665	6
C	-0.471007	-0.840284	-0.173425	6
S	-0.008347	0.882006	-0.106225	16
O	-0.473597	1.525596	-1.319475	8
O	-0.370657	1.400396	1.201945	8
C	1.788122	0.811816	-0.160865	6
O	2.412792	0.236936	0.994865	8
H	-2.235917	-2.078014	-0.171825	1
H	-2.460337	-0.506944	-0.962395	1
H	-2.389807	-0.604304	0.801905	1
H	-0.068617	-1.251854	-1.103685	1
H	0.000313	-1.342404	0.676325	1
H	2.147413	1.839216	-0.270195	1
H	2.078093	0.239296	-1.045685	1
H	2.026813	0.704946	1.762395	1
Es	-0.742738	1.431382	-1.230834	99
Es	-0.653561	1.336102	1.174045	99
Es	-2.245227	-0.741575	0.499232	99
Es	-0.191398	-1.097876	-0.796802	99
Es	-2.133597	-1.734011	-0.157026	99
Es	2.412534	0.237246	0.994828	99
Es	1.961950	0.423677	-0.751855	99
Es	-1.975156	-1.016399	-0.123668	99
Es	-0.071844	0.979370	-0.083284	99
Es	0.101783	0.896096	-0.064518	99
Es	-0.370569	1.400286	1.201696	99
Es	-0.470997	-0.840150	-0.173424	99
Es	-2.293079	-0.676116	-0.689133	99
Es	-0.473465	1.525440	-1.319174	99
Es	0.952917	0.827816	-0.126216	99
Es	-0.174569	1.160096	1.272164	99
Es	-1.197823	-0.898759	-0.148619	99
Es	-0.300251	1.295784	-1.441048	99
Es	-0.265237	1.235127	0.702711	99
Es	-0.149335	-1.157835	0.392512	99
Es	-0.229650	1.656909	1.145964	99
Es	-0.008348	0.882008	-0.106221	99
Es	2.324989	-0.055916	1.009430	99
Es	-0.004280	0.863924	-0.223718	99
Es	2.201585	0.493008	1.388918	99
Es	-0.058925	0.788532	-0.053387	99
Es	1.999516	1.504489	-0.237180	99
Es	-0.294895	1.319877	-0.855771	99
Es	-0.252150	-0.037267	-0.141774	99
Es	2.691964	0.326556	0.961562	99
Es	-0.355533	1.788192	-1.263751	99
Es	1.788062	0.811705	-0.160648	99
Es	2.134679	0.465118	0.561123	99
48
Properties=species:S:1:pos:R:3:Z:I:1 energy=-740.4758853297742 field_type=dipole dipole="0.000000 0.000000 0.000000" charge=0
C	-1.975257	-1.016404	-0.123665	6
C	-0.471007	-0.840284	-0.173425	6
S	-0.008347	0.882006	-0.106225	16
O	-0.473597	1.525596	-1.319475	8
O	-0.370657	1.400396	1.201945	8
C	1.788122	0.811816	-0.160865	6
O	2.412792	0.236936	0.994865	8
H	-2.235917	-2.078014	-0.171825	1
H	-2.460337	-0.506944	-0.962395	1
H	-2.389807	-0.604304	0.801905	1
H	-0.068617	-1.251854	-1.103685	1
H	0.000313	-1.342404	0.676325	1
H	2.147413	1.839216	-0.270195	1
H	2.078093	0.239296	-1.045685	1
H	2.026813	0.704946	1.762395	1
Es	-0.233224	1.657879	1.138032	99
Es	-2.245154	-0.741626	0.499218	99
Es	-0.741280	1.426912	-1.226024	99
Es	0.056997	0.852827	-0.201338	99
Es	1.788062	0.811706	-0.160648	99
Es	2.134952	0.465315	0.560611	99
Es	-1.197924	-0.898707	-0.148758	99
Es	-0.268229	1.230551	0.703406	99
Es	-0.473494	1.525458	-1.319228	99
Es	-0.149398	-1.157892	0.392507	99
Es	0.952909	0.827718	-0.126286	99
Es	-0.470996	-0.840154	-0.173422	99
Es	-0.168385	1.166430	1.272761	99
Es	-0.301440	1.300719	-1.446553	99
Es	-0.289378	1.317796	-0.858400	99
Es	-0.370579	1.400284	1.201740	99
Es	-2.293136	-0.676051	-0.689110	99
Es	-0.653159	1.333350	1.180650	99
Es	2.412507	0.237207	0.994854	99
Es	2.318989	-0.052916	1.011504	99
Es	-0.191356	-1.097834	-0.796691	99
Es	1.999489	1.504507	-0.237185	99
Es	2.695022	0.320743	0.960942	99
Es	-1.975157	-1.016398	-0.123669	99
Es	0.019766	0.811079	-0.017370	99
Es	-0.125630	0.870918	-0.131249	99
Es	-0.361296	1.789829	-1.260339	99
Es	-2.133586	-1.734055	-0.157021	99
Es	2.204287	0.495670	1.387967	99
Es	-0.008390	0.881921	-0.106186	99
Es	-0.252078	-0.037267	-0.141767	99
Es	1.961982	0.423710	-0.751823	99
Es	0.015657	0.993203	-0.074991	99
48
Properties=species:S:1:pos:R:3:Z:I:1 energy=-740.4758853297742 field_type=dipole dipole="0.000000 0.000000 0.000000" charge=0
C	-1.975257	-1.016404	-0.123665	6
C	-0.471007	-0.840284	-0.173425	6
S	-0.008347	0.882006	-0.106225	16
O	-0.473597	1.525596	-1.319475	8
O	-0.370657	1.400396	1.201945	8
C	1.788122	0.811816	-0.160865	6
O	2.412792	0.236936	0.994865	8
H	-2.235917	-2.078014	-0.171825	1
H	-2.460337	-0.506944	-0.962395	1
H	-2.389807	-0.604304	0.801905	1
H	-0.068617	-1.251854	-1.103685	1
H	0.000313	-1.342404	0.676325	1
H	2.147413	1.839216	-0.270195	1
H	2.078093	0.239296	-1.045685	1
H	2.026813	0.704946	1.762395	1
Es	-1.197897	-0.898822	-0.148788	99
Es	-0.107575	0.884229	-0.167654	99
Es	2.201769	0.493834	1.388476	99
Es	-2.245141	-0.741614	0.499191	99
Es	-0.370559	1.400253	1.201622	99
Es	-0.360604	1.790285	-1.267319	99
Es	-0.473502	1.525452	-1.319167	99
Es	-0.299185	1.295366	-1.439842	99
Es	-0.292532	1.323431	-0.855461	99
Es	-0.470990	-0.840142	-0.173424	99
Es	2.323777	-0.053921	1.010674	99
Es	-0.230657	1.657203	1.138183	99
Es	1.999454	1.504448	-0.237130	99
Es	1.788063	0.811703	-0.160646	99
Es	-0.654458	1.337186	1.174585	99
Es	2.693357	0.325022	0.961551	99
Es	1.961961	0.423787	-0.751907	99
Es	2.134314	0.463807	0.560288	99
Es	0.026389	0.994207	-0.083605	99
Es	-2.293222	-0.676134	-0.689094	99
Es	-0.264578	1.229231	0.705031	99
Es	-0.008396	0.882000	-0.106215	99
Es	0.075666	0.825000	-0.169410	99
Es	-0.741040	1.426169	-1.228764	99
Es	-2.133596	-1.734003	-0.156941	99
Es	0.952924	0.827778	-0.126263	99
Es	-1.975153	-1.016398	-0.123669	99
Es	-0.173326	1.164604	1.277160	99
Es	-0.027698	0.824540	-0.004240	99
Es	-0.252197	-0.037274	-0.141791	99
Es	2.412582	0.237201	0.994883	99
Es	-0.149305	-1.157781	0.392486	99
Es	-0.191292	-1.097813	-0.796667	99
