42
Properties=species:S:1:pos:R:3:Z:I:1 energy=-681.3039899303071 field_type=dipole dipole="0.000000 0.000000 0.000000" charge=0
C	-0.596522	-1.903870	0.287245	6
O	-1.353452	-0.736720	0.011235	8
C	-0.619182	0.392530	-0.125135	6
N	-1.348152	1.472790	-0.382285	7
S	-0.334792	2.775990	-0.524945	16
C	1.111148	1.906050	-0.241905	6
C	0.792798	0.579430	-0.033545	6
H	-1.292892	-2.743380	0.375475	1
H	-0.061292	-1.814150	1.238805	1
H	0.096008	-2.130600	-0.530655	1
H	2.078248	2.387650	-0.242205	1
H	1.528088	-0.185720	0.167915	1
Es	0.457824	2.344994	-0.378608	99
Es	0.905335	1.110180	-0.426437	99
Es	-1.690676	1.529655	-0.422517	99
Es	-0.449071	2.805394	-0.518093	99
Es	-0.304299	2.758555	-0.638024	99
Es	-0.596644	-1.903657	0.287196	99
Es	-1.353049	-0.736698	0.011327	99
Es	-0.316243	2.675221	-0.464275	99
Es	-0.334796	2.776017	-0.524885	99
Es	-1.455118	-0.755994	-0.258072	99
Es	-0.897163	2.005322	-0.436899	99
Es	-1.022687	-0.324126	-0.030009	99
Es	0.092490	0.425124	-0.068183	99
Es	-1.033904	-1.153414	0.116820	99
Es	-0.267084	2.854745	-0.972216	99
Es	1.111062	1.906178	-0.241936	99
Es	-0.115260	-2.050659	-0.268380	99
Es	-1.347564	1.472766	-0.382232	99
Es	-1.514903	-0.668021	0.242560	99
Es	0.792753	0.579407	-0.033546	99
Es	-0.340202	3.002219	-0.126143	99
Es	0.853808	1.216897	0.166566	99
Es	-0.619334	0.392334	-0.125122	99
Es	-0.222005	-1.835796	0.933002	99
Es	1.748920	2.228808	-0.242992	99
Es	-1.024286	1.136786	-0.013632	99
Es	1.276932	0.059880	0.101885	99
Es	-0.976587	1.040437	-0.552759	99
Es	-0.268968	2.862387	-0.478922	99
Es	-1.068271	-2.469856	0.346542	99
42
Properties=species:S:1:pos:R:3:Z:I:1 energy=-681.3039899303071 field_type=dipole dipole="0.000000 0.000000 0.000000" charge=0
C	-0.596522	-1.903870	0.287245	6
O	-1.353452	-0.736720	0.011235	8
C	-0.619182	0.392530	-0.125135	6
N	-1.348152	1.472790	-0.382285	7
S	-0.334792	2.775990	-0.524945	16
C	1.111148	1.906050	-0.241905	6
C	0.792798	0.579430	-0.033545	6
H	-1.292892	-2.743380	0.375475	1
H	-0.061292	-1.814150	1.238805	1
H	0.096008	-2.130600	-0.530655	1
H	2.078248	2.387650	-0.242205	1
H	1.528088	-0.185720	0.167915	1
Es	-1.023909	1.136050	-0.013430	99
Es	-1.347555	1.472748	-0.382226	99
Es	-0.596644	-1.903657	0.287196	99
Es	-0.976349	1.040528	-0.553070	99
Es	1.748960	2.228682	-0.243052	99
Es	-0.341841	3.005374	-0.127134	99
Es	-1.068237	-2.469898	0.346592	99
Es	-1.353018	-0.736691	0.011335	99
Es	1.111060	1.906179	-0.241938	99
Es	0.092685	0.425075	-0.067917	99
Es	-0.377856	2.770286	-0.419761	99
Es	-1.690048	1.529067	-0.422085	99
Es	-1.514567	-0.668643	0.242391	99
Es	-0.225012	2.728682	-0.522092	99
Es	-1.022701	-0.323674	-0.029424	99
Es	0.905921	1.111098	-0.426543	99
Es	0.457740	2.345174	-0.378282	99
Es	-0.221998	-1.835752	0.932952	99
Es	-0.897613	2.005996	-0.437322	99
Es	-0.619332	0.392332	-0.125115	99
Es	-0.115243	-2.050643	-0.268380	99
Es	-0.334779	2.775963	-0.524910	99
Es	-1.034107	-1.154521	0.115329	99
Es	-0.405050	2.712219	-0.597780	99
Es	1.276999	0.059898	0.101856	99
Es	0.852550	1.216034	0.166719	99
Es	-1.455364	-0.754758	-0.257020	99
Es	-0.330078	2.889819	-0.559500	99
Es	-0.266357	2.852708	-0.971827	99
Es	0.792753	0.579412	-0.033549	99
42
Properties=species:S:1:pos:R:3:Z:I:1 energy=-681.3039899303071 field_type=dipole dipole="0.000000 0.000000 0.000000" charge=0
C	-0.596522	-1.903870	0.287245	6
O	-1.353452	-0.736720	0.011235	8
C	-0.619182	0.392530	-0.125135	6
N	-1.348152	1.472790	-0.382285	7
S	-0.334792	2.775990	-0.524945	16
C	1.111148	1.906050	-0.241905	6
C	0.792798	0.579430	-0.033545	6
H	-1.292892	-2.743380	0.375475	1
H	-0.061292	-1.814150	1.238805	1
H	0.096008	-2.130600	-0.530655	1
H	2.078248	2.387650	-0.242205	1
H	1.528088	-0.185720	0.167915	1
Es	-1.690666	1.529063	-0.422328	99
Es	1.111060	1.906179	-0.241934	99
Es	-1.505421	-0.666664	0.246207	99
Es	0.092878	0.425055	-0.068090	99
Es	-0.342305	3.007070	-0.128011	99
Es	-1.347576	1.472750	-0.382240	99
Es	0.904833	1.110257	-0.426514	99
Es	-0.322707	2.751516	-0.640928	99
Es	-1.068193	-2.469908	0.346424	99
Es	-1.033553	-1.154282	0.113607	99
Es	-1.465155	-0.756358	-0.254885	99
Es	-0.334894	2.776024	-0.524550	99
Es	-0.279678	2.874996	-0.499789	99
Es	-0.115271	-2.050597	-0.268287	99
Es	-1.022671	-0.324185	-0.033523	99
Es	0.792754	0.579414	-0.033545	99
Es	-0.596643	-1.903653	0.287195	99
Es	0.853106	1.216785	0.166325	99
Es	-0.222003	-1.835861	0.933027	99
Es	-0.287295	2.686343	-0.461073	99
Es	0.457477	2.345386	-0.377276	99
Es	1.277002	0.059921	0.102044	99
Es	-0.897163	2.005705	-0.437674	99
Es	1.749059	2.228614	-0.242927	99
Es	-0.619334	0.392340	-0.125112	99
Es	-1.023385	1.136084	-0.013759	99
Es	-0.448452	2.787894	-0.497856	99
Es	-0.976137	1.040302	-0.551964	99
Es	-0.265620	2.851613	-0.971758	99
Es	-1.353037	-0.736719	0.011207	99
42
Properties=species:S:1:pos:R:3:Z:I:1 energy=-681.3039899303071 field_type=dipole dipole="0.000000 0.000000 0.000000" charge=0
C	-0.596522	-1.903870	0.287245	6
O	-1.353452	-0.736720	0.011235	8
C	-0.619182	0.392530	-0.125135	6
N	-1.348152	1.472790	-0.382285	7
S	-0.334792	2.775990	-0.524945	16
C	1.111148	1.906050	-0.241905	6
C	0.792798	0.579430	-0.033545	6
H	-1.292892	-2.743380	0.375475	1
H	-0.061292	-1.814150	1.238805	1
H	0.096008	-2.130600	-0.530655	1
H	2.078248	2.387650	-0.242205	1
H	1.528088	-0.185720	0.167915	1
Es	-0.259663	2.702311	-0.580770	99
Es	0.792756	0.579415	-0.033552	99
Es	-1.022601	-0.324156	-0.033564	99
Es	-0.619334	0.392339	-0.125115	99
Es	-1.033830	-1.154725	0.114308	99
Es	-0.266917	2.854519	-0.972022	99
Es	-1.463765	-0.756209	-0.254633	99
Es	0.457486	2.345358	-0.378207	99
Es	-0.897467	2.006130	-0.436890	99
Es	-0.115226	-2.050608	-0.268291	99
Es	-0.333023	2.776457	-0.525743	99
Es	-1.347582	1.472775	-0.382221	99
Es	-0.340931	3.004794	-0.127464	99
Es	1.277032	0.059842	0.101893	99
Es	0.852498	1.216322	0.166199	99
Es	-1.068217	-2.469943	0.346523	99
Es	-0.222031	-1.835797	0.932950	99
Es	-0.434946	2.721641	-0.512117	99
Es	0.092969	0.425246	-0.067571	99
Es	1.749127	2.228465	-0.242921	99
Es	-1.506677	-0.666466	0.245308	99
Es	-1.690424	1.528729	-0.422667	99
Es	0.904851	1.110660	-0.426551	99
Es	-1.023547	1.135551	-0.014005	99
Es	-0.291481	2.804641	-0.416213	99
Es	-0.596643	-1.903659	0.287196	99
Es	-0.353953	2.871716	-0.589085	99
Es	-1.352975	-0.736712	0.011146	99
Es	1.111062	1.906178	-0.241935	99
Es	-0.975535	1.040273	-0.551973	99
42
Properties=species:S:1:pos:R:3:Z:I:1 energy=-681.3039899303071 field_type=dipole dipole="0.000000 0.000000 0.000000" charge=0
C	-0.596522	-1.903870	0.287245	6
O	-1.353452	-0.736720	0.011235	8
C	-0.619182	0.392530	-0.125135	6
N	-1.348152	1.472790	-0.382285	7
S	-0.334792	2.775990	-0.524945	16
C	1.111148	1.906050	-0.241905	6
C	0.792798	0.579430	-0.033545	6
H	-1.292892	-2.743380	0.375475	1
H	-0.061292	-1.814150	1.238805	1
H	0.096008	-2.130600	-0.530655	1
H	2.078248	2.387650	-0.242205	1
H	1.528088	-0.185720	0.167915	1
Es	-0.265048	2.737021	-0.436986	99
Es	-1.505400	-0.666419	0.245145	99
Es	-0.318398	2.706315	-0.622705	99
Es	-0.446578	2.773113	-0.490146	99
Es	1.749219	2.228316	-0.242961	99
Es	-0.334207	2.776120	-0.524909	99
Es	-1.022986	1.136201	-0.014164	99
Es	-1.464928	-0.756042	-0.254691	99
Es	-1.353024	-0.736696	0.011290	99
Es	-0.115249	-2.050653	-0.268297	99
Es	-1.347573	1.472762	-0.382227	99
Es	-1.068179	-2.469904	0.346535	99
Es	0.792755	0.579421	-0.033543	99
Es	-0.265882	2.852180	-0.971660	99
Es	0.457184	2.345520	-0.377543	99
Es	-0.897618	2.006477	-0.437357	99
Es	-0.222024	-1.835821	0.932954	99
Es	-1.690328	1.528347	-0.422431	99
Es	-0.975599	1.039255	-0.551234	99
Es	-0.619334	0.392339	-0.125114	99
Es	0.851369	1.215624	0.166339	99
Es	-1.022658	-0.324101	-0.033305	99
Es	-1.033897	-1.154993	0.114161	99
Es	1.277124	0.059788	0.101806	99
Es	0.093121	0.425191	-0.068373	99
Es	1.111062	1.906178	-0.241936	99
Es	-0.308167	2.883839	-0.549326	99
Es	0.905410	1.111470	-0.425991	99
Es	-0.342514	3.007896	-0.128513	99
Es	-0.596643	-1.903658	0.287195	99
42
Properties=species:S:1:pos:R:3:Z:I:1 energy=-681.3039899303071 field_type=dipole dipole="0.000000 0.000000 0.000000" charge=0
C	-0.596522	-1.903870	0.287245	6
O	-1.353452	-0.736720	0.011235	8
C	-0.619182	0.392530	-0.125135	6
N	-1.348152	1.472790	-0.382285	7
S	-0.334792	2.775990	-0.524945	16
C	1.111148	1.906050	-0.241905	6
C	0.792798	0.579430	-0.033545	6
H	-1.292892	-2.743380	0.375475	1
H	-0.061292	-1.814150	1.238805	1
H	0.096008	-2.130600	-0.530655	1
H	2.078248	2.387650	-0.242205	1
H	1.528088	-0.185720	0.167915	1
Es	-0.596643	-1.903661	0.287197	99
Es	0.792756	0.579418	-0.033544	99
Es	-1.505030	-0.665846	0.245282	99
Es	0.852150	1.216392	0.165812	99
Es	-1.690218	1.528025	-0.422584	99
Es	-1.033920	-1.154838	0.114583	99
Es	-1.465400	-0.756503	-0.254373	99
Es	0.093143	0.425226	-0.067894	99
Es	-0.975137	1.039954	-0.551112	99
Es	-0.341563	3.006385	-0.128025	99
Es	1.111061	1.906176	-0.241937	99
Es	-1.353015	-0.736704	0.011301	99
Es	1.277169	0.059863	0.101960	99
Es	-0.396039	2.855261	-0.468859	99
Es	-1.022805	1.135075	-0.014077	99
Es	-0.335192	2.776217	-0.524457	99
Es	-0.215366	2.779180	-0.490535	99
Es	-0.222031	-1.835831	0.932902	99
Es	-1.068189	-2.469954	0.346545	99
Es	0.904167	1.110593	-0.426154	99
Es	1.749276	2.228266	-0.242917	99
Es	-1.022559	-0.324342	-0.034219	99
Es	-0.897707	2.006687	-0.437576	99
Es	-0.381556	2.671809	-0.502179	99
Es	-0.344591	2.794195	-0.638017	99
Es	0.457044	2.345539	-0.377759	99
Es	-0.115240	-2.050636	-0.268247	99
Es	-0.266635	2.854027	-0.971754	99
Es	-1.347585	1.472769	-0.382233	99
Es	-0.619334	0.392340	-0.125115	99
42
Properties=species:S:1:pos:R:3:Z:I:1 energy=-681.3039899303071 field_type=dipole dipole="0.000000 0.000000 0.000000" charge=0
C	-0.596522	-1.903870	0.287245	6
O	-1.353452	-0.736720	0.011235	8
C	-0.619182	0.392530	-0.125135	6
N	-1.348152	1.472790	-0.382285	7
S	-0.334792	2.775990	-0.524945	16
C	1.111148	1.906050	-0.241905	6
C	0.792798	0.579430	-0.033545	6
H	-1.292892	-2.743380	0.375475	1
H	-0.061292	-1.814150	1.238805	1
H	0.096008	-2.130600	-0.530655	1
H	2.078248	2.387650	-0.242205	1
H	1.528088	-0.185720	0.167915	1
Es	0.903912	1.110619	-0.426018	99
Es	-1.463431	-0.756175	-0.254226	99
Es	-0.974913	1.039195	-0.550765	99
Es	0.093148	0.425354	-0.067924	99
Es	-0.265007	2.849728	-0.971634	99
Es	-0.353933	2.879795	-0.575198	99
Es	-0.897787	2.006954	-0.437057	99
Es	1.749349	2.228167	-0.242847	99
Es	-1.022609	1.135287	-0.014185	99
Es	-1.347592	1.472769	-0.382233	99
Es	-0.319773	2.693170	-0.607823	99
Es	0.852117	1.216481	0.165465	99
Es	-0.427197	2.746219	-0.456249	99
Es	-0.334757	2.775896	-0.524906	99
Es	-1.022572	-0.324180	-0.033947	99
Es	-0.596643	-1.903661	0.287197	99
Es	-0.619333	0.392341	-0.125114	99
Es	-1.034206	-1.155340	0.115261	99
Es	1.111060	1.906176	-0.241938	99
Es	-0.344018	3.011299	-0.130280	99
Es	-1.068178	-2.470003	0.346523	99
Es	-0.222041	-1.835833	0.932879	99
Es	-1.690093	1.527875	-0.422649	99
Es	-1.506711	-0.665831	0.244251	99
Es	-1.353021	-0.736708	0.011233	99
Es	-0.115224	-2.050603	-0.268198	99
Es	1.277175	0.059816	0.102008	99
Es	-0.236277	2.781035	-0.459656	99
Es	0.792755	0.579413	-0.033545	99
Es	0.456813	2.345831	-0.376412	99
42
Properties=species:S:1:pos:R:3:Z:I:1 energy=-681.3039899303071 field_type=dipole dipole="0.000000 0.000000 0.000000" charge=0
C	-0.596522	-1.903870	0.287245	6
O	-1.353452	-0.736720	0.011235	8
C	-0.619182	0.392530	-0.125135	6
N	-1.348152	1.472790	-0.382285	7
S	-0.334792	2.775990	-0.524945	16
C	1.111148	1.906050	-0.241905	6
C	0.792798	0.579430	-0.033545	6
H	-1.292892	-2.743380	0.375475	1
H	-0.061292	-1.814150	1.238805	1
H	0.096008	-2.130600	-0.530655	1
H	2.078248	2.387650	-0.242205	1
H	1.528088	-0.185720	0.167915	1
Es	0.792755	0.579418	-0.033545	99
Es	-0.332187	2.780356	-0.523441	99
Es	-0.221998	-1.835886	0.932896	99
Es	-1.689998	1.527624	-0.422603	99
Es	0.903791	1.110806	-0.425781	99
Es	0.851582	1.216216	0.165474	99
Es	-1.463389	-0.755805	-0.253740	99
Es	0.456980	2.345557	-0.378590	99
Es	-1.506608	-0.666097	0.244166	99
Es	-0.619333	0.392342	-0.125117	99
Es	-1.022286	1.135169	-0.014286	99
Es	-0.897855	2.007021	-0.438010	99
Es	1.111061	1.906177	-0.241938	99
Es	-1.034233	-1.155693	0.114720	99
Es	-1.022675	-0.323927	-0.033856	99
Es	-0.283482	2.766428	-0.421386	99
Es	-1.068162	-2.469899	0.346553	99
Es	-1.347573	1.472765	-0.382230	99
Es	1.749458	2.228002	-0.242842	99
Es	-0.389018	2.677641	-0.542761	99
Es	-0.341360	3.004894	-0.127671	99
Es	1.277226	0.059760	0.101881	99
Es	-0.974766	1.039078	-0.550463	99
Es	-0.253120	2.787597	-0.608721	99
Es	-0.596642	-1.903663	0.287197	99
Es	-1.353095	-0.736702	0.011284	99
Es	0.093277	0.425401	-0.067828	99
Es	-0.267762	2.857399	-0.971455	99
Es	-0.115295	-2.050688	-0.268272	99
Es	-0.414279	2.863792	-0.527616	99
42
Properties=species:S:1:pos:R:3:Z:I:1 energy=-681.3039899303071 field_type=dipole dipole="0.000000 0.000000 0.000000" charge=0
C	-0.596522	-1.903870	0.287245	6
O	-1.353452	-0.736720	0.011235	8
C	-0.619182	0.392530	-0.125135	6
N	-1.348152	1.472790	-0.382285	7
S	-0.334792	2.775990	-0.524945	16
C	1.111148	1.906050	-0.241905	6
C	0.792798	0.579430	-0.033545	6
H	-1.292892	-2.743380	0.375475	1
H	-0.061292	-1.814150	1.238805	1
H	0.096008	-2.130600	-0.530655	1
H	2.078248	2.387650	-0.242205	1
H	1.528088	-0.185720	0.167915	1
Es	-1.034267	-1.156014	0.114516	99
Es	-1.462546	-0.755089	-0.254150	99
Es	-1.347562	1.472779	-0.382231	99
Es	-0.265605	2.853863	-0.971236	99
Es	-0.596641	-1.903665	0.287198	99
Es	-1.507298	-0.666914	0.243230	99
Es	0.851996	1.216624	0.165012	99
Es	-1.068159	-2.470018	0.346546	99
Es	-0.310235	2.824281	-0.419696	99
Es	-0.334692	2.775970	-0.525006	99
Es	0.903093	1.110303	-0.425758	99
Es	0.456679	2.345766	-0.377693	99
Es	-0.619334	0.392341	-0.125114	99
Es	-0.115287	-2.050617	-0.268174	99
Es	1.749465	2.227941	-0.242766	99
Es	-1.353047	-0.736702	0.011282	99
Es	-0.362329	2.859107	-0.603863	99
Es	1.277258	0.059796	0.102087	99
Es	-0.425469	2.700271	-0.513655	99
Es	-0.221985	-1.835840	0.932837	99
Es	-0.239692	2.716361	-0.561496	99
Es	-0.974625	1.038804	-0.550632	99
Es	-0.898039	2.007466	-0.437579	99
Es	0.792756	0.579414	-0.033549	99
Es	0.093316	0.425474	-0.067750	99
Es	-1.022895	-0.323506	-0.032311	99
Es	-0.343120	3.008488	-0.129263	99
Es	1.111060	1.906178	-0.241934	99
Es	-1.022003	1.134800	-0.014820	99
Es	-1.689783	1.527424	-0.422019	99
42
Properties=species:S:1:pos:R:3:Z:I:1 energy=-681.3039899303071 field_type=dipole dipole="0.000000 0.000000 0.000000" charge=0
C	-0.596522	-1.903870	0.287245	6
O	-1.353452	-0.736720	0.011235	8
C	-0.619182	0.392530	-0.125135	6
N	-1.348152	1.472790	-0.382285	7
S	-0.334792	2.775990	-0.524945	16
C	1.111148	1.906050	-0.241905	6
C	0.792798	0.579430	-0.033545	6
H	-1.292892	-2.743380	0.375475	1
H	-0.061292	-1.814150	1.238805	1
H	0.096008	-2.130600	-0.530655	1
H	2.078248	2.387650	-0.242205	1
H	1.528088	-0.185720	0.167915	1
Es	-0.596641	-1.903663	0.287197	99
Es	-0.301872	2.827691	-0.428797	99
Es	-1.506949	-0.666794	0.243304	99
Es	1.749568	2.227903	-0.242812	99
Es	-1.068140	-2.470037	0.346495	99
Es	-0.222036	-1.835865	0.932851	99
Es	-1.021691	1.134571	-0.014874	99
Es	0.093391	0.425513	-0.067499	99
Es	0.792753	0.579420	-0.033543	99
Es	-0.340672	3.002904	-0.127397	99
Es	0.902606	1.110256	-0.425683	99
Es	-0.334649	2.776092	-0.524814	99
Es	0.851893	1.216649	0.164619	99
Es	1.277456	0.059840	0.102048	99
Es	-0.237266	2.752595	-0.590611	99
Es	-1.034307	-1.155940	0.114627	99
Es	-1.689933	1.527158	-0.422314	99
Es	-0.115238	-2.050582	-0.268144	99
Es	-1.462960	-0.755237	-0.254095	99
Es	-0.619333	0.392342	-0.125132	99
Es	-0.974266	1.038882	-0.550103	99
Es	-1.022869	-0.323552	-0.032452	99
Es	-1.347569	1.472761	-0.382233	99
Es	1.111059	1.906177	-0.241935	99
Es	-0.898064	2.007487	-0.437988	99
Es	-1.353016	-0.736724	0.011222	99
Es	0.456695	2.345502	-0.378996	99
Es	-0.416539	2.843428	-0.585722	99
Es	-0.381507	2.675637	-0.493630	99
Es	-0.268894	2.860670	-0.971574	99
42
Properties=species:S:1:pos:R:3:Z:I:1 energy=-681.3039899303071 field_type=dipole dipole="0.000000 0.000000 0.000000" charge=0
C	-0.596522	-1.903870	0.287245	6
O	-1.353452	-0.736720	0.011235	8
C	-0.619182	0.392530	-0.125135	6
N	-1.348152	1.472790	-0.382285	7
S	-0.334792	2.775990	-0.524945	16
C	1.111148	1.906050	-0.241905	6
C	0.792798	0.579430	-0.033545	6
H	-1.292892	-2.743380	0.375475	1
H	-0.061292	-1.814150	1.238805	1
H	0.096008	-2.130600	-0.530655	1
H	2.078248	2.387650	-0.242205	1
H	1.528088	-0.185720	0.167915	1
Es	-0.115270	-2.050671	-0.268179	99
Es	1.749634	2.227721	-0.242849	99
Es	-0.240107	2.836355	-0.491759	99
Es	0.903491	1.111117	-0.425279	99
Es	0.792754	0.579418	-0.033544	99
Es	1.111057	1.906176	-0.241937	99
Es	0.093548	0.425372	-0.068302	99
Es	-1.068110	-2.469978	0.346583	99
Es	1.277324	0.059802	0.102077	99
Es	-1.462849	-0.755524	-0.253103	99
Es	-0.338719	2.999566	-0.125543	99
Es	0.456645	2.345321	-0.380646	99
Es	-0.898232	2.007768	-0.438815	99
Es	-1.022750	-0.323926	-0.034168	99
Es	-0.271377	2.864031	-0.971531	99
Es	0.850689	1.216079	0.165060	99
Es	-1.507003	-0.665699	0.243486	99
Es	-0.334672	2.775965	-0.525221	99
Es	-0.417780	2.787812	-0.444022	99
Es	-1.021249	1.134810	-0.014576	99
Es	-1.689560	1.526846	-0.422202	99
Es	-0.372699	2.814784	-0.630337	99
Es	-0.222019	-1.835892	0.932805	99
Es	-0.306313	2.661168	-0.532540	99
Es	-0.596642	-1.903662	0.287197	99
Es	-0.619334	0.392338	-0.125113	99
Es	-1.353043	-0.736738	0.011240	99
Es	-1.347569	1.472761	-0.382231	99
Es	-0.974298	1.038252	-0.549647	99
Es	-1.034537	-1.156286	0.115111	99
42
Properties=species:S:1:pos:R:3:Z:I:1 energy=-681.3039899303071 field_type=dipole dipole="0.000000 0.000000 0.000000" charge=0
C	-0.596522	-1.903870	0.287245	6
O	-1.353452	-0.736720	0.011235	8
C	-0.619182	0.392530	-0.125135	6
N	-1.348152	1.472790	-0.382285	7
S	-0.334792	2.775990	-0.524945	16
C	1.111148	1.906050	-0.241905	6
C	0.792798	0.579430	-0.033545	6
H	-1.292892	-2.743380	0.375475	1
H	-0.061292	-1.814150	1.238805	1
H	0.096008	-2.130600	-0.530655	1
H	2.078248	2.387650	-0.242205	1
H	1.528088	-0.185720	0.167915	1
Es	-0.596641	-1.903664	0.287198	99
Es	-0.339666	3.001515	-0.126457	99
Es	-1.068126	-2.470048	0.346566	99
Es	-0.377893	2.871967	-0.473183	99
Es	-1.510225	-0.667536	0.242257	99
Es	-0.216845	2.781755	-0.526245	99
Es	-0.619336	0.392337	-0.125105	99
Es	-0.973802	1.038724	-0.549700	99
Es	1.277340	0.059749	0.102081	99
Es	-0.270844	2.862595	-0.971252	99
Es	-0.898225	2.007853	-0.438139	99
Es	-0.334609	2.776378	-0.526545	99
Es	-1.021112	1.133874	-0.014800	99
Es	-1.689682	1.526831	-0.422223	99
Es	-1.034163	-1.156035	0.114804	99
Es	0.850132	1.215818	0.164923	99
Es	-0.115176	-2.050620	-0.268111	99
Es	1.749713	2.227619	-0.242772	99
Es	-1.353069	-0.736732	0.011256	99
Es	0.792759	0.579419	-0.033566	99
Es	1.111054	1.906176	-0.241930	99
Es	-0.370609	2.676351	-0.466411	99
Es	-1.347581	1.472773	-0.382233	99
Es	-1.023260	-0.323107	-0.031791	99
Es	-0.222102	-1.835864	0.932779	99
Es	0.903580	1.111488	-0.425245	99
Es	0.456566	2.345460	-0.380158	99
Es	-0.371321	2.769317	-0.631810	99
Es	-1.459493	-0.754783	-0.254001	99
Es	0.093646	0.425474	-0.068171	99
42
Properties=species:S:1:pos:R:3:Z:I:1 energy=-681.3039899303071 field_type=dipole dipole="0.000000 0.000000 0.000000" charge=0
C	-0.596522	-1.903870	0.287245	6
O	-1.353452	-0.736720	0.011235	8
C	-0.619182	0.392530	-0.125135	6
N	-1.348152	1.472790	-0.382285	7
S	-0.334792	2.775990	-0.524945	16
C	1.111148	1.906050	-0.241905	6
C	0.792798	0.579430	-0.033545	6
H	-1.292892	-2.743380	0.375475	1
H	-0.061292	-1.814150	1.238805	1
H	0.096008	-2.130600	-0.530655	1
H	2.078248	2.387650	-0.242205	1
H	1.528088	-0.185720	0.167915	1
Es	-1.068107	-2.470088	0.346583	99
Es	-1.020922	1.133645	-0.015025	99
Es	-0.596638	-1.903670	0.287198	99
Es	-1.034501	-1.156499	0.114695	99
Es	0.093637	0.425560	-0.067701	99
Es	-0.322245	2.708612	-0.618314	99
Es	1.749775	2.227528	-0.242735	99
Es	0.456437	2.345544	-0.379970	99
Es	-1.456520	-0.753905	-0.254061	99
Es	-0.619334	0.392339	-0.125115	99
Es	0.902264	1.110659	-0.425271	99
Es	-1.512954	-0.668023	0.241382	99
Es	-1.023217	-0.323096	-0.030801	99
Es	-0.222023	-1.835830	0.932752	99
Es	-0.973479	1.038700	-0.549478	99
Es	-0.339822	3.002734	-0.127254	99
Es	-0.271179	2.862360	-0.970837	99
Es	-0.375449	2.887047	-0.554467	99
Es	-1.347572	1.472763	-0.382227	99
Es	-1.353069	-0.736700	0.011297	99
Es	-0.408790	2.721512	-0.452322	99
Es	1.277433	0.059756	0.102015	99
Es	0.851081	1.216619	0.164420	99
Es	1.111058	1.906173	-0.241935	99
Es	-1.689643	1.526506	-0.422257	99
Es	-0.229536	2.781953	-0.473677	99
Es	-0.334777	2.775979	-0.524998	99
Es	0.792753	0.579424	-0.033521	99
Es	-0.898404	2.008089	-0.438273	99
Es	-0.115249	-2.050605	-0.268090	99
