43
Properties=species:S:1:pos:R:3:Z:I:1 energy=-661.4690237910766 field_type=dipole dipole="0.000000 0.000000 0.000000" charge=0
N	-2.038791	-0.532412	0.118158	7
C	-0.684101	-0.586942	0.081778	6
C	0.194779	0.473328	-0.028122	6
N	-0.195391	1.769048	-0.070712	7
C	1.551419	0.062328	-0.084422	6
C	1.672679	-1.307212	0.007568	6
S	0.151509	-2.078432	0.156368	16
H	-2.474831	0.262738	-0.339422	1
H	-2.532581	-1.401522	-0.058042	1
H	0.484899	2.504728	0.093228	1
H	-1.109871	2.003148	0.306048	1
H	2.400309	0.725818	-0.180092	1
H	2.579969	-1.894612	-0.002332	1
Es	0.947724	-1.705479	0.077484	99
Es	-0.195276	1.768848	-0.070077	99
Es	-2.315375	-1.049675	-0.013435	99
Es	1.608786	-0.608644	0.275618	99
Es	0.194738	0.473475	-0.028141	99
Es	-0.730561	1.893777	0.185299	99
Es	2.271616	-1.709386	0.003290	99
Es	-1.451668	-0.571602	0.042290	99
Es	0.151514	-2.078410	0.156329	99
Es	-0.019596	1.218807	0.014763	99
Es	0.085046	-2.006299	0.088166	99
Es	-2.276606	-0.069414	-0.182529	99
Es	0.079407	-2.283417	-0.257371	99
Es	1.574008	-0.652381	-0.349963	99
Es	0.265430	-2.059598	0.133600	99
Es	-2.035255	-0.474352	0.409900	99
Es	2.116959	0.520818	-0.148405	99
Es	-2.038631	-0.532496	0.117674	99
Es	0.131512	-2.053485	0.269252	99
Es	0.884411	0.315660	-0.060117	99
Es	1.672543	-1.307360	0.007591	99
Es	-0.238926	1.746655	-0.354480	99
Es	-0.188934	-0.108895	-0.291022	99
Es	0.217650	2.189183	0.057814	99
Es	0.125029	-2.191912	0.134249	99
Es	-0.684213	-0.587124	0.081808	99
Es	1.551419	0.062357	-0.084426	99
Es	-0.320513	-1.314157	0.119978	99
Es	-0.158585	-0.071103	0.342292	99
Es	0.136068	-2.199735	0.599915	99
43
Properties=species:S:1:pos:R:3:Z:I:1 energy=-661.4690237910766 field_type=dipole dipole="0.000000 0.000000 0.000000" charge=0
N	-2.038791	-0.532412	0.118158	7
C	-0.684101	-0.586942	0.081778	6
C	0.194779	0.473328	-0.028122	6
N	-0.195391	1.769048	-0.070712	7
C	1.551419	0.062328	-0.084422	6
C	1.672679	-1.307212	0.007568	6
S	0.151509	-2.078432	0.156368	16
H	-2.474831	0.262738	-0.339422	1
H	-2.532581	-1.401522	-0.058042	1
H	0.484899	2.504728	0.093228	1
H	-1.109871	2.003148	0.306048	1
H	2.400309	0.725818	-0.180092	1
H	2.579969	-1.894612	-0.002332	1
Es	1.672542	-1.307361	0.007574	99
Es	-2.038443	-0.532513	0.117486	99
Es	0.947470	-1.705414	0.077758	99
Es	1.608338	-0.608528	0.275610	99
Es	0.058814	-2.073154	0.223479	99
Es	0.151380	-2.078741	0.156021	99
Es	0.194735	0.473466	-0.028135	99
Es	0.135682	-2.201010	0.600005	99
Es	-0.195317	1.768947	-0.070297	99
Es	-0.320431	-1.314277	0.120258	99
Es	-2.315582	-1.049641	-0.013222	99
Es	2.271669	-1.709363	0.003078	99
Es	1.551422	0.062361	-0.084428	99
Es	-0.158478	-0.070941	0.341774	99
Es	-1.451957	-0.571712	0.041744	99
Es	-2.276684	-0.069219	-0.182311	99
Es	-0.238780	1.746117	-0.356074	99
Es	0.228597	-2.155609	0.203442	99
Es	0.200967	-1.968877	0.150392	99
Es	-0.684213	-0.587126	0.081804	99
Es	-2.034886	-0.474356	0.410173	99
Es	-0.019736	1.219504	0.016191	99
Es	0.884410	0.315665	-0.060107	99
Es	-0.188681	-0.108884	-0.290967	99
Es	0.118887	-2.113358	0.048295	99
Es	0.079802	-2.282555	-0.257718	99
Es	2.117006	0.520750	-0.148482	99
Es	-0.730398	1.893938	0.185358	99
Es	1.574132	-0.652273	-0.349536	99
Es	0.217452	2.188821	0.058182	99
43
Properties=species:S:1:pos:R:3:Z:I:1 energy=-661.4690237910766 field_type=dipole dipole="0.000000 0.000000 0.000000" charge=0
N	-2.038791	-0.532412	0.118158	7
C	-0.684101	-0.586942	0.081778	6
C	0.194779	0.473328	-0.028122	6
N	-0.195391	1.769048	-0.070712	7
C	1.551419	0.062328	-0.084422	6
C	1.672679	-1.307212	0.007568	6
S	0.151509	-2.078432	0.156368	16
H	-2.474831	0.262738	-0.339422	1
H	-2.532581	-1.401522	-0.058042	1
H	0.484899	2.504728	0.093228	1
H	-1.109871	2.003148	0.306048	1
H	2.400309	0.725818	-0.180092	1
H	2.579969	-1.894612	-0.002332	1
Es	1.551420	0.062361	-0.084428	99
Es	-2.035737	-0.473424	0.410810	99
Es	1.608123	-0.608510	0.275183	99
Es	1.573852	-0.652269	-0.349282	99
Es	-0.019763	1.219620	0.015991	99
Es	0.884335	0.315585	-0.059959	99
Es	-0.239341	1.746445	-0.356817	99
Es	-2.315561	-1.049580	-0.013152	99
Es	1.672542	-1.307359	0.007574	99
Es	-2.038462	-0.532511	0.117509	99
Es	0.043488	-2.123804	0.145852	99
Es	-0.188031	-0.108868	-0.290759	99
Es	2.117145	0.520776	-0.148444	99
Es	0.194737	0.473473	-0.028137	99
Es	0.223389	-2.123867	0.073001	99
Es	0.217469	2.188815	0.058413	99
Es	0.135666	-2.202027	0.599697	99
Es	-1.451840	-0.571733	0.042069	99
Es	-0.684210	-0.587127	0.081807	99
Es	-0.195277	1.768909	-0.070136	99
Es	-0.158631	-0.070661	0.341634	99
Es	0.150702	-2.077991	0.156002	99
Es	-0.729889	1.893583	0.185900	99
Es	0.947537	-1.705563	0.077731	99
Es	-2.275959	-0.070067	-0.183381	99
Es	0.080253	-2.282202	-0.257663	99
Es	2.271775	-1.709265	0.003195	99
Es	-0.320405	-1.314306	0.120261	99
Es	0.193162	-2.102263	0.262781	99
Es	0.147233	-1.961515	0.144094	99
43
Properties=species:S:1:pos:R:3:Z:I:1 energy=-661.4690237910766 field_type=dipole dipole="0.000000 0.000000 0.000000" charge=0
N	-2.038791	-0.532412	0.118158	7
C	-0.684101	-0.586942	0.081778	6
C	0.194779	0.473328	-0.028122	6
N	-0.195391	1.769048	-0.070712	7
C	1.551419	0.062328	-0.084422	6
C	1.672679	-1.307212	0.007568	6
S	0.151509	-2.078432	0.156368	16
H	-2.474831	0.262738	-0.339422	1
H	-2.532581	-1.401522	-0.058042	1
H	0.484899	2.504728	0.093228	1
H	-1.109871	2.003148	0.306048	1
H	2.400309	0.725818	-0.180092	1
H	2.579969	-1.894612	-0.002332	1
Es	0.131677	-2.190411	0.122338	99
Es	-0.729701	1.893589	0.186028	99
Es	-2.038509	-0.532506	0.117536	99
Es	2.271843	-1.709117	0.003125	99
Es	0.096215	-2.054641	0.258702	99
Es	-0.684205	-0.587119	0.081823	99
Es	-1.452041	-0.571704	0.041528	99
Es	-0.158137	-0.070635	0.341292	99
Es	1.551419	0.062363	-0.084429	99
Es	0.135420	-2.201182	0.599982	99
Es	-0.320246	-1.314467	0.119676	99
Es	-0.188124	-0.108545	-0.290404	99
Es	-0.239399	1.746218	-0.357953	99
Es	1.573742	-0.652246	-0.348954	99
Es	-0.195272	1.768827	-0.070055	99
Es	0.266399	-2.062128	0.170110	99
Es	-2.034913	-0.474135	0.410531	99
Es	0.884377	0.315477	-0.060198	99
Es	0.217302	2.188701	0.058493	99
Es	-2.315663	-1.049509	-0.013264	99
Es	0.079382	-2.283178	-0.257128	99
Es	2.117151	0.520848	-0.148460	99
Es	0.150594	-2.078740	0.155771	99
Es	-0.019815	1.220017	0.016891	99
Es	0.194740	0.473475	-0.028120	99
Es	0.947396	-1.705720	0.077637	99
Es	1.672544	-1.307355	0.007598	99
Es	1.607962	-0.608538	0.275063	99
Es	0.114055	-2.003645	0.074674	99
Es	-2.276474	-0.069343	-0.182485	99
43
Properties=species:S:1:pos:R:3:Z:I:1 energy=-661.4690237910766 field_type=dipole dipole="0.000000 0.000000 0.000000" charge=0
N	-2.038791	-0.532412	0.118158	7
C	-0.684101	-0.586942	0.081778	6
C	0.194779	0.473328	-0.028122	6
N	-0.195391	1.769048	-0.070712	7
C	1.551419	0.062328	-0.084422	6
C	1.672679	-1.307212	0.007568	6
S	0.151509	-2.078432	0.156368	16
H	-2.474831	0.262738	-0.339422	1
H	-2.532581	-1.401522	-0.058042	1
H	0.484899	2.504728	0.093228	1
H	-1.109871	2.003148	0.306048	1
H	2.400309	0.725818	-0.180092	1
H	2.579969	-1.894612	-0.002332	1
Es	1.573513	-0.652148	-0.348931	99
Es	1.672543	-1.307357	0.007594	99
Es	0.200839	-1.974067	0.182194	99
Es	-0.158475	-0.070322	0.340811	99
Es	-0.684213	-0.587125	0.081807	99
Es	-0.195269	1.768793	-0.069985	99
Es	0.151815	-2.078710	0.156234	99
Es	-0.239215	1.746070	-0.358153	99
Es	0.079977	-2.282636	-0.257474	99
Es	2.117287	0.520799	-0.148446	99
Es	1.607708	-0.608450	0.274659	99
Es	-0.187399	-0.108709	-0.290415	99
Es	0.947462	-1.705722	0.078082	99
Es	0.156103	-2.093070	0.040353	99
Es	-0.320275	-1.314471	0.120577	99
Es	2.271882	-1.709056	0.003291	99
Es	-2.276626	-0.069466	-0.182479	99
Es	0.039461	-2.076807	0.190225	99
Es	0.135385	-2.202290	0.599301	99
Es	-2.315304	-1.049565	-0.013532	99
Es	0.210075	-2.166845	0.212501	99
Es	-0.729791	1.893647	0.185815	99
Es	-2.038475	-0.532519	0.117553	99
Es	0.217311	2.188690	0.058587	99
Es	1.551419	0.062361	-0.084428	99
Es	0.194737	0.473471	-0.028138	99
Es	-1.452334	-0.571432	0.041095	99
Es	0.884380	0.315446	-0.059670	99
Es	-0.019971	1.220254	0.017100	99
Es	-2.034830	-0.474108	0.411217	99
43
Properties=species:S:1:pos:R:3:Z:I:1 energy=-661.4690237910766 field_type=dipole dipole="0.000000 0.000000 0.000000" charge=0
N	-2.038791	-0.532412	0.118158	7
C	-0.684101	-0.586942	0.081778	6
C	0.194779	0.473328	-0.028122	6
N	-0.195391	1.769048	-0.070712	7
C	1.551419	0.062328	-0.084422	6
C	1.672679	-1.307212	0.007568	6
S	0.151509	-2.078432	0.156368	16
H	-2.474831	0.262738	-0.339422	1
H	-2.532581	-1.401522	-0.058042	1
H	0.484899	2.504728	0.093228	1
H	-1.109871	2.003148	0.306048	1
H	2.400309	0.725818	-0.180092	1
H	2.579969	-1.894612	-0.002332	1
Es	-0.730256	1.893734	0.185061	99
Es	1.551420	0.062361	-0.084430	99
Es	0.194740	0.473476	-0.028135	99
Es	0.078948	-2.285114	-0.256470	99
Es	-2.038516	-0.532511	0.117537	99
Es	-2.034189	-0.474664	0.411549	99
Es	0.136587	-2.200361	0.599768	99
Es	0.217056	2.188323	0.059559	99
Es	-1.452705	-0.571454	0.040493	99
Es	-0.187270	-0.108604	-0.290121	99
Es	-0.320266	-1.314511	0.120048	99
Es	0.166040	-1.970324	0.113473	99
Es	-2.315292	-1.049445	-0.013901	99
Es	1.672543	-1.307354	0.007586	99
Es	-0.195268	1.768807	-0.070008	99
Es	1.607378	-0.608420	0.274585	99
Es	-0.238415	1.746136	-0.358813	99
Es	0.884274	0.315414	-0.060113	99
Es	2.117321	0.520773	-0.148493	99
Es	-0.684211	-0.587128	0.081810	99
Es	2.271961	-1.709004	0.003069	99
Es	1.573593	-0.652015	-0.348407	99
Es	-2.276909	-0.068961	-0.181817	99
Es	0.238734	-2.101849	0.232551	99
Es	0.947143	-1.705804	0.077096	99
Es	0.151358	-2.078533	0.156451	99
Es	0.045724	-2.084919	0.210487	99
Es	0.156565	-2.153587	0.068539	99
Es	-0.020102	1.220460	0.017623	99
Es	-0.158268	-0.070269	0.340770	99
43
Properties=species:S:1:pos:R:3:Z:I:1 energy=-661.4690237910766 field_type=dipole dipole="0.000000 0.000000 0.000000" charge=0
N	-2.038791	-0.532412	0.118158	7
C	-0.684101	-0.586942	0.081778	6
C	0.194779	0.473328	-0.028122	6
N	-0.195391	1.769048	-0.070712	7
C	1.551419	0.062328	-0.084422	6
C	1.672679	-1.307212	0.007568	6
S	0.151509	-2.078432	0.156368	16
H	-2.474831	0.262738	-0.339422	1
H	-2.532581	-1.401522	-0.058042	1
H	0.484899	2.504728	0.093228	1
H	-1.109871	2.003148	0.306048	1
H	2.400309	0.725818	-0.180092	1
H	2.579969	-1.894612	-0.002332	1
Es	-2.038517	-0.532532	0.117546	99
Es	-2.276752	-0.069180	-0.182170	99
Es	0.884308	0.315388	-0.060115	99
Es	1.551420	0.062359	-0.084427	99
Es	0.194739	0.473475	-0.028140	99
Es	-2.034085	-0.474176	0.411513	99
Es	0.237590	-2.005502	0.188946	99
Es	1.573147	-0.652060	-0.348306	99
Es	0.151808	-2.078609	0.156815	99
Es	1.672543	-1.307361	0.007587	99
Es	2.272061	-1.708885	0.003059	99
Es	-0.157820	-0.070300	0.340536	99
Es	-0.729564	1.893660	0.186231	99
Es	-0.020076	1.220769	0.017915	99
Es	-2.315500	-1.049499	-0.013432	99
Es	0.078808	-2.285251	-0.256316	99
Es	0.947318	-1.705856	0.077604	99
Es	0.188411	-2.188233	0.167559	99
Es	1.607445	-0.608433	0.274258	99
Es	-0.239640	1.745267	-0.358525	99
Es	-0.195272	1.768835	-0.070100	99
Es	0.217433	2.188951	0.057861	99
Es	-0.187152	-0.108401	-0.289819	99
Es	2.117378	0.520792	-0.148412	99
Es	0.123358	-2.055616	0.042022	99
Es	0.057613	-2.061184	0.225859	99
Es	-0.684207	-0.587122	0.081808	99
Es	-0.320249	-1.314608	0.120269	99
Es	0.135975	-2.200534	0.599385	99
Es	-1.452800	-0.571503	0.040337	99
43
Properties=species:S:1:pos:R:3:Z:I:1 energy=-661.4690237910766 field_type=dipole dipole="0.000000 0.000000 0.000000" charge=0
N	-2.038791	-0.532412	0.118158	7
C	-0.684101	-0.586942	0.081778	6
C	0.194779	0.473328	-0.028122	6
N	-0.195391	1.769048	-0.070712	7
C	1.551419	0.062328	-0.084422	6
C	1.672679	-1.307212	0.007568	6
S	0.151509	-2.078432	0.156368	16
H	-2.474831	0.262738	-0.339422	1
H	-2.532581	-1.401522	-0.058042	1
H	0.484899	2.504728	0.093228	1
H	-1.109871	2.003148	0.306048	1
H	2.400309	0.725818	-0.180092	1
H	2.579969	-1.894612	-0.002332	1
Es	0.077987	-2.287130	-0.255382	99
Es	1.606914	-0.608363	0.274101	99
Es	1.573189	-0.651932	-0.347954	99
Es	0.884327	0.315266	-0.060275	99
Es	0.151503	-2.078403	0.156364	99
Es	0.127364	-2.029405	0.049902	99
Es	-2.315348	-1.049468	-0.013442	99
Es	2.272157	-1.708808	0.003203	99
Es	-1.452777	-0.571396	0.040591	99
Es	0.194736	0.473470	-0.028146	99
Es	2.117508	0.520750	-0.148501	99
Es	0.177929	-2.192674	0.144292	99
Es	-2.034821	-0.473492	0.412272	99
Es	-0.729292	1.893508	0.186328	99
Es	0.217189	2.188655	0.058558	99
Es	-0.157427	-0.070317	0.340293	99
Es	1.672543	-1.307358	0.007588	99
Es	-0.684210	-0.587124	0.081804	99
Es	-0.239627	1.745319	-0.360059	99
Es	-2.276240	-0.069879	-0.183020	99
Es	0.947064	-1.705959	0.076518	99
Es	-0.195274	1.768808	-0.070053	99
Es	-0.320156	-1.314821	0.119281	99
Es	1.551419	0.062360	-0.084428	99
Es	0.058402	-2.067063	0.226842	99
Es	-2.038453	-0.532527	0.117438	99
Es	0.137333	-2.198790	0.599854	99
Es	-0.020058	1.221235	0.018646	99
Es	-0.187403	-0.108105	-0.289392	99
Es	0.243245	-2.021703	0.204127	99
43
Properties=species:S:1:pos:R:3:Z:I:1 energy=-661.4690237910766 field_type=dipole dipole="0.000000 0.000000 0.000000" charge=0
N	-2.038791	-0.532412	0.118158	7
C	-0.684101	-0.586942	0.081778	6
C	0.194779	0.473328	-0.028122	6
N	-0.195391	1.769048	-0.070712	7
C	1.551419	0.062328	-0.084422	6
C	1.672679	-1.307212	0.007568	6
S	0.151509	-2.078432	0.156368	16
H	-2.474831	0.262738	-0.339422	1
H	-2.532581	-1.401522	-0.058042	1
H	0.484899	2.504728	0.093228	1
H	-1.109871	2.003148	0.306048	1
H	2.400309	0.725818	-0.180092	1
H	2.579969	-1.894612	-0.002332	1
Es	0.151453	-2.078411	0.156409	99
Es	0.194737	0.473471	-0.028138	99
Es	-2.315609	-1.049464	-0.013311	99
Es	1.672543	-1.307353	0.007591	99
Es	0.221933	-2.123939	0.073110	99
Es	-0.195267	1.768819	-0.070072	99
Es	-0.728856	1.893387	0.186994	99
Es	-2.277046	-0.068879	-0.181721	99
Es	1.607042	-0.608406	0.273758	99
Es	0.218035	-2.033524	0.243279	99
Es	0.947086	-1.706008	0.077246	99
Es	-1.452851	-0.571368	0.039937	99
Es	-0.240352	1.745044	-0.359893	99
Es	-0.187101	-0.108057	-0.289412	99
Es	-0.320105	-1.314840	0.120117	99
Es	-2.033662	-0.474449	0.411390	99
Es	-0.020006	1.221291	0.018657	99
Es	0.086591	-1.991321	0.109604	99
Es	1.551420	0.062361	-0.084434	99
Es	-0.157391	-0.070133	0.339847	99
Es	0.884446	0.315255	-0.059822	99
Es	-2.038442	-0.532504	0.117522	99
Es	2.117513	0.520787	-0.148445	99
Es	0.080572	-2.161871	0.199257	99
Es	0.217320	2.188991	0.057708	99
Es	2.272184	-1.708708	0.003270	99
Es	0.079118	-2.285027	-0.256252	99
Es	0.135930	-2.201443	0.599430	99
Es	1.572693	-0.651929	-0.348079	99
Es	-0.684205	-0.587118	0.081801	99
43
Properties=species:S:1:pos:R:3:Z:I:1 energy=-661.4690237910766 field_type=dipole dipole="0.000000 0.000000 0.000000" charge=0
N	-2.038791	-0.532412	0.118158	7
C	-0.684101	-0.586942	0.081778	6
C	0.194779	0.473328	-0.028122	6
N	-0.195391	1.769048	-0.070712	7
C	1.551419	0.062328	-0.084422	6
C	1.672679	-1.307212	0.007568	6
S	0.151509	-2.078432	0.156368	16
H	-2.474831	0.262738	-0.339422	1
H	-2.532581	-1.401522	-0.058042	1
H	0.484899	2.504728	0.093228	1
H	-1.109871	2.003148	0.306048	1
H	2.400309	0.725818	-0.180092	1
H	2.579969	-1.894612	-0.002332	1
Es	0.884378	0.315141	-0.060143	99
Es	0.217312	2.188956	0.057839	99
Es	-2.033569	-0.473837	0.412234	99
Es	1.551420	0.062350	-0.084429	99
Es	0.126116	-2.028974	0.053481	99
Es	0.947072	-1.706022	0.077528	99
Es	-1.453263	-0.571331	0.039412	99
Es	0.078737	-2.285400	-0.256036	99
Es	0.264779	-2.104597	0.156933	99
Es	-0.187547	-0.107710	-0.288874	99
Es	-0.319871	-1.314886	0.119788	99
Es	-0.195273	1.768819	-0.070076	99
Es	0.194739	0.473475	-0.028133	99
Es	-0.020243	1.221699	0.019403	99
Es	2.272309	-1.708652	0.003252	99
Es	0.151480	-2.078602	0.156359	99
Es	0.087481	-2.178042	0.171719	99
Es	1.672547	-1.307349	0.007593	99
Es	-2.315482	-1.049534	-0.013232	99
Es	-0.156577	-0.070383	0.339599	99
Es	1.572445	-0.651830	-0.347795	99
Es	-0.728597	1.893344	0.187105	99
Es	1.606945	-0.608370	0.273360	99
Es	-2.276837	-0.069404	-0.182266	99
Es	0.129400	-1.998957	0.242975	99
Es	2.117625	0.520834	-0.148375	99
Es	-2.038549	-0.532517	0.117658	99
Es	-0.240498	1.744742	-0.360782	99
Es	-0.684213	-0.587125	0.081811	99
Es	0.135454	-2.201185	0.599440	99
43
Properties=species:S:1:pos:R:3:Z:I:1 energy=-661.4690237910766 field_type=dipole dipole="0.000000 0.000000 0.000000" charge=0
N	-2.038791	-0.532412	0.118158	7
C	-0.684101	-0.586942	0.081778	6
C	0.194779	0.473328	-0.028122	6
N	-0.195391	1.769048	-0.070712	7
C	1.551419	0.062328	-0.084422	6
C	1.672679	-1.307212	0.007568	6
S	0.151509	-2.078432	0.156368	16
H	-2.474831	0.262738	-0.339422	1
H	-2.532581	-1.401522	-0.058042	1
H	0.484899	2.504728	0.093228	1
H	-1.109871	2.003148	0.306048	1
H	2.400309	0.725818	-0.180092	1
H	2.579969	-1.894612	-0.002332	1
Es	0.217183	2.189035	0.057858	99
Es	-0.729350	1.893696	0.186105	99
Es	2.117685	0.520781	-0.148414	99
Es	0.134801	-2.204235	0.598587	99
Es	0.194740	0.473473	-0.028141	99
Es	-0.156967	-0.070118	0.339360	99
Es	0.151946	-2.188847	0.114208	99
Es	-0.195288	1.768891	-0.070123	99
Es	-0.239519	1.743646	-0.361009	99
Es	0.884424	0.315085	-0.060032	99
Es	1.551419	0.062357	-0.084428	99
Es	-0.020267	1.222348	0.020620	99
Es	2.272318	-1.708574	0.003100	99
Es	-2.038504	-0.532508	0.117551	99
Es	-2.276758	-0.069530	-0.182275	99
Es	1.672544	-1.307359	0.007592	99
Es	0.946949	-1.705963	0.078155	99
Es	1.606523	-0.608357	0.273388	99
Es	-0.320044	-1.314926	0.120380	99
Es	0.215223	-2.070658	0.256464	99
Es	0.151506	-2.078413	0.156378	99
Es	-1.453694	-0.571431	0.038421	99
Es	-0.186932	-0.107828	-0.288764	99
Es	0.080186	-2.283917	-0.256399	99
Es	-0.684212	-0.587124	0.081806	99
Es	-2.315749	-1.049452	-0.012944	99
Es	0.040220	-2.043314	0.176444	99
Es	1.572559	-0.651759	-0.347457	99
Es	0.199771	-2.006810	0.077903	99
Es	-2.032992	-0.473535	0.413012	99
43
Properties=species:S:1:pos:R:3:Z:I:1 energy=-661.4690237910766 field_type=dipole dipole="0.000000 0.000000 0.000000" charge=0
N	-2.038791	-0.532412	0.118158	7
C	-0.684101	-0.586942	0.081778	6
C	0.194779	0.473328	-0.028122	6
N	-0.195391	1.769048	-0.070712	7
C	1.551419	0.062328	-0.084422	6
C	1.672679	-1.307212	0.007568	6
S	0.151509	-2.078432	0.156368	16
H	-2.474831	0.262738	-0.339422	1
H	-2.532581	-1.401522	-0.058042	1
H	0.484899	2.504728	0.093228	1
H	-1.109871	2.003148	0.306048	1
H	2.400309	0.725818	-0.180092	1
H	2.579969	-1.894612	-0.002332	1
Es	0.215846	-2.013052	0.080509	99
Es	-0.186140	-0.107935	-0.288752	99
Es	-2.315695	-1.049517	-0.012691	99
Es	0.040216	-2.045833	0.148830	99
Es	0.884413	0.315094	-0.059968	99
Es	0.191790	-2.060696	0.269230	99
Es	-1.453822	-0.571493	0.038602	99
Es	1.672545	-1.307355	0.007601	99
Es	-2.276662	-0.069654	-0.182699	99
Es	2.272398	-1.708520	0.003104	99
Es	-0.684208	-0.587125	0.081807	99
Es	0.080288	-2.282782	-0.257148	99
Es	-2.033081	-0.473227	0.413018	99
Es	-0.157267	-0.069757	0.338943	99
Es	2.117748	0.520763	-0.148467	99
Es	1.572363	-0.651810	-0.347187	99
Es	-0.020412	1.222004	0.019707	99
Es	0.217180	2.188564	0.058550	99
Es	-0.729108	1.893532	0.186531	99
Es	-0.239736	1.744711	-0.361272	99
Es	0.194737	0.473474	-0.028140	99
Es	-0.195277	1.768824	-0.070057	99
Es	-0.319910	-1.314912	0.121189	99
Es	0.134904	-2.204894	0.598625	99
Es	0.158959	-2.190864	0.126748	99
Es	0.151557	-2.078386	0.156325	99
Es	1.551419	0.062359	-0.084430	99
Es	1.606325	-0.608380	0.273217	99
Es	0.946814	-1.705959	0.078083	99
Es	-2.038465	-0.532518	0.117536	99
43
Properties=species:S:1:pos:R:3:Z:I:1 energy=-661.4690237910766 field_type=dipole dipole="0.000000 0.000000 0.000000" charge=0
N	-2.038791	-0.532412	0.118158	7
C	-0.684101	-0.586942	0.081778	6
C	0.194779	0.473328	-0.028122	6
N	-0.195391	1.769048	-0.070712	7
C	1.551419	0.062328	-0.084422	6
C	1.672679	-1.307212	0.007568	6
S	0.151509	-2.078432	0.156368	16
H	-2.474831	0.262738	-0.339422	1
H	-2.532581	-1.401522	-0.058042	1
H	0.484899	2.504728	0.093228	1
H	-1.109871	2.003148	0.306048	1
H	2.400309	0.725818	-0.180092	1
H	2.579969	-1.894612	-0.002332	1
Es	-0.240117	1.744476	-0.362308	99
Es	-0.319842	-1.315155	0.119402	99
Es	1.572150	-0.651877	-0.346775	99
Es	0.200727	-2.013277	0.240840	99
Es	-2.315681	-1.049562	-0.012947	99
Es	-2.276657	-0.069542	-0.182499	99
Es	2.272488	-1.708388	0.003019	99
Es	0.080693	-2.153569	0.204873	99
Es	1.551423	0.062363	-0.084438	99
Es	0.946660	-1.706160	0.076868	99
Es	1.672545	-1.307357	0.007597	99
Es	-0.186498	-0.107520	-0.288268	99
Es	0.136058	-2.200983	0.599200	99
Es	-0.156477	-0.069776	0.338893	99
Es	-2.032768	-0.473367	0.413183	99
Es	-0.195275	1.768823	-0.070097	99
Es	0.236323	-2.137241	0.095730	99
Es	-0.020478	1.222375	0.020470	99
Es	0.217055	2.188540	0.058506	99
Es	0.884369	0.315164	-0.060162	99
Es	1.606180	-0.608544	0.272911	99
Es	-1.454014	-0.571370	0.038340	99
Es	0.090064	-2.005701	0.083703	99
Es	-2.038616	-0.532489	0.117711	99
Es	-0.728638	1.893442	0.186904	99
Es	0.151490	-2.078424	0.156352	99
Es	2.117906	0.520645	-0.148430	99
Es	-0.684212	-0.587123	0.081812	99
Es	0.078127	-2.287223	-0.254902	99
Es	0.194738	0.473473	-0.028143	99
43
Properties=species:S:1:pos:R:3:Z:I:1 energy=-661.4690237910766 field_type=dipole dipole="0.000000 0.000000 0.000000" charge=0
N	-2.038791	-0.532412	0.118158	7
C	-0.684101	-0.586942	0.081778	6
C	0.194779	0.473328	-0.028122	6
N	-0.195391	1.769048	-0.070712	7
C	1.551419	0.062328	-0.084422	6
C	1.672679	-1.307212	0.007568	6
S	0.151509	-2.078432	0.156368	16
H	-2.474831	0.262738	-0.339422	1
H	-2.532581	-1.401522	-0.058042	1
H	0.484899	2.504728	0.093228	1
H	-1.109871	2.003148	0.306048	1
H	2.400309	0.725818	-0.180092	1
H	2.579969	-1.894612	-0.002332	1
Es	-1.453804	-0.571161	0.038824	99
Es	0.080839	-2.280177	-0.257708	99
Es	0.217123	2.188557	0.058457	99
Es	-0.195270	1.768770	-0.070031	99
Es	0.151533	-2.078424	0.156443	99
Es	0.884310	0.315083	-0.059712	99
Es	-0.319694	-1.315048	0.121129	99
Es	-2.038493	-0.532507	0.117565	99
Es	1.551421	0.062361	-0.084425	99
Es	0.167856	-1.960989	0.147506	99
Es	0.946833	-1.706076	0.079128	99
Es	-0.020408	1.222232	0.019809	99
Es	-0.684212	-0.587128	0.081809	99
Es	1.605985	-0.608465	0.272582	99
Es	0.133207	-2.208000	0.598041	99
Es	0.194736	0.473466	-0.028137	99
Es	-0.185541	-0.107814	-0.288473	99
Es	-2.276463	-0.069793	-0.182821	99
Es	2.272552	-1.708336	0.003109	99
Es	-2.315606	-1.049604	-0.012966	99
Es	0.242047	-2.133119	0.106287	99
Es	-0.728279	1.893152	0.187510	99
Es	1.672544	-1.307356	0.007599	99
Es	-0.157092	-0.069523	0.338454	99
Es	-2.033346	-0.473115	0.413169	99
Es	0.146427	-2.107431	0.270933	99
Es	0.051173	-2.108855	0.100694	99
Es	-0.240641	1.744956	-0.362265	99
Es	2.117957	0.520702	-0.148522	99
Es	1.572025	-0.651706	-0.346644	99
43
Properties=species:S:1:pos:R:3:Z:I:1 energy=-661.4690237910766 field_type=dipole dipole="0.000000 0.000000 0.000000" charge=0
N	-2.038791	-0.532412	0.118158	7
C	-0.684101	-0.586942	0.081778	6
C	0.194779	0.473328	-0.028122	6
N	-0.195391	1.769048	-0.070712	7
C	1.551419	0.062328	-0.084422	6
C	1.672679	-1.307212	0.007568	6
S	0.151509	-2.078432	0.156368	16
H	-2.474831	0.262738	-0.339422	1
H	-2.532581	-1.401522	-0.058042	1
H	0.484899	2.504728	0.093228	1
H	-1.109871	2.003148	0.306048	1
H	2.400309	0.725818	-0.180092	1
H	2.579969	-1.894612	-0.002332	1
Es	0.149881	-2.157633	0.243793	99
Es	-0.185943	-0.107506	-0.287976	99
Es	1.571977	-0.651697	-0.346295	99
Es	-0.319894	-1.315209	0.119956	99
Es	2.272638	-1.708291	0.003120	99
Es	-2.316177	-1.049600	-0.012039	99
Es	2.118086	0.520676	-0.148386	99
Es	0.151507	-2.078430	0.156389	99
Es	0.120324	-2.127386	0.056032	99
Es	-0.728483	1.893198	0.187326	99
Es	0.946660	-1.706224	0.076987	99
Es	-0.195275	1.768767	-0.070076	99
Es	-2.276374	-0.070030	-0.183001	99
Es	0.075478	-1.990507	0.180807	99
Es	-2.032079	-0.472405	0.414050	99
Es	0.262139	-2.033961	0.144122	99
Es	-0.020378	1.221948	0.019328	99
Es	-0.684210	-0.587126	0.081807	99
Es	-1.454587	-0.571553	0.037121	99
Es	-0.240538	1.745157	-0.361463	99
Es	0.217200	2.188646	0.058364	99
Es	-0.156466	-0.069612	0.338429	99
Es	0.884299	0.314941	-0.060226	99
Es	1.551419	0.062356	-0.084424	99
Es	1.605659	-0.608439	0.272406	99
Es	0.135457	-2.202448	0.598761	99
Es	0.078627	-2.286593	-0.254599	99
Es	1.672543	-1.307357	0.007597	99
Es	0.194734	0.473468	-0.028147	99
Es	-2.038505	-0.532494	0.117585	99
43
Properties=species:S:1:pos:R:3:Z:I:1 energy=-661.4690237910766 field_type=dipole dipole="0.000000 0.000000 0.000000" charge=0
N	-2.038791	-0.532412	0.118158	7
C	-0.684101	-0.586942	0.081778	6
C	0.194779	0.473328	-0.028122	6
N	-0.195391	1.769048	-0.070712	7
C	1.551419	0.062328	-0.084422	6
C	1.672679	-1.307212	0.007568	6
S	0.151509	-2.078432	0.156368	16
H	-2.474831	0.262738	-0.339422	1
H	-2.532581	-1.401522	-0.058042	1
H	0.484899	2.504728	0.093228	1
H	-1.109871	2.003148	0.306048	1
H	2.400309	0.725818	-0.180092	1
H	2.579969	-1.894612	-0.002332	1
Es	0.176938	-2.144747	0.063221	99
Es	0.077919	-1.988331	0.123582	99
Es	-2.038379	-0.532506	0.117509	99
Es	2.118138	0.520661	-0.148508	99
Es	2.272681	-1.708158	0.003086	99
Es	-0.319852	-1.315432	0.118239	99
Es	-0.240763	1.744161	-0.364282	99
Es	0.946328	-1.706461	0.074652	99
Es	0.098694	-2.141793	0.232700	99
Es	1.571894	-0.651704	-0.345982	99
Es	-0.186081	-0.107334	-0.287609	99
Es	0.151503	-2.078376	0.156368	99
Es	-1.454487	-0.571125	0.037397	99
Es	0.216950	2.188375	0.058638	99
Es	0.139356	-2.194084	0.599763	99
Es	0.075493	-2.294608	-0.251799	99
Es	-2.031858	-0.473534	0.413173	99
Es	1.672538	-1.307361	0.007589	99
Es	-0.156068	-0.069660	0.338276	99
Es	-2.277245	-0.069154	-0.181956	99
Es	-0.727872	1.893099	0.187842	99
Es	-2.315773	-1.049694	-0.012403	99
Es	0.253860	-2.034954	0.205333	99
Es	0.194737	0.473478	-0.028142	99
Es	-0.020541	1.223376	0.021511	99
Es	1.551419	0.062358	-0.084425	99
Es	-0.684214	-0.587123	0.081806	99
Es	0.884298	0.314903	-0.060365	99
Es	-0.195300	1.768739	-0.070204	99
Es	1.605409	-0.608355	0.272337	99
43
Properties=species:S:1:pos:R:3:Z:I:1 energy=-661.4690237910766 field_type=dipole dipole="0.000000 0.000000 0.000000" charge=0
N	-2.038791	-0.532412	0.118158	7
C	-0.684101	-0.586942	0.081778	6
C	0.194779	0.473328	-0.028122	6
N	-0.195391	1.769048	-0.070712	7
C	1.551419	0.062328	-0.084422	6
C	1.672679	-1.307212	0.007568	6
S	0.151509	-2.078432	0.156368	16
H	-2.474831	0.262738	-0.339422	1
H	-2.532581	-1.401522	-0.058042	1
H	0.484899	2.504728	0.093228	1
H	-1.109871	2.003148	0.306048	1
H	2.400309	0.725818	-0.180092	1
H	2.579969	-1.894612	-0.002332	1
Es	1.551420	0.062357	-0.084427	99
Es	0.151568	-2.078360	0.156371	99
Es	-2.038504	-0.532506	0.117557	99
Es	0.157337	-2.046406	0.264476	99
Es	-2.276477	-0.069941	-0.182793	99
Es	0.217040	2.188541	0.058442	99
Es	-0.319673	-1.315293	0.120510	99
Es	-2.032676	-0.472783	0.414024	99
Es	1.672544	-1.307361	0.007602	99
Es	-0.195283	1.768844	-0.070117	99
Es	2.272736	-1.708109	0.003072	99
Es	0.946651	-1.706237	0.078224	99
Es	0.194738	0.473471	-0.028141	99
Es	-0.728073	1.893130	0.187672	99
Es	0.079348	-2.284602	-0.255578	99
Es	0.124252	-1.979799	0.092410	99
Es	0.884339	0.314889	-0.060006	99
Es	0.067937	-2.161117	0.143887	99
Es	0.259034	-2.121928	0.124632	99
Es	1.571571	-0.651716	-0.346003	99
Es	-1.454349	-0.571106	0.037701	99
Es	-0.020537	1.223064	0.021090	99
Es	-0.185223	-0.107463	-0.287659	99
Es	-2.315734	-1.049590	-0.012778	99
Es	-0.240737	1.744162	-0.363605	99
Es	2.118164	0.520666	-0.148457	99
Es	-0.156621	-0.069305	0.337902	99
Es	0.133640	-2.205228	0.597533	99
Es	1.605488	-0.608498	0.271988	99
Es	-0.684201	-0.587121	0.081819	99
43
Properties=species:S:1:pos:R:3:Z:I:1 energy=-661.4690237910766 field_type=dipole dipole="0.000000 0.000000 0.000000" charge=0
N	-2.038791	-0.532412	0.118158	7
C	-0.684101	-0.586942	0.081778	6
C	0.194779	0.473328	-0.028122	6
N	-0.195391	1.769048	-0.070712	7
C	1.551419	0.062328	-0.084422	6
C	1.672679	-1.307212	0.007568	6
S	0.151509	-2.078432	0.156368	16
H	-2.474831	0.262738	-0.339422	1
H	-2.532581	-1.401522	-0.058042	1
H	0.484899	2.504728	0.093228	1
H	-1.109871	2.003148	0.306048	1
H	2.400309	0.725818	-0.180092	1
H	2.579969	-1.894612	-0.002332	1
Es	-2.032125	-0.473426	0.412529	99
Es	0.946371	-1.706444	0.075534	99
Es	0.194735	0.473471	-0.028156	99
Es	-0.195293	1.768857	-0.070096	99
Es	0.186770	-1.965693	0.140592	99
Es	-2.316040	-1.049717	-0.012349	99
Es	2.118202	0.520634	-0.148566	99
Es	-0.020668	1.223117	0.021203	99
Es	0.138111	-2.197433	0.599148	99
Es	-0.240708	1.744152	-0.363779	99
Es	-1.454244	-0.571007	0.037793	99
Es	-0.154781	-0.069939	0.337998	99
Es	-0.684209	-0.587124	0.081807	99
Es	0.151521	-2.078396	0.156389	99
Es	1.672542	-1.307356	0.007590	99
Es	0.217017	2.188513	0.058540	99
Es	0.036235	-2.080616	0.183693	99
Es	0.169938	-2.137111	0.056735	99
Es	1.551419	0.062358	-0.084431	99
Es	2.272767	-1.708055	0.002953	99
Es	0.214157	-2.125889	0.243759	99
Es	0.076815	-2.292271	-0.252514	99
Es	1.571771	-0.651656	-0.345550	99
Es	-0.186697	-0.106787	-0.287112	99
Es	-2.277017	-0.069213	-0.181955	99
Es	1.604988	-0.608367	0.272154	99
Es	-0.319742	-1.315511	0.118661	99
Es	-0.728029	1.893138	0.187625	99
Es	-2.038314	-0.532459	0.117677	99
Es	0.884227	0.314886	-0.060526	99
43
Properties=species:S:1:pos:R:3:Z:I:1 energy=-661.4690237910766 field_type=dipole dipole="0.000000 0.000000 0.000000" charge=0
N	-2.038791	-0.532412	0.118158	7
C	-0.684101	-0.586942	0.081778	6
C	0.194779	0.473328	-0.028122	6
N	-0.195391	1.769048	-0.070712	7
C	1.551419	0.062328	-0.084422	6
C	1.672679	-1.307212	0.007568	6
S	0.151509	-2.078432	0.156368	16
H	-2.474831	0.262738	-0.339422	1
H	-2.532581	-1.401522	-0.058042	1
H	0.484899	2.504728	0.093228	1
H	-1.109871	2.003148	0.306048	1
H	2.400309	0.725818	-0.180092	1
H	2.579969	-1.894612	-0.002332	1
Es	1.672539	-1.307354	0.007600	99
Es	-0.195271	1.768784	-0.070082	99
Es	-0.240682	1.742399	-0.364396	99
Es	-0.319787	-1.315576	0.118497	99
Es	0.138600	-2.195423	0.598849	99
Es	-0.020748	1.224220	0.023109	99
Es	0.884177	0.314818	-0.060215	99
Es	-2.276856	-0.069490	-0.182163	99
Es	-1.454831	-0.571109	0.036707	99
Es	0.034840	-2.073415	0.150639	99
Es	-2.031745	-0.473183	0.414404	99
Es	-2.038548	-0.532502	0.117597	99
Es	1.604728	-0.608408	0.271778	99
Es	0.184258	-2.185744	0.132416	99
Es	-0.185236	-0.107282	-0.287220	99
Es	2.272918	-1.707979	0.002959	99
Es	0.076064	-2.294330	-0.252130	99
Es	0.217078	2.189006	0.057465	99
Es	-0.728122	1.893395	0.187440	99
Es	-2.315770	-1.049494	-0.012877	99
Es	-0.155925	-0.069293	0.337614	99
Es	0.188719	-2.047473	0.266219	99
Es	0.199238	-2.002936	0.076178	99
Es	0.151939	-2.078226	0.156359	99
Es	1.551418	0.062356	-0.084431	99
Es	0.194735	0.473468	-0.028137	99
Es	0.946254	-1.706434	0.075183	99
Es	1.571640	-0.651669	-0.345228	99
Es	2.118309	0.520658	-0.148584	99
Es	-0.684210	-0.587126	0.081796	99
43
Properties=species:S:1:pos:R:3:Z:I:1 energy=-661.4690237910766 field_type=dipole dipole="0.000000 0.000000 0.000000" charge=0
N	-2.038791	-0.532412	0.118158	7
C	-0.684101	-0.586942	0.081778	6
C	0.194779	0.473328	-0.028122	6
N	-0.195391	1.769048	-0.070712	7
C	1.551419	0.062328	-0.084422	6
C	1.672679	-1.307212	0.007568	6
S	0.151509	-2.078432	0.156368	16
H	-2.474831	0.262738	-0.339422	1
H	-2.532581	-1.401522	-0.058042	1
H	0.484899	2.504728	0.093228	1
H	-1.109871	2.003148	0.306048	1
H	2.400309	0.725818	-0.180092	1
H	2.579969	-1.894612	-0.002332	1
Es	0.255656	-2.131989	0.148805	99
Es	1.551419	0.062356	-0.084429	99
Es	1.672542	-1.307356	0.007590	99
Es	0.165515	-1.976855	0.213203	99
Es	-0.195266	1.768675	-0.070063	99
Es	-0.319487	-1.315387	0.121001	99
Es	0.076686	-2.147195	0.215749	99
Es	-0.185159	-0.106984	-0.287047	99
Es	0.111323	-2.053216	0.047165	99
Es	-0.684206	-0.587123	0.081815	99
Es	1.570942	-0.651711	-0.345428	99
Es	-2.031342	-0.472992	0.414237	99
Es	-0.241369	1.743775	-0.365326	99
Es	0.194737	0.473468	-0.028140	99
Es	-0.020621	1.223984	0.022242	99
Es	0.216879	2.188497	0.058277	99
Es	0.884311	0.314786	-0.060030	99
Es	1.605074	-0.608587	0.271379	99
Es	0.151493	-2.078454	0.156250	99
Es	2.118347	0.520642	-0.148450	99
Es	2.272973	-1.707866	0.003060	99
Es	-2.276978	-0.069481	-0.182129	99
Es	0.946623	-1.706392	0.078396	99
Es	-1.455021	-0.571145	0.036345	99
Es	0.079368	-2.282998	-0.255319	99
Es	-0.155775	-0.069276	0.337202	99
Es	-2.038438	-0.532499	0.117560	99
Es	-0.727377	1.892872	0.188456	99
Es	-2.315996	-1.049594	-0.012344	99
Es	0.132866	-2.207302	0.597320	99
