37
Properties=species:S:1:pos:R:3:Z:I:1 energy=-715.8189355850316 field_type=dipole dipole="0.000000 0.000000 0.000000" charge=0
O	-1.899877	0.129297	0.523835	8
S	-0.487517	0.039667	0.786315	16
O	0.209842	-0.604192	1.868375	8
C	0.126583	-0.804643	-0.637765	6
C	0.543763	-1.382602	-1.607095	6
C	0.099953	1.714177	0.778015	6
N	0.498123	2.809587	0.750805	7
H	0.909133	-1.901292	-2.462485	1
Es	-2.048819	0.279604	0.690370	99
Es	0.180520	2.323935	0.487311	99
Es	0.777307	-1.715937	-2.154811	99
Es	0.096028	-0.834386	1.698610	99
Es	0.132498	2.315682	1.017645	99
Es	-0.506788	-0.047792	0.708407	99
Es	-0.142194	-0.332308	1.579966	99
Es	-1.829190	-0.166163	0.475762	99
Es	0.099780	1.713726	0.778029	99
Es	-0.117620	-0.394193	-0.030622	99
Es	0.497960	2.809141	0.750812	99
Es	0.209731	-0.604065	1.868156	99
Es	0.126443	-0.804432	-0.637428	99
Es	0.618391	3.147161	0.745846	99
Es	0.661978	-1.026940	-0.988711	99
Es	0.187329	-0.500038	2.114800	99
Es	0.597065	2.183636	0.788460	99
Es	-0.487506	0.039597	0.786293	99
Es	0.162513	-0.842433	-1.311643	99
Es	-1.899479	0.129247	0.523962	99
Es	0.379190	-0.444620	1.601458	99
Es	-0.552880	0.021261	0.883280	99
Es	0.543818	-1.382715	-1.607242	99
Es	-0.135850	1.005894	0.762017	99
Es	-1.660988	0.261089	0.301762	99
Es	0.130403	-1.340684	-0.949300	99
Es	-1.423217	0.115549	0.758246	99
Es	-0.517129	0.144452	0.737236	99
Es	-0.372870	0.041177	0.815900	99
37
Properties=species:S:1:pos:R:3:Z:I:1 energy=-715.8189355850316 field_type=dipole dipole="0.000000 0.000000 0.000000" charge=0
O	-1.899877	0.129297	0.523835	8
S	-0.487517	0.039667	0.786315	16
O	0.209842	-0.604192	1.868375	8
C	0.126583	-0.804643	-0.637765	6
C	0.543763	-1.382602	-1.607095	6
C	0.099953	1.714177	0.778015	6
N	0.498123	2.809587	0.750805	7
H	0.909133	-1.901292	-2.462485	1
Es	-0.390703	-0.002108	0.839432	99
Es	0.777222	-1.716005	-2.154802	99
Es	-1.899479	0.129313	0.523954	99
Es	-0.150026	-0.336370	1.592686	99
Es	-0.117681	-0.394172	-0.030680	99
Es	-2.048167	0.274347	0.697995	99
Es	0.101308	-0.831612	1.691663	99
Es	-1.661575	0.270841	0.308229	99
Es	0.099800	1.713726	0.778022	99
Es	-0.541669	-0.048652	0.727298	99
Es	0.198675	-0.508821	2.117047	99
Es	0.179320	2.324738	0.487044	99
Es	-1.831307	-0.160792	0.463307	99
Es	0.370395	-0.434556	1.593406	99
Es	-0.135835	1.005857	0.761876	99
Es	0.497956	2.809128	0.750815	99
Es	0.543819	-1.382705	-1.607241	99
Es	-0.456007	0.124631	0.710049	99
Es	-0.561248	0.085191	0.868056	99
Es	0.126442	-0.804424	-0.637429	99
Es	0.209723	-0.604075	1.868181	99
Es	0.135594	-1.342336	-0.945956	99
Es	0.618828	3.146865	0.746410	99
Es	0.157845	-0.845829	-1.312633	99
Es	0.661609	-1.021883	-0.991000	99
Es	-1.421182	0.105633	0.756622	99
Es	0.596728	2.183606	0.787624	99
Es	0.133573	2.315247	1.018294	99
Es	-0.487537	0.039659	0.786298	99
37
Properties=species:S:1:pos:R:3:Z:I:1 energy=-715.8189355850316 field_type=dipole dipole="0.000000 0.000000 0.000000" charge=0
O	-1.899877	0.129297	0.523835	8
S	-0.487517	0.039667	0.786315	16
O	0.209842	-0.604192	1.868375	8
C	0.126583	-0.804643	-0.637765	6
C	0.543763	-1.382602	-1.607095	6
C	0.099953	1.714177	0.778015	6
N	0.498123	2.809587	0.750805	7
H	0.909133	-1.901292	-2.462485	1
Es	-1.899498	0.129313	0.523938	99
Es	-1.813474	-0.161875	0.468048	99
Es	-2.067147	0.271112	0.676272	99
Es	-0.136079	1.005958	0.761901	99
Es	-0.460209	0.107516	0.691617	99
Es	0.091481	-0.829139	1.690613	99
Es	0.099785	1.713703	0.778023	99
Es	0.618227	3.146905	0.746132	99
Es	-1.645318	0.265049	0.309067	99
Es	-0.595174	-0.007991	0.771890	99
Es	0.543820	-1.382706	-1.607243	99
Es	-0.487523	0.039676	0.786315	99
Es	-0.117742	-0.394071	-0.030797	99
Es	0.126440	-0.804422	-0.637428	99
Es	0.194117	-0.509052	2.119383	99
Es	0.150564	2.309498	1.031005	99
Es	-0.486939	0.106337	0.883643	99
Es	-0.407341	-0.046792	0.797671	99
Es	0.209520	-0.603942	1.868116	99
Es	-1.436278	0.115700	0.772776	99
Es	0.147228	-1.346573	-0.938695	99
Es	0.596142	2.181505	0.766389	99
Es	0.147284	-0.854877	-1.313849	99
Es	0.660545	-1.008589	-0.997015	99
Es	0.163771	2.332466	0.495826	99
Es	0.777320	-1.716057	-2.154729	99
Es	-0.140720	-0.326734	1.584447	99
Es	0.497955	2.809126	0.750817	99
Es	0.375669	-0.446603	1.600438	99
37
Properties=species:S:1:pos:R:3:Z:I:1 energy=-715.8189355850316 field_type=dipole dipole="0.000000 0.000000 0.000000" charge=0
O	-1.899877	0.129297	0.523835	8
S	-0.487517	0.039667	0.786315	16
O	0.209842	-0.604192	1.868375	8
C	0.126583	-0.804643	-0.637765	6
C	0.543763	-1.382602	-1.607095	6
C	0.099953	1.714177	0.778015	6
N	0.498123	2.809587	0.750805	7
H	0.909133	-1.901292	-2.462485	1
Es	0.777215	-1.716003	-2.154807	99
Es	-0.392262	0.075377	0.722949	99
Es	-1.431990	0.122476	0.768321	99
Es	0.197244	-0.508476	2.118680	99
Es	0.497958	2.809132	0.750817	99
Es	-1.899535	0.129245	0.523900	99
Es	-2.068071	0.262231	0.682189	99
Es	0.661698	-1.024304	-0.989895	99
Es	0.082186	-0.827277	1.692648	99
Es	0.147858	2.310467	1.028959	99
Es	-0.136084	1.005914	0.761909	99
Es	0.543818	-1.382710	-1.607243	99
Es	0.377778	-0.455262	1.598822	99
Es	0.596856	2.181727	0.769831	99
Es	0.126451	-0.804426	-0.637439	99
Es	-1.806441	-0.163572	0.467181	99
Es	-0.136846	-0.320408	1.584757	99
Es	-1.655690	0.268949	0.308507	99
Es	0.209681	-0.604039	1.868092	99
Es	-0.117554	-0.394146	-0.030728	99
Es	-0.559803	0.132619	0.807550	99
Es	-0.451377	-0.004279	0.887713	99
Es	0.160395	-0.843879	-1.312114	99
Es	-0.546134	-0.044725	0.726720	99
Es	0.618259	3.146668	0.745977	99
Es	-0.487583	0.039712	0.786196	99
Es	0.165746	2.331546	0.494562	99
Es	0.132875	-1.341826	-0.947526	99
Es	0.099774	1.713711	0.778038	99
37
Properties=species:S:1:pos:R:3:Z:I:1 energy=-715.8189355850316 field_type=dipole dipole="0.000000 0.000000 0.000000" charge=0
O	-1.899877	0.129297	0.523835	8
S	-0.487517	0.039667	0.786315	16
O	0.209842	-0.604192	1.868375	8
C	0.126583	-0.804643	-0.637765	6
C	0.543763	-1.382602	-1.607095	6
C	0.099953	1.714177	0.778015	6
N	0.498123	2.809587	0.750805	7
H	0.909133	-1.901292	-2.462485	1
Es	0.777334	-1.716026	-2.154744	99
Es	-0.406855	0.117969	0.744830	99
Es	-0.117495	-0.394111	-0.030766	99
Es	0.543813	-1.382718	-1.607246	99
Es	0.661864	-1.021267	-0.991187	99
Es	-0.487540	0.039643	0.786370	99
Es	-0.593882	0.090441	0.788757	99
Es	-1.437257	0.120608	0.774420	99
Es	-2.073896	0.260326	0.675842	99
Es	0.157574	-0.846209	-1.312442	99
Es	0.202300	-0.517645	2.120527	99
Es	0.163217	2.332919	0.496188	99
Es	-0.490769	-0.056760	0.715801	99
Es	0.099799	1.713722	0.778019	99
Es	-1.802500	-0.161402	0.463488	99
Es	0.126468	-0.804466	-0.637420	99
Es	0.083433	-0.824988	1.684730	99
Es	-0.139286	-0.319527	1.592829	99
Es	-1.648595	0.270528	0.312362	99
Es	-1.899480	0.129313	0.523998	99
Es	0.618538	3.146434	0.746138	99
Es	0.135330	-1.342513	-0.945929	99
Es	-0.136049	1.005906	0.761913	99
Es	0.597072	2.181229	0.766619	99
Es	0.209621	-0.603976	1.868126	99
Es	-0.458111	0.007397	0.895363	99
Es	0.373958	-0.449333	1.596802	99
Es	0.497957	2.809129	0.750816	99
Es	0.149859	2.309818	1.030365	99
37
Properties=species:S:1:pos:R:3:Z:I:1 energy=-715.8189355850316 field_type=dipole dipole="0.000000 0.000000 0.000000" charge=0
O	-1.899877	0.129297	0.523835	8
S	-0.487517	0.039667	0.786315	16
O	0.209842	-0.604192	1.868375	8
C	0.126583	-0.804643	-0.637765	6
C	0.543763	-1.382602	-1.607095	6
C	0.099953	1.714177	0.778015	6
N	0.498123	2.809587	0.750805	7
H	0.909133	-1.901292	-2.462485	1
Es	-1.639277	0.257892	0.309364	99
Es	-0.136343	-0.314860	1.594626	99
Es	-1.447753	0.136098	0.783609	99
Es	0.099792	1.713721	0.778023	99
Es	-1.899512	0.129305	0.523937	99
Es	0.376808	-0.447872	1.602155	99
Es	-0.593706	-0.013314	0.771727	99
Es	-2.084972	0.261529	0.655613	99
Es	0.168635	2.330202	0.492631	99
Es	0.661247	-1.020625	-0.991571	99
Es	0.597694	2.182077	0.774758	99
Es	0.157970	-0.845881	-1.312430	99
Es	0.618412	3.146283	0.745869	99
Es	0.143837	2.311891	1.026123	99
Es	-0.135938	1.005836	0.761830	99
Es	0.198208	-0.528364	2.122984	99
Es	0.543821	-1.382714	-1.607243	99
Es	-0.117578	-0.394109	-0.030816	99
Es	-1.790220	-0.165523	0.477583	99
Es	-0.403697	-0.041595	0.814993	99
Es	0.209667	-0.604021	1.868067	99
Es	0.777189	-1.716059	-2.154782	99
Es	0.135796	-1.343445	-0.945477	99
Es	0.081721	-0.820367	1.675182	99
Es	-0.495219	0.120285	0.871299	99
Es	-0.487479	0.039655	0.786197	99
Es	-0.457091	0.093708	0.686932	99
Es	0.126449	-0.804431	-0.637429	99
Es	0.497962	2.809138	0.750815	99
37
Properties=species:S:1:pos:R:3:Z:I:1 energy=-715.8189355850316 field_type=dipole dipole="0.000000 0.000000 0.000000" charge=0
O	-1.899877	0.129297	0.523835	8
S	-0.487517	0.039667	0.786315	16
O	0.209842	-0.604192	1.868375	8
C	0.126583	-0.804643	-0.637765	6
C	0.543763	-1.382602	-1.607095	6
C	0.099953	1.714177	0.778015	6
N	0.498123	2.809587	0.750805	7
H	0.909133	-1.901292	-2.462485	1
Es	-0.414974	0.088142	0.866700	99
Es	-0.529860	-0.062724	0.827946	99
Es	-1.899501	0.129287	0.523923	99
Es	0.370803	-0.440859	1.595040	99
Es	0.208909	-0.539285	2.124291	99
Es	-1.432756	0.128505	0.770316	99
Es	0.126447	-0.804430	-0.637435	99
Es	0.661399	-1.020303	-0.991680	99
Es	0.597443	2.181827	0.771096	99
Es	0.136114	-1.343431	-0.945244	99
Es	0.543817	-1.382708	-1.607238	99
Es	-0.427324	0.019593	0.685612	99
Es	-1.652259	0.257012	0.306407	99
Es	-0.487542	0.039684	0.786323	99
Es	-2.071185	0.269946	0.672627	99
Es	0.777133	-1.716042	-2.154831	99
Es	0.166927	2.331135	0.493799	99
Es	-0.140338	-0.315279	1.608318	99
Es	0.099791	1.713722	0.778021	99
Es	-0.117551	-0.394037	-0.030872	99
Es	0.618184	3.146218	0.746034	99
Es	-0.136001	1.005847	0.761872	99
Es	0.497958	2.809134	0.750816	99
Es	0.157522	-0.846297	-1.312455	99
Es	0.209677	-0.604005	1.868098	99
Es	0.081003	-0.816023	1.667292	99
Es	-0.577477	0.113970	0.764534	99
Es	-1.806035	-0.165422	0.476836	99
Es	0.146098	2.311265	1.028422	99
37
Properties=species:S:1:pos:R:3:Z:I:1 energy=-715.8189355850316 field_type=dipole dipole="0.000000 0.000000 0.000000" charge=0
O	-1.899877	0.129297	0.523835	8
S	-0.487517	0.039667	0.786315	16
O	0.209842	-0.604192	1.868375	8
C	0.126583	-0.804643	-0.637765	6
C	0.543763	-1.382602	-1.607095	6
C	0.099953	1.714177	0.778015	6
N	0.498123	2.809587	0.750805	7
H	0.909133	-1.901292	-2.462485	1
Es	-0.487102	0.039001	0.786114	99
Es	0.099789	1.713723	0.778020	99
Es	0.067352	-0.815192	1.675435	99
Es	0.130419	2.349252	0.519684	99
Es	0.152148	-0.850690	-1.313226	99
Es	0.543817	-1.382708	-1.607238	99
Es	-2.007524	-0.105297	0.466792	99
Es	0.187461	2.297893	1.050432	99
Es	-0.425012	0.093280	0.874446	99
Es	0.207078	-0.531324	2.123717	99
Es	-0.597903	0.059966	0.800596	99
Es	0.376226	-0.460137	1.597349	99
Es	-0.453489	0.081276	0.677586	99
Es	0.660929	-1.013789	-0.994624	99
Es	-1.422812	-0.006211	0.704786	99
Es	-0.473690	-0.074771	0.792410	99
Es	0.497957	2.809130	0.750816	99
Es	0.141892	-1.345499	-0.941580	99
Es	-1.899532	0.129259	0.523899	99
Es	0.592390	2.177291	0.723074	99
Es	0.777220	-1.716098	-2.154743	99
Es	-0.136363	1.005977	0.761846	99
Es	0.209655	-0.604004	1.868126	99
Es	-0.130258	-0.304944	1.598340	99
Es	0.126447	-0.804430	-0.637436	99
Es	-1.646791	0.266358	0.314136	99
Es	-0.117541	-0.393988	-0.030926	99
Es	-1.885079	0.335237	0.740485	99
Es	0.618739	3.145884	0.746253	99
37
Properties=species:S:1:pos:R:3:Z:I:1 energy=-715.8189355850316 field_type=dipole dipole="0.000000 0.000000 0.000000" charge=0
O	-1.899877	0.129297	0.523835	8
S	-0.487517	0.039667	0.786315	16
O	0.209842	-0.604192	1.868375	8
C	0.126583	-0.804643	-0.637765	6
C	0.543763	-1.382602	-1.607095	6
C	0.099953	1.714177	0.778015	6
N	0.498123	2.809587	0.750805	7
H	0.909133	-1.901292	-2.462485	1
Es	0.376375	-0.459560	1.599170	99
Es	0.209600	-0.603923	1.868124	99
Es	-2.083637	0.256253	0.665856	99
Es	-1.437732	0.139035	0.775428	99
Es	-0.117521	-0.394053	-0.030868	99
Es	-0.466985	0.109859	0.691638	99
Es	-1.788023	-0.164624	0.476631	99
Es	-1.652840	0.259358	0.308260	99
Es	0.617879	3.145990	0.745957	99
Es	-1.899521	0.129295	0.523934	99
Es	0.156380	-0.847318	-1.312550	99
Es	-0.487557	0.039608	0.786347	99
Es	0.777193	-1.716074	-2.154732	99
Es	0.597723	2.183416	0.784085	99
Es	-0.383206	0.000817	0.833349	99
Es	0.206421	-0.535536	2.124643	99
Es	0.135383	2.315217	1.021578	99
Es	0.137259	-1.344155	-0.944434	99
Es	-0.553515	0.098285	0.868952	99
Es	0.497962	2.809142	0.750815	99
Es	0.543819	-1.382709	-1.607238	99
Es	-0.135870	1.005796	0.761969	99
Es	0.177532	2.325857	0.487616	99
Es	0.067697	-0.813068	1.672294	99
Es	0.661330	-1.018494	-0.992471	99
Es	0.099792	1.713722	0.778021	99
Es	-0.130031	-0.303398	1.598784	99
Es	-0.545935	-0.049862	0.750855	99
Es	0.126450	-0.804435	-0.637446	99
37
Properties=species:S:1:pos:R:3:Z:I:1 energy=-715.8189355850316 field_type=dipole dipole="0.000000 0.000000 0.000000" charge=0
O	-1.899877	0.129297	0.523835	8
S	-0.487517	0.039667	0.786315	16
O	0.209842	-0.604192	1.868375	8
C	0.126583	-0.804643	-0.637765	6
C	0.543763	-1.382602	-1.607095	6
C	0.099953	1.714177	0.778015	6
N	0.498123	2.809587	0.750805	7
H	0.909133	-1.901292	-2.462485	1
Es	-0.580343	-0.012274	0.778043	99
Es	0.212089	-0.538349	2.124607	99
Es	-0.501183	0.159165	0.756019	99
Es	0.071794	-0.813277	1.670185	99
Es	0.126447	-0.804430	-0.637438	99
Es	0.371643	-0.452685	1.594926	99
Es	0.589428	2.192774	0.849222	99
Es	-0.117779	-0.393973	-0.031096	99
Es	0.136098	-0.864949	-1.314656	99
Es	0.777358	-1.716147	-2.154644	99
Es	-0.135174	-0.307121	1.605174	99
Es	0.543818	-1.382708	-1.607236	99
Es	0.497957	2.809130	0.750816	99
Es	0.658732	-0.993864	-1.003721	99
Es	0.087918	2.334461	0.978301	99
Es	-1.662857	0.257313	0.305653	99
Es	0.233782	2.297293	0.466155	99
Es	-0.392970	-0.014493	0.729581	99
Es	-1.422266	0.123755	0.759386	99
Es	-1.816362	-0.165580	0.475906	99
Es	0.209684	-0.604037	1.868142	99
Es	-2.060665	0.274506	0.685250	99
Es	-1.899591	0.129278	0.523887	99
Es	0.617270	3.146050	0.745137	99
Es	0.160221	-1.351165	-0.930946	99
Es	-0.135748	1.005722	0.762398	99
Es	-0.471592	0.029788	0.886994	99
Es	0.099793	1.713723	0.778024	99
Es	-0.491079	0.036534	0.780502	99
37
Properties=species:S:1:pos:R:3:Z:I:1 energy=-715.8189355850316 field_type=dipole dipole="0.000000 0.000000 0.000000" charge=0
O	-1.899877	0.129297	0.523835	8
S	-0.487517	0.039667	0.786315	16
O	0.209842	-0.604192	1.868375	8
C	0.126583	-0.804643	-0.637765	6
C	0.543763	-1.382602	-1.607095	6
C	0.099953	1.714177	0.778015	6
N	0.498123	2.809587	0.750805	7
H	0.909133	-1.901292	-2.462485	1
Es	-2.084219	0.252056	0.669637	99
Es	0.118705	2.321604	1.008874	99
Es	-0.487500	0.039692	0.786243	99
Es	-1.436012	0.137853	0.773991	99
Es	-1.786118	-0.163001	0.473089	99
Es	0.157733	-0.846159	-1.312348	99
Es	0.777232	-1.716105	-2.154740	99
Es	0.661333	-1.020053	-0.991777	99
Es	-0.406329	-0.046604	0.776479	99
Es	-0.135746	1.005724	0.761976	99
Es	0.209653	-0.603976	1.868107	99
Es	0.373828	-0.448526	1.600800	99
Es	0.543818	-1.382708	-1.607236	99
Es	0.596677	2.186315	0.806000	99
Es	-1.899489	0.129292	0.523945	99
Es	0.205867	-0.543912	2.125752	99
Es	-0.117376	-0.394001	-0.030938	99
Es	0.099792	1.713725	0.778021	99
Es	0.126440	-0.804437	-0.637432	99
Es	-0.594241	-0.004982	0.764952	99
Es	0.135716	-1.343787	-0.945244	99
Es	0.195388	2.316869	0.478708	99
Es	-1.655927	0.263116	0.309461	99
Es	0.075737	-0.811899	1.664319	99
Es	-0.135017	-0.307188	1.604038	99
Es	0.497958	2.809132	0.750816	99
Es	-0.464002	0.126345	0.707463	99
Es	-0.485124	0.084296	0.896009	99
Es	0.617646	3.145762	0.745603	99
