41
Properties=species:S:1:pos:R:3:Z:I:1 energy=-302.9786963483927 field_type=dipole dipole="0.000000 0.000000 0.000000" charge=0
C	-2.378092	-0.248747	-0.012543	6
C	-0.897772	-0.166817	-0.005343	6
C	-0.051642	0.926413	-0.002193	6
C	1.266168	0.432403	0.003667	6
N	2.386958	1.158363	0.007457	7
C	1.213727	-0.935167	0.004317	6
N	-0.110092	-1.295167	-0.001393	7
H	-2.826562	0.749773	-0.003693	1
H	-2.737842	-0.789817	0.868377	1
H	-2.729762	-0.770637	-0.908173	1
H	-0.361232	1.962663	-0.004473	1
H	2.380178	2.172153	0.022197	1
H	3.309298	0.738113	0.026887	1
H	1.989678	-1.686987	0.007727	1
H	-0.453012	-2.246547	-0.002823	1
Es	2.937603	0.896470	0.027612	99
Es	-0.388956	0.445487	-0.310764	99
Es	-0.254403	1.635651	-0.003688	99
Es	1.215366	-0.319687	0.321608	99
Es	2.373566	1.768465	0.024044	99
Es	-2.611877	-0.618586	0.581618	99
Es	-2.675203	0.426054	-0.006569	99
Es	1.266313	0.432531	0.003677	99
Es	1.895484	0.843860	0.023760	99
Es	-0.392291	0.445748	0.303927	99
Es	0.461861	-1.187460	0.003831	99
Es	-0.051638	0.926450	-0.002187	99
Es	2.355536	1.136582	-0.041902	99
Es	-2.378038	-0.248750	-0.012543	99
Es	1.213577	-0.935297	0.004321	99
Es	0.635807	0.740744	0.001166	99
Es	-0.314159	-0.983536	-0.261987	99
Es	-0.329400	-0.972915	0.254181	99
Es	1.741978	-1.447986	0.006875	99
Es	-1.636288	-0.211089	-0.008797	99
Es	-0.110140	-1.295096	-0.001522	99
Es	2.376591	1.151271	0.014210	99
Es	1.217601	-0.320390	-0.314291	99
Es	-2.606462	-0.605515	-0.616484	99
Es	-0.897785	-0.167033	-0.005346	99
Es	-0.311616	-1.861720	-0.001324	99
41
Properties=species:S:1:pos:R:3:Z:I:1 energy=-302.9786963483927 field_type=dipole dipole="0.000000 0.000000 0.000000" charge=0
C	-2.378092	-0.248747	-0.012543	6
C	-0.897772	-0.166817	-0.005343	6
C	-0.051642	0.926413	-0.002193	6
C	1.266168	0.432403	0.003667	6
N	2.386958	1.158363	0.007457	7
C	1.213727	-0.935167	0.004317	6
N	-0.110092	-1.295167	-0.001393	7
H	-2.826562	0.749773	-0.003693	1
H	-2.737842	-0.789817	0.868377	1
H	-2.729762	-0.770637	-0.908173	1
H	-0.361232	1.962663	-0.004473	1
H	2.380178	2.172153	0.022197	1
H	3.309298	0.738113	0.026887	1
H	1.989678	-1.686987	0.007727	1
H	-0.453012	-2.246547	-0.002823	1
Es	1.266315	0.432533	0.003675	99
Es	-1.636468	-0.211028	-0.008694	99
Es	-0.387951	0.445606	-0.311066	99
Es	2.938196	0.896311	0.018470	99
Es	-0.897785	-0.167033	-0.005343	99
Es	1.214710	-0.320525	0.321584	99
Es	1.742063	-1.447964	0.006655	99
Es	-0.051639	0.926449	-0.002189	99
Es	-0.254462	1.635662	-0.003508	99
Es	1.894870	0.843308	0.006954	99
Es	-0.334294	-0.968954	0.253205	99
Es	-0.311801	-1.861727	-0.001426	99
Es	-2.606366	-0.605595	-0.616528	99
Es	-0.393190	0.445257	0.303619	99
Es	-0.308916	-0.987255	-0.262347	99
Es	2.355400	1.136705	0.012936	99
Es	0.635648	0.740827	0.001277	99
Es	1.213577	-0.935296	0.004309	99
Es	-2.378038	-0.248750	-0.012543	99
Es	-0.110134	-1.295098	-0.001436	99
Es	-2.611881	-0.618566	0.581647	99
Es	2.376860	1.151376	-0.006662	99
Es	0.461693	-1.187626	0.005457	99
Es	1.218355	-0.319318	-0.313894	99
Es	-2.675243	0.426033	-0.006631	99
Es	2.373510	1.768919	0.015905	99
41
Properties=species:S:1:pos:R:3:Z:I:1 energy=-302.9786963483927 field_type=dipole dipole="0.000000 0.000000 0.000000" charge=0
C	-2.378092	-0.248747	-0.012543	6
C	-0.897772	-0.166817	-0.005343	6
C	-0.051642	0.926413	-0.002193	6
C	1.266168	0.432403	0.003667	6
N	2.386958	1.158363	0.007457	7
C	1.213727	-0.935167	0.004317	6
N	-0.110092	-1.295167	-0.001393	7
H	-2.826562	0.749773	-0.003693	1
H	-2.737842	-0.789817	0.868377	1
H	-2.729762	-0.770637	-0.908173	1
H	-0.361232	1.962663	-0.004473	1
H	2.380178	2.172153	0.022197	1
H	3.309298	0.738113	0.026887	1
H	1.989678	-1.686987	0.007727	1
H	-0.453012	-2.246547	-0.002823	1
Es	-0.051639	0.926450	-0.002196	99
Es	-2.675327	0.426121	-0.006467	99
Es	-2.378039	-0.248750	-0.012542	99
Es	-0.323047	-0.976528	-0.260131	99
Es	-0.254370	1.635653	-0.003773	99
Es	1.908964	0.852653	0.085958	99
Es	0.635478	0.740649	0.000100	99
Es	-0.390187	0.444901	-0.310180	99
Es	1.213577	-0.935297	0.004316	99
Es	-1.636594	-0.211061	-0.008860	99
Es	2.933136	0.899189	0.052285	99
Es	-0.320691	-0.979806	0.256500	99
Es	-0.110121	-1.295132	-0.001383	99
Es	-0.390857	0.445682	0.304594	99
Es	1.742159	-1.447912	0.007005	99
Es	1.218526	-0.320120	-0.313705	99
Es	-0.897785	-0.167036	-0.005333	99
Es	2.386321	1.157933	0.009285	99
Es	-0.311514	-1.861587	-0.002443	99
Es	2.336484	1.123809	-0.149345	99
Es	1.214540	-0.319528	0.321313	99
Es	2.373979	1.763219	0.049933	99
Es	-2.606357	-0.605497	-0.616525	99
Es	-2.611819	-0.618708	0.581495	99
Es	1.266316	0.432536	0.003665	99
Es	0.461893	-1.187580	-0.000140	99
41
Properties=species:S:1:pos:R:3:Z:I:1 energy=-302.9786963483927 field_type=dipole dipole="0.000000 0.000000 0.000000" charge=0
C	-2.378092	-0.248747	-0.012543	6
C	-0.897772	-0.166817	-0.005343	6
C	-0.051642	0.926413	-0.002193	6
C	1.266168	0.432403	0.003667	6
N	2.386958	1.158363	0.007457	7
C	1.213727	-0.935167	0.004317	6
N	-0.110092	-1.295167	-0.001393	7
H	-2.826562	0.749773	-0.003693	1
H	-2.737842	-0.789817	0.868377	1
H	-2.729762	-0.770637	-0.908173	1
H	-0.361232	1.962663	-0.004473	1
H	2.380178	2.172153	0.022197	1
H	3.309298	0.738113	0.026887	1
H	1.989678	-1.686987	0.007727	1
H	-0.453012	-2.246547	-0.002823	1
Es	-2.611804	-0.618674	0.581630	99
Es	-2.606366	-0.605541	-0.616533	99
Es	-0.311759	-1.861654	-0.006374	99
Es	-0.254483	1.635675	-0.003420	99
Es	-0.296080	-1.000359	0.259436	99
Es	2.337989	1.124347	-0.149094	99
Es	2.374007	1.763092	0.050311	99
Es	1.214039	-0.319173	0.321830	99
Es	-0.346930	-0.956164	-0.252561	99
Es	-0.897786	-0.167034	-0.005346	99
Es	1.908131	0.852235	0.083556	99
Es	1.213579	-0.935301	0.004317	99
Es	1.266313	0.432531	0.003664	99
Es	-2.378039	-0.248749	-0.012543	99
Es	-0.051638	0.926448	-0.002193	99
Es	2.932652	0.899251	0.053952	99
Es	1.742201	-1.447908	0.006816	99
Es	-2.675266	0.426102	-0.006542	99
Es	-1.636759	-0.210994	-0.008844	99
Es	1.218949	-0.319936	-0.312909	99
Es	2.386189	1.157846	0.009381	99
Es	0.635515	0.740657	-0.000150	99
Es	-0.390431	0.444973	-0.310003	99
Es	-0.110123	-1.295114	-0.001565	99
Es	-0.390822	0.445191	0.304567	99
Es	0.461749	-1.187496	-0.007957	99
41
Properties=species:S:1:pos:R:3:Z:I:1 energy=-302.9786963483927 field_type=dipole dipole="0.000000 0.000000 0.000000" charge=0
C	-2.378092	-0.248747	-0.012543	6
C	-0.897772	-0.166817	-0.005343	6
C	-0.051642	0.926413	-0.002193	6
C	1.266168	0.432403	0.003667	6
N	2.386958	1.158363	0.007457	7
C	1.213727	-0.935167	0.004317	6
N	-0.110092	-1.295167	-0.001393	7
H	-2.826562	0.749773	-0.003693	1
H	-2.737842	-0.789817	0.868377	1
H	-2.729762	-0.770637	-0.908173	1
H	-0.361232	1.962663	-0.004473	1
H	2.380178	2.172153	0.022197	1
H	3.309298	0.738113	0.026887	1
H	1.989678	-1.686987	0.007727	1
H	-0.453012	-2.246547	-0.002823	1
Es	2.386087	1.157765	0.009648	99
Es	0.635446	0.740690	0.000983	99
Es	-2.378040	-0.248751	-0.012542	99
Es	1.213577	-0.935292	0.004357	99
Es	1.218382	-0.319669	-0.313739	99
Es	2.932546	0.899511	0.054146	99
Es	-0.392277	0.445005	0.303563	99
Es	-0.336130	-0.967251	0.251803	99
Es	1.266315	0.432534	0.003671	99
Es	-0.307255	-0.988834	-0.263547	99
Es	1.911286	0.854143	0.091496	99
Es	-0.110131	-1.295115	-0.001402	99
Es	0.461644	-1.187650	0.006817	99
Es	-0.311734	-1.861643	-0.000126	99
Es	-2.606323	-0.605589	-0.616528	99
Es	-2.675313	0.426087	-0.006581	99
Es	-0.254523	1.635673	-0.003475	99
Es	-0.388618	0.444950	-0.310731	99
Es	2.374183	1.762300	0.052056	99
Es	-0.051640	0.926446	-0.002191	99
Es	2.334966	1.123015	-0.159174	99
Es	-1.636841	-0.210889	-0.008738	99
Es	-0.897785	-0.167031	-0.005344	99
Es	-2.611808	-0.618653	0.581619	99
Es	1.214766	-0.319594	0.320665	99
Es	1.742251	-1.447907	0.006719	99
41
Properties=species:S:1:pos:R:3:Z:I:1 energy=-302.9786963483927 field_type=dipole dipole="0.000000 0.000000 0.000000" charge=0
C	-2.378092	-0.248747	-0.012543	6
C	-0.897772	-0.166817	-0.005343	6
C	-0.051642	0.926413	-0.002193	6
C	1.266168	0.432403	0.003667	6
N	2.386958	1.158363	0.007457	7
C	1.213727	-0.935167	0.004317	6
N	-0.110092	-1.295167	-0.001393	7
H	-2.826562	0.749773	-0.003693	1
H	-2.737842	-0.789817	0.868377	1
H	-2.729762	-0.770637	-0.908173	1
H	-0.361232	1.962663	-0.004473	1
H	2.380178	2.172153	0.022197	1
H	3.309298	0.738113	0.026887	1
H	1.989678	-1.686987	0.007727	1
H	-0.453012	-2.246547	-0.002823	1
Es	-0.311423	-1.861496	-0.001009	99
Es	-2.606331	-0.605613	-0.616529	99
Es	1.218457	-0.319320	-0.313137	99
Es	1.266314	0.432532	0.003674	99
Es	0.461621	-1.187657	0.002256	99
Es	-0.315314	-0.982978	-0.261926	99
Es	-0.388698	0.444758	-0.310480	99
Es	2.373376	1.768778	0.019873	99
Es	-2.611900	-0.618574	0.581694	99
Es	-2.378039	-0.248750	-0.012542	99
Es	-0.051640	0.926446	-0.002193	99
Es	-1.636997	-0.210902	-0.008723	99
Es	2.367010	1.144662	0.013917	99
Es	-0.391938	0.444885	0.303457	99
Es	-2.675206	0.426088	-0.006681	99
Es	-0.254633	1.635659	-0.003440	99
Es	2.938097	0.896393	0.021379	99
Es	1.895276	0.843287	0.015123	99
Es	0.635436	0.741035	0.000961	99
Es	-0.328565	-0.973048	0.254957	99
Es	2.365289	1.143372	-0.022640	99
Es	-0.897788	-0.167034	-0.005343	99
Es	1.742271	-1.447911	0.006511	99
Es	-0.110124	-1.295125	-0.001379	99
Es	1.213577	-0.935296	0.004305	99
Es	1.214900	-0.319936	0.321342	99
41
Properties=species:S:1:pos:R:3:Z:I:1 energy=-302.9786963483927 field_type=dipole dipole="0.000000 0.000000 0.000000" charge=0
C	-2.378092	-0.248747	-0.012543	6
C	-0.897772	-0.166817	-0.005343	6
C	-0.051642	0.926413	-0.002193	6
C	1.266168	0.432403	0.003667	6
N	2.386958	1.158363	0.007457	7
C	1.213727	-0.935167	0.004317	6
N	-0.110092	-1.295167	-0.001393	7
H	-2.826562	0.749773	-0.003693	1
H	-2.737842	-0.789817	0.868377	1
H	-2.729762	-0.770637	-0.908173	1
H	-0.361232	1.962663	-0.004473	1
H	2.380178	2.172153	0.022197	1
H	3.309298	0.738113	0.026887	1
H	1.989678	-1.686987	0.007727	1
H	-0.453012	-2.246547	-0.002823	1
Es	2.373471	1.768920	0.016884	99
Es	-2.675330	0.426125	-0.006609	99
Es	1.895104	0.843275	0.009330	99
Es	1.266314	0.432532	0.003668	99
Es	-0.051640	0.926446	-0.002191	99
Es	-0.897785	-0.167034	-0.005342	99
Es	1.742352	-1.447893	0.006651	99
Es	0.461731	-1.187690	-0.000709	99
Es	1.215019	-0.319480	0.321355	99
Es	-2.378040	-0.248750	-0.012543	99
Es	-0.110094	-1.295156	-0.001350	99
Es	2.365362	1.143404	-0.015787	99
Es	-0.326687	-0.972967	-0.259308	99
Es	-0.387936	0.444916	-0.310399	99
Es	-0.317132	-0.983032	0.257025	99
Es	-2.606287	-0.605629	-0.616521	99
Es	-2.611782	-0.618657	0.581648	99
Es	0.635179	0.741058	0.000930	99
Es	1.213577	-0.935293	0.004321	99
Es	-1.637106	-0.210850	-0.008773	99
Es	2.938135	0.896248	0.019510	99
Es	-0.311578	-1.861565	-0.003328	99
Es	2.366982	1.144637	0.017673	99
Es	1.218413	-0.319400	-0.312841	99
Es	-0.254619	1.635677	-0.003546	99
Es	-0.392595	0.444409	0.303681	99
41
Properties=species:S:1:pos:R:3:Z:I:1 energy=-302.9786963483927 field_type=dipole dipole="0.000000 0.000000 0.000000" charge=0
C	-2.378092	-0.248747	-0.012543	6
C	-0.897772	-0.166817	-0.005343	6
C	-0.051642	0.926413	-0.002193	6
C	1.266168	0.432403	0.003667	6
N	2.386958	1.158363	0.007457	7
C	1.213727	-0.935167	0.004317	6
N	-0.110092	-1.295167	-0.001393	7
H	-2.826562	0.749773	-0.003693	1
H	-2.737842	-0.789817	0.868377	1
H	-2.729762	-0.770637	-0.908173	1
H	-0.361232	1.962663	-0.004473	1
H	2.380178	2.172153	0.022197	1
H	3.309298	0.738113	0.026887	1
H	1.989678	-1.686987	0.007727	1
H	-0.453012	-2.246547	-0.002823	1
Es	1.213579	-0.935289	0.004325	99
Es	-0.320019	-0.978376	-0.261047	99
Es	-0.051640	0.926446	-0.002186	99
Es	2.938035	0.896253	0.022126	99
Es	1.217744	-0.319780	-0.313041	99
Es	2.366904	1.144560	0.013473	99
Es	-1.637188	-0.210892	-0.008737	99
Es	-0.323697	-0.977549	0.255509	99
Es	-2.606281	-0.605656	-0.616482	99
Es	-2.675314	0.426145	-0.006672	99
Es	-0.897784	-0.167031	-0.005341	99
Es	-2.378040	-0.248750	-0.012543	99
Es	1.266316	0.432533	0.003669	99
Es	0.461722	-1.187763	0.002112	99
Es	0.635162	0.741059	0.000293	99
Es	1.895256	0.843268	0.013852	99
Es	1.215715	-0.318820	0.320870	99
Es	-0.110129	-1.295119	-0.001383	99
Es	-0.254624	1.635692	-0.003662	99
Es	1.742427	-1.447883	0.006826	99
Es	2.373438	1.768852	0.019244	99
Es	-0.311622	-1.861542	-0.002400	99
Es	-0.390053	0.444142	-0.310032	99
Es	-0.390590	0.444920	0.303951	99
Es	2.365497	1.143470	-0.020998	99
Es	-2.611786	-0.618638	0.581700	99
41
Properties=species:S:1:pos:R:3:Z:I:1 energy=-302.9786963483927 field_type=dipole dipole="0.000000 0.000000 0.000000" charge=0
C	-2.378092	-0.248747	-0.012543	6
C	-0.897772	-0.166817	-0.005343	6
C	-0.051642	0.926413	-0.002193	6
C	1.266168	0.432403	0.003667	6
N	2.386958	1.158363	0.007457	7
C	1.213727	-0.935167	0.004317	6
N	-0.110092	-1.295167	-0.001393	7
H	-2.826562	0.749773	-0.003693	1
H	-2.737842	-0.789817	0.868377	1
H	-2.729762	-0.770637	-0.908173	1
H	-0.361232	1.962663	-0.004473	1
H	2.380178	2.172153	0.022197	1
H	3.309298	0.738113	0.026887	1
H	1.989678	-1.686987	0.007727	1
H	-0.453012	-2.246547	-0.002823	1
Es	-2.378040	-0.248750	-0.012543	99
Es	-1.637362	-0.210787	-0.008812	99
Es	-2.606280	-0.605640	-0.616533	99
Es	0.461655	-1.187758	-0.003275	99
Es	1.895373	0.843213	0.013856	99
Es	2.373336	1.768755	0.019074	99
Es	-0.254715	1.635706	-0.003722	99
Es	2.365769	1.143679	-0.023038	99
Es	1.218608	-0.319256	-0.312352	99
Es	-0.110109	-1.295155	-0.001425	99
Es	2.938077	0.896346	0.021646	99
Es	-0.311915	-0.986963	0.258163	99
Es	-0.311523	-1.861533	-0.003684	99
Es	2.366631	1.144377	0.016128	99
Es	1.266316	0.432534	0.003665	99
Es	-0.390263	0.443816	-0.309783	99
Es	0.635060	0.741141	0.000354	99
Es	1.213577	-0.935292	0.004300	99
Es	-0.390062	0.444908	0.303888	99
Es	-0.331944	-0.968925	-0.257916	99
Es	-0.051641	0.926444	-0.002191	99
Es	-2.611775	-0.618665	0.581676	99
Es	1.214843	-0.319224	0.321283	99
Es	-0.897788	-0.167036	-0.005346	99
Es	-2.675299	0.426156	-0.006619	99
Es	1.742498	-1.447840	0.006633	99
41
Properties=species:S:1:pos:R:3:Z:I:1 energy=-302.9786963483927 field_type=dipole dipole="0.000000 0.000000 0.000000" charge=0
C	-2.378092	-0.248747	-0.012543	6
C	-0.897772	-0.166817	-0.005343	6
C	-0.051642	0.926413	-0.002193	6
C	1.266168	0.432403	0.003667	6
N	2.386958	1.158363	0.007457	7
C	1.213727	-0.935167	0.004317	6
N	-0.110092	-1.295167	-0.001393	7
H	-2.826562	0.749773	-0.003693	1
H	-2.737842	-0.789817	0.868377	1
H	-2.729762	-0.770637	-0.908173	1
H	-0.361232	1.962663	-0.004473	1
H	2.380178	2.172153	0.022197	1
H	3.309298	0.738113	0.026887	1
H	1.989678	-1.686987	0.007727	1
H	-0.453012	-2.246547	-0.002823	1
Es	-0.319332	-0.980732	0.256810	99
Es	2.329526	1.118315	-0.192365	99
Es	1.218923	-0.319414	-0.312701	99
Es	-0.389614	0.444983	0.303818	99
Es	1.742565	-1.447828	0.006826	99
Es	-2.606350	-0.605652	-0.616519	99
Es	0.461612	-1.187860	-0.000418	99
Es	2.929336	0.901521	0.063286	99
Es	1.214484	-0.319006	0.320246	99
Es	-2.378040	-0.248751	-0.012543	99
Es	2.374301	1.759396	0.058837	99
Es	0.635054	0.740728	0.000276	99
Es	-2.675284	0.426155	-0.006598	99
Es	-0.051647	0.926437	-0.002197	99
Es	-0.897786	-0.167032	-0.005343	99
Es	1.920055	0.859716	0.109501	99
Es	1.213577	-0.935289	0.004319	99
Es	-0.254705	1.635701	-0.003703	99
Es	-2.611729	-0.618641	0.581699	99
Es	-0.324538	-0.974967	-0.260022	99
Es	-0.311570	-1.861511	-0.002650	99
Es	-1.637446	-0.210785	-0.008892	99
Es	1.266316	0.432534	0.003670	99
Es	2.386084	1.157780	0.009128	99
Es	-0.390637	0.443572	-0.309692	99
Es	-0.110128	-1.295119	-0.001346	99
41
Properties=species:S:1:pos:R:3:Z:I:1 energy=-302.9786963483927 field_type=dipole dipole="0.000000 0.000000 0.000000" charge=0
C	-2.378092	-0.248747	-0.012543	6
C	-0.897772	-0.166817	-0.005343	6
C	-0.051642	0.926413	-0.002193	6
C	1.266168	0.432403	0.003667	6
N	2.386958	1.158363	0.007457	7
C	1.213727	-0.935167	0.004317	6
N	-0.110092	-1.295167	-0.001393	7
H	-2.826562	0.749773	-0.003693	1
H	-2.737842	-0.789817	0.868377	1
H	-2.729762	-0.770637	-0.908173	1
H	-0.361232	1.962663	-0.004473	1
H	2.380178	2.172153	0.022197	1
H	3.309298	0.738113	0.026887	1
H	1.989678	-1.686987	0.007727	1
H	-0.453012	-2.246547	-0.002823	1
Es	1.215271	-0.318455	0.319045	99
Es	-0.282867	-1.009379	-0.264565	99
Es	2.385684	1.157504	0.009198	99
Es	-2.378040	-0.248751	-0.012543	99
Es	-0.110134	-1.295105	-0.001268	99
Es	2.374369	1.759243	0.059600	99
Es	1.218015	-0.318678	-0.313608	99
Es	-0.359372	-0.947108	0.242992	99
Es	-0.254689	1.635705	-0.003321	99
Es	0.461186	-1.187691	0.014065	99
Es	-0.897787	-0.167032	-0.005339	99
Es	1.920276	0.859599	0.109280	99
Es	-0.386960	0.444225	-0.311172	99
Es	0.634990	0.740720	0.001951	99
Es	1.742609	-1.447777	0.006984	99
Es	-2.675310	0.426205	-0.006618	99
Es	1.213579	-0.935292	0.004316	99
Es	-2.606229	-0.605629	-0.616544	99
Es	1.266315	0.432532	0.003666	99
Es	-0.051645	0.926442	-0.002182	99
Es	2.929288	0.901399	0.062734	99
Es	2.329773	1.118953	-0.192408	99
Es	-1.637604	-0.210830	-0.008718	99
Es	-0.394078	0.443613	0.302498	99
Es	-2.611769	-0.618713	0.581674	99
Es	-0.311843	-1.861448	0.003709	99
41
Properties=species:S:1:pos:R:3:Z:I:1 energy=-302.9786963483927 field_type=dipole dipole="0.000000 0.000000 0.000000" charge=0
C	-2.378092	-0.248747	-0.012543	6
C	-0.897772	-0.166817	-0.005343	6
C	-0.051642	0.926413	-0.002193	6
C	1.266168	0.432403	0.003667	6
N	2.386958	1.158363	0.007457	7
C	1.213727	-0.935167	0.004317	6
N	-0.110092	-1.295167	-0.001393	7
H	-2.826562	0.749773	-0.003693	1
H	-2.737842	-0.789817	0.868377	1
H	-2.729762	-0.770637	-0.908173	1
H	-0.361232	1.962663	-0.004473	1
H	2.380178	2.172153	0.022197	1
H	3.309298	0.738113	0.026887	1
H	1.989678	-1.686987	0.007727	1
H	-0.453012	-2.246547	-0.002823	1
Es	-0.393143	0.443523	0.302922	99
Es	2.929060	0.901569	0.062986	99
Es	1.923416	0.861992	0.115685	99
Es	-0.329903	-0.972165	0.254296	99
Es	-2.606245	-0.605634	-0.616557	99
Es	-2.378041	-0.248750	-0.012543	99
Es	-0.897786	-0.167034	-0.005343	99
Es	-0.313820	-0.983485	-0.262114	99
Es	2.374819	1.758791	0.059796	99
Es	-0.051640	0.926446	-0.002193	99
Es	0.634915	0.740734	0.001460	99
Es	-0.311631	-1.861483	-0.001360	99
Es	-0.387106	0.444408	-0.310484	99
Es	1.266309	0.432531	0.003668	99
Es	-1.637695	-0.210689	-0.008772	99
Es	1.742612	-1.447785	0.007118	99
Es	-0.254723	1.635649	-0.003250	99
Es	1.213576	-0.935295	0.004341	99
Es	2.385685	1.157498	0.009123	99
Es	-2.611736	-0.618727	0.581699	99
Es	-2.675311	0.426190	-0.006599	99
Es	-0.110127	-1.295128	-0.001398	99
Es	2.326426	1.116921	-0.199126	99
Es	0.461509	-1.187917	0.003669	99
Es	1.218375	-0.319570	-0.312986	99
Es	1.215232	-0.318339	0.319388	99
