41
Properties=species:S:1:pos:R:3:Z:I:1 energy=-302.9817780376774 field_type=dipole dipole="0.000000 0.000000 0.000000" charge=0
C	-2.182293	0.007319	0.046106	6
C	-0.697773	-0.074091	0.044336	6
C	0.031007	-1.200251	-0.012434	6
C	1.414727	-0.715361	-0.003184	6
N	2.427657	-1.484091	-0.166684	7
N	1.470797	0.636519	0.161356	7
C	0.128917	1.184439	0.099886	6
H	-2.640863	-0.985521	-0.012464	1
H	-2.533153	0.591069	-0.810544	1
H	-2.536453	0.488349	0.963126	1
H	-0.267133	-2.230031	-0.075984	1
H	3.277946	-0.920351	-0.102174	1
H	2.201987	1.135599	-0.326004	1
H	-0.008443	1.791429	-0.799894	1
H	-0.086923	1.774969	0.994556	1
Es	1.470632	0.636419	0.160892	99
Es	1.541431	0.565788	0.446444	99
Es	-0.304015	-0.651459	-0.305066	99
Es	0.728860	-0.991795	0.000094	99
Es	-0.697858	-0.073948	0.044345	99
Es	2.942451	-1.123932	-0.131799	99
Es	-2.182248	0.007328	0.046106	99
Es	1.898390	0.925190	-0.146117	99
Es	1.437635	0.075700	0.013116	99
Es	-2.486416	-0.665287	0.006281	99
Es	0.900371	0.893977	0.111342	99
Es	-2.405211	0.404655	-0.531242	99
Es	2.427620	-1.483588	-0.166611	99
Es	2.019487	-1.133312	-0.382008	99
Es	0.129042	1.184349	0.099881	99
Es	-0.308257	-0.683365	0.334378	99
Es	-2.407198	0.334942	0.663761	99
Es	0.031095	-1.200274	-0.012431	99
Es	-0.306689	0.570729	0.073185	99
Es	2.049230	-1.214986	0.174354	99
Es	-1.441587	-0.028085	0.045954	99
Es	-0.169804	-1.886009	-0.053075	99
Es	0.029972	1.590760	-0.511129	99
Es	2.430954	-1.845508	-0.219607	99
Es	1.414645	-0.715197	-0.003140	99
Es	-0.029836	1.582532	0.702634	99
41
Properties=species:S:1:pos:R:3:Z:I:1 energy=-302.9817780376774 field_type=dipole dipole="0.000000 0.000000 0.000000" charge=0
C	-2.182293	0.007319	0.046106	6
C	-0.697773	-0.074091	0.044336	6
C	0.031007	-1.200251	-0.012434	6
C	1.414727	-0.715361	-0.003184	6
N	2.427657	-1.484091	-0.166684	7
N	1.470797	0.636519	0.161356	7
C	0.128917	1.184439	0.099886	6
H	-2.640863	-0.985521	-0.012464	1
H	-2.533153	0.591069	-0.810544	1
H	-2.536453	0.488349	0.963126	1
H	-0.267133	-2.230031	-0.075984	1
H	3.277946	-0.920351	-0.102174	1
H	2.201987	1.135599	-0.326004	1
H	-0.008443	1.791429	-0.799894	1
H	-0.086923	1.774969	0.994556	1
Es	2.427610	-1.483609	-0.166616	99
Es	-1.441544	-0.028070	0.045871	99
Es	1.438007	0.075448	0.013599	99
Es	2.049412	-1.215101	0.174758	99
Es	1.898656	0.925461	-0.145728	99
Es	-2.486349	-0.665252	0.006439	99
Es	-2.407166	0.334930	0.663710	99
Es	2.431026	-1.845111	-0.219261	99
Es	-0.697857	-0.073950	0.044352	99
Es	0.031095	-1.200273	-0.012429	99
Es	2.019158	-1.133422	-0.382415	99
Es	-0.169837	-1.886008	-0.053020	99
Es	-0.306410	0.570867	0.073243	99
Es	-0.303925	-0.651426	-0.305064	99
Es	0.029935	1.590734	-0.511214	99
Es	1.540992	0.566149	0.446042	99
Es	2.942494	-1.124130	-0.132080	99
Es	0.900230	0.893716	0.111061	99
Es	-0.308401	-0.683374	0.334062	99
Es	1.414650	-0.715208	-0.003142	99
Es	0.129046	1.184347	0.099881	99
Es	-0.029988	1.582488	0.702719	99
Es	1.470593	0.636313	0.160744	99
Es	-2.182248	0.007329	0.046106	99
Es	0.728921	-0.991796	0.000196	99
Es	-2.405400	0.404572	-0.531271	99
41
Properties=species:S:1:pos:R:3:Z:I:1 energy=-302.9817780376774 field_type=dipole dipole="0.000000 0.000000 0.000000" charge=0
C	-2.182293	0.007319	0.046106	6
C	-0.697773	-0.074091	0.044336	6
C	0.031007	-1.200251	-0.012434	6
C	1.414727	-0.715361	-0.003184	6
N	2.427657	-1.484091	-0.166684	7
N	1.470797	0.636519	0.161356	7
C	0.128917	1.184439	0.099886	6
H	-2.640863	-0.985521	-0.012464	1
H	-2.533153	0.591069	-0.810544	1
H	-2.536453	0.488349	0.963126	1
H	-0.267133	-2.230031	-0.075984	1
H	3.277946	-0.920351	-0.102174	1
H	2.201987	1.135599	-0.326004	1
H	-0.008443	1.791429	-0.799894	1
H	-0.086923	1.774969	0.994556	1
Es	2.942684	-1.124090	-0.132026	99
Es	2.019309	-1.133536	-0.382243	99
Es	2.427605	-1.483570	-0.166619	99
Es	-2.405176	0.404622	-0.531323	99
Es	1.414646	-0.715204	-0.003147	99
Es	1.470587	0.636289	0.160723	99
Es	2.430967	-1.844892	-0.219520	99
Es	2.049170	-1.215182	0.174726	99
Es	0.129044	1.184348	0.099882	99
Es	-0.029945	1.582514	0.702652	99
Es	-0.303561	-0.651490	-0.304990	99
Es	0.728987	-0.991876	0.000343	99
Es	-2.182248	0.007328	0.046106	99
Es	1.540921	0.567586	0.445068	99
Es	-0.306394	0.570840	0.073336	99
Es	-0.169905	-1.885982	-0.052993	99
Es	-2.486455	-0.665248	0.006354	99
Es	0.029891	1.590715	-0.511170	99
Es	1.898528	0.925117	-0.146083	99
Es	0.900183	0.893739	0.110807	99
Es	-0.697858	-0.073954	0.044357	99
Es	1.438333	0.074364	0.015222	99
Es	0.031096	-1.200274	-0.012428	99
Es	-2.407202	0.334989	0.663715	99
Es	-1.441658	-0.028197	0.046012	99
Es	-0.308851	-0.683334	0.333782	99
41
Properties=species:S:1:pos:R:3:Z:I:1 energy=-302.9817780376774 field_type=dipole dipole="0.000000 0.000000 0.000000" charge=0
C	-2.182293	0.007319	0.046106	6
C	-0.697773	-0.074091	0.044336	6
C	0.031007	-1.200251	-0.012434	6
C	1.414727	-0.715361	-0.003184	6
N	2.427657	-1.484091	-0.166684	7
N	1.470797	0.636519	0.161356	7
C	0.128917	1.184439	0.099886	6
H	-2.640863	-0.985521	-0.012464	1
H	-2.533153	0.591069	-0.810544	1
H	-2.536453	0.488349	0.963126	1
H	-0.267133	-2.230031	-0.075984	1
H	3.277946	-0.920351	-0.102174	1
H	2.201987	1.135599	-0.326004	1
H	-0.008443	1.791429	-0.799894	1
H	-0.086923	1.774969	0.994556	1
Es	-0.303733	-0.651473	-0.304899	99
Es	-0.308478	-0.683173	0.333922	99
Es	0.129042	1.184348	0.099882	99
Es	2.048763	-1.214912	0.174787	99
Es	2.431001	-1.844553	-0.219071	99
Es	1.897582	0.924398	-0.147357	99
Es	0.031095	-1.200269	-0.012437	99
Es	-1.441742	-0.028334	0.046099	99
Es	1.414645	-0.715197	-0.003135	99
Es	1.470617	0.636378	0.160825	99
Es	1.437952	0.075208	0.014440	99
Es	2.019604	-1.133902	-0.382868	99
Es	2.427601	-1.483587	-0.166611	99
Es	-2.486466	-0.665234	0.006376	99
Es	0.900316	0.893655	0.110868	99
Es	-0.306394	0.570935	0.073124	99
Es	0.029930	1.590764	-0.511104	99
Es	1.542120	0.567391	0.446964	99
Es	-0.169940	-1.885958	-0.052880	99
Es	0.728884	-0.992034	0.000092	99
Es	-0.030022	1.582466	0.702663	99
Es	-2.182248	0.007329	0.046106	99
Es	-2.407214	0.335006	0.663694	99
Es	-2.405152	0.404613	-0.531359	99
Es	2.942793	-1.124290	-0.131928	99
Es	-0.697856	-0.073952	0.044352	99
41
Properties=species:S:1:pos:R:3:Z:I:1 energy=-302.9817780376774 field_type=dipole dipole="0.000000 0.000000 0.000000" charge=0
C	-2.182293	0.007319	0.046106	6
C	-0.697773	-0.074091	0.044336	6
C	0.031007	-1.200251	-0.012434	6
C	1.414727	-0.715361	-0.003184	6
N	2.427657	-1.484091	-0.166684	7
N	1.470797	0.636519	0.161356	7
C	0.128917	1.184439	0.099886	6
H	-2.640863	-0.985521	-0.012464	1
H	-2.533153	0.591069	-0.810544	1
H	-2.536453	0.488349	0.963126	1
H	-0.267133	-2.230031	-0.075984	1
H	3.277946	-0.920351	-0.102174	1
H	2.201987	1.135599	-0.326004	1
H	-0.008443	1.791429	-0.799894	1
H	-0.086923	1.774969	0.994556	1
Es	-1.441795	-0.028311	0.045932	99
Es	0.029892	1.590642	-0.511103	99
Es	1.470598	0.636347	0.160811	99
Es	1.414647	-0.715202	-0.003141	99
Es	1.898354	0.925126	-0.146010	99
Es	-2.182249	0.007328	0.046106	99
Es	-2.405126	0.404619	-0.531227	99
Es	-0.030025	1.582581	0.702581	99
Es	1.541613	0.565518	0.446782	99
Es	1.437906	0.076189	0.012967	99
Es	-0.697858	-0.073950	0.044348	99
Es	-0.169906	-1.885982	-0.053072	99
Es	-2.407268	0.334966	0.663833	99
Es	2.019573	-1.133599	-0.382843	99
Es	2.048901	-1.214873	0.174443	99
Es	-0.306290	0.570877	0.073274	99
Es	2.427619	-1.483603	-0.166614	99
Es	-0.303758	-0.651390	-0.304711	99
Es	0.728884	-0.992063	0.000185	99
Es	-0.308532	-0.683273	0.333784	99
Es	-2.486436	-0.665235	0.006193	99
Es	0.031095	-1.200274	-0.012428	99
Es	0.129044	1.184347	0.099882	99
Es	2.943041	-1.124602	-0.131696	99
Es	2.430625	-1.844520	-0.218958	99
Es	0.900151	0.893962	0.111224	99
41
Properties=species:S:1:pos:R:3:Z:I:1 energy=-302.9817780376774 field_type=dipole dipole="0.000000 0.000000 0.000000" charge=0
C	-2.182293	0.007319	0.046106	6
C	-0.697773	-0.074091	0.044336	6
C	0.031007	-1.200251	-0.012434	6
C	1.414727	-0.715361	-0.003184	6
N	2.427657	-1.484091	-0.166684	7
N	1.470797	0.636519	0.161356	7
C	0.128917	1.184439	0.099886	6
H	-2.640863	-0.985521	-0.012464	1
H	-2.533153	0.591069	-0.810544	1
H	-2.536453	0.488349	0.963126	1
H	-0.267133	-2.230031	-0.075984	1
H	3.277946	-0.920351	-0.102174	1
H	2.201987	1.135599	-0.326004	1
H	-0.008443	1.791429	-0.799894	1
H	-0.086923	1.774969	0.994556	1
Es	-2.405166	0.404650	-0.531307	99
Es	-2.182249	0.007329	0.046106	99
Es	-1.441888	-0.028461	0.045943	99
Es	-0.697856	-0.073954	0.044352	99
Es	-0.029982	1.582495	0.702550	99
Es	2.427617	-1.483587	-0.166613	99
Es	2.942793	-1.123957	-0.131571	99
Es	-0.303686	-0.651392	-0.304552	99
Es	-0.169940	-1.885927	-0.053029	99
Es	1.470639	0.636436	0.160924	99
Es	2.048484	-1.216023	0.175241	99
Es	2.019484	-1.133737	-0.382406	99
Es	0.129042	1.184348	0.099881	99
Es	-2.407190	0.334965	0.663755	99
Es	2.431366	-1.843895	-0.220281	99
Es	-2.486461	-0.665245	0.006311	99
Es	0.728983	-0.992102	0.000208	99
Es	1.898195	0.925038	-0.146055	99
Es	1.414646	-0.715202	-0.003138	99
Es	0.029828	1.590731	-0.511113	99
Es	1.541930	0.564887	0.446938	99
Es	0.900183	0.894199	0.111645	99
Es	0.031094	-1.200269	-0.012419	99
Es	1.437725	0.076584	0.012334	99
Es	-0.308611	-0.683245	0.333572	99
Es	-0.306281	0.570960	0.073267	99
41
Properties=species:S:1:pos:R:3:Z:I:1 energy=-302.9817780376774 field_type=dipole dipole="0.000000 0.000000 0.000000" charge=0
C	-2.182293	0.007319	0.046106	6
C	-0.697773	-0.074091	0.044336	6
C	0.031007	-1.200251	-0.012434	6
C	1.414727	-0.715361	-0.003184	6
N	2.427657	-1.484091	-0.166684	7
N	1.470797	0.636519	0.161356	7
C	0.128917	1.184439	0.099886	6
H	-2.640863	-0.985521	-0.012464	1
H	-2.533153	0.591069	-0.810544	1
H	-2.536453	0.488349	0.963126	1
H	-0.267133	-2.230031	-0.075984	1
H	3.277946	-0.920351	-0.102174	1
H	2.201987	1.135599	-0.326004	1
H	-0.008443	1.791429	-0.799894	1
H	-0.086923	1.774969	0.994556	1
Es	-0.308856	-0.683205	0.333403	99
Es	2.019059	-1.133144	-0.382181	99
Es	-0.697856	-0.073952	0.044347	99
Es	-0.303484	-0.651406	-0.304566	99
Es	1.898407	0.925312	-0.145625	99
Es	-2.486537	-0.665190	0.006316	99
Es	-0.030075	1.582518	0.702601	99
Es	0.031094	-1.200266	-0.012432	99
Es	2.943273	-1.124718	-0.131895	99
Es	0.129042	1.184349	0.099881	99
Es	-0.170004	-1.885883	-0.052993	99
Es	1.470604	0.636332	0.160784	99
Es	0.029862	1.590693	-0.511092	99
Es	1.541965	0.563813	0.447406	99
Es	0.729015	-0.992186	0.000234	99
Es	-2.405187	0.404674	-0.531269	99
Es	-1.441924	-0.028541	0.045868	99
Es	2.430592	-1.843727	-0.220214	99
Es	2.049207	-1.216024	0.175317	99
Es	-2.407094	0.334974	0.663814	99
Es	-0.306137	0.570996	0.073296	99
Es	1.437576	0.077373	0.011223	99
Es	1.414648	-0.715202	-0.003139	99
Es	0.900150	0.894284	0.111962	99
Es	-2.182248	0.007330	0.046106	99
Es	2.427607	-1.483580	-0.166607	99
41
Properties=species:S:1:pos:R:3:Z:I:1 energy=-302.9817780376774 field_type=dipole dipole="0.000000 0.000000 0.000000" charge=0
C	-2.182293	0.007319	0.046106	6
C	-0.697773	-0.074091	0.044336	6
C	0.031007	-1.200251	-0.012434	6
C	1.414727	-0.715361	-0.003184	6
N	2.427657	-1.484091	-0.166684	7
N	1.470797	0.636519	0.161356	7
C	0.128917	1.184439	0.099886	6
H	-2.640863	-0.985521	-0.012464	1
H	-2.533153	0.591069	-0.810544	1
H	-2.536453	0.488349	0.963126	1
H	-0.267133	-2.230031	-0.075984	1
H	3.277946	-0.920351	-0.102174	1
H	2.201987	1.135599	-0.326004	1
H	-0.008443	1.791429	-0.799894	1
H	-0.086923	1.774969	0.994556	1
Es	2.943168	-1.124433	-0.131891	99
Es	-1.441976	-0.028519	0.045893	99
Es	2.430983	-1.843633	-0.219280	99
Es	0.031093	-1.200265	-0.012433	99
Es	1.542124	0.565964	0.447243	99
Es	0.728963	-0.992189	0.000075	99
Es	1.437951	0.076271	0.013066	99
Es	-0.169948	-1.885910	-0.053158	99
Es	-2.407179	0.334852	0.663890	99
Es	0.129042	1.184348	0.099882	99
Es	1.414649	-0.715203	-0.003142	99
Es	0.029817	1.590674	-0.511049	99
Es	1.897942	0.924648	-0.146465	99
Es	-0.697856	-0.073953	0.044347	99
Es	1.470587	0.636191	0.160718	99
Es	-0.304112	-0.651360	-0.304184	99
Es	2.427617	-1.483589	-0.166608	99
Es	-0.308292	-0.683282	0.333540	99
Es	0.900183	0.894075	0.111200	99
Es	-2.182249	0.007330	0.046106	99
Es	2.019233	-1.133930	-0.382885	99
Es	2.048734	-1.215547	0.175019	99
Es	-2.405166	0.404746	-0.531216	99
Es	-0.030035	1.582537	0.702516	99
Es	-0.306107	0.570998	0.073211	99
Es	-2.486465	-0.665199	0.006150	99
41
Properties=species:S:1:pos:R:3:Z:I:1 energy=-302.9817780376774 field_type=dipole dipole="0.000000 0.000000 0.000000" charge=0
C	-2.182293	0.007319	0.046106	6
C	-0.697773	-0.074091	0.044336	6
C	0.031007	-1.200251	-0.012434	6
C	1.414727	-0.715361	-0.003184	6
N	2.427657	-1.484091	-0.166684	7
N	1.470797	0.636519	0.161356	7
C	0.128917	1.184439	0.099886	6
H	-2.640863	-0.985521	-0.012464	1
H	-2.533153	0.591069	-0.810544	1
H	-2.536453	0.488349	0.963126	1
H	-0.267133	-2.230031	-0.075984	1
H	3.277946	-0.920351	-0.102174	1
H	2.201987	1.135599	-0.326004	1
H	-0.008443	1.791429	-0.799894	1
H	-0.086923	1.774969	0.994556	1
Es	2.943454	-1.124771	-0.131979	99
Es	-2.182252	0.007328	0.046106	99
Es	-2.405152	0.404667	-0.531355	99
Es	-2.486444	-0.665225	0.006304	99
Es	-0.306169	0.571085	0.073321	99
Es	1.437720	0.076999	0.011990	99
Es	-0.169998	-1.885940	-0.052976	99
Es	1.470613	0.636379	0.160821	99
Es	2.430668	-1.843295	-0.219427	99
Es	-0.303638	-0.651381	-0.304252	99
Es	2.048866	-1.215691	0.175200	99
Es	1.414648	-0.715203	-0.003143	99
Es	-1.442045	-0.028646	0.046017	99
Es	-0.308666	-0.683107	0.333222	99
Es	-0.697855	-0.073952	0.044342	99
Es	0.129041	1.184348	0.099881	99
Es	-0.029989	1.582613	0.702432	99
Es	0.029842	1.590639	-0.511027	99
Es	2.427617	-1.483618	-0.166615	99
Es	1.542075	0.564510	0.447283	99
Es	0.728931	-0.992266	0.000133	99
Es	1.898249	0.924886	-0.145951	99
Es	0.900138	0.894328	0.111623	99
Es	0.031092	-1.200262	-0.012427	99
Es	-2.407188	0.334942	0.663793	99
Es	2.019143	-1.133743	-0.382770	99
41
Properties=species:S:1:pos:R:3:Z:I:1 energy=-302.9817780376774 field_type=dipole dipole="0.000000 0.000000 0.000000" charge=0
C	-2.182293	0.007319	0.046106	6
C	-0.697773	-0.074091	0.044336	6
C	0.031007	-1.200251	-0.012434	6
C	1.414727	-0.715361	-0.003184	6
N	2.427657	-1.484091	-0.166684	7
N	1.470797	0.636519	0.161356	7
C	0.128917	1.184439	0.099886	6
H	-2.640863	-0.985521	-0.012464	1
H	-2.533153	0.591069	-0.810544	1
H	-2.536453	0.488349	0.963126	1
H	-0.267133	-2.230031	-0.075984	1
H	3.277946	-0.920351	-0.102174	1
H	2.201987	1.135599	-0.326004	1
H	-0.008443	1.791429	-0.799894	1
H	-0.086923	1.774969	0.994556	1
Es	-2.405114	0.404683	-0.531344	99
Es	-0.697854	-0.073949	0.044351	99
Es	-0.306021	0.571045	0.073283	99
Es	-0.170054	-1.885909	-0.052970	99
Es	1.541845	0.564574	0.446782	99
Es	-2.182250	0.007329	0.046106	99
Es	1.414648	-0.715202	-0.003142	99
Es	-2.486496	-0.665197	0.006285	99
Es	-2.407165	0.334959	0.663819	99
Es	0.031093	-1.200263	-0.012429	99
Es	0.900147	0.894441	0.111711	99
Es	-1.442122	-0.028679	0.045991	99
Es	1.437722	0.076819	0.012338	99
Es	-0.303474	-0.651347	-0.304259	99
Es	-0.030081	1.582528	0.702473	99
Es	2.430659	-1.843240	-0.219400	99
Es	1.470598	0.636360	0.160764	99
Es	1.898530	0.924932	-0.145822	99
Es	0.029833	1.590693	-0.510983	99
Es	-0.308830	-0.683100	0.333015	99
Es	2.427613	-1.483590	-0.166615	99
Es	2.019040	-1.133680	-0.382817	99
Es	0.129042	1.184348	0.099881	99
Es	2.943481	-1.124815	-0.131925	99
Es	2.048960	-1.215769	0.175190	99
Es	0.728950	-0.992348	0.000259	99
41
Properties=species:S:1:pos:R:3:Z:I:1 energy=-302.9817780376774 field_type=dipole dipole="0.000000 0.000000 0.000000" charge=0
C	-2.182293	0.007319	0.046106	6
C	-0.697773	-0.074091	0.044336	6
C	0.031007	-1.200251	-0.012434	6
C	1.414727	-0.715361	-0.003184	6
N	2.427657	-1.484091	-0.166684	7
N	1.470797	0.636519	0.161356	7
C	0.128917	1.184439	0.099886	6
H	-2.640863	-0.985521	-0.012464	1
H	-2.533153	0.591069	-0.810544	1
H	-2.536453	0.488349	0.963126	1
H	-0.267133	-2.230031	-0.075984	1
H	3.277946	-0.920351	-0.102174	1
H	2.201987	1.135599	-0.326004	1
H	-0.008443	1.791429	-0.799894	1
H	-0.086923	1.774969	0.994556	1
Es	2.430590	-1.842991	-0.218960	99
Es	-0.308322	-0.683054	0.333245	99
Es	2.943659	-1.124957	-0.131933	99
Es	0.728917	-0.992368	-0.000257	99
Es	-2.405046	0.404717	-0.531234	99
Es	-0.697857	-0.073951	0.044342	99
Es	1.541751	0.564315	0.447165	99
Es	-0.305988	0.571102	0.073196	99
Es	-2.486580	-0.665234	0.006183	99
Es	2.427615	-1.483591	-0.166612	99
Es	0.031095	-1.200266	-0.012435	99
Es	0.029814	1.590715	-0.510911	99
Es	1.437870	0.077090	0.011884	99
Es	-0.030055	1.582522	0.702449	99
Es	2.019463	-1.134195	-0.383244	99
Es	-0.170001	-1.885886	-0.052968	99
Es	1.414648	-0.715202	-0.003141	99
Es	0.129042	1.184348	0.099881	99
Es	1.470609	0.636287	0.160748	99
Es	0.900126	0.894403	0.111408	99
Es	-2.407175	0.334947	0.663804	99
Es	2.048409	-1.215329	0.175121	99
Es	-1.442159	-0.028740	0.045981	99
Es	-2.182250	0.007330	0.046109	99
Es	-0.304029	-0.651402	-0.303850	99
Es	1.898553	0.925015	-0.145429	99
41
Properties=species:S:1:pos:R:3:Z:I:1 energy=-302.9817780376774 field_type=dipole dipole="0.000000 0.000000 0.000000" charge=0
C	-2.182293	0.007319	0.046106	6
C	-0.697773	-0.074091	0.044336	6
C	0.031007	-1.200251	-0.012434	6
C	1.414727	-0.715361	-0.003184	6
N	2.427657	-1.484091	-0.166684	7
N	1.470797	0.636519	0.161356	7
C	0.128917	1.184439	0.099886	6
H	-2.640863	-0.985521	-0.012464	1
H	-2.533153	0.591069	-0.810544	1
H	-2.536453	0.488349	0.963126	1
H	-0.267133	-2.230031	-0.075984	1
H	3.277946	-0.920351	-0.102174	1
H	2.201987	1.135599	-0.326004	1
H	-0.008443	1.791429	-0.799894	1
H	-0.086923	1.774969	0.994556	1
Es	0.129039	1.184349	0.099881	99
Es	2.018800	-1.133482	-0.382562	99
Es	2.430494	-1.842826	-0.219766	99
Es	2.427612	-1.483585	-0.166617	99
Es	-0.303565	-0.651397	-0.303831	99
Es	0.900115	0.894603	0.111888	99
Es	1.470604	0.636356	0.160835	99
Es	0.031093	-1.200263	-0.012430	99
Es	-2.405057	0.404680	-0.531348	99
Es	-2.182250	0.007328	0.046106	99
Es	0.029804	1.590649	-0.510923	99
Es	0.729018	-0.992377	0.000043	99
Es	-1.442279	-0.028810	0.046050	99
Es	1.898404	0.925026	-0.145479	99
Es	2.049114	-1.216178	0.175449	99
Es	-0.308779	-0.682979	0.332708	99
Es	-0.170102	-1.885919	-0.052881	99
Es	-2.486510	-0.665223	0.006257	99
Es	-0.030066	1.582580	0.702406	99
Es	-2.407186	0.334977	0.663814	99
Es	1.437624	0.077810	0.010922	99
Es	-0.697856	-0.073952	0.044346	99
Es	-0.305890	0.571100	0.073231	99
Es	1.414649	-0.715203	-0.003128	99
Es	2.943703	-1.125006	-0.132060	99
Es	1.542170	0.563369	0.447632	99
41
Properties=species:S:1:pos:R:3:Z:I:1 energy=-302.9817780376774 field_type=dipole dipole="0.000000 0.000000 0.000000" charge=0
C	-2.182293	0.007319	0.046106	6
C	-0.697773	-0.074091	0.044336	6
C	0.031007	-1.200251	-0.012434	6
C	1.414727	-0.715361	-0.003184	6
N	2.427657	-1.484091	-0.166684	7
N	1.470797	0.636519	0.161356	7
C	0.128917	1.184439	0.099886	6
H	-2.640863	-0.985521	-0.012464	1
H	-2.533153	0.591069	-0.810544	1
H	-2.536453	0.488349	0.963126	1
H	-0.267133	-2.230031	-0.075984	1
H	3.277946	-0.920351	-0.102174	1
H	2.201987	1.135599	-0.326004	1
H	-0.008443	1.791429	-0.799894	1
H	-0.086923	1.774969	0.994556	1
Es	1.414648	-0.715204	-0.003141	99
Es	-0.303678	-0.651412	-0.303933	99
Es	-2.405097	0.404694	-0.531359	99
Es	0.900146	0.894924	0.112356	99
Es	-0.697856	-0.073953	0.044347	99
Es	1.898620	0.925219	-0.145099	99
Es	2.943730	-1.125017	-0.132246	99
Es	1.470610	0.636347	0.160811	99
Es	-2.407127	0.334970	0.663825	99
Es	-0.030081	1.582471	0.702383	99
Es	-0.305746	0.571032	0.073470	99
Es	1.542217	0.562255	0.447717	99
Es	-0.308793	-0.683011	0.332545	99
Es	1.437391	0.078472	0.009939	99
Es	-2.182249	0.007329	0.046106	99
Es	0.029684	1.590717	-0.510919	99
Es	2.427620	-1.483598	-0.166609	99
Es	2.048895	-1.215977	0.175624	99
Es	-2.486515	-0.665225	0.006295	99
Es	2.018903	-1.133874	-0.382836	99
Es	-1.442322	-0.028754	0.045990	99
Es	0.729057	-0.992440	0.000036	99
Es	-0.170083	-1.885868	-0.052732	99
Es	0.129039	1.184348	0.099881	99
Es	0.031092	-1.200263	-0.012430	99
Es	2.430595	-1.842556	-0.219477	99
41
Properties=species:S:1:pos:R:3:Z:I:1 energy=-302.9817780376774 field_type=dipole dipole="0.000000 0.000000 0.000000" charge=0
C	-2.182293	0.007319	0.046106	6
C	-0.697773	-0.074091	0.044336	6
C	0.031007	-1.200251	-0.012434	6
C	1.414727	-0.715361	-0.003184	6
N	2.427657	-1.484091	-0.166684	7
N	1.470797	0.636519	0.161356	7
C	0.128917	1.184439	0.099886	6
H	-2.640863	-0.985521	-0.012464	1
H	-2.533153	0.591069	-0.810544	1
H	-2.536453	0.488349	0.963126	1
H	-0.267133	-2.230031	-0.075984	1
H	3.277946	-0.920351	-0.102174	1
H	2.201987	1.135599	-0.326004	1
H	-0.008443	1.791429	-0.799894	1
H	-0.086923	1.774969	0.994556	1
Es	-0.030109	1.582540	0.702348	99
Es	-1.442374	-0.028932	0.045883	99
Es	0.728993	-0.992428	0.000082	99
Es	-0.697856	-0.073954	0.044346	99
Es	1.897920	0.924761	-0.145975	99
Es	1.470614	0.636274	0.160755	99
Es	2.048729	-1.215918	0.175409	99
Es	2.430354	-1.842304	-0.219324	99
Es	-2.486451	-0.665203	0.006273	99
Es	-0.169990	-1.885892	-0.053120	99
Es	-0.304165	-0.651277	-0.303453	99
Es	-2.405200	0.404722	-0.531329	99
Es	-2.407083	0.334897	0.663911	99
Es	0.129038	1.184349	0.099882	99
Es	0.899989	0.895317	0.113519	99
Es	2.019025	-1.133916	-0.382978	99
Es	-0.305809	0.571134	0.073122	99
Es	0.031095	-1.200268	-0.012436	99
Es	1.543281	0.562151	0.447781	99
Es	0.029795	1.590681	-0.510903	99
Es	1.437158	0.078702	0.009712	99
Es	2.427613	-1.483595	-0.166612	99
Es	1.414648	-0.715203	-0.003142	99
Es	2.944040	-1.125232	-0.132036	99
Es	-0.308304	-0.683108	0.332724	99
Es	-2.182251	0.007329	0.046106	99
