45
Properties=species:S:1:pos:R:3:Z:I:1 energy=-288.10404281732605 field_type=dipole dipole="0.000000 0.000000 0.000000" charge=0
C	-1.430582	0.258438	1.258356	6
C	0.055058	0.062648	0.979086	6
C	0.385338	-1.366102	0.496046	6
N	0.442548	-1.308682	-0.975504	7
C	0.842128	0.065358	-1.310994	6
C	-0.171052	1.157298	-1.429154	6
C	0.566078	0.950968	-0.128074	6
H	-1.648592	1.308448	1.477736	1
H	-1.737222	-0.340602	2.121886	1
H	-2.053632	-0.044362	0.411486	1
H	0.614238	0.271358	1.899786	1
H	-0.334702	-2.113362	0.842556	1
H	1.376258	-1.649722	0.871796	1
H	1.107468	-1.999472	-1.321244	1
H	1.786048	0.187728	-1.833664	1
H	0.090518	2.024928	-2.023044	1
H	-1.212732	0.875848	-1.514064	1
H	1.322838	1.659288	0.177006	1
Es	0.846151	0.462390	-0.641525	99
Es	0.015240	1.746129	-1.826343	99
Es	0.841986	0.065345	-1.310916	99
Es	0.437724	-1.334741	-0.337905	99
Es	0.439209	0.207362	1.609003	99
Es	-1.849007	0.051240	0.678295	99
Es	0.282025	0.532292	0.418669	99
Es	-0.874160	0.967678	-1.477179	99
Es	0.055035	0.062637	0.979050	99
Es	0.634836	-0.712537	-1.127329	99
Es	-1.430566	0.258434	1.258359	99
Es	-0.170925	1.157227	-1.429030	99
Es	1.075540	1.444875	0.073839	99
Es	-1.638349	-0.153959	1.850989	99
Es	-0.695837	0.156970	1.113622	99
Es	0.082451	1.199460	-0.677568	99
Es	0.865368	-1.709309	-1.174262	99
Es	-0.110228	-1.879346	0.737552	99
Es	0.124928	-1.371652	-1.109725	99
Es	0.291928	0.555827	-1.561387	99
Es	1.074131	-1.563459	0.761641	99
Es	0.206888	-0.664111	0.746254	99
Es	-1.575934	0.976773	1.409538	99
Es	0.385348	-1.366086	0.495917	99
Es	0.443088	-1.308578	-0.975296	99
Es	0.566025	0.950925	-0.128230	99
Es	1.484700	0.144251	-1.677807	99
45
Properties=species:S:1:pos:R:3:Z:I:1 energy=-288.10404281732605 field_type=dipole dipole="0.000000 0.000000 0.000000" charge=0
C	-1.430582	0.258438	1.258356	6
C	0.055058	0.062648	0.979086	6
C	0.385338	-1.366102	0.496046	6
N	0.442548	-1.308682	-0.975504	7
C	0.842128	0.065358	-1.310994	6
C	-0.171052	1.157298	-1.429154	6
C	0.566078	0.950968	-0.128074	6
H	-1.648592	1.308448	1.477736	1
H	-1.737222	-0.340602	2.121886	1
H	-2.053632	-0.044362	0.411486	1
H	0.614238	0.271358	1.899786	1
H	-0.334702	-2.113362	0.842556	1
H	1.376258	-1.649722	0.871796	1
H	1.107468	-1.999472	-1.321244	1
H	1.786048	0.187728	-1.833664	1
H	0.090518	2.024928	-2.023044	1
H	-1.212732	0.875848	-1.514064	1
H	1.322838	1.659288	0.177006	1
Es	0.841979	0.065346	-1.310924	99
Es	0.443108	-1.308521	-0.975261	99
Es	0.439199	0.207403	1.608932	99
Es	-0.110257	-1.879322	0.737580	99
Es	0.634851	-0.712364	-1.127504	99
Es	0.291929	0.555784	-1.561353	99
Es	0.282043	0.532301	0.418686	99
Es	0.082363	1.199669	-0.677374	99
Es	-0.874075	0.967708	-1.477226	99
Es	1.075376	1.444806	0.073873	99
Es	0.566022	0.950927	-0.128236	99
Es	-1.430568	0.258435	1.258360	99
Es	-1.575949	0.976768	1.409551	99
Es	0.385349	-1.366086	0.495916	99
Es	0.437774	-1.334884	-0.337760	99
Es	1.484618	0.144183	-1.677917	99
Es	0.864922	-1.709539	-1.174585	99
Es	-1.638308	-0.153911	1.850968	99
Es	-1.849057	0.051205	0.678322	99
Es	0.207062	-0.664078	0.746320	99
Es	1.074048	-1.563555	0.761562	99
Es	0.125248	-1.371463	-1.109421	99
Es	0.015210	1.746052	-1.826374	99
Es	-0.170933	1.157240	-1.429040	99
Es	0.055035	0.062638	0.979049	99
Es	-0.695837	0.156986	1.113636	99
Es	0.846444	0.462309	-0.641553	99
45
Properties=species:S:1:pos:R:3:Z:I:1 energy=-288.10404281732605 field_type=dipole dipole="0.000000 0.000000 0.000000" charge=0
C	-1.430582	0.258438	1.258356	6
C	0.055058	0.062648	0.979086	6
C	0.385338	-1.366102	0.496046	6
N	0.442548	-1.308682	-0.975504	7
C	0.842128	0.065358	-1.310994	6
C	-0.171052	1.157298	-1.429154	6
C	0.566078	0.950968	-0.128074	6
H	-1.648592	1.308448	1.477736	1
H	-1.737222	-0.340602	2.121886	1
H	-2.053632	-0.044362	0.411486	1
H	0.614238	0.271358	1.899786	1
H	-0.334702	-2.113362	0.842556	1
H	1.376258	-1.649722	0.871796	1
H	1.107468	-1.999472	-1.321244	1
H	1.786048	0.187728	-1.833664	1
H	0.090518	2.024928	-2.023044	1
H	-1.212732	0.875848	-1.514064	1
H	1.322838	1.659288	0.177006	1
Es	0.443011	-1.308540	-0.975291	99
Es	-1.575985	0.976696	1.409539	99
Es	0.841983	0.065349	-1.310917	99
Es	0.291972	0.555601	-1.561725	99
Es	0.207025	-0.663980	0.746440	99
Es	-1.638420	-0.153962	1.850965	99
Es	0.055035	0.062637	0.979050	99
Es	0.015117	1.745984	-1.826309	99
Es	-1.430567	0.258435	1.258360	99
Es	-1.848993	0.051301	0.678328	99
Es	0.635110	-0.712441	-1.127683	99
Es	-0.110139	-1.879310	0.737519	99
Es	0.439163	0.207364	1.608887	99
Es	0.385347	-1.366086	0.495919	99
Es	0.846599	0.462376	-0.641524	99
Es	-0.170928	1.157236	-1.429036	99
Es	0.437899	-1.335000	-0.337675	99
Es	1.073940	-1.563613	0.761563	99
Es	0.566021	0.950930	-0.128227	99
Es	0.864641	-1.709528	-1.174619	99
Es	0.125381	-1.371389	-1.109388	99
Es	-0.695784	0.157008	1.113677	99
Es	1.484383	0.144219	-1.677860	99
Es	0.082386	1.199778	-0.677093	99
Es	0.282113	0.532406	0.418711	99
Es	1.075274	1.444770	0.073850	99
Es	-0.873989	0.967796	-1.477233	99
45
Properties=species:S:1:pos:R:3:Z:I:1 energy=-288.10404281732605 field_type=dipole dipole="0.000000 0.000000 0.000000" charge=0
C	-1.430582	0.258438	1.258356	6
C	0.055058	0.062648	0.979086	6
C	0.385338	-1.366102	0.496046	6
N	0.442548	-1.308682	-0.975504	7
C	0.842128	0.065358	-1.310994	6
C	-0.171052	1.157298	-1.429154	6
C	0.566078	0.950968	-0.128074	6
H	-1.648592	1.308448	1.477736	1
H	-1.737222	-0.340602	2.121886	1
H	-2.053632	-0.044362	0.411486	1
H	0.614238	0.271358	1.899786	1
H	-0.334702	-2.113362	0.842556	1
H	1.376258	-1.649722	0.871796	1
H	1.107468	-1.999472	-1.321244	1
H	1.786048	0.187728	-1.833664	1
H	0.090518	2.024928	-2.023044	1
H	-1.212732	0.875848	-1.514064	1
H	1.322838	1.659288	0.177006	1
Es	0.846908	0.462270	-0.641396	99
Es	0.841984	0.065350	-1.310916	99
Es	-1.576020	0.976692	1.409556	99
Es	0.864590	-1.709699	-1.174848	99
Es	-0.873954	0.967876	-1.477165	99
Es	0.439152	0.207404	1.608867	99
Es	-1.849037	0.051296	0.678397	99
Es	0.443121	-1.308530	-0.975250	99
Es	-0.170929	1.157236	-1.429030	99
Es	0.082488	1.199820	-0.677038	99
Es	0.015049	1.745975	-1.826246	99
Es	1.073896	-1.563563	0.761638	99
Es	0.566022	0.950925	-0.128240	99
Es	0.291931	0.555593	-1.562002	99
Es	-0.110152	-1.879312	0.737516	99
Es	0.385349	-1.366086	0.495915	99
Es	0.438149	-1.334987	-0.337756	99
Es	0.055036	0.062638	0.979050	99
Es	1.075099	1.444665	0.073799	99
Es	0.634955	-0.712429	-1.127754	99
Es	-1.638394	-0.153944	1.850935	99
Es	-1.430567	0.258434	1.258360	99
Es	0.207012	-0.664061	0.746412	99
Es	0.125295	-1.371279	-1.109128	99
Es	1.484261	0.144182	-1.677850	99
Es	0.282059	0.532547	0.418772	99
Es	-0.695708	0.157024	1.113630	99
45
Properties=species:S:1:pos:R:3:Z:I:1 energy=-288.10404281732605 field_type=dipole dipole="0.000000 0.000000 0.000000" charge=0
C	-1.430582	0.258438	1.258356	6
C	0.055058	0.062648	0.979086	6
C	0.385338	-1.366102	0.496046	6
N	0.442548	-1.308682	-0.975504	7
C	0.842128	0.065358	-1.310994	6
C	-0.171052	1.157298	-1.429154	6
C	0.566078	0.950968	-0.128074	6
H	-1.648592	1.308448	1.477736	1
H	-1.737222	-0.340602	2.121886	1
H	-2.053632	-0.044362	0.411486	1
H	0.614238	0.271358	1.899786	1
H	-0.334702	-2.113362	0.842556	1
H	1.376258	-1.649722	0.871796	1
H	1.107468	-1.999472	-1.321244	1
H	1.786048	0.187728	-1.833664	1
H	0.090518	2.024928	-2.023044	1
H	-1.212732	0.875848	-1.514064	1
H	1.322838	1.659288	0.177006	1
Es	-0.695726	0.156949	1.113704	99
Es	1.484108	0.144148	-1.677840	99
Es	-1.575981	0.976698	1.409504	99
Es	0.055035	0.062638	0.979051	99
Es	1.073902	-1.563651	0.761625	99
Es	-1.849051	0.051308	0.678446	99
Es	0.439149	0.207352	1.608771	99
Es	0.634759	-0.712325	-1.127979	99
Es	0.282168	0.532536	0.418803	99
Es	0.385348	-1.366087	0.495920	99
Es	0.566023	0.950925	-0.128237	99
Es	1.074952	1.444626	0.073814	99
Es	-0.170923	1.157234	-1.429031	99
Es	0.082258	1.200067	-0.676797	99
Es	0.207099	-0.664043	0.746424	99
Es	-1.430568	0.258434	1.258359	99
Es	0.292084	0.555470	-1.561994	99
Es	0.847107	0.462330	-0.641520	99
Es	0.443092	-1.308533	-0.975263	99
Es	0.864684	-1.709577	-1.174694	99
Es	-1.638459	-0.153874	1.850945	99
Es	0.437695	-1.335042	-0.337625	99
Es	0.125830	-1.371479	-1.109239	99
Es	0.015050	1.745940	-1.826272	99
Es	-0.110161	-1.879224	0.737533	99
Es	-0.873861	0.967865	-1.477265	99
Es	0.841982	0.065352	-1.310917	99
45
Properties=species:S:1:pos:R:3:Z:I:1 energy=-288.10404281732605 field_type=dipole dipole="0.000000 0.000000 0.000000" charge=0
C	-1.430582	0.258438	1.258356	6
C	0.055058	0.062648	0.979086	6
C	0.385338	-1.366102	0.496046	6
N	0.442548	-1.308682	-0.975504	7
C	0.842128	0.065358	-1.310994	6
C	-0.171052	1.157298	-1.429154	6
C	0.566078	0.950968	-0.128074	6
H	-1.648592	1.308448	1.477736	1
H	-1.737222	-0.340602	2.121886	1
H	-2.053632	-0.044362	0.411486	1
H	0.614238	0.271358	1.899786	1
H	-0.334702	-2.113362	0.842556	1
H	1.376258	-1.649722	0.871796	1
H	1.107468	-1.999472	-1.321244	1
H	1.786048	0.187728	-1.833664	1
H	0.090518	2.024928	-2.023044	1
H	-1.212732	0.875848	-1.514064	1
H	1.322838	1.659288	0.177006	1
Es	-1.430567	0.258434	1.258360	99
Es	0.082318	1.200233	-0.676610	99
Es	0.207079	-0.664067	0.746465	99
Es	0.439113	0.207355	1.608742	99
Es	-1.638458	-0.153864	1.850928	99
Es	0.282131	0.532639	0.418799	99
Es	-0.110082	-1.879218	0.737553	99
Es	0.055037	0.062638	0.979051	99
Es	0.864425	-1.709794	-1.174885	99
Es	0.635156	-0.712444	-1.127896	99
Es	1.484024	0.144204	-1.677852	99
Es	0.437422	-1.335233	-0.337559	99
Es	0.385348	-1.366086	0.495919	99
Es	0.126040	-1.371009	-1.109326	99
Es	0.847201	0.462267	-0.641460	99
Es	-0.695656	0.157037	1.113713	99
Es	0.566019	0.950927	-0.128237	99
Es	-1.849055	0.051297	0.678454	99
Es	1.073861	-1.563629	0.761628	99
Es	0.014957	1.745827	-1.826229	99
Es	-1.576051	0.976640	1.409505	99
Es	0.841984	0.065347	-1.310918	99
Es	1.074869	1.444561	0.073848	99
Es	-0.873769	0.967954	-1.477273	99
Es	0.443080	-1.308536	-0.975269	99
Es	0.292100	0.555316	-1.562189	99
Es	-0.170932	1.157240	-1.429038	99
45
Properties=species:S:1:pos:R:3:Z:I:1 energy=-288.10404281732605 field_type=dipole dipole="0.000000 0.000000 0.000000" charge=0
C	-1.430582	0.258438	1.258356	6
C	0.055058	0.062648	0.979086	6
C	0.385338	-1.366102	0.496046	6
N	0.442548	-1.308682	-0.975504	7
C	0.842128	0.065358	-1.310994	6
C	-0.171052	1.157298	-1.429154	6
C	0.566078	0.950968	-0.128074	6
H	-1.648592	1.308448	1.477736	1
H	-1.737222	-0.340602	2.121886	1
H	-2.053632	-0.044362	0.411486	1
H	0.614238	0.271358	1.899786	1
H	-0.334702	-2.113362	0.842556	1
H	1.376258	-1.649722	0.871796	1
H	1.107468	-1.999472	-1.321244	1
H	1.786048	0.187728	-1.833664	1
H	0.090518	2.024928	-2.023044	1
H	-1.212732	0.875848	-1.514064	1
H	1.322838	1.659288	0.177006	1
Es	0.082244	1.200340	-0.676451	99
Es	0.439146	0.207369	1.608706	99
Es	0.864174	-1.710114	-1.175226	99
Es	1.483924	0.144151	-1.677776	99
Es	0.635128	-0.712466	-1.127904	99
Es	0.847398	0.462224	-0.641558	99
Es	0.207073	-0.664111	0.746463	99
Es	-0.170926	1.157236	-1.429032	99
Es	-0.873737	0.968009	-1.477345	99
Es	-1.576004	0.976642	1.409514	99
Es	0.055036	0.062637	0.979050	99
Es	0.282068	0.532733	0.418906	99
Es	0.841980	0.065358	-1.310914	99
Es	0.437800	-1.335197	-0.337721	99
Es	0.443030	-1.308541	-0.975280	99
Es	0.014945	1.745764	-1.826161	99
Es	-1.430567	0.258434	1.258360	99
Es	-0.110032	-1.879171	0.737539	99
Es	-0.695620	0.156987	1.113645	99
Es	0.125935	-1.370747	-1.108860	99
Es	0.566023	0.950925	-0.128239	99
Es	0.385348	-1.366087	0.495918	99
Es	-1.849209	0.051268	0.678553	99
Es	1.073835	-1.563665	0.761648	99
Es	0.292267	0.555244	-1.562329	99
Es	1.074707	1.444581	0.073780	99
Es	-1.638371	-0.153766	1.850939	99
45
Properties=species:S:1:pos:R:3:Z:I:1 energy=-288.10404281732605 field_type=dipole dipole="0.000000 0.000000 0.000000" charge=0
C	-1.430582	0.258438	1.258356	6
C	0.055058	0.062648	0.979086	6
C	0.385338	-1.366102	0.496046	6
N	0.442548	-1.308682	-0.975504	7
C	0.842128	0.065358	-1.310994	6
C	-0.171052	1.157298	-1.429154	6
C	0.566078	0.950968	-0.128074	6
H	-1.648592	1.308448	1.477736	1
H	-1.737222	-0.340602	2.121886	1
H	-2.053632	-0.044362	0.411486	1
H	0.614238	0.271358	1.899786	1
H	-0.334702	-2.113362	0.842556	1
H	1.376258	-1.649722	0.871796	1
H	1.107468	-1.999472	-1.321244	1
H	1.786048	0.187728	-1.833664	1
H	0.090518	2.024928	-2.023044	1
H	-1.212732	0.875848	-1.514064	1
H	1.322838	1.659288	0.177006	1
Es	-1.576041	0.976601	1.409489	99
Es	0.634526	-0.712110	-1.128549	99
Es	-1.849085	0.051369	0.678542	99
Es	0.282134	0.532721	0.418970	99
Es	1.074656	1.444494	0.073806	99
Es	-0.110021	-1.879100	0.737543	99
Es	0.437246	-1.335307	-0.337468	99
Es	0.055036	0.062638	0.979051	99
Es	0.566025	0.950922	-0.128242	99
Es	0.292130	0.555296	-1.562874	99
Es	0.082511	1.200366	-0.675996	99
Es	0.126736	-1.371500	-1.109069	99
Es	1.073822	-1.563740	0.761641	99
Es	1.483680	0.144069	-1.677683	99
Es	-1.430568	0.258435	1.258360	99
Es	-0.170926	1.157235	-1.429033	99
Es	0.439109	0.207341	1.608756	99
Es	-0.695614	0.157039	1.113598	99
Es	0.443087	-1.308533	-0.975270	99
Es	0.847574	0.462242	-0.641562	99
Es	0.014858	1.745733	-1.826095	99
Es	0.864465	-1.709597	-1.174808	99
Es	0.207130	-0.664055	0.746435	99
Es	0.841981	0.065356	-1.310915	99
Es	-0.873714	0.968076	-1.477275	99
Es	-1.638492	-0.153867	1.850953	99
Es	0.385349	-1.366086	0.495920	99
45
Properties=species:S:1:pos:R:3:Z:I:1 energy=-288.10404281732605 field_type=dipole dipole="0.000000 0.000000 0.000000" charge=0
C	-1.430582	0.258438	1.258356	6
C	0.055058	0.062648	0.979086	6
C	0.385338	-1.366102	0.496046	6
N	0.442548	-1.308682	-0.975504	7
C	0.842128	0.065358	-1.310994	6
C	-0.171052	1.157298	-1.429154	6
C	0.566078	0.950968	-0.128074	6
H	-1.648592	1.308448	1.477736	1
H	-1.737222	-0.340602	2.121886	1
H	-2.053632	-0.044362	0.411486	1
H	0.614238	0.271358	1.899786	1
H	-0.334702	-2.113362	0.842556	1
H	1.376258	-1.649722	0.871796	1
H	1.107468	-1.999472	-1.321244	1
H	1.786048	0.187728	-1.833664	1
H	0.090518	2.024928	-2.023044	1
H	-1.212732	0.875848	-1.514064	1
H	1.322838	1.659288	0.177006	1
Es	0.439029	0.207283	1.608704	99
Es	0.127226	-1.371343	-1.108759	99
Es	0.082293	1.200537	-0.675993	99
Es	1.483710	0.144068	-1.677769	99
Es	0.385349	-1.366087	0.495921	99
Es	-1.849100	0.051312	0.678567	99
Es	0.207080	-0.663974	0.746536	99
Es	0.847771	0.462054	-0.641542	99
Es	0.566023	0.950925	-0.128239	99
Es	0.864244	-1.709859	-1.175057	99
Es	-1.430567	0.258434	1.258360	99
Es	0.841981	0.065353	-1.310915	99
Es	1.073737	-1.563721	0.761638	99
Es	0.055036	0.062638	0.979051	99
Es	0.282163	0.533038	0.418975	99
Es	1.074459	1.444472	0.073769	99
Es	-0.695601	0.157014	1.113639	99
Es	-0.109917	-1.879149	0.737494	99
Es	-1.576065	0.976584	1.409424	99
Es	-0.170926	1.157235	-1.429033	99
Es	-0.873531	0.968073	-1.477323	99
Es	-1.638508	-0.153778	1.850967	99
Es	0.443133	-1.308522	-0.975247	99
Es	0.634341	-0.711979	-1.128705	99
Es	0.437164	-1.335393	-0.337348	99
Es	0.292248	0.555089	-1.562693	99
Es	0.014826	1.745734	-1.826194	99
45
Properties=species:S:1:pos:R:3:Z:I:1 energy=-288.10404281732605 field_type=dipole dipole="0.000000 0.000000 0.000000" charge=0
C	-1.430582	0.258438	1.258356	6
C	0.055058	0.062648	0.979086	6
C	0.385338	-1.366102	0.496046	6
N	0.442548	-1.308682	-0.975504	7
C	0.842128	0.065358	-1.310994	6
C	-0.171052	1.157298	-1.429154	6
C	0.566078	0.950968	-0.128074	6
H	-1.648592	1.308448	1.477736	1
H	-1.737222	-0.340602	2.121886	1
H	-2.053632	-0.044362	0.411486	1
H	0.614238	0.271358	1.899786	1
H	-0.334702	-2.113362	0.842556	1
H	1.376258	-1.649722	0.871796	1
H	1.107468	-1.999472	-1.321244	1
H	1.786048	0.187728	-1.833664	1
H	0.090518	2.024928	-2.023044	1
H	-1.212732	0.875848	-1.514064	1
H	1.322838	1.659288	0.177006	1
Es	0.385348	-1.366087	0.495923	99
Es	0.282081	0.533001	0.418907	99
Es	0.634610	-0.712147	-1.128573	99
Es	-0.873530	0.968127	-1.477330	99
Es	1.483544	0.144052	-1.677799	99
Es	-0.109886	-1.879156	0.737512	99
Es	1.074363	1.444409	0.073808	99
Es	0.864318	-1.709644	-1.174873	99
Es	-1.576071	0.976598	1.409525	99
Es	0.055036	0.062638	0.979050	99
Es	0.439077	0.207342	1.608578	99
Es	1.073677	-1.563724	0.761613	99
Es	0.082294	1.200706	-0.676015	99
Es	0.848036	0.462084	-0.641438	99
Es	0.566027	0.950921	-0.128239	99
Es	-1.430568	0.258436	1.258361	99
Es	0.437325	-1.335372	-0.337418	99
Es	0.443103	-1.308525	-0.975264	99
Es	-0.170926	1.157235	-1.429033	99
Es	0.126770	-1.371425	-1.109060	99
Es	0.014769	1.745622	-1.826142	99
Es	-0.695573	0.156992	1.113741	99
Es	-1.638535	-0.153833	1.850864	99
Es	-1.849099	0.051392	0.678592	99
Es	0.207128	-0.664019	0.746639	99
Es	0.292295	0.555056	-1.562793	99
Es	0.841981	0.065358	-1.310914	99
45
Properties=species:S:1:pos:R:3:Z:I:1 energy=-288.10404281732605 field_type=dipole dipole="0.000000 0.000000 0.000000" charge=0
C	-1.430582	0.258438	1.258356	6
C	0.055058	0.062648	0.979086	6
C	0.385338	-1.366102	0.496046	6
N	0.442548	-1.308682	-0.975504	7
C	0.842128	0.065358	-1.310994	6
C	-0.171052	1.157298	-1.429154	6
C	0.566078	0.950968	-0.128074	6
H	-1.648592	1.308448	1.477736	1
H	-1.737222	-0.340602	2.121886	1
H	-2.053632	-0.044362	0.411486	1
H	0.614238	0.271358	1.899786	1
H	-0.334702	-2.113362	0.842556	1
H	1.376258	-1.649722	0.871796	1
H	1.107468	-1.999472	-1.321244	1
H	1.786048	0.187728	-1.833664	1
H	0.090518	2.024928	-2.023044	1
H	-1.212732	0.875848	-1.514064	1
H	1.322838	1.659288	0.177006	1
Es	-0.695542	0.157040	1.113766	99
Es	1.074301	1.444332	0.073760	99
Es	1.483447	0.144048	-1.677776	99
Es	0.292379	0.554928	-1.562941	99
Es	-1.576136	0.976568	1.409500	99
Es	0.282159	0.533023	0.419003	99
Es	0.443103	-1.308530	-0.975254	99
Es	0.634543	-0.712058	-1.128753	99
Es	-0.109843	-1.879140	0.737501	99
Es	-1.849072	0.051365	0.678595	99
Es	-0.873459	0.968193	-1.477330	99
Es	0.566023	0.950922	-0.128243	99
Es	0.864034	-1.709948	-1.175188	99
Es	0.841980	0.065360	-1.310913	99
Es	0.207147	-0.664008	0.746654	99
Es	0.437140	-1.335513	-0.337318	99
Es	1.073636	-1.563735	0.761627	99
Es	0.439041	0.207338	1.608553	99
Es	0.385349	-1.366087	0.495922	99
Es	0.127328	-1.371104	-1.108765	99
Es	-1.430568	0.258434	1.258360	99
Es	0.082219	1.200881	-0.675819	99
Es	-0.170925	1.157234	-1.429032	99
Es	0.014718	1.745576	-1.826106	99
Es	-1.638551	-0.153819	1.850856	99
Es	0.848107	0.462098	-0.641483	99
Es	0.055036	0.062638	0.979051	99
45
Properties=species:S:1:pos:R:3:Z:I:1 energy=-288.10404281732605 field_type=dipole dipole="0.000000 0.000000 0.000000" charge=0
C	-1.430582	0.258438	1.258356	6
C	0.055058	0.062648	0.979086	6
C	0.385338	-1.366102	0.496046	6
N	0.442548	-1.308682	-0.975504	7
C	0.842128	0.065358	-1.310994	6
C	-0.171052	1.157298	-1.429154	6
C	0.566078	0.950968	-0.128074	6
H	-1.648592	1.308448	1.477736	1
H	-1.737222	-0.340602	2.121886	1
H	-2.053632	-0.044362	0.411486	1
H	0.614238	0.271358	1.899786	1
H	-0.334702	-2.113362	0.842556	1
H	1.376258	-1.649722	0.871796	1
H	1.107468	-1.999472	-1.321244	1
H	1.786048	0.187728	-1.833664	1
H	0.090518	2.024928	-2.023044	1
H	-1.212732	0.875848	-1.514064	1
H	1.322838	1.659288	0.177006	1
Es	-1.430568	0.258435	1.258360	99
Es	0.841982	0.065358	-1.310911	99
Es	0.127254	-1.371369	-1.108784	99
Es	0.014685	1.745514	-1.826117	99
Es	0.207176	-0.664008	0.746705	99
Es	-0.170925	1.157235	-1.429032	99
Es	0.082197	1.201018	-0.675686	99
Es	0.439015	0.207340	1.608514	99
Es	0.634408	-0.712033	-1.128886	99
Es	0.055036	0.062638	0.979050	99
Es	0.848265	0.462021	-0.641485	99
Es	-0.109810	-1.879117	0.737487	99
Es	-1.576159	0.976555	1.409499	99
Es	0.443112	-1.308529	-0.975261	99
Es	-0.695519	0.157053	1.113768	99
Es	1.073591	-1.563769	0.761625	99
Es	0.292434	0.554877	-1.563041	99
Es	0.864123	-1.709752	-1.175062	99
Es	0.385349	-1.366087	0.495921	99
Es	-1.849060	0.051391	0.678625	99
Es	0.566020	0.950918	-0.128259	99
Es	0.437267	-1.335492	-0.337347	99
Es	-1.638573	-0.153832	1.850846	99
Es	0.282135	0.533138	0.419022	99
Es	1.074182	1.444296	0.073760	99
Es	-0.873402	0.968205	-1.477366	99
Es	1.483379	0.144032	-1.677720	99
45
Properties=species:S:1:pos:R:3:Z:I:1 energy=-288.10404281732605 field_type=dipole dipole="0.000000 0.000000 0.000000" charge=0
C	-1.430582	0.258438	1.258356	6
C	0.055058	0.062648	0.979086	6
C	0.385338	-1.366102	0.496046	6
N	0.442548	-1.308682	-0.975504	7
C	0.842128	0.065358	-1.310994	6
C	-0.171052	1.157298	-1.429154	6
C	0.566078	0.950968	-0.128074	6
H	-1.648592	1.308448	1.477736	1
H	-1.737222	-0.340602	2.121886	1
H	-2.053632	-0.044362	0.411486	1
H	0.614238	0.271358	1.899786	1
H	-0.334702	-2.113362	0.842556	1
H	1.376258	-1.649722	0.871796	1
H	1.107468	-1.999472	-1.321244	1
H	1.786048	0.187728	-1.833664	1
H	0.090518	2.024928	-2.023044	1
H	-1.212732	0.875848	-1.514064	1
H	1.322838	1.659288	0.177006	1
Es	0.292462	0.554850	-1.563148	99
Es	-0.109775	-1.879095	0.737517	99
Es	1.483316	0.143917	-1.677790	99
Es	0.439003	0.207327	1.608483	99
Es	-1.849085	0.051400	0.678655	99
Es	-1.638581	-0.153808	1.850831	99
Es	0.426103	-1.338341	-0.334097	99
Es	-1.430567	0.258435	1.258359	99
Es	-0.695491	0.157050	1.113768	99
Es	0.385352	-1.366090	0.495925	99
Es	0.082175	1.201143	-0.675506	99
Es	0.299761	-1.335856	-1.035375	99
Es	-0.170921	1.157233	-1.429026	99
Es	0.848370	0.461944	-0.641290	99
Es	0.856529	-1.719306	-1.184387	99
Es	1.073675	-1.563815	0.761533	99
Es	0.282161	0.533189	0.419076	99
Es	1.074096	1.444237	0.073729	99
Es	-0.873363	0.968239	-1.477383	99
Es	0.207178	-0.663904	0.746672	99
Es	0.624748	-0.706954	-1.136336	99
Es	0.055033	0.062639	0.979050	99
Es	-1.576170	0.976533	1.409505	99
Es	0.841978	0.065361	-1.310915	99
Es	0.298934	-1.336670	-1.035293	99
Es	0.014639	1.745465	-1.826079	99
Es	0.566034	0.950914	-0.128251	99
45
Properties=species:S:1:pos:R:3:Z:I:1 energy=-288.10404281732605 field_type=dipole dipole="0.000000 0.000000 0.000000" charge=0
C	-1.430582	0.258438	1.258356	6
C	0.055058	0.062648	0.979086	6
C	0.385338	-1.366102	0.496046	6
N	0.442548	-1.308682	-0.975504	7
C	0.842128	0.065358	-1.310994	6
C	-0.171052	1.157298	-1.429154	6
C	0.566078	0.950968	-0.128074	6
H	-1.648592	1.308448	1.477736	1
H	-1.737222	-0.340602	2.121886	1
H	-2.053632	-0.044362	0.411486	1
H	0.614238	0.271358	1.899786	1
H	-0.334702	-2.113362	0.842556	1
H	1.376258	-1.649722	0.871796	1
H	1.107468	-1.999472	-1.321244	1
H	1.786048	0.187728	-1.833664	1
H	0.090518	2.024928	-2.023044	1
H	-1.212732	0.875848	-1.514064	1
H	1.322838	1.659288	0.177006	1
Es	0.848508	0.462009	-0.641523	99
Es	0.566023	0.950921	-0.128248	99
Es	1.073506	-1.563796	0.761628	99
Es	-1.849067	0.051400	0.678676	99
Es	-0.109730	-1.879081	0.737487	99
Es	0.282173	0.533237	0.419099	99
Es	-1.430567	0.258435	1.258359	99
Es	0.437120	-1.335688	-0.337285	99
Es	0.292511	0.554697	-1.563300	99
Es	-0.170920	1.157230	-1.429027	99
Es	0.385349	-1.366087	0.495922	99
Es	0.863732	-1.710082	-1.175354	99
Es	0.207205	-0.663980	0.746760	99
Es	0.634762	-0.712092	-1.128847	99
Es	-0.695518	0.157097	1.113759	99
Es	0.055035	0.062638	0.979051	99
Es	0.443078	-1.308538	-0.975272	99
Es	0.438989	0.207333	1.608443	99
Es	0.014591	1.745445	-1.826070	99
Es	1.483204	0.143999	-1.677746	99
Es	-1.576203	0.976538	1.409512	99
Es	0.127511	-1.370826	-1.108698	99
Es	-0.873274	0.968282	-1.477380	99
Es	1.073980	1.444188	0.073720	99
Es	0.082169	1.201238	-0.675367	99
Es	0.841981	0.065363	-1.310910	99
Es	-1.638554	-0.153847	1.850837	99
45
Properties=species:S:1:pos:R:3:Z:I:1 energy=-288.10404281732605 field_type=dipole dipole="0.000000 0.000000 0.000000" charge=0
C	-1.430582	0.258438	1.258356	6
C	0.055058	0.062648	0.979086	6
C	0.385338	-1.366102	0.496046	6
N	0.442548	-1.308682	-0.975504	7
C	0.842128	0.065358	-1.310994	6
C	-0.171052	1.157298	-1.429154	6
C	0.566078	0.950968	-0.128074	6
H	-1.648592	1.308448	1.477736	1
H	-1.737222	-0.340602	2.121886	1
H	-2.053632	-0.044362	0.411486	1
H	0.614238	0.271358	1.899786	1
H	-0.334702	-2.113362	0.842556	1
H	1.376258	-1.649722	0.871796	1
H	1.107468	-1.999472	-1.321244	1
H	1.786048	0.187728	-1.833664	1
H	0.090518	2.024928	-2.023044	1
H	-1.212732	0.875848	-1.514064	1
H	1.322838	1.659288	0.177006	1
Es	0.207214	-0.663972	0.746793	99
Es	0.443105	-1.308529	-0.975257	99
Es	0.841978	0.065365	-1.310912	99
Es	0.292565	0.554635	-1.563463	99
Es	0.634310	-0.711931	-1.129197	99
Es	0.864020	-1.709710	-1.175073	99
Es	-0.873227	0.968322	-1.477399	99
Es	0.437095	-1.335655	-0.337244	99
Es	0.055035	0.062638	0.979051	99
Es	0.282174	0.533308	0.419131	99
Es	0.438971	0.207324	1.608410	99
Es	0.127696	-1.371439	-1.108759	99
Es	0.082170	1.201356	-0.675222	99
Es	0.014551	1.745379	-1.826039	99
Es	-0.109693	-1.879062	0.737478	99
Es	1.073898	1.444143	0.073701	99
Es	-0.695442	0.157066	1.113803	99
Es	-0.170923	1.157232	-1.429031	99
Es	0.848673	0.462010	-0.641497	99
Es	-1.430568	0.258434	1.258360	99
Es	1.483055	0.143978	-1.677712	99
Es	0.566023	0.950921	-0.128253	99
Es	-1.849082	0.051408	0.678701	99
Es	0.385349	-1.366087	0.495923	99
Es	1.073470	-1.563817	0.761629	99
Es	-1.576214	0.976502	1.409490	99
Es	-1.638606	-0.153784	1.850815	99
45
Properties=species:S:1:pos:R:3:Z:I:1 energy=-288.10404281732605 field_type=dipole dipole="0.000000 0.000000 0.000000" charge=0
C	-1.430582	0.258438	1.258356	6
C	0.055058	0.062648	0.979086	6
C	0.385338	-1.366102	0.496046	6
N	0.442548	-1.308682	-0.975504	7
C	0.842128	0.065358	-1.310994	6
C	-0.171052	1.157298	-1.429154	6
C	0.566078	0.950968	-0.128074	6
H	-1.648592	1.308448	1.477736	1
H	-1.737222	-0.340602	2.121886	1
H	-2.053632	-0.044362	0.411486	1
H	0.614238	0.271358	1.899786	1
H	-0.334702	-2.113362	0.842556	1
H	1.376258	-1.649722	0.871796	1
H	1.107468	-1.999472	-1.321244	1
H	1.786048	0.187728	-1.833664	1
H	0.090518	2.024928	-2.023044	1
H	-1.212732	0.875848	-1.514064	1
H	1.322838	1.659288	0.177006	1
Es	0.292594	0.554610	-1.563460	99
Es	0.566025	0.950921	-0.128245	99
Es	0.436648	-1.335745	-0.337249	99
Es	0.864274	-1.709354	-1.174632	99
Es	0.443173	-1.308513	-0.975230	99
Es	-1.849044	0.051432	0.678730	99
Es	0.127521	-1.371603	-1.109496	99
Es	-0.695459	0.157045	1.113809	99
Es	-0.170922	1.157231	-1.429031	99
Es	0.014532	1.745338	-1.826028	99
Es	0.634597	-0.712067	-1.129007	99
Es	-0.873170	0.968349	-1.477441	99
Es	1.073721	1.444159	0.073727	99
Es	0.438924	0.207329	1.608362	99
Es	0.848976	0.461962	-0.641402	99
Es	0.385349	-1.366086	0.495923	99
Es	0.841982	0.065356	-1.310911	99
Es	-0.109644	-1.879047	0.737480	99
Es	0.282231	0.533321	0.419123	99
Es	1.482930	0.143969	-1.677745	99
Es	0.055035	0.062639	0.979051	99
Es	-1.576201	0.976550	1.409484	99
Es	-1.430569	0.258434	1.258359	99
Es	-1.638675	-0.153778	1.850772	99
Es	0.082103	1.201411	-0.675223	99
Es	0.207214	-0.664001	0.746883	99
Es	1.073449	-1.563826	0.761621	99
