47
Properties=species:S:1:pos:R:3:Z:I:1 energy=-305.2754100018947 field_type=dipole dipole="0.000000 0.000000 0.000000" charge=0
C	-1.846066	0.396579	0.063734	6
C	-0.332796	0.296549	-0.129046	6
C	0.044294	0.375629	-1.610416	6
N	0.387524	1.357399	0.642464	7
C	1.368884	0.343909	1.104714	6
C	0.334724	-0.760281	0.810634	6
N	0.950764	-1.865471	0.072924	7
H	-2.124196	0.420289	1.123614	1
H	-2.347796	-0.465571	-0.389016	1
H	-2.247166	1.302639	-0.404556	1
H	1.128644	0.385859	-1.765816	1
H	-0.358536	1.286349	-2.070016	1
H	-0.363896	-0.479581	-2.160226	1
H	-0.158656	1.750859	1.409694	1
H	2.284083	0.333349	0.499894	1
H	1.658774	0.443819	2.156604	1
H	-0.257086	-1.064141	1.681034	1
H	1.603074	-1.578711	-0.656356	1
H	0.275434	-2.479471	-0.379856	1
Es	0.666025	-1.393251	0.364464	99
Es	-0.237132	-0.212494	-1.980958	99
Es	0.387308	1.356942	0.642811	99
Es	-0.332770	0.296669	-0.128994	99
Es	-0.234668	0.991196	-1.911094	99
Es	0.839618	0.955464	0.882299	99
Es	1.318790	-1.661949	-0.373326	99
Es	-2.026589	0.412186	0.792902	99
Es	-2.116357	1.014296	-0.256250	99
Es	0.524065	-2.213642	-0.211429	99
Es	0.033536	0.938337	0.306486	99
Es	0.047475	1.556210	1.119088	99
Es	0.521462	1.630863	0.444717	99
Es	0.907525	-0.273103	1.002183	99
Es	-2.183637	-0.195008	-0.246427	99
Es	-1.846075	0.396570	0.063732	99
Es	1.132053	-2.060729	0.294391	99
Es	0.334804	-0.760376	0.810534	99
Es	0.784538	0.376088	-1.709060	99
Es	1.569211	0.415992	1.828499	99
Es	0.044290	0.375608	-1.610392	99
Es	1.368775	0.344001	1.104677	99
Es	-1.106555	0.349739	-0.037895	99
Es	1.986984	0.324599	0.678781	99
Es	-0.058590	-0.294138	0.296960	99
Es	-0.076653	-0.966368	1.396892	99
Es	0.950438	-1.865127	0.072519	99
Es	-0.130044	0.316276	-0.873025	99
47
Properties=species:S:1:pos:R:3:Z:I:1 energy=-305.2754100018947 field_type=dipole dipole="0.000000 0.000000 0.000000" charge=0
C	-1.846066	0.396579	0.063734	6
C	-0.332796	0.296549	-0.129046	6
C	0.044294	0.375629	-1.610416	6
N	0.387524	1.357399	0.642464	7
C	1.368884	0.343909	1.104714	6
C	0.334724	-0.760281	0.810634	6
N	0.950764	-1.865471	0.072924	7
H	-2.124196	0.420289	1.123614	1
H	-2.347796	-0.465571	-0.389016	1
H	-2.247166	1.302639	-0.404556	1
H	1.128644	0.385859	-1.765816	1
H	-0.358536	1.286349	-2.070016	1
H	-0.363896	-0.479581	-2.160226	1
H	-0.158656	1.750859	1.409694	1
H	2.284083	0.333349	0.499894	1
H	1.658774	0.443819	2.156604	1
H	-0.257086	-1.064141	1.681034	1
H	1.603074	-1.578711	-0.656356	1
H	0.275434	-2.479471	-0.379856	1
Es	0.520991	1.630541	0.444790	99
Es	-0.076658	-0.966404	1.396887	99
Es	1.131501	-2.061466	0.294524	99
Es	0.387360	1.357030	0.642743	99
Es	0.033492	0.938204	0.306618	99
Es	-0.332771	0.296670	-0.128994	99
Es	0.523984	-2.212824	-0.212255	99
Es	-0.237156	-0.212512	-1.980884	99
Es	-1.106469	0.349698	-0.037968	99
Es	1.319380	-1.662030	-0.372719	99
Es	-0.058569	-0.294190	0.296866	99
Es	1.569318	0.416049	1.828481	99
Es	0.950452	-1.865135	0.072550	99
Es	-0.234641	0.991085	-1.911172	99
Es	0.047527	1.556372	1.119005	99
Es	-2.116426	1.014271	-0.256241	99
Es	-2.183638	-0.194955	-0.246371	99
Es	0.334802	-0.760375	0.810534	99
Es	-2.026574	0.412164	0.792909	99
Es	0.784621	0.376083	-1.709046	99
Es	0.907550	-0.273174	1.002236	99
Es	-0.130199	0.316459	-0.873015	99
Es	0.044290	0.375607	-1.610393	99
Es	1.368773	0.343999	1.104676	99
Es	-1.846075	0.396570	0.063732	99
Es	0.666027	-1.393196	0.364549	99
Es	0.840072	0.955806	0.882171	99
Es	1.986864	0.324504	0.678869	99
47
Properties=species:S:1:pos:R:3:Z:I:1 energy=-305.2754100018947 field_type=dipole dipole="0.000000 0.000000 0.000000" charge=0
C	-1.846066	0.396579	0.063734	6
C	-0.332796	0.296549	-0.129046	6
C	0.044294	0.375629	-1.610416	6
N	0.387524	1.357399	0.642464	7
C	1.368884	0.343909	1.104714	6
C	0.334724	-0.760281	0.810634	6
N	0.950764	-1.865471	0.072924	7
H	-2.124196	0.420289	1.123614	1
H	-2.347796	-0.465571	-0.389016	1
H	-2.247166	1.302639	-0.404556	1
H	1.128644	0.385859	-1.765816	1
H	-0.358536	1.286349	-2.070016	1
H	-0.363896	-0.479581	-2.160226	1
H	-0.158656	1.750859	1.409694	1
H	2.284083	0.333349	0.499894	1
H	1.658774	0.443819	2.156604	1
H	-0.257086	-1.064141	1.681034	1
H	1.603074	-1.578711	-0.656356	1
H	0.275434	-2.479471	-0.379856	1
Es	0.521258	1.631017	0.445457	99
Es	-0.234631	0.991231	-1.911127	99
Es	0.033557	0.938572	0.305838	99
Es	-0.130178	0.316191	-0.872973	99
Es	0.665803	-1.393279	0.364841	99
Es	1.319446	-1.662033	-0.373010	99
Es	0.387325	1.356936	0.642791	99
Es	0.907605	-0.273112	1.002497	99
Es	1.131366	-2.060601	0.293949	99
Es	0.047492	1.555880	1.118858	99
Es	-0.058551	-0.294097	0.296880	99
Es	0.334804	-0.760374	0.810532	99
Es	-1.106466	0.349681	-0.037925	99
Es	0.950450	-1.865136	0.072550	99
Es	0.839844	0.955634	0.882331	99
Es	1.569406	0.416087	1.828441	99
Es	-2.026559	0.412155	0.792887	99
Es	-1.846075	0.396570	0.063732	99
Es	0.524219	-2.213681	-0.211681	99
Es	-0.076693	-0.966362	1.396744	99
Es	0.784479	0.376069	-1.709029	99
Es	-2.183672	-0.194962	-0.246398	99
Es	-2.116418	1.014274	-0.256188	99
Es	-0.237092	-0.212483	-1.980984	99
Es	1.368777	0.343992	1.104686	99
Es	0.044291	0.375608	-1.610395	99
Es	1.986810	0.324405	0.678772	99
Es	-0.332769	0.296669	-0.128994	99
47
Properties=species:S:1:pos:R:3:Z:I:1 energy=-305.2754100018947 field_type=dipole dipole="0.000000 0.000000 0.000000" charge=0
C	-1.846066	0.396579	0.063734	6
C	-0.332796	0.296549	-0.129046	6
C	0.044294	0.375629	-1.610416	6
N	0.387524	1.357399	0.642464	7
C	1.368884	0.343909	1.104714	6
C	0.334724	-0.760281	0.810634	6
N	0.950764	-1.865471	0.072924	7
H	-2.124196	0.420289	1.123614	1
H	-2.347796	-0.465571	-0.389016	1
H	-2.247166	1.302639	-0.404556	1
H	1.128644	0.385859	-1.765816	1
H	-0.358536	1.286349	-2.070016	1
H	-0.363896	-0.479581	-2.160226	1
H	-0.158656	1.750859	1.409694	1
H	2.284083	0.333349	0.499894	1
H	1.658774	0.443819	2.156604	1
H	-0.257086	-1.064141	1.681034	1
H	1.603074	-1.578711	-0.656356	1
H	0.275434	-2.479471	-0.379856	1
Es	0.524243	-2.212952	-0.212081	99
Es	0.520956	1.630887	0.445532	99
Es	1.368775	0.343997	1.104679	99
Es	-0.130070	0.316209	-0.872781	99
Es	-0.058692	-0.294111	0.296846	99
Es	0.033429	0.938564	0.305920	99
Es	0.950459	-1.865136	0.072582	99
Es	0.044291	0.375608	-1.610394	99
Es	0.047599	1.555951	1.118727	99
Es	1.319071	-1.661992	-0.372851	99
Es	-0.237087	-0.212466	-1.980984	99
Es	-1.106421	0.349605	-0.037973	99
Es	-0.076581	-0.966369	1.396718	99
Es	0.840158	0.955832	0.882372	99
Es	1.986836	0.324471	0.678919	99
Es	0.907649	-0.273187	1.002414	99
Es	-2.183751	-0.195012	-0.246309	99
Es	0.334803	-0.760374	0.810534	99
Es	1.569367	0.415998	1.828368	99
Es	-2.026490	0.412177	0.792754	99
Es	-2.116454	1.014347	-0.256166	99
Es	0.665716	-1.393186	0.364460	99
Es	1.131780	-2.061470	0.294565	99
Es	-0.234617	0.991177	-1.911145	99
Es	0.784385	0.376093	-1.709161	99
Es	-0.332771	0.296669	-0.128992	99
Es	0.387317	1.356952	0.642799	99
Es	-1.846074	0.396570	0.063732	99
47
Properties=species:S:1:pos:R:3:Z:I:1 energy=-305.2754100018947 field_type=dipole dipole="0.000000 0.000000 0.000000" charge=0
C	-1.846066	0.396579	0.063734	6
C	-0.332796	0.296549	-0.129046	6
C	0.044294	0.375629	-1.610416	6
N	0.387524	1.357399	0.642464	7
C	1.368884	0.343909	1.104714	6
C	0.334724	-0.760281	0.810634	6
N	0.950764	-1.865471	0.072924	7
H	-2.124196	0.420289	1.123614	1
H	-2.347796	-0.465571	-0.389016	1
H	-2.247166	1.302639	-0.404556	1
H	1.128644	0.385859	-1.765816	1
H	-0.358536	1.286349	-2.070016	1
H	-0.363896	-0.479581	-2.160226	1
H	-0.158656	1.750859	1.409694	1
H	2.284083	0.333349	0.499894	1
H	1.658774	0.443819	2.156604	1
H	-0.257086	-1.064141	1.681034	1
H	1.603074	-1.578711	-0.656356	1
H	0.275434	-2.479471	-0.379856	1
Es	-0.058741	-0.294044	0.296739	99
Es	0.524068	-2.212735	-0.212074	99
Es	-0.237146	-0.212380	-1.980977	99
Es	0.033392	0.938629	0.305526	99
Es	0.047588	1.556624	1.118717	99
Es	-1.106357	0.349561	-0.037922	99
Es	0.387324	1.356959	0.642787	99
Es	-2.116442	1.014251	-0.256137	99
Es	-1.846075	0.396570	0.063731	99
Es	-0.076556	-0.966358	1.396647	99
Es	-2.183747	-0.194952	-0.246354	99
Es	1.569384	0.416013	1.828261	99
Es	-0.332768	0.296667	-0.128990	99
Es	0.784494	0.376072	-1.709197	99
Es	0.044292	0.375608	-1.610393	99
Es	1.132102	-2.061715	0.294712	99
Es	0.840424	0.956050	0.882321	99
Es	-0.130151	0.316185	-0.872853	99
Es	0.520767	1.630019	0.446047	99
Es	0.950464	-1.865140	0.072536	99
Es	1.368778	0.343996	1.104681	99
Es	1.986816	0.324483	0.679031	99
Es	0.665915	-1.393109	0.364442	99
Es	-0.234617	0.991128	-1.911093	99
Es	0.334803	-0.760373	0.810533	99
Es	1.318733	-1.662066	-0.372927	99
Es	0.907653	-0.273276	1.002490	99
Es	-2.026568	0.412181	0.792801	99
47
Properties=species:S:1:pos:R:3:Z:I:1 energy=-305.2754100018947 field_type=dipole dipole="0.000000 0.000000 0.000000" charge=0
C	-1.846066	0.396579	0.063734	6
C	-0.332796	0.296549	-0.129046	6
C	0.044294	0.375629	-1.610416	6
N	0.387524	1.357399	0.642464	7
C	1.368884	0.343909	1.104714	6
C	0.334724	-0.760281	0.810634	6
N	0.950764	-1.865471	0.072924	7
H	-2.124196	0.420289	1.123614	1
H	-2.347796	-0.465571	-0.389016	1
H	-2.247166	1.302639	-0.404556	1
H	1.128644	0.385859	-1.765816	1
H	-0.358536	1.286349	-2.070016	1
H	-0.363896	-0.479581	-2.160226	1
H	-0.158656	1.750859	1.409694	1
H	2.284083	0.333349	0.499894	1
H	1.658774	0.443819	2.156604	1
H	-0.257086	-1.064141	1.681034	1
H	1.603074	-1.578711	-0.656356	1
H	0.275434	-2.479471	-0.379856	1
Es	0.044290	0.375607	-1.610392	99
Es	0.840315	0.956034	0.882334	99
Es	-0.237083	-0.212372	-1.981009	99
Es	-0.130218	0.316136	-0.872828	99
Es	-0.076567	-0.966363	1.396553	99
Es	0.334802	-0.760376	0.810532	99
Es	-2.116436	1.014279	-0.256146	99
Es	-1.846076	0.396570	0.063732	99
Es	0.047667	1.556391	1.118732	99
Es	0.033377	0.938702	0.305503	99
Es	0.950449	-1.865132	0.072536	99
Es	0.520802	1.630264	0.446058	99
Es	1.986832	0.324522	0.679071	99
Es	1.569392	0.415964	1.828171	99
Es	-2.183715	-0.194964	-0.246376	99
Es	0.524230	-2.213002	-0.212012	99
Es	0.387318	1.356958	0.642807	99
Es	-0.058789	-0.294106	0.296768	99
Es	1.368771	0.343993	1.104682	99
Es	1.318830	-1.662032	-0.372903	99
Es	1.132037	-2.061461	0.294671	99
Es	-2.026501	0.412157	0.792884	99
Es	-0.234608	0.991178	-1.911121	99
Es	0.665679	-1.393152	0.364402	99
Es	0.784464	0.376062	-1.709124	99
Es	-1.106421	0.349668	-0.038036	99
Es	-0.332770	0.296668	-0.128990	99
Es	0.907756	-0.273343	1.002584	99
47
Properties=species:S:1:pos:R:3:Z:I:1 energy=-305.2754100018947 field_type=dipole dipole="0.000000 0.000000 0.000000" charge=0
C	-1.846066	0.396579	0.063734	6
C	-0.332796	0.296549	-0.129046	6
C	0.044294	0.375629	-1.610416	6
N	0.387524	1.357399	0.642464	7
C	1.368884	0.343909	1.104714	6
C	0.334724	-0.760281	0.810634	6
N	0.950764	-1.865471	0.072924	7
H	-2.124196	0.420289	1.123614	1
H	-2.347796	-0.465571	-0.389016	1
H	-2.247166	1.302639	-0.404556	1
H	1.128644	0.385859	-1.765816	1
H	-0.358536	1.286349	-2.070016	1
H	-0.363896	-0.479581	-2.160226	1
H	-0.158656	1.750859	1.409694	1
H	2.284083	0.333349	0.499894	1
H	1.658774	0.443819	2.156604	1
H	-0.257086	-1.064141	1.681034	1
H	1.603074	-1.578711	-0.656356	1
H	0.275434	-2.479471	-0.379856	1
Es	-2.116495	1.014213	-0.256149	99
Es	-0.058881	-0.294155	0.296803	99
Es	0.520888	1.630017	0.445982	99
Es	0.044289	0.375606	-1.610395	99
Es	1.569464	0.416078	1.828180	99
Es	0.047751	1.556775	1.118488	99
Es	-2.026592	0.412201	0.792755	99
Es	-0.234614	0.991134	-1.911185	99
Es	1.986750	0.324498	0.679087	99
Es	0.387328	1.356946	0.642779	99
Es	1.368772	0.343998	1.104679	99
Es	1.132218	-2.061176	0.294467	99
Es	0.950441	-1.865131	0.072555	99
Es	-1.846077	0.396569	0.063731	99
Es	-2.183743	-0.194938	-0.246297	99
Es	0.784450	0.376072	-1.709149	99
Es	0.840228	0.955973	0.882495	99
Es	0.665743	-1.393196	0.364510	99
Es	0.524212	-2.213329	-0.211853	99
Es	0.907773	-0.273323	1.002607	99
Es	0.334804	-0.760373	0.810533	99
Es	-0.332770	0.296669	-0.128992	99
Es	-0.076443	-0.966320	1.396557	99
Es	-1.106253	0.349633	-0.037961	99
Es	1.318650	-1.661999	-0.372969	99
Es	-0.130260	0.316158	-0.872770	99
Es	0.033260	0.938644	0.305554	99
Es	-0.237062	-0.212393	-1.980956	99
47
Properties=species:S:1:pos:R:3:Z:I:1 energy=-305.2754100018947 field_type=dipole dipole="0.000000 0.000000 0.000000" charge=0
C	-1.846066	0.396579	0.063734	6
C	-0.332796	0.296549	-0.129046	6
C	0.044294	0.375629	-1.610416	6
N	0.387524	1.357399	0.642464	7
C	1.368884	0.343909	1.104714	6
C	0.334724	-0.760281	0.810634	6
N	0.950764	-1.865471	0.072924	7
H	-2.124196	0.420289	1.123614	1
H	-2.347796	-0.465571	-0.389016	1
H	-2.247166	1.302639	-0.404556	1
H	1.128644	0.385859	-1.765816	1
H	-0.358536	1.286349	-2.070016	1
H	-0.363896	-0.479581	-2.160226	1
H	-0.158656	1.750859	1.409694	1
H	2.284083	0.333349	0.499894	1
H	1.658774	0.443819	2.156604	1
H	-0.257086	-1.064141	1.681034	1
H	1.603074	-1.578711	-0.656356	1
H	0.275434	-2.479471	-0.379856	1
Es	-0.058989	-0.294173	0.296798	99
Es	-1.846075	0.396570	0.063731	99
Es	1.986691	0.324477	0.679115	99
Es	-2.116485	1.014206	-0.256102	99
Es	0.044290	0.375608	-1.610396	99
Es	-0.237098	-0.212353	-1.981039	99
Es	-0.234596	0.991146	-1.911085	99
Es	0.665808	-1.393256	0.364826	99
Es	0.387321	1.356961	0.642799	99
Es	-0.332772	0.296667	-0.128992	99
Es	1.130689	-2.062420	0.294508	99
Es	-2.026615	0.412174	0.792747	99
Es	0.033220	0.938767	0.305212	99
Es	-1.106206	0.349629	-0.038025	99
Es	-2.183752	-0.194929	-0.246341	99
Es	0.907648	-0.273389	1.002625	99
Es	-0.076380	-0.966301	1.396558	99
Es	-0.130166	0.316097	-0.872744	99
Es	1.569556	0.416073	1.828059	99
Es	0.524189	-2.211745	-0.212818	99
Es	0.840633	0.956199	0.882471	99
Es	0.047725	1.556840	1.118487	99
Es	0.950460	-1.865143	0.072579	99
Es	0.520597	1.629719	0.446455	99
Es	0.334804	-0.760372	0.810533	99
Es	0.784436	0.376093	-1.709185	99
Es	1.368770	0.343998	1.104678	99
Es	1.320127	-1.662292	-0.372369	99
47
Properties=species:S:1:pos:R:3:Z:I:1 energy=-305.2754100018947 field_type=dipole dipole="0.000000 0.000000 0.000000" charge=0
C	-1.846066	0.396579	0.063734	6
C	-0.332796	0.296549	-0.129046	6
C	0.044294	0.375629	-1.610416	6
N	0.387524	1.357399	0.642464	7
C	1.368884	0.343909	1.104714	6
C	0.334724	-0.760281	0.810634	6
N	0.950764	-1.865471	0.072924	7
H	-2.124196	0.420289	1.123614	1
H	-2.347796	-0.465571	-0.389016	1
H	-2.247166	1.302639	-0.404556	1
H	1.128644	0.385859	-1.765816	1
H	-0.358536	1.286349	-2.070016	1
H	-0.363896	-0.479581	-2.160226	1
H	-0.158656	1.750859	1.409694	1
H	2.284083	0.333349	0.499894	1
H	1.658774	0.443819	2.156604	1
H	-0.257086	-1.064141	1.681034	1
H	1.603074	-1.578711	-0.656356	1
H	0.275434	-2.479471	-0.379856	1
Es	-0.237050	-0.212331	-1.981028	99
Es	0.387319	1.356960	0.642789	99
Es	0.033401	0.938759	0.305056	99
Es	0.334803	-0.760373	0.810533	99
Es	-2.026605	0.412153	0.792713	99
Es	0.784376	0.376012	-1.709132	99
Es	0.524216	-2.212806	-0.211999	99
Es	0.665651	-1.393005	0.364066	99
Es	-2.183833	-0.194892	-0.246380	99
Es	0.907820	-0.273453	1.002725	99
Es	1.368774	0.343997	1.104679	99
Es	0.044290	0.375607	-1.610393	99
Es	-0.058992	-0.294077	0.296745	99
Es	0.047619	1.556943	1.118444	99
Es	1.319080	-1.662399	-0.372857	99
Es	1.986725	0.324507	0.679230	99
Es	1.569480	0.416013	1.828049	99
Es	-1.846077	0.396569	0.063731	99
Es	-0.332771	0.296668	-0.128988	99
Es	-2.116456	1.014219	-0.256013	99
Es	1.131810	-2.061557	0.294974	99
Es	0.840788	0.956390	0.882438	99
Es	-0.130245	0.316082	-0.872642	99
Es	-1.106196	0.349620	-0.038058	99
Es	-0.234507	0.991173	-1.911205	99
Es	0.520387	1.629496	0.446672	99
Es	-0.076416	-0.966293	1.396410	99
Es	0.950437	-1.865130	0.072527	99
47
Properties=species:S:1:pos:R:3:Z:I:1 energy=-305.2754100018947 field_type=dipole dipole="0.000000 0.000000 0.000000" charge=0
C	-1.846066	0.396579	0.063734	6
C	-0.332796	0.296549	-0.129046	6
C	0.044294	0.375629	-1.610416	6
N	0.387524	1.357399	0.642464	7
C	1.368884	0.343909	1.104714	6
C	0.334724	-0.760281	0.810634	6
N	0.950764	-1.865471	0.072924	7
H	-2.124196	0.420289	1.123614	1
H	-2.347796	-0.465571	-0.389016	1
H	-2.247166	1.302639	-0.404556	1
H	1.128644	0.385859	-1.765816	1
H	-0.358536	1.286349	-2.070016	1
H	-0.363896	-0.479581	-2.160226	1
H	-0.158656	1.750859	1.409694	1
H	2.284083	0.333349	0.499894	1
H	1.658774	0.443819	2.156604	1
H	-0.257086	-1.064141	1.681034	1
H	1.603074	-1.578711	-0.656356	1
H	0.275434	-2.479471	-0.379856	1
Es	0.047817	1.556809	1.118378	99
Es	-2.183823	-0.194861	-0.246347	99
Es	0.841059	0.956484	0.882374	99
Es	0.520072	1.629604	0.446799	99
Es	1.569608	0.416003	1.828000	99
Es	-0.076306	-0.966282	1.396387	99
Es	0.784360	0.376002	-1.709255	99
Es	-0.059198	-0.294149	0.296780	99
Es	-2.116475	1.014189	-0.256037	99
Es	1.318595	-1.662226	-0.372956	99
Es	-0.237098	-0.212283	-1.981002	99
Es	1.132222	-2.061672	0.294736	99
Es	1.368773	0.343996	1.104680	99
Es	-1.846077	0.396570	0.063733	99
Es	-1.106135	0.349660	-0.038030	99
Es	0.044291	0.375607	-1.610394	99
Es	0.334805	-0.760373	0.810531	99
Es	0.665892	-1.393078	0.364453	99
Es	0.033252	0.938781	0.305024	99
Es	-0.130182	0.315987	-0.872637	99
Es	-2.026626	0.412161	0.792724	99
Es	-0.234527	0.991156	-1.911176	99
Es	1.986625	0.324449	0.679186	99
Es	0.907810	-0.273352	1.002769	99
Es	0.950446	-1.865129	0.072511	99
Es	0.524091	-2.212796	-0.211961	99
Es	0.387328	1.356927	0.642801	99
Es	-0.332771	0.296668	-0.128989	99
47
Properties=species:S:1:pos:R:3:Z:I:1 energy=-305.2754100018947 field_type=dipole dipole="0.000000 0.000000 0.000000" charge=0
C	-1.846066	0.396579	0.063734	6
C	-0.332796	0.296549	-0.129046	6
C	0.044294	0.375629	-1.610416	6
N	0.387524	1.357399	0.642464	7
C	1.368884	0.343909	1.104714	6
C	0.334724	-0.760281	0.810634	6
N	0.950764	-1.865471	0.072924	7
H	-2.124196	0.420289	1.123614	1
H	-2.347796	-0.465571	-0.389016	1
H	-2.247166	1.302639	-0.404556	1
H	1.128644	0.385859	-1.765816	1
H	-0.358536	1.286349	-2.070016	1
H	-0.363896	-0.479581	-2.160226	1
H	-0.158656	1.750859	1.409694	1
H	2.284083	0.333349	0.499894	1
H	1.658774	0.443819	2.156604	1
H	-0.257086	-1.064141	1.681034	1
H	1.603074	-1.578711	-0.656356	1
H	0.275434	-2.479471	-0.379856	1
Es	0.047819	1.556732	1.118365	99
Es	0.907928	-0.273504	1.002894	99
Es	0.524345	-2.213066	-0.212017	99
Es	0.033168	0.938970	0.304706	99
Es	-0.237025	-0.212325	-1.981068	99
Es	1.318822	-1.662234	-0.372801	99
Es	0.387339	1.356977	0.642775	99
Es	1.132087	-2.061417	0.294981	99
Es	0.950451	-1.865136	0.072542	99
Es	0.334804	-0.760369	0.810532	99
Es	-0.234549	0.991114	-1.911157	99
Es	-2.183804	-0.194837	-0.246261	99
Es	-2.026674	0.412204	0.792692	99
Es	0.784342	0.376109	-1.709212	99
Es	1.368772	0.343997	1.104679	99
Es	-1.846075	0.396571	0.063731	99
Es	-0.059140	-0.294025	0.296791	99
Es	-0.332774	0.296667	-0.128990	99
Es	-2.116538	1.014116	-0.256083	99
Es	0.520049	1.629499	0.447253	99
Es	0.841099	0.956499	0.882326	99
Es	-0.130134	0.315973	-0.872610	99
Es	0.044291	0.375607	-1.610395	99
Es	-1.106046	0.349574	-0.038114	99
Es	1.986635	0.324468	0.679291	99
Es	1.569585	0.416053	1.827932	99
Es	0.665423	-1.393064	0.364011	99
Es	-0.076372	-0.966303	1.396293	99
47
Properties=species:S:1:pos:R:3:Z:I:1 energy=-305.2754100018947 field_type=dipole dipole="0.000000 0.000000 0.000000" charge=0
C	-1.846066	0.396579	0.063734	6
C	-0.332796	0.296549	-0.129046	6
C	0.044294	0.375629	-1.610416	6
N	0.387524	1.357399	0.642464	7
C	1.368884	0.343909	1.104714	6
C	0.334724	-0.760281	0.810634	6
N	0.950764	-1.865471	0.072924	7
H	-2.124196	0.420289	1.123614	1
H	-2.347796	-0.465571	-0.389016	1
H	-2.247166	1.302639	-0.404556	1
H	1.128644	0.385859	-1.765816	1
H	-0.358536	1.286349	-2.070016	1
H	-0.363896	-0.479581	-2.160226	1
H	-0.158656	1.750859	1.409694	1
H	2.284083	0.333349	0.499894	1
H	1.658774	0.443819	2.156604	1
H	-0.257086	-1.064141	1.681034	1
H	1.603074	-1.578711	-0.656356	1
H	0.275434	-2.479471	-0.379856	1
Es	1.318522	-1.662020	-0.372838	99
Es	0.840840	0.956352	0.882545	99
Es	0.665407	-1.393209	0.364275	99
Es	-0.332773	0.296667	-0.128990	99
Es	1.986565	0.324442	0.679318	99
Es	0.047920	1.556984	1.118175	99
Es	0.784336	0.376113	-1.709215	99
Es	0.950494	-1.865197	0.072606	99
Es	0.524384	-2.212813	-0.212136	99
Es	1.368771	0.343997	1.104679	99
Es	0.907910	-0.273592	1.003003	99
Es	-1.106090	0.349609	-0.038113	99
Es	0.387324	1.356976	0.642777	99
Es	-0.236985	-0.212297	-1.981058	99
Es	-0.059066	-0.294067	0.296670	99
Es	0.520325	1.629395	0.447141	99
Es	0.334805	-0.760368	0.810532	99
Es	-1.846076	0.396570	0.063733	99
Es	1.569679	0.416044	1.827836	99
Es	-0.130247	0.315981	-0.872534	99
Es	-0.234579	0.991124	-1.911169	99
Es	-2.183832	-0.194863	-0.246336	99
Es	-2.026614	0.412134	0.792681	99
Es	-2.116534	1.014177	-0.255983	99
Es	-0.076368	-0.966250	1.396246	99
Es	1.132340	-2.061733	0.294855	99
Es	0.033077	0.939089	0.304780	99
Es	0.044291	0.375607	-1.610395	99
47
Properties=species:S:1:pos:R:3:Z:I:1 energy=-305.2754100018947 field_type=dipole dipole="0.000000 0.000000 0.000000" charge=0
C	-1.846066	0.396579	0.063734	6
C	-0.332796	0.296549	-0.129046	6
C	0.044294	0.375629	-1.610416	6
N	0.387524	1.357399	0.642464	7
C	1.368884	0.343909	1.104714	6
C	0.334724	-0.760281	0.810634	6
N	0.950764	-1.865471	0.072924	7
H	-2.124196	0.420289	1.123614	1
H	-2.347796	-0.465571	-0.389016	1
H	-2.247166	1.302639	-0.404556	1
H	1.128644	0.385859	-1.765816	1
H	-0.358536	1.286349	-2.070016	1
H	-0.363896	-0.479581	-2.160226	1
H	-0.158656	1.750859	1.409694	1
H	2.284083	0.333349	0.499894	1
H	1.658774	0.443819	2.156604	1
H	-0.257086	-1.064141	1.681034	1
H	1.603074	-1.578711	-0.656356	1
H	0.275434	-2.479471	-0.379856	1
Es	0.033016	0.939029	0.304608	99
Es	0.519950	1.628818	0.447458	99
Es	0.044292	0.375608	-1.610394	99
Es	1.569640	0.416046	1.827819	99
Es	0.334805	-0.760368	0.810531	99
Es	0.907963	-0.273619	1.002998	99
Es	-1.846075	0.396571	0.063731	99
Es	1.132115	-2.061818	0.294880	99
Es	0.950464	-1.865153	0.072586	99
Es	-2.026652	0.412210	0.792669	99
Es	-1.106046	0.349568	-0.038169	99
Es	-0.076256	-0.966245	1.396183	99
Es	-2.116533	1.014132	-0.256058	99
Es	0.047938	1.557385	1.118164	99
Es	-0.234581	0.991080	-1.911186	99
Es	-0.059231	-0.294078	0.296694	99
Es	0.524404	-2.212702	-0.212180	99
Es	-0.236983	-0.212260	-1.981039	99
Es	-0.332773	0.296667	-0.128990	99
Es	0.841235	0.956626	0.882449	99
Es	0.387334	1.356974	0.642775	99
Es	1.368772	0.343996	1.104680	99
Es	-2.183829	-0.194867	-0.246265	99
Es	-0.130205	0.315982	-0.872457	99
Es	0.784348	0.376116	-1.709265	99
Es	0.665377	-1.393149	0.364235	99
Es	1.986579	0.324479	0.679398	99
Es	1.318758	-1.662176	-0.372770	99
47
Properties=species:S:1:pos:R:3:Z:I:1 energy=-305.2754100018947 field_type=dipole dipole="0.000000 0.000000 0.000000" charge=0
C	-1.846066	0.396579	0.063734	6
C	-0.332796	0.296549	-0.129046	6
C	0.044294	0.375629	-1.610416	6
N	0.387524	1.357399	0.642464	7
C	1.368884	0.343909	1.104714	6
C	0.334724	-0.760281	0.810634	6
N	0.950764	-1.865471	0.072924	7
H	-2.124196	0.420289	1.123614	1
H	-2.347796	-0.465571	-0.389016	1
H	-2.247166	1.302639	-0.404556	1
H	1.128644	0.385859	-1.765816	1
H	-0.358536	1.286349	-2.070016	1
H	-0.363896	-0.479581	-2.160226	1
H	-0.158656	1.750859	1.409694	1
H	2.284083	0.333349	0.499894	1
H	1.658774	0.443819	2.156604	1
H	-0.257086	-1.064141	1.681034	1
H	1.603074	-1.578711	-0.656356	1
H	0.275434	-2.479471	-0.379856	1
Es	1.132326	-2.061849	0.295000	99
Es	0.387352	1.356984	0.642757	99
Es	-2.026635	0.412181	0.792629	99
Es	-1.105992	0.349574	-0.038079	99
Es	-0.059257	-0.294144	0.296649	99
Es	-0.236968	-0.212349	-1.981050	99
Es	-1.846077	0.396571	0.063731	99
Es	-2.116562	1.014170	-0.256043	99
Es	1.986517	0.324490	0.679419	99
Es	0.784302	0.376194	-1.709267	99
Es	-0.234560	0.991000	-1.911214	99
Es	0.334806	-0.760369	0.810530	99
Es	0.520172	1.628160	0.447764	99
Es	-2.183836	-0.194860	-0.246243	99
Es	1.318564	-1.662204	-0.372729	99
Es	0.524456	-2.212736	-0.212203	99
Es	1.368773	0.343996	1.104681	99
Es	-0.332769	0.296669	-0.128991	99
Es	0.033141	0.939183	0.304214	99
Es	0.950454	-1.865145	0.072551	99
Es	1.569707	0.416070	1.827758	99
Es	0.044291	0.375606	-1.610394	99
Es	0.665339	-1.393078	0.364142	99
Es	0.047802	1.558002	1.117994	99
Es	0.907956	-0.273652	1.003056	99
Es	-0.076226	-0.966241	1.396142	99
Es	-0.130319	0.316097	-0.872439	99
Es	0.841068	0.956530	0.882720	99
47
Properties=species:S:1:pos:R:3:Z:I:1 energy=-305.2754100018947 field_type=dipole dipole="0.000000 0.000000 0.000000" charge=0
C	-1.846066	0.396579	0.063734	6
C	-0.332796	0.296549	-0.129046	6
C	0.044294	0.375629	-1.610416	6
N	0.387524	1.357399	0.642464	7
C	1.368884	0.343909	1.104714	6
C	0.334724	-0.760281	0.810634	6
N	0.950764	-1.865471	0.072924	7
H	-2.124196	0.420289	1.123614	1
H	-2.347796	-0.465571	-0.389016	1
H	-2.247166	1.302639	-0.404556	1
H	1.128644	0.385859	-1.765816	1
H	-0.358536	1.286349	-2.070016	1
H	-0.363896	-0.479581	-2.160226	1
H	-0.158656	1.750859	1.409694	1
H	2.284083	0.333349	0.499894	1
H	1.658774	0.443819	2.156604	1
H	-0.257086	-1.064141	1.681034	1
H	1.603074	-1.578711	-0.656356	1
H	0.275434	-2.479471	-0.379856	1
Es	1.368775	0.343995	1.104680	99
Es	-2.116562	1.014124	-0.255983	99
Es	-0.059261	-0.294202	0.296741	99
Es	-0.234522	0.991019	-1.911294	99
Es	0.784264	0.376152	-1.709221	99
Es	1.132339	-2.062003	0.295042	99
Es	0.524438	-2.212580	-0.212210	99
Es	1.986521	0.324481	0.679410	99
Es	1.318546	-1.662119	-0.372793	99
Es	0.044292	0.375610	-1.610401	99
Es	-0.236934	-0.212349	-1.981029	99
Es	-0.076216	-0.966222	1.396138	99
Es	-2.183914	-0.194832	-0.246227	99
Es	-1.846072	0.396569	0.063730	99
Es	0.907968	-0.273597	1.003065	99
Es	0.519777	1.628249	0.447322	99
Es	-0.130302	0.316081	-0.872359	99
Es	1.569729	0.416037	1.827689	99
Es	0.033015	0.938891	0.304703	99
Es	-1.105955	0.349524	-0.038241	99
Es	0.841416	0.956876	0.882763	99
Es	0.665362	-1.393178	0.364178	99
Es	0.047909	1.557990	1.117867	99
Es	0.950463	-1.865151	0.072561	99
Es	-0.332772	0.296668	-0.128992	99
Es	0.334807	-0.760365	0.810524	99
Es	0.387322	1.356973	0.642800	99
Es	-2.026607	0.412209	0.792623	99
47
Properties=species:S:1:pos:R:3:Z:I:1 energy=-305.2754100018947 field_type=dipole dipole="0.000000 0.000000 0.000000" charge=0
C	-1.846066	0.396579	0.063734	6
C	-0.332796	0.296549	-0.129046	6
C	0.044294	0.375629	-1.610416	6
N	0.387524	1.357399	0.642464	7
C	1.368884	0.343909	1.104714	6
C	0.334724	-0.760281	0.810634	6
N	0.950764	-1.865471	0.072924	7
H	-2.124196	0.420289	1.123614	1
H	-2.347796	-0.465571	-0.389016	1
H	-2.247166	1.302639	-0.404556	1
H	1.128644	0.385859	-1.765816	1
H	-0.358536	1.286349	-2.070016	1
H	-0.363896	-0.479581	-2.160226	1
H	-0.158656	1.750859	1.409694	1
H	2.284083	0.333349	0.499894	1
H	1.658774	0.443819	2.156604	1
H	-0.257086	-1.064141	1.681034	1
H	1.603074	-1.578711	-0.656356	1
H	0.275434	-2.479471	-0.379856	1
Es	-1.105934	0.349587	-0.038175	99
Es	-0.130248	0.315904	-0.872363	99
Es	0.950509	-1.865204	0.072627	99
Es	0.841622	0.956885	0.882452	99
Es	0.524478	-2.212560	-0.212245	99
Es	0.048048	1.557741	1.117989	99
Es	0.519583	1.628254	0.448007	99
Es	0.032955	0.939151	0.304206	99
Es	-2.116560	1.014104	-0.255992	99
Es	-1.846076	0.396570	0.063731	99
Es	0.387317	1.356960	0.642795	99
Es	0.908058	-0.273714	1.003149	99
Es	0.784267	0.376100	-1.709290	99
Es	1.368771	0.343995	1.104681	99
Es	-2.026665	0.412212	0.792604	99
Es	1.569708	0.416039	1.827679	99
Es	0.334806	-0.760367	0.810531	99
Es	0.044291	0.375607	-1.610395	99
Es	1.132503	-2.062038	0.295187	99
Es	-2.183885	-0.194840	-0.246247	99
Es	-0.332773	0.296667	-0.128989	99
Es	-0.236961	-0.212237	-1.981068	99
Es	0.665222	-1.393167	0.363978	99
Es	-0.234544	0.991105	-1.911201	99
Es	1.986501	0.324488	0.679529	99
Es	1.318369	-1.662112	-0.372770	99
Es	-0.076171	-0.966199	1.396018	99
Es	-0.059363	-0.294080	0.296658	99
47
Properties=species:S:1:pos:R:3:Z:I:1 energy=-305.2754100018947 field_type=dipole dipole="0.000000 0.000000 0.000000" charge=0
C	-1.846066	0.396579	0.063734	6
C	-0.332796	0.296549	-0.129046	6
C	0.044294	0.375629	-1.610416	6
N	0.387524	1.357399	0.642464	7
C	1.368884	0.343909	1.104714	6
C	0.334724	-0.760281	0.810634	6
N	0.950764	-1.865471	0.072924	7
H	-2.124196	0.420289	1.123614	1
H	-2.347796	-0.465571	-0.389016	1
H	-2.247166	1.302639	-0.404556	1
H	1.128644	0.385859	-1.765816	1
H	-0.358536	1.286349	-2.070016	1
H	-0.363896	-0.479581	-2.160226	1
H	-0.158656	1.750859	1.409694	1
H	2.284083	0.333349	0.499894	1
H	1.658774	0.443819	2.156604	1
H	-0.257086	-1.064141	1.681034	1
H	1.603074	-1.578711	-0.656356	1
H	0.275434	-2.479471	-0.379856	1
Es	1.569730	0.416042	1.827632	99
Es	-0.236956	-0.212222	-1.981077	99
Es	0.044289	0.375606	-1.610389	99
Es	-1.105899	0.349582	-0.038199	99
Es	0.665251	-1.393156	0.364155	99
Es	0.841859	0.957120	0.882410	99
Es	0.519230	1.627862	0.447970	99
Es	0.334805	-0.760367	0.810532	99
Es	-0.076139	-0.966185	1.395964	99
Es	1.986475	0.324487	0.679574	99
Es	1.368771	0.343995	1.104681	99
Es	-2.116570	1.014089	-0.255981	99
Es	-2.183896	-0.194830	-0.246240	99
Es	0.032871	0.938982	0.304491	99
Es	1.318707	-1.662265	-0.372626	99
Es	-0.130247	0.315893	-0.872332	99
Es	0.048163	1.558031	1.117924	99
Es	0.950436	-1.865157	0.072579	99
Es	-0.059416	-0.294080	0.296636	99
Es	0.784251	0.376106	-1.709302	99
Es	0.524464	-2.212475	-0.212338	99
Es	0.908085	-0.273748	1.003199	99
Es	-0.234536	0.991097	-1.911201	99
Es	-2.026667	0.412213	0.792584	99
Es	-1.846081	0.396571	0.063739	99
Es	0.387411	1.357049	0.642670	99
Es	-0.332774	0.296666	-0.128988	99
Es	1.132210	-2.062054	0.295018	99
47
Properties=species:S:1:pos:R:3:Z:I:1 energy=-305.2754100018947 field_type=dipole dipole="0.000000 0.000000 0.000000" charge=0
C	-1.846066	0.396579	0.063734	6
C	-0.332796	0.296549	-0.129046	6
C	0.044294	0.375629	-1.610416	6
N	0.387524	1.357399	0.642464	7
C	1.368884	0.343909	1.104714	6
C	0.334724	-0.760281	0.810634	6
N	0.950764	-1.865471	0.072924	7
H	-2.124196	0.420289	1.123614	1
H	-2.347796	-0.465571	-0.389016	1
H	-2.247166	1.302639	-0.404556	1
H	1.128644	0.385859	-1.765816	1
H	-0.358536	1.286349	-2.070016	1
H	-0.363896	-0.479581	-2.160226	1
H	-0.158656	1.750859	1.409694	1
H	2.284083	0.333349	0.499894	1
H	1.658774	0.443819	2.156604	1
H	-0.257086	-1.064141	1.681034	1
H	1.603074	-1.578711	-0.656356	1
H	0.275434	-2.479471	-0.379856	1
Es	0.387320	1.356971	0.642795	99
Es	-0.130189	0.315939	-0.872269	99
Es	-0.236923	-0.212249	-1.981040	99
Es	-2.116575	1.014087	-0.255967	99
Es	-2.183927	-0.194809	-0.246213	99
Es	0.950470	-1.865153	0.072583	99
Es	-1.846076	0.396570	0.063731	99
Es	-2.026674	0.412221	0.792563	99
Es	-0.076064	-0.966155	1.395942	99
Es	1.317818	-1.661997	-0.373015	99
Es	0.334810	-0.760360	0.810534	99
Es	0.841856	0.957063	0.882438	99
Es	1.986488	0.324499	0.679671	99
Es	-1.105850	0.349566	-0.038249	99
Es	0.665371	-1.393241	0.364462	99
Es	0.032895	0.939157	0.304109	99
Es	-0.234573	0.991063	-1.911237	99
Es	0.044290	0.375606	-1.610395	99
Es	-0.059570	-0.294157	0.296599	99
Es	1.132967	-2.062098	0.294763	99
Es	1.368769	0.343995	1.104680	99
Es	0.519384	1.627950	0.448305	99
Es	0.048139	1.557927	1.117877	99
Es	0.784224	0.376144	-1.709343	99
Es	0.908085	-0.273735	1.003146	99
Es	1.569693	0.416047	1.827594	99
Es	-0.332776	0.296665	-0.128987	99
Es	0.524445	-2.212664	-0.211992	99
47
Properties=species:S:1:pos:R:3:Z:I:1 energy=-305.2754100018947 field_type=dipole dipole="0.000000 0.000000 0.000000" charge=0
C	-1.846066	0.396579	0.063734	6
C	-0.332796	0.296549	-0.129046	6
C	0.044294	0.375629	-1.610416	6
N	0.387524	1.357399	0.642464	7
C	1.368884	0.343909	1.104714	6
C	0.334724	-0.760281	0.810634	6
N	0.950764	-1.865471	0.072924	7
H	-2.124196	0.420289	1.123614	1
H	-2.347796	-0.465571	-0.389016	1
H	-2.247166	1.302639	-0.404556	1
H	1.128644	0.385859	-1.765816	1
H	-0.358536	1.286349	-2.070016	1
H	-0.363896	-0.479581	-2.160226	1
H	-0.158656	1.750859	1.409694	1
H	2.284083	0.333349	0.499894	1
H	1.658774	0.443819	2.156604	1
H	-0.257086	-1.064141	1.681034	1
H	1.603074	-1.578711	-0.656356	1
H	0.275434	-2.479471	-0.379856	1
Es	1.569664	0.416008	1.827563	99
Es	0.032930	0.939460	0.303515	99
Es	1.368772	0.343995	1.104681	99
Es	0.519114	1.628302	0.448922	99
Es	-2.026668	0.412235	0.792548	99
Es	0.048121	1.557302	1.117971	99
Es	-0.236939	-0.212215	-1.981073	99
Es	1.132492	-2.062172	0.295035	99
Es	-1.846074	0.396570	0.063730	99
Es	-1.105869	0.349599	-0.038239	99
Es	-0.234527	0.991110	-1.911222	99
Es	0.665188	-1.393241	0.364289	99
Es	0.950471	-1.865161	0.072574	99
Es	-2.183928	-0.194844	-0.246220	99
Es	0.334807	-0.760366	0.810531	99
Es	0.784170	0.376101	-1.709335	99
Es	0.908153	-0.273796	1.003207	99
Es	0.524521	-2.212486	-0.212316	99
Es	-2.116589	1.014073	-0.255948	99
Es	0.044305	0.375607	-1.610404	99
Es	-0.076106	-0.966103	1.395865	99
Es	0.842065	0.957122	0.882248	99
Es	-0.059482	-0.294102	0.296572	99
Es	0.387329	1.356961	0.642778	99
Es	-0.130202	0.315838	-0.872219	99
Es	1.986500	0.324519	0.679721	99
Es	-0.332772	0.296667	-0.128988	99
Es	1.318379	-1.662131	-0.372704	99
47
Properties=species:S:1:pos:R:3:Z:I:1 energy=-305.2754100018947 field_type=dipole dipole="0.000000 0.000000 0.000000" charge=0
C	-1.846066	0.396579	0.063734	6
C	-0.332796	0.296549	-0.129046	6
C	0.044294	0.375629	-1.610416	6
N	0.387524	1.357399	0.642464	7
C	1.368884	0.343909	1.104714	6
C	0.334724	-0.760281	0.810634	6
N	0.950764	-1.865471	0.072924	7
H	-2.124196	0.420289	1.123614	1
H	-2.347796	-0.465571	-0.389016	1
H	-2.247166	1.302639	-0.404556	1
H	1.128644	0.385859	-1.765816	1
H	-0.358536	1.286349	-2.070016	1
H	-0.363896	-0.479581	-2.160226	1
H	-0.158656	1.750859	1.409694	1
H	2.284083	0.333349	0.499894	1
H	1.658774	0.443819	2.156604	1
H	-0.257086	-1.064141	1.681034	1
H	1.603074	-1.578711	-0.656356	1
H	0.275434	-2.479471	-0.379856	1
Es	1.317874	-1.661945	-0.372803	99
Es	-1.105770	0.349537	-0.038178	99
Es	-2.116606	1.014053	-0.255930	99
Es	-0.332774	0.296665	-0.128980	99
Es	-2.183940	-0.194800	-0.246207	99
Es	-0.234538	0.991078	-1.911204	99
Es	1.986448	0.324451	0.679694	99
Es	0.908134	-0.273853	1.003433	99
Es	0.048177	1.558206	1.117780	99
Es	1.569760	0.416105	1.827461	99
Es	-0.076068	-0.966139	1.395803	99
Es	0.387329	1.356962	0.642779	99
Es	-0.059495	-0.294064	0.296550	99
Es	1.368772	0.343994	1.104681	99
Es	0.334808	-0.760363	0.810523	99
Es	0.950463	-1.865122	0.072508	99
Es	-2.026685	0.412219	0.792531	99
Es	0.044291	0.375606	-1.610395	99
Es	-0.236922	-0.212194	-1.981092	99
Es	-1.846076	0.396570	0.063730	99
Es	0.842026	0.957201	0.882442	99
Es	0.784204	0.376132	-1.709346	99
Es	0.519192	1.627578	0.448561	99
Es	0.524620	-2.212578	-0.212237	99
Es	1.132982	-2.062247	0.295201	99
Es	0.032850	0.939237	0.303904	99
Es	-0.130312	0.315858	-0.872265	99
Es	0.665085	-1.393295	0.364142	99
47
Properties=species:S:1:pos:R:3:Z:I:1 energy=-305.2754100018947 field_type=dipole dipole="0.000000 0.000000 0.000000" charge=0
C	-1.846066	0.396579	0.063734	6
C	-0.332796	0.296549	-0.129046	6
C	0.044294	0.375629	-1.610416	6
N	0.387524	1.357399	0.642464	7
C	1.368884	0.343909	1.104714	6
C	0.334724	-0.760281	0.810634	6
N	0.950764	-1.865471	0.072924	7
H	-2.124196	0.420289	1.123614	1
H	-2.347796	-0.465571	-0.389016	1
H	-2.247166	1.302639	-0.404556	1
H	1.128644	0.385859	-1.765816	1
H	-0.358536	1.286349	-2.070016	1
H	-0.363896	-0.479581	-2.160226	1
H	-0.158656	1.750859	1.409694	1
H	2.284083	0.333349	0.499894	1
H	1.658774	0.443819	2.156604	1
H	-0.257086	-1.064141	1.681034	1
H	1.603074	-1.578711	-0.656356	1
H	0.275434	-2.479471	-0.379856	1
Es	0.908166	-0.273880	1.003471	99
Es	0.950483	-1.865163	0.072568	99
Es	-0.076019	-0.966147	1.395769	99
Es	-0.236908	-0.212155	-1.981090	99
Es	0.387350	1.356978	0.642758	99
Es	0.842266	0.957325	0.882348	99
Es	-1.105780	0.349577	-0.038254	99
Es	0.032876	0.939431	0.303495	99
Es	-2.116598	1.014075	-0.255913	99
Es	0.518919	1.627495	0.449064	99
Es	1.132369	-2.061837	0.295184	99
Es	0.334807	-0.760364	0.810529	99
Es	1.318499	-1.662320	-0.372657	99
Es	-2.026691	0.412202	0.792510	99
Es	0.044291	0.375607	-1.610396	99
Es	0.524604	-2.212768	-0.212192	99
Es	-0.234518	0.991072	-1.911229	99
Es	0.784178	0.376109	-1.709377	99
Es	-1.846079	0.396570	0.063731	99
Es	1.986322	0.324436	0.679701	99
Es	1.368772	0.343994	1.104681	99
Es	-0.332774	0.296666	-0.128988	99
Es	1.569882	0.416095	1.827440	99
Es	0.048153	1.558031	1.117793	99
Es	0.665069	-1.393102	0.363913	99
Es	-0.059622	-0.294061	0.296604	99
Es	-2.183944	-0.194802	-0.246222	99
Es	-0.130245	0.315787	-0.872155	99
47
Properties=species:S:1:pos:R:3:Z:I:1 energy=-305.2754100018947 field_type=dipole dipole="0.000000 0.000000 0.000000" charge=0
C	-1.846066	0.396579	0.063734	6
C	-0.332796	0.296549	-0.129046	6
C	0.044294	0.375629	-1.610416	6
N	0.387524	1.357399	0.642464	7
C	1.368884	0.343909	1.104714	6
C	0.334724	-0.760281	0.810634	6
N	0.950764	-1.865471	0.072924	7
H	-2.124196	0.420289	1.123614	1
H	-2.347796	-0.465571	-0.389016	1
H	-2.247166	1.302639	-0.404556	1
H	1.128644	0.385859	-1.765816	1
H	-0.358536	1.286349	-2.070016	1
H	-0.363896	-0.479581	-2.160226	1
H	-0.158656	1.750859	1.409694	1
H	2.284083	0.333349	0.499894	1
H	1.658774	0.443819	2.156604	1
H	-0.257086	-1.064141	1.681034	1
H	1.603074	-1.578711	-0.656356	1
H	0.275434	-2.479471	-0.379856	1
Es	-0.076030	-0.966131	1.395729	99
Es	0.524607	-2.212447	-0.212363	99
Es	-0.234489	0.991060	-1.911236	99
Es	0.048294	1.558846	1.117520	99
Es	-0.059623	-0.294109	0.296635	99
Es	-0.130266	0.315803	-0.872110	99
Es	1.569881	0.416050	1.827376	99
Es	0.784132	0.376132	-1.709376	99
Es	-1.846076	0.396570	0.063730	99
Es	0.334806	-0.760359	0.810529	99
Es	-1.105682	0.349602	-0.038285	99
Es	0.841813	0.957145	0.882786	99
Es	1.132424	-2.062183	0.295179	99
Es	0.044291	0.375608	-1.610397	99
Es	0.950496	-1.865193	0.072615	99
Es	-0.236886	-0.212163	-1.981125	99
Es	-2.183983	-0.194844	-0.246130	99
Es	0.032705	0.939230	0.304072	99
Es	0.387345	1.356972	0.642757	99
Es	0.665012	-1.393159	0.363979	99
Es	0.519353	1.627077	0.448422	99
Es	1.986335	0.324520	0.679716	99
Es	-2.026716	0.412355	0.792501	99
Es	0.908251	-0.273905	1.003460	99
Es	1.318447	-1.662235	-0.372621	99
Es	-0.332773	0.296666	-0.128988	99
Es	1.368770	0.343994	1.104680	99
Es	-2.116608	1.013948	-0.255970	99
