41
Properties=species:S:1:pos:R:3:Z:I:1 energy=-302.94407363180477 field_type=dipole dipole="0.000000 0.000000 0.000000" charge=0
C	-1.420784	0.660145	0.349327	6
C	0.089606	0.603365	0.420327	6
C	0.708706	1.690985	-0.390453	6
N	1.432576	1.258855	-1.368963	7
N	1.410486	-0.167985	-1.342593	7
C	0.671726	-0.541925	-0.343543	6
C	0.429836	-1.963655	0.025867	6
H	-1.795484	1.597425	0.774067	1
H	-1.868724	-0.170315	0.904507	1
H	-1.780264	0.598405	-0.684423	1
H	0.463916	0.630865	1.445947	1
H	0.553146	2.751995	-0.152063	1
H	0.996306	-2.628875	-0.631033	1
H	-0.634724	-2.191995	-0.066983	1
H	0.743676	-2.127295	1.060017	1
Es	0.358824	0.006790	0.068816	99
Es	0.599070	2.404296	-0.228418	99
Es	0.671685	-0.541952	-0.343490	99
Es	0.429827	-1.963582	0.025872	99
Es	1.338251	1.440734	-0.762051	99
Es	1.319688	-0.310799	-0.741447	99
Es	0.875990	1.443550	-1.099399	99
Es	1.402866	0.550288	-1.333022	99
Es	1.601004	-0.370771	-1.601191	99
Es	-1.716455	0.094710	0.728133	99
Es	-0.641310	0.626086	0.377857	99
Es	0.638994	-2.059284	0.722862	99
Es	-1.420708	0.660141	0.349335	99
Es	0.381187	1.172217	0.044707	99
Es	-0.286429	-2.101833	-0.034692	99
Es	1.629050	1.442915	-1.635469	99
Es	0.089589	0.603366	0.420304	99
Es	-1.652270	0.617407	-0.350455	99
Es	0.343961	0.618113	1.097562	99
Es	-1.665184	1.296503	0.639984	99
Es	0.859379	-0.312273	-1.078988	99
Es	0.806346	-2.408097	-0.410924	99
Es	1.432242	1.258563	-1.368515	99
Es	0.708654	1.691007	-0.390419	99
Es	1.410174	-0.167659	-1.342173	99
Es	0.548684	-1.248670	-0.161109	99
41
Properties=species:S:1:pos:R:3:Z:I:1 energy=-302.94407363180477 field_type=dipole dipole="0.000000 0.000000 0.000000" charge=0
C	-1.420784	0.660145	0.349327	6
C	0.089606	0.603365	0.420327	6
C	0.708706	1.690985	-0.390453	6
N	1.432576	1.258855	-1.368963	7
N	1.410486	-0.167985	-1.342593	7
C	0.671726	-0.541925	-0.343543	6
C	0.429836	-1.963655	0.025867	6
H	-1.795484	1.597425	0.774067	1
H	-1.868724	-0.170315	0.904507	1
H	-1.780264	0.598405	-0.684423	1
H	0.463916	0.630865	1.445947	1
H	0.553146	2.751995	-0.152063	1
H	0.996306	-2.628875	-0.631033	1
H	-0.634724	-2.191995	-0.066983	1
H	0.743676	-2.127295	1.060017	1
Es	0.859507	-0.312305	-1.078912	99
Es	-1.665338	1.296738	0.639931	99
Es	0.381340	1.172136	0.044879	99
Es	1.629437	1.443097	-1.634931	99
Es	-1.652089	0.617285	-0.350269	99
Es	1.403009	0.550290	-1.333406	99
Es	0.089590	0.603366	0.420304	99
Es	1.337569	1.440610	-0.762276	99
Es	-0.286535	-2.101856	-0.034714	99
Es	0.671686	-0.541952	-0.343489	99
Es	0.708669	1.691007	-0.390405	99
Es	0.806409	-2.408095	-0.410860	99
Es	0.875876	1.443605	-1.099758	99
Es	0.638948	-2.059284	0.722754	99
Es	-0.641302	0.625855	0.377930	99
Es	1.410171	-0.167656	-1.342172	99
Es	0.429828	-1.963581	0.025872	99
Es	-1.716576	0.094784	0.727931	99
Es	1.432231	1.258580	-1.368501	99
Es	1.600882	-0.370762	-1.601025	99
Es	0.358748	0.006956	0.068868	99
Es	0.548825	-1.248727	-0.161166	99
Es	-1.420709	0.660142	0.349335	99
Es	1.319642	-0.310799	-0.741512	99
Es	0.599285	2.404330	-0.228302	99
Es	0.344011	0.618006	1.097564	99
41
Properties=species:S:1:pos:R:3:Z:I:1 energy=-302.94407363180477 field_type=dipole dipole="0.000000 0.000000 0.000000" charge=0
C	-1.420784	0.660145	0.349327	6
C	0.089606	0.603365	0.420327	6
C	0.708706	1.690985	-0.390453	6
N	1.432576	1.258855	-1.368963	7
N	1.410486	-0.167985	-1.342593	7
C	0.671726	-0.541925	-0.343543	6
C	0.429836	-1.963655	0.025867	6
H	-1.795484	1.597425	0.774067	1
H	-1.868724	-0.170315	0.904507	1
H	-1.780264	0.598405	-0.684423	1
H	0.463916	0.630865	1.445947	1
H	0.553146	2.751995	-0.152063	1
H	0.996306	-2.628875	-0.631033	1
H	-0.634724	-2.191995	-0.066983	1
H	0.743676	-2.127295	1.060017	1
Es	1.432242	1.258542	-1.368527	99
Es	0.548918	-1.248840	-0.161210	99
Es	0.671687	-0.541949	-0.343491	99
Es	-0.286508	-2.101818	-0.034765	99
Es	0.876099	1.443465	-1.099581	99
Es	1.410172	-0.167647	-1.342186	99
Es	1.629030	1.443035	-1.635000	99
Es	1.403353	0.550447	-1.333397	99
Es	0.708674	1.691005	-0.390404	99
Es	0.089588	0.603366	0.420303	99
Es	0.806350	-2.408082	-0.410847	99
Es	0.381207	1.172095	0.044780	99
Es	0.358840	0.007012	0.068978	99
Es	1.337828	1.440848	-0.762216	99
Es	-1.652261	0.617294	-0.350353	99
Es	-1.665258	1.296638	0.639991	99
Es	1.600964	-0.370826	-1.600553	99
Es	0.599264	2.404403	-0.228400	99
Es	-1.420708	0.660142	0.349334	99
Es	1.319070	-0.311096	-0.741680	99
Es	-0.641409	0.625787	0.377940	99
Es	0.638957	-2.059314	0.722835	99
Es	-1.716509	0.094880	0.727987	99
Es	0.344085	0.618128	1.097491	99
Es	0.429828	-1.963580	0.025872	99
Es	0.859610	-0.312164	-1.079233	99
41
Properties=species:S:1:pos:R:3:Z:I:1 energy=-302.94407363180477 field_type=dipole dipole="0.000000 0.000000 0.000000" charge=0
C	-1.420784	0.660145	0.349327	6
C	0.089606	0.603365	0.420327	6
C	0.708706	1.690985	-0.390453	6
N	1.432576	1.258855	-1.368963	7
N	1.410486	-0.167985	-1.342593	7
C	0.671726	-0.541925	-0.343543	6
C	0.429836	-1.963655	0.025867	6
H	-1.795484	1.597425	0.774067	1
H	-1.868724	-0.170315	0.904507	1
H	-1.780264	0.598405	-0.684423	1
H	0.463916	0.630865	1.445947	1
H	0.553146	2.751995	-0.152063	1
H	0.996306	-2.628875	-0.631033	1
H	-0.634724	-2.191995	-0.066983	1
H	0.743676	-2.127295	1.060017	1
Es	0.671682	-0.541951	-0.343494	99
Es	1.410171	-0.167655	-1.342174	99
Es	0.381175	1.172021	0.044751	99
Es	0.548950	-1.248905	-0.161226	99
Es	0.876253	1.443526	-1.099393	99
Es	1.601033	-0.370734	-1.600328	99
Es	-1.652212	0.617336	-0.350443	99
Es	0.344047	0.618168	1.097536	99
Es	0.859760	-0.312282	-1.079350	99
Es	0.806387	-2.408118	-0.410836	99
Es	0.708667	1.691006	-0.390401	99
Es	0.599247	2.404441	-0.228419	99
Es	1.337661	1.440853	-0.762445	99
Es	0.358934	0.007116	0.069074	99
Es	-1.716568	0.094926	0.727939	99
Es	1.403368	0.550308	-1.333680	99
Es	-0.286547	-2.101825	-0.034728	99
Es	0.089590	0.603366	0.420305	99
Es	-1.665290	1.296538	0.639975	99
Es	1.318994	-0.311093	-0.741636	99
Es	0.638945	-2.059274	0.722769	99
Es	1.432251	1.258533	-1.368524	99
Es	1.628863	1.443192	-1.634852	99
Es	-1.420706	0.660143	0.349334	99
Es	0.429827	-1.963581	0.025872	99
Es	-0.641372	0.625716	0.378044	99
41
Properties=species:S:1:pos:R:3:Z:I:1 energy=-302.94407363180477 field_type=dipole dipole="0.000000 0.000000 0.000000" charge=0
C	-1.420784	0.660145	0.349327	6
C	0.089606	0.603365	0.420327	6
C	0.708706	1.690985	-0.390453	6
N	1.432576	1.258855	-1.368963	7
N	1.410486	-0.167985	-1.342593	7
C	0.671726	-0.541925	-0.343543	6
C	0.429836	-1.963655	0.025867	6
H	-1.795484	1.597425	0.774067	1
H	-1.868724	-0.170315	0.904507	1
H	-1.780264	0.598405	-0.684423	1
H	0.463916	0.630865	1.445947	1
H	0.553146	2.751995	-0.152063	1
H	0.996306	-2.628875	-0.631033	1
H	-0.634724	-2.191995	-0.066983	1
H	0.743676	-2.127295	1.060017	1
Es	0.381251	1.171893	0.044967	99
Es	-1.652192	0.617282	-0.350277	99
Es	-0.286583	-2.101874	-0.034693	99
Es	-1.420709	0.660142	0.349334	99
Es	1.432244	1.258560	-1.368517	99
Es	1.337450	1.440834	-0.762590	99
Es	0.671688	-0.541951	-0.343490	99
Es	1.319091	-0.311358	-0.741792	99
Es	0.429826	-1.963581	0.025870	99
Es	1.600697	-0.370560	-1.600312	99
Es	-1.716599	0.094914	0.727914	99
Es	0.708655	1.691004	-0.390423	99
Es	0.638929	-2.059256	0.722682	99
Es	0.089589	0.603367	0.420303	99
Es	1.628953	1.443224	-1.634507	99
Es	0.548970	-1.248945	-0.161160	99
Es	0.806459	-2.408114	-0.410840	99
Es	0.876258	1.443589	-1.099431	99
Es	1.410179	-0.167653	-1.342182	99
Es	0.599276	2.404484	-0.228540	99
Es	0.859816	-0.312323	-1.079328	99
Es	0.344171	0.618066	1.097461	99
Es	0.358858	0.007239	0.068968	99
Es	1.403660	0.550307	-1.333668	99
Es	-1.665380	1.296594	0.639894	99
Es	-0.641446	0.625886	0.378028	99
41
Properties=species:S:1:pos:R:3:Z:I:1 energy=-302.94407363180477 field_type=dipole dipole="0.000000 0.000000 0.000000" charge=0
C	-1.420784	0.660145	0.349327	6
C	0.089606	0.603365	0.420327	6
C	0.708706	1.690985	-0.390453	6
N	1.432576	1.258855	-1.368963	7
N	1.410486	-0.167985	-1.342593	7
C	0.671726	-0.541925	-0.343543	6
C	0.429836	-1.963655	0.025867	6
H	-1.795484	1.597425	0.774067	1
H	-1.868724	-0.170315	0.904507	1
H	-1.780264	0.598405	-0.684423	1
H	0.463916	0.630865	1.445947	1
H	0.553146	2.751995	-0.152063	1
H	0.996306	-2.628875	-0.631033	1
H	-0.634724	-2.191995	-0.066983	1
H	0.743676	-2.127295	1.060017	1
Es	0.671688	-0.541951	-0.343491	99
Es	-1.420710	0.660142	0.349335	99
Es	1.432250	1.258546	-1.368525	99
Es	1.319588	-0.310951	-0.742000	99
Es	0.089591	0.603366	0.420305	99
Es	0.860165	-0.312526	-1.078354	99
Es	-0.286582	-2.101825	-0.034643	99
Es	1.337506	1.440867	-0.762645	99
Es	0.548924	-1.249085	-0.161351	99
Es	1.600034	-0.370816	-1.600581	99
Es	0.429827	-1.963581	0.025872	99
Es	1.410175	-0.167645	-1.342173	99
Es	0.639011	-2.059203	0.722733	99
Es	0.876450	1.443670	-1.099317	99
Es	-1.716634	0.094956	0.727908	99
Es	0.344334	0.618019	1.097300	99
Es	0.806374	-2.408150	-0.410854	99
Es	-1.665393	1.296660	0.639850	99
Es	1.628687	1.443267	-1.634478	99
Es	0.381176	1.171832	0.044967	99
Es	0.599288	2.404509	-0.228531	99
Es	-1.652170	0.617227	-0.350223	99
Es	-0.641536	0.625850	0.378243	99
Es	1.403679	0.550299	-1.334098	99
Es	0.358711	0.007290	0.068826	99
Es	0.708675	1.691004	-0.390404	99
41
Properties=species:S:1:pos:R:3:Z:I:1 energy=-302.94407363180477 field_type=dipole dipole="0.000000 0.000000 0.000000" charge=0
C	-1.420784	0.660145	0.349327	6
C	0.089606	0.603365	0.420327	6
C	0.708706	1.690985	-0.390453	6
N	1.432576	1.258855	-1.368963	7
N	1.410486	-0.167985	-1.342593	7
C	0.671726	-0.541925	-0.343543	6
C	0.429836	-1.963655	0.025867	6
H	-1.795484	1.597425	0.774067	1
H	-1.868724	-0.170315	0.904507	1
H	-1.780264	0.598405	-0.684423	1
H	0.463916	0.630865	1.445947	1
H	0.553146	2.751995	-0.152063	1
H	0.996306	-2.628875	-0.631033	1
H	-0.634724	-2.191995	-0.066983	1
H	0.743676	-2.127295	1.060017	1
Es	-1.652224	0.617258	-0.350350	99
Es	1.628615	1.443304	-1.634309	99
Es	0.806302	-2.408102	-0.410816	99
Es	1.319463	-0.310922	-0.741999	99
Es	0.671689	-0.541948	-0.343491	99
Es	-1.665373	1.296526	0.639866	99
Es	0.344259	0.618082	1.097368	99
Es	-1.420709	0.660141	0.349334	99
Es	1.410172	-0.167684	-1.342172	99
Es	0.381196	1.171700	0.045008	99
Es	-0.286558	-2.101801	-0.034734	99
Es	1.337312	1.441026	-0.762828	99
Es	0.860075	-0.312567	-1.078592	99
Es	-1.716630	0.095028	0.727922	99
Es	1.403942	0.550236	-1.334430	99
Es	0.429828	-1.963581	0.025872	99
Es	-0.641504	0.625872	0.378241	99
Es	1.600024	-0.370760	-1.600048	99
Es	0.599339	2.404522	-0.228565	99
Es	0.358791	0.007308	0.068917	99
Es	0.089591	0.603366	0.420303	99
Es	0.708665	1.691006	-0.390410	99
Es	0.876597	1.443677	-1.099303	99
Es	0.639020	-2.059266	0.722832	99
Es	0.548980	-1.249200	-0.161423	99
Es	1.432248	1.258547	-1.368524	99
41
Properties=species:S:1:pos:R:3:Z:I:1 energy=-302.94407363180477 field_type=dipole dipole="0.000000 0.000000 0.000000" charge=0
C	-1.420784	0.660145	0.349327	6
C	0.089606	0.603365	0.420327	6
C	0.708706	1.690985	-0.390453	6
N	1.432576	1.258855	-1.368963	7
N	1.410486	-0.167985	-1.342593	7
C	0.671726	-0.541925	-0.343543	6
C	0.429836	-1.963655	0.025867	6
H	-1.795484	1.597425	0.774067	1
H	-1.868724	-0.170315	0.904507	1
H	-1.780264	0.598405	-0.684423	1
H	0.463916	0.630865	1.445947	1
H	0.553146	2.751995	-0.152063	1
H	0.996306	-2.628875	-0.631033	1
H	-0.634724	-2.191995	-0.066983	1
H	0.743676	-2.127295	1.060017	1
Es	0.429828	-1.963581	0.025872	99
Es	-1.652242	0.617301	-0.350205	99
Es	0.671694	-0.541950	-0.343488	99
Es	-1.665401	1.296526	0.639843	99
Es	0.708665	1.691005	-0.390411	99
Es	1.432257	1.258652	-1.368526	99
Es	1.600540	-0.370935	-1.599623	99
Es	-1.420709	0.660142	0.349334	99
Es	0.599358	2.404610	-0.228671	99
Es	1.337356	1.441064	-0.762820	99
Es	0.548956	-1.249222	-0.161323	99
Es	0.381250	1.171680	0.045123	99
Es	0.358833	0.007571	0.068939	99
Es	1.410188	-0.167648	-1.342197	99
Es	0.638956	-2.059186	0.722782	99
Es	0.089590	0.603366	0.420303	99
Es	-0.641515	0.625817	0.378126	99
Es	0.860284	-0.312499	-1.078947	99
Es	0.344278	0.618086	1.097357	99
Es	-0.286564	-2.101854	-0.034731	99
Es	1.628382	1.443198	-1.634112	99
Es	0.876690	1.443587	-1.099258	99
Es	1.404135	0.550298	-1.334568	99
Es	-1.716685	0.094998	0.727877	99
Es	1.318538	-0.311133	-0.742185	99
Es	0.806446	-2.408125	-0.410823	99
41
Properties=species:S:1:pos:R:3:Z:I:1 energy=-302.94407363180477 field_type=dipole dipole="0.000000 0.000000 0.000000" charge=0
C	-1.420784	0.660145	0.349327	6
C	0.089606	0.603365	0.420327	6
C	0.708706	1.690985	-0.390453	6
N	1.432576	1.258855	-1.368963	7
N	1.410486	-0.167985	-1.342593	7
C	0.671726	-0.541925	-0.343543	6
C	0.429836	-1.963655	0.025867	6
H	-1.795484	1.597425	0.774067	1
H	-1.868724	-0.170315	0.904507	1
H	-1.780264	0.598405	-0.684423	1
H	0.463916	0.630865	1.445947	1
H	0.553146	2.751995	-0.152063	1
H	0.996306	-2.628875	-0.631033	1
H	-0.634724	-2.191995	-0.066983	1
H	0.743676	-2.127295	1.060017	1
Es	0.381101	1.171606	0.045095	99
Es	0.708673	1.691004	-0.390406	99
Es	0.671692	-0.541949	-0.343486	99
Es	1.318759	-0.310597	-0.742352	99
Es	-1.420710	0.660142	0.349334	99
Es	0.860256	-0.312850	-1.078551	99
Es	-1.652260	0.617146	-0.350182	99
Es	0.876826	1.443947	-1.099347	99
Es	-0.286567	-2.101807	-0.034735	99
Es	1.404005	0.550117	-1.335022	99
Es	0.599407	2.404626	-0.228657	99
Es	-0.641574	0.625721	0.378241	99
Es	0.089592	0.603367	0.420303	99
Es	1.337058	1.440929	-0.763041	99
Es	0.549024	-1.249276	-0.161430	99
Es	1.600484	-0.371033	-1.599431	99
Es	1.432250	1.258532	-1.368533	99
Es	-1.716711	0.095125	0.727977	99
Es	0.344388	0.618060	1.097282	99
Es	-1.665404	1.296578	0.639700	99
Es	0.429828	-1.963582	0.025871	99
Es	0.358867	0.007636	0.068953	99
Es	0.638959	-2.059207	0.722793	99
Es	1.410171	-0.167666	-1.342176	99
Es	1.628606	1.443352	-1.633724	99
Es	0.806389	-2.408153	-0.410808	99
41
Properties=species:S:1:pos:R:3:Z:I:1 energy=-302.94407363180477 field_type=dipole dipole="0.000000 0.000000 0.000000" charge=0
C	-1.420784	0.660145	0.349327	6
C	0.089606	0.603365	0.420327	6
C	0.708706	1.690985	-0.390453	6
N	1.432576	1.258855	-1.368963	7
N	1.410486	-0.167985	-1.342593	7
C	0.671726	-0.541925	-0.343543	6
C	0.429836	-1.963655	0.025867	6
H	-1.795484	1.597425	0.774067	1
H	-1.868724	-0.170315	0.904507	1
H	-1.780264	0.598405	-0.684423	1
H	0.463916	0.630865	1.445947	1
H	0.553146	2.751995	-0.152063	1
H	0.996306	-2.628875	-0.631033	1
H	-0.634724	-2.191995	-0.066983	1
H	0.743676	-2.127295	1.060017	1
Es	-1.420710	0.660142	0.349334	99
Es	0.860505	-0.312493	-1.078805	99
Es	0.671688	-0.541951	-0.343489	99
Es	1.337111	1.441057	-0.763099	99
Es	0.549095	-1.249349	-0.161423	99
Es	-1.652268	0.617299	-0.350168	99
Es	1.432246	1.258554	-1.368521	99
Es	1.404337	0.550207	-1.334827	99
Es	0.876953	1.443768	-1.099144	99
Es	0.381192	1.171510	0.045161	99
Es	-0.286575	-2.101791	-0.034743	99
Es	-1.716715	0.095055	0.727834	99
Es	0.638951	-2.059235	0.722781	99
Es	0.708680	1.691003	-0.390404	99
Es	0.599431	2.404666	-0.228712	99
Es	0.344329	0.618081	1.097276	99
Es	0.089590	0.603366	0.420303	99
Es	1.628263	1.443405	-1.633831	99
Es	0.358908	0.007680	0.069059	99
Es	1.318491	-0.311247	-0.742310	99
Es	1.410174	-0.167659	-1.342175	99
Es	-1.665441	1.296485	0.639826	99
Es	-0.641588	0.625812	0.378169	99
Es	1.600248	-0.370869	-1.599474	99
Es	0.806387	-2.408146	-0.410821	99
Es	0.429828	-1.963582	0.025872	99
41
Properties=species:S:1:pos:R:3:Z:I:1 energy=-302.94407363180477 field_type=dipole dipole="0.000000 0.000000 0.000000" charge=0
C	-1.420784	0.660145	0.349327	6
C	0.089606	0.603365	0.420327	6
C	0.708706	1.690985	-0.390453	6
N	1.432576	1.258855	-1.368963	7
N	1.410486	-0.167985	-1.342593	7
C	0.671726	-0.541925	-0.343543	6
C	0.429836	-1.963655	0.025867	6
H	-1.795484	1.597425	0.774067	1
H	-1.868724	-0.170315	0.904507	1
H	-1.780264	0.598405	-0.684423	1
H	0.463916	0.630865	1.445947	1
H	0.553146	2.751995	-0.152063	1
H	0.996306	-2.628875	-0.631033	1
H	-0.634724	-2.191995	-0.066983	1
H	0.743676	-2.127295	1.060017	1
Es	0.877041	1.443882	-1.099044	99
Es	0.671688	-0.541950	-0.343489	99
Es	0.344346	0.618111	1.097216	99
Es	-0.641638	0.625756	0.378200	99
Es	-1.716717	0.095093	0.727771	99
Es	1.404794	0.550164	-1.335096	99
Es	0.089592	0.603366	0.420303	99
Es	0.599445	2.404704	-0.228766	99
Es	1.432264	1.258546	-1.368546	99
Es	0.806385	-2.408156	-0.410803	99
Es	0.638969	-2.059214	0.722752	99
Es	-1.652300	0.617337	-0.350178	99
Es	-0.286614	-2.101794	-0.034723	99
Es	0.429829	-1.963581	0.025873	99
Es	1.318182	-0.311405	-0.742289	99
Es	0.708672	1.691004	-0.390406	99
Es	0.860463	-0.312242	-1.079036	99
Es	1.410198	-0.167645	-1.342207	99
Es	1.628076	1.443385	-1.633709	99
Es	1.337172	1.441033	-0.763175	99
Es	0.359006	0.007749	0.069133	99
Es	0.381135	1.171437	0.045178	99
Es	0.549176	-1.249431	-0.161441	99
Es	1.600113	-0.370965	-1.599058	99
Es	-1.665455	1.296441	0.639877	99
Es	-1.420712	0.660142	0.349333	99
41
Properties=species:S:1:pos:R:3:Z:I:1 energy=-302.94407363180477 field_type=dipole dipole="0.000000 0.000000 0.000000" charge=0
C	-1.420784	0.660145	0.349327	6
C	0.089606	0.603365	0.420327	6
C	0.708706	1.690985	-0.390453	6
N	1.432576	1.258855	-1.368963	7
N	1.410486	-0.167985	-1.342593	7
C	0.671726	-0.541925	-0.343543	6
C	0.429836	-1.963655	0.025867	6
H	-1.795484	1.597425	0.774067	1
H	-1.868724	-0.170315	0.904507	1
H	-1.780264	0.598405	-0.684423	1
H	0.463916	0.630865	1.445947	1
H	0.553146	2.751995	-0.152063	1
H	0.996306	-2.628875	-0.631033	1
H	-0.634724	-2.191995	-0.066983	1
H	0.743676	-2.127295	1.060017	1
Es	-1.665508	1.296437	0.639777	99
Es	0.089590	0.603366	0.420303	99
Es	1.318052	-0.311344	-0.742548	99
Es	0.877139	1.443874	-1.099129	99
Es	1.404573	0.550179	-1.335082	99
Es	-0.641619	0.625813	0.378232	99
Es	0.860753	-0.312457	-1.078799	99
Es	1.628070	1.443301	-1.633400	99
Es	0.638950	-2.059216	0.722765	99
Es	1.432288	1.258641	-1.368577	99
Es	0.806377	-2.408177	-0.410804	99
Es	0.671686	-0.541952	-0.343488	99
Es	1.410201	-0.167639	-1.342199	99
Es	-1.652276	0.617282	-0.350122	99
Es	1.600239	-0.370952	-1.599135	99
Es	-1.716755	0.095117	0.727790	99
Es	1.336939	1.441140	-0.763292	99
Es	0.708669	1.691005	-0.390405	99
Es	-1.420711	0.660142	0.349335	99
Es	0.381156	1.171392	0.045240	99
Es	0.549207	-1.249505	-0.161495	99
Es	0.599519	2.404730	-0.228795	99
Es	0.429827	-1.963582	0.025872	99
Es	-0.286616	-2.101749	-0.034742	99
Es	0.344381	0.618068	1.097219	99
Es	0.358979	0.007857	0.069149	99
41
Properties=species:S:1:pos:R:3:Z:I:1 energy=-302.94407363180477 field_type=dipole dipole="0.000000 0.000000 0.000000" charge=0
C	-1.420784	0.660145	0.349327	6
C	0.089606	0.603365	0.420327	6
C	0.708706	1.690985	-0.390453	6
N	1.432576	1.258855	-1.368963	7
N	1.410486	-0.167985	-1.342593	7
C	0.671726	-0.541925	-0.343543	6
C	0.429836	-1.963655	0.025867	6
H	-1.795484	1.597425	0.774067	1
H	-1.868724	-0.170315	0.904507	1
H	-1.780264	0.598405	-0.684423	1
H	0.463916	0.630865	1.445947	1
H	0.553146	2.751995	-0.152063	1
H	0.996306	-2.628875	-0.631033	1
H	-0.634724	-2.191995	-0.066983	1
H	0.743676	-2.127295	1.060017	1
Es	0.358940	0.007941	0.069097	99
Es	0.638970	-2.059231	0.722802	99
Es	0.671688	-0.541951	-0.343489	99
Es	0.344420	0.618076	1.097178	99
Es	0.708672	1.691004	-0.390405	99
Es	1.432305	1.258684	-1.368599	99
Es	1.628026	1.443323	-1.633218	99
Es	0.549155	-1.249561	-0.161507	99
Es	0.860854	-0.312610	-1.078627	99
Es	-1.652285	0.617303	-0.350113	99
Es	0.429828	-1.963583	0.025872	99
Es	1.318162	-0.311304	-0.742609	99
Es	1.410236	-0.167799	-1.342257	99
Es	-1.420710	0.660142	0.349334	99
Es	-1.665500	1.296422	0.639779	99
Es	-0.286591	-2.101779	-0.034764	99
Es	-1.716776	0.095121	0.727782	99
Es	1.336739	1.441194	-0.763420	99
Es	1.404742	0.550159	-1.335340	99
Es	0.089591	0.603367	0.420301	99
Es	0.599526	2.404784	-0.228813	99
Es	-0.641671	0.625813	0.378260	99
Es	0.877253	1.443835	-1.099108	99
Es	0.806391	-2.408128	-0.410833	99
Es	0.381200	1.171298	0.045300	99
Es	1.599945	-0.370751	-1.598933	99
41
Properties=species:S:1:pos:R:3:Z:I:1 energy=-302.94407363180477 field_type=dipole dipole="0.000000 0.000000 0.000000" charge=0
C	-1.420784	0.660145	0.349327	6
C	0.089606	0.603365	0.420327	6
C	0.708706	1.690985	-0.390453	6
N	1.432576	1.258855	-1.368963	7
N	1.410486	-0.167985	-1.342593	7
C	0.671726	-0.541925	-0.343543	6
C	0.429836	-1.963655	0.025867	6
H	-1.795484	1.597425	0.774067	1
H	-1.868724	-0.170315	0.904507	1
H	-1.780264	0.598405	-0.684423	1
H	0.463916	0.630865	1.445947	1
H	0.553146	2.751995	-0.152063	1
H	0.996306	-2.628875	-0.631033	1
H	-0.634724	-2.191995	-0.066983	1
H	0.743676	-2.127295	1.060017	1
Es	1.410178	-0.167655	-1.342180	99
Es	0.877361	1.443890	-1.098990	99
Es	1.432255	1.258543	-1.368532	99
Es	1.336736	1.441123	-0.763494	99
Es	-1.652291	0.617195	-0.350051	99
Es	-0.641707	0.625854	0.378382	99
Es	1.318035	-0.311306	-0.742707	99
Es	0.599538	2.404794	-0.228866	99
Es	0.806335	-2.408192	-0.410790	99
Es	0.358811	0.008068	0.068982	99
Es	0.089592	0.603367	0.420302	99
Es	-1.716796	0.095195	0.727839	99
Es	0.429827	-1.963582	0.025872	99
Es	1.599906	-0.370951	-1.598922	99
Es	0.344582	0.617951	1.097118	99
Es	-1.665512	1.296490	0.639681	99
Es	0.638966	-2.059221	0.722772	99
Es	1.404857	0.550163	-1.335503	99
Es	0.381151	1.171254	0.045352	99
Es	0.708678	1.691002	-0.390402	99
Es	0.861009	-0.312608	-1.078538	99
Es	0.671683	-0.541972	-0.343481	99
Es	1.627952	1.443563	-1.633199	99
Es	-1.420711	0.660141	0.349334	99
Es	-0.286577	-2.101766	-0.034719	99
Es	0.549252	-1.249569	-0.161590	99
41
Properties=species:S:1:pos:R:3:Z:I:1 energy=-302.94407363180477 field_type=dipole dipole="0.000000 0.000000 0.000000" charge=0
C	-1.420784	0.660145	0.349327	6
C	0.089606	0.603365	0.420327	6
C	0.708706	1.690985	-0.390453	6
N	1.432576	1.258855	-1.368963	7
N	1.410486	-0.167985	-1.342593	7
C	0.671726	-0.541925	-0.343543	6
C	0.429836	-1.963655	0.025867	6
H	-1.795484	1.597425	0.774067	1
H	-1.868724	-0.170315	0.904507	1
H	-1.780264	0.598405	-0.684423	1
H	0.463916	0.630865	1.445947	1
H	0.553146	2.751995	-0.152063	1
H	0.996306	-2.628875	-0.631033	1
H	-0.634724	-2.191995	-0.066983	1
H	0.743676	-2.127295	1.060017	1
Es	-1.716800	0.095235	0.727773	99
Es	0.344503	0.618043	1.097132	99
Es	-1.665589	1.296509	0.639672	99
Es	-0.641730	0.625773	0.378291	99
Es	0.549227	-1.249711	-0.161672	99
Es	1.410177	-0.167664	-1.342180	99
Es	0.089592	0.603367	0.420300	99
Es	1.317668	-0.311394	-0.742777	99
Es	0.429827	-1.963582	0.025872	99
Es	1.432250	1.258553	-1.368526	99
Es	-1.652271	0.617153	-0.350008	99
Es	1.336649	1.441250	-0.763630	99
Es	-1.420708	0.660142	0.349334	99
Es	1.600099	-0.370963	-1.598636	99
Es	0.860970	-0.312483	-1.078738	99
Es	0.806353	-2.408194	-0.410797	99
Es	0.708671	1.691003	-0.390407	99
Es	0.877476	1.444011	-1.099058	99
Es	1.627929	1.443448	-1.632997	99
Es	0.638972	-2.059182	0.722820	99
Es	0.381220	1.171136	0.045364	99
Es	0.358966	0.008117	0.069191	99
Es	1.405003	0.550067	-1.335527	99
Es	0.671685	-0.541953	-0.343490	99
Es	-0.286588	-2.101737	-0.034750	99
Es	0.599560	2.404826	-0.228887	99
41
Properties=species:S:1:pos:R:3:Z:I:1 energy=-302.94407363180477 field_type=dipole dipole="0.000000 0.000000 0.000000" charge=0
C	-1.420784	0.660145	0.349327	6
C	0.089606	0.603365	0.420327	6
C	0.708706	1.690985	-0.390453	6
N	1.432576	1.258855	-1.368963	7
N	1.410486	-0.167985	-1.342593	7
C	0.671726	-0.541925	-0.343543	6
C	0.429836	-1.963655	0.025867	6
H	-1.795484	1.597425	0.774067	1
H	-1.868724	-0.170315	0.904507	1
H	-1.780264	0.598405	-0.684423	1
H	0.463916	0.630865	1.445947	1
H	0.553146	2.751995	-0.152063	1
H	0.996306	-2.628875	-0.631033	1
H	-0.634724	-2.191995	-0.066983	1
H	0.743676	-2.127295	1.060017	1
Es	-0.641730	0.625787	0.378332	99
Es	0.877629	1.443947	-1.098865	99
Es	1.336607	1.441215	-0.763673	99
Es	0.344499	0.618069	1.097095	99
Es	0.861187	-0.312626	-1.078450	99
Es	1.627735	1.443561	-1.633003	99
Es	0.806360	-2.408188	-0.410803	99
Es	-1.716826	0.095179	0.727727	99
Es	1.405068	0.550133	-1.335765	99
Es	-1.665559	1.296377	0.639741	99
Es	0.638955	-2.059198	0.722813	99
Es	1.317869	-0.311394	-0.742872	99
Es	-1.652303	0.617305	-0.350043	99
Es	0.381120	1.171109	0.045427	99
Es	-0.286582	-2.101740	-0.034757	99
Es	1.599745	-0.370951	-1.598672	99
Es	0.671687	-0.541951	-0.343490	99
Es	0.708672	1.691003	-0.390406	99
Es	0.089591	0.603367	0.420302	99
Es	-1.420711	0.660142	0.349334	99
Es	0.549230	-1.249735	-0.161639	99
Es	1.410176	-0.167657	-1.342179	99
Es	1.432249	1.258555	-1.368524	99
Es	0.599614	2.404861	-0.228971	99
Es	0.429828	-1.963583	0.025872	99
Es	0.358999	0.008181	0.069139	99
41
Properties=species:S:1:pos:R:3:Z:I:1 energy=-302.94407363180477 field_type=dipole dipole="0.000000 0.000000 0.000000" charge=0
C	-1.420784	0.660145	0.349327	6
C	0.089606	0.603365	0.420327	6
C	0.708706	1.690985	-0.390453	6
N	1.432576	1.258855	-1.368963	7
N	1.410486	-0.167985	-1.342593	7
C	0.671726	-0.541925	-0.343543	6
C	0.429836	-1.963655	0.025867	6
H	-1.795484	1.597425	0.774067	1
H	-1.868724	-0.170315	0.904507	1
H	-1.780264	0.598405	-0.684423	1
H	0.463916	0.630865	1.445947	1
H	0.553146	2.751995	-0.152063	1
H	0.996306	-2.628875	-0.631033	1
H	-0.634724	-2.191995	-0.066983	1
H	0.743676	-2.127295	1.060017	1
Es	1.432249	1.258565	-1.368525	99
Es	0.861350	-0.312624	-1.078246	99
Es	-1.665561	1.296395	0.639549	99
Es	0.806334	-2.408212	-0.410814	99
Es	1.317981	-0.311394	-0.742911	99
Es	0.639009	-2.059166	0.722795	99
Es	0.671686	-0.541950	-0.343493	99
Es	0.599590	2.404892	-0.229000	99
Es	1.405166	0.550118	-1.336021	99
Es	0.344502	0.618135	1.097099	99
Es	-0.641759	0.625841	0.378279	99
Es	1.627630	1.443588	-1.632888	99
Es	-1.652321	0.617151	-0.350012	99
Es	0.549248	-1.249806	-0.161706	99
Es	-1.420715	0.660139	0.349336	99
Es	1.336571	1.441231	-0.763695	99
Es	1.410183	-0.167646	-1.342189	99
Es	0.708676	1.691002	-0.390406	99
Es	0.429827	-1.963583	0.025872	99
Es	0.381165	1.170976	0.045360	99
Es	-1.716845	0.095274	0.727887	99
Es	0.877750	1.443964	-1.098791	99
Es	-0.286613	-2.101722	-0.034713	99
Es	0.358990	0.008240	0.069264	99
Es	1.599426	-0.371003	-1.598661	99
Es	0.089591	0.603367	0.420302	99
41
Properties=species:S:1:pos:R:3:Z:I:1 energy=-302.94407363180477 field_type=dipole dipole="0.000000 0.000000 0.000000" charge=0
C	-1.420784	0.660145	0.349327	6
C	0.089606	0.603365	0.420327	6
C	0.708706	1.690985	-0.390453	6
N	1.432576	1.258855	-1.368963	7
N	1.410486	-0.167985	-1.342593	7
C	0.671726	-0.541925	-0.343543	6
C	0.429836	-1.963655	0.025867	6
H	-1.795484	1.597425	0.774067	1
H	-1.868724	-0.170315	0.904507	1
H	-1.780264	0.598405	-0.684423	1
H	0.463916	0.630865	1.445947	1
H	0.553146	2.751995	-0.152063	1
H	0.996306	-2.628875	-0.631033	1
H	-0.634724	-2.191995	-0.066983	1
H	0.743676	-2.127295	1.060017	1
Es	0.708671	1.691004	-0.390405	99
Es	0.599664	2.404942	-0.229024	99
Es	0.429829	-1.963584	0.025873	99
Es	1.432243	1.258565	-1.368517	99
Es	1.627678	1.443523	-1.632760	99
Es	0.549398	-1.249924	-0.161668	99
Es	-1.652327	0.617389	-0.350034	99
Es	1.405219	0.550119	-1.335934	99
Es	0.089593	0.603366	0.420303	99
Es	1.317197	-0.311518	-0.743036	99
Es	-1.420711	0.660141	0.349335	99
Es	-0.641781	0.625803	0.378361	99
Es	-0.286647	-2.101651	-0.034767	99
Es	-1.665600	1.296283	0.639793	99
Es	0.806334	-2.408195	-0.410838	99
Es	0.671688	-0.541953	-0.343486	99
Es	0.344544	0.618021	1.097056	99
Es	1.336373	1.441333	-0.763848	99
Es	0.358998	0.008376	0.069244	99
Es	0.381185	1.170986	0.045480	99
Es	0.638986	-2.059205	0.722819	99
Es	1.600083	-0.370941	-1.598073	99
Es	-1.716845	0.095187	0.727631	99
Es	0.861318	-0.312600	-1.078809	99
Es	0.877844	1.443966	-1.098849	99
Es	1.410175	-0.167665	-1.342176	99
41
Properties=species:S:1:pos:R:3:Z:I:1 energy=-302.94407363180477 field_type=dipole dipole="0.000000 0.000000 0.000000" charge=0
C	-1.420784	0.660145	0.349327	6
C	0.089606	0.603365	0.420327	6
C	0.708706	1.690985	-0.390453	6
N	1.432576	1.258855	-1.368963	7
N	1.410486	-0.167985	-1.342593	7
C	0.671726	-0.541925	-0.343543	6
C	0.429836	-1.963655	0.025867	6
H	-1.795484	1.597425	0.774067	1
H	-1.868724	-0.170315	0.904507	1
H	-1.780264	0.598405	-0.684423	1
H	0.463916	0.630865	1.445947	1
H	0.553146	2.751995	-0.152063	1
H	0.996306	-2.628875	-0.631033	1
H	-0.634724	-2.191995	-0.066983	1
H	0.743676	-2.127295	1.060017	1
Es	0.359056	0.008420	0.069183	99
Es	-1.716878	0.095282	0.727666	99
Es	1.410179	-0.167691	-1.342184	99
Es	0.344544	0.618056	1.097023	99
Es	0.549320	-1.249961	-0.161796	99
Es	0.089590	0.603367	0.420300	99
Es	1.432247	1.258551	-1.368523	99
Es	1.405130	0.550068	-1.336236	99
Es	1.599969	-0.370808	-1.598049	99
Es	0.708667	1.691002	-0.390415	99
Es	1.627658	1.443705	-1.632582	99
Es	0.671688	-0.541951	-0.343490	99
Es	-1.652341	0.617311	-0.350016	99
Es	1.336193	1.441308	-0.763972	99
Es	0.861442	-0.312782	-1.078616	99
Es	-0.641764	0.625710	0.378412	99
Es	-1.420712	0.660142	0.349334	99
Es	0.638994	-2.059120	0.722806	99
Es	0.806346	-2.408251	-0.410803	99
Es	1.317389	-0.311436	-0.743005	99
Es	0.599636	2.404954	-0.229074	99
Es	0.381162	1.170919	0.045586	99
Es	-0.286621	-2.101692	-0.034712	99
Es	0.429828	-1.963583	0.025872	99
Es	-1.665608	1.296293	0.639709	99
Es	0.877998	1.443955	-1.098747	99
