46
Properties=species:S:1:pos:R:3:Z:I:1 energy=-272.1038919581078 field_type=dipole dipole="0.000000 0.000000 0.000000" charge=0
C	-2.430393	-1.052102	0.874857	6
C	-0.939994	-1.025952	0.853227	6
C	-0.184184	-1.658892	-0.286503	6
C	-0.216734	-0.155552	-0.146453	6
C	1.007426	0.604738	0.275107	6
C	1.791496	1.160538	-0.880143	6
C	2.010487	2.465638	-1.083063	6
H	-2.811224	-0.234682	1.495157	1
H	-2.784994	-1.996562	1.298867	1
H	-2.858963	-0.946202	-0.127313	1
H	-0.523574	-1.124162	1.849727	1
H	-0.746264	-2.102872	-1.100573	1
H	0.734296	-2.185192	-0.051213	1
H	-0.822284	0.409108	-0.848203	1
H	1.674747	-0.039332	0.861287	1
H	0.693387	1.414668	0.944987	1
H	2.199226	0.438498	-1.584633	1
H	1.622726	3.221338	-0.406303	1
H	2.584816	2.806978	-1.938813	1
Es	-0.572308	-1.959862	-0.836521	99
Es	1.791468	1.160422	-0.880109	99
Es	1.628697	1.848342	-1.161600	99
Es	-2.430378	-1.052102	0.874856	99
Es	2.010515	2.465740	-1.083072	99
Es	-0.644884	-1.089462	1.529022	99
Es	1.748638	2.982995	-0.625289	99
Es	0.409189	0.214079	0.057185	99
Es	2.177053	1.810843	-0.807249	99
Es	-0.184232	-1.658750	-0.286422	99
Es	-2.670726	-1.696705	1.164567	99
Es	0.444617	-2.009314	-0.125873	99
Es	-0.087725	-0.896431	-0.377884	99
Es	-0.939925	-1.025937	0.853081	99
Es	-0.216729	-0.155706	-0.146389	99
Es	-0.609604	-1.519654	0.338617	99
Es	2.400066	2.705326	-1.662096	99
Es	-0.631596	-0.431479	0.449747	99
Es	1.396749	0.884512	-0.310263	99
Es	-2.716841	-0.979607	0.187884	99
Es	1.462055	0.162926	0.666729	99
Es	1.007436	0.604736	0.275060	99
Es	-0.635624	0.220739	-0.623513	99
Es	-2.688102	-0.493708	1.298716	99
Es	2.064838	0.662530	-1.354894	99
Es	-1.685301	-1.038720	0.847595	99
Es	0.793510	1.163051	0.726849	99
46
Properties=species:S:1:pos:R:3:Z:I:1 energy=-272.1038919581078 field_type=dipole dipole="0.000000 0.000000 0.000000" charge=0
C	-2.430393	-1.052102	0.874857	6
C	-0.939994	-1.025952	0.853227	6
C	-0.184184	-1.658892	-0.286503	6
C	-0.216734	-0.155552	-0.146453	6
C	1.007426	0.604738	0.275107	6
C	1.791496	1.160538	-0.880143	6
C	2.010487	2.465638	-1.083063	6
H	-2.811224	-0.234682	1.495157	1
H	-2.784994	-1.996562	1.298867	1
H	-2.858963	-0.946202	-0.127313	1
H	-0.523574	-1.124162	1.849727	1
H	-0.746264	-2.102872	-1.100573	1
H	0.734296	-2.185192	-0.051213	1
H	-0.822284	0.409108	-0.848203	1
H	1.674747	-0.039332	0.861287	1
H	0.693387	1.414668	0.944987	1
H	2.199226	0.438498	-1.584633	1
H	1.622726	3.221338	-0.406303	1
H	2.584816	2.806978	-1.938813	1
Es	1.462063	0.162908	0.666732	99
Es	-2.430379	-1.052101	0.874854	99
Es	2.177193	1.810793	-0.807324	99
Es	1.748686	2.982953	-0.625272	99
Es	1.628682	1.848337	-1.161647	99
Es	-0.635593	0.220771	-0.623388	99
Es	0.793542	1.163011	0.726845	99
Es	-0.216732	-0.155716	-0.146396	99
Es	-2.688273	-0.493782	1.298734	99
Es	-0.572167	-1.959835	-0.836326	99
Es	2.010504	2.465741	-1.083080	99
Es	2.064825	0.662605	-1.354885	99
Es	-2.670524	-1.696689	1.164560	99
Es	2.399938	2.705401	-1.662077	99
Es	0.444580	-2.009343	-0.125945	99
Es	1.791468	1.160420	-0.880109	99
Es	-0.631670	-0.431533	0.449827	99
Es	-2.716839	-0.979715	0.187771	99
Es	-0.609752	-1.519992	0.338653	99
Es	1.396716	0.884496	-0.310189	99
Es	-0.184230	-1.658756	-0.286427	99
Es	1.007436	0.604735	0.275060	99
Es	-0.939919	-1.025948	0.853073	99
Es	0.409187	0.214085	0.057179	99
Es	-1.685243	-1.038503	0.847792	99
Es	-0.644915	-1.089417	1.528958	99
Es	-0.087728	-0.896124	-0.378240	99
46
Properties=species:S:1:pos:R:3:Z:I:1 energy=-272.1038919581078 field_type=dipole dipole="0.000000 0.000000 0.000000" charge=0
C	-2.430393	-1.052102	0.874857	6
C	-0.939994	-1.025952	0.853227	6
C	-0.184184	-1.658892	-0.286503	6
C	-0.216734	-0.155552	-0.146453	6
C	1.007426	0.604738	0.275107	6
C	1.791496	1.160538	-0.880143	6
C	2.010487	2.465638	-1.083063	6
H	-2.811224	-0.234682	1.495157	1
H	-2.784994	-1.996562	1.298867	1
H	-2.858963	-0.946202	-0.127313	1
H	-0.523574	-1.124162	1.849727	1
H	-0.746264	-2.102872	-1.100573	1
H	0.734296	-2.185192	-0.051213	1
H	-0.822284	0.409108	-0.848203	1
H	1.674747	-0.039332	0.861287	1
H	0.693387	1.414668	0.944987	1
H	2.199226	0.438498	-1.584633	1
H	1.622726	3.221338	-0.406303	1
H	2.584816	2.806978	-1.938813	1
Es	1.396665	0.884370	-0.310176	99
Es	-0.184229	-1.658755	-0.286426	99
Es	-2.688128	-0.493726	1.298587	99
Es	-0.609596	-1.520171	0.338872	99
Es	-0.631790	-0.431249	0.449912	99
Es	-0.216736	-0.155711	-0.146389	99
Es	2.399778	2.705409	-1.662214	99
Es	-0.645049	-1.089336	1.528890	99
Es	2.177514	1.811017	-0.807327	99
Es	-0.572138	-1.959860	-0.836278	99
Es	1.462037	0.162937	0.666843	99
Es	-0.087594	-0.896197	-0.378306	99
Es	1.007436	0.604736	0.275060	99
Es	-2.670798	-1.696650	1.164630	99
Es	0.444450	-2.009275	-0.126076	99
Es	-2.716809	-0.979650	0.187850	99
Es	2.010504	2.465741	-1.083079	99
Es	1.791467	1.160426	-0.880111	99
Es	0.409135	0.214101	0.057120	99
Es	1.628994	1.848068	-1.161186	99
Es	-0.939920	-1.025948	0.853075	99
Es	2.064635	0.662641	-1.355079	99
Es	0.793507	1.163107	0.726732	99
Es	1.748500	2.982959	-0.625379	99
Es	-1.685141	-1.038772	0.847749	99
Es	-2.430377	-1.052101	0.874856	99
Es	-0.635459	0.220692	-0.623415	99
46
Properties=species:S:1:pos:R:3:Z:I:1 energy=-272.1038919581078 field_type=dipole dipole="0.000000 0.000000 0.000000" charge=0
C	-2.430393	-1.052102	0.874857	6
C	-0.939994	-1.025952	0.853227	6
C	-0.184184	-1.658892	-0.286503	6
C	-0.216734	-0.155552	-0.146453	6
C	1.007426	0.604738	0.275107	6
C	1.791496	1.160538	-0.880143	6
C	2.010487	2.465638	-1.083063	6
H	-2.811224	-0.234682	1.495157	1
H	-2.784994	-1.996562	1.298867	1
H	-2.858963	-0.946202	-0.127313	1
H	-0.523574	-1.124162	1.849727	1
H	-0.746264	-2.102872	-1.100573	1
H	0.734296	-2.185192	-0.051213	1
H	-0.822284	0.409108	-0.848203	1
H	1.674747	-0.039332	0.861287	1
H	0.693387	1.414668	0.944987	1
H	2.199226	0.438498	-1.584633	1
H	1.622726	3.221338	-0.406303	1
H	2.584816	2.806978	-1.938813	1
Es	-0.184231	-1.658750	-0.286424	99
Es	2.177004	1.810812	-0.807458	99
Es	-2.670773	-1.696632	1.164641	99
Es	1.628822	1.848303	-1.161564	99
Es	-0.216736	-0.155717	-0.146392	99
Es	-0.939923	-1.025947	0.853078	99
Es	1.396692	0.884529	-0.310059	99
Es	-0.631729	-0.431227	0.449943	99
Es	-2.688138	-0.493739	1.298584	99
Es	0.409091	0.214093	0.057090	99
Es	2.400002	2.705390	-1.662076	99
Es	1.462033	0.162941	0.666705	99
Es	-0.572023	-1.959809	-0.836215	99
Es	-0.609812	-1.520380	0.338980	99
Es	-2.716848	-0.979674	0.187862	99
Es	1.748696	2.982948	-0.625243	99
Es	-0.087380	-0.896059	-0.378584	99
Es	1.791467	1.160421	-0.880110	99
Es	-0.635453	0.220703	-0.623308	99
Es	2.064859	0.662616	-1.354963	99
Es	0.793514	1.163007	0.726883	99
Es	-2.430378	-1.052101	0.874857	99
Es	-1.685057	-1.038689	0.847825	99
Es	-0.645090	-1.089379	1.528783	99
Es	0.444304	-2.009332	-0.126084	99
Es	2.010506	2.465739	-1.083078	99
Es	1.007437	0.604736	0.275060	99
46
Properties=species:S:1:pos:R:3:Z:I:1 energy=-272.1038919581078 field_type=dipole dipole="0.000000 0.000000 0.000000" charge=0
C	-2.430393	-1.052102	0.874857	6
C	-0.939994	-1.025952	0.853227	6
C	-0.184184	-1.658892	-0.286503	6
C	-0.216734	-0.155552	-0.146453	6
C	1.007426	0.604738	0.275107	6
C	1.791496	1.160538	-0.880143	6
C	2.010487	2.465638	-1.083063	6
H	-2.811224	-0.234682	1.495157	1
H	-2.784994	-1.996562	1.298867	1
H	-2.858963	-0.946202	-0.127313	1
H	-0.523574	-1.124162	1.849727	1
H	-0.746264	-2.102872	-1.100573	1
H	0.734296	-2.185192	-0.051213	1
H	-0.822284	0.409108	-0.848203	1
H	1.674747	-0.039332	0.861287	1
H	0.693387	1.414668	0.944987	1
H	2.199226	0.438498	-1.584633	1
H	1.622726	3.221338	-0.406303	1
H	2.584816	2.806978	-1.938813	1
Es	-0.216737	-0.155713	-0.146389	99
Es	-2.688204	-0.493738	1.298556	99
Es	2.010503	2.465740	-1.083081	99
Es	-0.184231	-1.658752	-0.286425	99
Es	-0.635349	0.220697	-0.623219	99
Es	1.461934	0.162637	0.666728	99
Es	2.064924	0.662674	-1.354972	99
Es	2.400026	2.705377	-1.662074	99
Es	2.176873	1.810813	-0.807554	99
Es	1.396667	0.884434	-0.309949	99
Es	-0.087382	-0.895887	-0.378872	99
Es	0.793762	1.163017	0.726874	99
Es	0.444250	-2.009128	-0.126045	99
Es	1.007436	0.604735	0.275061	99
Es	-0.609980	-1.520645	0.339137	99
Es	1.748687	2.982962	-0.625216	99
Es	-0.939915	-1.025947	0.853067	99
Es	-2.670783	-1.696647	1.164614	99
Es	-1.685001	-1.038667	0.847882	99
Es	-0.571781	-1.959954	-0.836183	99
Es	-2.430378	-1.052101	0.874857	99
Es	-0.631789	-0.431210	0.449979	99
Es	0.408879	0.214438	0.057011	99
Es	-0.645149	-1.089342	1.528732	99
Es	-2.716799	-0.979690	0.187884	99
Es	1.628926	1.848280	-1.161561	99
Es	1.791467	1.160421	-0.880109	99
