41
Properties=species:S:1:pos:R:3:Z:I:1 energy=-302.99633313338745 field_type=dipole dipole="0.000000 0.000000 0.000000" charge=0
C	-0.641631	-1.673943	-1.034476	6
C	-0.520321	-1.121303	0.376734	6
C	-0.051631	0.288227	0.374974	6
C	-0.731401	1.487377	0.365754	6
N	0.140179	2.545197	0.369214	7
C	1.337479	2.007807	0.381434	6
N	1.274599	0.643747	0.386464	7
H	-0.993001	-2.710303	-1.007046	1
H	0.323669	-1.656213	-1.552256	1
H	-1.352251	-1.089923	-1.629616	1
H	0.170739	-1.745333	0.955374	1
H	-1.494831	-1.182973	0.875034	1
H	-1.802551	1.644537	0.355994	1
H	2.274838	2.547467	0.387284	1
H	2.066119	0.015637	0.395134	1
Es	-0.880021	-2.381995	-1.010941	99
Es	0.604496	2.283654	0.105145	99
Es	0.021712	-1.660091	-1.381719	99
Es	-1.124883	-1.275666	-1.433571	99
Es	0.731083	0.440789	0.373035	99
Es	-0.731377	1.487460	0.365747	99
Es	1.274602	0.643776	0.386393	99
Es	0.049402	2.906391	0.367695	99
Es	1.738469	0.267185	0.390104	99
Es	-0.574139	-1.385003	-0.326915	99
Es	1.285059	1.031614	0.134136	99
Es	-0.271596	-0.409233	0.376196	99
Es	-0.382458	0.899283	0.049413	99
Es	-0.641619	-1.673936	-1.034439	99
Es	-0.251579	2.081291	0.364560	99
Es	-1.460600	1.588171	0.359535	99
Es	-0.520289	-1.121247	0.376705	99
Es	1.337519	2.007631	0.381433	99
Es	-1.179937	-1.155766	0.711223	99
Es	1.977601	2.359994	0.385663	99
Es	-0.383159	0.909389	0.692218	99
Es	0.597869	2.283072	0.644059	99
Es	0.140341	2.544651	0.369216	99
Es	1.263442	0.996126	0.643159	99
Es	-0.051402	0.288152	0.374977	99
Es	-0.039534	-1.539063	0.768276	99
41
Properties=species:S:1:pos:R:3:Z:I:1 energy=-302.99633313338745 field_type=dipole dipole="0.000000 0.000000 0.000000" charge=0
C	-0.641631	-1.673943	-1.034476	6
C	-0.520321	-1.121303	0.376734	6
C	-0.051631	0.288227	0.374974	6
C	-0.731401	1.487377	0.365754	6
N	0.140179	2.545197	0.369214	7
C	1.337479	2.007807	0.381434	6
N	1.274599	0.643747	0.386464	7
H	-0.993001	-2.710303	-1.007046	1
H	0.323669	-1.656213	-1.552256	1
H	-1.352251	-1.089923	-1.629616	1
H	0.170739	-1.745333	0.955374	1
H	-1.494831	-1.182973	0.875034	1
H	-1.802551	1.644537	0.355994	1
H	2.274838	2.547467	0.387284	1
H	2.066119	0.015637	0.395134	1
Es	-1.179818	-1.155627	0.711125	99
Es	-0.879942	-2.381973	-1.010991	99
Es	1.337518	2.007632	0.381434	99
Es	1.977783	2.360113	0.385389	99
Es	0.049609	2.906027	0.367540	99
Es	1.306285	1.088483	0.156099	99
Es	-0.574238	-1.384969	-0.326953	99
Es	-0.271747	-0.409353	0.376123	99
Es	1.274588	0.643806	0.386286	99
Es	-0.051404	0.288153	0.374975	99
Es	0.021680	-1.660067	-1.381709	99
Es	0.606039	2.284198	0.105939	99
Es	0.598614	2.282763	0.645352	99
Es	-0.641619	-1.673938	-1.034439	99
Es	-1.124911	-1.275708	-1.433604	99
Es	0.731781	0.441572	0.355397	99
Es	-0.039511	-1.539161	0.768435	99
Es	1.239543	0.935330	0.642847	99
Es	1.738913	0.267596	0.383629	99
Es	-0.251896	2.081345	0.363625	99
Es	-0.382958	0.912049	0.692986	99
Es	0.140337	2.544656	0.369216	99
Es	-0.731378	1.487464	0.365746	99
Es	-0.383297	0.899405	0.050811	99
Es	-0.520289	-1.121247	0.376704	99
Es	-1.460682	1.588080	0.359342	99
41
Properties=species:S:1:pos:R:3:Z:I:1 energy=-302.99633313338745 field_type=dipole dipole="0.000000 0.000000 0.000000" charge=0
C	-0.641631	-1.673943	-1.034476	6
C	-0.520321	-1.121303	0.376734	6
C	-0.051631	0.288227	0.374974	6
C	-0.731401	1.487377	0.365754	6
N	0.140179	2.545197	0.369214	7
C	1.337479	2.007807	0.381434	6
N	1.274599	0.643747	0.386464	7
H	-0.993001	-2.710303	-1.007046	1
H	0.323669	-1.656213	-1.552256	1
H	-1.352251	-1.089923	-1.629616	1
H	0.170739	-1.745333	0.955374	1
H	-1.494831	-1.182973	0.875034	1
H	-1.802551	1.644537	0.355994	1
H	2.274838	2.547467	0.387284	1
H	2.066119	0.015637	0.395134	1
Es	1.977976	2.360032	0.385339	99
Es	-1.460709	1.588040	0.359346	99
Es	-0.641619	-1.673937	-1.034440	99
Es	-0.520289	-1.121248	0.376704	99
Es	1.317579	1.118956	0.175899	99
Es	1.274579	0.643815	0.386239	99
Es	0.049563	2.906238	0.368136	99
Es	1.224635	0.900240	0.636448	99
Es	-0.271860	-0.409416	0.376106	99
Es	0.732898	0.442811	0.343184	99
Es	-0.879993	-2.381906	-1.010905	99
Es	-0.251766	2.081447	0.363268	99
Es	-1.124923	-1.275718	-1.433613	99
Es	0.021676	-1.660175	-1.381772	99
Es	-1.179890	-1.155632	0.711166	99
Es	-0.383908	0.900136	0.051585	99
Es	-0.731381	1.487467	0.365741	99
Es	1.739608	0.267974	0.381008	99
Es	-0.039540	-1.539061	0.768428	99
Es	0.598707	2.282083	0.645814	99
Es	-0.574097	-1.384989	-0.326971	99
Es	0.140343	2.544645	0.369220	99
Es	0.608338	2.284755	0.105899	99
Es	1.337527	2.007629	0.381434	99
Es	-0.051403	0.288153	0.374974	99
Es	-0.383049	0.914288	0.693067	99
41
Properties=species:S:1:pos:R:3:Z:I:1 energy=-302.99633313338745 field_type=dipole dipole="0.000000 0.000000 0.000000" charge=0
C	-0.641631	-1.673943	-1.034476	6
C	-0.520321	-1.121303	0.376734	6
C	-0.051631	0.288227	0.374974	6
C	-0.731401	1.487377	0.365754	6
N	0.140179	2.545197	0.369214	7
C	1.337479	2.007807	0.381434	6
N	1.274599	0.643747	0.386464	7
H	-0.993001	-2.710303	-1.007046	1
H	0.323669	-1.656213	-1.552256	1
H	-1.352251	-1.089923	-1.629616	1
H	0.170739	-1.745333	0.955374	1
H	-1.494831	-1.182973	0.875034	1
H	-1.802551	1.644537	0.355994	1
H	2.274838	2.547467	0.387284	1
H	2.066119	0.015637	0.395134	1
Es	0.049889	2.905978	0.367560	99
Es	-0.574150	-1.384987	-0.326987	99
Es	0.140339	2.544655	0.369216	99
Es	1.337520	2.007632	0.381432	99
Es	-1.460767	1.587966	0.359304	99
Es	0.021632	-1.660150	-1.381752	99
Es	-0.051403	0.288150	0.374964	99
Es	-0.384268	0.900978	0.052093	99
Es	-0.252170	2.081466	0.362261	99
Es	-1.124872	-1.275730	-1.433624	99
Es	-0.641619	-1.673936	-1.034439	99
Es	-0.383118	0.915542	0.693047	99
Es	-0.520287	-1.121244	0.376704	99
Es	1.739767	0.268353	0.378125	99
Es	0.611112	2.285389	0.106584	99
Es	1.322999	1.135645	0.189073	99
Es	1.274542	0.643935	0.386157	99
Es	1.217658	0.880402	0.630082	99
Es	-0.731378	1.487460	0.365746	99
Es	1.978090	2.360023	0.385294	99
Es	0.733117	0.443486	0.338963	99
Es	-1.179832	-1.155684	0.711250	99
Es	-0.879977	-2.381907	-1.011016	99
Es	-0.272026	-0.409503	0.376116	99
Es	-0.039516	-1.539000	0.768370	99
Es	0.597718	2.281709	0.646778	99
41
Properties=species:S:1:pos:R:3:Z:I:1 energy=-302.99633313338745 field_type=dipole dipole="0.000000 0.000000 0.000000" charge=0
C	-0.641631	-1.673943	-1.034476	6
C	-0.520321	-1.121303	0.376734	6
C	-0.051631	0.288227	0.374974	6
C	-0.731401	1.487377	0.365754	6
N	0.140179	2.545197	0.369214	7
C	1.337479	2.007807	0.381434	6
N	1.274599	0.643747	0.386464	7
H	-0.993001	-2.710303	-1.007046	1
H	0.323669	-1.656213	-1.552256	1
H	-1.352251	-1.089923	-1.629616	1
H	0.170739	-1.745333	0.955374	1
H	-1.494831	-1.182973	0.875034	1
H	-1.802551	1.644537	0.355994	1
H	2.274838	2.547467	0.387284	1
H	2.066119	0.015637	0.395134	1
Es	0.731471	0.440825	0.368310	99
Es	1.274600	0.643775	0.386416	99
Es	0.605509	2.284164	0.105629	99
Es	0.021602	-1.660164	-1.381766	99
Es	-0.382633	0.899064	0.050645	99
Es	-0.879973	-2.381890	-1.011041	99
Es	1.738550	0.267406	0.388040	99
Es	-0.272084	-0.409586	0.376272	99
Es	1.337522	2.007630	0.381461	99
Es	-1.460815	1.587911	0.359497	99
Es	-0.039515	-1.538970	0.768379	99
Es	-1.124851	-1.275755	-1.433629	99
Es	1.257740	0.982108	0.645057	99
Es	-0.252221	2.081723	0.363338	99
Es	-0.520289	-1.121248	0.376705	99
Es	1.290089	1.045470	0.138294	99
Es	-0.574165	-1.384971	-0.327019	99
Es	0.050074	2.906000	0.368370	99
Es	0.597259	2.282189	0.644213	99
Es	-0.382845	0.910047	0.691756	99
Es	0.140340	2.544643	0.369217	99
Es	-0.731379	1.487463	0.365739	99
Es	-1.179806	-1.155666	0.711275	99
Es	-0.641614	-1.673936	-1.034440	99
Es	-0.051403	0.288153	0.374974	99
Es	1.977837	2.360244	0.385614	99
41
Properties=species:S:1:pos:R:3:Z:I:1 energy=-302.99633313338745 field_type=dipole dipole="0.000000 0.000000 0.000000" charge=0
C	-0.641631	-1.673943	-1.034476	6
C	-0.520321	-1.121303	0.376734	6
C	-0.051631	0.288227	0.374974	6
C	-0.731401	1.487377	0.365754	6
N	0.140179	2.545197	0.369214	7
C	1.337479	2.007807	0.381434	6
N	1.274599	0.643747	0.386464	7
H	-0.993001	-2.710303	-1.007046	1
H	0.323669	-1.656213	-1.552256	1
H	-1.352251	-1.089923	-1.629616	1
H	0.170739	-1.745333	0.955374	1
H	-1.494831	-1.182973	0.875034	1
H	-1.802551	1.644537	0.355994	1
H	2.274838	2.547467	0.387284	1
H	2.066119	0.015637	0.395134	1
Es	-1.179791	-1.155629	0.711279	99
Es	-0.272243	-0.409660	0.376186	99
Es	1.214772	0.877059	0.630708	99
Es	1.337519	2.007632	0.381424	99
Es	-0.731370	1.487448	0.365746	99
Es	-0.383072	0.916076	0.692764	99
Es	-0.252410	2.081662	0.362541	99
Es	-0.039532	-1.538938	0.768414	99
Es	0.598463	2.281830	0.646713	99
Es	1.740080	0.268498	0.378451	99
Es	-0.520289	-1.121249	0.376704	99
Es	0.021580	-1.660174	-1.381775	99
Es	-0.574147	-1.384989	-0.327034	99
Es	0.734197	0.443997	0.334330	99
Es	0.140341	2.544660	0.369208	99
Es	-0.879980	-2.381876	-1.011077	99
Es	0.610931	2.285170	0.106428	99
Es	1.274591	0.643785	0.386306	99
Es	-0.051406	0.288155	0.374976	99
Es	-0.384383	0.901134	0.052638	99
Es	-0.641619	-1.673937	-1.034440	99
Es	1.324166	1.138016	0.192214	99
Es	-1.460856	1.587849	0.359291	99
Es	0.050105	2.905742	0.367597	99
Es	1.978183	2.360136	0.385343	99
Es	-1.124826	-1.275767	-1.433632	99
41
Properties=species:S:1:pos:R:3:Z:I:1 energy=-302.99633313338745 field_type=dipole dipole="0.000000 0.000000 0.000000" charge=0
C	-0.641631	-1.673943	-1.034476	6
C	-0.520321	-1.121303	0.376734	6
C	-0.051631	0.288227	0.374974	6
C	-0.731401	1.487377	0.365754	6
N	0.140179	2.545197	0.369214	7
C	1.337479	2.007807	0.381434	6
N	1.274599	0.643747	0.386464	7
H	-0.993001	-2.710303	-1.007046	1
H	0.323669	-1.656213	-1.552256	1
H	-1.352251	-1.089923	-1.629616	1
H	0.170739	-1.745333	0.955374	1
H	-1.494831	-1.182973	0.875034	1
H	-1.802551	1.644537	0.355994	1
H	2.274838	2.547467	0.387284	1
H	2.066119	0.015637	0.395134	1
Es	0.732501	0.442604	0.345812	99
Es	-1.124836	-1.275822	-1.433579	99
Es	0.140336	2.544665	0.369213	99
Es	-0.641619	-1.673937	-1.034440	99
Es	-0.051404	0.288154	0.374977	99
Es	-0.039609	-1.538949	0.768469	99
Es	1.978142	2.360260	0.385467	99
Es	1.274602	0.643795	0.386426	99
Es	1.316992	1.119443	0.175570	99
Es	1.337519	2.007632	0.381435	99
Es	-0.879942	-2.381880	-1.011133	99
Es	0.609720	2.284834	0.106909	99
Es	-0.520290	-1.121248	0.376705	99
Es	0.021524	-1.660123	-1.381844	99
Es	-0.731380	1.487461	0.365751	99
Es	1.225961	0.900186	0.635831	99
Es	0.050281	2.905883	0.367378	99
Es	0.597444	2.281725	0.646157	99
Es	-0.383823	0.900302	0.052297	99
Es	-0.574052	-1.384981	-0.327016	99
Es	-0.272220	-0.409791	0.376177	99
Es	1.739315	0.268207	0.379385	99
Es	-0.382981	0.914237	0.692276	99
Es	-0.252432	2.081703	0.362494	99
Es	-1.179846	-1.155542	0.711237	99
Es	-1.460900	1.587810	0.359349	99
41
Properties=species:S:1:pos:R:3:Z:I:1 energy=-302.99633313338745 field_type=dipole dipole="0.000000 0.000000 0.000000" charge=0
C	-0.641631	-1.673943	-1.034476	6
C	-0.520321	-1.121303	0.376734	6
C	-0.051631	0.288227	0.374974	6
C	-0.731401	1.487377	0.365754	6
N	0.140179	2.545197	0.369214	7
C	1.337479	2.007807	0.381434	6
N	1.274599	0.643747	0.386464	7
H	-0.993001	-2.710303	-1.007046	1
H	0.323669	-1.656213	-1.552256	1
H	-1.352251	-1.089923	-1.629616	1
H	0.170739	-1.745333	0.955374	1
H	-1.494831	-1.182973	0.875034	1
H	-1.802551	1.644537	0.355994	1
H	2.274838	2.547467	0.387284	1
H	2.066119	0.015637	0.395134	1
Es	-0.383814	0.909506	0.689000	99
Es	-0.731378	1.487459	0.365748	99
Es	-1.460936	1.587729	0.359640	99
Es	-0.039546	-1.538889	0.768427	99
Es	1.337519	2.007632	0.381433	99
Es	1.242761	0.923214	0.131331	99
Es	-1.179717	-1.155592	0.711340	99
Es	0.140339	2.544659	0.369217	99
Es	-0.520289	-1.121248	0.376703	99
Es	0.601954	2.283953	0.641738	99
Es	1.738948	0.268009	0.401883	99
Es	-0.574168	-1.384975	-0.327105	99
Es	1.274596	0.643790	0.386543	99
Es	-0.272446	-0.409827	0.376491	99
Es	0.050559	2.905838	0.368507	99
Es	-0.641620	-1.673937	-1.034442	99
Es	-0.382235	0.902552	0.049355	99
Es	0.021569	-1.660247	-1.381863	99
Es	1.303131	1.099757	0.608052	99
Es	1.978091	2.360349	0.385858	99
Es	0.731320	0.442159	0.403865	99
Es	-0.880055	-2.381809	-1.011080	99
Es	-0.252695	2.082095	0.366538	99
Es	-0.051405	0.288154	0.374960	99
Es	0.603295	2.282102	0.102757	99
Es	-1.124777	-1.275803	-1.433592	99
41
Properties=species:S:1:pos:R:3:Z:I:1 energy=-302.99633313338745 field_type=dipole dipole="0.000000 0.000000 0.000000" charge=0
C	-0.641631	-1.673943	-1.034476	6
C	-0.520321	-1.121303	0.376734	6
C	-0.051631	0.288227	0.374974	6
C	-0.731401	1.487377	0.365754	6
N	0.140179	2.545197	0.369214	7
C	1.337479	2.007807	0.381434	6
N	1.274599	0.643747	0.386464	7
H	-0.993001	-2.710303	-1.007046	1
H	0.323669	-1.656213	-1.552256	1
H	-1.352251	-1.089923	-1.629616	1
H	0.170739	-1.745333	0.955374	1
H	-1.494831	-1.182973	0.875034	1
H	-1.802551	1.644537	0.355994	1
H	2.274838	2.547467	0.387284	1
H	2.066119	0.015637	0.395134	1
Es	0.021454	-1.660132	-1.381788	99
Es	-1.124783	-1.275867	-1.433662	99
Es	0.603552	2.282046	0.102552	99
Es	-1.179750	-1.155541	0.711355	99
Es	1.337519	2.007632	0.381434	99
Es	-0.384499	0.909184	0.688285	99
Es	1.738991	0.268071	0.402435	99
Es	1.978180	2.360379	0.385875	99
Es	0.602605	2.284307	0.641469	99
Es	-0.039540	-1.538887	0.768436	99
Es	-0.879924	-2.381949	-1.011082	99
Es	0.050554	2.905737	0.368434	99
Es	1.237674	0.913087	0.131460	99
Es	-0.272471	-0.409955	0.376553	99
Es	-0.574151	-1.384829	-0.327199	99
Es	-0.252731	2.081955	0.367129	99
Es	-0.520289	-1.121249	0.376704	99
Es	1.274583	0.643807	0.386633	99
Es	0.732056	0.442816	0.409784	99
Es	-0.381774	0.903789	0.049076	99
Es	-0.731378	1.487459	0.365748	99
Es	-1.461000	1.587679	0.359829	99
Es	0.140340	2.544649	0.369217	99
Es	1.306809	1.108221	0.602089	99
Es	-0.051406	0.288155	0.374978	99
Es	-0.641619	-1.673937	-1.034441	99
41
Properties=species:S:1:pos:R:3:Z:I:1 energy=-302.99633313338745 field_type=dipole dipole="0.000000 0.000000 0.000000" charge=0
C	-0.641631	-1.673943	-1.034476	6
C	-0.520321	-1.121303	0.376734	6
C	-0.051631	0.288227	0.374974	6
C	-0.731401	1.487377	0.365754	6
N	0.140179	2.545197	0.369214	7
C	1.337479	2.007807	0.381434	6
N	1.274599	0.643747	0.386464	7
H	-0.993001	-2.710303	-1.007046	1
H	0.323669	-1.656213	-1.552256	1
H	-1.352251	-1.089923	-1.629616	1
H	0.170739	-1.745333	0.955374	1
H	-1.494831	-1.182973	0.875034	1
H	-1.802551	1.644537	0.355994	1
H	2.274838	2.547467	0.387284	1
H	2.066119	0.015637	0.395134	1
Es	0.140343	2.544657	0.369216	99
Es	0.597618	2.281645	0.645781	99
Es	1.337519	2.007632	0.381434	99
Es	-0.272709	-0.409972	0.376221	99
Es	0.050865	2.905600	0.367523	99
Es	-0.382718	0.914298	0.691732	99
Es	-1.124787	-1.275868	-1.433651	99
Es	-0.051409	0.288158	0.374978	99
Es	1.739349	0.268193	0.380626	99
Es	-0.253008	2.082195	0.362819	99
Es	-0.520289	-1.121249	0.376707	99
Es	-0.383716	0.899945	0.052909	99
Es	-0.731375	1.487456	0.365736	99
Es	-1.179714	-1.155559	0.711370	99
Es	-0.574139	-1.384951	-0.327114	99
Es	-0.039484	-1.538810	0.768472	99
Es	1.274590	0.643814	0.386279	99
Es	0.609170	2.284444	0.106835	99
Es	-0.641620	-1.673937	-1.034441	99
Es	1.978181	2.360487	0.385632	99
Es	-0.879927	-2.381843	-1.011169	99
Es	1.226588	0.905196	0.639068	99
Es	0.021445	-1.660184	-1.381830	99
Es	-1.461031	1.587605	0.359390	99
Es	1.315960	1.114995	0.172849	99
Es	0.733300	0.442681	0.343931	99
41
Properties=species:S:1:pos:R:3:Z:I:1 energy=-302.99633313338745 field_type=dipole dipole="0.000000 0.000000 0.000000" charge=0
C	-0.641631	-1.673943	-1.034476	6
C	-0.520321	-1.121303	0.376734	6
C	-0.051631	0.288227	0.374974	6
C	-0.731401	1.487377	0.365754	6
N	0.140179	2.545197	0.369214	7
C	1.337479	2.007807	0.381434	6
N	1.274599	0.643747	0.386464	7
H	-0.993001	-2.710303	-1.007046	1
H	0.323669	-1.656213	-1.552256	1
H	-1.352251	-1.089923	-1.629616	1
H	0.170739	-1.745333	0.955374	1
H	-1.494831	-1.182973	0.875034	1
H	-1.802551	1.644537	0.355994	1
H	2.274838	2.547467	0.387284	1
H	2.066119	0.015637	0.395134	1
Es	-1.461074	1.587594	0.359506	99
Es	1.215988	0.881489	0.633144	99
Es	0.734549	0.443960	0.334458	99
Es	-1.124730	-1.275866	-1.433635	99
Es	-1.179671	-1.155524	0.711334	99
Es	-0.051405	0.288156	0.374979	99
Es	-0.731374	1.487455	0.365746	99
Es	0.050760	2.905674	0.367857	99
Es	-0.272720	-0.410042	0.376382	99
Es	1.337520	2.007632	0.381433	99
Es	1.739889	0.268538	0.379291	99
Es	0.140341	2.544659	0.369216	99
Es	-0.039600	-1.538819	0.768503	99
Es	0.598550	2.281572	0.645859	99
Es	-0.252931	2.081975	0.362988	99
Es	-0.520290	-1.121249	0.376704	99
Es	0.021462	-1.660222	-1.381852	99
Es	1.274587	0.643802	0.386297	99
Es	1.323146	1.134385	0.188723	99
Es	-0.574120	-1.384938	-0.327214	99
Es	-0.879996	-2.381821	-1.011177	99
Es	-0.383383	0.915477	0.691626	99
Es	1.978297	2.360457	0.385534	99
Es	-0.641619	-1.673937	-1.034441	99
Es	0.610622	2.284701	0.106721	99
Es	-0.383799	0.901519	0.053321	99
