41
Properties=species:S:1:pos:R:3:Z:I:1 energy=-302.92830277668105 field_type=dipole dipole="0.000000 0.000000 0.000000" charge=0
C	-1.972445	-1.229719	-0.327089	6
C	-0.514275	-1.154809	-0.010179	6
C	0.224295	-0.039909	0.003961	6
C	1.672975	0.138611	0.307831	6
N	1.867105	1.576801	0.068171	7
N	0.693195	2.243841	-0.145779	7
C	-0.231675	1.339361	-0.239809	6
H	-2.219075	-2.230618	-0.694509	1
H	-2.259865	-0.518239	-1.106369	1
H	-2.566785	-1.042479	0.571751	1
H	-0.030265	-2.100979	0.225911	1
H	2.311375	-0.444599	-0.361389	1
H	1.888985	-0.111179	1.351231	1
H	2.426605	2.020791	0.796621	1
H	-1.290155	1.553121	-0.440359	1
Es	1.672951	0.138756	0.307811	99
Es	0.199172	1.823932	0.091606	99
Es	-2.135274	-1.908539	-0.573648	99
Es	0.692027	2.617001	-0.163936	99
Es	1.769021	0.953586	0.202249	99
Es	-0.187636	-1.800852	0.152666	99
Es	-2.363219	-1.099165	0.281105	99
Es	1.815566	-0.033372	1.016105	99
Es	-0.214805	-0.532816	0.310249	99
Es	-0.033156	0.634594	-0.134092	99
Es	-1.239806	-1.183362	-0.171469	99
Es	1.989819	1.613798	-0.218957	99
Es	-1.972393	-1.229715	-0.327077	99
Es	2.099068	-0.263194	-0.141152	99
Es	1.268336	1.886370	0.001792	99
Es	-0.068934	-0.617872	-0.327988	99
Es	0.953266	0.012567	0.162137	99
Es	-0.514339	-1.154879	-0.010188	99
Es	0.314718	1.794572	-0.468252	99
Es	1.866561	1.576767	0.068766	99
Es	0.693262	2.243228	-0.145734	99
Es	0.224371	-0.039783	0.003960	99
Es	-0.231685	1.339339	-0.239842	99
Es	2.181020	1.839577	0.520993	99
Es	-0.944144	1.485272	-0.379854	99
Es	-2.161455	-0.740833	-0.849156	99
41
Properties=species:S:1:pos:R:3:Z:I:1 energy=-302.92830277668105 field_type=dipole dipole="0.000000 0.000000 0.000000" charge=0
C	-1.972445	-1.229719	-0.327089	6
C	-0.514275	-1.154809	-0.010179	6
C	0.224295	-0.039909	0.003961	6
C	1.672975	0.138611	0.307831	6
N	1.867105	1.576801	0.068171	7
N	0.693195	2.243841	-0.145779	7
C	-0.231675	1.339361	-0.239809	6
H	-2.219075	-2.230618	-0.694509	1
H	-2.259865	-0.518239	-1.106369	1
H	-2.566785	-1.042479	0.571751	1
H	-0.030265	-2.100979	0.225911	1
H	2.311375	-0.444599	-0.361389	1
H	1.888985	-0.111179	1.351231	1
H	2.426605	2.020791	0.796621	1
H	-1.290155	1.553121	-0.440359	1
Es	-0.033114	0.634571	-0.134217	99
Es	-0.514343	-1.154886	-0.010193	99
Es	-0.214788	-0.532898	0.310025	99
Es	2.099050	-0.263183	-0.141093	99
Es	-2.135200	-1.908619	-0.573605	99
Es	1.866584	1.576765	0.068783	99
Es	-2.161356	-0.740869	-0.849255	99
Es	-1.972393	-1.229715	-0.327077	99
Es	0.691854	2.616931	-0.164111	99
Es	1.989918	1.613543	-0.218966	99
Es	-0.187612	-1.800882	0.152726	99
Es	1.815582	-0.033380	1.016035	99
Es	-0.068928	-0.617822	-0.328011	99
Es	0.224371	-0.039783	0.003960	99
Es	1.268477	1.886493	0.001533	99
Es	-2.363330	-1.099088	0.280996	99
Es	-0.944158	1.485233	-0.379888	99
Es	1.672950	0.138755	0.307810	99
Es	-1.239912	-1.183255	-0.171185	99
Es	1.769007	0.953740	0.202624	99
Es	0.314683	1.794874	-0.467900	99
Es	0.693255	2.243215	-0.145731	99
Es	0.953214	0.012563	0.162213	99
Es	-0.231686	1.339340	-0.239833	99
Es	2.181077	1.839643	0.520780	99
Es	0.199106	1.823690	0.091675	99
41
Properties=species:S:1:pos:R:3:Z:I:1 energy=-302.92830277668105 field_type=dipole dipole="0.000000 0.000000 0.000000" charge=0
C	-1.972445	-1.229719	-0.327089	6
C	-0.514275	-1.154809	-0.010179	6
C	0.224295	-0.039909	0.003961	6
C	1.672975	0.138611	0.307831	6
N	1.867105	1.576801	0.068171	7
N	0.693195	2.243841	-0.145779	7
C	-0.231675	1.339361	-0.239809	6
H	-2.219075	-2.230618	-0.694509	1
H	-2.259865	-0.518239	-1.106369	1
H	-2.566785	-1.042479	0.571751	1
H	-0.030265	-2.100979	0.225911	1
H	2.311375	-0.444599	-0.361389	1
H	1.888985	-0.111179	1.351231	1
H	2.426605	2.020791	0.796621	1
H	-1.290155	1.553121	-0.440359	1
Es	-2.135235	-1.908539	-0.573701	99
Es	0.693254	2.243226	-0.145728	99
Es	-0.214774	-0.532876	0.309891	99
Es	-0.069068	-0.617758	-0.327873	99
Es	0.314577	1.794550	-0.468157	99
Es	1.268541	1.886298	0.002334	99
Es	1.769069	0.953752	0.202499	99
Es	-0.187526	-1.800836	0.152680	99
Es	1.866616	1.576761	0.068768	99
Es	-2.363313	-1.099245	0.280954	99
Es	0.953360	0.012503	0.162233	99
Es	1.989292	1.613739	-0.219286	99
Es	2.099058	-0.263193	-0.141073	99
Es	2.181608	1.839735	0.520565	99
Es	-0.514340	-1.154879	-0.010189	99
Es	-2.161390	-0.740741	-0.849177	99
Es	0.199234	1.824023	0.091207	99
Es	-1.972393	-1.229715	-0.327077	99
Es	-0.033174	0.634467	-0.133921	99
Es	0.224372	-0.039785	0.003951	99
Es	0.691830	2.616842	-0.163817	99
Es	-0.231684	1.339340	-0.239841	99
Es	-1.239932	-1.183358	-0.171156	99
Es	1.815553	-0.033376	1.016002	99
Es	1.672952	0.138754	0.307810	99
Es	-0.944176	1.485288	-0.379803	99
41
Properties=species:S:1:pos:R:3:Z:I:1 energy=-302.92830277668105 field_type=dipole dipole="0.000000 0.000000 0.000000" charge=0
C	-1.972445	-1.229719	-0.327089	6
C	-0.514275	-1.154809	-0.010179	6
C	0.224295	-0.039909	0.003961	6
C	1.672975	0.138611	0.307831	6
N	1.867105	1.576801	0.068171	7
N	0.693195	2.243841	-0.145779	7
C	-0.231675	1.339361	-0.239809	6
H	-2.219075	-2.230618	-0.694509	1
H	-2.259865	-0.518239	-1.106369	1
H	-2.566785	-1.042479	0.571751	1
H	-0.030265	-2.100979	0.225911	1
H	2.311375	-0.444599	-0.361389	1
H	1.888985	-0.111179	1.351231	1
H	2.426605	2.020791	0.796621	1
H	-1.290155	1.553121	-0.440359	1
Es	0.224369	-0.039786	0.003955	99
Es	1.268765	1.886416	0.002619	99
Es	1.866578	1.576767	0.068754	99
Es	-0.033192	0.634497	-0.134111	99
Es	-0.187486	-1.800786	0.152687	99
Es	-0.069033	-0.617865	-0.327678	99
Es	0.199249	1.823844	0.091105	99
Es	0.693270	2.243216	-0.145728	99
Es	-2.161424	-0.740963	-0.849178	99
Es	-0.944198	1.485311	-0.379853	99
Es	1.672951	0.138755	0.307811	99
Es	-0.231674	1.339344	-0.239857	99
Es	-0.514342	-1.154882	-0.010190	99
Es	2.182012	1.839898	0.520307	99
Es	-2.363305	-1.099030	0.280891	99
Es	-0.214744	-0.532832	0.309975	99
Es	-1.972394	-1.229715	-0.327078	99
Es	1.769182	0.953697	0.202461	99
Es	-1.239925	-1.183238	-0.171260	99
Es	1.815513	-0.033383	1.015963	99
Es	0.691587	2.616698	-0.163740	99
Es	2.099028	-0.263230	-0.141008	99
Es	0.953325	0.012525	0.162142	99
Es	1.988873	1.613813	-0.219160	99
Es	-2.135274	-1.908680	-0.573578	99
Es	0.314600	1.794586	-0.468156	99
41
Properties=species:S:1:pos:R:3:Z:I:1 energy=-302.92830277668105 field_type=dipole dipole="0.000000 0.000000 0.000000" charge=0
C	-1.972445	-1.229719	-0.327089	6
C	-0.514275	-1.154809	-0.010179	6
C	0.224295	-0.039909	0.003961	6
C	1.672975	0.138611	0.307831	6
N	1.867105	1.576801	0.068171	7
N	0.693195	2.243841	-0.145779	7
C	-0.231675	1.339361	-0.239809	6
H	-2.219075	-2.230618	-0.694509	1
H	-2.259865	-0.518239	-1.106369	1
H	-2.566785	-1.042479	0.571751	1
H	-0.030265	-2.100979	0.225911	1
H	2.311375	-0.444599	-0.361389	1
H	1.888985	-0.111179	1.351231	1
H	2.426605	2.020791	0.796621	1
H	-1.290155	1.553121	-0.440359	1
Es	-0.187515	-1.800774	0.152683	99
Es	-0.069054	-0.617786	-0.327584	99
Es	2.182130	1.839926	0.520195	99
Es	0.224372	-0.039782	0.003961	99
Es	-2.363302	-1.099135	0.280917	99
Es	-1.240025	-1.183231	-0.171260	99
Es	1.769295	0.953583	0.202333	99
Es	1.268887	1.886540	0.002515	99
Es	-2.161409	-0.740855	-0.849137	99
Es	-1.972392	-1.229715	-0.327077	99
Es	1.815563	-0.033407	1.015927	99
Es	1.866559	1.576769	0.068756	99
Es	-0.514341	-1.154881	-0.010187	99
Es	0.199274	1.823920	0.090963	99
Es	-0.214706	-0.532917	0.309827	99
Es	0.314564	1.794507	-0.468109	99
Es	-2.135272	-1.908629	-0.573669	99
Es	0.693269	2.243223	-0.145731	99
Es	-0.944207	1.485327	-0.379814	99
Es	-0.033209	0.634467	-0.133971	99
Es	1.988728	1.613917	-0.218806	99
Es	0.953394	0.012426	0.162176	99
Es	0.691435	2.616571	-0.163802	99
Es	-0.231682	1.339343	-0.239836	99
Es	1.672951	0.138754	0.307810	99
Es	2.099004	-0.263184	-0.140986	99
41
Properties=species:S:1:pos:R:3:Z:I:1 energy=-302.92830277668105 field_type=dipole dipole="0.000000 0.000000 0.000000" charge=0
C	-1.972445	-1.229719	-0.327089	6
C	-0.514275	-1.154809	-0.010179	6
C	0.224295	-0.039909	0.003961	6
C	1.672975	0.138611	0.307831	6
N	1.867105	1.576801	0.068171	7
N	0.693195	2.243841	-0.145779	7
C	-0.231675	1.339361	-0.239809	6
H	-2.219075	-2.230618	-0.694509	1
H	-2.259865	-0.518239	-1.106369	1
H	-2.566785	-1.042479	0.571751	1
H	-0.030265	-2.100979	0.225911	1
H	2.311375	-0.444599	-0.361389	1
H	1.888985	-0.111179	1.351231	1
H	2.426605	2.020791	0.796621	1
H	-1.290155	1.553121	-0.440359	1
Es	-2.363269	-1.099115	0.280915	99
Es	1.815556	-0.033415	1.015880	99
Es	-2.161423	-0.740859	-0.849118	99
Es	1.268989	1.886485	0.002898	99
Es	-0.187481	-1.800751	0.152695	99
Es	-1.972394	-1.229716	-0.327077	99
Es	-0.231683	1.339340	-0.239842	99
Es	0.314590	1.794624	-0.467853	99
Es	-0.214697	-0.532940	0.309734	99
Es	1.769254	0.953681	0.202575	99
Es	-2.135302	-1.908649	-0.573662	99
Es	-0.033218	0.634426	-0.134027	99
Es	0.693245	2.243218	-0.145731	99
Es	0.224371	-0.039783	0.003959	99
Es	1.672951	0.138753	0.307811	99
Es	2.182697	1.840128	0.519817	99
Es	0.199160	1.823847	0.091029	99
Es	1.987864	1.613746	-0.218516	99
Es	1.866949	1.576801	0.068252	99
Es	-0.069076	-0.617757	-0.327502	99
Es	2.099003	-0.263178	-0.140951	99
Es	0.953425	0.012384	0.162194	99
Es	-1.240065	-1.183228	-0.171287	99
Es	-0.514341	-1.154880	-0.010188	99
Es	-0.944206	1.485350	-0.379867	99
Es	0.691412	2.616463	-0.164044	99
41
Properties=species:S:1:pos:R:3:Z:I:1 energy=-302.92830277668105 field_type=dipole dipole="0.000000 0.000000 0.000000" charge=0
C	-1.972445	-1.229719	-0.327089	6
C	-0.514275	-1.154809	-0.010179	6
C	0.224295	-0.039909	0.003961	6
C	1.672975	0.138611	0.307831	6
N	1.867105	1.576801	0.068171	7
N	0.693195	2.243841	-0.145779	7
C	-0.231675	1.339361	-0.239809	6
H	-2.219075	-2.230618	-0.694509	1
H	-2.259865	-0.518239	-1.106369	1
H	-2.566785	-1.042479	0.571751	1
H	-0.030265	-2.100979	0.225911	1
H	2.311375	-0.444599	-0.361389	1
H	1.888985	-0.111179	1.351231	1
H	2.426605	2.020791	0.796621	1
H	-1.290155	1.553121	-0.440359	1
Es	0.224371	-0.039783	0.003959	99
Es	0.199247	1.824053	0.090754	99
Es	0.953398	0.012269	0.162263	99
Es	0.691363	2.616322	-0.163813	99
Es	2.099029	-0.263173	-0.140892	99
Es	2.182460	1.840034	0.519907	99
Es	1.988387	1.613991	-0.219079	99
Es	0.314493	1.794489	-0.468060	99
Es	-2.363259	-1.099090	0.280932	99
Es	-0.187431	-1.800684	0.152736	99
Es	-0.514339	-1.154880	-0.010189	99
Es	-2.161430	-0.740884	-0.849117	99
Es	1.269075	1.886418	0.002991	99
Es	-0.214705	-0.532930	0.309656	99
Es	-2.135329	-1.908637	-0.573645	99
Es	-0.069088	-0.617756	-0.327409	99
Es	-1.240090	-1.183301	-0.171376	99
Es	-0.944229	1.485372	-0.379807	99
Es	1.815609	-0.033362	1.015776	99
Es	1.866618	1.576770	0.068755	99
Es	1.672949	0.138749	0.307811	99
Es	-0.033257	0.634426	-0.133887	99
Es	1.769270	0.953688	0.202480	99
Es	-0.231683	1.339341	-0.239840	99
Es	0.693274	2.243253	-0.145733	99
Es	-1.972393	-1.229715	-0.327077	99
41
Properties=species:S:1:pos:R:3:Z:I:1 energy=-302.92830277668105 field_type=dipole dipole="0.000000 0.000000 0.000000" charge=0
C	-1.972445	-1.229719	-0.327089	6
C	-0.514275	-1.154809	-0.010179	6
C	0.224295	-0.039909	0.003961	6
C	1.672975	0.138611	0.307831	6
N	1.867105	1.576801	0.068171	7
N	0.693195	2.243841	-0.145779	7
C	-0.231675	1.339361	-0.239809	6
H	-2.219075	-2.230618	-0.694509	1
H	-2.259865	-0.518239	-1.106369	1
H	-2.566785	-1.042479	0.571751	1
H	-0.030265	-2.100979	0.225911	1
H	2.311375	-0.444599	-0.361389	1
H	1.888985	-0.111179	1.351231	1
H	2.426605	2.020791	0.796621	1
H	-1.290155	1.553121	-0.440359	1
Es	1.815544	-0.033428	1.015807	99
Es	0.199179	1.823767	0.090833	99
Es	-2.135351	-1.908652	-0.573673	99
Es	0.953505	0.012303	0.162236	99
Es	-0.514344	-1.154884	-0.010189	99
Es	-0.944230	1.485391	-0.379867	99
Es	-2.363257	-1.099097	0.280897	99
Es	2.183208	1.840301	0.519435	99
Es	1.672954	0.138744	0.307809	99
Es	0.224368	-0.039787	0.003960	99
Es	-1.240147	-1.183236	-0.171288	99
Es	0.691220	2.616393	-0.164165	99
Es	-0.231682	1.339339	-0.239853	99
Es	-0.214668	-0.532983	0.309508	99
Es	2.098980	-0.263170	-0.140880	99
Es	1.866595	1.576762	0.068756	99
Es	-1.972394	-1.229715	-0.327078	99
Es	0.693244	2.243223	-0.145731	99
Es	-0.187405	-1.800709	0.152711	99
Es	-2.161418	-0.740860	-0.849086	99
Es	1.269168	1.886488	0.003034	99
Es	1.987670	1.613832	-0.218756	99
Es	-0.069133	-0.617693	-0.327314	99
Es	-0.033234	0.634361	-0.134049	99
Es	1.769382	0.953644	0.202572	99
Es	0.314557	1.794643	-0.467534	99
41
Properties=species:S:1:pos:R:3:Z:I:1 energy=-302.92830277668105 field_type=dipole dipole="0.000000 0.000000 0.000000" charge=0
C	-1.972445	-1.229719	-0.327089	6
C	-0.514275	-1.154809	-0.010179	6
C	0.224295	-0.039909	0.003961	6
C	1.672975	0.138611	0.307831	6
N	1.867105	1.576801	0.068171	7
N	0.693195	2.243841	-0.145779	7
C	-0.231675	1.339361	-0.239809	6
H	-2.219075	-2.230618	-0.694509	1
H	-2.259865	-0.518239	-1.106369	1
H	-2.566785	-1.042479	0.571751	1
H	-0.030265	-2.100979	0.225911	1
H	2.311375	-0.444599	-0.361389	1
H	1.888985	-0.111179	1.351231	1
H	2.426605	2.020791	0.796621	1
H	-1.290155	1.553121	-0.440359	1
Es	1.866632	1.576752	0.068746	99
Es	-2.161473	-0.740823	-0.849055	99
Es	-0.214663	-0.532969	0.309529	99
Es	-0.187382	-1.800681	0.152662	99
Es	-1.240175	-1.183221	-0.171301	99
Es	-0.944229	1.485411	-0.379858	99
Es	-2.363213	-1.099138	0.280870	99
Es	2.098966	-0.263175	-0.140837	99
Es	1.672951	0.138750	0.307812	99
Es	0.224370	-0.039785	0.003959	99
Es	-0.033243	0.634305	-0.134047	99
Es	-0.231682	1.339342	-0.239840	99
Es	0.953501	0.012293	0.162194	99
Es	0.314538	1.794622	-0.467619	99
Es	-1.972394	-1.229716	-0.327078	99
Es	2.183768	1.840508	0.519047	99
Es	-2.135356	-1.908670	-0.573683	99
Es	-0.514339	-1.154879	-0.010189	99
Es	1.269333	1.886633	0.003298	99
Es	0.693254	2.243221	-0.145731	99
Es	0.199156	1.823808	0.090735	99
Es	1.987115	1.613678	-0.218666	99
Es	0.691070	2.616167	-0.164160	99
Es	1.769440	0.953675	0.202748	99
Es	1.815545	-0.033438	1.015761	99
Es	-0.069179	-0.617695	-0.327200	99
41
Properties=species:S:1:pos:R:3:Z:I:1 energy=-302.92830277668105 field_type=dipole dipole="0.000000 0.000000 0.000000" charge=0
C	-1.972445	-1.229719	-0.327089	6
C	-0.514275	-1.154809	-0.010179	6
C	0.224295	-0.039909	0.003961	6
C	1.672975	0.138611	0.307831	6
N	1.867105	1.576801	0.068171	7
N	0.693195	2.243841	-0.145779	7
C	-0.231675	1.339361	-0.239809	6
H	-2.219075	-2.230618	-0.694509	1
H	-2.259865	-0.518239	-1.106369	1
H	-2.566785	-1.042479	0.571751	1
H	-0.030265	-2.100979	0.225911	1
H	2.311375	-0.444599	-0.361389	1
H	1.888985	-0.111179	1.351231	1
H	2.426605	2.020791	0.796621	1
H	-1.290155	1.553121	-0.440359	1
Es	-0.214661	-0.532981	0.309373	99
Es	0.693266	2.243227	-0.145731	99
Es	2.184308	1.840718	0.518590	99
Es	-2.363238	-1.099095	0.280890	99
Es	1.866595	1.576775	0.068754	99
Es	-2.161455	-0.740883	-0.849056	99
Es	1.986521	1.613722	-0.218771	99
Es	1.769550	0.953628	0.202860	99
Es	-0.033303	0.634330	-0.133959	99
Es	-0.514340	-1.154879	-0.010188	99
Es	-0.069160	-0.617695	-0.327084	99
Es	2.098885	-0.263091	-0.140856	99
Es	0.199239	1.824008	0.090537	99
Es	1.815631	-0.033519	1.015741	99
Es	0.690932	2.615875	-0.163970	99
Es	0.224370	-0.039785	0.003960	99
Es	-0.944260	1.485450	-0.379802	99
Es	0.314455	1.794459	-0.467855	99
Es	-2.135349	-1.908684	-0.573677	99
Es	-0.231682	1.339341	-0.239841	99
Es	-0.187371	-1.800673	0.152743	99
Es	1.672951	0.138752	0.307810	99
Es	1.269507	1.886642	0.003839	99
Es	0.953533	0.012218	0.162240	99
Es	-1.240217	-1.183169	-0.171377	99
Es	-1.972395	-1.229716	-0.327077	99
