35
Properties=species:S:1:pos:R:3:Z:I:1 energy=-300.5436146772694 field_type=dipole dipole="0.000000 0.000000 0.000000" charge=0
C	-2.578923	-0.353234	0.388841	6
C	-1.381053	-0.334184	0.463541	6
C	0.049347	-0.313204	0.554701	6
N	0.823607	-1.046074	-0.443899	7
C	0.838857	0.420936	-0.504829	6
C	2.002387	1.155486	-0.091799	6
N	2.925797	1.773436	0.243291	7
H	-3.643213	-0.373734	0.329321	1
H	0.460447	-0.350804	1.559851	1
H	0.204427	-1.430884	-1.158519	1
H	0.298317	0.852256	-1.340499	1
Es	-3.268981	-0.366243	0.348649	99
Es	0.446281	-1.247848	-0.869910	99
Es	-1.983296	-0.661978	0.587821	99
Es	0.312685	-0.333024	1.219110	99
Es	0.386510	0.261720	0.102574	99
Es	-2.579142	-0.353246	0.388813	99
Es	0.488901	0.717046	-1.052994	99
Es	0.838969	0.420750	-0.504699	99
Es	2.339439	1.606909	0.325241	99
Es	2.653591	1.226019	0.126829	99
Es	-1.990838	-0.043242	0.613897	99
Es	-1.380780	-0.334181	0.463555	99
Es	1.460044	0.791120	-0.292602	99
Es	0.922077	-0.380570	-0.586191	99
Es	-0.686562	-0.322215	0.501085	99
Es	0.049370	-0.313243	0.554449	99
Es	1.111201	-1.214416	-0.336707	99
Es	0.408447	-0.837810	0.039492	99
Es	-1.946730	-0.329043	0.061899	99
Es	2.501077	1.633658	-0.183362	99
Es	0.823121	-1.045679	-0.444012	99
Es	2.002094	1.155287	-0.091890	99
Es	3.216571	1.968777	0.349908	99
Es	2.925429	1.773193	0.243160	99
35
Properties=species:S:1:pos:R:3:Z:I:1 energy=-300.5436146772694 field_type=dipole dipole="0.000000 0.000000 0.000000" charge=0
C	-2.578923	-0.353234	0.388841	6
C	-1.381053	-0.334184	0.463541	6
C	0.049347	-0.313204	0.554701	6
N	0.823607	-1.046074	-0.443899	7
C	0.838857	0.420936	-0.504829	6
C	2.002387	1.155486	-0.091799	6
N	2.925797	1.773436	0.243291	7
H	-3.643213	-0.373734	0.329321	1
H	0.460447	-0.350804	1.559851	1
H	0.204427	-1.430884	-1.158519	1
H	0.298317	0.852256	-1.340499	1
Es	2.671853	1.360234	-0.130618	99
Es	2.483723	1.359174	0.370357	99
Es	0.408349	-0.838437	0.039985	99
Es	-1.944886	-0.378030	0.063095	99
Es	0.923024	-0.380587	-0.585926	99
Es	2.002085	1.155291	-0.091904	99
Es	0.386576	0.262379	0.102644	99
Es	0.838963	0.420752	-0.504696	99
Es	2.925429	1.773192	0.243159	99
Es	1.460236	0.790792	-0.292999	99
Es	-1.985969	-0.636313	0.630028	99
Es	-3.268954	-0.366141	0.348660	99
Es	3.215952	1.969359	0.349839	99
Es	2.338881	1.746859	0.029141	99
Es	-2.579153	-0.353220	0.388809	99
Es	0.049371	-0.313241	0.554443	99
Es	0.312557	-0.333092	1.219058	99
Es	0.489030	0.716986	-1.052998	99
Es	-0.686411	-0.322147	0.501257	99
Es	-1.380780	-0.334180	0.463556	99
Es	0.446379	-1.247680	-0.870066	99
Es	1.110121	-1.214428	-0.337049	99
Es	-1.989995	-0.020116	0.570365	99
Es	0.823096	-1.045664	-0.444024	99
35
Properties=species:S:1:pos:R:3:Z:I:1 energy=-300.5436146772694 field_type=dipole dipole="0.000000 0.000000 0.000000" charge=0
C	-2.578923	-0.353234	0.388841	6
C	-1.381053	-0.334184	0.463541	6
C	0.049347	-0.313204	0.554701	6
N	0.823607	-1.046074	-0.443899	7
C	0.838857	0.420936	-0.504829	6
C	2.002387	1.155486	-0.091799	6
N	2.925797	1.773436	0.243291	7
H	-3.643213	-0.373734	0.329321	1
H	0.460447	-0.350804	1.559851	1
H	0.204427	-1.430884	-1.158519	1
H	0.298317	0.852256	-1.340499	1
Es	0.408314	-0.838858	0.040006	99
Es	-2.579153	-0.353242	0.388814	99
Es	-3.268970	-0.366136	0.348746	99
Es	0.386355	0.262485	0.102814	99
Es	-0.686294	-0.322186	0.501130	99
Es	2.663764	1.384002	-0.149187	99
Es	0.838972	0.420749	-0.504702	99
Es	2.002098	1.155284	-0.091895	99
Es	-1.980235	-0.680662	0.543636	99
Es	3.215739	1.969209	0.349938	99
Es	0.312492	-0.332987	1.219070	99
Es	0.922844	-0.380390	-0.586258	99
Es	-1.380778	-0.334172	0.463556	99
Es	2.329358	1.746176	0.058599	99
Es	2.925431	1.773198	0.243160	99
Es	-1.991405	-0.071708	0.653300	99
Es	-1.949165	-0.282118	0.066624	99
Es	1.110096	-1.213859	-0.337033	99
Es	0.823103	-1.045666	-0.444020	99
Es	0.446792	-1.248176	-0.870010	99
Es	0.489070	0.717024	-1.052898	99
Es	1.460118	0.790764	-0.293043	99
Es	2.501560	1.336254	0.359324	99
Es	0.049372	-0.313240	0.554445	99
35
Properties=species:S:1:pos:R:3:Z:I:1 energy=-300.5436146772694 field_type=dipole dipole="0.000000 0.000000 0.000000" charge=0
C	-2.578923	-0.353234	0.388841	6
C	-1.381053	-0.334184	0.463541	6
C	0.049347	-0.313204	0.554701	6
N	0.823607	-1.046074	-0.443899	7
C	0.838857	0.420936	-0.504829	6
C	2.002387	1.155486	-0.091799	6
N	2.925797	1.773436	0.243291	7
H	-3.643213	-0.373734	0.329321	1
H	0.460447	-0.350804	1.559851	1
H	0.204427	-1.430884	-1.158519	1
H	0.298317	0.852256	-1.340499	1
Es	2.419452	1.454271	0.386849	99
Es	2.925429	1.773192	0.243159	99
Es	-1.992002	-0.142550	0.716864	99
Es	-0.686113	-0.322328	0.501017	99
Es	-2.579148	-0.353239	0.388819	99
Es	0.446901	-1.248341	-0.869856	99
Es	0.408224	-0.838815	0.040238	99
Es	0.312357	-0.333080	1.219025	99
Es	2.002094	1.155292	-0.091899	99
Es	2.685525	1.284167	-0.042936	99
Es	1.459880	0.790671	-0.292993	99
Es	-1.955946	-0.190472	0.097338	99
Es	0.386341	0.262822	0.103009	99
Es	-1.380781	-0.334179	0.463555	99
Es	0.838965	0.420746	-0.504697	99
Es	0.489151	0.717021	-1.052807	99
Es	0.923179	-0.380489	-0.586715	99
Es	1.109685	-1.213711	-0.337116	99
Es	-3.268967	-0.366191	0.348994	99
Es	3.215876	1.969155	0.348915	99
Es	0.049372	-0.313242	0.554445	99
Es	2.389747	1.728024	-0.074263	99
Es	-1.972925	-0.701289	0.449150	99
Es	0.823183	-1.045692	-0.443981	99
35
Properties=species:S:1:pos:R:3:Z:I:1 energy=-300.5436146772694 field_type=dipole dipole="0.000000 0.000000 0.000000" charge=0
C	-2.578923	-0.353234	0.388841	6
C	-1.381053	-0.334184	0.463541	6
C	0.049347	-0.313204	0.554701	6
N	0.823607	-1.046074	-0.443899	7
C	0.838857	0.420936	-0.504829	6
C	2.002387	1.155486	-0.091799	6
N	2.925797	1.773436	0.243291	7
H	-3.643213	-0.373734	0.329321	1
H	0.460447	-0.350804	1.559851	1
H	0.204427	-1.430884	-1.158519	1
H	0.298317	0.852256	-1.340499	1
Es	-0.685911	-0.322133	0.501270	99
Es	3.215712	1.968566	0.349921	99
Es	0.049372	-0.313247	0.554446	99
Es	-3.268924	-0.366609	0.349084	99
Es	0.838960	0.420736	-0.504697	99
Es	2.002093	1.155296	-0.091903	99
Es	0.408212	-0.839212	0.040607	99
Es	-1.946790	-0.569551	0.143825	99
Es	0.312268	-0.333122	1.218924	99
Es	0.489232	0.717015	-1.052773	99
Es	-1.982284	0.005924	0.362224	99
Es	0.923552	-0.380491	-0.586840	99
Es	1.459785	0.790855	-0.293314	99
Es	-1.380781	-0.334180	0.463553	99
Es	2.577650	1.257248	0.279526	99
Es	2.310083	1.712819	0.189634	99
Es	2.925428	1.773191	0.243159	99
Es	1.109345	-1.213577	-0.337324	99
Es	0.823108	-1.045661	-0.444012	99
Es	0.447050	-1.248408	-0.869783	99
Es	-2.579147	-0.353244	0.388817	99
Es	-1.991935	-0.470452	0.756909	99
Es	0.386313	0.263155	0.103210	99
Es	2.607089	1.496825	-0.200349	99
35
Properties=species:S:1:pos:R:3:Z:I:1 energy=-300.5436146772694 field_type=dipole dipole="0.000000 0.000000 0.000000" charge=0
C	-2.578923	-0.353234	0.388841	6
C	-1.381053	-0.334184	0.463541	6
C	0.049347	-0.313204	0.554701	6
N	0.823607	-1.046074	-0.443899	7
C	0.838857	0.420936	-0.504829	6
C	2.002387	1.155486	-0.091799	6
N	2.925797	1.773436	0.243291	7
H	-3.643213	-0.373734	0.329321	1
H	0.460447	-0.350804	1.559851	1
H	0.204427	-1.430884	-1.158519	1
H	0.298317	0.852256	-1.340499	1
Es	-1.984876	-0.647338	0.613270	99
Es	0.823105	-1.045679	-0.444027	99
Es	3.216056	1.967966	0.348787	99
Es	-1.945573	-0.358202	0.061553	99
Es	-1.380794	-0.334159	0.463565	99
Es	-2.579146	-0.353245	0.388823	99
Es	-1.990397	-0.028639	0.588702	99
Es	1.459515	0.790731	-0.293165	99
Es	2.925429	1.773193	0.243159	99
Es	0.312185	-0.333133	1.218971	99
Es	0.408133	-0.839869	0.040782	99
Es	-0.685915	-0.322280	0.501167	99
Es	2.491458	1.644341	-0.177947	99
Es	-3.268914	-0.366371	0.348797	99
Es	2.659062	1.226769	0.112765	99
Es	2.002092	1.155293	-0.091899	99
Es	1.109421	-1.212872	-0.337484	99
Es	0.049375	-0.313240	0.554441	99
Es	0.923075	-0.380124	-0.586994	99
Es	0.386271	0.263392	0.103086	99
Es	2.344210	1.596338	0.334968	99
Es	0.447388	-1.248901	-0.869795	99
Es	0.489356	0.717030	-1.052717	99
Es	0.838962	0.420743	-0.504695	99
35
Properties=species:S:1:pos:R:3:Z:I:1 energy=-300.5436146772694 field_type=dipole dipole="0.000000 0.000000 0.000000" charge=0
C	-2.578923	-0.353234	0.388841	6
C	-1.381053	-0.334184	0.463541	6
C	0.049347	-0.313204	0.554701	6
N	0.823607	-1.046074	-0.443899	7
C	0.838857	0.420936	-0.504829	6
C	2.002387	1.155486	-0.091799	6
N	2.925797	1.773436	0.243291	7
H	-3.643213	-0.373734	0.329321	1
H	0.460447	-0.350804	1.559851	1
H	0.204427	-1.430884	-1.158519	1
H	0.298317	0.852256	-1.340499	1
Es	0.447531	-1.248853	-0.869733	99
Es	0.923872	-0.380348	-0.587069	99
Es	0.049374	-0.313244	0.554444	99
Es	0.489483	0.717035	-1.052743	99
Es	0.386211	0.263917	0.103173	99
Es	1.459693	0.790474	-0.293469	99
Es	2.002096	1.155294	-0.091898	99
Es	0.823125	-1.045698	-0.444018	99
Es	0.838966	0.420748	-0.504699	99
Es	2.513793	1.321523	0.351222	99
Es	2.925429	1.773194	0.243160	99
Es	2.657741	1.400358	-0.160610	99
Es	-2.579148	-0.353238	0.388818	99
Es	3.215051	1.968877	0.349418	99
Es	-1.944353	-0.400259	0.065816	99
Es	1.108460	-1.212628	-0.338071	99
Es	-1.986916	-0.622704	0.647575	99
Es	-1.380783	-0.334178	0.463555	99
Es	0.408128	-0.840334	0.041519	99
Es	-1.989569	-0.011300	0.550065	99
Es	0.312118	-0.333129	1.218879	99
Es	-3.268899	-0.366356	0.348803	99
Es	-0.685799	-0.322276	0.501332	99
Es	2.323875	1.744868	0.078644	99
35
Properties=species:S:1:pos:R:3:Z:I:1 energy=-300.5436146772694 field_type=dipole dipole="0.000000 0.000000 0.000000" charge=0
C	-2.578923	-0.353234	0.388841	6
C	-1.381053	-0.334184	0.463541	6
C	0.049347	-0.313204	0.554701	6
N	0.823607	-1.046074	-0.443899	7
C	0.838857	0.420936	-0.504829	6
C	2.002387	1.155486	-0.091799	6
N	2.925797	1.773436	0.243291	7
H	-3.643213	-0.373734	0.329321	1
H	0.460447	-0.350804	1.559851	1
H	0.204427	-1.430884	-1.158519	1
H	0.298317	0.852256	-1.340499	1
Es	2.442195	1.418715	0.386795	99
Es	2.684579	1.308605	-0.078121	99
Es	1.108357	-1.212772	-0.337830	99
Es	0.924273	-0.380465	-0.587659	99
Es	0.489576	0.717062	-1.052631	99
Es	0.838963	0.420742	-0.504696	99
Es	-2.579145	-0.353245	0.388821	99
Es	3.215075	1.968811	0.348674	99
Es	-1.989922	-0.017085	0.565105	99
Es	-0.685690	-0.322338	0.501363	99
Es	-1.380784	-0.334185	0.463555	99
Es	0.385988	0.264025	0.103397	99
Es	-3.268876	-0.366375	0.348819	99
Es	2.002092	1.155291	-0.091897	99
Es	2.925433	1.773195	0.243160	99
Es	0.312027	-0.333150	1.218858	99
Es	1.459472	0.790294	-0.293363	99
Es	-1.986175	-0.632656	0.634705	99
Es	0.447558	-1.248945	-0.869594	99
Es	0.823111	-1.045667	-0.444016	99
Es	2.368728	1.739582	-0.038802	99
Es	-1.944731	-0.384456	0.063627	99
Es	0.049372	-0.313242	0.554446	99
Es	0.408002	-0.839998	0.041399	99
