47
Properties=species:S:1:pos:R:3:Z:I:1 energy=-305.27077506592724 field_type=dipole dipole="0.000000 0.000000 0.000000" charge=0
C	-0.664197	-1.744744	-1.724303	6
C	-0.672357	-1.228744	-0.293133	6
C	0.228364	-0.006874	-0.144793	6
N	-0.352947	1.229566	-0.744263	7
C	0.168983	2.003386	0.412237	6
C	0.177253	0.700176	1.236277	6
N	1.452034	0.548656	1.944757	7
H	-1.285067	-2.641924	-1.807533	1
H	0.351293	-2.000654	-2.042743	1
H	-1.055207	-0.995074	-2.419003	1
H	-0.312997	-2.025064	0.369747	1
H	-1.702327	-1.003794	0.010317	1
H	1.244443	-0.204594	-0.516123	1
H	-1.372807	1.225086	-0.786043	1
H	1.145043	2.460866	0.207767	1
H	-0.507117	2.783505	0.775557	1
H	-0.721137	0.526946	1.837047	1
H	2.272893	0.764906	1.377507	1
H	1.605853	-0.391624	2.306717	1
Es	-0.353158	1.229408	-0.743704	99
Es	-0.932273	-1.233621	-2.192620	99
Es	-0.969911	1.210302	-0.726391	99
Es	-0.296949	2.542796	0.658849	99
Es	-0.224023	-0.624601	-0.224407	99
Es	0.910711	0.585318	1.636858	99
Es	-0.229228	1.326887	-1.070814	99
Es	0.228264	-0.006777	-0.144866	99
Es	-0.156527	1.615617	-0.259684	99
Es	0.209829	0.262394	0.583877	99
Es	1.927703	0.663249	1.570705	99
Es	-1.089104	-2.358865	-1.779926	99
Es	-0.131046	0.663577	-0.530557	99
Es	0.032018	-1.918598	-1.936196	99
Es	1.452021	0.548300	1.944314	99
Es	0.168917	2.003298	0.412132	99
Es	-0.669189	-1.486028	-1.011618	99
Es	0.844776	2.299114	0.277339	99
Es	0.928382	-0.138637	-0.392097	99
Es	-1.378461	-1.062214	-0.083793	99
Es	-0.664198	-1.744741	-1.724272	99
Es	-0.432985	0.575081	1.643286	99
Es	-0.420944	-1.772080	0.164975	99
Es	0.188533	1.404121	0.907306	99
Es	1.463373	0.763078	2.219330	99
Es	0.177402	0.700174	1.236336	99
Es	1.534791	-0.035267	2.136270	99
Es	-0.672345	-1.228751	-0.293161	99
47
Properties=species:S:1:pos:R:3:Z:I:1 energy=-305.27077506592724 field_type=dipole dipole="0.000000 0.000000 0.000000" charge=0
C	-0.664197	-1.744744	-1.724303	6
C	-0.672357	-1.228744	-0.293133	6
C	0.228364	-0.006874	-0.144793	6
N	-0.352947	1.229566	-0.744263	7
C	0.168983	2.003386	0.412237	6
C	0.177253	0.700176	1.236277	6
N	1.452034	0.548656	1.944757	7
H	-1.285067	-2.641924	-1.807533	1
H	0.351293	-2.000654	-2.042743	1
H	-1.055207	-0.995074	-2.419003	1
H	-0.312997	-2.025064	0.369747	1
H	-1.702327	-1.003794	0.010317	1
H	1.244443	-0.204594	-0.516123	1
H	-1.372807	1.225086	-0.786043	1
H	1.145043	2.460866	0.207767	1
H	-0.507117	2.783505	0.775557	1
H	-0.721137	0.526946	1.837047	1
H	2.272893	0.764906	1.377507	1
H	1.605853	-0.391624	2.306717	1
Es	-0.433002	0.575064	1.643268	99
Es	-0.669261	-1.485986	-1.011607	99
Es	-0.224042	-0.624701	-0.224435	99
Es	0.177403	0.700171	1.236339	99
Es	-1.089011	-2.358933	-1.779916	99
Es	0.910772	0.585002	1.636627	99
Es	-0.296919	2.542843	0.658878	99
Es	-0.664198	-1.744741	-1.724274	99
Es	-0.969970	1.210392	-0.726670	99
Es	1.452021	0.548272	1.944275	99
Es	0.928287	-0.138644	-0.391982	99
Es	-0.229551	1.326665	-1.070171	99
Es	0.209924	0.262418	0.583764	99
Es	-0.420970	-1.772089	0.165057	99
Es	0.188615	1.404100	0.907385	99
Es	-0.353149	1.229424	-0.743767	99
Es	-0.932341	-1.233737	-2.192631	99
Es	1.463306	0.763440	2.219709	99
Es	0.228261	-0.006776	-0.144868	99
Es	-1.378373	-1.062161	-0.083807	99
Es	-0.130815	0.663512	-0.530817	99
Es	0.168914	2.003294	0.412134	99
Es	0.032010	-1.918489	-1.936238	99
Es	-0.672344	-1.228752	-0.293160	99
Es	0.844638	2.299073	0.277462	99
Es	-0.156262	1.615956	-0.259954	99
Es	1.534871	-0.035189	2.136102	99
Es	1.927568	0.663105	1.570766	99
47
Properties=species:S:1:pos:R:3:Z:I:1 energy=-305.27077506592724 field_type=dipole dipole="0.000000 0.000000 0.000000" charge=0
C	-0.664197	-1.744744	-1.724303	6
C	-0.672357	-1.228744	-0.293133	6
C	0.228364	-0.006874	-0.144793	6
N	-0.352947	1.229566	-0.744263	7
C	0.168983	2.003386	0.412237	6
C	0.177253	0.700176	1.236277	6
N	1.452034	0.548656	1.944757	7
H	-1.285067	-2.641924	-1.807533	1
H	0.351293	-2.000654	-2.042743	1
H	-1.055207	-0.995074	-2.419003	1
H	-0.312997	-2.025064	0.369747	1
H	-1.702327	-1.003794	0.010317	1
H	1.244443	-0.204594	-0.516123	1
H	-1.372807	1.225086	-0.786043	1
H	1.145043	2.460866	0.207767	1
H	-0.507117	2.783505	0.775557	1
H	-0.721137	0.526946	1.837047	1
H	2.272893	0.764906	1.377507	1
H	1.605853	-0.391624	2.306717	1
Es	-0.296769	2.542767	0.658711	99
Es	0.188438	1.404226	0.907543	99
Es	-0.664197	-1.744741	-1.724274	99
Es	1.452028	0.548279	1.944293	99
Es	0.228263	-0.006778	-0.144868	99
Es	-0.130831	0.663433	-0.530859	99
Es	0.209940	0.262292	0.583801	99
Es	-1.378360	-1.062192	-0.083818	99
Es	-1.089020	-2.358847	-1.779948	99
Es	-0.669232	-1.486039	-1.011601	99
Es	-0.969836	1.210428	-0.726674	99
Es	-0.223958	-0.624663	-0.224369	99
Es	-0.353152	1.229401	-0.743710	99
Es	1.927413	0.662676	1.570500	99
Es	0.928227	-0.138670	-0.391956	99
Es	-0.672343	-1.228751	-0.293161	99
Es	0.910373	0.585379	1.636958	99
Es	1.463878	0.763433	2.218966	99
Es	0.168919	2.003304	0.412135	99
Es	-0.932283	-1.233721	-2.192681	99
Es	-0.156359	1.616075	-0.259941	99
Es	0.844762	2.299098	0.277427	99
Es	-0.421049	-1.772027	0.165039	99
Es	0.177402	0.700174	1.236336	99
Es	1.534814	-0.035145	2.136769	99
Es	-0.229711	1.326668	-1.070196	99
Es	-0.432949	0.575061	1.643264	99
Es	0.031972	-1.918586	-1.936214	99
47
Properties=species:S:1:pos:R:3:Z:I:1 energy=-305.27077506592724 field_type=dipole dipole="0.000000 0.000000 0.000000" charge=0
C	-0.664197	-1.744744	-1.724303	6
C	-0.672357	-1.228744	-0.293133	6
C	0.228364	-0.006874	-0.144793	6
N	-0.352947	1.229566	-0.744263	7
C	0.168983	2.003386	0.412237	6
C	0.177253	0.700176	1.236277	6
N	1.452034	0.548656	1.944757	7
H	-1.285067	-2.641924	-1.807533	1
H	0.351293	-2.000654	-2.042743	1
H	-1.055207	-0.995074	-2.419003	1
H	-0.312997	-2.025064	0.369747	1
H	-1.702327	-1.003794	0.010317	1
H	1.244443	-0.204594	-0.516123	1
H	-1.372807	1.225086	-0.786043	1
H	1.145043	2.460866	0.207767	1
H	-0.507117	2.783505	0.775557	1
H	-0.721137	0.526946	1.837047	1
H	2.272893	0.764906	1.377507	1
H	1.605853	-0.391624	2.306717	1
Es	1.452033	0.548265	1.944258	99
Es	0.928213	-0.138621	-0.391934	99
Es	-0.224010	-0.624754	-0.224323	99
Es	1.463825	0.763365	2.219774	99
Es	0.168919	2.003299	0.412134	99
Es	0.188482	1.404325	0.907708	99
Es	-0.156454	1.616209	-0.259894	99
Es	-1.378367	-1.062200	-0.083798	99
Es	1.927390	0.662800	1.570603	99
Es	-0.672345	-1.228752	-0.293161	99
Es	-0.432840	0.575020	1.643151	99
Es	-0.664197	-1.744740	-1.724273	99
Es	0.228261	-0.006776	-0.144865	99
Es	0.910453	0.585273	1.636955	99
Es	-0.969701	1.210260	-0.726698	99
Es	-0.421041	-1.772001	0.165025	99
Es	-0.229948	1.326719	-1.070082	99
Es	-0.296750	2.542788	0.658703	99
Es	1.534805	-0.035151	2.135973	99
Es	0.031885	-1.918530	-1.936295	99
Es	0.844632	2.299124	0.277391	99
Es	0.177402	0.700174	1.236335	99
Es	-1.089012	-2.358900	-1.779962	99
Es	-0.353183	1.229405	-0.743698	99
Es	-0.130601	0.663363	-0.531016	99
Es	-0.932280	-1.233791	-2.192663	99
Es	-0.669113	-1.485951	-1.011603	99
Es	0.209923	0.262313	0.583724	99
47
Properties=species:S:1:pos:R:3:Z:I:1 energy=-305.27077506592724 field_type=dipole dipole="0.000000 0.000000 0.000000" charge=0
C	-0.664197	-1.744744	-1.724303	6
C	-0.672357	-1.228744	-0.293133	6
C	0.228364	-0.006874	-0.144793	6
N	-0.352947	1.229566	-0.744263	7
C	0.168983	2.003386	0.412237	6
C	0.177253	0.700176	1.236277	6
N	1.452034	0.548656	1.944757	7
H	-1.285067	-2.641924	-1.807533	1
H	0.351293	-2.000654	-2.042743	1
H	-1.055207	-0.995074	-2.419003	1
H	-0.312997	-2.025064	0.369747	1
H	-1.702327	-1.003794	0.010317	1
H	1.244443	-0.204594	-0.516123	1
H	-1.372807	1.225086	-0.786043	1
H	1.145043	2.460866	0.207767	1
H	-0.507117	2.783505	0.775557	1
H	-0.721137	0.526946	1.837047	1
H	2.272893	0.764906	1.377507	1
H	1.605853	-0.391624	2.306717	1
Es	-0.432810	0.575130	1.643154	99
Es	-0.932423	-1.233919	-2.192644	99
Es	0.168918	2.003300	0.412135	99
Es	0.228260	-0.006778	-0.144865	99
Es	-0.223883	-0.624744	-0.224378	99
Es	0.031916	-1.918370	-1.936366	99
Es	1.452016	0.548291	1.944310	99
Es	0.188517	1.404284	0.907683	99
Es	1.463572	0.763189	2.219383	99
Es	0.910554	0.585286	1.636801	99
Es	0.844528	2.299131	0.277460	99
Es	-0.421098	-1.771965	0.165054	99
Es	-0.664200	-1.744747	-1.724276	99
Es	0.177401	0.700175	1.236333	99
Es	0.209865	0.262183	0.583837	99
Es	-0.969754	1.210435	-0.726918	99
Es	-0.156196	1.616389	-0.260034	99
Es	-0.296660	2.542780	0.658668	99
Es	-0.669211	-1.485972	-1.011612	99
Es	1.534888	-0.035316	2.136209	99
Es	1.927512	0.663124	1.570884	99
Es	-1.378281	-1.062181	-0.083778	99
Es	-1.088888	-2.358993	-1.779905	99
Es	0.928160	-0.138595	-0.391910	99
Es	-0.353155	1.229408	-0.743712	99
Es	-0.130672	0.663237	-0.531230	99
Es	-0.230155	1.326523	-1.069653	99
Es	-0.672343	-1.228752	-0.293159	99
47
Properties=species:S:1:pos:R:3:Z:I:1 energy=-305.27077506592724 field_type=dipole dipole="0.000000 0.000000 0.000000" charge=0
C	-0.664197	-1.744744	-1.724303	6
C	-0.672357	-1.228744	-0.293133	6
C	0.228364	-0.006874	-0.144793	6
N	-0.352947	1.229566	-0.744263	7
C	0.168983	2.003386	0.412237	6
C	0.177253	0.700176	1.236277	6
N	1.452034	0.548656	1.944757	7
H	-1.285067	-2.641924	-1.807533	1
H	0.351293	-2.000654	-2.042743	1
H	-1.055207	-0.995074	-2.419003	1
H	-0.312997	-2.025064	0.369747	1
H	-1.702327	-1.003794	0.010317	1
H	1.244443	-0.204594	-0.516123	1
H	-1.372807	1.225086	-0.786043	1
H	1.145043	2.460866	0.207767	1
H	-0.507117	2.783505	0.775557	1
H	-0.721137	0.526946	1.837047	1
H	2.272893	0.764906	1.377507	1
H	1.605853	-0.391624	2.306717	1
Es	-0.669169	-1.486014	-1.011593	99
Es	-0.230205	1.326443	-1.069947	99
Es	-0.969574	1.210424	-0.726744	99
Es	-0.130833	0.663286	-0.531082	99
Es	0.188536	1.404377	0.907743	99
Es	-0.296551	2.542749	0.658668	99
Es	-0.421101	-1.771918	0.165049	99
Es	-0.932200	-1.233810	-2.192724	99
Es	-0.432736	0.575156	1.643115	99
Es	0.168917	2.003299	0.412134	99
Es	-1.378273	-1.062217	-0.083761	99
Es	1.534957	-0.035162	2.136131	99
Es	-0.156244	1.616466	-0.260181	99
Es	0.844452	2.299139	0.277532	99
Es	0.209823	0.262094	0.583856	99
Es	-0.223883	-0.624722	-0.224343	99
Es	1.452028	0.548298	1.944307	99
Es	-0.664198	-1.744741	-1.724274	99
Es	1.463702	0.762903	2.219373	99
Es	-0.353135	1.229420	-0.743742	99
Es	-1.089040	-2.358797	-1.779984	99
Es	0.177404	0.700174	1.236335	99
Es	0.228260	-0.006777	-0.144865	99
Es	0.910251	0.585294	1.637011	99
Es	0.928143	-0.138611	-0.391893	99
Es	-0.672344	-1.228752	-0.293161	99
Es	1.927561	0.663187	1.570796	99
Es	0.031830	-1.918656	-1.936289	99
47
Properties=species:S:1:pos:R:3:Z:I:1 energy=-305.27077506592724 field_type=dipole dipole="0.000000 0.000000 0.000000" charge=0
C	-0.664197	-1.744744	-1.724303	6
C	-0.672357	-1.228744	-0.293133	6
C	0.228364	-0.006874	-0.144793	6
N	-0.352947	1.229566	-0.744263	7
C	0.168983	2.003386	0.412237	6
C	0.177253	0.700176	1.236277	6
N	1.452034	0.548656	1.944757	7
H	-1.285067	-2.641924	-1.807533	1
H	0.351293	-2.000654	-2.042743	1
H	-1.055207	-0.995074	-2.419003	1
H	-0.312997	-2.025064	0.369747	1
H	-1.702327	-1.003794	0.010317	1
H	1.244443	-0.204594	-0.516123	1
H	-1.372807	1.225086	-0.786043	1
H	1.145043	2.460866	0.207767	1
H	-0.507117	2.783505	0.775557	1
H	-0.721137	0.526946	1.837047	1
H	2.272893	0.764906	1.377507	1
H	1.605853	-0.391624	2.306717	1
Es	0.188583	1.404462	0.907799	99
Es	-0.130493	0.663065	-0.531435	99
Es	-0.156163	1.616667	-0.260230	99
Es	-0.672342	-1.228750	-0.293161	99
Es	-0.230501	1.326359	-1.069024	99
Es	-0.932247	-1.233845	-2.192717	99
Es	-1.378168	-1.062230	-0.083730	99
Es	0.209813	0.261978	0.583892	99
Es	1.927466	0.662996	1.570772	99
Es	-0.296493	2.542785	0.658639	99
Es	-0.223899	-0.624683	-0.224318	99
Es	-0.421140	-1.771891	0.165065	99
Es	1.463711	0.763205	2.219694	99
Es	1.534936	-0.035092	2.135967	99
Es	0.910354	0.585090	1.636921	99
Es	1.452025	0.548292	1.944308	99
Es	0.031851	-1.918604	-1.936303	99
Es	0.228261	-0.006776	-0.144866	99
Es	-1.088949	-2.358783	-1.780045	99
Es	-0.353146	1.229411	-0.743723	99
Es	0.177407	0.700173	1.236334	99
Es	0.168917	2.003299	0.412135	99
Es	-0.432645	0.575203	1.643069	99
Es	0.928099	-0.138639	-0.391916	99
Es	-0.669300	-1.486080	-1.011600	99
Es	-0.664198	-1.744741	-1.724275	99
Es	0.844390	2.299122	0.277460	99
Es	-0.969749	1.210541	-0.727242	99
47
Properties=species:S:1:pos:R:3:Z:I:1 energy=-305.27077506592724 field_type=dipole dipole="0.000000 0.000000 0.000000" charge=0
C	-0.664197	-1.744744	-1.724303	6
C	-0.672357	-1.228744	-0.293133	6
C	0.228364	-0.006874	-0.144793	6
N	-0.352947	1.229566	-0.744263	7
C	0.168983	2.003386	0.412237	6
C	0.177253	0.700176	1.236277	6
N	1.452034	0.548656	1.944757	7
H	-1.285067	-2.641924	-1.807533	1
H	0.351293	-2.000654	-2.042743	1
H	-1.055207	-0.995074	-2.419003	1
H	-0.312997	-2.025064	0.369747	1
H	-1.702327	-1.003794	0.010317	1
H	1.244443	-0.204594	-0.516123	1
H	-1.372807	1.225086	-0.786043	1
H	1.145043	2.460866	0.207767	1
H	-0.507117	2.783505	0.775557	1
H	-0.721137	0.526946	1.837047	1
H	2.272893	0.764906	1.377507	1
H	1.605853	-0.391624	2.306717	1
Es	-0.421156	-1.771865	0.165041	99
Es	-0.669278	-1.486006	-1.011516	99
Es	1.464479	0.763201	2.219365	99
Es	-0.223835	-0.624755	-0.224363	99
Es	-0.672344	-1.228752	-0.293161	99
Es	1.452022	0.548260	1.944263	99
Es	0.909989	0.585679	1.637324	99
Es	-0.664198	-1.744741	-1.724275	99
Es	1.534795	-0.035048	2.136246	99
Es	-0.932198	-1.233955	-2.192709	99
Es	-0.230804	1.325801	-1.069473	99
Es	-0.432576	0.575079	1.643068	99
Es	0.844372	2.299156	0.277515	99
Es	0.031799	-1.918578	-1.936350	99
Es	0.168917	2.003299	0.412137	99
Es	0.928053	-0.138563	-0.391822	99
Es	0.209816	0.262019	0.583864	99
Es	-0.130691	0.663189	-0.531132	99
Es	-0.155912	1.617237	-0.260522	99
Es	-0.353158	1.229418	-0.743701	99
Es	-0.969463	1.210437	-0.726942	99
Es	-0.296453	2.542731	0.658648	99
Es	0.177403	0.700175	1.236333	99
Es	-1.378188	-1.062247	-0.083722	99
Es	1.927249	0.662455	1.570438	99
Es	0.188436	1.404483	0.907864	99
Es	-1.088955	-2.358800	-1.780084	99
Es	0.228260	-0.006776	-0.144865	99
47
Properties=species:S:1:pos:R:3:Z:I:1 energy=-305.27077506592724 field_type=dipole dipole="0.000000 0.000000 0.000000" charge=0
C	-0.664197	-1.744744	-1.724303	6
C	-0.672357	-1.228744	-0.293133	6
C	0.228364	-0.006874	-0.144793	6
N	-0.352947	1.229566	-0.744263	7
C	0.168983	2.003386	0.412237	6
C	0.177253	0.700176	1.236277	6
N	1.452034	0.548656	1.944757	7
H	-1.285067	-2.641924	-1.807533	1
H	0.351293	-2.000654	-2.042743	1
H	-1.055207	-0.995074	-2.419003	1
H	-0.312997	-2.025064	0.369747	1
H	-1.702327	-1.003794	0.010317	1
H	1.244443	-0.204594	-0.516123	1
H	-1.372807	1.225086	-0.786043	1
H	1.145043	2.460866	0.207767	1
H	-0.507117	2.783505	0.775557	1
H	-0.721137	0.526946	1.837047	1
H	2.272893	0.764906	1.377507	1
H	1.605853	-0.391624	2.306717	1
Es	-0.432560	0.575121	1.643016	99
Es	-0.130213	0.662977	-0.531705	99
Es	-1.088966	-2.358694	-1.780100	99
Es	-0.969746	1.210514	-0.727710	99
Es	0.031821	-1.918655	-1.936407	99
Es	1.452025	0.548304	1.944331	99
Es	-0.421207	-1.771802	0.165087	99
Es	0.209888	0.261982	0.583881	99
Es	0.228262	-0.006778	-0.144866	99
Es	-0.223820	-0.624772	-0.224324	99
Es	-0.932206	-1.233953	-2.192685	99
Es	-0.664198	-1.744742	-1.724275	99
Es	1.927465	0.663171	1.570962	99
Es	1.463598	0.763106	2.219792	99
Es	0.177395	0.700174	1.236336	99
Es	-0.669268	-1.486107	-1.011522	99
Es	-0.230830	1.326062	-1.068317	99
Es	-1.378148	-1.062230	-0.083734	99
Es	0.844311	2.299142	0.277528	99
Es	-0.353141	1.229414	-0.743724	99
Es	0.168918	2.003298	0.412135	99
Es	1.535009	-0.035143	2.135785	99
Es	0.927947	-0.138605	-0.391803	99
Es	-0.156112	1.617188	-0.260420	99
Es	0.910415	0.585079	1.636824	99
Es	-0.672343	-1.228752	-0.293162	99
Es	0.188474	1.404492	0.907915	99
Es	-0.296389	2.542742	0.658631	99
47
Properties=species:S:1:pos:R:3:Z:I:1 energy=-305.27077506592724 field_type=dipole dipole="0.000000 0.000000 0.000000" charge=0
C	-0.664197	-1.744744	-1.724303	6
C	-0.672357	-1.228744	-0.293133	6
C	0.228364	-0.006874	-0.144793	6
N	-0.352947	1.229566	-0.744263	7
C	0.168983	2.003386	0.412237	6
C	0.177253	0.700176	1.236277	6
N	1.452034	0.548656	1.944757	7
H	-1.285067	-2.641924	-1.807533	1
H	0.351293	-2.000654	-2.042743	1
H	-1.055207	-0.995074	-2.419003	1
H	-0.312997	-2.025064	0.369747	1
H	-1.702327	-1.003794	0.010317	1
H	1.244443	-0.204594	-0.516123	1
H	-1.372807	1.225086	-0.786043	1
H	1.145043	2.460866	0.207767	1
H	-0.507117	2.783505	0.775557	1
H	-0.721137	0.526946	1.837047	1
H	2.272893	0.764906	1.377507	1
H	1.605853	-0.391624	2.306717	1
Es	0.228264	-0.006779	-0.144866	99
Es	-0.969619	1.210513	-0.727448	99
Es	0.188438	1.404582	0.907969	99
Es	-0.353141	1.229416	-0.743724	99
Es	0.177402	0.700175	1.236333	99
Es	-0.669346	-1.486068	-1.011518	99
Es	-1.088930	-2.358768	-1.780139	99
Es	-0.421231	-1.771821	0.165090	99
Es	-0.296349	2.542728	0.658618	99
Es	-1.378067	-1.062248	-0.083727	99
Es	0.209845	0.261976	0.583845	99
Es	-0.223799	-0.624805	-0.224316	99
Es	-0.672350	-1.228754	-0.293162	99
Es	1.452019	0.548318	1.944341	99
Es	-0.156026	1.617139	-0.260406	99
Es	-0.932173	-1.233979	-2.192725	99
Es	0.168916	2.003298	0.412136	99
Es	-0.432488	0.575142	1.642939	99
Es	1.535044	-0.035019	2.135933	99
Es	-0.231237	1.326272	-1.068274	99
Es	0.844301	2.299146	0.277551	99
Es	0.927910	-0.138559	-0.391748	99
Es	1.927305	0.662836	1.570794	99
Es	1.463653	0.763570	2.219911	99
Es	0.031769	-1.918588	-1.936356	99
Es	0.910506	0.584745	1.636772	99
Es	-0.130040	0.662808	-0.532079	99
Es	-0.664197	-1.744742	-1.724275	99
47
Properties=species:S:1:pos:R:3:Z:I:1 energy=-305.27077506592724 field_type=dipole dipole="0.000000 0.000000 0.000000" charge=0
C	-0.664197	-1.744744	-1.724303	6
C	-0.672357	-1.228744	-0.293133	6
C	0.228364	-0.006874	-0.144793	6
N	-0.352947	1.229566	-0.744263	7
C	0.168983	2.003386	0.412237	6
C	0.177253	0.700176	1.236277	6
N	1.452034	0.548656	1.944757	7
H	-1.285067	-2.641924	-1.807533	1
H	0.351293	-2.000654	-2.042743	1
H	-1.055207	-0.995074	-2.419003	1
H	-0.312997	-2.025064	0.369747	1
H	-1.702327	-1.003794	0.010317	1
H	1.244443	-0.204594	-0.516123	1
H	-1.372807	1.225086	-0.786043	1
H	1.145043	2.460866	0.207767	1
H	-0.507117	2.783505	0.775557	1
H	-0.721137	0.526946	1.837047	1
H	2.272893	0.764906	1.377507	1
H	1.605853	-0.391624	2.306717	1
Es	-0.969696	1.210715	-0.727987	99
Es	0.031762	-1.918586	-1.936376	99
Es	0.910245	0.585246	1.636946	99
Es	0.209837	0.261914	0.583864	99
Es	-1.088911	-2.358764	-1.780130	99
Es	-0.421214	-1.771771	0.165093	99
Es	0.844233	2.299121	0.277591	99
Es	0.927866	-0.138581	-0.391743	99
Es	0.177403	0.700175	1.236330	99
Es	1.534999	-0.035178	2.135042	99
Es	-0.296260	2.542750	0.658528	99
Es	-0.672343	-1.228752	-0.293160	99
Es	0.168915	2.003298	0.412138	99
Es	-0.155965	1.617303	-0.260497	99
Es	-1.378073	-1.062265	-0.083699	99
Es	1.463663	0.762538	2.220294	99
Es	-0.223793	-0.624791	-0.224332	99
Es	0.188395	1.404649	0.908119	99
Es	-0.353151	1.229412	-0.743711	99
Es	-0.932163	-1.234072	-2.192751	99
Es	-0.231076	1.325981	-1.067813	99
Es	0.228260	-0.006776	-0.144863	99
Es	-0.669351	-1.486008	-1.011522	99
Es	-0.432429	0.575119	1.642983	99
Es	1.452029	0.548320	1.944330	99
Es	1.927579	0.663511	1.571082	99
Es	-0.130183	0.662766	-0.532011	99
Es	-0.664198	-1.744741	-1.724275	99
47
Properties=species:S:1:pos:R:3:Z:I:1 energy=-305.27077506592724 field_type=dipole dipole="0.000000 0.000000 0.000000" charge=0
C	-0.664197	-1.744744	-1.724303	6
C	-0.672357	-1.228744	-0.293133	6
C	0.228364	-0.006874	-0.144793	6
N	-0.352947	1.229566	-0.744263	7
C	0.168983	2.003386	0.412237	6
C	0.177253	0.700176	1.236277	6
N	1.452034	0.548656	1.944757	7
H	-1.285067	-2.641924	-1.807533	1
H	0.351293	-2.000654	-2.042743	1
H	-1.055207	-0.995074	-2.419003	1
H	-0.312997	-2.025064	0.369747	1
H	-1.702327	-1.003794	0.010317	1
H	1.244443	-0.204594	-0.516123	1
H	-1.372807	1.225086	-0.786043	1
H	1.145043	2.460866	0.207767	1
H	-0.507117	2.783505	0.775557	1
H	-0.721137	0.526946	1.837047	1
H	2.272893	0.764906	1.377507	1
H	1.605853	-0.391624	2.306717	1
Es	-0.932132	-1.234037	-2.192712	99
Es	-0.432372	0.575187	1.642897	99
Es	-0.672344	-1.228753	-0.293161	99
Es	1.452028	0.548290	1.944308	99
Es	-0.130186	0.662604	-0.532065	99
Es	-1.378002	-1.062283	-0.083688	99
Es	0.031746	-1.918578	-1.936377	99
Es	0.188469	1.404627	0.908144	99
Es	0.168916	2.003298	0.412137	99
Es	0.228260	-0.006776	-0.144864	99
Es	0.844120	2.299157	0.277593	99
Es	1.463828	0.763596	2.219924	99
Es	0.177404	0.700174	1.236333	99
Es	-0.421277	-1.771711	0.165101	99
Es	-0.353143	1.229418	-0.743727	99
Es	-0.969688	1.210809	-0.728277	99
Es	1.927261	0.662682	1.570738	99
Es	-0.231015	1.325959	-1.067548	99
Es	-1.088923	-2.358754	-1.780203	99
Es	0.910382	0.584784	1.636866	99
Es	-0.223747	-0.624808	-0.224222	99
Es	-0.296239	2.542736	0.658545	99
Es	-0.669370	-1.486124	-1.011562	99
Es	0.209850	0.261933	0.583884	99
Es	1.535025	-0.034929	2.135951	99
Es	-0.664198	-1.744741	-1.724275	99
Es	0.927788	-0.138580	-0.391728	99
Es	-0.156063	1.617352	-0.260543	99
47
Properties=species:S:1:pos:R:3:Z:I:1 energy=-305.27077506592724 field_type=dipole dipole="0.000000 0.000000 0.000000" charge=0
C	-0.664197	-1.744744	-1.724303	6
C	-0.672357	-1.228744	-0.293133	6
C	0.228364	-0.006874	-0.144793	6
N	-0.352947	1.229566	-0.744263	7
C	0.168983	2.003386	0.412237	6
C	0.177253	0.700176	1.236277	6
N	1.452034	0.548656	1.944757	7
H	-1.285067	-2.641924	-1.807533	1
H	0.351293	-2.000654	-2.042743	1
H	-1.055207	-0.995074	-2.419003	1
H	-0.312997	-2.025064	0.369747	1
H	-1.702327	-1.003794	0.010317	1
H	1.244443	-0.204594	-0.516123	1
H	-1.372807	1.225086	-0.786043	1
H	1.145043	2.460866	0.207767	1
H	-0.507117	2.783505	0.775557	1
H	-0.721137	0.526946	1.837047	1
H	2.272893	0.764906	1.377507	1
H	1.605853	-0.391624	2.306717	1
Es	1.927180	0.662456	1.570623	99
Es	-0.231351	1.325754	-1.067430	99
Es	-0.421299	-1.771813	0.165095	99
Es	-0.432351	0.575160	1.642861	99
Es	1.452026	0.548275	1.944295	99
Es	0.909947	0.585696	1.637371	99
Es	0.844097	2.299163	0.277603	99
Es	0.031697	-1.918567	-1.936434	99
Es	-0.223722	-0.624827	-0.224235	99
Es	-0.296164	2.542712	0.658524	99
Es	-1.088886	-2.358740	-1.780228	99
Es	-0.130118	0.662666	-0.532110	99
Es	-0.669373	-1.486017	-1.011499	99
Es	-0.353152	1.229414	-0.743724	99
Es	0.209900	0.261818	0.583889	99
Es	0.927759	-0.138577	-0.391719	99
Es	-0.155898	1.617675	-0.260692	99
Es	0.188442	1.404662	0.908197	99
Es	0.177403	0.700176	1.236329	99
Es	-0.664197	-1.744741	-1.724274	99
Es	0.228260	-0.006778	-0.144863	99
Es	-0.672346	-1.228753	-0.293159	99
Es	-0.932149	-1.234076	-2.192710	99
Es	-1.377962	-1.062249	-0.083704	99
Es	1.464668	0.763028	2.220631	99
Es	0.168917	2.003298	0.412137	99
Es	1.534672	-0.035036	2.134896	99
Es	-0.969619	1.210753	-0.728200	99
