41
Properties=species:S:1:pos:R:3:Z:I:1 energy=-302.9358906263365 field_type=dipole dipole="0.000000 0.000000 0.000000" charge=0
C	-1.816635	-1.825236	-0.065691	6
C	-0.480795	-1.764186	-0.099001	6
C	0.289135	-0.512276	0.049609	6
N	1.587245	-0.486576	0.067559	7
N	1.937455	0.808204	0.265689	7
C	0.843875	1.718724	-0.047281	6
C	-0.362855	0.834854	0.199199	6
H	-2.318895	-2.781766	-0.175981	1
H	-2.445265	-0.953376	0.075699	1
H	0.116705	-2.661066	-0.230871	1
H	2.811395	1.051904	-0.202131	1
H	0.891315	2.021784	-1.099271	1
H	0.848805	2.611814	0.582959	1
H	-1.151535	0.999424	-0.537951	1
H	-0.749955	0.937774	1.217469	1
Es	-1.153061	-1.733097	-0.401423	99
Es	-2.163095	-2.468320	-0.140261	99
Es	0.219801	1.302518	0.079241	99
Es	1.960139	0.786793	0.582818	99
Es	0.974960	-0.482920	-0.237167	99
Es	-0.362811	0.834828	0.199190	99
Es	-0.099990	-1.135306	-0.021375	99
Es	-0.078621	-2.366382	-0.188692	99
Es	-0.480682	-1.764121	-0.098997	99
Es	1.586864	-0.486094	0.067611	99
Es	0.851613	2.329350	0.379993	99
Es	2.452566	0.949690	-0.036530	99
Es	1.937268	0.808048	0.265026	99
Es	1.467852	1.204531	0.099735	99
Es	-2.243072	-1.234710	0.029234	99
Es	-0.898738	0.943145	-0.295965	99
Es	-1.133731	-1.819143	0.237705	99
Es	0.873863	1.925615	-0.773964	99
Es	0.289100	-0.512298	0.049625	99
Es	-1.816730	-1.825237	-0.065690	99
Es	-0.621909	0.900752	0.885948	99
Es	-0.070096	0.152212	0.118755	99
Es	1.848237	-0.751742	0.037826	99
Es	0.843952	1.718619	-0.047250	99
Es	0.978749	-0.546157	0.334031	99
Es	1.750569	0.180944	0.123386	99
41
Properties=species:S:1:pos:R:3:Z:I:1 energy=-302.9358906263365 field_type=dipole dipole="0.000000 0.000000 0.000000" charge=0
C	-1.816635	-1.825236	-0.065691	6
C	-0.480795	-1.764186	-0.099001	6
C	0.289135	-0.512276	0.049609	6
N	1.587245	-0.486576	0.067559	7
N	1.937455	0.808204	0.265689	7
C	0.843875	1.718724	-0.047281	6
C	-0.362855	0.834854	0.199199	6
H	-2.318895	-2.781766	-0.175981	1
H	-2.445265	-0.953376	0.075699	1
H	0.116705	-2.661066	-0.230871	1
H	2.811395	1.051904	-0.202131	1
H	0.891315	2.021784	-1.099271	1
H	0.848805	2.611814	0.582959	1
H	-1.151535	0.999424	-0.537951	1
H	-0.749955	0.937774	1.217469	1
Es	1.847864	-0.751854	0.037747	99
Es	-0.621954	0.900754	0.885830	99
Es	0.978748	-0.546166	0.333815	99
Es	1.960214	0.786953	0.582959	99
Es	0.873990	1.925760	-0.773954	99
Es	0.219607	1.302722	0.079307	99
Es	-1.153051	-1.733108	-0.401443	99
Es	-2.163194	-2.468261	-0.140199	99
Es	-0.078620	-2.366439	-0.188739	99
Es	0.851830	2.329195	0.379947	99
Es	-0.898721	0.943123	-0.295939	99
Es	-0.070172	0.152194	0.118758	99
Es	-0.362812	0.834828	0.199189	99
Es	1.467748	1.204281	0.099623	99
Es	-0.099923	-1.135357	-0.021462	99
Es	1.586858	-0.486088	0.067609	99
Es	2.452483	0.949762	-0.036570	99
Es	-0.480679	-1.764122	-0.098997	99
Es	0.843953	1.718619	-0.047249	99
Es	-2.242985	-1.234776	0.029229	99
Es	-1.133721	-1.819095	0.237808	99
Es	0.289098	-0.512298	0.049625	99
Es	1.750965	0.180956	0.123555	99
Es	0.974957	-0.482847	-0.236943	99
Es	-1.816730	-1.825236	-0.065693	99
Es	1.937244	0.808017	0.264994	99
41
Properties=species:S:1:pos:R:3:Z:I:1 energy=-302.9358906263365 field_type=dipole dipole="0.000000 0.000000 0.000000" charge=0
C	-1.816635	-1.825236	-0.065691	6
C	-0.480795	-1.764186	-0.099001	6
C	0.289135	-0.512276	0.049609	6
N	1.587245	-0.486576	0.067559	7
N	1.937455	0.808204	0.265689	7
C	0.843875	1.718724	-0.047281	6
C	-0.362855	0.834854	0.199199	6
H	-2.318895	-2.781766	-0.175981	1
H	-2.445265	-0.953376	0.075699	1
H	0.116705	-2.661066	-0.230871	1
H	2.811395	1.051904	-0.202131	1
H	0.891315	2.021784	-1.099271	1
H	0.848805	2.611814	0.582959	1
H	-1.151535	0.999424	-0.537951	1
H	-0.749955	0.937774	1.217469	1
Es	0.843952	1.718621	-0.047250	99
Es	-1.153062	-1.733149	-0.401560	99
Es	1.937250	0.808031	0.264982	99
Es	-0.099917	-1.135345	-0.021343	99
Es	-0.362812	0.834828	0.199189	99
Es	0.851812	2.329227	0.379820	99
Es	1.750954	0.181022	0.123442	99
Es	1.586869	-0.486098	0.067613	99
Es	-0.070220	0.152230	0.118653	99
Es	-2.163213	-2.468321	-0.140057	99
Es	1.467959	1.204441	0.099509	99
Es	-0.621926	0.900664	0.885867	99
Es	-1.133707	-1.819062	0.237692	99
Es	2.452841	0.949796	-0.036056	99
Es	-2.242957	-1.234749	0.029140	99
Es	-1.816733	-1.825237	-0.065681	99
Es	0.974917	-0.482957	-0.236955	99
Es	-0.078645	-2.366389	-0.188699	99
Es	-0.898726	0.943154	-0.295821	99
Es	0.219554	1.302719	0.079265	99
Es	1.959870	0.786801	0.582661	99
Es	-0.480698	-1.764120	-0.099020	99
Es	0.289102	-0.512297	0.049622	99
Es	0.978778	-0.546280	0.333856	99
Es	0.874007	1.925716	-0.773847	99
Es	1.847747	-0.751728	0.037788	99
41
Properties=species:S:1:pos:R:3:Z:I:1 energy=-302.9358906263365 field_type=dipole dipole="0.000000 0.000000 0.000000" charge=0
C	-1.816635	-1.825236	-0.065691	6
C	-0.480795	-1.764186	-0.099001	6
C	0.289135	-0.512276	0.049609	6
N	1.587245	-0.486576	0.067559	7
N	1.937455	0.808204	0.265689	7
C	0.843875	1.718724	-0.047281	6
C	-0.362855	0.834854	0.199199	6
H	-2.318895	-2.781766	-0.175981	1
H	-2.445265	-0.953376	0.075699	1
H	0.116705	-2.661066	-0.230871	1
H	2.811395	1.051904	-0.202131	1
H	0.891315	2.021784	-1.099271	1
H	0.848805	2.611814	0.582959	1
H	-1.151535	0.999424	-0.537951	1
H	-0.749955	0.937774	1.217469	1
Es	0.843952	1.718621	-0.047249	99
Es	0.219566	1.302851	0.079301	99
Es	-0.078649	-2.366406	-0.188772	99
Es	0.974978	-0.482982	-0.236705	99
Es	0.289099	-0.512298	0.049627	99
Es	-0.362811	0.834828	0.199189	99
Es	1.586882	-0.486098	0.067612	99
Es	1.959536	0.786069	0.582453	99
Es	-0.099888	-1.135345	-0.021491	99
Es	-2.163215	-2.468301	-0.140225	99
Es	0.978701	-0.546252	0.333738	99
Es	1.467838	1.204571	0.099731	99
Es	1.847438	-0.751788	0.037772	99
Es	-0.621980	0.900627	0.885813	99
Es	-0.070225	0.152354	0.118683	99
Es	1.751252	0.181390	0.122785	99
Es	-1.816729	-1.825236	-0.065690	99
Es	1.937324	0.808094	0.265218	99
Es	2.453176	0.949988	-0.035674	99
Es	-0.480683	-1.764121	-0.099009	99
Es	-1.153044	-1.733085	-0.401366	99
Es	-0.898718	0.943028	-0.295823	99
Es	0.874012	1.925730	-0.773901	99
Es	0.851882	2.329200	0.379825	99
Es	-1.133736	-1.819182	0.237698	99
Es	-2.242958	-1.234738	0.029268	99
41
Properties=species:S:1:pos:R:3:Z:I:1 energy=-302.9358906263365 field_type=dipole dipole="0.000000 0.000000 0.000000" charge=0
C	-1.816635	-1.825236	-0.065691	6
C	-0.480795	-1.764186	-0.099001	6
C	0.289135	-0.512276	0.049609	6
N	1.587245	-0.486576	0.067559	7
N	1.937455	0.808204	0.265689	7
C	0.843875	1.718724	-0.047281	6
C	-0.362855	0.834854	0.199199	6
H	-2.318895	-2.781766	-0.175981	1
H	-2.445265	-0.953376	0.075699	1
H	0.116705	-2.661066	-0.230871	1
H	2.811395	1.051904	-0.202131	1
H	0.891315	2.021784	-1.099271	1
H	0.848805	2.611814	0.582959	1
H	-1.151535	0.999424	-0.537951	1
H	-0.749955	0.937774	1.217469	1
Es	1.751377	0.181089	0.123274	99
Es	-0.362811	0.834828	0.199189	99
Es	-0.070284	0.152334	0.118673	99
Es	1.847384	-0.751722	0.037817	99
Es	0.874010	1.925707	-0.773758	99
Es	-2.243040	-1.234733	0.029185	99
Es	-0.078628	-2.366380	-0.188852	99
Es	0.289094	-0.512298	0.049626	99
Es	1.959858	0.786628	0.582537	99
Es	-0.099896	-1.135340	-0.021484	99
Es	-2.163130	-2.468333	-0.140278	99
Es	1.586863	-0.486090	0.067613	99
Es	0.219568	1.302844	0.079224	99
Es	-1.153074	-1.733103	-0.401241	99
Es	1.937214	0.807992	0.264987	99
Es	0.978721	-0.546291	0.333726	99
Es	0.851829	2.329259	0.379782	99
Es	-0.480679	-1.764122	-0.098997	99
Es	0.843954	1.718618	-0.047249	99
Es	-1.816730	-1.825237	-0.065692	99
Es	-0.898748	0.943060	-0.295751	99
Es	-1.133713	-1.819164	0.237763	99
Es	1.467945	1.204488	0.099470	99
Es	-0.621952	0.900582	0.885760	99
Es	2.452940	0.949916	-0.035784	99
Es	0.974928	-0.483015	-0.236729	99
41
Properties=species:S:1:pos:R:3:Z:I:1 energy=-302.9358906263365 field_type=dipole dipole="0.000000 0.000000 0.000000" charge=0
C	-1.816635	-1.825236	-0.065691	6
C	-0.480795	-1.764186	-0.099001	6
C	0.289135	-0.512276	0.049609	6
N	1.587245	-0.486576	0.067559	7
N	1.937455	0.808204	0.265689	7
C	0.843875	1.718724	-0.047281	6
C	-0.362855	0.834854	0.199199	6
H	-2.318895	-2.781766	-0.175981	1
H	-2.445265	-0.953376	0.075699	1
H	0.116705	-2.661066	-0.230871	1
H	2.811395	1.051904	-0.202131	1
H	0.891315	2.021784	-1.099271	1
H	0.848805	2.611814	0.582959	1
H	-1.151535	0.999424	-0.537951	1
H	-0.749955	0.937774	1.217469	1
Es	-2.242984	-1.234713	0.029239	99
Es	-0.480683	-1.764123	-0.098997	99
Es	1.937228	0.808003	0.264977	99
Es	0.874069	1.925767	-0.773726	99
Es	0.978743	-0.546269	0.333713	99
Es	1.586856	-0.486103	0.067610	99
Es	0.974852	-0.483005	-0.236600	99
Es	0.851904	2.329188	0.379726	99
Es	-0.621882	0.900656	0.885631	99
Es	-0.078615	-2.366458	-0.188772	99
Es	1.847281	-0.751711	0.037732	99
Es	1.467972	1.204634	0.099506	99
Es	-0.898832	0.942958	-0.295672	99
Es	0.289097	-0.512298	0.049620	99
Es	1.751443	0.181097	0.123138	99
Es	-0.362808	0.834825	0.199189	99
Es	0.843952	1.718619	-0.047249	99
Es	-0.099898	-1.135333	-0.021453	99
Es	2.453591	0.950087	-0.035030	99
Es	-0.070364	0.152296	0.118820	99
Es	1.959254	0.786270	0.581875	99
Es	-1.133728	-1.819135	0.237574	99
Es	-1.153054	-1.733111	-0.401254	99
Es	-1.816727	-1.825236	-0.065691	99
Es	0.219511	1.302949	0.079133	99
Es	-2.163181	-2.468334	-0.140230	99
41
Properties=species:S:1:pos:R:3:Z:I:1 energy=-302.9358906263365 field_type=dipole dipole="0.000000 0.000000 0.000000" charge=0
C	-1.816635	-1.825236	-0.065691	6
C	-0.480795	-1.764186	-0.099001	6
C	0.289135	-0.512276	0.049609	6
N	1.587245	-0.486576	0.067559	7
N	1.937455	0.808204	0.265689	7
C	0.843875	1.718724	-0.047281	6
C	-0.362855	0.834854	0.199199	6
H	-2.318895	-2.781766	-0.175981	1
H	-2.445265	-0.953376	0.075699	1
H	0.116705	-2.661066	-0.230871	1
H	2.811395	1.051904	-0.202131	1
H	0.891315	2.021784	-1.099271	1
H	0.848805	2.611814	0.582959	1
H	-1.151535	0.999424	-0.537951	1
H	-0.749955	0.937774	1.217469	1
Es	-1.816728	-1.825236	-0.065690	99
Es	-0.099872	-1.135354	-0.021464	99
Es	1.959015	0.786130	0.581542	99
Es	0.219496	1.302940	0.079186	99
Es	1.586874	-0.486094	0.067614	99
Es	1.937210	0.807973	0.264989	99
Es	2.453888	0.950200	-0.034693	99
Es	-1.133728	-1.819144	0.237528	99
Es	-0.898740	0.943016	-0.295656	99
Es	0.851904	2.329202	0.379697	99
Es	-0.078636	-2.366487	-0.188792	99
Es	1.468026	1.204704	0.099500	99
Es	0.874053	1.925761	-0.773661	99
Es	-2.242951	-1.234687	0.029267	99
Es	-0.621965	0.900534	0.885709	99
Es	-1.153051	-1.733091	-0.401236	99
Es	0.978771	-0.546290	0.333584	99
Es	0.289097	-0.512295	0.049611	99
Es	1.847049	-0.751748	0.037807	99
Es	-0.480684	-1.764126	-0.098996	99
Es	0.974836	-0.483050	-0.236549	99
Es	-0.362811	0.834830	0.199189	99
Es	1.751590	0.181162	0.123152	99
Es	-2.163215	-2.468325	-0.140226	99
Es	0.843951	1.718621	-0.047249	99
Es	-0.070381	0.152373	0.118646	99
41
Properties=species:S:1:pos:R:3:Z:I:1 energy=-302.9358906263365 field_type=dipole dipole="0.000000 0.000000 0.000000" charge=0
C	-1.816635	-1.825236	-0.065691	6
C	-0.480795	-1.764186	-0.099001	6
C	0.289135	-0.512276	0.049609	6
N	1.587245	-0.486576	0.067559	7
N	1.937455	0.808204	0.265689	7
C	0.843875	1.718724	-0.047281	6
C	-0.362855	0.834854	0.199199	6
H	-2.318895	-2.781766	-0.175981	1
H	-2.445265	-0.953376	0.075699	1
H	0.116705	-2.661066	-0.230871	1
H	2.811395	1.051904	-0.202131	1
H	0.891315	2.021784	-1.099271	1
H	0.848805	2.611814	0.582959	1
H	-1.151535	0.999424	-0.537951	1
H	-0.749955	0.937774	1.217469	1
Es	-0.898691	0.942971	-0.295625	99
Es	1.751836	0.181528	0.122162	99
Es	-0.078653	-2.366446	-0.188741	99
Es	-0.362809	0.834828	0.199188	99
Es	0.978768	-0.546310	0.333564	99
Es	-0.070400	0.152341	0.118712	99
Es	-1.816728	-1.825236	-0.065690	99
Es	1.468085	1.204858	0.099610	99
Es	-2.242979	-1.234725	0.029180	99
Es	1.586866	-0.486096	0.067612	99
Es	0.874035	1.925709	-0.773580	99
Es	0.843952	1.718621	-0.047250	99
Es	2.454466	0.950535	-0.033825	99
Es	0.974818	-0.483090	-0.236393	99
Es	-0.099820	-1.135379	-0.021574	99
Es	1.937314	0.808085	0.265120	99
Es	-0.622041	0.900550	0.885600	99
Es	-0.480684	-1.764123	-0.098997	99
Es	-1.153053	-1.733160	-0.401231	99
Es	-2.163193	-2.468317	-0.140252	99
Es	1.846827	-0.751695	0.037741	99
Es	-1.133728	-1.819107	0.237686	99
Es	0.851957	2.329262	0.379652	99
Es	0.219447	1.303023	0.079210	99
Es	0.289099	-0.512297	0.049626	99
Es	1.958307	0.785188	0.581303	99
41
Properties=species:S:1:pos:R:3:Z:I:1 energy=-302.9358906263365 field_type=dipole dipole="0.000000 0.000000 0.000000" charge=0
C	-1.816635	-1.825236	-0.065691	6
C	-0.480795	-1.764186	-0.099001	6
C	0.289135	-0.512276	0.049609	6
N	1.587245	-0.486576	0.067559	7
N	1.937455	0.808204	0.265689	7
C	0.843875	1.718724	-0.047281	6
C	-0.362855	0.834854	0.199199	6
H	-2.318895	-2.781766	-0.175981	1
H	-2.445265	-0.953376	0.075699	1
H	0.116705	-2.661066	-0.230871	1
H	2.811395	1.051904	-0.202131	1
H	0.891315	2.021784	-1.099271	1
H	0.848805	2.611814	0.582959	1
H	-1.151535	0.999424	-0.537951	1
H	-0.749955	0.937774	1.217469	1
Es	0.978720	-0.546460	0.333665	99
Es	-0.480683	-1.764123	-0.098997	99
Es	0.289102	-0.512297	0.049625	99
Es	0.974886	-0.483144	-0.236426	99
Es	1.958441	0.785691	0.581569	99
Es	0.874061	1.925775	-0.773574	99
Es	0.843951	1.718621	-0.047250	99
Es	1.846664	-0.751463	0.037727	99
Es	-0.099784	-1.135392	-0.021540	99
Es	2.454339	0.950368	-0.033943	99
Es	-2.163191	-2.468348	-0.140247	99
Es	-2.242973	-1.234676	0.029243	99
Es	1.586867	-0.486135	0.067605	99
Es	1.751976	0.181406	0.122637	99
Es	1.937265	0.808048	0.265019	99
Es	-0.070451	0.152405	0.118652	99
Es	-1.816727	-1.825236	-0.065690	99
Es	-0.898741	0.942957	-0.295589	99
Es	-0.621993	0.900503	0.885606	99
Es	-1.133729	-1.819105	0.237509	99
Es	1.468151	1.204689	0.099135	99
Es	0.219403	1.303064	0.079205	99
Es	-0.078662	-2.366514	-0.188787	99
Es	-1.153054	-1.733118	-0.401132	99
Es	-0.362811	0.834828	0.199189	99
Es	0.851972	2.329175	0.379597	99
41
Properties=species:S:1:pos:R:3:Z:I:1 energy=-302.9358906263365 field_type=dipole dipole="0.000000 0.000000 0.000000" charge=0
C	-1.816635	-1.825236	-0.065691	6
C	-0.480795	-1.764186	-0.099001	6
C	0.289135	-0.512276	0.049609	6
N	1.587245	-0.486576	0.067559	7
N	1.937455	0.808204	0.265689	7
C	0.843875	1.718724	-0.047281	6
C	-0.362855	0.834854	0.199199	6
H	-2.318895	-2.781766	-0.175981	1
H	-2.445265	-0.953376	0.075699	1
H	0.116705	-2.661066	-0.230871	1
H	2.811395	1.051904	-0.202131	1
H	0.891315	2.021784	-1.099271	1
H	0.848805	2.611814	0.582959	1
H	-1.151535	0.999424	-0.537951	1
H	-0.749955	0.937774	1.217469	1
Es	-0.480684	-1.764123	-0.098997	99
Es	0.851992	2.329156	0.379558	99
Es	0.978685	-0.546351	0.333484	99
Es	1.752006	0.181412	0.122602	99
Es	-0.362811	0.834828	0.199189	99
Es	-0.622005	0.900479	0.885572	99
Es	0.219374	1.303106	0.079197	99
Es	0.289101	-0.512297	0.049623	99
Es	-1.816727	-1.825236	-0.065691	99
Es	1.468209	1.204725	0.099042	99
Es	-0.070491	0.152435	0.118641	99
Es	-0.099760	-1.135409	-0.021559	99
Es	1.937245	0.808023	0.264996	99
Es	-1.153053	-1.733118	-0.401074	99
Es	1.958211	0.785610	0.581356	99
Es	2.454588	0.950443	-0.033590	99
Es	0.843951	1.718621	-0.047250	99
Es	-2.163192	-2.468365	-0.140254	99
Es	1.846659	-0.751676	0.037670	99
Es	-2.242966	-1.234664	0.029243	99
Es	-1.133731	-1.819095	0.237462	99
Es	1.586877	-0.486098	0.067614	99
Es	0.874070	1.925791	-0.773531	99
Es	-0.078667	-2.366534	-0.188793	99
Es	-0.898739	0.942934	-0.295553	99
Es	0.974857	-0.483080	-0.236150	99
