45
Properties=species:S:1:pos:R:3:Z:I:1 energy=-288.0948134018891 field_type=dipole dipole="0.000000 0.000000 0.000000" charge=0
C	-2.962938	0.232839	0.425264	6
C	-1.478488	0.076739	0.385674	6
C	-0.771298	-0.085581	-0.744256	6
C	0.702842	-0.237821	-0.767606	6
C	1.555252	0.887069	-0.143806	6
C	2.413322	-0.268631	0.402604	6
N	1.218272	-1.135661	0.294064	7
H	-3.224628	1.191119	0.884204	1
H	-3.405958	-0.568401	1.024564	1
H	-3.409858	0.199099	-0.573416	1
H	-0.970288	0.090239	1.348064	1
H	-1.276638	-0.105231	-1.705756	1
H	1.053332	-0.525081	-1.768966	1
H	1.070722	1.484749	0.637314	1
H	2.055282	1.558149	-0.847256	1
H	3.236972	-0.567801	-0.256176	1
H	2.795092	-0.137271	1.418254	1
H	1.399012	-2.088521	-0.012766	1
Es	0.702886	-0.237882	-0.767492	99
Es	2.054575	0.372492	0.151206	99
Es	-2.222664	0.155248	0.399261	99
Es	0.968175	-0.800531	-0.199706	99
Es	-3.255277	-0.309537	0.832436	99
Es	-1.084199	0.320888	-0.219259	99
Es	1.555271	0.887010	-0.143819	99
Es	-0.771239	-0.085580	-0.744353	99
Es	-3.263104	0.209557	-0.256353	99
Es	1.018453	-1.108032	0.585575	99
Es	2.684265	-0.182210	1.102625	99
Es	2.413196	-0.268696	0.402574	99
Es	-3.132168	0.881167	0.737686	99
Es	1.897285	1.350369	-0.628124	99
Es	1.219991	1.281554	0.388158	99
Es	-1.478583	0.076758	0.385760	99
Es	1.218660	-1.135667	0.293538	99
Es	1.073479	0.392689	-0.503023	99
Es	1.340379	-1.711305	0.091018	99
Es	0.950110	-0.433362	-1.459771	99
Es	-1.143514	0.092498	1.040203	99
Es	-1.150172	-0.331843	-0.175411	99
Es	-2.962904	0.232838	0.425270	99
Es	-1.114994	-0.096863	-1.405417	99
Es	-0.042647	-0.161615	-0.764261	99
Es	1.782655	-0.820274	0.355359	99
Es	2.978649	-0.473435	-0.060195	99
45
Properties=species:S:1:pos:R:3:Z:I:1 energy=-288.0948134018891 field_type=dipole dipole="0.000000 0.000000 0.000000" charge=0
C	-2.962938	0.232839	0.425264	6
C	-1.478488	0.076739	0.385674	6
C	-0.771298	-0.085581	-0.744256	6
C	0.702842	-0.237821	-0.767606	6
C	1.555252	0.887069	-0.143806	6
C	2.413322	-0.268631	0.402604	6
N	1.218272	-1.135661	0.294064	7
H	-3.224628	1.191119	0.884204	1
H	-3.405958	-0.568401	1.024564	1
H	-3.409858	0.199099	-0.573416	1
H	-0.970288	0.090239	1.348064	1
H	-1.276638	-0.105231	-1.705756	1
H	1.053332	-0.525081	-1.768966	1
H	1.070722	1.484749	0.637314	1
H	2.055282	1.558149	-0.847256	1
H	3.236972	-0.567801	-0.256176	1
H	2.795092	-0.137271	1.418254	1
H	1.399012	-2.088521	-0.012766	1
Es	1.018516	-1.108268	0.585388	99
Es	-1.084148	0.320647	-0.219247	99
Es	1.897208	1.350394	-0.628049	99
Es	0.968052	-0.800501	-0.199622	99
Es	-1.114963	-0.096610	-1.405388	99
Es	2.978598	-0.473410	-0.060086	99
Es	-3.263146	0.209591	-0.256350	99
Es	1.073464	0.392720	-0.503098	99
Es	-0.771238	-0.085580	-0.744358	99
Es	1.340367	-1.711239	0.090868	99
Es	-2.222743	0.155393	0.399196	99
Es	-1.143382	0.092535	1.040214	99
Es	2.684303	-0.182319	1.102526	99
Es	1.218619	-1.135652	0.293595	99
Es	2.413193	-0.268697	0.402574	99
Es	-0.042650	-0.161759	-0.764390	99
Es	-3.255153	-0.309624	0.832374	99
Es	-3.132231	0.881134	0.737803	99
Es	-1.478584	0.076755	0.385762	99
Es	1.782768	-0.820313	0.355543	99
Es	-2.962904	0.232838	0.425270	99
Es	1.219998	1.281533	0.387975	99
Es	1.555270	0.887010	-0.143817	99
Es	0.702884	-0.237882	-0.767493	99
Es	0.950112	-0.433339	-1.459642	99
Es	-1.150335	-0.331824	-0.175420	99
Es	2.054689	0.372703	0.151358	99
45
Properties=species:S:1:pos:R:3:Z:I:1 energy=-288.0948134018891 field_type=dipole dipole="0.000000 0.000000 0.000000" charge=0
C	-2.962938	0.232839	0.425264	6
C	-1.478488	0.076739	0.385674	6
C	-0.771298	-0.085581	-0.744256	6
C	0.702842	-0.237821	-0.767606	6
C	1.555252	0.887069	-0.143806	6
C	2.413322	-0.268631	0.402604	6
N	1.218272	-1.135661	0.294064	7
H	-3.224628	1.191119	0.884204	1
H	-3.405958	-0.568401	1.024564	1
H	-3.409858	0.199099	-0.573416	1
H	-0.970288	0.090239	1.348064	1
H	-1.276638	-0.105231	-1.705756	1
H	1.053332	-0.525081	-1.768966	1
H	1.070722	1.484749	0.637314	1
H	2.055282	1.558149	-0.847256	1
H	3.236972	-0.567801	-0.256176	1
H	2.795092	-0.137271	1.418254	1
H	1.399012	-2.088521	-0.012766	1
Es	1.018524	-1.107856	0.585232	99
Es	1.340203	-1.711429	0.091427	99
Es	0.950037	-0.433403	-1.459714	99
Es	2.413193	-0.268697	0.402574	99
Es	1.073496	0.392705	-0.503221	99
Es	-0.771238	-0.085586	-0.744353	99
Es	-1.143421	0.092417	1.040226	99
Es	-1.150132	-0.331512	-0.175389	99
Es	1.897134	1.350280	-0.627961	99
Es	-3.255222	-0.309632	0.832434	99
Es	2.978551	-0.473411	-0.060053	99
Es	1.555269	0.887007	-0.143818	99
Es	1.782725	-0.820340	0.355484	99
Es	0.968099	-0.800753	-0.199842	99
Es	-3.132243	0.881129	0.737691	99
Es	-1.478582	0.076754	0.385760	99
Es	-2.962905	0.232838	0.425270	99
Es	-0.042497	-0.161484	-0.764285	99
Es	-1.115044	-0.096948	-1.405418	99
Es	-3.263101	0.209572	-0.256315	99
Es	-1.084233	0.320701	-0.219269	99
Es	1.219974	1.281641	0.387935	99
Es	2.684351	-0.182292	1.102487	99
Es	-2.222766	0.155361	0.399161	99
Es	2.054873	0.372706	0.151361	99
Es	0.702885	-0.237882	-0.767493	99
Es	1.218633	-1.135648	0.293576	99
45
Properties=species:S:1:pos:R:3:Z:I:1 energy=-288.0948134018891 field_type=dipole dipole="0.000000 0.000000 0.000000" charge=0
C	-2.962938	0.232839	0.425264	6
C	-1.478488	0.076739	0.385674	6
C	-0.771298	-0.085581	-0.744256	6
C	0.702842	-0.237821	-0.767606	6
C	1.555252	0.887069	-0.143806	6
C	2.413322	-0.268631	0.402604	6
N	1.218272	-1.135661	0.294064	7
H	-3.224628	1.191119	0.884204	1
H	-3.405958	-0.568401	1.024564	1
H	-3.409858	0.199099	-0.573416	1
H	-0.970288	0.090239	1.348064	1
H	-1.276638	-0.105231	-1.705756	1
H	1.053332	-0.525081	-1.768966	1
H	1.070722	1.484749	0.637314	1
H	2.055282	1.558149	-0.847256	1
H	3.236972	-0.567801	-0.256176	1
H	2.795092	-0.137271	1.418254	1
H	1.399012	-2.088521	-0.012766	1
Es	1.218624	-1.135652	0.293585	99
Es	0.968016	-0.800754	-0.199846	99
Es	-1.478581	0.076755	0.385759	99
Es	-1.084349	0.320485	-0.219333	99
Es	-1.150000	-0.331294	-0.175318	99
Es	0.950014	-0.433299	-1.459698	99
Es	1.073341	0.392800	-0.503190	99
Es	2.684301	-0.182402	1.102374	99
Es	-3.132245	0.881163	0.737856	99
Es	-2.962904	0.232838	0.425269	99
Es	-2.222866	0.155250	0.399027	99
Es	-1.143349	0.092505	1.040170	99
Es	-3.255090	-0.309646	0.832343	99
Es	2.413197	-0.268697	0.402574	99
Es	1.220025	1.281558	0.387898	99
Es	2.054909	0.372852	0.151438	99
Es	1.897090	1.350366	-0.627959	99
Es	1.555270	0.887011	-0.143817	99
Es	0.702884	-0.237881	-0.767494	99
Es	1.782912	-0.820488	0.355586	99
Es	-0.771241	-0.085584	-0.744352	99
Es	-0.042394	-0.161487	-0.764157	99
Es	-3.263235	0.209596	-0.256241	99
Es	2.978589	-0.473357	-0.059961	99
Es	-1.115058	-0.097077	-1.405544	99
Es	1.340067	-1.711301	0.091435	99
Es	1.018637	-1.108021	0.585080	99
45
Properties=species:S:1:pos:R:3:Z:I:1 energy=-288.0948134018891 field_type=dipole dipole="0.000000 0.000000 0.000000" charge=0
C	-2.962938	0.232839	0.425264	6
C	-1.478488	0.076739	0.385674	6
C	-0.771298	-0.085581	-0.744256	6
C	0.702842	-0.237821	-0.767606	6
C	1.555252	0.887069	-0.143806	6
C	2.413322	-0.268631	0.402604	6
N	1.218272	-1.135661	0.294064	7
H	-3.224628	1.191119	0.884204	1
H	-3.405958	-0.568401	1.024564	1
H	-3.409858	0.199099	-0.573416	1
H	-0.970288	0.090239	1.348064	1
H	-1.276638	-0.105231	-1.705756	1
H	1.053332	-0.525081	-1.768966	1
H	1.070722	1.484749	0.637314	1
H	2.055282	1.558149	-0.847256	1
H	3.236972	-0.567801	-0.256176	1
H	2.795092	-0.137271	1.418254	1
H	1.399012	-2.088521	-0.012766	1
Es	-1.115054	-0.096791	-1.405386	99
Es	1.897043	1.350338	-0.627872	99
Es	-1.084221	0.320380	-0.219208	99
Es	-1.478583	0.076748	0.385760	99
Es	1.339906	-1.711349	0.091662	99
Es	-3.255173	-0.309666	0.832349	99
Es	1.073394	0.392883	-0.503332	99
Es	1.782984	-0.820473	0.355622	99
Es	0.949953	-0.433285	-1.459577	99
Es	-2.962905	0.232838	0.425270	99
Es	1.555269	0.887012	-0.143818	99
Es	-2.222911	0.155411	0.399102	99
Es	-1.143335	0.092472	1.040192	99
Es	2.978529	-0.473397	-0.059993	99
Es	0.967736	-0.800831	-0.199841	99
Es	2.684384	-0.182444	1.102309	99
Es	-0.042317	-0.161660	-0.764390	99
Es	-3.263121	0.209629	-0.256327	99
Es	-3.132270	0.881097	0.737801	99
Es	2.413195	-0.268697	0.402573	99
Es	-1.150165	-0.331374	-0.175408	99
Es	1.220000	1.281575	0.387860	99
Es	0.702885	-0.237881	-0.767493	99
Es	-0.771241	-0.085582	-0.744351	99
Es	2.055007	0.372909	0.151491	99
Es	1.018943	-1.107975	0.584914	99
Es	1.218630	-1.135653	0.293574	99
45
Properties=species:S:1:pos:R:3:Z:I:1 energy=-288.0948134018891 field_type=dipole dipole="0.000000 0.000000 0.000000" charge=0
C	-2.962938	0.232839	0.425264	6
C	-1.478488	0.076739	0.385674	6
C	-0.771298	-0.085581	-0.744256	6
C	0.702842	-0.237821	-0.767606	6
C	1.555252	0.887069	-0.143806	6
C	2.413322	-0.268631	0.402604	6
N	1.218272	-1.135661	0.294064	7
H	-3.224628	1.191119	0.884204	1
H	-3.405958	-0.568401	1.024564	1
H	-3.409858	0.199099	-0.573416	1
H	-0.970288	0.090239	1.348064	1
H	-1.276638	-0.105231	-1.705756	1
H	1.053332	-0.525081	-1.768966	1
H	1.070722	1.484749	0.637314	1
H	2.055282	1.558149	-0.847256	1
H	3.236972	-0.567801	-0.256176	1
H	2.795092	-0.137271	1.418254	1
H	1.399012	-2.088521	-0.012766	1
Es	-3.263136	0.209605	-0.256261	99
Es	0.967885	-0.800929	-0.200258	99
Es	1.897001	1.350346	-0.627742	99
Es	-2.222990	0.155365	0.399152	99
Es	-2.962906	0.232836	0.425270	99
Es	-1.150094	-0.331227	-0.175368	99
Es	1.218627	-1.135653	0.293583	99
Es	-1.478581	0.076749	0.385766	99
Es	2.978500	-0.473418	-0.059825	99
Es	1.220039	1.281558	0.387871	99
Es	-3.132247	0.881149	0.737765	99
Es	-1.115117	-0.096888	-1.405401	99
Es	-0.771240	-0.085583	-0.744350	99
Es	1.073319	0.392915	-0.503346	99
Es	0.702884	-0.237882	-0.767492	99
Es	1.782922	-0.820636	0.355938	99
Es	2.413194	-0.268695	0.402573	99
Es	1.555273	0.887010	-0.143822	99
Es	1.018727	-1.108157	0.584857	99
Es	2.055123	0.372981	0.151322	99
Es	-1.143211	0.092466	1.040094	99
Es	-0.042293	-0.161693	-0.764376	99
Es	1.340032	-1.711118	0.091736	99
Es	2.684373	-0.182385	1.102257	99
Es	-3.255190	-0.309655	0.832373	99
Es	-1.084241	0.320339	-0.219222	99
Es	0.949909	-0.433165	-1.459610	99
45
Properties=species:S:1:pos:R:3:Z:I:1 energy=-288.0948134018891 field_type=dipole dipole="0.000000 0.000000 0.000000" charge=0
C	-2.962938	0.232839	0.425264	6
C	-1.478488	0.076739	0.385674	6
C	-0.771298	-0.085581	-0.744256	6
C	0.702842	-0.237821	-0.767606	6
C	1.555252	0.887069	-0.143806	6
C	2.413322	-0.268631	0.402604	6
N	1.218272	-1.135661	0.294064	7
H	-3.224628	1.191119	0.884204	1
H	-3.405958	-0.568401	1.024564	1
H	-3.409858	0.199099	-0.573416	1
H	-0.970288	0.090239	1.348064	1
H	-1.276638	-0.105231	-1.705756	1
H	1.053332	-0.525081	-1.768966	1
H	1.070722	1.484749	0.637314	1
H	2.055282	1.558149	-0.847256	1
H	3.236972	-0.567801	-0.256176	1
H	2.795092	-0.137271	1.418254	1
H	1.399012	-2.088521	-0.012766	1
Es	-0.042170	-0.161893	-0.764498	99
Es	2.684338	-0.182438	1.102140	99
Es	1.218608	-1.135647	0.293597	99
Es	1.339809	-1.711242	0.091806	99
Es	-0.771242	-0.085595	-0.744349	99
Es	0.949855	-0.433234	-1.459529	99
Es	2.055162	0.373133	0.151568	99
Es	-1.150038	-0.331065	-0.175386	99
Es	-1.478578	0.076752	0.385766	99
Es	2.413197	-0.268694	0.402574	99
Es	-3.255185	-0.309691	0.832294	99
Es	-3.132273	0.881132	0.737838	99
Es	1.783159	-0.820561	0.356114	99
Es	-3.263110	0.209659	-0.256279	99
Es	0.967578	-0.800875	-0.199971	99
Es	-1.115216	-0.096812	-1.405363	99
Es	-2.962906	0.232837	0.425269	99
Es	1.073178	0.392988	-0.503333	99
Es	1.896945	1.350186	-0.627832	99
Es	-2.223024	0.155325	0.399060	99
Es	-1.084161	0.320256	-0.219122	99
Es	0.702885	-0.237881	-0.767493	99
Es	1.555271	0.887011	-0.143817	99
Es	1.220140	1.281732	0.387665	99
Es	2.978548	-0.473402	-0.059800	99
Es	-1.143274	0.092473	1.040146	99
Es	1.019068	-1.108219	0.584421	99
45
Properties=species:S:1:pos:R:3:Z:I:1 energy=-288.0948134018891 field_type=dipole dipole="0.000000 0.000000 0.000000" charge=0
C	-2.962938	0.232839	0.425264	6
C	-1.478488	0.076739	0.385674	6
C	-0.771298	-0.085581	-0.744256	6
C	0.702842	-0.237821	-0.767606	6
C	1.555252	0.887069	-0.143806	6
C	2.413322	-0.268631	0.402604	6
N	1.218272	-1.135661	0.294064	7
H	-3.224628	1.191119	0.884204	1
H	-3.405958	-0.568401	1.024564	1
H	-3.409858	0.199099	-0.573416	1
H	-0.970288	0.090239	1.348064	1
H	-1.276638	-0.105231	-1.705756	1
H	1.053332	-0.525081	-1.768966	1
H	1.070722	1.484749	0.637314	1
H	2.055282	1.558149	-0.847256	1
H	3.236972	-0.567801	-0.256176	1
H	2.795092	-0.137271	1.418254	1
H	1.399012	-2.088521	-0.012766	1
Es	-2.223089	0.155251	0.399000	99
Es	-1.143096	0.092491	1.040197	99
Es	1.218584	-1.135651	0.293638	99
Es	1.339475	-1.711428	0.092261	99
Es	2.978489	-0.473401	-0.059683	99
Es	-1.478581	0.076756	0.385757	99
Es	-1.115235	-0.096899	-1.405358	99
Es	1.555271	0.887015	-0.143816	99
Es	0.967652	-0.801046	-0.200132	99
Es	1.896945	1.350370	-0.627701	99
Es	1.783309	-0.820745	0.356056	99
Es	-3.255161	-0.309665	0.832328	99
Es	2.684366	-0.182425	1.102105	99
Es	-0.042056	-0.161765	-0.764480	99
Es	-3.263120	0.209573	-0.256230	99
Es	2.055220	0.373093	0.151445	99
Es	-2.962904	0.232838	0.425270	99
Es	-0.771241	-0.085586	-0.744351	99
Es	-1.150028	-0.330816	-0.175335	99
Es	1.220168	1.281532	0.387654	99
Es	-1.084320	0.320052	-0.219209	99
Es	0.949805	-0.433237	-1.459508	99
Es	1.019169	-1.107816	0.584178	99
Es	-3.132292	0.881201	0.737793	99
Es	0.702885	-0.237880	-0.767493	99
Es	2.413195	-0.268694	0.402574	99
Es	1.073154	0.393117	-0.503473	99
45
Properties=species:S:1:pos:R:3:Z:I:1 energy=-288.0948134018891 field_type=dipole dipole="0.000000 0.000000 0.000000" charge=0
C	-2.962938	0.232839	0.425264	6
C	-1.478488	0.076739	0.385674	6
C	-0.771298	-0.085581	-0.744256	6
C	0.702842	-0.237821	-0.767606	6
C	1.555252	0.887069	-0.143806	6
C	2.413322	-0.268631	0.402604	6
N	1.218272	-1.135661	0.294064	7
H	-3.224628	1.191119	0.884204	1
H	-3.405958	-0.568401	1.024564	1
H	-3.409858	0.199099	-0.573416	1
H	-0.970288	0.090239	1.348064	1
H	-1.276638	-0.105231	-1.705756	1
H	1.053332	-0.525081	-1.768966	1
H	1.070722	1.484749	0.637314	1
H	2.055282	1.558149	-0.847256	1
H	3.236972	-0.567801	-0.256176	1
H	2.795092	-0.137271	1.418254	1
H	1.399012	-2.088521	-0.012766	1
Es	2.055328	0.373183	0.151432	99
Es	1.073142	0.393178	-0.503494	99
Es	-1.143141	0.092511	1.040137	99
Es	2.413194	-0.268694	0.402573	99
Es	1.783227	-0.820710	0.356159	99
Es	-0.771244	-0.085586	-0.744346	99
Es	0.967817	-0.801181	-0.200161	99
Es	-1.478580	0.076754	0.385749	99
Es	1.555271	0.887010	-0.143818	99
Es	0.949768	-0.433187	-1.459513	99
Es	0.702884	-0.237880	-0.767494	99
Es	-3.255276	-0.309695	0.832429	99
Es	1.339795	-1.711065	0.091956	99
Es	2.684439	-0.182510	1.102038	99
Es	1.896834	1.350299	-0.627680	99
Es	-1.084273	0.320016	-0.219195	99
Es	2.978426	-0.473363	-0.059680	99
Es	-2.962905	0.232838	0.425270	99
Es	-3.132148	0.881188	0.737711	99
Es	-2.223112	0.155289	0.398941	99
Es	1.220136	1.281598	0.387711	99
Es	-1.150034	-0.330935	-0.175304	99
Es	-3.263141	0.209657	-0.256176	99
Es	-0.041997	-0.161777	-0.764452	99
Es	1.018740	-1.108175	0.584481	99
Es	-1.115215	-0.096876	-1.405379	99
Es	1.218630	-1.135652	0.293590	99
45
Properties=species:S:1:pos:R:3:Z:I:1 energy=-288.0948134018891 field_type=dipole dipole="0.000000 0.000000 0.000000" charge=0
C	-2.962938	0.232839	0.425264	6
C	-1.478488	0.076739	0.385674	6
C	-0.771298	-0.085581	-0.744256	6
C	0.702842	-0.237821	-0.767606	6
C	1.555252	0.887069	-0.143806	6
C	2.413322	-0.268631	0.402604	6
N	1.218272	-1.135661	0.294064	7
H	-3.224628	1.191119	0.884204	1
H	-3.405958	-0.568401	1.024564	1
H	-3.409858	0.199099	-0.573416	1
H	-0.970288	0.090239	1.348064	1
H	-1.276638	-0.105231	-1.705756	1
H	1.053332	-0.525081	-1.768966	1
H	1.070722	1.484749	0.637314	1
H	2.055282	1.558149	-0.847256	1
H	3.236972	-0.567801	-0.256176	1
H	2.795092	-0.137271	1.418254	1
H	1.399012	-2.088521	-0.012766	1
Es	1.555271	0.887009	-0.143818	99
Es	0.702883	-0.237881	-0.767497	99
Es	1.019602	-1.107976	0.583685	99
Es	-0.041943	-0.161874	-0.764430	99
Es	1.073059	0.393274	-0.503598	99
Es	-1.150024	-0.330627	-0.175357	99
Es	0.949733	-0.433200	-1.459442	99
Es	1.896798	1.350326	-0.627594	99
Es	1.220191	1.281566	0.387595	99
Es	-2.223220	0.155419	0.398960	99
Es	1.339295	-1.711471	0.092493	99
Es	-3.263146	0.209634	-0.256259	99
Es	-1.115263	-0.096917	-1.405407	99
Es	1.218624	-1.135648	0.293590	99
Es	-1.143091	0.092400	1.040132	99
Es	-1.478582	0.076748	0.385759	99
Es	2.684443	-0.182520	1.101972	99
Es	-2.962904	0.232837	0.425270	99
Es	-3.132229	0.881149	0.737787	99
Es	1.783383	-0.820761	0.356306	99
Es	-0.771243	-0.085582	-0.744347	99
Es	2.978407	-0.473334	-0.059606	99
Es	0.967235	-0.801011	-0.200049	99
Es	-3.255200	-0.309666	0.832349	99
Es	2.413191	-0.268694	0.402573	99
Es	-1.084211	0.319824	-0.219115	99
Es	2.055503	0.373208	0.151531	99
45
Properties=species:S:1:pos:R:3:Z:I:1 energy=-288.0948134018891 field_type=dipole dipole="0.000000 0.000000 0.000000" charge=0
C	-2.962938	0.232839	0.425264	6
C	-1.478488	0.076739	0.385674	6
C	-0.771298	-0.085581	-0.744256	6
C	0.702842	-0.237821	-0.767606	6
C	1.555252	0.887069	-0.143806	6
C	2.413322	-0.268631	0.402604	6
N	1.218272	-1.135661	0.294064	7
H	-3.224628	1.191119	0.884204	1
H	-3.405958	-0.568401	1.024564	1
H	-3.409858	0.199099	-0.573416	1
H	-0.970288	0.090239	1.348064	1
H	-1.276638	-0.105231	-1.705756	1
H	1.053332	-0.525081	-1.768966	1
H	1.070722	1.484749	0.637314	1
H	2.055282	1.558149	-0.847256	1
H	3.236972	-0.567801	-0.256176	1
H	2.795092	-0.137271	1.418254	1
H	1.399012	-2.088521	-0.012766	1
Es	-1.149996	-0.330676	-0.175355	99
Es	0.966981	-0.800897	-0.200048	99
Es	0.702884	-0.237878	-0.767494	99
Es	0.949671	-0.433270	-1.459428	99
Es	1.339449	-1.711292	0.092403	99
Es	1.073042	0.393486	-0.503691	99
Es	1.019683	-1.108368	0.583431	99
Es	2.413194	-0.268694	0.402574	99
Es	-0.771242	-0.085584	-0.744348	99
Es	1.896783	1.350299	-0.627512	99
Es	-2.223264	0.155370	0.398964	99
Es	2.684394	-0.182438	1.101941	99
Es	-3.263107	0.209616	-0.256244	99
Es	-1.143087	0.092453	1.040114	99
Es	2.978429	-0.473360	-0.059493	99
Es	2.055496	0.373105	0.151369	99
Es	1.555274	0.887003	-0.143817	99
Es	-1.478581	0.076754	0.385762	99
Es	-1.115275	-0.096793	-1.405385	99
Es	-1.084195	0.319762	-0.219053	99
Es	-3.132236	0.881179	0.737754	99
Es	-3.255223	-0.309677	0.832359	99
Es	-0.041882	-0.161907	-0.764483	99
Es	1.218628	-1.135645	0.293588	99
Es	1.220218	1.281584	0.387579	99
Es	-2.962905	0.232838	0.425270	99
Es	1.783430	-0.820732	0.356728	99
45
Properties=species:S:1:pos:R:3:Z:I:1 energy=-288.0948134018891 field_type=dipole dipole="0.000000 0.000000 0.000000" charge=0
C	-2.962938	0.232839	0.425264	6
C	-1.478488	0.076739	0.385674	6
C	-0.771298	-0.085581	-0.744256	6
C	0.702842	-0.237821	-0.767606	6
C	1.555252	0.887069	-0.143806	6
C	2.413322	-0.268631	0.402604	6
N	1.218272	-1.135661	0.294064	7
H	-3.224628	1.191119	0.884204	1
H	-3.405958	-0.568401	1.024564	1
H	-3.409858	0.199099	-0.573416	1
H	-0.970288	0.090239	1.348064	1
H	-1.276638	-0.105231	-1.705756	1
H	1.053332	-0.525081	-1.768966	1
H	1.070722	1.484749	0.637314	1
H	2.055282	1.558149	-0.847256	1
H	3.236972	-0.567801	-0.256176	1
H	2.795092	-0.137271	1.418254	1
H	1.399012	-2.088521	-0.012766	1
Es	1.339393	-1.711266	0.092454	99
Es	0.702884	-0.237879	-0.767494	99
Es	1.220184	1.281561	0.387456	99
Es	-1.115308	-0.096886	-1.405400	99
Es	-0.041774	-0.161863	-0.764473	99
Es	1.555270	0.887008	-0.143818	99
Es	-0.771242	-0.085578	-0.744348	99
Es	-3.132300	0.881164	0.737822	99
Es	0.966923	-0.801024	-0.200111	99
Es	-1.084276	0.319593	-0.219064	99
Es	0.949642	-0.433192	-1.459375	99
Es	1.019708	-1.108370	0.583368	99
Es	2.684495	-0.182565	1.101868	99
Es	2.978350	-0.473359	-0.059539	99
Es	-1.142988	0.092448	1.040102	99
Es	1.896714	1.350322	-0.627506	99
Es	1.783469	-0.820733	0.356798	99
Es	-1.149997	-0.330485	-0.175384	99
Es	2.055581	0.373433	0.151609	99
Es	2.413188	-0.268693	0.402571	99
Es	-2.223297	0.155470	0.398946	99
Es	-2.962906	0.232838	0.425270	99
Es	-1.478580	0.076754	0.385757	99
Es	1.073092	0.393278	-0.503703	99
Es	-3.255142	-0.309705	0.832308	99
Es	-3.263138	0.209614	-0.256228	99
Es	1.218615	-1.135648	0.293597	99
45
Properties=species:S:1:pos:R:3:Z:I:1 energy=-288.0948134018891 field_type=dipole dipole="0.000000 0.000000 0.000000" charge=0
C	-2.962938	0.232839	0.425264	6
C	-1.478488	0.076739	0.385674	6
C	-0.771298	-0.085581	-0.744256	6
C	0.702842	-0.237821	-0.767606	6
C	1.555252	0.887069	-0.143806	6
C	2.413322	-0.268631	0.402604	6
N	1.218272	-1.135661	0.294064	7
H	-3.224628	1.191119	0.884204	1
H	-3.405958	-0.568401	1.024564	1
H	-3.409858	0.199099	-0.573416	1
H	-0.970288	0.090239	1.348064	1
H	-1.276638	-0.105231	-1.705756	1
H	1.053332	-0.525081	-1.768966	1
H	1.070722	1.484749	0.637314	1
H	2.055282	1.558149	-0.847256	1
H	3.236972	-0.567801	-0.256176	1
H	2.795092	-0.137271	1.418254	1
H	1.399012	-2.088521	-0.012766	1
Es	2.413194	-0.268694	0.402573	99
Es	-1.084297	0.319463	-0.219026	99
Es	-1.115301	-0.096855	-1.405426	99
Es	0.966800	-0.801085	-0.200144	99
Es	1.218623	-1.135659	0.293584	99
Es	-1.478578	0.076743	0.385754	99
Es	0.702884	-0.237880	-0.767491	99
Es	-0.041756	-0.161862	-0.764470	99
Es	0.949599	-0.433158	-1.459341	99
Es	-3.132227	0.881196	0.737746	99
Es	-3.263101	0.209616	-0.256231	99
Es	-0.771242	-0.085586	-0.744348	99
Es	2.055592	0.373473	0.151601	99
Es	2.684420	-0.182583	1.101763	99
Es	1.019841	-1.108413	0.583125	99
Es	-3.255210	-0.309712	0.832378	99
Es	1.339276	-1.711234	0.092606	99
Es	-1.142927	0.092493	1.040081	99
Es	1.896742	1.350323	-0.627418	99
Es	-1.149943	-0.330396	-0.175359	99
Es	-2.962898	0.232836	0.425271	99
Es	1.783594	-0.820775	0.356954	99
Es	1.073058	0.393397	-0.503803	99
Es	2.978400	-0.473389	-0.059414	99
Es	-2.223440	0.155414	0.398923	99
Es	1.220188	1.281553	0.387414	99
Es	1.555272	0.887008	-0.143819	99
