45
Properties=species:S:1:pos:R:3:Z:I:1 energy=-288.0859429563069 field_type=dipole dipole="0.000000 0.000000 0.000000" charge=0
C	-2.872622	0.370581	0.455684	6
C	-1.387311	0.209301	0.407464	6
C	-0.702372	-0.038809	-0.718896	6
C	0.776398	-0.197639	-0.754276	6
C	1.655518	0.871971	-0.072406	6
N	2.573488	-0.212839	0.362104	7
C	1.442798	-1.169659	0.242164	6
H	-3.126902	1.361791	0.843164	1
H	-3.307082	-0.381369	1.121374	1
H	-3.333852	0.260741	-0.530746	1
H	-0.872632	0.305931	1.361224	1
H	-1.224762	-0.133979	-1.667706	1
H	1.104889	-0.390899	-1.786806	1
H	1.206198	1.411560	0.769194	1
H	2.109358	1.605491	-0.746066	1
H	3.320308	-0.394109	-0.309376	1
H	1.718478	-2.146209	-0.167946	1
H	0.920098	-1.331849	1.191844	1
Es	-3.159281	-0.138829	0.908070	99
Es	-3.181187	0.295042	-0.217219	99
Es	-1.075512	-0.239748	-0.110736	99
Es	1.339653	1.227872	0.504353	99
Es	2.120056	-0.675015	0.317633	99
Es	-1.387394	0.209321	0.407567	99
Es	2.221014	0.296352	0.167915	99
Es	-0.702309	-0.038824	-0.718984	99
Es	2.573228	-0.212901	0.361525	99
Es	0.026937	-0.117666	-0.740678	99
Es	-2.872585	0.370578	0.455690	99
Es	1.011509	-0.330497	-1.457872	99
Es	1.969556	1.378398	-0.536371	99
Es	1.145389	0.406349	-0.451693	99
Es	-2.130718	0.289394	0.427685	99
Es	-1.038758	0.275789	1.059410	99
Es	-3.037279	1.040984	0.719724	99
Es	1.025418	-0.745395	-0.274320	99
Es	-1.008570	0.407730	-0.212656	99
Es	0.776386	-0.197633	-0.754246	99
Es	1.079633	-1.266308	0.888664	99
Es	-1.058963	-0.104147	-1.368597	99
Es	1.442905	-1.169557	0.242149	99
Es	1.655600	0.871851	-0.072388	99
Es	2.723627	-0.177419	0.692978	99
Es	2.994061	-0.323964	-0.075190	99
Es	1.633834	-1.843643	-0.039937	99
45
Properties=species:S:1:pos:R:3:Z:I:1 energy=-288.0859429563069 field_type=dipole dipole="0.000000 0.000000 0.000000" charge=0
C	-2.872622	0.370581	0.455684	6
C	-1.387311	0.209301	0.407464	6
C	-0.702372	-0.038809	-0.718896	6
C	0.776398	-0.197639	-0.754276	6
C	1.655518	0.871971	-0.072406	6
N	2.573488	-0.212839	0.362104	7
C	1.442798	-1.169659	0.242164	6
H	-3.126902	1.361791	0.843164	1
H	-3.307082	-0.381369	1.121374	1
H	-3.333852	0.260741	-0.530746	1
H	-0.872632	0.305931	1.361224	1
H	-1.224762	-0.133979	-1.667706	1
H	1.104889	-0.390899	-1.786806	1
H	1.206198	1.411560	0.769194	1
H	2.109358	1.605491	-0.746066	1
H	3.320308	-0.394109	-0.309376	1
H	1.718478	-2.146209	-0.167946	1
H	0.920098	-1.331849	1.191844	1
Es	1.079637	-1.266331	0.888586	99
Es	2.723868	-0.177681	0.692483	99
Es	2.573233	-0.212900	0.361539	99
Es	-3.037301	1.041002	0.719753	99
Es	-1.387393	0.209331	0.407563	99
Es	1.145382	0.406401	-0.451649	99
Es	1.655599	0.871853	-0.072389	99
Es	1.339653	1.227972	0.504369	99
Es	-1.038738	0.275715	1.059428	99
Es	-1.008491	0.407609	-0.212592	99
Es	-1.058995	-0.104015	-1.368615	99
Es	-1.075576	-0.239640	-0.110800	99
Es	0.027026	-0.117732	-0.740726	99
Es	1.025348	-0.745483	-0.274329	99
Es	-3.181182	0.295035	-0.217211	99
Es	-0.702316	-0.038817	-0.718974	99
Es	2.221234	0.296714	0.168238	99
Es	2.993862	-0.324029	-0.075266	99
Es	0.776387	-0.197632	-0.754244	99
Es	2.119964	-0.675067	0.317894	99
Es	1.011503	-0.330484	-1.457832	99
Es	1.969475	1.378300	-0.536424	99
Es	1.633772	-1.843600	-0.039853	99
Es	-2.872584	0.370578	0.455690	99
Es	-3.159237	-0.138874	0.908061	99
Es	-2.130785	0.289444	0.427630	99
Es	1.442904	-1.169558	0.242148	99
45
Properties=species:S:1:pos:R:3:Z:I:1 energy=-288.0859429563069 field_type=dipole dipole="0.000000 0.000000 0.000000" charge=0
C	-2.872622	0.370581	0.455684	6
C	-1.387311	0.209301	0.407464	6
C	-0.702372	-0.038809	-0.718896	6
C	0.776398	-0.197639	-0.754276	6
C	1.655518	0.871971	-0.072406	6
N	2.573488	-0.212839	0.362104	7
C	1.442798	-1.169659	0.242164	6
H	-3.126902	1.361791	0.843164	1
H	-3.307082	-0.381369	1.121374	1
H	-3.333852	0.260741	-0.530746	1
H	-0.872632	0.305931	1.361224	1
H	-1.224762	-0.133979	-1.667706	1
H	1.104889	-0.390899	-1.786806	1
H	1.206198	1.411560	0.769194	1
H	2.109358	1.605491	-0.746066	1
H	3.320308	-0.394109	-0.309376	1
H	1.718478	-2.146209	-0.167946	1
H	0.920098	-1.331849	1.191844	1
Es	-1.075504	-0.239436	-0.110779	99
Es	1.025274	-0.745525	-0.274266	99
Es	2.221258	0.296725	0.168232	99
Es	1.011493	-0.330504	-1.457799	99
Es	2.993907	-0.323974	-0.075088	99
Es	-3.159295	-0.138836	0.908117	99
Es	0.027138	-0.117806	-0.740778	99
Es	-2.872587	0.370580	0.455690	99
Es	1.633802	-1.843575	-0.039798	99
Es	-1.387393	0.209327	0.407571	99
Es	2.573258	-0.212882	0.361571	99
Es	-1.038681	0.275795	1.059448	99
Es	1.969520	1.378378	-0.536196	99
Es	-3.181178	0.295032	-0.217207	99
Es	1.079701	-1.266381	0.888542	99
Es	1.339621	1.227888	0.504224	99
Es	-1.059038	-0.104117	-1.368585	99
Es	0.776387	-0.197634	-0.754246	99
Es	-1.008586	0.407461	-0.212610	99
Es	1.442903	-1.169558	0.242147	99
Es	1.145258	0.406522	-0.451923	99
Es	2.119953	-0.675286	0.318130	99
Es	-2.130836	0.289379	0.427590	99
Es	-0.702308	-0.038830	-0.718984	99
Es	1.655600	0.871850	-0.072388	99
Es	2.723827	-0.177480	0.692172	99
Es	-3.037247	1.040998	0.719687	99
45
Properties=species:S:1:pos:R:3:Z:I:1 energy=-288.0859429563069 field_type=dipole dipole="0.000000 0.000000 0.000000" charge=0
C	-2.872622	0.370581	0.455684	6
C	-1.387311	0.209301	0.407464	6
C	-0.702372	-0.038809	-0.718896	6
C	0.776398	-0.197639	-0.754276	6
C	1.655518	0.871971	-0.072406	6
N	2.573488	-0.212839	0.362104	7
C	1.442798	-1.169659	0.242164	6
H	-3.126902	1.361791	0.843164	1
H	-3.307082	-0.381369	1.121374	1
H	-3.333852	0.260741	-0.530746	1
H	-0.872632	0.305931	1.361224	1
H	-1.224762	-0.133979	-1.667706	1
H	1.104889	-0.390899	-1.786806	1
H	1.206198	1.411560	0.769194	1
H	2.109358	1.605491	-0.746066	1
H	3.320308	-0.394109	-0.309376	1
H	1.718478	-2.146209	-0.167946	1
H	0.920098	-1.331849	1.191844	1
Es	1.442904	-1.169557	0.242147	99
Es	-2.872584	0.370578	0.455690	99
Es	-2.130914	0.289360	0.427568	99
Es	-1.038635	0.275728	1.059419	99
Es	1.633742	-1.843623	-0.039714	99
Es	2.573229	-0.212898	0.361541	99
Es	-1.059079	-0.104094	-1.368563	99
Es	1.655601	0.871850	-0.072388	99
Es	1.011394	-0.330451	-1.457831	99
Es	0.027206	-0.117830	-0.740679	99
Es	-1.387394	0.209337	0.407566	99
Es	-0.702307	-0.038829	-0.718985	99
Es	2.221210	0.296992	0.168541	99
Es	1.079683	-1.266305	0.888462	99
Es	2.724395	-0.177619	0.691830	99
Es	2.120052	-0.675395	0.318470	99
Es	0.776386	-0.197633	-0.754246	99
Es	-3.181205	0.295027	-0.217195	99
Es	-1.008553	0.407360	-0.212556	99
Es	-1.075498	-0.239251	-0.110807	99
Es	2.993431	-0.323965	-0.075323	99
Es	1.339718	1.227928	0.504167	99
Es	-3.159280	-0.138821	0.908091	99
Es	1.145235	0.406487	-0.451813	99
Es	1.969475	1.378351	-0.536218	99
Es	-3.037263	1.041003	0.719705	99
Es	1.025301	-0.745618	-0.274403	99
45
Properties=species:S:1:pos:R:3:Z:I:1 energy=-288.0859429563069 field_type=dipole dipole="0.000000 0.000000 0.000000" charge=0
C	-2.872622	0.370581	0.455684	6
C	-1.387311	0.209301	0.407464	6
C	-0.702372	-0.038809	-0.718896	6
C	0.776398	-0.197639	-0.754276	6
C	1.655518	0.871971	-0.072406	6
N	2.573488	-0.212839	0.362104	7
C	1.442798	-1.169659	0.242164	6
H	-3.126902	1.361791	0.843164	1
H	-3.307082	-0.381369	1.121374	1
H	-3.333852	0.260741	-0.530746	1
H	-0.872632	0.305931	1.361224	1
H	-1.224762	-0.133979	-1.667706	1
H	1.104889	-0.390899	-1.786806	1
H	1.206198	1.411560	0.769194	1
H	2.109358	1.605491	-0.746066	1
H	3.320308	-0.394109	-0.309376	1
H	1.718478	-2.146209	-0.167946	1
H	0.920098	-1.331849	1.191844	1
Es	-1.059125	-0.104177	-1.368519	99
Es	-1.038623	0.275685	1.059407	99
Es	2.221440	0.297072	0.168301	99
Es	1.145126	0.406623	-0.451855	99
Es	-1.008595	0.407313	-0.212595	99
Es	1.442900	-1.169564	0.242151	99
Es	-0.702310	-0.038829	-0.718983	99
Es	1.339773	1.227888	0.504179	99
Es	0.027299	-0.117781	-0.740808	99
Es	-1.387392	0.209329	0.407563	99
Es	-1.075429	-0.239150	-0.110774	99
Es	1.011419	-0.330464	-1.457770	99
Es	-3.159261	-0.138896	0.908049	99
Es	1.655599	0.871851	-0.072390	99
Es	-2.130969	0.289372	0.427553	99
Es	1.969414	1.378383	-0.536146	99
Es	-3.181181	0.295073	-0.217178	99
Es	-2.872585	0.370578	0.455691	99
Es	2.573239	-0.212897	0.361543	99
Es	-3.037295	1.040995	0.719756	99
Es	2.120000	-0.675373	0.318210	99
Es	1.025136	-0.745525	-0.274264	99
Es	1.633751	-1.843511	-0.039835	99
Es	2.723080	-0.177685	0.691597	99
Es	2.994653	-0.324019	-0.074545	99
Es	1.079798	-1.266546	0.888382	99
Es	0.776387	-0.197633	-0.754244	99
45
Properties=species:S:1:pos:R:3:Z:I:1 energy=-288.0859429563069 field_type=dipole dipole="0.000000 0.000000 0.000000" charge=0
C	-2.872622	0.370581	0.455684	6
C	-1.387311	0.209301	0.407464	6
C	-0.702372	-0.038809	-0.718896	6
C	0.776398	-0.197639	-0.754276	6
C	1.655518	0.871971	-0.072406	6
N	2.573488	-0.212839	0.362104	7
C	1.442798	-1.169659	0.242164	6
H	-3.126902	1.361791	0.843164	1
H	-3.307082	-0.381369	1.121374	1
H	-3.333852	0.260741	-0.530746	1
H	-0.872632	0.305931	1.361224	1
H	-1.224762	-0.133979	-1.667706	1
H	1.104889	-0.390899	-1.786806	1
H	1.206198	1.411560	0.769194	1
H	2.109358	1.605491	-0.746066	1
H	3.320308	-0.394109	-0.309376	1
H	1.718478	-2.146209	-0.167946	1
H	0.920098	-1.331849	1.191844	1
Es	2.573240	-0.212900	0.361543	99
Es	2.221440	0.297337	0.168642	99
Es	-0.702310	-0.038829	-0.718982	99
Es	-3.159278	-0.138876	0.908061	99
Es	0.027398	-0.117781	-0.740802	99
Es	-2.131026	0.289390	0.427539	99
Es	-1.008593	0.407108	-0.212541	99
Es	1.442902	-1.169559	0.242148	99
Es	-3.181193	0.295068	-0.217170	99
Es	-1.038524	0.275685	1.059402	99
Es	2.723475	-0.177769	0.690991	99
Es	2.994332	-0.323990	-0.074682	99
Es	2.120081	-0.675636	0.318595	99
Es	1.969358	1.378331	-0.536102	99
Es	1.145158	0.406697	-0.451882	99
Es	1.339773	1.227942	0.504109	99
Es	1.633692	-1.843512	-0.039641	99
Es	1.079743	-1.266419	0.888399	99
Es	1.655600	0.871851	-0.072389	99
Es	-3.037280	1.041000	0.719736	99
Es	-1.387393	0.209325	0.407564	99
Es	-2.872585	0.370578	0.455690	99
Es	0.776387	-0.197633	-0.754245	99
Es	1.011366	-0.330467	-1.457708	99
Es	-1.075468	-0.238965	-0.110834	99
Es	-1.059144	-0.104121	-1.368569	99
Es	1.025100	-0.745742	-0.274396	99
45
Properties=species:S:1:pos:R:3:Z:I:1 energy=-288.0859429563069 field_type=dipole dipole="0.000000 0.000000 0.000000" charge=0
C	-2.872622	0.370581	0.455684	6
C	-1.387311	0.209301	0.407464	6
C	-0.702372	-0.038809	-0.718896	6
C	0.776398	-0.197639	-0.754276	6
C	1.655518	0.871971	-0.072406	6
N	2.573488	-0.212839	0.362104	7
C	1.442798	-1.169659	0.242164	6
H	-3.126902	1.361791	0.843164	1
H	-3.307082	-0.381369	1.121374	1
H	-3.333852	0.260741	-0.530746	1
H	-0.872632	0.305931	1.361224	1
H	-1.224762	-0.133979	-1.667706	1
H	1.104889	-0.390899	-1.786806	1
H	1.206198	1.411560	0.769194	1
H	2.109358	1.605491	-0.746066	1
H	3.320308	-0.394109	-0.309376	1
H	1.718478	-2.146209	-0.167946	1
H	0.920098	-1.331849	1.191844	1
Es	1.655599	0.871853	-0.072389	99
Es	-1.008630	0.406961	-0.212507	99
Es	-1.038420	0.275691	1.059414	99
Es	1.079744	-1.266481	0.888325	99
Es	-0.702311	-0.038826	-0.718985	99
Es	1.025056	-0.745779	-0.274464	99
Es	2.221582	0.297539	0.169012	99
Es	-3.037273	1.040999	0.719694	99
Es	-1.387391	0.209327	0.407561	99
Es	0.027480	-0.117888	-0.740792	99
Es	2.573234	-0.212895	0.361546	99
Es	1.339771	1.227911	0.504066	99
Es	-1.075456	-0.238755	-0.110874	99
Es	1.145129	0.406797	-0.451912	99
Es	-3.181225	0.295027	-0.217162	99
Es	1.011324	-0.330470	-1.457717	99
Es	-1.059200	-0.104140	-1.368546	99
Es	-2.872585	0.370578	0.455691	99
Es	1.442903	-1.169557	0.242145	99
Es	1.633668	-1.843440	-0.039573	99
Es	0.776387	-0.197633	-0.754244	99
Es	2.120071	-0.675825	0.318739	99
Es	1.969271	1.378340	-0.536015	99
Es	2.994364	-0.323819	-0.074685	99
Es	2.723503	-0.177953	0.690534	99
Es	-3.159272	-0.138837	0.908099	99
Es	-2.131074	0.289385	0.427516	99
45
Properties=species:S:1:pos:R:3:Z:I:1 energy=-288.0859429563069 field_type=dipole dipole="0.000000 0.000000 0.000000" charge=0
C	-2.872622	0.370581	0.455684	6
C	-1.387311	0.209301	0.407464	6
C	-0.702372	-0.038809	-0.718896	6
C	0.776398	-0.197639	-0.754276	6
C	1.655518	0.871971	-0.072406	6
N	2.573488	-0.212839	0.362104	7
C	1.442798	-1.169659	0.242164	6
H	-3.126902	1.361791	0.843164	1
H	-3.307082	-0.381369	1.121374	1
H	-3.333852	0.260741	-0.530746	1
H	-0.872632	0.305931	1.361224	1
H	-1.224762	-0.133979	-1.667706	1
H	1.104889	-0.390899	-1.786806	1
H	1.206198	1.411560	0.769194	1
H	2.109358	1.605491	-0.746066	1
H	3.320308	-0.394109	-0.309376	1
H	1.718478	-2.146209	-0.167946	1
H	0.920098	-1.331849	1.191844	1
Es	-1.387392	0.209325	0.407563	99
Es	-0.702310	-0.038820	-0.718983	99
Es	-2.131131	0.289458	0.427548	99
Es	1.969298	1.378348	-0.535975	99
Es	-3.159279	-0.138843	0.908109	99
Es	2.120138	-0.675916	0.318886	99
Es	0.027600	-0.117754	-0.740921	99
Es	1.024954	-0.745864	-0.274359	99
Es	2.573251	-0.212897	0.361567	99
Es	1.633626	-1.843470	-0.039525	99
Es	-1.059263	-0.104103	-1.368540	99
Es	2.994496	-0.323951	-0.074484	99
Es	1.145080	0.406865	-0.452011	99
Es	1.011303	-0.330487	-1.457652	99
Es	2.723339	-0.177833	0.690305	99
Es	1.655599	0.871851	-0.072389	99
Es	-1.075434	-0.238791	-0.110867	99
Es	-1.008607	0.406821	-0.212464	99
Es	-1.038405	0.275685	1.059339	99
Es	1.079806	-1.266438	0.888322	99
Es	-2.872585	0.370578	0.455691	99
Es	-3.037257	1.041014	0.719691	99
Es	-3.181216	0.295031	-0.217152	99
Es	1.339806	1.227911	0.504041	99
Es	2.221544	0.297585	0.168834	99
Es	0.776387	-0.197633	-0.754246	99
Es	1.442903	-1.169558	0.242147	99
45
Properties=species:S:1:pos:R:3:Z:I:1 energy=-288.0859429563069 field_type=dipole dipole="0.000000 0.000000 0.000000" charge=0
C	-2.872622	0.370581	0.455684	6
C	-1.387311	0.209301	0.407464	6
C	-0.702372	-0.038809	-0.718896	6
C	0.776398	-0.197639	-0.754276	6
C	1.655518	0.871971	-0.072406	6
N	2.573488	-0.212839	0.362104	7
C	1.442798	-1.169659	0.242164	6
H	-3.126902	1.361791	0.843164	1
H	-3.307082	-0.381369	1.121374	1
H	-3.333852	0.260741	-0.530746	1
H	-0.872632	0.305931	1.361224	1
H	-1.224762	-0.133979	-1.667706	1
H	1.104889	-0.390899	-1.786806	1
H	1.206198	1.411560	0.769194	1
H	2.109358	1.605491	-0.746066	1
H	3.320308	-0.394109	-0.309376	1
H	1.718478	-2.146209	-0.167946	1
H	0.920098	-1.331849	1.191844	1
Es	-1.059252	-0.104028	-1.368560	99
Es	1.079775	-1.266495	0.888255	99
Es	2.723521	-0.177472	0.690532	99
Es	1.145061	0.406887	-0.452011	99
Es	-2.872585	0.370578	0.455691	99
Es	2.120241	-0.675930	0.319083	99
Es	1.339833	1.227974	0.503966	99
Es	0.776387	-0.197633	-0.754244	99
Es	1.655599	0.871848	-0.072390	99
Es	2.573244	-0.212893	0.361568	99
Es	-0.702310	-0.038829	-0.718981	99
Es	2.994308	-0.324019	-0.074386	99
Es	1.969262	1.378292	-0.535938	99
Es	0.027686	-0.117790	-0.740853	99
Es	-2.131272	0.289759	0.427486	99
Es	2.221535	0.297395	0.168431	99
Es	1.442903	-1.169558	0.242147	99
Es	-3.181104	0.295015	-0.217183	99
Es	-1.075514	-0.238605	-0.110937	99
Es	1.024904	-0.745981	-0.274471	99
Es	-1.387393	0.209325	0.407564	99
Es	1.011249	-0.330478	-1.457643	99
Es	-1.038380	0.275541	1.059374	99
Es	-3.037382	1.040992	0.719681	99
Es	1.633668	-1.843415	-0.039455	99
Es	-3.159211	-0.139000	0.908121	99
Es	-1.008523	0.406634	-0.212372	99
45
Properties=species:S:1:pos:R:3:Z:I:1 energy=-288.0859429563069 field_type=dipole dipole="0.000000 0.000000 0.000000" charge=0
C	-2.872622	0.370581	0.455684	6
C	-1.387311	0.209301	0.407464	6
C	-0.702372	-0.038809	-0.718896	6
C	0.776398	-0.197639	-0.754276	6
C	1.655518	0.871971	-0.072406	6
N	2.573488	-0.212839	0.362104	7
C	1.442798	-1.169659	0.242164	6
H	-3.126902	1.361791	0.843164	1
H	-3.307082	-0.381369	1.121374	1
H	-3.333852	0.260741	-0.530746	1
H	-0.872632	0.305931	1.361224	1
H	-1.224762	-0.133979	-1.667706	1
H	1.104889	-0.390899	-1.786806	1
H	1.206198	1.411560	0.769194	1
H	2.109358	1.605491	-0.746066	1
H	3.320308	-0.394109	-0.309376	1
H	1.718478	-2.146209	-0.167946	1
H	0.920098	-1.331849	1.191844	1
Es	2.723319	-0.177690	0.689630	99
Es	-1.387401	0.209310	0.407569	99
Es	1.024929	-0.746088	-0.274473	99
Es	-1.059204	-0.104077	-1.368540	99
Es	-3.037284	1.041041	0.719725	99
Es	2.573225	-0.212901	0.361553	99
Es	-1.075408	-0.238609	-0.110886	99
Es	2.221688	0.297842	0.168861	99
Es	1.079840	-1.266497	0.888229	99
Es	-1.038331	0.275709	1.059302	99
Es	-3.159271	-0.138874	0.908057	99
Es	1.339858	1.227977	0.503906	99
Es	2.120174	-0.676063	0.319437	99
Es	1.442902	-1.169557	0.242145	99
Es	2.994577	-0.324105	-0.074265	99
Es	-2.131276	0.289396	0.427516	99
Es	-1.008677	0.406632	-0.212450	99
Es	-0.702310	-0.038830	-0.718981	99
Es	0.776385	-0.197633	-0.754249	99
Es	1.655599	0.871849	-0.072390	99
Es	1.144971	0.406979	-0.451990	99
Es	1.633594	-1.843401	-0.039407	99
Es	1.011231	-0.330371	-1.457530	99
Es	-2.872586	0.370578	0.455690	99
Es	0.027678	-0.117841	-0.740911	99
Es	1.969221	1.378290	-0.535936	99
Es	-3.181192	0.295048	-0.217137	99
45
Properties=species:S:1:pos:R:3:Z:I:1 energy=-288.0859429563069 field_type=dipole dipole="0.000000 0.000000 0.000000" charge=0
C	-2.872622	0.370581	0.455684	6
C	-1.387311	0.209301	0.407464	6
C	-0.702372	-0.038809	-0.718896	6
C	0.776398	-0.197639	-0.754276	6
C	1.655518	0.871971	-0.072406	6
N	2.573488	-0.212839	0.362104	7
C	1.442798	-1.169659	0.242164	6
H	-3.126902	1.361791	0.843164	1
H	-3.307082	-0.381369	1.121374	1
H	-3.333852	0.260741	-0.530746	1
H	-0.872632	0.305931	1.361224	1
H	-1.224762	-0.133979	-1.667706	1
H	1.104889	-0.390899	-1.786806	1
H	1.206198	1.411560	0.769194	1
H	2.109358	1.605491	-0.746066	1
H	3.320308	-0.394109	-0.309376	1
H	1.718478	-2.146209	-0.167946	1
H	0.920098	-1.331849	1.191844	1
Es	0.027916	-0.117864	-0.740958	99
Es	1.969204	1.378282	-0.535892	99
Es	-3.181207	0.295081	-0.217096	99
Es	1.024801	-0.746088	-0.274384	99
Es	0.776388	-0.197633	-0.754249	99
Es	-2.872586	0.370577	0.455690	99
Es	-1.387394	0.209326	0.407564	99
Es	-3.037275	1.041008	0.719703	99
Es	2.723194	-0.178075	0.689586	99
Es	-2.131285	0.289395	0.427409	99
Es	-0.702311	-0.038829	-0.718981	99
Es	-1.038300	0.275638	1.059359	99
Es	-1.008634	0.406452	-0.212389	99
Es	2.120253	-0.676098	0.319097	99
Es	-3.159306	-0.138880	0.908074	99
Es	1.655599	0.871852	-0.072390	99
Es	1.633544	-1.843368	-0.039435	99
Es	2.994669	-0.323939	-0.074151	99
Es	1.339913	1.227985	0.503843	99
Es	1.011221	-0.330391	-1.457618	99
Es	2.221727	0.298029	0.169173	99
Es	-1.059358	-0.104061	-1.368484	99
Es	1.079869	-1.266545	0.888201	99
Es	1.144870	0.407023	-0.451970	99
Es	2.573227	-0.212891	0.361553	99
Es	-1.075391	-0.238313	-0.110923	99
Es	1.442902	-1.169558	0.242144	99
45
Properties=species:S:1:pos:R:3:Z:I:1 energy=-288.0859429563069 field_type=dipole dipole="0.000000 0.000000 0.000000" charge=0
C	-2.872622	0.370581	0.455684	6
C	-1.387311	0.209301	0.407464	6
C	-0.702372	-0.038809	-0.718896	6
C	0.776398	-0.197639	-0.754276	6
C	1.655518	0.871971	-0.072406	6
N	2.573488	-0.212839	0.362104	7
C	1.442798	-1.169659	0.242164	6
H	-3.126902	1.361791	0.843164	1
H	-3.307082	-0.381369	1.121374	1
H	-3.333852	0.260741	-0.530746	1
H	-0.872632	0.305931	1.361224	1
H	-1.224762	-0.133979	-1.667706	1
H	1.104889	-0.390899	-1.786806	1
H	1.206198	1.411560	0.769194	1
H	2.109358	1.605491	-0.746066	1
H	3.320308	-0.394109	-0.309376	1
H	1.718478	-2.146209	-0.167946	1
H	0.920098	-1.331849	1.191844	1
Es	-3.159050	-0.138952	0.908012	99
Es	2.722943	-0.178088	0.689062	99
Es	-1.059324	-0.104091	-1.368532	99
Es	1.024693	-0.746163	-0.274639	99
Es	1.655598	0.871856	-0.072390	99
Es	2.221831	0.298231	0.169231	99
Es	2.573242	-0.212898	0.361564	99
Es	1.442902	-1.169556	0.242147	99
Es	-1.038273	0.275646	1.059333	99
Es	1.144979	0.407077	-0.451946	99
Es	0.776389	-0.197635	-0.754244	99
Es	2.120165	-0.676190	0.319411	99
Es	-1.075392	-0.238293	-0.110924	99
Es	-3.037419	1.040985	0.719854	99
Es	2.994915	-0.324029	-0.073976	99
Es	-2.131349	0.289625	0.427318	99
Es	1.339896	1.227934	0.503862	99
Es	-1.387394	0.209322	0.407565	99
Es	-2.872587	0.370577	0.455692	99
Es	1.969204	1.378314	-0.535782	99
Es	-0.702310	-0.038825	-0.718981	99
Es	1.079863	-1.266556	0.888132	99
Es	-1.008656	0.406314	-0.212383	99
Es	-3.181299	0.295023	-0.217107	99
Es	1.633573	-1.843348	-0.039333	99
Es	0.027911	-0.117793	-0.740900	99
Es	1.011199	-0.330374	-1.457571	99
45
Properties=species:S:1:pos:R:3:Z:I:1 energy=-288.0859429563069 field_type=dipole dipole="0.000000 0.000000 0.000000" charge=0
C	-2.872622	0.370581	0.455684	6
C	-1.387311	0.209301	0.407464	6
C	-0.702372	-0.038809	-0.718896	6
C	0.776398	-0.197639	-0.754276	6
C	1.655518	0.871971	-0.072406	6
N	2.573488	-0.212839	0.362104	7
C	1.442798	-1.169659	0.242164	6
H	-3.126902	1.361791	0.843164	1
H	-3.307082	-0.381369	1.121374	1
H	-3.333852	0.260741	-0.530746	1
H	-0.872632	0.305931	1.361224	1
H	-1.224762	-0.133979	-1.667706	1
H	1.104889	-0.390899	-1.786806	1
H	1.206198	1.411560	0.769194	1
H	2.109358	1.605491	-0.746066	1
H	3.320308	-0.394109	-0.309376	1
H	1.718478	-2.146209	-0.167946	1
H	0.920098	-1.331849	1.191844	1
Es	1.969149	1.378267	-0.535810	99
Es	-1.059374	-0.104079	-1.368497	99
Es	-1.075358	-0.238145	-0.110943	99
Es	1.442901	-1.169560	0.242146	99
Es	-1.008732	0.406179	-0.212372	99
Es	2.722874	-0.178017	0.688998	99
Es	0.028050	-0.117770	-0.740952	99
Es	0.776387	-0.197633	-0.754245	99
Es	2.120316	-0.676339	0.319388	99
Es	-3.159257	-0.138903	0.908089	99
Es	-2.872586	0.370578	0.455691	99
Es	-1.038197	0.275646	1.059357	99
Es	1.144837	0.407165	-0.452025	99
Es	1.633519	-1.843326	-0.039256	99
Es	-2.131432	0.289422	0.427391	99
Es	-0.702317	-0.038826	-0.718990	99
Es	-3.037279	1.041047	0.719709	99
Es	2.994984	-0.323950	-0.073837	99
Es	1.655598	0.871852	-0.072390	99
Es	2.573240	-0.212889	0.361585	99
Es	2.221807	0.298196	0.169159	99
Es	-3.181191	0.295042	-0.217119	99
Es	-1.387386	0.209323	0.407558	99
Es	1.011153	-0.330427	-1.457568	99
Es	1.339958	1.227989	0.503805	99
Es	1.079850	-1.266519	0.888121	99
Es	1.024735	-0.746211	-0.274515	99
