48
Properties=species:S:1:pos:R:3:Z:I:1 energy=-289.2841092939206 field_type=dipole dipole="0.000000 0.000000 0.000000" charge=0
C	-1.761960	-0.074438	-0.056950	6
C	-0.254160	-0.362938	-0.175970	6
C	0.169630	-1.258598	1.002390	6
C	0.000530	-1.136268	-1.484910	6
C	0.488220	0.963182	-0.244290	6
C	0.827780	1.778632	0.981590	6
N	1.865130	1.075622	0.231350	7
H	-2.116600	0.535122	-0.896220	1
H	-1.985780	0.477432	0.863240	1
H	-2.346770	-1.001058	-0.044650	1
H	-0.037230	-0.785458	1.967890	1
H	1.239330	-1.492728	0.967480	1
H	-0.373840	-2.210768	0.987170	1
H	-0.319510	-0.556178	-2.358260	1
H	-0.542020	-2.088248	-1.499270	1
H	1.067270	-1.353948	-1.611800	1
H	0.250140	1.518782	-1.147380	1
H	0.610410	1.389902	1.967420	1
H	0.820160	2.859132	0.902640	1
H	2.399270	1.722822	-0.351470	1
Es	0.890739	-1.419307	0.975087	99
Es	-1.014872	-0.211270	-0.117636	99
Es	-0.254165	-0.362933	-0.175978	99
Es	-0.035384	-0.802773	0.420744	99
Es	0.822144	2.517392	0.926037	99
Es	-1.911354	0.301195	0.573692	99
Es	-1.761951	-0.074436	-0.056955	99
Es	1.511107	1.445658	0.636069	99
Es	-1.999823	0.343047	-0.634646	99
Es	0.169605	-1.258581	1.002376	99
Es	0.024486	-0.928926	1.660670	99
Es	0.327146	1.346488	-0.863931	99
Es	2.168619	1.478600	-0.122326	99
Es	-0.221769	-0.733157	-2.080437	99
Es	2.022955	0.791684	0.375804	99
Es	0.000524	-1.136258	-1.484905	99
Es	0.678296	1.515058	1.651185	99
Es	0.436044	1.425851	0.410178	99
Es	0.727321	-1.283628	-1.568513	99
Es	-0.125231	-0.749286	-0.839141	99
Es	-0.373321	-1.785054	-1.489469	99
Es	1.864808	1.075966	0.231209	99
Es	0.488432	0.963227	-0.244158	99
Es	0.135927	0.301184	-0.192275	99
Es	1.317077	0.956030	-0.094431	99
Es	0.827924	1.778507	0.981424	99
Es	-2.155777	-0.710428	-0.050120	99
Es	-0.209312	-1.905125	0.984206	99
48
Properties=species:S:1:pos:R:3:Z:I:1 energy=-289.2841092939206 field_type=dipole dipole="0.000000 0.000000 0.000000" charge=0
C	-1.761960	-0.074438	-0.056950	6
C	-0.254160	-0.362938	-0.175970	6
C	0.169630	-1.258598	1.002390	6
C	0.000530	-1.136268	-1.484910	6
C	0.488220	0.963182	-0.244290	6
C	0.827780	1.778632	0.981590	6
N	1.865130	1.075622	0.231350	7
H	-2.116600	0.535122	-0.896220	1
H	-1.985780	0.477432	0.863240	1
H	-2.346770	-1.001058	-0.044650	1
H	-0.037230	-0.785458	1.967890	1
H	1.239330	-1.492728	0.967480	1
H	-0.373840	-2.210768	0.987170	1
H	-0.319510	-0.556178	-2.358260	1
H	-0.542020	-2.088248	-1.499270	1
H	1.067270	-1.353948	-1.611800	1
H	0.250140	1.518782	-1.147380	1
H	0.610410	1.389902	1.967420	1
H	0.820160	2.859132	0.902640	1
H	2.399270	1.722822	-0.351470	1
Es	-1.999797	0.342941	-0.634718	99
Es	0.436091	1.425889	0.410228	99
Es	0.135818	0.301113	-0.192220	99
Es	2.168348	1.478247	-0.122131	99
Es	0.169606	-1.258582	1.002377	99
Es	0.822015	2.517311	0.926022	99
Es	-1.761952	-0.074435	-0.056955	99
Es	0.678249	1.515131	1.651127	99
Es	-0.254165	-0.362933	-0.175977	99
Es	1.317026	0.955723	-0.095021	99
Es	0.827907	1.778499	0.981406	99
Es	-0.035298	-0.802794	0.420596	99
Es	-1.014942	-0.211343	-0.117683	99
Es	0.024486	-0.928928	1.660692	99
Es	-0.125080	-0.749144	-0.839055	99
Es	-2.155693	-0.710350	-0.050151	99
Es	1.511321	1.446175	0.636298	99
Es	-0.373266	-1.785029	-1.489533	99
Es	0.727232	-1.283659	-1.568554	99
Es	2.023285	0.791807	0.375951	99
Es	-0.209252	-1.905051	0.984268	99
Es	0.890640	-1.419410	0.975181	99
Es	1.864753	1.076082	0.231143	99
Es	0.488433	0.963233	-0.244151	99
Es	-1.911457	0.301262	0.573764	99
Es	0.000525	-1.136258	-1.484906	99
Es	0.327114	1.346386	-0.863780	99
Es	-0.221752	-0.733155	-2.080459	99
48
Properties=species:S:1:pos:R:3:Z:I:1 energy=-289.2841092939206 field_type=dipole dipole="0.000000 0.000000 0.000000" charge=0
C	-1.761960	-0.074438	-0.056950	6
C	-0.254160	-0.362938	-0.175970	6
C	0.169630	-1.258598	1.002390	6
C	0.000530	-1.136268	-1.484910	6
C	0.488220	0.963182	-0.244290	6
C	0.827780	1.778632	0.981590	6
N	1.865130	1.075622	0.231350	7
H	-2.116600	0.535122	-0.896220	1
H	-1.985780	0.477432	0.863240	1
H	-2.346770	-1.001058	-0.044650	1
H	-0.037230	-0.785458	1.967890	1
H	1.239330	-1.492728	0.967480	1
H	-0.373840	-2.210768	0.987170	1
H	-0.319510	-0.556178	-2.358260	1
H	-0.542020	-2.088248	-1.499270	1
H	1.067270	-1.353948	-1.611800	1
H	0.250140	1.518782	-1.147380	1
H	0.610410	1.389902	1.967420	1
H	0.820160	2.859132	0.902640	1
H	2.399270	1.722822	-0.351470	1
Es	0.890688	-1.419416	0.975032	99
Es	2.022873	0.792116	0.375423	99
Es	0.024575	-0.928988	1.660732	99
Es	-1.999936	0.343003	-0.634674	99
Es	1.317049	0.955603	-0.095000	99
Es	-1.761953	-0.074435	-0.056955	99
Es	0.827922	1.778507	0.981420	99
Es	2.168640	1.478259	-0.122076	99
Es	0.135856	0.301213	-0.192413	99
Es	0.169606	-1.258581	1.002377	99
Es	-0.254165	-0.362933	-0.175977	99
Es	0.678248	1.515183	1.651064	99
Es	0.000524	-1.136258	-1.484906	99
Es	-1.014782	-0.211295	-0.117618	99
Es	0.727193	-1.283520	-1.568613	99
Es	-2.155699	-0.710322	-0.050075	99
Es	1.864776	1.076085	0.231133	99
Es	1.511590	1.445932	0.636890	99
Es	0.822080	2.517225	0.926096	99
Es	-0.373222	-1.785174	-1.489369	99
Es	0.435700	1.425990	0.410139	99
Es	-0.221774	-0.733393	-2.080485	99
Es	0.488425	0.963230	-0.244151	99
Es	-0.035402	-0.802599	0.420743	99
Es	-0.209285	-1.905025	0.984257	99
Es	-0.125125	-0.749085	-0.839125	99
Es	0.327227	1.346258	-0.863771	99
Es	-1.911433	0.301148	0.573666	99
48
Properties=species:S:1:pos:R:3:Z:I:1 energy=-289.2841092939206 field_type=dipole dipole="0.000000 0.000000 0.000000" charge=0
C	-1.761960	-0.074438	-0.056950	6
C	-0.254160	-0.362938	-0.175970	6
C	0.169630	-1.258598	1.002390	6
C	0.000530	-1.136268	-1.484910	6
C	0.488220	0.963182	-0.244290	6
C	0.827780	1.778632	0.981590	6
N	1.865130	1.075622	0.231350	7
H	-2.116600	0.535122	-0.896220	1
H	-1.985780	0.477432	0.863240	1
H	-2.346770	-1.001058	-0.044650	1
H	-0.037230	-0.785458	1.967890	1
H	1.239330	-1.492728	0.967480	1
H	-0.373840	-2.210768	0.987170	1
H	-0.319510	-0.556178	-2.358260	1
H	-0.542020	-2.088248	-1.499270	1
H	1.067270	-1.353948	-1.611800	1
H	0.250140	1.518782	-1.147380	1
H	0.610410	1.389902	1.967420	1
H	0.820160	2.859132	0.902640	1
H	2.399270	1.722822	-0.351470	1
Es	-0.254165	-0.362935	-0.175976	99
Es	1.864784	1.076086	0.231129	99
Es	-1.911466	0.301160	0.573597	99
Es	-1.761951	-0.074436	-0.056955	99
Es	-0.373244	-1.785044	-1.489595	99
Es	0.327158	1.346295	-0.863727	99
Es	0.678305	1.515271	1.651021	99
Es	1.317272	0.955113	-0.095250	99
Es	0.435537	1.425956	0.410182	99
Es	0.890627	-1.419389	0.975119	99
Es	-0.125107	-0.749187	-0.838988	99
Es	-0.209200	-1.905046	0.984246	99
Es	-1.014751	-0.211229	-0.117629	99
Es	0.727145	-1.283668	-1.568575	99
Es	0.827924	1.778506	0.981419	99
Es	2.022563	0.792673	0.375548	99
Es	-0.221672	-0.733220	-2.080467	99
Es	-1.999917	0.342989	-0.634682	99
Es	0.169607	-1.258581	1.002376	99
Es	-0.035378	-0.802587	0.420723	99
Es	0.000526	-1.136256	-1.484902	99
Es	2.168956	1.477943	-0.122029	99
Es	1.511558	1.446164	0.636906	99
Es	0.488436	0.963232	-0.244151	99
Es	-2.155757	-0.710263	-0.050048	99
Es	0.135826	0.301093	-0.192393	99
Es	0.822042	2.517126	0.926117	99
Es	0.024538	-0.929042	1.660743	99
48
Properties=species:S:1:pos:R:3:Z:I:1 energy=-289.2841092939206 field_type=dipole dipole="0.000000 0.000000 0.000000" charge=0
C	-1.761960	-0.074438	-0.056950	6
C	-0.254160	-0.362938	-0.175970	6
C	0.169630	-1.258598	1.002390	6
C	0.000530	-1.136268	-1.484910	6
C	0.488220	0.963182	-0.244290	6
C	0.827780	1.778632	0.981590	6
N	1.865130	1.075622	0.231350	7
H	-2.116600	0.535122	-0.896220	1
H	-1.985780	0.477432	0.863240	1
H	-2.346770	-1.001058	-0.044650	1
H	-0.037230	-0.785458	1.967890	1
H	1.239330	-1.492728	0.967480	1
H	-0.373840	-2.210768	0.987170	1
H	-0.319510	-0.556178	-2.358260	1
H	-0.542020	-2.088248	-1.499270	1
H	1.067270	-1.353948	-1.611800	1
H	0.250140	1.518782	-1.147380	1
H	0.610410	1.389902	1.967420	1
H	0.820160	2.859132	0.902640	1
H	2.399270	1.722822	-0.351470	1
Es	-0.209184	-1.905049	0.984283	99
Es	0.822081	2.517060	0.926191	99
Es	-0.035362	-0.802526	0.420644	99
Es	-0.254167	-0.362934	-0.175978	99
Es	1.317559	0.954463	-0.095618	99
Es	0.000525	-1.136257	-1.484905	99
Es	0.890584	-1.419406	0.975149	99
Es	0.488430	0.963232	-0.244154	99
Es	0.024582	-0.929102	1.660729	99
Es	0.678345	1.515324	1.650948	99
Es	-1.999958	0.342976	-0.634628	99
Es	0.727165	-1.283719	-1.568623	99
Es	2.169263	1.477882	-0.122037	99
Es	-1.014679	-0.211208	-0.117597	99
Es	0.169606	-1.258581	1.002376	99
Es	-1.761949	-0.074436	-0.056956	99
Es	-0.221668	-0.733264	-2.080440	99
Es	0.135768	0.301114	-0.192385	99
Es	0.435450	1.426108	0.410348	99
Es	0.827921	1.778510	0.981425	99
Es	-1.911448	0.301156	0.573609	99
Es	2.022302	0.793257	0.375690	99
Es	-2.155762	-0.710252	-0.050050	99
Es	1.511305	1.446184	0.636866	99
Es	0.327142	1.346254	-0.863631	99
Es	-0.373264	-1.784985	-1.489608	99
Es	1.864771	1.076057	0.231152	99
Es	-0.125166	-0.749133	-0.839041	99
48
Properties=species:S:1:pos:R:3:Z:I:1 energy=-289.2841092939206 field_type=dipole dipole="0.000000 0.000000 0.000000" charge=0
C	-1.761960	-0.074438	-0.056950	6
C	-0.254160	-0.362938	-0.175970	6
C	0.169630	-1.258598	1.002390	6
C	0.000530	-1.136268	-1.484910	6
C	0.488220	0.963182	-0.244290	6
C	0.827780	1.778632	0.981590	6
N	1.865130	1.075622	0.231350	7
H	-2.116600	0.535122	-0.896220	1
H	-1.985780	0.477432	0.863240	1
H	-2.346770	-1.001058	-0.044650	1
H	-0.037230	-0.785458	1.967890	1
H	1.239330	-1.492728	0.967480	1
H	-0.373840	-2.210768	0.987170	1
H	-0.319510	-0.556178	-2.358260	1
H	-0.542020	-2.088248	-1.499270	1
H	1.067270	-1.353948	-1.611800	1
H	0.250140	1.518782	-1.147380	1
H	0.610410	1.389902	1.967420	1
H	0.820160	2.859132	0.902640	1
H	2.399270	1.722822	-0.351470	1
Es	1.511919	1.446012	0.637514	99
Es	-0.125080	-0.749157	-0.838903	99
Es	-1.761952	-0.074435	-0.056955	99
Es	0.135810	0.300998	-0.192498	99
Es	-2.155829	-0.710199	-0.050022	99
Es	-1.014638	-0.211158	-0.117729	99
Es	-1.911425	0.301151	0.573564	99
Es	0.822117	2.516951	0.926253	99
Es	0.890548	-1.419442	0.975169	99
Es	0.024581	-0.929147	1.660759	99
Es	-1.999978	0.342980	-0.634584	99
Es	-0.373182	-1.784995	-1.489655	99
Es	-0.035408	-0.802398	0.420722	99
Es	0.827926	1.778502	0.981411	99
Es	-0.221663	-0.733316	-2.080452	99
Es	0.169607	-1.258585	1.002380	99
Es	2.022517	0.793283	0.374981	99
Es	-0.209155	-1.905017	0.984266	99
Es	2.168870	1.477894	-0.121915	99
Es	1.864784	1.076048	0.231160	99
Es	0.488428	0.963235	-0.244150	99
Es	0.727086	-1.283697	-1.568676	99
Es	0.327208	1.346165	-0.863588	99
Es	0.000525	-1.136258	-1.484908	99
Es	1.317386	0.954671	-0.095531	99
Es	-0.254167	-0.362933	-0.175978	99
Es	0.434971	1.426153	0.410241	99
Es	0.678392	1.515420	1.650882	99
48
Properties=species:S:1:pos:R:3:Z:I:1 energy=-289.2841092939206 field_type=dipole dipole="0.000000 0.000000 0.000000" charge=0
C	-1.761960	-0.074438	-0.056950	6
C	-0.254160	-0.362938	-0.175970	6
C	0.169630	-1.258598	1.002390	6
C	0.000530	-1.136268	-1.484910	6
C	0.488220	0.963182	-0.244290	6
C	0.827780	1.778632	0.981590	6
N	1.865130	1.075622	0.231350	7
H	-2.116600	0.535122	-0.896220	1
H	-1.985780	0.477432	0.863240	1
H	-2.346770	-1.001058	-0.044650	1
H	-0.037230	-0.785458	1.967890	1
H	1.239330	-1.492728	0.967480	1
H	-0.373840	-2.210768	0.987170	1
H	-0.319510	-0.556178	-2.358260	1
H	-0.542020	-2.088248	-1.499270	1
H	1.067270	-1.353948	-1.611800	1
H	0.250140	1.518782	-1.147380	1
H	0.610410	1.389902	1.967420	1
H	0.820160	2.859132	0.902640	1
H	2.399270	1.722822	-0.351470	1
Es	0.024562	-0.929201	1.660729	99
Es	-1.999999	0.342799	-0.634650	99
Es	-0.035502	-0.802397	0.420573	99
Es	-1.761951	-0.074435	-0.056955	99
Es	0.890539	-1.419353	0.975217	99
Es	-0.221710	-0.733363	-2.080442	99
Es	0.678420	1.515467	1.650850	99
Es	0.135749	0.300977	-0.192453	99
Es	1.512178	1.446123	0.637777	99
Es	0.827931	1.778497	0.981413	99
Es	0.488435	0.963233	-0.244152	99
Es	-0.125041	-0.749101	-0.838907	99
Es	1.317263	0.954330	-0.095911	99
Es	-0.373114	-1.785037	-1.489656	99
Es	0.169606	-1.258581	1.002377	99
Es	-0.254167	-0.362933	-0.175978	99
Es	2.169185	1.477587	-0.121770	99
Es	0.727079	-1.283624	-1.568716	99
Es	0.000524	-1.136258	-1.484907	99
Es	-1.014615	-0.211011	-0.117610	99
Es	2.022153	0.793761	0.374839	99
Es	0.434887	1.426259	0.410334	99
Es	-2.155804	-0.710321	-0.049839	99
Es	1.864772	1.076075	0.231141	99
Es	-1.911503	0.301301	0.573352	99
Es	0.327239	1.346119	-0.863520	99
Es	-0.209019	-1.905059	0.984346	99
Es	0.822098	2.516874	0.926281	99
48
Properties=species:S:1:pos:R:3:Z:I:1 energy=-289.2841092939206 field_type=dipole dipole="0.000000 0.000000 0.000000" charge=0
C	-1.761960	-0.074438	-0.056950	6
C	-0.254160	-0.362938	-0.175970	6
C	0.169630	-1.258598	1.002390	6
C	0.000530	-1.136268	-1.484910	6
C	0.488220	0.963182	-0.244290	6
C	0.827780	1.778632	0.981590	6
N	1.865130	1.075622	0.231350	7
H	-2.116600	0.535122	-0.896220	1
H	-1.985780	0.477432	0.863240	1
H	-2.346770	-1.001058	-0.044650	1
H	-0.037230	-0.785458	1.967890	1
H	1.239330	-1.492728	0.967480	1
H	-0.373840	-2.210768	0.987170	1
H	-0.319510	-0.556178	-2.358260	1
H	-0.542020	-2.088248	-1.499270	1
H	1.067270	-1.353948	-1.611800	1
H	0.250140	1.518782	-1.147380	1
H	0.610410	1.389902	1.967420	1
H	0.820160	2.859132	0.902640	1
H	2.399270	1.722822	-0.351470	1
Es	-0.125152	-0.749019	-0.838872	99
Es	0.024616	-0.929197	1.660718	99
Es	1.864780	1.076079	0.231136	99
Es	-0.254165	-0.362934	-0.175977	99
Es	0.434639	1.426239	0.410262	99
Es	0.678398	1.515588	1.650796	99
Es	-1.014577	-0.211279	-0.117524	99
Es	0.827927	1.778498	0.981410	99
Es	0.822131	2.516781	0.926278	99
Es	-1.761948	-0.074435	-0.056956	99
Es	0.135772	0.300998	-0.192549	99
Es	-0.035182	-0.802285	0.420593	99
Es	1.317281	0.954471	-0.096020	99
Es	-2.155859	-0.710041	-0.049952	99
Es	-1.911520	0.301188	0.573471	99
Es	-0.221629	-0.733411	-2.080477	99
Es	2.021747	0.793848	0.374409	99
Es	0.488435	0.963233	-0.244152	99
Es	0.890412	-1.419437	0.975311	99
Es	0.727055	-1.283722	-1.568697	99
Es	2.169450	1.477366	-0.121660	99
Es	0.000524	-1.136259	-1.484907	99
Es	-1.999963	0.342914	-0.634664	99
Es	0.327238	1.346062	-0.863470	99
Es	-0.209195	-1.905102	0.984240	99
Es	0.169607	-1.258583	1.002377	99
Es	1.512501	1.446123	0.638333	99
Es	-0.373127	-1.784957	-1.489698	99
48
Properties=species:S:1:pos:R:3:Z:I:1 energy=-289.2841092939206 field_type=dipole dipole="0.000000 0.000000 0.000000" charge=0
C	-1.761960	-0.074438	-0.056950	6
C	-0.254160	-0.362938	-0.175970	6
C	0.169630	-1.258598	1.002390	6
C	0.000530	-1.136268	-1.484910	6
C	0.488220	0.963182	-0.244290	6
C	0.827780	1.778632	0.981590	6
N	1.865130	1.075622	0.231350	7
H	-2.116600	0.535122	-0.896220	1
H	-1.985780	0.477432	0.863240	1
H	-2.346770	-1.001058	-0.044650	1
H	-0.037230	-0.785458	1.967890	1
H	1.239330	-1.492728	0.967480	1
H	-0.373840	-2.210768	0.987170	1
H	-0.319510	-0.556178	-2.358260	1
H	-0.542020	-2.088248	-1.499270	1
H	1.067270	-1.353948	-1.611800	1
H	0.250140	1.518782	-1.147380	1
H	0.610410	1.389902	1.967420	1
H	0.820160	2.859132	0.902640	1
H	2.399270	1.722822	-0.351470	1
Es	2.021600	0.794502	0.374385	99
Es	1.512540	1.446251	0.638345	99
Es	-0.209101	-1.905055	0.984353	99
Es	2.169534	1.477236	-0.121650	99
Es	1.864830	1.075905	0.231246	99
Es	0.678457	1.515600	1.650715	99
Es	0.727040	-1.283715	-1.568716	99
Es	-0.125108	-0.749016	-0.838881	99
Es	-1.014475	-0.211109	-0.117618	99
Es	0.169607	-1.258583	1.002378	99
Es	0.000525	-1.136259	-1.484907	99
Es	-2.000032	0.342910	-0.634513	99
Es	-2.155816	-0.710113	-0.050049	99
Es	-0.221629	-0.733429	-2.080467	99
Es	0.327274	1.345993	-0.863396	99
Es	-0.035320	-0.802251	0.420578	99
Es	0.827922	1.778504	0.981416	99
Es	-1.911586	0.301112	0.573486	99
Es	1.317410	0.954026	-0.096180	99
Es	0.024640	-0.929246	1.660700	99
Es	0.890449	-1.419436	0.975286	99
Es	-1.761952	-0.074435	-0.056955	99
Es	-0.373113	-1.784956	-1.489715	99
Es	-0.254166	-0.362934	-0.175977	99
Es	0.488434	0.963233	-0.244152	99
Es	0.135701	0.300944	-0.192580	99
Es	0.434400	1.426342	0.410248	99
Es	0.822127	2.516705	0.926382	99
48
Properties=species:S:1:pos:R:3:Z:I:1 energy=-289.2841092939206 field_type=dipole dipole="0.000000 0.000000 0.000000" charge=0
C	-1.761960	-0.074438	-0.056950	6
C	-0.254160	-0.362938	-0.175970	6
C	0.169630	-1.258598	1.002390	6
C	0.000530	-1.136268	-1.484910	6
C	0.488220	0.963182	-0.244290	6
C	0.827780	1.778632	0.981590	6
N	1.865130	1.075622	0.231350	7
H	-2.116600	0.535122	-0.896220	1
H	-1.985780	0.477432	0.863240	1
H	-2.346770	-1.001058	-0.044650	1
H	-0.037230	-0.785458	1.967890	1
H	1.239330	-1.492728	0.967480	1
H	-0.373840	-2.210768	0.987170	1
H	-0.319510	-0.556178	-2.358260	1
H	-0.542020	-2.088248	-1.499270	1
H	1.067270	-1.353948	-1.611800	1
H	0.250140	1.518782	-1.147380	1
H	0.610410	1.389902	1.967420	1
H	0.820160	2.859132	0.902640	1
H	2.399270	1.722822	-0.351470	1
Es	0.024633	-0.929290	1.660700	99
Es	0.890449	-1.419457	0.975306	99
Es	-0.125115	-0.749002	-0.838828	99
Es	1.512737	1.445944	0.638943	99
Es	0.488434	0.963232	-0.244154	99
Es	0.169607	-1.258582	1.002379	99
Es	2.021295	0.794731	0.373901	99
Es	0.434156	1.426433	0.410320	99
Es	1.864767	1.076074	0.231145	99
Es	0.135708	0.300896	-0.192640	99
Es	1.317471	0.953874	-0.096446	99
Es	-0.221601	-0.733452	-2.080467	99
Es	-1.014454	-0.211038	-0.117644	99
Es	0.827929	1.778492	0.981394	99
Es	-0.035336	-0.802204	0.420582	99
Es	0.678484	1.515700	1.650650	99
Es	-0.209075	-1.905024	0.984356	99
Es	-2.155813	-0.710106	-0.050046	99
Es	-0.373066	-1.784994	-1.489760	99
Es	0.327305	1.345954	-0.863355	99
Es	2.169803	1.477246	-0.121418	99
Es	-2.000055	0.342891	-0.634489	99
Es	0.726977	-1.283675	-1.568733	99
Es	-1.911598	0.301111	0.573483	99
Es	-1.761952	-0.074435	-0.056955	99
Es	0.000523	-1.136260	-1.484907	99
Es	0.822146	2.516602	0.926418	99
Es	-0.254166	-0.362934	-0.175977	99
48
Properties=species:S:1:pos:R:3:Z:I:1 energy=-289.2841092939206 field_type=dipole dipole="0.000000 0.000000 0.000000" charge=0
C	-1.761960	-0.074438	-0.056950	6
C	-0.254160	-0.362938	-0.175970	6
C	0.169630	-1.258598	1.002390	6
C	0.000530	-1.136268	-1.484910	6
C	0.488220	0.963182	-0.244290	6
C	0.827780	1.778632	0.981590	6
N	1.865130	1.075622	0.231350	7
H	-2.116600	0.535122	-0.896220	1
H	-1.985780	0.477432	0.863240	1
H	-2.346770	-1.001058	-0.044650	1
H	-0.037230	-0.785458	1.967890	1
H	1.239330	-1.492728	0.967480	1
H	-0.373840	-2.210768	0.987170	1
H	-0.319510	-0.556178	-2.358260	1
H	-0.542020	-2.088248	-1.499270	1
H	1.067270	-1.353948	-1.611800	1
H	0.250140	1.518782	-1.147380	1
H	0.610410	1.389902	1.967420	1
H	0.820160	2.859132	0.902640	1
H	2.399270	1.722822	-0.351470	1
Es	0.000523	-1.136253	-1.484899	99
Es	0.169607	-1.258581	1.002377	99
Es	-1.761952	-0.074434	-0.056956	99
Es	-0.125097	-0.748959	-0.838825	99
Es	-2.000053	0.342874	-0.634445	99
Es	0.827921	1.778505	0.981417	99
Es	0.678504	1.515725	1.650596	99
Es	-0.373057	-1.784929	-1.489761	99
Es	-0.209069	-1.905017	0.984385	99
Es	0.488412	0.963240	-0.244180	99
Es	-1.014403	-0.211058	-0.117627	99
Es	0.024658	-0.929313	1.660695	99
Es	0.822142	2.516555	0.926459	99
Es	0.327354	1.345873	-0.863283	99
Es	-0.254165	-0.362934	-0.175976	99
Es	-1.911628	0.301107	0.573455	99
Es	0.434010	1.426456	0.410275	99
Es	-0.035296	-0.802164	0.420546	99
Es	2.169722	1.476931	-0.121581	99
Es	2.021373	0.795008	0.374153	99
Es	0.135662	0.300895	-0.192669	99
Es	1.317360	0.953562	-0.096396	99
Es	0.726980	-1.283733	-1.568764	99
Es	-0.221611	-0.733488	-2.080477	99
Es	-2.155844	-0.710071	-0.050062	99
Es	1.512972	1.446320	0.638833	99
Es	1.864752	1.076087	0.231140	99
Es	0.890417	-1.419480	0.975329	99
48
Properties=species:S:1:pos:R:3:Z:I:1 energy=-289.2841092939206 field_type=dipole dipole="0.000000 0.000000 0.000000" charge=0
C	-1.761960	-0.074438	-0.056950	6
C	-0.254160	-0.362938	-0.175970	6
C	0.169630	-1.258598	1.002390	6
C	0.000530	-1.136268	-1.484910	6
C	0.488220	0.963182	-0.244290	6
C	0.827780	1.778632	0.981590	6
N	1.865130	1.075622	0.231350	7
H	-2.116600	0.535122	-0.896220	1
H	-1.985780	0.477432	0.863240	1
H	-2.346770	-1.001058	-0.044650	1
H	-0.037230	-0.785458	1.967890	1
H	1.239330	-1.492728	0.967480	1
H	-0.373840	-2.210768	0.987170	1
H	-0.319510	-0.556178	-2.358260	1
H	-0.542020	-2.088248	-1.499270	1
H	1.067270	-1.353948	-1.611800	1
H	0.250140	1.518782	-1.147380	1
H	0.610410	1.389902	1.967420	1
H	0.820160	2.859132	0.902640	1
H	2.399270	1.722822	-0.351470	1
Es	0.433787	1.426555	0.410297	99
Es	0.135630	0.300860	-0.192693	99
Es	-0.373044	-1.784932	-1.489784	99
Es	-1.761952	-0.074435	-0.056955	99
Es	-0.209031	-1.905038	0.984441	99
Es	0.169608	-1.258583	1.002378	99
Es	-2.000077	0.342878	-0.634437	99
Es	0.726956	-1.283727	-1.568787	99
Es	0.822168	2.516480	0.926508	99
Es	0.488434	0.963235	-0.244150	99
Es	-0.035291	-0.802165	0.420495	99
Es	-0.221596	-0.733521	-2.080466	99
Es	-0.254166	-0.362934	-0.175977	99
Es	1.317568	0.953398	-0.096649	99
Es	-1.014361	-0.211055	-0.117629	99
Es	0.327365	1.345833	-0.863254	99
Es	-0.125086	-0.748894	-0.838792	99
Es	-1.911645	0.301088	0.573432	99
Es	0.890390	-1.419464	0.975383	99
Es	1.512925	1.446390	0.638901	99
Es	0.678540	1.515780	1.650543	99
Es	2.021059	0.795279	0.374125	99
Es	0.000525	-1.136259	-1.484907	99
Es	0.827923	1.778502	0.981413	99
Es	-2.155855	-0.710025	-0.050053	99
Es	1.864752	1.076067	0.231155	99
Es	2.170014	1.476733	-0.121436	99
Es	0.024658	-0.929320	1.660658	99
48
Properties=species:S:1:pos:R:3:Z:I:1 energy=-289.2841092939206 field_type=dipole dipole="0.000000 0.000000 0.000000" charge=0
C	-1.761960	-0.074438	-0.056950	6
C	-0.254160	-0.362938	-0.175970	6
C	0.169630	-1.258598	1.002390	6
C	0.000530	-1.136268	-1.484910	6
C	0.488220	0.963182	-0.244290	6
C	0.827780	1.778632	0.981590	6
N	1.865130	1.075622	0.231350	7
H	-2.116600	0.535122	-0.896220	1
H	-1.985780	0.477432	0.863240	1
H	-2.346770	-1.001058	-0.044650	1
H	-0.037230	-0.785458	1.967890	1
H	1.239330	-1.492728	0.967480	1
H	-0.373840	-2.210768	0.987170	1
H	-0.319510	-0.556178	-2.358260	1
H	-0.542020	-2.088248	-1.499270	1
H	1.067270	-1.353948	-1.611800	1
H	0.250140	1.518782	-1.147380	1
H	0.610410	1.389902	1.967420	1
H	0.820160	2.859132	0.902640	1
H	2.399270	1.722822	-0.351470	1
Es	2.170139	1.476605	-0.121380	99
Es	0.024691	-0.929374	1.660688	99
Es	0.327377	1.345786	-0.863197	99
Es	0.890368	-1.419497	0.975372	99
Es	-0.221568	-0.733537	-2.080461	99
Es	-0.125073	-0.748876	-0.838802	99
Es	-1.761952	-0.074435	-0.056955	99
Es	1.513071	1.446358	0.639126	99
Es	0.822209	2.516411	0.926559	99
Es	0.678612	1.515853	1.650484	99
Es	0.726923	-1.283733	-1.568803	99
Es	0.488435	0.963235	-0.244150	99
Es	-1.014317	-0.211013	-0.117606	99
Es	-0.035252	-0.802054	0.420509	99
Es	-2.000098	0.342860	-0.634405	99
Es	1.317587	0.953220	-0.096788	99
Es	-0.209038	-1.905015	0.984418	99
Es	0.827923	1.778502	0.981413	99
Es	2.020823	0.795598	0.373932	99
Es	-0.373052	-1.784943	-1.489798	99
Es	0.000525	-1.136259	-1.484907	99
Es	1.864806	1.076050	0.231144	99
Es	-2.155863	-0.710019	-0.050044	99
Es	0.135615	0.300831	-0.192758	99
Es	-0.254166	-0.362935	-0.175978	99
Es	0.433529	1.426608	0.410361	99
Es	-1.911667	0.301083	0.573406	99
Es	0.169607	-1.258583	1.002378	99
48
Properties=species:S:1:pos:R:3:Z:I:1 energy=-289.2841092939206 field_type=dipole dipole="0.000000 0.000000 0.000000" charge=0
C	-1.761960	-0.074438	-0.056950	6
C	-0.254160	-0.362938	-0.175970	6
C	0.169630	-1.258598	1.002390	6
C	0.000530	-1.136268	-1.484910	6
C	0.488220	0.963182	-0.244290	6
C	0.827780	1.778632	0.981590	6
N	1.865130	1.075622	0.231350	7
H	-2.116600	0.535122	-0.896220	1
H	-1.985780	0.477432	0.863240	1
H	-2.346770	-1.001058	-0.044650	1
H	-0.037230	-0.785458	1.967890	1
H	1.239330	-1.492728	0.967480	1
H	-0.373840	-2.210768	0.987170	1
H	-0.319510	-0.556178	-2.358260	1
H	-0.542020	-2.088248	-1.499270	1
H	1.067270	-1.353948	-1.611800	1
H	0.250140	1.518782	-1.147380	1
H	0.610410	1.389902	1.967420	1
H	0.820160	2.859132	0.902640	1
H	2.399270	1.722822	-0.351470	1
Es	-0.221561	-0.733581	-2.080469	99
Es	0.169607	-1.258583	1.002379	99
Es	0.488435	0.963235	-0.244149	99
Es	-0.254166	-0.362935	-0.175978	99
Es	-0.125077	-0.748854	-0.838748	99
Es	0.024700	-0.929406	1.660683	99
Es	-0.035254	-0.802016	0.420499	99
Es	0.433400	1.426685	0.410354	99
Es	0.822193	2.516339	0.926580	99
Es	-1.761952	-0.074435	-0.056955	99
Es	-1.911695	0.301066	0.573390	99
Es	-2.155852	-0.709972	-0.050048	99
Es	0.890344	-1.419515	0.975398	99
Es	2.170247	1.476481	-0.121316	99
Es	0.726902	-1.283757	-1.568828	99
Es	0.000525	-1.136259	-1.484907	99
Es	0.327404	1.345740	-0.863150	99
Es	0.678601	1.515897	1.650441	99
Es	-1.014280	-0.211003	-0.117606	99
Es	2.020678	0.795810	0.373778	99
Es	1.864773	1.076064	0.231150	99
Es	0.827925	1.778500	0.981410	99
Es	-2.000122	0.342848	-0.634396	99
Es	-0.209024	-1.905003	0.984436	99
Es	1.513268	1.446380	0.639338	99
Es	-0.373016	-1.784901	-1.489827	99
Es	1.317601	0.953091	-0.096920	99
Es	0.135593	0.300811	-0.192777	99
