48
Properties=species:S:1:pos:R:3:Z:I:1 energy=-289.3060198045893 field_type=dipole dipole="0.000000 0.000000 0.000000" charge=0
C	-1.368878	-0.723503	-1.592824	6
C	-1.430648	-0.089202	-0.230844	6
C	-2.218258	-0.583532	0.736896	6
C	-0.591828	1.151638	-0.014004	6
C	0.921552	0.930568	-0.124784	6
C	1.455742	-0.061522	0.907746	6
N	2.906672	-0.181632	0.786246	7
H	-1.606438	0.012868	-2.366944	1
H	-2.080568	-1.549773	-1.692204	1
H	-0.369138	-1.124952	-1.786544	1
H	-2.831028	-1.466372	0.578066	1
H	-2.277058	-0.118552	1.717486	1
H	-0.810518	1.591918	0.967736	1
H	-0.892998	1.905498	-0.752704	1
H	1.417862	1.900087	0.012316	1
H	1.176782	0.594068	-1.137214	1
H	1.007252	-1.050592	0.767836	1
H	1.210281	0.278568	1.919606	1
H	3.141342	-0.531802	-0.141874	1
H	3.239882	-0.883772	1.446006	1
Es	-1.395928	-0.407791	-0.914139	99
Es	2.906408	-0.182158	0.786149	99
Es	0.921502	0.930542	-0.124769	99
Es	-1.852499	-1.284031	-1.655068	99
Es	1.285777	0.173211	1.601895	99
Es	-1.368868	-0.723484	-1.592795	99
Es	-1.593765	-0.537212	0.376404	99
Es	1.182698	0.431902	0.389505	99
Es	0.152401	1.017862	-0.072658	99
Es	3.070845	0.128444	0.841888	99
Es	1.255141	1.590745	-0.028243	99
Es	-0.591816	1.151594	-0.014024	99
Es	-2.218318	-0.583574	0.736976	99
Es	1.136647	-0.741591	0.806676	99
Es	-0.689484	-0.988218	-1.716110	99
Es	3.093793	-0.621978	1.178967	99
Es	-2.637624	-1.186000	0.632154	99
Es	-0.740119	1.445199	0.660871	99
Es	-2.087915	-0.156572	0.170245	99
Es	-2.259788	-0.269834	1.407452	99
Es	2.277731	-0.151677	0.832434	99
Es	-1.003986	0.519925	-0.123895	99
Es	1.455881	-0.061508	0.907706	99
Es	1.096094	0.689909	-0.819039	99
Es	-1.430561	-0.089149	-0.230963	99
Es	-0.799589	1.655764	-0.523789	99
Es	-1.526098	-0.218027	-2.109766	99
Es	3.031335	-0.411742	0.224678	99
48
Properties=species:S:1:pos:R:3:Z:I:1 energy=-289.3060198045893 field_type=dipole dipole="0.000000 0.000000 0.000000" charge=0
C	-1.368878	-0.723503	-1.592824	6
C	-1.430648	-0.089202	-0.230844	6
C	-2.218258	-0.583532	0.736896	6
C	-0.591828	1.151638	-0.014004	6
C	0.921552	0.930568	-0.124784	6
C	1.455742	-0.061522	0.907746	6
N	2.906672	-0.181632	0.786246	7
H	-1.606438	0.012868	-2.366944	1
H	-2.080568	-1.549773	-1.692204	1
H	-0.369138	-1.124952	-1.786544	1
H	-2.831028	-1.466372	0.578066	1
H	-2.277058	-0.118552	1.717486	1
H	-0.810518	1.591918	0.967736	1
H	-0.892998	1.905498	-0.752704	1
H	1.417862	1.900087	0.012316	1
H	1.176782	0.594068	-1.137214	1
H	1.007252	-1.050592	0.767836	1
H	1.210281	0.278568	1.919606	1
H	3.141342	-0.531802	-0.141874	1
H	3.239882	-0.883772	1.446006	1
Es	3.070720	0.128272	0.841906	99
Es	-2.259941	-0.269661	1.407400	99
Es	-1.525949	-0.218117	-2.109925	99
Es	3.031407	-0.411691	0.224588	99
Es	1.255222	1.590818	-0.028199	99
Es	-0.740133	1.445044	0.660765	99
Es	-1.004087	0.520094	-0.123891	99
Es	1.096102	0.689830	-0.819013	99
Es	2.906434	-0.182132	0.786151	99
Es	1.455883	-0.061507	0.907707	99
Es	-0.689582	-0.988107	-1.715899	99
Es	-1.852401	-1.284162	-1.655170	99
Es	2.277740	-0.151737	0.832477	99
Es	1.182478	0.431883	0.389497	99
Es	0.921502	0.930542	-0.124771	99
Es	-1.396246	-0.407757	-0.914209	99
Es	-0.799592	1.655919	-0.523719	99
Es	1.285753	0.173150	1.601926	99
Es	3.093844	-0.621927	1.179004	99
Es	-2.087169	-0.156830	0.170247	99
Es	1.136670	-0.741453	0.806697	99
Es	0.152568	1.017920	-0.072693	99
Es	-1.430561	-0.089152	-0.230962	99
Es	-1.593875	-0.537402	0.376632	99
Es	-0.591817	1.151593	-0.014022	99
Es	-1.368868	-0.723485	-1.592795	99
Es	-2.218314	-0.583577	0.736976	99
Es	-2.637897	-1.185814	0.632033	99
48
Properties=species:S:1:pos:R:3:Z:I:1 energy=-289.3060198045893 field_type=dipole dipole="0.000000 0.000000 0.000000" charge=0
C	-1.368878	-0.723503	-1.592824	6
C	-1.430648	-0.089202	-0.230844	6
C	-2.218258	-0.583532	0.736896	6
C	-0.591828	1.151638	-0.014004	6
C	0.921552	0.930568	-0.124784	6
C	1.455742	-0.061522	0.907746	6
N	2.906672	-0.181632	0.786246	7
H	-1.606438	0.012868	-2.366944	1
H	-2.080568	-1.549773	-1.692204	1
H	-0.369138	-1.124952	-1.786544	1
H	-2.831028	-1.466372	0.578066	1
H	-2.277058	-0.118552	1.717486	1
H	-0.810518	1.591918	0.967736	1
H	-0.892998	1.905498	-0.752704	1
H	1.417862	1.900087	0.012316	1
H	1.176782	0.594068	-1.137214	1
H	1.007252	-1.050592	0.767836	1
H	1.210281	0.278568	1.919606	1
H	3.141342	-0.531802	-0.141874	1
H	3.239882	-0.883772	1.446006	1
Es	-2.637760	-1.185910	0.632069	99
Es	-2.087423	-0.156761	0.170313	99
Es	-0.799757	1.655913	-0.523646	99
Es	-0.740020	1.445026	0.660688	99
Es	-1.396046	-0.407879	-0.914290	99
Es	-1.593885	-0.537205	0.376473	99
Es	2.277622	-0.151674	0.832597	99
Es	0.921503	0.930541	-0.124771	99
Es	1.136709	-0.741477	0.806692	99
Es	-1.852505	-1.284021	-1.655071	99
Es	1.182562	0.431814	0.389451	99
Es	3.094003	-0.621925	1.178971	99
Es	1.455883	-0.061507	0.907707	99
Es	1.255241	1.590767	-0.028247	99
Es	-2.218318	-0.583570	0.736969	99
Es	-2.259850	-0.269806	1.407432	99
Es	1.285698	0.173200	1.601934	99
Es	3.070747	0.128186	0.841810	99
Es	0.152598	1.017850	-0.072880	99
Es	2.906406	-0.182152	0.786144	99
Es	-1.526087	-0.218039	-2.109772	99
Es	-0.591817	1.151594	-0.014023	99
Es	-0.689482	-0.988232	-1.716100	99
Es	-1.430559	-0.089153	-0.230962	99
Es	-1.368868	-0.723484	-1.592796	99
Es	3.031356	-0.411614	0.224643	99
Es	1.096139	0.689874	-0.818913	99
Es	-1.004193	0.520196	-0.123683	99
48
Properties=species:S:1:pos:R:3:Z:I:1 energy=-289.3060198045893 field_type=dipole dipole="0.000000 0.000000 0.000000" charge=0
C	-1.368878	-0.723503	-1.592824	6
C	-1.430648	-0.089202	-0.230844	6
C	-2.218258	-0.583532	0.736896	6
C	-0.591828	1.151638	-0.014004	6
C	0.921552	0.930568	-0.124784	6
C	1.455742	-0.061522	0.907746	6
N	2.906672	-0.181632	0.786246	7
H	-1.606438	0.012868	-2.366944	1
H	-2.080568	-1.549773	-1.692204	1
H	-0.369138	-1.124952	-1.786544	1
H	-2.831028	-1.466372	0.578066	1
H	-2.277058	-0.118552	1.717486	1
H	-0.810518	1.591918	0.967736	1
H	-0.892998	1.905498	-0.752704	1
H	1.417862	1.900087	0.012316	1
H	1.176782	0.594068	-1.137214	1
H	1.007252	-1.050592	0.767836	1
H	1.210281	0.278568	1.919606	1
H	3.141342	-0.531802	-0.141874	1
H	3.239882	-0.883772	1.446006	1
Es	-1.526112	-0.218134	-2.109685	99
Es	1.096187	0.689814	-0.818886	99
Es	-1.430554	-0.089150	-0.230966	99
Es	-1.852464	-1.284088	-1.655150	99
Es	-1.594154	-0.537010	0.376294	99
Es	-2.218316	-0.583573	0.736974	99
Es	-2.259816	-0.269801	1.407479	99
Es	-1.396124	-0.407919	-0.914179	99
Es	-2.637630	-1.185999	0.632104	99
Es	3.031301	-0.411756	0.224510	99
Es	2.277649	-0.151808	0.832835	99
Es	-2.087474	-0.156808	0.170298	99
Es	1.136622	-0.741375	0.806761	99
Es	1.455883	-0.061508	0.907706	99
Es	-0.799627	1.655863	-0.523705	99
Es	1.255257	1.590718	-0.028296	99
Es	-0.740167	1.445071	0.660722	99
Es	3.094165	-0.621665	1.178974	99
Es	0.921503	0.930542	-0.124771	99
Es	-1.368864	-0.723486	-1.592797	99
Es	-0.689452	-0.988119	-1.716175	99
Es	-1.003973	0.520237	-0.123709	99
Es	3.070680	0.128046	0.841698	99
Es	1.182510	0.432067	0.389471	99
Es	-0.591819	1.151596	-0.014023	99
Es	0.152490	1.017850	-0.072742	99
Es	2.906405	-0.182128	0.786146	99
Es	1.285788	0.173075	1.601852	99
48
Properties=species:S:1:pos:R:3:Z:I:1 energy=-289.3060198045893 field_type=dipole dipole="0.000000 0.000000 0.000000" charge=0
C	-1.368878	-0.723503	-1.592824	6
C	-1.430648	-0.089202	-0.230844	6
C	-2.218258	-0.583532	0.736896	6
C	-0.591828	1.151638	-0.014004	6
C	0.921552	0.930568	-0.124784	6
C	1.455742	-0.061522	0.907746	6
N	2.906672	-0.181632	0.786246	7
H	-1.606438	0.012868	-2.366944	1
H	-2.080568	-1.549773	-1.692204	1
H	-0.369138	-1.124952	-1.786544	1
H	-2.831028	-1.466372	0.578066	1
H	-2.277058	-0.118552	1.717486	1
H	-0.810518	1.591918	0.967736	1
H	-0.892998	1.905498	-0.752704	1
H	1.417862	1.900087	0.012316	1
H	1.176782	0.594068	-1.137214	1
H	1.007252	-1.050592	0.767836	1
H	1.210281	0.278568	1.919606	1
H	3.141342	-0.531802	-0.141874	1
H	3.239882	-0.883772	1.446006	1
Es	1.096151	0.689972	-0.818954	99
Es	3.070541	0.127702	0.841723	99
Es	0.152506	1.018049	-0.072681	99
Es	-1.396084	-0.408022	-0.914331	99
Es	-1.004094	0.520162	-0.123900	99
Es	0.921503	0.930542	-0.124773	99
Es	2.906433	-0.182118	0.786148	99
Es	-1.852430	-1.283998	-1.655017	99
Es	-1.594118	-0.536980	0.376400	99
Es	1.182572	0.431929	0.389375	99
Es	-2.637722	-1.185997	0.632037	99
Es	1.136648	-0.741312	0.806782	99
Es	1.285741	0.173073	1.601851	99
Es	2.277516	-0.151670	0.832637	99
Es	-1.368867	-0.723485	-1.592796	99
Es	3.031554	-0.411446	0.224616	99
Es	-0.689451	-0.988223	-1.716191	99
Es	-2.218317	-0.583575	0.736975	99
Es	-0.591816	1.151594	-0.014023	99
Es	-1.526221	-0.218037	-2.109759	99
Es	-1.430559	-0.089152	-0.230963	99
Es	-2.087213	-0.156873	0.170380	99
Es	3.094213	-0.621794	1.179034	99
Es	-2.259883	-0.269783	1.407426	99
Es	-0.740229	1.445004	0.660758	99
Es	-0.799581	1.655864	-0.523489	99
Es	1.455881	-0.061507	0.907707	99
Es	1.255221	1.590634	-0.028233	99
48
Properties=species:S:1:pos:R:3:Z:I:1 energy=-289.3060198045893 field_type=dipole dipole="0.000000 0.000000 0.000000" charge=0
C	-1.368878	-0.723503	-1.592824	6
C	-1.430648	-0.089202	-0.230844	6
C	-2.218258	-0.583532	0.736896	6
C	-0.591828	1.151638	-0.014004	6
C	0.921552	0.930568	-0.124784	6
C	1.455742	-0.061522	0.907746	6
N	2.906672	-0.181632	0.786246	7
H	-1.606438	0.012868	-2.366944	1
H	-2.080568	-1.549773	-1.692204	1
H	-0.369138	-1.124952	-1.786544	1
H	-2.831028	-1.466372	0.578066	1
H	-2.277058	-0.118552	1.717486	1
H	-0.810518	1.591918	0.967736	1
H	-0.892998	1.905498	-0.752704	1
H	1.417862	1.900087	0.012316	1
H	1.176782	0.594068	-1.137214	1
H	1.007252	-1.050592	0.767836	1
H	1.210281	0.278568	1.919606	1
H	3.141342	-0.531802	-0.141874	1
H	3.239882	-0.883772	1.446006	1
Es	-1.526012	-0.217932	-2.109810	99
Es	1.285688	0.173069	1.601822	99
Es	3.070693	0.127865	0.842038	99
Es	-1.003961	0.520336	-0.123497	99
Es	-1.396155	-0.408181	-0.914186	99
Es	-0.689587	-0.988279	-1.716058	99
Es	-2.259920	-0.269718	1.407432	99
Es	-0.799704	1.655811	-0.523670	99
Es	0.152547	1.017909	-0.072874	99
Es	-0.591819	1.151599	-0.014024	99
Es	-1.430558	-0.089151	-0.230964	99
Es	-0.740184	1.445086	0.660655	99
Es	1.182501	0.431847	0.389458	99
Es	1.455880	-0.061508	0.907707	99
Es	1.136679	-0.741263	0.806820	99
Es	-1.594237	-0.536943	0.376251	99
Es	3.031631	-0.411349	0.224581	99
Es	1.255248	1.590666	-0.028339	99
Es	-2.637707	-1.185958	0.632065	99
Es	-1.852425	-1.283953	-1.655232	99
Es	2.906426	-0.182092	0.786169	99
Es	2.277541	-0.151849	0.832656	99
Es	-1.368868	-0.723483	-1.592796	99
Es	-2.218312	-0.583568	0.736970	99
Es	1.096193	0.689954	-0.818778	99
Es	0.921503	0.930542	-0.124772	99
Es	-2.087206	-0.156998	0.170370	99
Es	3.094018	-0.621911	1.178747	99
48
Properties=species:S:1:pos:R:3:Z:I:1 energy=-289.3060198045893 field_type=dipole dipole="0.000000 0.000000 0.000000" charge=0
C	-1.368878	-0.723503	-1.592824	6
C	-1.430648	-0.089202	-0.230844	6
C	-2.218258	-0.583532	0.736896	6
C	-0.591828	1.151638	-0.014004	6
C	0.921552	0.930568	-0.124784	6
C	1.455742	-0.061522	0.907746	6
N	2.906672	-0.181632	0.786246	7
H	-1.606438	0.012868	-2.366944	1
H	-2.080568	-1.549773	-1.692204	1
H	-0.369138	-1.124952	-1.786544	1
H	-2.831028	-1.466372	0.578066	1
H	-2.277058	-0.118552	1.717486	1
H	-0.810518	1.591918	0.967736	1
H	-0.892998	1.905498	-0.752704	1
H	1.417862	1.900087	0.012316	1
H	1.176782	0.594068	-1.137214	1
H	1.007252	-1.050592	0.767836	1
H	1.210281	0.278568	1.919606	1
H	3.141342	-0.531802	-0.141874	1
H	3.239882	-0.883772	1.446006	1
Es	-0.689542	-0.988220	-1.716114	99
Es	-1.368867	-0.723485	-1.592797	99
Es	1.182548	0.431932	0.389431	99
Es	-0.591818	1.151595	-0.014023	99
Es	0.152577	1.017900	-0.072826	99
Es	-2.637687	-1.185997	0.632100	99
Es	3.070781	0.127816	0.841772	99
Es	-1.526048	-0.218065	-2.109774	99
Es	-1.396220	-0.408133	-0.914357	99
Es	1.096194	0.690018	-0.818809	99
Es	-1.004048	0.520389	-0.123578	99
Es	3.031504	-0.411495	0.224743	99
Es	0.921503	0.930543	-0.124774	99
Es	1.455881	-0.061506	0.907706	99
Es	2.277485	-0.151736	0.832630	99
Es	2.906423	-0.182142	0.786138	99
Es	-2.218317	-0.583574	0.736974	99
Es	-2.259899	-0.269682	1.407422	99
Es	-1.852448	-1.284014	-1.655173	99
Es	-1.594265	-0.536836	0.376358	99
Es	3.094129	-0.621854	1.178871	99
Es	1.255211	1.590634	-0.028310	99
Es	1.285759	0.173007	1.601810	99
Es	-0.799748	1.655769	-0.523640	99
Es	-1.430562	-0.089154	-0.230953	99
Es	-0.740250	1.445074	0.660673	99
Es	1.136624	-0.741210	0.806836	99
Es	-2.087005	-0.157022	0.170402	99
48
Properties=species:S:1:pos:R:3:Z:I:1 energy=-289.3060198045893 field_type=dipole dipole="0.000000 0.000000 0.000000" charge=0
C	-1.368878	-0.723503	-1.592824	6
C	-1.430648	-0.089202	-0.230844	6
C	-2.218258	-0.583532	0.736896	6
C	-0.591828	1.151638	-0.014004	6
C	0.921552	0.930568	-0.124784	6
C	1.455742	-0.061522	0.907746	6
N	2.906672	-0.181632	0.786246	7
H	-1.606438	0.012868	-2.366944	1
H	-2.080568	-1.549773	-1.692204	1
H	-0.369138	-1.124952	-1.786544	1
H	-2.831028	-1.466372	0.578066	1
H	-2.277058	-0.118552	1.717486	1
H	-0.810518	1.591918	0.967736	1
H	-0.892998	1.905498	-0.752704	1
H	1.417862	1.900087	0.012316	1
H	1.176782	0.594068	-1.137214	1
H	1.007252	-1.050592	0.767836	1
H	1.210281	0.278568	1.919606	1
H	3.141342	-0.531802	-0.141874	1
H	3.239882	-0.883772	1.446006	1
Es	-2.637677	-1.186058	0.632048	99
Es	-0.799743	1.655801	-0.523588	99
Es	1.455881	-0.061508	0.907708	99
Es	1.285715	0.173019	1.601770	99
Es	0.921503	0.930543	-0.124774	99
Es	3.031633	-0.411428	0.224664	99
Es	-1.430560	-0.089153	-0.230959	99
Es	2.906432	-0.182090	0.786164	99
Es	-0.689682	-0.988301	-1.716123	99
Es	-1.525886	-0.218053	-2.109781	99
Es	-1.852610	-1.283985	-1.655174	99
Es	1.255240	1.590537	-0.028267	99
Es	1.136668	-0.741207	0.806882	99
Es	2.277436	-0.151595	0.832706	99
Es	-0.740150	1.445092	0.660589	99
Es	0.152552	1.017852	-0.072870	99
Es	3.070683	0.127509	0.841746	99
Es	-1.368869	-0.723485	-1.592797	99
Es	-1.004140	0.520529	-0.123419	99
Es	1.182520	0.431825	0.389346	99
Es	-2.087065	-0.157030	0.170442	99
Es	-0.591816	1.151595	-0.014022	99
Es	-1.594387	-0.536706	0.376227	99
Es	-2.259838	-0.269797	1.407440	99
Es	-1.396028	-0.408117	-0.914290	99
Es	-2.218318	-0.583573	0.736973	99
Es	3.094181	-0.621771	1.178909	99
Es	1.096219	0.690106	-0.818810	99
48
Properties=species:S:1:pos:R:3:Z:I:1 energy=-289.3060198045893 field_type=dipole dipole="0.000000 0.000000 0.000000" charge=0
C	-1.368878	-0.723503	-1.592824	6
C	-1.430648	-0.089202	-0.230844	6
C	-2.218258	-0.583532	0.736896	6
C	-0.591828	1.151638	-0.014004	6
C	0.921552	0.930568	-0.124784	6
C	1.455742	-0.061522	0.907746	6
N	2.906672	-0.181632	0.786246	7
H	-1.606438	0.012868	-2.366944	1
H	-2.080568	-1.549773	-1.692204	1
H	-0.369138	-1.124952	-1.786544	1
H	-2.831028	-1.466372	0.578066	1
H	-2.277058	-0.118552	1.717486	1
H	-0.810518	1.591918	0.967736	1
H	-0.892998	1.905498	-0.752704	1
H	1.417862	1.900087	0.012316	1
H	1.176782	0.594068	-1.137214	1
H	1.007252	-1.050592	0.767836	1
H	1.210281	0.278568	1.919606	1
H	3.141342	-0.531802	-0.141874	1
H	3.239882	-0.883772	1.446006	1
Es	-1.430561	-0.089153	-0.230960	99
Es	-0.740224	1.445017	0.660577	99
Es	-0.689539	-0.988141	-1.716164	99
Es	-2.259837	-0.269727	1.407460	99
Es	-1.526142	-0.218064	-2.109765	99
Es	-1.594477	-0.536644	0.376143	99
Es	1.285746	0.172966	1.601761	99
Es	1.455880	-0.061508	0.907707	99
Es	1.096113	0.689922	-0.818678	99
Es	3.031573	-0.411460	0.224725	99
Es	-2.637730	-1.186007	0.632039	99
Es	-1.396195	-0.408256	-0.914385	99
Es	-1.003999	0.520518	-0.123357	99
Es	0.921502	0.930544	-0.124774	99
Es	1.255194	1.590725	-0.028534	99
Es	2.277383	-0.151618	0.832761	99
Es	3.094502	-0.621602	1.179100	99
Es	2.906418	-0.182142	0.786146	99
Es	-2.218317	-0.583573	0.736972	99
Es	-2.086886	-0.157142	0.170536	99
Es	-1.852390	-1.284071	-1.655136	99
Es	1.136636	-0.741143	0.806893	99
Es	-0.799842	1.655812	-0.523604	99
Es	3.070518	0.127382	0.841432	99
Es	-0.591816	1.151595	-0.014022	99
Es	0.152578	1.017731	-0.072746	99
Es	-1.368867	-0.723488	-1.592799	99
Es	1.182673	0.432079	0.389413	99
48
Properties=species:S:1:pos:R:3:Z:I:1 energy=-289.3060198045893 field_type=dipole dipole="0.000000 0.000000 0.000000" charge=0
C	-1.368878	-0.723503	-1.592824	6
C	-1.430648	-0.089202	-0.230844	6
C	-2.218258	-0.583532	0.736896	6
C	-0.591828	1.151638	-0.014004	6
C	0.921552	0.930568	-0.124784	6
C	1.455742	-0.061522	0.907746	6
N	2.906672	-0.181632	0.786246	7
H	-1.606438	0.012868	-2.366944	1
H	-2.080568	-1.549773	-1.692204	1
H	-0.369138	-1.124952	-1.786544	1
H	-2.831028	-1.466372	0.578066	1
H	-2.277058	-0.118552	1.717486	1
H	-0.810518	1.591918	0.967736	1
H	-0.892998	1.905498	-0.752704	1
H	1.417862	1.900087	0.012316	1
H	1.176782	0.594068	-1.137214	1
H	1.007252	-1.050592	0.767836	1
H	1.210281	0.278568	1.919606	1
H	3.141342	-0.531802	-0.141874	1
H	3.239882	-0.883772	1.446006	1
Es	1.136717	-0.741084	0.806915	99
Es	2.906432	-0.182091	0.786155	99
Es	-2.259866	-0.269707	1.407470	99
Es	-1.368868	-0.723485	-1.592797	99
Es	-0.591818	1.151596	-0.014022	99
Es	3.031718	-0.411170	0.224628	99
Es	1.285692	0.172870	1.601729	99
Es	-0.799790	1.655779	-0.523608	99
Es	-0.740339	1.445018	0.660596	99
Es	-1.852409	-1.283894	-1.655203	99
Es	2.277373	-0.151605	0.832800	99
Es	3.070670	0.127302	0.841894	99
Es	-2.637737	-1.185992	0.632015	99
Es	-1.526061	-0.218011	-2.109790	99
Es	-2.086800	-0.157289	0.170629	99
Es	-2.218323	-0.583570	0.736971	99
Es	0.152623	1.017849	-0.072853	99
Es	1.182496	0.431987	0.389486	99
Es	-1.396320	-0.408355	-0.914361	99
Es	-0.689522	-0.988318	-1.716108	99
Es	-1.003934	0.520663	-0.123361	99
Es	-1.594524	-0.536567	0.376009	99
Es	1.455881	-0.061508	0.907707	99
Es	3.094260	-0.621854	1.178734	99
Es	-1.430563	-0.089153	-0.230963	99
Es	1.255169	1.590577	-0.028473	99
Es	1.096232	0.690023	-0.818691	99
Es	0.921504	0.930541	-0.124770	99
48
Properties=species:S:1:pos:R:3:Z:I:1 energy=-289.3060198045893 field_type=dipole dipole="0.000000 0.000000 0.000000" charge=0
C	-1.368878	-0.723503	-1.592824	6
C	-1.430648	-0.089202	-0.230844	6
C	-2.218258	-0.583532	0.736896	6
C	-0.591828	1.151638	-0.014004	6
C	0.921552	0.930568	-0.124784	6
C	1.455742	-0.061522	0.907746	6
N	2.906672	-0.181632	0.786246	7
H	-1.606438	0.012868	-2.366944	1
H	-2.080568	-1.549773	-1.692204	1
H	-0.369138	-1.124952	-1.786544	1
H	-2.831028	-1.466372	0.578066	1
H	-2.277058	-0.118552	1.717486	1
H	-0.810518	1.591918	0.967736	1
H	-0.892998	1.905498	-0.752704	1
H	1.417862	1.900087	0.012316	1
H	1.176782	0.594068	-1.137214	1
H	1.007252	-1.050592	0.767836	1
H	1.210281	0.278568	1.919606	1
H	3.141342	-0.531802	-0.141874	1
H	3.239882	-0.883772	1.446006	1
Es	2.906426	-0.182120	0.786165	99
Es	-0.689545	-0.988217	-1.716091	99
Es	0.921503	0.930543	-0.124772	99
Es	-2.086784	-0.157263	0.170516	99
Es	-2.259769	-0.269733	1.407503	99
Es	-2.218316	-0.583572	0.736972	99
Es	-1.368868	-0.723485	-1.592797	99
Es	-0.799863	1.655875	-0.523427	99
Es	-2.637687	-1.186036	0.632058	99
Es	1.255253	1.590442	-0.028399	99
Es	1.182444	0.431927	0.389407	99
Es	-0.740228	1.444887	0.660587	99
Es	1.136682	-0.741054	0.806966	99
Es	1.455880	-0.061509	0.907709	99
Es	1.285720	0.172893	1.601701	99
Es	1.096248	0.690087	-0.818719	99
Es	-1.526049	-0.218043	-2.109783	99
Es	-1.430562	-0.089155	-0.230958	99
Es	3.031739	-0.411387	0.224752	99
Es	-1.594735	-0.536455	0.376016	99
Es	-1.004031	0.520679	-0.123380	99
Es	-1.396233	-0.408404	-0.914407	99
Es	0.152600	1.018014	-0.072933	99
Es	-1.852432	-1.284009	-1.655190	99
Es	3.094323	-0.621658	1.178962	99
Es	3.070655	0.127211	0.841587	99
Es	-0.591819	1.151597	-0.014022	99
Es	2.277341	-0.151502	0.832717	99
48
Properties=species:S:1:pos:R:3:Z:I:1 energy=-289.3060198045893 field_type=dipole dipole="0.000000 0.000000 0.000000" charge=0
C	-1.368878	-0.723503	-1.592824	6
C	-1.430648	-0.089202	-0.230844	6
C	-2.218258	-0.583532	0.736896	6
C	-0.591828	1.151638	-0.014004	6
C	0.921552	0.930568	-0.124784	6
C	1.455742	-0.061522	0.907746	6
N	2.906672	-0.181632	0.786246	7
H	-1.606438	0.012868	-2.366944	1
H	-2.080568	-1.549773	-1.692204	1
H	-0.369138	-1.124952	-1.786544	1
H	-2.831028	-1.466372	0.578066	1
H	-2.277058	-0.118552	1.717486	1
H	-0.810518	1.591918	0.967736	1
H	-0.892998	1.905498	-0.752704	1
H	1.417862	1.900087	0.012316	1
H	1.176782	0.594068	-1.137214	1
H	1.007252	-1.050592	0.767836	1
H	1.210281	0.278568	1.919606	1
H	3.141342	-0.531802	-0.141874	1
H	3.239882	-0.883772	1.446006	1
Es	2.277207	-0.151354	0.832851	99
Es	3.070404	0.126588	0.841552	99
Es	1.285711	0.172927	1.601714	99
Es	-0.591817	1.151596	-0.014023	99
Es	3.031859	-0.411186	0.224595	99
Es	-2.637649	-1.186075	0.632075	99
Es	-1.396207	-0.408412	-0.914391	99
Es	-1.368869	-0.723484	-1.592797	99
Es	-1.430562	-0.089149	-0.230964	99
Es	-0.689540	-0.988217	-1.716191	99
Es	0.921504	0.930543	-0.124779	99
Es	-0.799802	1.655720	-0.523558	99
Es	1.182548	0.431871	0.389326	99
Es	-1.004043	0.520737	-0.123199	99
Es	1.136681	-0.741033	0.806989	99
Es	1.455878	-0.061507	0.907707	99
Es	-1.594787	-0.536347	0.375916	99
Es	2.906498	-0.181937	0.786192	99
Es	-1.852434	-1.283988	-1.655188	99
Es	-2.218316	-0.583573	0.736973	99
Es	-0.740315	1.445086	0.660496	99
Es	-2.086755	-0.157386	0.170569	99
Es	0.152603	1.017863	-0.072839	99
Es	-1.526085	-0.218086	-2.109733	99
Es	3.094505	-0.621604	1.179001	99
Es	-2.259776	-0.269692	1.407508	99
Es	1.096237	0.690162	-0.818657	99
Es	1.255215	1.590492	-0.028408	99
48
Properties=species:S:1:pos:R:3:Z:I:1 energy=-289.3060198045893 field_type=dipole dipole="0.000000 0.000000 0.000000" charge=0
C	-1.368878	-0.723503	-1.592824	6
C	-1.430648	-0.089202	-0.230844	6
C	-2.218258	-0.583532	0.736896	6
C	-0.591828	1.151638	-0.014004	6
C	0.921552	0.930568	-0.124784	6
C	1.455742	-0.061522	0.907746	6
N	2.906672	-0.181632	0.786246	7
H	-1.606438	0.012868	-2.366944	1
H	-2.080568	-1.549773	-1.692204	1
H	-0.369138	-1.124952	-1.786544	1
H	-2.831028	-1.466372	0.578066	1
H	-2.277058	-0.118552	1.717486	1
H	-0.810518	1.591918	0.967736	1
H	-0.892998	1.905498	-0.752704	1
H	1.417862	1.900087	0.012316	1
H	1.176782	0.594068	-1.137214	1
H	1.007252	-1.050592	0.767836	1
H	1.210281	0.278568	1.919606	1
H	3.141342	-0.531802	-0.141874	1
H	3.239882	-0.883772	1.446006	1
Es	1.255187	1.590471	-0.028490	99
Es	0.921503	0.930543	-0.124772	99
Es	-1.852445	-1.283959	-1.655183	99
Es	1.455873	-0.061513	0.907716	99
Es	-1.396317	-0.408449	-0.914479	99
Es	1.182485	0.431893	0.389334	99
Es	3.031815	-0.411266	0.224695	99
Es	-2.259709	-0.269715	1.407550	99
Es	1.136707	-0.741002	0.807128	99
Es	2.277254	-0.151290	0.832812	99
Es	-1.526048	-0.218040	-2.109781	99
Es	-0.591815	1.151595	-0.014022	99
Es	-0.799888	1.655743	-0.523450	99
Es	3.070661	0.126849	0.841596	99
Es	-2.218308	-0.583575	0.736972	99
Es	2.906422	-0.182137	0.786154	99
Es	-1.430562	-0.089151	-0.230948	99
Es	-0.689563	-0.988266	-1.716128	99
Es	-1.594910	-0.536261	0.375780	99
Es	-1.368867	-0.723484	-1.592795	99
Es	1.285731	0.172938	1.601621	99
Es	-1.004007	0.520789	-0.123163	99
Es	-0.740267	1.445011	0.660532	99
Es	3.094390	-0.621653	1.178928	99
Es	0.152615	1.017881	-0.072969	99
Es	-2.637651	-1.186106	0.632044	99
Es	-2.086649	-0.157420	0.170681	99
Es	1.096256	0.690124	-0.818623	99
48
Properties=species:S:1:pos:R:3:Z:I:1 energy=-289.3060198045893 field_type=dipole dipole="0.000000 0.000000 0.000000" charge=0
C	-1.368878	-0.723503	-1.592824	6
C	-1.430648	-0.089202	-0.230844	6
C	-2.218258	-0.583532	0.736896	6
C	-0.591828	1.151638	-0.014004	6
C	0.921552	0.930568	-0.124784	6
C	1.455742	-0.061522	0.907746	6
N	2.906672	-0.181632	0.786246	7
H	-1.606438	0.012868	-2.366944	1
H	-2.080568	-1.549773	-1.692204	1
H	-0.369138	-1.124952	-1.786544	1
H	-2.831028	-1.466372	0.578066	1
H	-2.277058	-0.118552	1.717486	1
H	-0.810518	1.591918	0.967736	1
H	-0.892998	1.905498	-0.752704	1
H	1.417862	1.900087	0.012316	1
H	1.176782	0.594068	-1.137214	1
H	1.007252	-1.050592	0.767836	1
H	1.210281	0.278568	1.919606	1
H	3.141342	-0.531802	-0.141874	1
H	3.239882	-0.883772	1.446006	1
Es	-0.740337	1.444956	0.660472	99
Es	0.152637	1.017938	-0.073023	99
Es	-1.594936	-0.536287	0.375851	99
Es	-0.689562	-0.988182	-1.716047	99
Es	-1.368868	-0.723483	-1.592797	99
Es	2.906419	-0.182122	0.786155	99
Es	3.070663	0.126880	0.841638	99
Es	-1.852388	-1.284038	-1.655216	99
Es	0.921506	0.930547	-0.124772	99
Es	-2.218309	-0.583574	0.736971	99
Es	-2.086390	-0.157554	0.170681	99
Es	1.096327	0.690207	-0.818552	99
Es	-0.799931	1.655758	-0.523440	99
Es	-1.003965	0.520896	-0.123143	99
Es	1.255175	1.590421	-0.028476	99
Es	-2.637711	-1.186069	0.632014	99
Es	3.094453	-0.621706	1.178836	99
Es	-1.526012	-0.218118	-2.109831	99
Es	1.285696	0.172805	1.601623	99
Es	-1.396478	-0.408424	-0.914494	99
Es	-2.259809	-0.269634	1.407513	99
Es	-1.430567	-0.089151	-0.230956	99
Es	-0.591817	1.151586	-0.014026	99
Es	3.031775	-0.411170	0.224693	99
Es	1.455877	-0.061509	0.907713	99
Es	1.136759	-0.740950	0.807084	99
Es	1.182461	0.431924	0.389329	99
Es	2.277226	-0.151396	0.832941	99
48
Properties=species:S:1:pos:R:3:Z:I:1 energy=-289.3060198045893 field_type=dipole dipole="0.000000 0.000000 0.000000" charge=0
C	-1.368878	-0.723503	-1.592824	6
C	-1.430648	-0.089202	-0.230844	6
C	-2.218258	-0.583532	0.736896	6
C	-0.591828	1.151638	-0.014004	6
C	0.921552	0.930568	-0.124784	6
C	1.455742	-0.061522	0.907746	6
N	2.906672	-0.181632	0.786246	7
H	-1.606438	0.012868	-2.366944	1
H	-2.080568	-1.549773	-1.692204	1
H	-0.369138	-1.124952	-1.786544	1
H	-2.831028	-1.466372	0.578066	1
H	-2.277058	-0.118552	1.717486	1
H	-0.810518	1.591918	0.967736	1
H	-0.892998	1.905498	-0.752704	1
H	1.417862	1.900087	0.012316	1
H	1.176782	0.594068	-1.137214	1
H	1.007252	-1.050592	0.767836	1
H	1.210281	0.278568	1.919606	1
H	3.141342	-0.531802	-0.141874	1
H	3.239882	-0.883772	1.446006	1
Es	2.906455	-0.182011	0.786177	99
Es	-1.004051	0.520932	-0.123059	99
Es	2.277185	-0.151285	0.832847	99
Es	-0.591817	1.151596	-0.014023	99
Es	3.070504	0.126524	0.841508	99
Es	-1.595076	-0.536208	0.375742	99
Es	0.921503	0.930543	-0.124772	99
Es	-2.086210	-0.157643	0.170778	99
Es	3.094530	-0.621583	1.178985	99
Es	1.455879	-0.061508	0.907708	99
Es	-1.430564	-0.089151	-0.230961	99
Es	-2.637781	-1.186006	0.631957	99
Es	-2.259764	-0.269633	1.407570	99
Es	1.182475	0.431918	0.389348	99
Es	1.285711	0.172798	1.601632	99
Es	-0.740311	1.445040	0.660502	99
Es	-1.852317	-1.284092	-1.655148	99
Es	-2.218315	-0.583571	0.736970	99
Es	-1.396395	-0.408605	-0.914580	99
Es	1.096284	0.690214	-0.818543	99
Es	-0.689495	-0.988081	-1.716227	99
Es	3.031903	-0.411174	0.224690	99
Es	0.152609	1.017922	-0.073036	99
Es	-1.368869	-0.723484	-1.592798	99
Es	-0.799876	1.655688	-0.523388	99
Es	-1.526245	-0.218055	-2.109715	99
Es	1.136718	-0.740927	0.807072	99
Es	1.255225	1.590395	-0.028497	99
48
Properties=species:S:1:pos:R:3:Z:I:1 energy=-289.3060198045893 field_type=dipole dipole="0.000000 0.000000 0.000000" charge=0
C	-1.368878	-0.723503	-1.592824	6
C	-1.430648	-0.089202	-0.230844	6
C	-2.218258	-0.583532	0.736896	6
C	-0.591828	1.151638	-0.014004	6
C	0.921552	0.930568	-0.124784	6
C	1.455742	-0.061522	0.907746	6
N	2.906672	-0.181632	0.786246	7
H	-1.606438	0.012868	-2.366944	1
H	-2.080568	-1.549773	-1.692204	1
H	-0.369138	-1.124952	-1.786544	1
H	-2.831028	-1.466372	0.578066	1
H	-2.277058	-0.118552	1.717486	1
H	-0.810518	1.591918	0.967736	1
H	-0.892998	1.905498	-0.752704	1
H	1.417862	1.900087	0.012316	1
H	1.176782	0.594068	-1.137214	1
H	1.007252	-1.050592	0.767836	1
H	1.210281	0.278568	1.919606	1
H	3.141342	-0.531802	-0.141874	1
H	3.239882	-0.883772	1.446006	1
Es	1.455878	-0.061508	0.907708	99
Es	-1.852430	-1.283980	-1.655232	99
Es	2.277168	-0.152158	0.832744	99
Es	-1.396441	-0.408567	-0.914543	99
Es	-0.591816	1.151597	-0.014023	99
Es	-2.259816	-0.269604	1.407518	99
Es	1.182506	0.431973	0.389358	99
Es	1.136712	-0.740877	0.807094	99
Es	-2.218314	-0.583574	0.736963	99
Es	2.906424	-0.182123	0.786148	99
Es	0.152609	1.017949	-0.072977	99
Es	-0.689551	-0.988226	-1.716123	99
Es	1.255189	1.590356	-0.028534	99
Es	3.032396	-0.410238	0.224420	99
Es	-1.526034	-0.218076	-2.109759	99
Es	-2.086194	-0.157682	0.170734	99
Es	-1.368868	-0.723486	-1.592798	99
Es	3.094491	-0.621949	1.178412	99
Es	-0.740313	1.445014	0.660444	99
Es	1.285704	0.172758	1.601595	99
Es	-2.637750	-1.186044	0.631985	99
Es	1.096290	0.690220	-0.818554	99
Es	-1.003997	0.520960	-0.122973	99
Es	-0.799928	1.655715	-0.523443	99
Es	-1.430560	-0.089155	-0.230955	99
Es	3.070122	0.126889	0.842525	99
Es	0.921505	0.930545	-0.124774	99
Es	-1.595091	-0.536177	0.375777	99
