48
Properties=species:S:1:pos:R:3:Z:I:1 energy=-289.30262233426174 field_type=dipole dipole="0.000000 0.000000 0.000000" charge=0
C	-2.125923	-0.710735	0.330585	6
C	-0.621793	-0.634055	0.218655	6
C	0.018727	-2.001585	0.209855	6
C	0.072697	0.528095	0.132295	6
C	-0.583853	1.889115	0.046165	6
C	1.583107	0.610075	0.139735	6
N	2.088647	0.853885	-1.204185	7
H	-2.586933	0.222075	0.664975	1
H	-2.410903	-1.468565	1.070215	1
H	-2.562853	-0.992135	-0.633355	1
H	-0.541303	-2.675145	-0.449165	1
H	0.014357	-2.426825	1.218765	1
H	1.045937	-2.000675	-0.162465	1
H	-1.635253	1.846545	-0.246795	1
H	-0.089153	2.510935	-0.708185	1
H	-0.512033	2.401705	1.011185	1
H	2.048187	-0.289795	0.552325	1
H	1.899487	1.428385	0.797655	1
H	1.792777	0.083965	-1.802875	1
H	3.106077	0.824735	-1.185385	1
Es	-2.307969	-1.230502	0.829928	99
Es	2.705686	0.818760	-1.181125	99
Es	1.792320	1.173614	0.587847	99
Es	-2.434799	-0.074494	0.552823	99
Es	-1.379636	-0.659788	0.271695	99
Es	1.973181	1.161280	-1.335962	99
Es	0.018715	-2.001560	0.209853	99
Es	-0.531797	2.229019	0.704328	99
Es	1.877427	0.728750	-0.619643	99
Es	-2.413642	-0.902479	-0.323491	99
Es	-0.369797	-2.451304	-0.235724	99
Es	-0.244808	2.301146	-0.456240	99
Es	1.583119	0.610102	0.139599	99
Es	-0.267860	1.205834	0.090385	99
Es	-0.583841	1.889076	0.046180	99
Es	-0.277600	-0.069183	-0.164709	99
Es	1.919299	0.371973	-1.550564	99
Es	-0.286433	-1.317809	0.215827	99
Es	-0.257164	-0.035474	0.510905	99
Es	-1.301168	1.853020	-0.147031	99
Es	0.072760	0.528207	0.132291	99
Es	-0.621871	-0.634192	0.218658	99
Es	1.897457	-0.017653	0.427277	99
Es	0.720060	-1.994549	-0.041201	99
Es	0.828319	0.555177	0.130685	99
Es	-2.125891	-0.710742	0.330582	99
Es	2.088817	0.853414	-1.203981	99
Es	0.011422	-2.283612	0.893628	99
48
Properties=species:S:1:pos:R:3:Z:I:1 energy=-289.30262233426174 field_type=dipole dipole="0.000000 0.000000 0.000000" charge=0
C	-2.125923	-0.710735	0.330585	6
C	-0.621793	-0.634055	0.218655	6
C	0.018727	-2.001585	0.209855	6
C	0.072697	0.528095	0.132295	6
C	-0.583853	1.889115	0.046165	6
C	1.583107	0.610075	0.139735	6
N	2.088647	0.853885	-1.204185	7
H	-2.586933	0.222075	0.664975	1
H	-2.410903	-1.468565	1.070215	1
H	-2.562853	-0.992135	-0.633355	1
H	-0.541303	-2.675145	-0.449165	1
H	0.014357	-2.426825	1.218765	1
H	1.045937	-2.000675	-0.162465	1
H	-1.635253	1.846545	-0.246795	1
H	-0.089153	2.510935	-0.708185	1
H	-0.512033	2.401705	1.011185	1
H	2.048187	-0.289795	0.552325	1
H	1.899487	1.428385	0.797655	1
H	1.792777	0.083965	-1.802875	1
H	3.106077	0.824735	-1.185385	1
Es	-0.257156	-0.035519	0.510773	99
Es	-2.307981	-1.230512	0.829958	99
Es	2.705985	0.819004	-1.180919	99
Es	0.018716	-2.001557	0.209855	99
Es	1.876902	0.728817	-0.619741	99
Es	-2.125890	-0.710742	0.330581	99
Es	0.720030	-1.994564	-0.041267	99
Es	1.897392	-0.017650	0.427251	99
Es	-0.621864	-0.634187	0.218659	99
Es	1.583119	0.610102	0.139598	99
Es	-0.244794	2.301183	-0.456168	99
Es	0.072759	0.528205	0.132290	99
Es	2.088831	0.853397	-1.203962	99
Es	-1.301156	1.852995	-0.147104	99
Es	1.973469	1.160659	-1.335671	99
Es	0.011459	-2.283668	0.893654	99
Es	-1.379807	-0.659700	0.271709	99
Es	-0.583841	1.889078	0.046179	99
Es	-2.413614	-0.902483	-0.323513	99
Es	-0.267854	1.205803	0.090327	99
Es	-0.286248	-1.317785	0.215875	99
Es	1.919229	0.372271	-1.551008	99
Es	1.792384	1.173597	0.587878	99
Es	-0.369887	-2.451221	-0.235756	99
Es	-0.531866	2.228996	0.704351	99
Es	0.828378	0.555227	0.130627	99
Es	-0.277571	-0.069188	-0.164420	99
Es	-2.434815	-0.074528	0.552781	99
48
Properties=species:S:1:pos:R:3:Z:I:1 energy=-289.30262233426174 field_type=dipole dipole="0.000000 0.000000 0.000000" charge=0
C	-2.125923	-0.710735	0.330585	6
C	-0.621793	-0.634055	0.218655	6
C	0.018727	-2.001585	0.209855	6
C	0.072697	0.528095	0.132295	6
C	-0.583853	1.889115	0.046165	6
C	1.583107	0.610075	0.139735	6
N	2.088647	0.853885	-1.204185	7
H	-2.586933	0.222075	0.664975	1
H	-2.410903	-1.468565	1.070215	1
H	-2.562853	-0.992135	-0.633355	1
H	-0.541303	-2.675145	-0.449165	1
H	0.014357	-2.426825	1.218765	1
H	1.045937	-2.000675	-0.162465	1
H	-1.635253	1.846545	-0.246795	1
H	-0.089153	2.510935	-0.708185	1
H	-0.512033	2.401705	1.011185	1
H	2.048187	-0.289795	0.552325	1
H	1.899487	1.428385	0.797655	1
H	1.792777	0.083965	-1.802875	1
H	3.106077	0.824735	-1.185385	1
Es	2.705864	0.819054	-1.180754	99
Es	-1.379826	-0.659913	0.271821	99
Es	0.011449	-2.283624	0.893682	99
Es	-2.307996	-1.230351	0.829939	99
Es	-0.369910	-2.451216	-0.235710	99
Es	0.072760	0.528206	0.132290	99
Es	-2.413577	-0.902661	-0.323463	99
Es	1.583119	0.610101	0.139603	99
Es	-0.257174	-0.035515	0.510374	99
Es	0.018714	-2.001560	0.209854	99
Es	-1.300997	1.852982	-0.147175	99
Es	-0.286051	-1.317795	0.215847	99
Es	-0.244783	2.301147	-0.456217	99
Es	1.876664	0.728868	-0.619724	99
Es	-0.621866	-0.634185	0.218661	99
Es	2.088828	0.853386	-1.203972	99
Es	-2.434817	-0.074318	0.552719	99
Es	1.973583	1.160610	-1.335877	99
Es	1.792374	1.173579	0.587876	99
Es	-0.277663	-0.069122	-0.164220	99
Es	1.897372	-0.017606	0.427270	99
Es	0.828444	0.555087	0.130668	99
Es	0.720018	-1.994650	-0.041283	99
Es	-2.125889	-0.710739	0.330581	99
Es	1.919495	0.372220	-1.551029	99
Es	-0.267986	1.205874	0.090472	99
Es	-0.583841	1.889077	0.046180	99
Es	-0.532002	2.229094	0.704405	99
48
Properties=species:S:1:pos:R:3:Z:I:1 energy=-289.30262233426174 field_type=dipole dipole="0.000000 0.000000 0.000000" charge=0
C	-2.125923	-0.710735	0.330585	6
C	-0.621793	-0.634055	0.218655	6
C	0.018727	-2.001585	0.209855	6
C	0.072697	0.528095	0.132295	6
C	-0.583853	1.889115	0.046165	6
C	1.583107	0.610075	0.139735	6
N	2.088647	0.853885	-1.204185	7
H	-2.586933	0.222075	0.664975	1
H	-2.410903	-1.468565	1.070215	1
H	-2.562853	-0.992135	-0.633355	1
H	-0.541303	-2.675145	-0.449165	1
H	0.014357	-2.426825	1.218765	1
H	1.045937	-2.000675	-0.162465	1
H	-1.635253	1.846545	-0.246795	1
H	-0.089153	2.510935	-0.708185	1
H	-0.512033	2.401705	1.011185	1
H	2.048187	-0.289795	0.552325	1
H	1.899487	1.428385	0.797655	1
H	1.792777	0.083965	-1.802875	1
H	3.106077	0.824735	-1.185385	1
Es	-1.301073	1.853069	-0.147088	99
Es	-0.244774	2.301186	-0.456205	99
Es	0.018706	-2.001544	0.209858	99
Es	1.919088	0.372308	-1.550925	99
Es	1.583119	0.610101	0.139598	99
Es	0.011508	-2.283683	0.893761	99
Es	-2.125890	-0.710742	0.330582	99
Es	2.088831	0.853383	-1.203973	99
Es	-2.307987	-1.230468	0.829918	99
Es	1.897376	-0.017605	0.427351	99
Es	-0.621863	-0.634182	0.218666	99
Es	-0.583841	1.889078	0.046179	99
Es	-2.434794	-0.074554	0.552829	99
Es	-1.379837	-0.659681	0.271771	99
Es	0.072760	0.528207	0.132293	99
Es	0.719888	-1.994676	-0.041293	99
Es	-0.369880	-2.451189	-0.235747	99
Es	0.828527	0.555159	0.130747	99
Es	1.973616	1.160466	-1.335730	99
Es	-2.413658	-0.902474	-0.323552	99
Es	1.792368	1.173563	0.587797	99
Es	-0.257235	-0.035501	0.510208	99
Es	-0.268096	1.205802	0.090351	99
Es	-0.285947	-1.317787	0.215793	99
Es	-0.531889	2.228990	0.704386	99
Es	2.705946	0.818972	-1.181202	99
Es	1.876965	0.728970	-0.619550	99
Es	-0.277630	-0.069135	-0.164005	99
48
Properties=species:S:1:pos:R:3:Z:I:1 energy=-289.30262233426174 field_type=dipole dipole="0.000000 0.000000 0.000000" charge=0
C	-2.125923	-0.710735	0.330585	6
C	-0.621793	-0.634055	0.218655	6
C	0.018727	-2.001585	0.209855	6
C	0.072697	0.528095	0.132295	6
C	-0.583853	1.889115	0.046165	6
C	1.583107	0.610075	0.139735	6
N	2.088647	0.853885	-1.204185	7
H	-2.586933	0.222075	0.664975	1
H	-2.410903	-1.468565	1.070215	1
H	-2.562853	-0.992135	-0.633355	1
H	-0.541303	-2.675145	-0.449165	1
H	0.014357	-2.426825	1.218765	1
H	1.045937	-2.000675	-0.162465	1
H	-1.635253	1.846545	-0.246795	1
H	-0.089153	2.510935	-0.708185	1
H	-0.512033	2.401705	1.011185	1
H	2.048187	-0.289795	0.552325	1
H	1.899487	1.428385	0.797655	1
H	1.792777	0.083965	-1.802875	1
H	3.106077	0.824735	-1.185385	1
Es	-0.285873	-1.317746	0.215815	99
Es	-0.257246	-0.035502	0.510028	99
Es	0.011526	-2.283647	0.893676	99
Es	1.919075	0.372365	-1.550849	99
Es	-0.531927	2.229003	0.704379	99
Es	-0.244806	2.301212	-0.456209	99
Es	0.072759	0.528204	0.132287	99
Es	-2.413657	-0.902467	-0.323531	99
Es	-1.301029	1.853062	-0.147080	99
Es	-0.583840	1.889077	0.046179	99
Es	0.719921	-1.994688	-0.041278	99
Es	2.705916	0.818832	-1.181250	99
Es	-1.379920	-0.659590	0.271695	99
Es	1.876981	0.729028	-0.619541	99
Es	0.018714	-2.001561	0.209854	99
Es	-0.369907	-2.451239	-0.235716	99
Es	-2.125892	-0.710742	0.330583	99
Es	1.897333	-0.017514	0.427281	99
Es	0.828554	0.554955	0.130767	99
Es	-2.307913	-1.230528	0.829941	99
Es	-2.434846	-0.074595	0.552839	99
Es	2.088821	0.853415	-1.203980	99
Es	-0.268106	1.205871	0.090338	99
Es	1.583119	0.610101	0.139602	99
Es	1.973690	1.160486	-1.335834	99
Es	-0.277626	-0.069115	-0.163744	99
Es	-0.621865	-0.634187	0.218656	99
Es	1.792355	1.173541	0.587911	99
48
Properties=species:S:1:pos:R:3:Z:I:1 energy=-289.30262233426174 field_type=dipole dipole="0.000000 0.000000 0.000000" charge=0
C	-2.125923	-0.710735	0.330585	6
C	-0.621793	-0.634055	0.218655	6
C	0.018727	-2.001585	0.209855	6
C	0.072697	0.528095	0.132295	6
C	-0.583853	1.889115	0.046165	6
C	1.583107	0.610075	0.139735	6
N	2.088647	0.853885	-1.204185	7
H	-2.586933	0.222075	0.664975	1
H	-2.410903	-1.468565	1.070215	1
H	-2.562853	-0.992135	-0.633355	1
H	-0.541303	-2.675145	-0.449165	1
H	0.014357	-2.426825	1.218765	1
H	1.045937	-2.000675	-0.162465	1
H	-1.635253	1.846545	-0.246795	1
H	-0.089153	2.510935	-0.708185	1
H	-0.512033	2.401705	1.011185	1
H	2.048187	-0.289795	0.552325	1
H	1.899487	1.428385	0.797655	1
H	1.792777	0.083965	-1.802875	1
H	3.106077	0.824735	-1.185385	1
Es	1.583119	0.610102	0.139603	99
Es	0.072758	0.528205	0.132289	99
Es	-2.307987	-1.230579	0.829955	99
Es	-0.621864	-0.634183	0.218661	99
Es	0.719984	-1.994643	-0.041132	99
Es	-0.268133	1.205882	0.090265	99
Es	-0.285853	-1.317795	0.216021	99
Es	1.876584	0.729414	-0.619387	99
Es	1.974605	1.160381	-1.335626	99
Es	-0.244857	2.301282	-0.456206	99
Es	0.018714	-2.001561	0.209855	99
Es	-0.277614	-0.069102	-0.163576	99
Es	-1.379930	-0.659512	0.271764	99
Es	-0.531953	2.228976	0.704386	99
Es	1.792302	1.173473	0.587936	99
Es	-2.434809	-0.074595	0.552813	99
Es	2.088840	0.853376	-1.203972	99
Es	-0.369949	-2.451214	-0.235904	99
Es	1.918728	0.372695	-1.551424	99
Es	-1.300984	1.853063	-0.147039	99
Es	1.897349	-0.017563	0.427261	99
Es	-2.125892	-0.710742	0.330582	99
Es	2.705739	0.818359	-1.181057	99
Es	0.828632	0.554886	0.130773	99
Es	0.011463	-2.283725	0.893511	99
Es	-2.413621	-0.902392	-0.323529	99
Es	-0.257225	-0.035535	0.509821	99
Es	-0.583841	1.889078	0.046179	99
48
Properties=species:S:1:pos:R:3:Z:I:1 energy=-289.30262233426174 field_type=dipole dipole="0.000000 0.000000 0.000000" charge=0
C	-2.125923	-0.710735	0.330585	6
C	-0.621793	-0.634055	0.218655	6
C	0.018727	-2.001585	0.209855	6
C	0.072697	0.528095	0.132295	6
C	-0.583853	1.889115	0.046165	6
C	1.583107	0.610075	0.139735	6
N	2.088647	0.853885	-1.204185	7
H	-2.586933	0.222075	0.664975	1
H	-2.410903	-1.468565	1.070215	1
H	-2.562853	-0.992135	-0.633355	1
H	-0.541303	-2.675145	-0.449165	1
H	0.014357	-2.426825	1.218765	1
H	1.045937	-2.000675	-0.162465	1
H	-1.635253	1.846545	-0.246795	1
H	-0.089153	2.510935	-0.708185	1
H	-0.512033	2.401705	1.011185	1
H	2.048187	-0.289795	0.552325	1
H	1.899487	1.428385	0.797655	1
H	1.792777	0.083965	-1.802875	1
H	3.106077	0.824735	-1.185385	1
Es	-2.413696	-0.902469	-0.323499	99
Es	0.018714	-2.001561	0.209854	99
Es	0.011564	-2.283651	0.893674	99
Es	-2.434840	-0.074613	0.552830	99
Es	1.583119	0.610101	0.139603	99
Es	0.072760	0.528205	0.132289	99
Es	1.792335	1.173488	0.587916	99
Es	-2.307910	-1.230509	0.829959	99
Es	-0.621865	-0.634180	0.218661	99
Es	-0.268264	1.205891	0.090341	99
Es	2.088847	0.853380	-1.203964	99
Es	2.705792	0.818838	-1.181237	99
Es	-0.369914	-2.451254	-0.235718	99
Es	0.719885	-1.994703	-0.041281	99
Es	-0.583841	1.889078	0.046179	99
Es	-1.301005	1.853115	-0.147070	99
Es	1.919226	0.372398	-1.550857	99
Es	-0.277622	-0.069097	-0.163320	99
Es	1.877031	0.728893	-0.619553	99
Es	-0.285720	-1.317758	0.215807	99
Es	-0.244795	2.301217	-0.456206	99
Es	1.897295	-0.017436	0.427312	99
Es	-0.257251	-0.035531	0.509609	99
Es	-2.125893	-0.710742	0.330582	99
Es	-1.379990	-0.659519	0.271662	99
Es	-0.531936	2.229000	0.704367	99
Es	1.973644	1.160602	-1.335923	99
Es	0.828640	0.554847	0.130802	99
48
Properties=species:S:1:pos:R:3:Z:I:1 energy=-289.30262233426174 field_type=dipole dipole="0.000000 0.000000 0.000000" charge=0
C	-2.125923	-0.710735	0.330585	6
C	-0.621793	-0.634055	0.218655	6
C	0.018727	-2.001585	0.209855	6
C	0.072697	0.528095	0.132295	6
C	-0.583853	1.889115	0.046165	6
C	1.583107	0.610075	0.139735	6
N	2.088647	0.853885	-1.204185	7
H	-2.586933	0.222075	0.664975	1
H	-2.410903	-1.468565	1.070215	1
H	-2.562853	-0.992135	-0.633355	1
H	-0.541303	-2.675145	-0.449165	1
H	0.014357	-2.426825	1.218765	1
H	1.045937	-2.000675	-0.162465	1
H	-1.635253	1.846545	-0.246795	1
H	-0.089153	2.510935	-0.708185	1
H	-0.512033	2.401705	1.011185	1
H	2.048187	-0.289795	0.552325	1
H	1.899487	1.428385	0.797655	1
H	1.792777	0.083965	-1.802875	1
H	3.106077	0.824735	-1.185385	1
Es	-0.621867	-0.634183	0.218660	99
Es	-1.301044	1.853117	-0.147069	99
Es	2.706007	0.819059	-1.181600	99
Es	1.897283	-0.017414	0.427300	99
Es	-2.307994	-1.230516	0.829903	99
Es	-0.285682	-1.317763	0.215889	99
Es	0.011597	-2.283627	0.893664	99
Es	-0.268325	1.205913	0.090426	99
Es	-0.369941	-2.451290	-0.235747	99
Es	-0.277551	-0.069105	-0.163271	99
Es	1.583119	0.610102	0.139602	99
Es	-2.413610	-0.902442	-0.323551	99
Es	1.876959	0.729117	-0.619322	99
Es	-0.257232	-0.035591	0.509391	99
Es	-2.434852	-0.074600	0.552817	99
Es	2.088809	0.853435	-1.203982	99
Es	-0.244761	2.301234	-0.456197	99
Es	1.919016	0.372576	-1.550875	99
Es	-1.380026	-0.659485	0.271824	99
Es	-0.531939	2.228973	0.704321	99
Es	1.792309	1.173474	0.587950	99
Es	-0.583841	1.889078	0.046179	99
Es	-2.125892	-0.710742	0.330582	99
Es	0.828667	0.554824	0.130820	99
Es	0.018714	-2.001561	0.209854	99
Es	0.072760	0.528205	0.132292	99
Es	0.719852	-1.994703	-0.041259	99
Es	1.973773	1.159947	-1.335783	99
48
Properties=species:S:1:pos:R:3:Z:I:1 energy=-289.30262233426174 field_type=dipole dipole="0.000000 0.000000 0.000000" charge=0
C	-2.125923	-0.710735	0.330585	6
C	-0.621793	-0.634055	0.218655	6
C	0.018727	-2.001585	0.209855	6
C	0.072697	0.528095	0.132295	6
C	-0.583853	1.889115	0.046165	6
C	1.583107	0.610075	0.139735	6
N	2.088647	0.853885	-1.204185	7
H	-2.586933	0.222075	0.664975	1
H	-2.410903	-1.468565	1.070215	1
H	-2.562853	-0.992135	-0.633355	1
H	-0.541303	-2.675145	-0.449165	1
H	0.014357	-2.426825	1.218765	1
H	1.045937	-2.000675	-0.162465	1
H	-1.635253	1.846545	-0.246795	1
H	-0.089153	2.510935	-0.708185	1
H	-0.512033	2.401705	1.011185	1
H	2.048187	-0.289795	0.552325	1
H	1.899487	1.428385	0.797655	1
H	1.792777	0.083965	-1.802875	1
H	3.106077	0.824735	-1.185385	1
Es	-2.125892	-0.710742	0.330580	99
Es	-0.268419	1.205938	0.090394	99
Es	-0.285614	-1.317721	0.215742	99
Es	-0.621864	-0.634185	0.218661	99
Es	-0.531954	2.228989	0.704378	99
Es	1.973359	1.160269	-1.335318	99
Es	1.877543	0.728605	-0.619457	99
Es	0.018714	-2.001560	0.209854	99
Es	1.897218	-0.017429	0.427310	99
Es	-0.583841	1.889079	0.046179	99
Es	-0.244778	2.301217	-0.456189	99
Es	2.705797	0.819475	-1.181730	99
Es	1.583120	0.610102	0.139603	99
Es	-0.277579	-0.069096	-0.163005	99
Es	0.011512	-2.283658	0.893677	99
Es	-0.257224	-0.035581	0.509134	99
Es	-2.434833	-0.074627	0.552673	99
Es	-2.413656	-0.902487	-0.323441	99
Es	2.088823	0.853397	-1.203984	99
Es	-1.300993	1.853138	-0.147092	99
Es	1.792320	1.173419	0.587965	99
Es	-2.308041	-1.230460	0.830024	99
Es	-1.380007	-0.659429	0.271733	99
Es	0.719868	-1.994801	-0.041223	99
Es	0.072758	0.528203	0.132289	99
Es	-0.369857	-2.451236	-0.235707	99
Es	0.828767	0.554814	0.130902	99
Es	1.919063	0.372399	-1.551132	99
48
Properties=species:S:1:pos:R:3:Z:I:1 energy=-289.30262233426174 field_type=dipole dipole="0.000000 0.000000 0.000000" charge=0
C	-2.125923	-0.710735	0.330585	6
C	-0.621793	-0.634055	0.218655	6
C	0.018727	-2.001585	0.209855	6
C	0.072697	0.528095	0.132295	6
C	-0.583853	1.889115	0.046165	6
C	1.583107	0.610075	0.139735	6
N	2.088647	0.853885	-1.204185	7
H	-2.586933	0.222075	0.664975	1
H	-2.410903	-1.468565	1.070215	1
H	-2.562853	-0.992135	-0.633355	1
H	-0.541303	-2.675145	-0.449165	1
H	0.014357	-2.426825	1.218765	1
H	1.045937	-2.000675	-0.162465	1
H	-1.635253	1.846545	-0.246795	1
H	-0.089153	2.510935	-0.708185	1
H	-0.512033	2.401705	1.011185	1
H	2.048187	-0.289795	0.552325	1
H	1.899487	1.428385	0.797655	1
H	1.792777	0.083965	-1.802875	1
H	3.106077	0.824735	-1.185385	1
Es	2.088828	0.853389	-1.203991	99
Es	1.918858	0.372673	-1.551371	99
Es	-2.125892	-0.710742	0.330582	99
Es	1.974241	1.159800	-1.335471	99
Es	1.897228	-0.017335	0.427380	99
Es	0.018714	-2.001561	0.209854	99
Es	-0.268469	1.205954	0.090327	99
Es	-0.531970	2.228972	0.704379	99
Es	-0.369903	-2.451279	-0.235743	99
Es	0.072754	0.528198	0.132293	99
Es	-2.434839	-0.074667	0.552776	99
Es	-0.621862	-0.634193	0.218658	99
Es	-1.380095	-0.659308	0.271738	99
Es	-2.413629	-0.902393	-0.323514	99
Es	-0.244776	2.301249	-0.456202	99
Es	-2.308029	-1.230543	0.829948	99
Es	-1.300968	1.853143	-0.147071	99
Es	-0.257219	-0.035586	0.509004	99
Es	1.792309	1.173438	0.587909	99
Es	2.705906	0.819039	-1.181410	99
Es	0.011597	-2.283661	0.893653	99
Es	-0.285588	-1.317798	0.215818	99
Es	-0.277556	-0.069091	-0.162703	99
Es	0.828769	0.554717	0.130851	99
Es	0.719835	-1.994724	-0.041245	99
Es	1.583120	0.610102	0.139601	99
Es	-0.583841	1.889079	0.046178	99
Es	1.876786	0.729161	-0.619407	99
48
Properties=species:S:1:pos:R:3:Z:I:1 energy=-289.30262233426174 field_type=dipole dipole="0.000000 0.000000 0.000000" charge=0
C	-2.125923	-0.710735	0.330585	6
C	-0.621793	-0.634055	0.218655	6
C	0.018727	-2.001585	0.209855	6
C	0.072697	0.528095	0.132295	6
C	-0.583853	1.889115	0.046165	6
C	1.583107	0.610075	0.139735	6
N	2.088647	0.853885	-1.204185	7
H	-2.586933	0.222075	0.664975	1
H	-2.410903	-1.468565	1.070215	1
H	-2.562853	-0.992135	-0.633355	1
H	-0.541303	-2.675145	-0.449165	1
H	0.014357	-2.426825	1.218765	1
H	1.045937	-2.000675	-0.162465	1
H	-1.635253	1.846545	-0.246795	1
H	-0.089153	2.510935	-0.708185	1
H	-0.512033	2.401705	1.011185	1
H	2.048187	-0.289795	0.552325	1
H	1.899487	1.428385	0.797655	1
H	1.792777	0.083965	-1.802875	1
H	3.106077	0.824735	-1.185385	1
Es	-2.413617	-0.902361	-0.323521	99
Es	1.897218	-0.017314	0.427318	99
Es	-0.257252	-0.035599	0.508829	99
Es	-2.125893	-0.710742	0.330582	99
Es	-0.277564	-0.069077	-0.162504	99
Es	-0.621864	-0.634182	0.218660	99
Es	2.088812	0.853431	-1.203985	99
Es	-1.300951	1.853153	-0.147062	99
Es	2.705924	0.819199	-1.181461	99
Es	1.919037	0.372580	-1.551195	99
Es	-2.308037	-1.230569	0.829945	99
Es	0.018714	-2.001561	0.209854	99
Es	-0.531977	2.228984	0.704358	99
Es	0.828812	0.554626	0.130841	99
Es	-0.244780	2.301249	-0.456212	99
Es	-0.369924	-2.451299	-0.235734	99
Es	-1.380126	-0.659281	0.271741	99
Es	0.719834	-1.994729	-0.041250	99
Es	1.974153	1.159579	-1.335709	99
Es	1.792296	1.173405	0.587980	99
Es	-0.285478	-1.317833	0.215819	99
Es	-0.583841	1.889079	0.046179	99
Es	0.011606	-2.283626	0.893663	99
Es	-2.434849	-0.074681	0.552778	99
Es	0.072758	0.528203	0.132291	99
Es	1.583119	0.610101	0.139604	99
Es	-0.268530	1.205965	0.090333	99
Es	1.876708	0.729330	-0.619326	99
48
Properties=species:S:1:pos:R:3:Z:I:1 energy=-289.30262233426174 field_type=dipole dipole="0.000000 0.000000 0.000000" charge=0
C	-2.125923	-0.710735	0.330585	6
C	-0.621793	-0.634055	0.218655	6
C	0.018727	-2.001585	0.209855	6
C	0.072697	0.528095	0.132295	6
C	-0.583853	1.889115	0.046165	6
C	1.583107	0.610075	0.139735	6
N	2.088647	0.853885	-1.204185	7
H	-2.586933	0.222075	0.664975	1
H	-2.410903	-1.468565	1.070215	1
H	-2.562853	-0.992135	-0.633355	1
H	-0.541303	-2.675145	-0.449165	1
H	0.014357	-2.426825	1.218765	1
H	1.045937	-2.000675	-0.162465	1
H	-1.635253	1.846545	-0.246795	1
H	-0.089153	2.510935	-0.708185	1
H	-0.512033	2.401705	1.011185	1
H	2.048187	-0.289795	0.552325	1
H	1.899487	1.428385	0.797655	1
H	1.792777	0.083965	-1.802875	1
H	3.106077	0.824735	-1.185385	1
Es	0.011594	-2.283637	0.893647	99
Es	-0.583842	1.889079	0.046178	99
Es	-2.307980	-1.230530	0.829976	99
Es	-0.621863	-0.634182	0.218659	99
Es	-0.277579	-0.069053	-0.162407	99
Es	-1.380142	-0.659234	0.271753	99
Es	-0.268503	1.205975	0.090170	99
Es	2.088833	0.853398	-1.203978	99
Es	0.018714	-2.001562	0.209854	99
Es	1.792260	1.173365	0.587976	99
Es	-0.532073	2.228864	0.704449	99
Es	-0.257286	-0.035586	0.508657	99
Es	1.897209	-0.017261	0.427352	99
Es	1.918746	0.372970	-1.551542	99
Es	2.705761	0.818485	-1.181264	99
Es	-2.125893	-0.710742	0.330581	99
Es	-1.300938	1.853166	-0.147202	99
Es	-2.434844	-0.074696	0.552778	99
Es	1.974632	1.160154	-1.335505	99
Es	-0.244753	2.301351	-0.456033	99
Es	1.583120	0.610102	0.139605	99
Es	0.828872	0.554566	0.130931	99
Es	-2.413678	-0.902410	-0.323507	99
Es	-0.369954	-2.451261	-0.235720	99
Es	-0.285408	-1.317814	0.215811	99
Es	1.876706	0.729112	-0.619430	99
Es	0.719840	-1.994789	-0.041264	99
Es	0.072757	0.528200	0.132294	99
