45
Properties=species:S:1:pos:R:3:Z:I:1 energy=-288.16561389917837 field_type=dipole dipole="0.000000 0.000000 0.000000" charge=0
C	-1.699828	0.133379	-0.002736	6
C	-0.171148	-0.070521	0.000654	6
C	0.210382	-0.861411	1.265794	6
C	0.212482	-0.887360	-1.247226	6
C	0.505372	1.323589	-0.013136	6
C	1.948742	1.281219	-0.012216	6
N	3.099262	1.247459	-0.011476	7
H	-2.023238	0.682379	-0.893896	1
H	-2.024718	0.700899	0.876184	1
H	-2.228978	-0.826221	0.006844	1
H	-0.035398	-0.297191	2.172174	1
H	1.280652	-1.091411	1.292784	1
H	-0.328598	-1.814880	1.311684	1
H	-0.031478	-0.341861	-2.165516	1
H	-0.326668	-1.841330	-1.274396	1
H	1.282752	-1.118160	-1.267516	1
H	0.164862	1.899559	0.857114	1
H	0.165552	1.881859	-0.895116	1
Es	0.026888	-0.460062	0.636937	99
Es	2.567473	0.972250	-0.117437	99
Es	-0.161658	-1.506798	1.288570	99
Es	0.300660	1.704222	0.570704	99
Es	-0.171124	-0.070465	0.000654	99
Es	0.210367	-0.861390	1.265772	99
Es	-1.699807	0.133385	-0.002736	99
Es	0.213021	0.647472	-0.006219	99
Es	0.028070	-0.473405	-0.627105	99
Es	-1.914954	0.523668	0.599368	99
Es	0.301240	1.692153	-0.604997	99
Es	-0.938310	0.042755	-0.001214	99
Es	-1.913991	0.510897	-0.613170	99
Es	1.269900	1.294431	-0.012328	99
Es	0.935696	-1.011904	1.278320	99
Es	0.937690	-1.038314	-1.255246	99
Es	-0.159636	-1.532902	-1.257425	99
Es	3.468583	1.235930	-0.011609	99
Es	1.948371	1.281240	-0.012221	99
Es	0.042535	-0.507656	-1.870197	99
Es	2.582392	1.315622	0.291959	99
Es	3.098818	1.247476	-0.011475	99
Es	-2.051787	-0.522204	0.003830	99
Es	0.212469	-0.887339	-1.247205	99
Es	2.584871	1.498795	-0.209668	99
Es	0.505536	1.323577	-0.013137	99
Es	0.039205	-0.469240	1.880410	99
45
Properties=species:S:1:pos:R:3:Z:I:1 energy=-288.16561389917837 field_type=dipole dipole="0.000000 0.000000 0.000000" charge=0
C	-1.699828	0.133379	-0.002736	6
C	-0.171148	-0.070521	0.000654	6
C	0.210382	-0.861411	1.265794	6
C	0.212482	-0.887360	-1.247226	6
C	0.505372	1.323589	-0.013136	6
C	1.948742	1.281219	-0.012216	6
N	3.099262	1.247459	-0.011476	7
H	-2.023238	0.682379	-0.893896	1
H	-2.024718	0.700899	0.876184	1
H	-2.228978	-0.826221	0.006844	1
H	-0.035398	-0.297191	2.172174	1
H	1.280652	-1.091411	1.292784	1
H	-0.328598	-1.814880	1.311684	1
H	-0.031478	-0.341861	-2.165516	1
H	-0.326668	-1.841330	-1.274396	1
H	1.282752	-1.118160	-1.267516	1
H	0.164862	1.899559	0.857114	1
H	0.165552	1.881859	-0.895116	1
Es	0.505535	1.323578	-0.013137	99
Es	1.948377	1.281237	-0.012211	99
Es	1.269676	1.294420	-0.012562	99
Es	0.937642	-1.038444	-1.255232	99
Es	0.213102	0.647298	-0.006404	99
Es	0.042695	-0.507774	-1.870195	99
Es	-1.913986	0.510920	-0.613157	99
Es	2.582459	1.302403	-0.318074	99
Es	-0.159716	-1.532830	-1.257476	99
Es	0.301270	1.692273	-0.604991	99
Es	-0.161638	-1.506974	1.288751	99
Es	-0.938198	0.042863	-0.001050	99
Es	0.026898	-0.460145	0.636925	99
Es	0.935527	-1.011788	1.278205	99
Es	-2.051770	-0.522219	0.003792	99
Es	3.098827	1.247473	-0.011476	99
Es	0.039425	-0.469164	1.880395	99
Es	2.584941	1.507402	0.176229	99
Es	-1.915051	0.523592	0.599288	99
Es	0.212467	-0.887340	-1.247205	99
Es	2.567669	0.977220	0.106287	99
Es	-0.171125	-0.070466	0.000654	99
Es	0.300787	1.704201	0.570850	99
Es	-1.699806	0.133385	-0.002736	99
Es	3.468249	1.235655	-0.011032	99
Es	0.027894	-0.473189	-0.627073	99
Es	0.210369	-0.861392	1.265773	99
45
Properties=species:S:1:pos:R:3:Z:I:1 energy=-288.16561389917837 field_type=dipole dipole="0.000000 0.000000 0.000000" charge=0
C	-1.699828	0.133379	-0.002736	6
C	-0.171148	-0.070521	0.000654	6
C	0.210382	-0.861411	1.265794	6
C	0.212482	-0.887360	-1.247226	6
C	0.505372	1.323589	-0.013136	6
C	1.948742	1.281219	-0.012216	6
N	3.099262	1.247459	-0.011476	7
H	-2.023238	0.682379	-0.893896	1
H	-2.024718	0.700899	0.876184	1
H	-2.228978	-0.826221	0.006844	1
H	-0.035398	-0.297191	2.172174	1
H	1.280652	-1.091411	1.292784	1
H	-0.328598	-1.814880	1.311684	1
H	-0.031478	-0.341861	-2.165516	1
H	-0.326668	-1.841330	-1.274396	1
H	1.282752	-1.118160	-1.267516	1
H	0.164862	1.899559	0.857114	1
H	0.165552	1.881859	-0.895116	1
Es	0.212468	-0.887341	-1.247208	99
Es	2.584842	1.461422	0.224211	99
Es	-1.699806	0.133384	-0.002736	99
Es	0.042770	-0.507782	-1.870190	99
Es	3.468073	1.235488	-0.011210	99
Es	-0.171125	-0.070466	0.000654	99
Es	0.937482	-1.038314	-1.255269	99
Es	0.301232	1.692391	-0.604865	99
Es	0.505535	1.323579	-0.013136	99
Es	-0.159658	-1.533002	-1.257519	99
Es	0.026884	-0.460187	0.636802	99
Es	0.300919	1.704135	0.570964	99
Es	-1.914061	0.510911	-0.613107	99
Es	2.566549	0.958466	0.042421	99
Es	1.948390	1.281223	-0.012196	99
Es	-0.938086	0.042909	-0.001117	99
Es	0.213128	0.647172	-0.006449	99
Es	-0.161553	-1.506747	1.288670	99
Es	0.210367	-0.861392	1.265773	99
Es	1.269551	1.294485	-0.012675	99
Es	0.935540	-1.011975	1.278289	99
Es	0.027961	-0.473186	-0.627012	99
Es	3.098823	1.247471	-0.011476	99
Es	-1.915051	0.523560	0.599251	99
Es	-2.051807	-0.522152	0.003818	99
Es	0.039259	-0.469131	1.880511	99
Es	2.583890	1.367271	-0.302061	99
45
Properties=species:S:1:pos:R:3:Z:I:1 energy=-288.16561389917837 field_type=dipole dipole="0.000000 0.000000 0.000000" charge=0
C	-1.699828	0.133379	-0.002736	6
C	-0.171148	-0.070521	0.000654	6
C	0.210382	-0.861411	1.265794	6
C	0.212482	-0.887360	-1.247226	6
C	0.505372	1.323589	-0.013136	6
C	1.948742	1.281219	-0.012216	6
N	3.099262	1.247459	-0.011476	7
H	-2.023238	0.682379	-0.893896	1
H	-2.024718	0.700899	0.876184	1
H	-2.228978	-0.826221	0.006844	1
H	-0.035398	-0.297191	2.172174	1
H	1.280652	-1.091411	1.292784	1
H	-0.328598	-1.814880	1.311684	1
H	-0.031478	-0.341861	-2.165516	1
H	-0.326668	-1.841330	-1.274396	1
H	1.282752	-1.118160	-1.267516	1
H	0.164862	1.899559	0.857114	1
H	0.165552	1.881859	-0.895116	1
Es	1.948386	1.281227	-0.012218	99
Es	0.300928	1.704230	0.570903	99
Es	-0.159581	-1.532904	-1.257498	99
Es	3.098815	1.247474	-0.011476	99
Es	-0.171125	-0.070466	0.000653	99
Es	-1.699805	0.133384	-0.002734	99
Es	-1.914067	0.510907	-0.613038	99
Es	0.937573	-1.038338	-1.255337	99
Es	-1.915083	0.523545	0.599208	99
Es	0.301384	1.692399	-0.604908	99
Es	2.568790	0.990741	0.134912	99
Es	0.039345	-0.469163	1.880508	99
Es	2.581787	1.269704	-0.321194	99
Es	0.042634	-0.507820	-1.870186	99
Es	-2.051845	-0.522156	0.003790	99
Es	2.585028	1.526284	0.150638	99
Es	0.213051	0.647047	-0.006368	99
Es	0.505534	1.323578	-0.013136	99
Es	3.467734	1.235927	-0.010929	99
Es	0.212467	-0.887340	-1.247204	99
Es	0.210367	-0.861391	1.265772	99
Es	-0.161581	-1.506760	1.288702	99
Es	0.026913	-0.460242	0.636759	99
Es	-0.937974	0.042842	-0.001134	99
Es	0.027919	-0.473100	-0.627009	99
Es	0.935484	-1.011993	1.278289	99
Es	1.269441	1.294576	-0.012627	99
45
Properties=species:S:1:pos:R:3:Z:I:1 energy=-288.16561389917837 field_type=dipole dipole="0.000000 0.000000 0.000000" charge=0
C	-1.699828	0.133379	-0.002736	6
C	-0.171148	-0.070521	0.000654	6
C	0.210382	-0.861411	1.265794	6
C	0.212482	-0.887360	-1.247226	6
C	0.505372	1.323589	-0.013136	6
C	1.948742	1.281219	-0.012216	6
N	3.099262	1.247459	-0.011476	7
H	-2.023238	0.682379	-0.893896	1
H	-2.024718	0.700899	0.876184	1
H	-2.228978	-0.826221	0.006844	1
H	-0.035398	-0.297191	2.172174	1
H	1.280652	-1.091411	1.292784	1
H	-0.328598	-1.814880	1.311684	1
H	-0.031478	-0.341861	-2.165516	1
H	-0.326668	-1.841330	-1.274396	1
H	1.282752	-1.118160	-1.267516	1
H	0.164862	1.899559	0.857114	1
H	0.165552	1.881859	-0.895116	1
Es	0.300987	1.704285	0.570902	99
Es	0.026889	-0.460144	0.636760	99
Es	0.937470	-1.038384	-1.255322	99
Es	1.269268	1.294636	-0.012576	99
Es	-1.915114	0.523560	0.599193	99
Es	2.566738	0.956799	0.034311	99
Es	2.584320	1.374443	-0.299778	99
Es	0.027969	-0.473100	-0.626875	99
Es	0.213037	0.646953	-0.006429	99
Es	0.042694	-0.507808	-1.870251	99
Es	-1.914095	0.510856	-0.613051	99
Es	-0.171125	-0.070466	0.000654	99
Es	0.935443	-1.012009	1.278345	99
Es	0.301445	1.692403	-0.604907	99
Es	0.039380	-0.469211	1.880479	99
Es	3.467461	1.235675	-0.010970	99
Es	0.212467	-0.887341	-1.247206	99
Es	-0.159567	-1.532897	-1.257509	99
Es	0.210368	-0.861392	1.265774	99
Es	-1.699807	0.133385	-0.002736	99
Es	-0.937925	0.042830	-0.001206	99
Es	3.098828	1.247470	-0.011474	99
Es	-2.051835	-0.522093	0.003818	99
Es	-0.161570	-1.506758	1.288754	99
Es	0.505533	1.323579	-0.013136	99
Es	1.948382	1.281221	-0.012229	99
Es	2.584878	1.455701	0.229802	99
45
Properties=species:S:1:pos:R:3:Z:I:1 energy=-288.16561389917837 field_type=dipole dipole="0.000000 0.000000 0.000000" charge=0
C	-1.699828	0.133379	-0.002736	6
C	-0.171148	-0.070521	0.000654	6
C	0.210382	-0.861411	1.265794	6
C	0.212482	-0.887360	-1.247226	6
C	0.505372	1.323589	-0.013136	6
C	1.948742	1.281219	-0.012216	6
N	3.099262	1.247459	-0.011476	7
H	-2.023238	0.682379	-0.893896	1
H	-2.024718	0.700899	0.876184	1
H	-2.228978	-0.826221	0.006844	1
H	-0.035398	-0.297191	2.172174	1
H	1.280652	-1.091411	1.292784	1
H	-0.328598	-1.814880	1.311684	1
H	-0.031478	-0.341861	-2.165516	1
H	-0.326668	-1.841330	-1.274396	1
H	1.282752	-1.118160	-1.267516	1
H	0.164862	1.899559	0.857114	1
H	0.165552	1.881859	-0.895116	1
Es	0.212469	-0.887339	-1.247207	99
Es	-1.914137	0.510840	-0.613037	99
Es	3.098823	1.247471	-0.011476	99
Es	0.505531	1.323579	-0.013136	99
Es	0.935398	-1.012020	1.278387	99
Es	-2.051842	-0.522033	0.003829	99
Es	-0.937869	0.042856	-0.001090	99
Es	2.568789	0.989162	0.133869	99
Es	-0.159532	-1.532919	-1.257514	99
Es	-1.699808	0.133385	-0.002736	99
Es	-1.915156	0.523526	0.599143	99
Es	0.301513	1.692376	-0.604956	99
Es	0.301010	1.704379	0.570925	99
Es	2.582079	1.272455	-0.321649	99
Es	0.039410	-0.469287	1.880478	99
Es	0.213018	0.646726	-0.006450	99
Es	0.027952	-0.473142	-0.626931	99
Es	0.042589	-0.507892	-1.870136	99
Es	3.467156	1.235767	-0.010864	99
Es	-0.161572	-1.506763	1.288744	99
Es	0.026986	-0.459944	0.636740	99
Es	1.948386	1.281233	-0.012213	99
Es	0.210367	-0.861395	1.265775	99
Es	1.269167	1.294674	-0.012636	99
Es	0.937571	-1.038300	-1.255436	99
Es	-0.171125	-0.070468	0.000653	99
Es	2.585347	1.525264	0.152059	99
45
Properties=species:S:1:pos:R:3:Z:I:1 energy=-288.16561389917837 field_type=dipole dipole="0.000000 0.000000 0.000000" charge=0
C	-1.699828	0.133379	-0.002736	6
C	-0.171148	-0.070521	0.000654	6
C	0.210382	-0.861411	1.265794	6
C	0.212482	-0.887360	-1.247226	6
C	0.505372	1.323589	-0.013136	6
C	1.948742	1.281219	-0.012216	6
N	3.099262	1.247459	-0.011476	7
H	-2.023238	0.682379	-0.893896	1
H	-2.024718	0.700899	0.876184	1
H	-2.228978	-0.826221	0.006844	1
H	-0.035398	-0.297191	2.172174	1
H	1.280652	-1.091411	1.292784	1
H	-0.328598	-1.814880	1.311684	1
H	-0.031478	-0.341861	-2.165516	1
H	-0.326668	-1.841330	-1.274396	1
H	1.282752	-1.118160	-1.267516	1
H	0.164862	1.899559	0.857114	1
H	0.165552	1.881859	-0.895116	1
Es	1.948378	1.281229	-0.012217	99
Es	0.212468	-0.887342	-1.247208	99
Es	0.301583	1.692493	-0.604975	99
Es	-0.937811	0.042844	-0.001172	99
Es	0.027954	-0.473049	-0.626814	99
Es	-1.915148	0.523525	0.599124	99
Es	0.301120	1.704383	0.570968	99
Es	0.210368	-0.861392	1.265774	99
Es	-0.159569	-1.532858	-1.257575	99
Es	0.213051	0.646620	-0.006429	99
Es	-2.051879	-0.522042	0.003819	99
Es	-1.699808	0.133385	-0.002736	99
Es	2.577918	1.154750	-0.302985	99
Es	2.573141	1.063559	0.226406	99
Es	0.935402	-1.012032	1.278397	99
Es	-1.914136	0.510846	-0.612992	99
Es	0.505533	1.323579	-0.013136	99
Es	0.937479	-1.038411	-1.255423	99
Es	0.042719	-0.507929	-1.870165	99
Es	0.039402	-0.469280	1.880475	99
Es	1.269058	1.294565	-0.012625	99
Es	-0.161533	-1.506737	1.288788	99
Es	3.098895	1.247469	-0.011478	99
Es	-0.171125	-0.070467	0.000653	99
Es	3.466956	1.236172	-0.011138	99
Es	0.026861	-0.460013	0.636678	99
Es	2.585240	1.568326	0.041123	99
45
Properties=species:S:1:pos:R:3:Z:I:1 energy=-288.16561389917837 field_type=dipole dipole="0.000000 0.000000 0.000000" charge=0
C	-1.699828	0.133379	-0.002736	6
C	-0.171148	-0.070521	0.000654	6
C	0.210382	-0.861411	1.265794	6
C	0.212482	-0.887360	-1.247226	6
C	0.505372	1.323589	-0.013136	6
C	1.948742	1.281219	-0.012216	6
N	3.099262	1.247459	-0.011476	7
H	-2.023238	0.682379	-0.893896	1
H	-2.024718	0.700899	0.876184	1
H	-2.228978	-0.826221	0.006844	1
H	-0.035398	-0.297191	2.172174	1
H	1.280652	-1.091411	1.292784	1
H	-0.328598	-1.814880	1.311684	1
H	-0.031478	-0.341861	-2.165516	1
H	-0.326668	-1.841330	-1.274396	1
H	1.282752	-1.118160	-1.267516	1
H	0.164862	1.899559	0.857114	1
H	0.165552	1.881859	-0.895116	1
Es	0.301776	1.692539	-0.604940	99
Es	0.039440	-0.469293	1.880505	99
Es	1.268962	1.294606	-0.012444	99
Es	-0.161544	-1.506697	1.288792	99
Es	-1.699807	0.133385	-0.002736	99
Es	3.098823	1.247472	-0.011477	99
Es	0.210367	-0.861391	1.265772	99
Es	0.212983	0.646488	-0.006484	99
Es	0.935358	-1.012095	1.278398	99
Es	0.026870	-0.459973	0.636619	99
Es	0.301092	1.704429	0.570922	99
Es	0.505531	1.323577	-0.013136	99
Es	-1.914163	0.510854	-0.612979	99
Es	3.466810	1.236094	-0.011433	99
Es	0.027957	-0.473074	-0.626734	99
Es	0.042661	-0.507937	-1.870204	99
Es	2.578205	1.169551	0.284450	99
Es	0.212467	-0.887338	-1.247204	99
Es	2.572939	1.051628	-0.239836	99
Es	1.948380	1.281228	-0.012214	99
Es	-0.937771	0.042841	-0.001146	99
Es	2.585380	1.565523	-0.079872	99
Es	-1.915170	0.523489	0.599094	99
Es	-0.171125	-0.070468	0.000652	99
Es	-0.159443	-1.532877	-1.257581	99
Es	0.937430	-1.038361	-1.255466	99
Es	-2.051890	-0.522006	0.003818	99
45
Properties=species:S:1:pos:R:3:Z:I:1 energy=-288.16561389917837 field_type=dipole dipole="0.000000 0.000000 0.000000" charge=0
C	-1.699828	0.133379	-0.002736	6
C	-0.171148	-0.070521	0.000654	6
C	0.210382	-0.861411	1.265794	6
C	0.212482	-0.887360	-1.247226	6
C	0.505372	1.323589	-0.013136	6
C	1.948742	1.281219	-0.012216	6
N	3.099262	1.247459	-0.011476	7
H	-2.023238	0.682379	-0.893896	1
H	-2.024718	0.700899	0.876184	1
H	-2.228978	-0.826221	0.006844	1
H	-0.035398	-0.297191	2.172174	1
H	1.280652	-1.091411	1.292784	1
H	-0.328598	-1.814880	1.311684	1
H	-0.031478	-0.341861	-2.165516	1
H	-0.326668	-1.841330	-1.274396	1
H	1.282752	-1.118160	-1.267516	1
H	0.164862	1.899559	0.857114	1
H	0.165552	1.881859	-0.895116	1
Es	-0.159524	-1.532858	-1.257645	99
Es	2.585626	1.478706	-0.233978	99
Es	3.098822	1.247470	-0.011475	99
Es	-1.915191	0.523464	0.599092	99
Es	0.937415	-1.038418	-1.255479	99
Es	3.466496	1.235615	-0.011528	99
Es	1.948379	1.281232	-0.012216	99
Es	-1.699809	0.133385	-0.002736	99
Es	0.505534	1.323578	-0.013136	99
Es	0.027910	-0.473011	-0.626734	99
Es	2.583820	1.346309	0.286580	99
Es	-1.914155	0.510868	-0.612926	99
Es	0.212468	-0.887341	-1.247207	99
Es	0.213063	0.646444	-0.006511	99
Es	0.301211	1.704338	0.571001	99
Es	0.042752	-0.507957	-1.870150	99
Es	1.268719	1.294801	-0.012518	99
Es	0.026865	-0.459951	0.636570	99
Es	2.567524	0.961998	-0.087778	99
Es	-0.937701	0.042853	-0.001116	99
Es	0.935333	-1.012019	1.278458	99
Es	0.039412	-0.469354	1.880483	99
Es	0.210368	-0.861392	1.265775	99
Es	0.301683	1.692628	-0.604933	99
Es	-0.161463	-1.506739	1.288816	99
Es	-0.171125	-0.070467	0.000654	99
Es	-2.051912	-0.521990	0.003771	99
45
Properties=species:S:1:pos:R:3:Z:I:1 energy=-288.16561389917837 field_type=dipole dipole="0.000000 0.000000 0.000000" charge=0
C	-1.699828	0.133379	-0.002736	6
C	-0.171148	-0.070521	0.000654	6
C	0.210382	-0.861411	1.265794	6
C	0.212482	-0.887360	-1.247226	6
C	0.505372	1.323589	-0.013136	6
C	1.948742	1.281219	-0.012216	6
N	3.099262	1.247459	-0.011476	7
H	-2.023238	0.682379	-0.893896	1
H	-2.024718	0.700899	0.876184	1
H	-2.228978	-0.826221	0.006844	1
H	-0.035398	-0.297191	2.172174	1
H	1.280652	-1.091411	1.292784	1
H	-0.328598	-1.814880	1.311684	1
H	-0.031478	-0.341861	-2.165516	1
H	-0.326668	-1.841330	-1.274396	1
H	1.282752	-1.118160	-1.267516	1
H	0.164862	1.899559	0.857114	1
H	0.165552	1.881859	-0.895116	1
Es	0.213064	0.646273	-0.006418	99
Es	-0.171126	-0.070469	0.000654	99
Es	1.268661	1.294646	-0.012579	99
Es	2.585487	1.573015	0.002487	99
Es	0.039374	-0.469385	1.880458	99
Es	0.505531	1.323580	-0.013136	99
Es	-1.915165	0.523480	0.599064	99
Es	-1.914220	0.510833	-0.612901	99
Es	2.574894	1.094422	0.249863	99
Es	0.210368	-0.861392	1.265774	99
Es	0.212468	-0.887341	-1.247207	99
Es	0.937387	-1.038405	-1.255492	99
Es	0.935317	-1.012001	1.278530	99
Es	-1.699808	0.133385	-0.002736	99
Es	-0.159482	-1.532867	-1.257625	99
Es	0.026863	-0.459934	0.636515	99
Es	3.098855	1.247469	-0.011479	99
Es	-0.161428	-1.506747	1.288823	99
Es	-2.051939	-0.521943	0.003826	99
Es	0.301304	1.704483	0.571007	99
Es	-0.937657	0.042817	-0.001208	99
Es	1.948378	1.281229	-0.012216	99
Es	3.466362	1.236145	-0.011129	99
Es	0.301770	1.692607	-0.605015	99
Es	0.027927	-0.472949	-0.626691	99
Es	2.576578	1.119264	-0.287860	99
Es	0.042754	-0.508025	-1.870175	99
45
Properties=species:S:1:pos:R:3:Z:I:1 energy=-288.16561389917837 field_type=dipole dipole="0.000000 0.000000 0.000000" charge=0
C	-1.699828	0.133379	-0.002736	6
C	-0.171148	-0.070521	0.000654	6
C	0.210382	-0.861411	1.265794	6
C	0.212482	-0.887360	-1.247226	6
C	0.505372	1.323589	-0.013136	6
C	1.948742	1.281219	-0.012216	6
N	3.099262	1.247459	-0.011476	7
H	-2.023238	0.682379	-0.893896	1
H	-2.024718	0.700899	0.876184	1
H	-2.228978	-0.826221	0.006844	1
H	-0.035398	-0.297191	2.172174	1
H	1.280652	-1.091411	1.292784	1
H	-0.328598	-1.814880	1.311684	1
H	-0.031478	-0.341861	-2.165516	1
H	-0.326668	-1.841330	-1.274396	1
H	1.282752	-1.118160	-1.267516	1
H	0.164862	1.899559	0.857114	1
H	0.165552	1.881859	-0.895116	1
Es	-1.914231	0.510791	-0.612895	99
Es	3.098823	1.247470	-0.011477	99
Es	-1.699808	0.133385	-0.002736	99
Es	0.505531	1.323580	-0.013136	99
Es	-1.915244	0.523469	0.599027	99
Es	1.268529	1.294731	-0.012571	99
Es	2.579001	1.170143	-0.309017	99
Es	0.937350	-1.038440	-1.255493	99
Es	1.948378	1.281228	-0.012219	99
Es	2.572724	1.050692	0.216021	99
Es	0.935273	-1.012068	1.278494	99
Es	-0.161454	-1.506708	1.288874	99
Es	0.213065	0.646170	-0.006420	99
Es	0.027909	-0.472916	-0.626658	99
Es	-2.051908	-0.521933	0.003818	99
Es	0.301359	1.704516	0.571007	99
Es	2.585571	1.565721	0.057148	99
Es	3.466076	1.236238	-0.010792	99
Es	-0.937599	0.042868	-0.001157	99
Es	-0.171126	-0.070469	0.000653	99
Es	0.039470	-0.469393	1.880477	99
Es	0.210368	-0.861393	1.265775	99
Es	0.026846	-0.459894	0.636481	99
Es	0.042803	-0.508041	-1.870180	99
Es	0.212468	-0.887341	-1.247207	99
Es	-0.159484	-1.532849	-1.257660	99
Es	0.301827	1.692634	-0.605024	99
