45
Properties=species:S:1:pos:R:3:Z:I:1 energy=-288.1639189305001 field_type=dipole dipole="0.000000 0.000000 0.000000" charge=0
C	-1.647162	-0.474318	1.163361	6
C	-0.261722	-0.333168	0.526181	6
C	0.132798	-1.649078	-0.145579	6
C	-0.262072	0.855862	-0.457069	6
C	1.078628	1.148292	-1.136209	6
C	2.116128	1.548242	-0.176409	6
N	2.937288	1.863692	0.579291	7
H	-1.930562	0.445122	1.686501	1
H	-1.658552	-1.289768	1.894381	1
H	-2.412472	-0.685418	0.408601	1
H	0.453188	-0.133008	1.333611	1
H	-0.506462	-1.861618	-1.009039	1
H	0.042188	-2.485738	0.555711	1
H	1.172178	-1.626068	-0.486579	1
H	-0.591672	1.756822	0.077881	1
H	-1.008822	0.672252	-1.240729	1
H	0.932098	1.963312	-1.855299	1
H	1.415008	0.284582	-1.718609	1
Es	-0.962634	-0.401033	0.839261	99
Es	1.631129	1.357167	-0.622568	99
Es	0.132797	-1.649059	-0.145579	99
Es	2.403760	1.977423	0.304568	99
Es	1.078737	1.148340	-1.136080	99
Es	0.451876	1.002763	-0.785197	99
Es	-0.307275	-1.787577	-0.737075	99
Es	1.318610	0.575164	-1.506837	99
Es	3.196886	1.963866	0.819642	99
Es	0.842129	-1.626789	-0.382564	99
Es	2.936973	1.863570	0.579001	99
Es	-0.246867	0.265132	0.018892	99
Es	-1.650776	-1.032090	1.658835	99
Es	-0.261984	0.855867	-0.457102	99
Es	0.068544	-2.214395	0.334103	99
Es	0.228233	-0.193103	1.072187	99
Es	-1.838769	0.156269	1.517585	99
Es	2.516687	1.461673	0.399977	99
Es	2.774062	1.723941	0.009809	99
Es	0.995874	1.699624	-1.600090	99
Es	-0.062666	-0.992970	0.176964	99
Es	-2.166109	-0.618068	0.641438	99
Es	-1.647145	-0.474316	1.163350	99
Es	-0.479452	1.471296	-0.093660	99
Es	-0.261758	-0.333166	0.526126	99
Es	2.115872	1.548143	-0.176645	99
Es	-0.763253	0.726644	-0.998661	99
45
Properties=species:S:1:pos:R:3:Z:I:1 energy=-288.1639189305001 field_type=dipole dipole="0.000000 0.000000 0.000000" charge=0
C	-1.647162	-0.474318	1.163361	6
C	-0.261722	-0.333168	0.526181	6
C	0.132798	-1.649078	-0.145579	6
C	-0.262072	0.855862	-0.457069	6
C	1.078628	1.148292	-1.136209	6
C	2.116128	1.548242	-0.176409	6
N	2.937288	1.863692	0.579291	7
H	-1.930562	0.445122	1.686501	1
H	-1.658552	-1.289768	1.894381	1
H	-2.412472	-0.685418	0.408601	1
H	0.453188	-0.133008	1.333611	1
H	-0.506462	-1.861618	-1.009039	1
H	0.042188	-2.485738	0.555711	1
H	1.172178	-1.626068	-0.486579	1
H	-0.591672	1.756822	0.077881	1
H	-1.008822	0.672252	-1.240729	1
H	0.932098	1.963312	-1.855299	1
H	1.415008	0.284582	-1.718609	1
Es	-1.650928	-1.031955	1.659228	99
Es	2.115870	1.548139	-0.176645	99
Es	2.516994	1.461282	0.399886	99
Es	-0.962549	-0.401121	0.839237	99
Es	0.451748	1.002878	-0.785205	99
Es	2.936979	1.863571	0.579001	99
Es	-1.647147	-0.474314	1.163350	99
Es	1.318683	0.575095	-1.506862	99
Es	0.068538	-2.214344	0.334046	99
Es	-0.307276	-1.787620	-0.737035	99
Es	1.631037	1.357254	-0.622600	99
Es	2.774306	1.724334	0.009636	99
Es	-0.062737	-0.992965	0.177027	99
Es	-0.246767	0.265169	0.018792	99
Es	-1.838674	0.156276	1.517168	99
Es	-0.261757	-0.333166	0.526126	99
Es	0.842182	-1.626817	-0.382576	99
Es	-0.763292	0.726600	-0.998636	99
Es	0.132798	-1.649060	-0.145580	99
Es	-2.166144	-0.618096	0.641554	99
Es	0.228233	-0.193129	1.072115	99
Es	3.196522	1.963777	0.819650	99
Es	0.995971	1.699534	-1.600032	99
Es	1.078737	1.148338	-1.136081	99
Es	-0.479470	1.471290	-0.093578	99
Es	2.403607	1.977499	0.304797	99
Es	-0.261985	0.855865	-0.457103	99
45
Properties=species:S:1:pos:R:3:Z:I:1 energy=-288.1639189305001 field_type=dipole dipole="0.000000 0.000000 0.000000" charge=0
C	-1.647162	-0.474318	1.163361	6
C	-0.261722	-0.333168	0.526181	6
C	0.132798	-1.649078	-0.145579	6
C	-0.262072	0.855862	-0.457069	6
C	1.078628	1.148292	-1.136209	6
C	2.116128	1.548242	-0.176409	6
N	2.937288	1.863692	0.579291	7
H	-1.930562	0.445122	1.686501	1
H	-1.658552	-1.289768	1.894381	1
H	-2.412472	-0.685418	0.408601	1
H	0.453188	-0.133008	1.333611	1
H	-0.506462	-1.861618	-1.009039	1
H	0.042188	-2.485738	0.555711	1
H	1.172178	-1.626068	-0.486579	1
H	-0.591672	1.756822	0.077881	1
H	-1.008822	0.672252	-1.240729	1
H	0.932098	1.963312	-1.855299	1
H	1.415008	0.284582	-1.718609	1
Es	2.458006	1.512751	0.441250	99
Es	2.936987	1.863577	0.579017	99
Es	-0.261755	-0.333163	0.526126	99
Es	2.783323	1.639848	0.035421	99
Es	1.078739	1.148339	-1.136081	99
Es	-0.479457	1.471287	-0.093616	99
Es	0.068456	-2.214400	0.334005	99
Es	0.996032	1.699531	-1.599991	99
Es	0.228191	-0.193154	1.072023	99
Es	-0.962491	-0.401088	0.839389	99
Es	1.630930	1.357265	-0.622743	99
Es	-1.838699	0.156153	1.517266	99
Es	2.115888	1.548149	-0.176660	99
Es	1.318727	0.575096	-1.506883	99
Es	0.842171	-1.626885	-0.382568	99
Es	-1.650953	-1.031964	1.659128	99
Es	-0.246847	0.265161	0.018836	99
Es	-0.062641	-0.992908	0.177034	99
Es	-0.763251	0.726687	-0.998598	99
Es	2.453863	2.010585	0.237776	99
Es	-2.166176	-0.618040	0.641486	99
Es	0.451705	1.002874	-0.785119	99
Es	-0.307214	-1.787537	-0.737028	99
Es	0.132798	-1.649062	-0.145580	99
Es	-0.261985	0.855865	-0.457105	99
Es	-1.647147	-0.474314	1.163350	99
Es	3.196280	1.963665	0.819542	99
45
Properties=species:S:1:pos:R:3:Z:I:1 energy=-288.1639189305001 field_type=dipole dipole="0.000000 0.000000 0.000000" charge=0
C	-1.647162	-0.474318	1.163361	6
C	-0.261722	-0.333168	0.526181	6
C	0.132798	-1.649078	-0.145579	6
C	-0.262072	0.855862	-0.457069	6
C	1.078628	1.148292	-1.136209	6
C	2.116128	1.548242	-0.176409	6
N	2.937288	1.863692	0.579291	7
H	-1.930562	0.445122	1.686501	1
H	-1.658552	-1.289768	1.894381	1
H	-2.412472	-0.685418	0.408601	1
H	0.453188	-0.133008	1.333611	1
H	-0.506462	-1.861618	-1.009039	1
H	0.042188	-2.485738	0.555711	1
H	1.172178	-1.626068	-0.486579	1
H	-0.591672	1.756822	0.077881	1
H	-1.008822	0.672252	-1.240729	1
H	0.932098	1.963312	-1.855299	1
H	1.415008	0.284582	-1.718609	1
Es	-0.763132	0.726624	-0.998557	99
Es	2.115870	1.548143	-0.176649	99
Es	-0.307193	-1.787636	-0.737016	99
Es	2.485614	2.018100	0.201080	99
Es	2.781098	1.594888	0.056535	99
Es	1.078738	1.148338	-1.136081	99
Es	3.196413	1.963491	0.819081	99
Es	-1.647147	-0.474314	1.163350	99
Es	2.428344	1.550415	0.457354	99
Es	-0.261985	0.855865	-0.457103	99
Es	-0.062727	-0.992931	0.177176	99
Es	1.630853	1.357207	-0.622872	99
Es	0.228177	-0.193082	1.071984	99
Es	0.132798	-1.649059	-0.145580	99
Es	-0.246822	0.265065	0.018848	99
Es	0.842131	-1.626868	-0.382577	99
Es	-0.261756	-0.333166	0.526127	99
Es	-0.962495	-0.401078	0.839240	99
Es	-1.838724	0.156270	1.517102	99
Es	1.318850	0.575149	-1.506908	99
Es	-2.166165	-0.618176	0.641672	99
Es	0.996059	1.699581	-1.599942	99
Es	-1.650954	-1.031849	1.659270	99
Es	0.068547	-2.214385	0.333962	99
Es	-0.479567	1.471337	-0.093736	99
Es	0.451666	1.002809	-0.785102	99
Es	2.936992	1.863578	0.579021	99
45
Properties=species:S:1:pos:R:3:Z:I:1 energy=-288.1639189305001 field_type=dipole dipole="0.000000 0.000000 0.000000" charge=0
C	-1.647162	-0.474318	1.163361	6
C	-0.261722	-0.333168	0.526181	6
C	0.132798	-1.649078	-0.145579	6
C	-0.262072	0.855862	-0.457069	6
C	1.078628	1.148292	-1.136209	6
C	2.116128	1.548242	-0.176409	6
N	2.937288	1.863692	0.579291	7
H	-1.930562	0.445122	1.686501	1
H	-1.658552	-1.289768	1.894381	1
H	-2.412472	-0.685418	0.408601	1
H	0.453188	-0.133008	1.333611	1
H	-0.506462	-1.861618	-1.009039	1
H	0.042188	-2.485738	0.555711	1
H	1.172178	-1.626068	-0.486579	1
H	-0.591672	1.756822	0.077881	1
H	-1.008822	0.672252	-1.240729	1
H	0.932098	1.963312	-1.855299	1
H	1.415008	0.284582	-1.718609	1
Es	-1.651006	-1.031880	1.659238	99
Es	3.195858	1.963430	0.819324	99
Es	2.115869	1.548143	-0.176648	99
Es	0.996171	1.699678	-1.599946	99
Es	2.673278	1.929272	0.035553	99
Es	-0.062723	-0.992916	0.177086	99
Es	0.451564	1.002788	-0.785074	99
Es	2.936971	1.863570	0.579001	99
Es	-0.246735	0.265092	0.018905	99
Es	-0.261756	-0.333166	0.526128	99
Es	-0.261985	0.855865	-0.457104	99
Es	0.068514	-2.214390	0.333959	99
Es	-0.479509	1.471292	-0.093695	99
Es	0.842092	-1.626910	-0.382493	99
Es	-0.962408	-0.400964	0.839254	99
Es	0.228086	-0.193126	1.071955	99
Es	1.630797	1.357067	-0.623041	99
Es	-0.763202	0.726681	-0.998491	99
Es	1.078735	1.148339	-1.136086	99
Es	-1.838751	0.156160	1.517125	99
Es	1.318882	0.575210	-1.506881	99
Es	-1.647150	-0.474314	1.163352	99
Es	2.677460	1.432150	0.238913	99
Es	2.344895	1.802078	0.440325	99
Es	-2.166169	-0.618102	0.641670	99
Es	0.132798	-1.649059	-0.145580	99
Es	-0.307095	-1.787671	-0.737070	99
45
Properties=species:S:1:pos:R:3:Z:I:1 energy=-288.1639189305001 field_type=dipole dipole="0.000000 0.000000 0.000000" charge=0
C	-1.647162	-0.474318	1.163361	6
C	-0.261722	-0.333168	0.526181	6
C	0.132798	-1.649078	-0.145579	6
C	-0.262072	0.855862	-0.457069	6
C	1.078628	1.148292	-1.136209	6
C	2.116128	1.548242	-0.176409	6
N	2.937288	1.863692	0.579291	7
H	-1.930562	0.445122	1.686501	1
H	-1.658552	-1.289768	1.894381	1
H	-2.412472	-0.685418	0.408601	1
H	0.453188	-0.133008	1.333611	1
H	-0.506462	-1.861618	-1.009039	1
H	0.042188	-2.485738	0.555711	1
H	1.172178	-1.626068	-0.486579	1
H	-0.591672	1.756822	0.077881	1
H	-1.008822	0.672252	-1.240729	1
H	0.932098	1.963312	-1.855299	1
H	1.415008	0.284582	-1.718609	1
Es	1.078737	1.148338	-1.136083	99
Es	0.996366	1.699806	-1.599945	99
Es	1.318878	0.575131	-1.506875	99
Es	-0.261759	-0.333166	0.526129	99
Es	3.196138	1.963469	0.818734	99
Es	0.228003	-0.193196	1.071879	99
Es	2.780698	1.690025	0.017321	99
Es	1.630743	1.356881	-0.623097	99
Es	-0.307180	-1.787772	-0.736956	99
Es	2.422029	1.994087	0.278996	99
Es	-1.651033	-1.031870	1.659231	99
Es	0.842038	-1.626907	-0.382637	99
Es	0.132798	-1.649060	-0.145580	99
Es	0.451485	1.002936	-0.785030	99
Es	-1.647146	-0.474314	1.163350	99
Es	-0.246679	0.265217	0.019074	99
Es	2.115871	1.548143	-0.176645	99
Es	-1.838739	0.156138	1.517131	99
Es	-0.261987	0.855866	-0.457102	99
Es	0.068640	-2.214347	0.334024	99
Es	2.936970	1.863571	0.579001	99
Es	-0.062633	-0.992835	0.177020	99
Es	-2.166188	-0.618078	0.641698	99
Es	2.492592	1.479360	0.419017	99
Es	-0.962427	-0.401018	0.839280	99
Es	-0.763200	0.726637	-0.998448	99
Es	-0.479535	1.471271	-0.093810	99
45
Properties=species:S:1:pos:R:3:Z:I:1 energy=-288.1639189305001 field_type=dipole dipole="0.000000 0.000000 0.000000" charge=0
C	-1.647162	-0.474318	1.163361	6
C	-0.261722	-0.333168	0.526181	6
C	0.132798	-1.649078	-0.145579	6
C	-0.262072	0.855862	-0.457069	6
C	1.078628	1.148292	-1.136209	6
C	2.116128	1.548242	-0.176409	6
N	2.937288	1.863692	0.579291	7
H	-1.930562	0.445122	1.686501	1
H	-1.658552	-1.289768	1.894381	1
H	-2.412472	-0.685418	0.408601	1
H	0.453188	-0.133008	1.333611	1
H	-0.506462	-1.861618	-1.009039	1
H	0.042188	-2.485738	0.555711	1
H	1.172178	-1.626068	-0.486579	1
H	-0.591672	1.756822	0.077881	1
H	-1.008822	0.672252	-1.240729	1
H	0.932098	1.963312	-1.855299	1
H	1.415008	0.284582	-1.718609	1
Es	-1.838907	0.156092	1.517125	99
Es	-1.651134	-1.031880	1.659180	99
Es	1.318980	0.575208	-1.506841	99
Es	-0.962209	-0.401021	0.839371	99
Es	-0.261985	0.855866	-0.457103	99
Es	0.068621	-2.214362	0.333949	99
Es	0.996270	1.699632	-1.599957	99
Es	0.227984	-0.193149	1.071841	99
Es	-0.246842	0.265198	0.018912	99
Es	0.451496	1.002812	-0.784987	99
Es	-0.307205	-1.787717	-0.736952	99
Es	3.195694	1.963489	0.818727	99
Es	1.630692	1.357121	-0.623220	99
Es	2.115874	1.548141	-0.176630	99
Es	-0.261754	-0.333161	0.526127	99
Es	1.078738	1.148339	-1.136082	99
Es	-0.062570	-0.992849	0.177211	99
Es	-0.479493	1.471240	-0.093781	99
Es	-0.763199	0.726734	-0.998470	99
Es	0.842043	-1.626947	-0.382648	99
Es	-1.647148	-0.474314	1.163350	99
Es	2.629210	1.971005	0.066194	99
Es	-2.166059	-0.618084	0.641718	99
Es	2.936975	1.863571	0.579004	99
Es	2.350774	1.736747	0.461731	99
Es	2.715837	1.455663	0.187491	99
Es	0.132797	-1.649059	-0.145580	99
45
Properties=species:S:1:pos:R:3:Z:I:1 energy=-288.1639189305001 field_type=dipole dipole="0.000000 0.000000 0.000000" charge=0
C	-1.647162	-0.474318	1.163361	6
C	-0.261722	-0.333168	0.526181	6
C	0.132798	-1.649078	-0.145579	6
C	-0.262072	0.855862	-0.457069	6
C	1.078628	1.148292	-1.136209	6
C	2.116128	1.548242	-0.176409	6
N	2.937288	1.863692	0.579291	7
H	-1.930562	0.445122	1.686501	1
H	-1.658552	-1.289768	1.894381	1
H	-2.412472	-0.685418	0.408601	1
H	0.453188	-0.133008	1.333611	1
H	-0.506462	-1.861618	-1.009039	1
H	0.042188	-2.485738	0.555711	1
H	1.172178	-1.626068	-0.486579	1
H	-0.591672	1.756822	0.077881	1
H	-1.008822	0.672252	-1.240729	1
H	0.932098	1.963312	-1.855299	1
H	1.415008	0.284582	-1.718609	1
Es	2.936964	1.863568	0.578995	99
Es	2.572225	1.432372	0.353567	99
Es	-0.246715	0.265063	0.018985	99
Es	-0.261986	0.855866	-0.457102	99
Es	0.068573	-2.214413	0.333891	99
Es	-0.307125	-1.787676	-0.736958	99
Es	3.195724	1.963463	0.818393	99
Es	-1.838814	0.156109	1.517150	99
Es	-2.166153	-0.618075	0.641766	99
Es	0.227854	-0.193129	1.071850	99
Es	0.451418	1.002754	-0.784885	99
Es	0.132798	-1.649060	-0.145580	99
Es	-0.962333	-0.401076	0.839236	99
Es	2.115874	1.548139	-0.176647	99
Es	1.078738	1.148338	-1.136083	99
Es	-0.062424	-0.992779	0.177233	99
Es	2.370634	1.932016	0.359511	99
Es	1.630670	1.357062	-0.623320	99
Es	1.319089	0.575260	-1.506785	99
Es	-1.647148	-0.474314	1.163351	99
Es	2.752913	1.799073	0.002601	99
Es	-0.261756	-0.333164	0.526128	99
Es	-0.479426	1.471153	-0.093760	99
Es	0.841992	-1.627029	-0.382626	99
Es	-1.651128	-1.031828	1.659171	99
Es	-0.763248	0.726878	-0.998384	99
Es	0.996272	1.699746	-1.600018	99
45
Properties=species:S:1:pos:R:3:Z:I:1 energy=-288.1639189305001 field_type=dipole dipole="0.000000 0.000000 0.000000" charge=0
C	-1.647162	-0.474318	1.163361	6
C	-0.261722	-0.333168	0.526181	6
C	0.132798	-1.649078	-0.145579	6
C	-0.262072	0.855862	-0.457069	6
C	1.078628	1.148292	-1.136209	6
C	2.116128	1.548242	-0.176409	6
N	2.937288	1.863692	0.579291	7
H	-1.930562	0.445122	1.686501	1
H	-1.658552	-1.289768	1.894381	1
H	-2.412472	-0.685418	0.408601	1
H	0.453188	-0.133008	1.333611	1
H	-0.506462	-1.861618	-1.009039	1
H	0.042188	-2.485738	0.555711	1
H	1.172178	-1.626068	-0.486579	1
H	-0.591672	1.756822	0.077881	1
H	-1.008822	0.672252	-1.240729	1
H	0.932098	1.963312	-1.855299	1
H	1.415008	0.284582	-1.718609	1
Es	0.227927	-0.193195	1.071768	99
Es	2.478183	2.018011	0.209763	99
Es	1.078740	1.148340	-1.136081	99
Es	1.319176	0.575273	-1.506848	99
Es	-0.479502	1.471184	-0.093849	99
Es	0.451413	1.002737	-0.784877	99
Es	2.936968	1.863568	0.579001	99
Es	3.195566	1.963093	0.818359	99
Es	2.434730	1.540994	0.455127	99
Es	-2.166176	-0.618096	0.641813	99
Es	0.841975	-1.627004	-0.382600	99
Es	0.068601	-2.214437	0.333845	99
Es	-1.647148	-0.474314	1.163350	99
Es	2.783096	1.604821	0.050856	99
Es	-0.261987	0.855867	-0.457102	99
Es	-0.307058	-1.787712	-0.736965	99
Es	-0.246732	0.265159	0.019089	99
Es	-0.962262	-0.401001	0.839301	99
Es	1.630403	1.356853	-0.623411	99
Es	-0.763203	0.726781	-0.998364	99
Es	2.115873	1.548145	-0.176642	99
Es	-0.062585	-0.992741	0.177202	99
Es	-1.838848	0.156062	1.517158	99
Es	-0.261756	-0.333166	0.526128	99
Es	0.996411	1.699952	-1.599919	99
Es	0.132797	-1.649060	-0.145581	99
Es	-1.651123	-1.031796	1.659158	99
45
Properties=species:S:1:pos:R:3:Z:I:1 energy=-288.1639189305001 field_type=dipole dipole="0.000000 0.000000 0.000000" charge=0
C	-1.647162	-0.474318	1.163361	6
C	-0.261722	-0.333168	0.526181	6
C	0.132798	-1.649078	-0.145579	6
C	-0.262072	0.855862	-0.457069	6
C	1.078628	1.148292	-1.136209	6
C	2.116128	1.548242	-0.176409	6
N	2.937288	1.863692	0.579291	7
H	-1.930562	0.445122	1.686501	1
H	-1.658552	-1.289768	1.894381	1
H	-2.412472	-0.685418	0.408601	1
H	0.453188	-0.133008	1.333611	1
H	-0.506462	-1.861618	-1.009039	1
H	0.042188	-2.485738	0.555711	1
H	1.172178	-1.626068	-0.486579	1
H	-0.591672	1.756822	0.077881	1
H	-1.008822	0.672252	-1.240729	1
H	0.932098	1.963312	-1.855299	1
H	1.415008	0.284582	-1.718609	1
Es	2.669530	1.428947	0.249697	99
Es	0.841942	-1.627001	-0.382642	99
Es	1.319201	0.575265	-1.506744	99
Es	-0.479493	1.471207	-0.093928	99
Es	-1.651165	-1.031789	1.659134	99
Es	-0.307061	-1.787733	-0.736928	99
Es	1.078736	1.148338	-1.136084	99
Es	-0.062522	-0.992766	0.177320	99
Es	2.344261	1.814794	0.436457	99
Es	-1.838872	0.156057	1.517167	99
Es	-1.647147	-0.474313	1.163349	99
Es	3.195338	1.963238	0.818106	99
Es	-0.246769	0.265175	0.019143	99
Es	2.115877	1.548143	-0.176644	99
Es	1.630496	1.357028	-0.623520	99
Es	-2.166153	-0.618086	0.641822	99
Es	-0.261755	-0.333167	0.526129	99
Es	-0.261987	0.855866	-0.457102	99
Es	0.227852	-0.193111	1.071729	99
Es	-0.763199	0.726751	-0.998363	99
Es	-0.962220	-0.401012	0.839318	99
Es	0.132798	-1.649060	-0.145580	99
Es	0.068658	-2.214456	0.333778	99
Es	0.996428	1.699749	-1.600012	99
Es	0.451334	1.002736	-0.784829	99
Es	2.682376	1.919930	0.029883	99
Es	2.936996	1.863588	0.579023	99
45
Properties=species:S:1:pos:R:3:Z:I:1 energy=-288.1639189305001 field_type=dipole dipole="0.000000 0.000000 0.000000" charge=0
C	-1.647162	-0.474318	1.163361	6
C	-0.261722	-0.333168	0.526181	6
C	0.132798	-1.649078	-0.145579	6
C	-0.262072	0.855862	-0.457069	6
C	1.078628	1.148292	-1.136209	6
C	2.116128	1.548242	-0.176409	6
N	2.937288	1.863692	0.579291	7
H	-1.930562	0.445122	1.686501	1
H	-1.658552	-1.289768	1.894381	1
H	-2.412472	-0.685418	0.408601	1
H	0.453188	-0.133008	1.333611	1
H	-0.506462	-1.861618	-1.009039	1
H	0.042188	-2.485738	0.555711	1
H	1.172178	-1.626068	-0.486579	1
H	-0.591672	1.756822	0.077881	1
H	-1.008822	0.672252	-1.240729	1
H	0.932098	1.963312	-1.855299	1
H	1.415008	0.284582	-1.718609	1
Es	0.841906	-1.627032	-0.382613	99
Es	-1.838847	0.156040	1.517161	99
Es	2.487788	1.482920	0.423334	99
Es	2.425840	1.997675	0.274207	99
Es	-1.647145	-0.474314	1.163350	99
Es	-0.962171	-0.401034	0.839445	99
Es	-0.246851	0.265008	0.019051	99
Es	-0.261986	0.855864	-0.457101	99
Es	-0.261755	-0.333166	0.526130	99
Es	3.195319	1.963092	0.817826	99
Es	0.996496	1.699766	-1.600080	99
Es	1.319298	0.575235	-1.506656	99
Es	-1.651249	-1.031763	1.659124	99
Es	0.227974	-0.193118	1.071633	99
Es	0.451281	1.002812	-0.784697	99
Es	-0.479545	1.471153	-0.093936	99
Es	2.936971	1.863570	0.579000	99
Es	-0.062602	-0.992690	0.177388	99
Es	1.078736	1.148338	-1.136084	99
Es	-2.166161	-0.618045	0.641834	99
Es	0.068650	-2.214481	0.333746	99
Es	1.630409	1.357070	-0.623590	99
Es	-0.763117	0.726853	-0.998326	99
Es	2.115891	1.548168	-0.176656	99
Es	-0.307021	-1.787719	-0.736954	99
Es	0.132798	-1.649060	-0.145580	99
Es	2.782573	1.683175	0.018721	99
45
Properties=species:S:1:pos:R:3:Z:I:1 energy=-288.1639189305001 field_type=dipole dipole="0.000000 0.000000 0.000000" charge=0
C	-1.647162	-0.474318	1.163361	6
C	-0.261722	-0.333168	0.526181	6
C	0.132798	-1.649078	-0.145579	6
C	-0.262072	0.855862	-0.457069	6
C	1.078628	1.148292	-1.136209	6
C	2.116128	1.548242	-0.176409	6
N	2.937288	1.863692	0.579291	7
H	-1.930562	0.445122	1.686501	1
H	-1.658552	-1.289768	1.894381	1
H	-2.412472	-0.685418	0.408601	1
H	0.453188	-0.133008	1.333611	1
H	-0.506462	-1.861618	-1.009039	1
H	0.042188	-2.485738	0.555711	1
H	1.172178	-1.626068	-0.486579	1
H	-0.591672	1.756822	0.077881	1
H	-1.008822	0.672252	-1.240729	1
H	0.932098	1.963312	-1.855299	1
H	1.415008	0.284582	-1.718609	1
Es	1.078736	1.148338	-1.136086	99
Es	0.132798	-1.649061	-0.145581	99
Es	-0.479652	1.471154	-0.093910	99
Es	2.115855	1.548150	-0.176645	99
Es	-0.062470	-0.992552	0.177356	99
Es	-1.647150	-0.474314	1.163349	99
Es	-2.166178	-0.618084	0.641865	99
Es	0.227845	-0.193199	1.071614	99
Es	2.723986	1.860396	0.009346	99
Es	-0.306993	-1.787748	-0.736938	99
Es	-1.838892	0.155988	1.517149	99
Es	0.451252	1.002863	-0.784680	99
Es	1.319343	0.575241	-1.506725	99
Es	2.936971	1.863571	0.579002	99
Es	-0.261754	-0.333166	0.526131	99
Es	-1.651209	-1.031740	1.659138	99
Es	0.068637	-2.214462	0.333734	99
Es	-0.246742	0.265064	0.019071	99
Es	2.620506	1.422507	0.305921	99
Es	-0.962199	-0.401015	0.839396	99
Es	2.351918	1.881052	0.401037	99
Es	-0.763040	0.726832	-0.998263	99
Es	0.841852	-1.627133	-0.382616	99
Es	3.195193	1.963005	0.817765	99
Es	1.630299	1.356925	-0.623654	99
Es	-0.261986	0.855866	-0.457102	99
Es	0.996556	1.699839	-1.599994	99
45
Properties=species:S:1:pos:R:3:Z:I:1 energy=-288.1639189305001 field_type=dipole dipole="0.000000 0.000000 0.000000" charge=0
C	-1.647162	-0.474318	1.163361	6
C	-0.261722	-0.333168	0.526181	6
C	0.132798	-1.649078	-0.145579	6
C	-0.262072	0.855862	-0.457069	6
C	1.078628	1.148292	-1.136209	6
C	2.116128	1.548242	-0.176409	6
N	2.937288	1.863692	0.579291	7
H	-1.930562	0.445122	1.686501	1
H	-1.658552	-1.289768	1.894381	1
H	-2.412472	-0.685418	0.408601	1
H	0.453188	-0.133008	1.333611	1
H	-0.506462	-1.861618	-1.009039	1
H	0.042188	-2.485738	0.555711	1
H	1.172178	-1.626068	-0.486579	1
H	-0.591672	1.756822	0.077881	1
H	-1.008822	0.672252	-1.240729	1
H	0.932098	1.963312	-1.855299	1
H	1.415008	0.284582	-1.718609	1
Es	0.451193	1.002872	-0.784677	99
Es	-0.246722	0.265140	0.019262	99
Es	-0.479587	1.471111	-0.094031	99
Es	2.393831	1.606425	0.471501	99
Es	-0.306967	-1.787786	-0.736913	99
Es	1.319393	0.575264	-1.506616	99
Es	-0.763110	0.726817	-0.998284	99
Es	-0.062543	-0.992636	0.177270	99
Es	-1.651225	-1.031721	1.659165	99
Es	-2.166175	-0.618098	0.641904	99
Es	0.227811	-0.193209	1.071610	99
Es	-1.647149	-0.474313	1.163351	99
Es	-1.838938	0.155939	1.517107	99
Es	2.770685	1.540150	0.092179	99
Es	0.068640	-2.214450	0.333753	99
Es	1.630189	1.356933	-0.623760	99
Es	-0.261755	-0.333166	0.526130	99
Es	0.132798	-1.649060	-0.145581	99
Es	3.194919	1.962725	0.817767	99
Es	2.115873	1.548145	-0.176649	99
Es	-0.261987	0.855866	-0.457102	99
Es	0.841884	-1.627102	-0.382621	99
Es	2.936971	1.863570	0.579002	99
Es	-0.962092	-0.400918	0.839372	99
Es	1.078735	1.148338	-1.136085	99
Es	0.996604	1.699811	-1.600080	99
Es	2.532204	2.017668	0.152704	99
45
Properties=species:S:1:pos:R:3:Z:I:1 energy=-288.1639189305001 field_type=dipole dipole="0.000000 0.000000 0.000000" charge=0
C	-1.647162	-0.474318	1.163361	6
C	-0.261722	-0.333168	0.526181	6
C	0.132798	-1.649078	-0.145579	6
C	-0.262072	0.855862	-0.457069	6
C	1.078628	1.148292	-1.136209	6
C	2.116128	1.548242	-0.176409	6
N	2.937288	1.863692	0.579291	7
H	-1.930562	0.445122	1.686501	1
H	-1.658552	-1.289768	1.894381	1
H	-2.412472	-0.685418	0.408601	1
H	0.453188	-0.133008	1.333611	1
H	-0.506462	-1.861618	-1.009039	1
H	0.042188	-2.485738	0.555711	1
H	1.172178	-1.626068	-0.486579	1
H	-0.591672	1.756822	0.077881	1
H	-1.008822	0.672252	-1.240729	1
H	0.932098	1.963312	-1.855299	1
H	1.415008	0.284582	-1.718609	1
Es	-2.166207	-0.618114	0.641928	99
Es	-0.261988	0.855866	-0.457102	99
Es	-0.062560	-0.992679	0.177304	99
Es	0.068654	-2.214473	0.333749	99
Es	0.451106	1.002928	-0.784653	99
Es	-0.261757	-0.333171	0.526132	99
Es	-0.763071	0.726908	-0.998158	99
Es	-1.838945	0.155914	1.517113	99
Es	2.115875	1.548147	-0.176638	99
Es	-0.479597	1.471107	-0.093988	99
Es	3.194836	1.963087	0.817513	99
Es	0.132803	-1.649061	-0.145581	99
Es	-0.306949	-1.787787	-0.736898	99
Es	1.319448	0.575213	-1.506561	99
Es	2.754763	1.796736	0.002225	99
Es	1.078735	1.148338	-1.136085	99
Es	2.371149	1.934781	0.358496	99
Es	-0.246750	0.264974	0.019183	99
Es	0.996670	1.699799	-1.600124	99
Es	2.936978	1.863574	0.579008	99
Es	0.227832	-0.193154	1.071479	99
Es	2.570819	1.432312	0.355814	99
Es	0.841883	-1.627063	-0.382632	99
Es	1.630214	1.357005	-0.623823	99
Es	-0.962085	-0.400878	0.839473	99
Es	-1.651226	-1.031680	1.659156	99
Es	-1.647149	-0.474315	1.163351	99
