43
Properties=species:S:1:pos:R:3:Z:I:1 energy=-270.96301385513567 field_type=dipole dipole="0.000000 0.000000 0.000000" charge=0
C	-2.149864	-0.358015	0.082000	6
C	-0.662234	-0.378455	0.007100	6
C	0.107296	-1.469955	-0.112930	6
C	1.563816	-1.136525	-0.141720	6
C	1.586506	0.391465	-0.223110	6
C	0.165486	0.809915	0.053560	6
C	-0.230674	2.060925	0.312630	6
H	-2.568604	-1.366465	-0.004520	1
H	-2.569314	0.244315	-0.730700	1
H	-2.485774	0.059985	1.036400	1
H	-0.265554	-2.483865	-0.159940	1
H	2.053816	-1.493875	0.770550	1
H	2.062716	-1.587425	-1.004980	1
H	1.881126	0.708895	-1.230740	1
H	2.294316	0.815915	0.496060	1
H	0.483736	2.877475	0.331010	1
H	-1.266794	2.305695	0.519330	1
Es	-2.424101	0.050794	-0.466268	99
Es	1.593554	-0.374584	-0.181534	99
Es	0.840123	-1.338940	-0.134448	99
Es	0.165545	0.809790	0.053533	99
Es	-2.149820	-0.358013	0.081998	99
Es	-0.298373	-0.883585	-0.375595	99
Es	0.107384	-1.470056	-0.112939	99
Es	-0.266450	-0.925167	0.264530	99
Es	-2.367319	-0.072642	0.725890	99
Es	1.777145	0.609862	-0.905078	99
Es	-1.405978	-0.363693	0.046503	99
Es	-2.427949	-1.045464	0.023614	99
Es	-0.140031	-2.165042	-0.145348	99
Es	1.889492	-1.380024	0.480366	99
Es	-0.003393	1.396498	0.507126	99
Es	2.063765	0.685293	0.265677	99
Es	1.563779	-1.136510	-0.141722	99
Es	0.252584	2.619690	0.326816	99
Es	-0.662323	-0.378352	0.007110	99
Es	1.900603	-1.447436	-0.729170	99
Es	-0.934383	2.230471	0.451342	99
Es	-0.230702	2.061012	0.312649	99
Es	0.883069	0.621182	-0.078542	99
Es	-0.099549	1.500369	-0.130020	99
Es	1.586471	0.391439	-0.223104	99
Es	-0.283511	0.237808	0.031468	99
43
Properties=species:S:1:pos:R:3:Z:I:1 energy=-270.96301385513567 field_type=dipole dipole="0.000000 0.000000 0.000000" charge=0
C	-2.149864	-0.358015	0.082000	6
C	-0.662234	-0.378455	0.007100	6
C	0.107296	-1.469955	-0.112930	6
C	1.563816	-1.136525	-0.141720	6
C	1.586506	0.391465	-0.223110	6
C	0.165486	0.809915	0.053560	6
C	-0.230674	2.060925	0.312630	6
H	-2.568604	-1.366465	-0.004520	1
H	-2.569314	0.244315	-0.730700	1
H	-2.485774	0.059985	1.036400	1
H	-0.265554	-2.483865	-0.159940	1
H	2.053816	-1.493875	0.770550	1
H	2.062716	-1.587425	-1.004980	1
H	1.881126	0.708895	-1.230740	1
H	2.294316	0.815915	0.496060	1
H	0.483736	2.877475	0.331010	1
H	-1.266794	2.305695	0.519330	1
Es	-1.405958	-0.363814	0.046576	99
Es	-0.230702	2.061013	0.312647	99
Es	1.889448	-1.380076	0.480248	99
Es	0.165541	0.809794	0.053530	99
Es	-2.149818	-0.358014	0.082000	99
Es	1.563779	-1.136511	-0.141721	99
Es	1.900606	-1.447450	-0.729161	99
Es	0.252638	2.619653	0.326752	99
Es	-0.140075	-2.165155	-0.145466	99
Es	-0.934373	2.230533	0.451358	99
Es	-0.283486	0.237805	0.031490	99
Es	-2.367202	-0.072901	0.725931	99
Es	-0.298241	-0.883386	-0.375247	99
Es	0.107384	-1.470057	-0.112937	99
Es	-0.662322	-0.378354	0.007121	99
Es	0.840163	-1.338791	-0.134528	99
Es	-0.003442	1.396490	0.507057	99
Es	1.593613	-0.374623	-0.181467	99
Es	1.586471	0.391440	-0.223105	99
Es	-0.266624	-0.925422	0.264305	99
Es	1.777161	0.609852	-0.904940	99
Es	-0.099535	1.500378	-0.129997	99
Es	-2.428032	-1.045328	0.023513	99
Es	0.883076	0.621235	-0.078499	99
Es	2.063754	0.685327	0.265613	99
Es	-2.424191	0.051060	-0.466221	99
43
Properties=species:S:1:pos:R:3:Z:I:1 energy=-270.96301385513567 field_type=dipole dipole="0.000000 0.000000 0.000000" charge=0
C	-2.149864	-0.358015	0.082000	6
C	-0.662234	-0.378455	0.007100	6
C	0.107296	-1.469955	-0.112930	6
C	1.563816	-1.136525	-0.141720	6
C	1.586506	0.391465	-0.223110	6
C	0.165486	0.809915	0.053560	6
C	-0.230674	2.060925	0.312630	6
H	-2.568604	-1.366465	-0.004520	1
H	-2.569314	0.244315	-0.730700	1
H	-2.485774	0.059985	1.036400	1
H	-0.265554	-2.483865	-0.159940	1
H	2.053816	-1.493875	0.770550	1
H	2.062716	-1.587425	-1.004980	1
H	1.881126	0.708895	-1.230740	1
H	2.294316	0.815915	0.496060	1
H	0.483736	2.877475	0.331010	1
H	-1.266794	2.305695	0.519330	1
Es	-0.662321	-0.378355	0.007111	99
Es	1.900608	-1.447476	-0.729234	99
Es	-0.099532	1.500406	-0.130099	99
Es	0.883090	0.621232	-0.078322	99
Es	1.889439	-1.380082	0.480083	99
Es	-1.406162	-0.363911	0.046477	99
Es	-0.298356	-0.883640	-0.375225	99
Es	-2.149820	-0.358015	0.081999	99
Es	2.063816	0.685348	0.265436	99
Es	-0.934364	2.230452	0.451322	99
Es	0.107382	-1.470052	-0.112938	99
Es	0.252536	2.619704	0.326845	99
Es	-0.266390	-0.925073	0.264260	99
Es	-2.424161	0.050958	-0.466311	99
Es	-0.003446	1.396464	0.507017	99
Es	-0.140135	-2.165029	-0.145363	99
Es	1.586472	0.391440	-0.223105	99
Es	-0.283539	0.237848	0.031479	99
Es	0.165539	0.809797	0.053538	99
Es	1.776994	0.609949	-0.904810	99
Es	-2.427986	-1.045406	0.023627	99
Es	1.563779	-1.136510	-0.141721	99
Es	1.593782	-0.374667	-0.181484	99
Es	-0.230700	2.061009	0.312644	99
Es	0.840282	-1.338941	-0.134305	99
Es	-2.367175	-0.072749	0.725935	99
43
Properties=species:S:1:pos:R:3:Z:I:1 energy=-270.96301385513567 field_type=dipole dipole="0.000000 0.000000 0.000000" charge=0
C	-2.149864	-0.358015	0.082000	6
C	-0.662234	-0.378455	0.007100	6
C	0.107296	-1.469955	-0.112930	6
C	1.563816	-1.136525	-0.141720	6
C	1.586506	0.391465	-0.223110	6
C	0.165486	0.809915	0.053560	6
C	-0.230674	2.060925	0.312630	6
H	-2.568604	-1.366465	-0.004520	1
H	-2.569314	0.244315	-0.730700	1
H	-2.485774	0.059985	1.036400	1
H	-0.265554	-2.483865	-0.159940	1
H	2.053816	-1.493875	0.770550	1
H	2.062716	-1.587425	-1.004980	1
H	1.881126	0.708895	-1.230740	1
H	2.294316	0.815915	0.496060	1
H	0.483736	2.877475	0.331010	1
H	-1.266794	2.305695	0.519330	1
Es	0.840402	-1.339029	-0.134438	99
Es	2.063586	0.685355	0.265617	99
Es	0.107381	-1.470053	-0.112938	99
Es	-0.003441	1.396466	0.506878	99
Es	1.586461	0.391443	-0.223103	99
Es	-0.298367	-0.883698	-0.375016	99
Es	-0.662321	-0.378355	0.007113	99
Es	1.900552	-1.447494	-0.729110	99
Es	-0.283481	0.237828	0.031514	99
Es	-2.424152	0.051121	-0.466126	99
Es	0.165540	0.809792	0.053530	99
Es	-2.367232	-0.072979	0.726004	99
Es	-2.427990	-1.045394	0.023352	99
Es	-0.266381	-0.925016	0.264120	99
Es	1.889449	-1.380122	0.480128	99
Es	0.883317	0.621358	-0.078648	99
Es	-1.406166	-0.363844	0.046485	99
Es	-2.149818	-0.358014	0.082000	99
Es	-0.934399	2.230490	0.451350	99
Es	1.777275	0.609901	-0.904898	99
Es	1.593586	-0.374614	-0.181390	99
Es	-0.230702	2.061013	0.312646	99
Es	-0.140243	-2.164986	-0.145374	99
Es	1.563779	-1.136510	-0.141720	99
Es	0.252569	2.619659	0.326821	99
Es	-0.099571	1.500380	-0.129940	99
43
Properties=species:S:1:pos:R:3:Z:I:1 energy=-270.96301385513567 field_type=dipole dipole="0.000000 0.000000 0.000000" charge=0
C	-2.149864	-0.358015	0.082000	6
C	-0.662234	-0.378455	0.007100	6
C	0.107296	-1.469955	-0.112930	6
C	1.563816	-1.136525	-0.141720	6
C	1.586506	0.391465	-0.223110	6
C	0.165486	0.809915	0.053560	6
C	-0.230674	2.060925	0.312630	6
H	-2.568604	-1.366465	-0.004520	1
H	-2.569314	0.244315	-0.730700	1
H	-2.485774	0.059985	1.036400	1
H	-0.265554	-2.483865	-0.159940	1
H	2.053816	-1.493875	0.770550	1
H	2.062716	-1.587425	-1.004980	1
H	1.881126	0.708895	-1.230740	1
H	2.294316	0.815915	0.496060	1
H	0.483736	2.877475	0.331010	1
H	-1.266794	2.305695	0.519330	1
Es	-0.003459	1.396460	0.506908	99
Es	2.063656	0.685369	0.265454	99
Es	1.593779	-0.374610	-0.181449	99
Es	-2.367183	-0.072906	0.725772	99
Es	-2.424133	0.051144	-0.466271	99
Es	-0.140273	-2.164985	-0.145396	99
Es	1.889335	-1.380124	0.480087	99
Es	-0.298311	-0.883660	-0.375036	99
Es	1.563781	-1.136512	-0.141721	99
Es	-2.428064	-1.045458	0.023566	99
Es	-0.230702	2.061012	0.312643	99
Es	0.840427	-1.339063	-0.134480	99
Es	0.165541	0.809793	0.053528	99
Es	-0.283614	0.237826	0.031541	99
Es	1.586471	0.391439	-0.223104	99
Es	-1.406195	-0.363871	0.046676	99
Es	0.883282	0.621247	-0.078461	99
Es	0.107381	-1.470052	-0.112937	99
Es	-0.099515	1.500365	-0.129868	99
Es	1.900669	-1.447494	-0.729020	99
Es	0.252554	2.619680	0.326814	99
Es	1.777093	0.609989	-0.904839	99
Es	-0.662321	-0.378355	0.007116	99
Es	-0.266372	-0.925015	0.264055	99
Es	-2.149818	-0.358011	0.081997	99
Es	-0.934374	2.230490	0.451280	99
43
Properties=species:S:1:pos:R:3:Z:I:1 energy=-270.96301385513567 field_type=dipole dipole="0.000000 0.000000 0.000000" charge=0
C	-2.149864	-0.358015	0.082000	6
C	-0.662234	-0.378455	0.007100	6
C	0.107296	-1.469955	-0.112930	6
C	1.563816	-1.136525	-0.141720	6
C	1.586506	0.391465	-0.223110	6
C	0.165486	0.809915	0.053560	6
C	-0.230674	2.060925	0.312630	6
H	-2.568604	-1.366465	-0.004520	1
H	-2.569314	0.244315	-0.730700	1
H	-2.485774	0.059985	1.036400	1
H	-0.265554	-2.483865	-0.159940	1
H	2.053816	-1.493875	0.770550	1
H	2.062716	-1.587425	-1.004980	1
H	1.881126	0.708895	-1.230740	1
H	2.294316	0.815915	0.496060	1
H	0.483736	2.877475	0.331010	1
H	-1.266794	2.305695	0.519330	1
Es	-0.266464	-0.925049	0.263776	99
Es	1.593824	-0.374597	-0.181478	99
Es	-0.099536	1.500326	-0.129941	99
Es	1.586472	0.391440	-0.223104	99
Es	-0.283498	0.237750	0.031530	99
Es	-2.424163	0.051038	-0.466210	99
Es	1.563779	-1.136511	-0.141721	99
Es	1.900562	-1.447552	-0.728961	99
Es	2.063589	0.685339	0.265415	99
Es	0.883258	0.621420	-0.078450	99
Es	1.777189	0.609995	-0.904792	99
Es	-2.149819	-0.358015	0.081999	99
Es	-0.298339	-0.883728	-0.374681	99
Es	0.840613	-1.338913	-0.134457	99
Es	-0.662317	-0.378358	0.007110	99
Es	-2.367184	-0.072847	0.725891	99
Es	-0.140310	-2.164961	-0.145446	99
Es	0.252523	2.619680	0.326736	99
Es	1.889359	-1.380177	0.480066	99
Es	0.107379	-1.470050	-0.112935	99
Es	-0.230702	2.061011	0.312647	99
Es	-2.428014	-1.045456	0.023531	99
Es	0.165539	0.809800	0.053536	99
Es	-1.406309	-0.363867	0.046523	99
Es	-0.934334	2.230504	0.451332	99
Es	-0.003464	1.396477	0.506938	99
43
Properties=species:S:1:pos:R:3:Z:I:1 energy=-270.96301385513567 field_type=dipole dipole="0.000000 0.000000 0.000000" charge=0
C	-2.149864	-0.358015	0.082000	6
C	-0.662234	-0.378455	0.007100	6
C	0.107296	-1.469955	-0.112930	6
C	1.563816	-1.136525	-0.141720	6
C	1.586506	0.391465	-0.223110	6
C	0.165486	0.809915	0.053560	6
C	-0.230674	2.060925	0.312630	6
H	-2.568604	-1.366465	-0.004520	1
H	-2.569314	0.244315	-0.730700	1
H	-2.485774	0.059985	1.036400	1
H	-0.265554	-2.483865	-0.159940	1
H	2.053816	-1.493875	0.770550	1
H	2.062716	-1.587425	-1.004980	1
H	1.881126	0.708895	-1.230740	1
H	2.294316	0.815915	0.496060	1
H	0.483736	2.877475	0.331010	1
H	-1.266794	2.305695	0.519330	1
Es	-0.283654	0.237817	0.031426	99
Es	-0.003482	1.396440	0.506776	99
Es	0.107384	-1.470056	-0.112937	99
Es	0.252532	2.619660	0.326887	99
Es	1.889319	-1.380172	0.480124	99
Es	-2.428030	-1.045442	0.023605	99
Es	1.593851	-0.374603	-0.181470	99
Es	-0.662320	-0.378357	0.007118	99
Es	1.777228	0.610058	-0.904870	99
Es	-1.406282	-0.363937	0.046713	99
Es	-2.424077	0.050947	-0.466305	99
Es	-0.298335	-0.883749	-0.374590	99
Es	0.165539	0.809798	0.053533	99
Es	0.883429	0.621394	-0.078548	99
Es	-0.266248	-0.924880	0.263793	99
Es	-0.230699	2.061006	0.312648	99
Es	-0.934397	2.230501	0.451185	99
Es	1.900579	-1.447581	-0.728860	99
Es	1.563780	-1.136511	-0.141721	99
Es	0.840574	-1.339002	-0.134619	99
Es	1.586471	0.391440	-0.223104	99
Es	-2.149821	-0.358015	0.082000	99
Es	-2.367285	-0.072745	0.725811	99
Es	2.063459	0.685351	0.265397	99
Es	-0.099468	1.500348	-0.129734	99
Es	-0.140416	-2.165013	-0.145402	99
43
Properties=species:S:1:pos:R:3:Z:I:1 energy=-270.96301385513567 field_type=dipole dipole="0.000000 0.000000 0.000000" charge=0
C	-2.149864	-0.358015	0.082000	6
C	-0.662234	-0.378455	0.007100	6
C	0.107296	-1.469955	-0.112930	6
C	1.563816	-1.136525	-0.141720	6
C	1.586506	0.391465	-0.223110	6
C	0.165486	0.809915	0.053560	6
C	-0.230674	2.060925	0.312630	6
H	-2.568604	-1.366465	-0.004520	1
H	-2.569314	0.244315	-0.730700	1
H	-2.485774	0.059985	1.036400	1
H	-0.265554	-2.483865	-0.159940	1
H	2.053816	-1.493875	0.770550	1
H	2.062716	-1.587425	-1.004980	1
H	1.881126	0.708895	-1.230740	1
H	2.294316	0.815915	0.496060	1
H	0.483736	2.877475	0.331010	1
H	-1.266794	2.305695	0.519330	1
Es	-0.003487	1.396431	0.506738	99
Es	1.593921	-0.374750	-0.181396	99
Es	0.840723	-1.338930	-0.134468	99
Es	-2.428026	-1.045393	0.023540	99
Es	0.107379	-1.470047	-0.112936	99
Es	0.165540	0.809805	0.053534	99
Es	-1.406350	-0.363956	0.046530	99
Es	1.586472	0.391438	-0.223104	99
Es	-2.424167	0.051071	-0.466247	99
Es	-0.266390	-0.924995	0.263593	99
Es	-0.140468	-2.164973	-0.145444	99
Es	1.900526	-1.447509	-0.728972	99
Es	1.777118	0.610067	-0.904674	99
Es	2.063515	0.685429	0.265277	99
Es	-2.149823	-0.358014	0.081999	99
Es	0.883504	0.621447	-0.078568	99
Es	-2.367172	-0.072876	0.725908	99
Es	-0.099630	1.500294	-0.129789	99
Es	1.563779	-1.136508	-0.141721	99
Es	-0.230697	2.061003	0.312662	99
Es	1.889359	-1.380283	0.480037	99
Es	-0.934317	2.230490	0.451316	99
Es	-0.283612	0.237836	0.031633	99
Es	-0.298249	-0.883706	-0.374520	99
Es	-0.662318	-0.378357	0.007119	99
Es	0.252504	2.619683	0.326808	99
43
Properties=species:S:1:pos:R:3:Z:I:1 energy=-270.96301385513567 field_type=dipole dipole="0.000000 0.000000 0.000000" charge=0
C	-2.149864	-0.358015	0.082000	6
C	-0.662234	-0.378455	0.007100	6
C	0.107296	-1.469955	-0.112930	6
C	1.563816	-1.136525	-0.141720	6
C	1.586506	0.391465	-0.223110	6
C	0.165486	0.809915	0.053560	6
C	-0.230674	2.060925	0.312630	6
H	-2.568604	-1.366465	-0.004520	1
H	-2.569314	0.244315	-0.730700	1
H	-2.485774	0.059985	1.036400	1
H	-0.265554	-2.483865	-0.159940	1
H	2.053816	-1.493875	0.770550	1
H	2.062716	-1.587425	-1.004980	1
H	1.881126	0.708895	-1.230740	1
H	2.294316	0.815915	0.496060	1
H	0.483736	2.877475	0.331010	1
H	-1.266794	2.305695	0.519330	1
Es	0.883485	0.621517	-0.078477	99
Es	1.889369	-1.380193	0.480010	99
Es	0.107379	-1.470051	-0.112938	99
Es	-0.140531	-2.164946	-0.145366	99
Es	-2.367279	-0.072887	0.725871	99
Es	1.563780	-1.136512	-0.141720	99
Es	-2.428070	-1.045382	0.023458	99
Es	-0.298286	-0.883743	-0.374289	99
Es	1.586472	0.391441	-0.223106	99
Es	1.777106	0.610048	-0.904667	99
Es	2.063603	0.685325	0.265228	99
Es	-2.149821	-0.358015	0.081999	99
Es	1.593843	-0.374563	-0.181616	99
Es	-0.266411	-0.924971	0.263448	99
Es	-1.406372	-0.363997	0.046640	99
Es	-0.230700	2.061008	0.312644	99
Es	-0.662323	-0.378362	0.007109	99
Es	0.840842	-1.339047	-0.134555	99
Es	-2.424039	0.051105	-0.466263	99
Es	-0.283549	0.237862	0.031686	99
Es	1.900479	-1.447643	-0.728868	99
Es	0.252554	2.619684	0.326605	99
Es	-0.099563	1.500176	-0.129529	99
Es	-0.003499	1.396519	0.506738	99
Es	-0.934373	2.230524	0.451278	99
Es	0.165537	0.809800	0.053533	99
43
Properties=species:S:1:pos:R:3:Z:I:1 energy=-270.96301385513567 field_type=dipole dipole="0.000000 0.000000 0.000000" charge=0
C	-2.149864	-0.358015	0.082000	6
C	-0.662234	-0.378455	0.007100	6
C	0.107296	-1.469955	-0.112930	6
C	1.563816	-1.136525	-0.141720	6
C	1.586506	0.391465	-0.223110	6
C	0.165486	0.809915	0.053560	6
C	-0.230674	2.060925	0.312630	6
H	-2.568604	-1.366465	-0.004520	1
H	-2.569314	0.244315	-0.730700	1
H	-2.485774	0.059985	1.036400	1
H	-0.265554	-2.483865	-0.159940	1
H	2.053816	-1.493875	0.770550	1
H	2.062716	-1.587425	-1.004980	1
H	1.881126	0.708895	-1.230740	1
H	2.294316	0.815915	0.496060	1
H	0.483736	2.877475	0.331010	1
H	-1.266794	2.305695	0.519330	1
Es	1.586472	0.391440	-0.223105	99
Es	1.900519	-1.447652	-0.728873	99
Es	1.563778	-1.136512	-0.141720	99
Es	-0.230701	2.061014	0.312648	99
Es	0.840947	-1.338985	-0.134478	99
Es	2.063477	0.685415	0.265244	99
Es	1.777127	0.610103	-0.904619	99
Es	0.252487	2.619705	0.326701	99
Es	-2.149817	-0.358015	0.082000	99
Es	-0.099551	1.500218	-0.129548	99
Es	-2.428090	-1.045400	0.023515	99
Es	-0.266418	-0.924959	0.263358	99
Es	-0.003526	1.396457	0.506697	99
Es	-2.367051	-0.072915	0.725945	99
Es	-0.298211	-0.883734	-0.374165	99
Es	0.107381	-1.470051	-0.112929	99
Es	1.593934	-0.374639	-0.181480	99
Es	-0.934357	2.230489	0.451212	99
Es	0.883612	0.621501	-0.078568	99
Es	1.889275	-1.380260	0.479949	99
Es	-0.662317	-0.378360	0.007110	99
Es	-1.406451	-0.364026	0.046374	99
Es	-0.140574	-2.164930	-0.145494	99
Es	-2.424231	0.051130	-0.466136	99
Es	-0.283621	0.237861	0.031689	99
Es	0.165538	0.809799	0.053531	99
43
Properties=species:S:1:pos:R:3:Z:I:1 energy=-270.96301385513567 field_type=dipole dipole="0.000000 0.000000 0.000000" charge=0
C	-2.149864	-0.358015	0.082000	6
C	-0.662234	-0.378455	0.007100	6
C	0.107296	-1.469955	-0.112930	6
C	1.563816	-1.136525	-0.141720	6
C	1.586506	0.391465	-0.223110	6
C	0.165486	0.809915	0.053560	6
C	-0.230674	2.060925	0.312630	6
H	-2.568604	-1.366465	-0.004520	1
H	-2.569314	0.244315	-0.730700	1
H	-2.485774	0.059985	1.036400	1
H	-0.265554	-2.483865	-0.159940	1
H	2.053816	-1.493875	0.770550	1
H	2.062716	-1.587425	-1.004980	1
H	1.881126	0.708895	-1.230740	1
H	2.294316	0.815915	0.496060	1
H	0.483736	2.877475	0.331010	1
H	-1.266794	2.305695	0.519330	1
Es	-0.298261	-0.883783	-0.373970	99
Es	-2.149821	-0.358015	0.081999	99
Es	-0.934341	2.230494	0.451216	99
Es	-0.283548	0.237970	0.031669	99
Es	-2.367112	-0.072851	0.725959	99
Es	-0.099541	1.500168	-0.129456	99
Es	1.889309	-1.380254	0.479922	99
Es	-0.230706	2.061013	0.312640	99
Es	1.593929	-0.374655	-0.181543	99
Es	1.563781	-1.136510	-0.141723	99
Es	1.900475	-1.447675	-0.728808	99
Es	2.063521	0.685417	0.265191	99
Es	0.252476	2.619713	0.326638	99
Es	-2.428064	-1.045390	0.023530	99
Es	-1.406507	-0.364066	0.046510	99
Es	0.107380	-1.470050	-0.112937	99
Es	-0.003534	1.396465	0.506728	99
Es	0.165537	0.809801	0.053533	99
Es	-0.662319	-0.378355	0.007107	99
Es	1.586472	0.391440	-0.223105	99
Es	1.777137	0.610049	-0.904521	99
Es	0.841023	-1.338996	-0.134459	99
Es	-2.424190	0.051055	-0.466180	99
Es	0.883633	0.621567	-0.078645	99
Es	-0.140640	-2.164904	-0.145459	99
Es	-0.266456	-0.924948	0.263018	99
43
Properties=species:S:1:pos:R:3:Z:I:1 energy=-270.96301385513567 field_type=dipole dipole="0.000000 0.000000 0.000000" charge=0
C	-2.149864	-0.358015	0.082000	6
C	-0.662234	-0.378455	0.007100	6
C	0.107296	-1.469955	-0.112930	6
C	1.563816	-1.136525	-0.141720	6
C	1.586506	0.391465	-0.223110	6
C	0.165486	0.809915	0.053560	6
C	-0.230674	2.060925	0.312630	6
H	-2.568604	-1.366465	-0.004520	1
H	-2.569314	0.244315	-0.730700	1
H	-2.485774	0.059985	1.036400	1
H	-0.265554	-2.483865	-0.159940	1
H	2.053816	-1.493875	0.770550	1
H	2.062716	-1.587425	-1.004980	1
H	1.881126	0.708895	-1.230740	1
H	2.294316	0.815915	0.496060	1
H	0.483736	2.877475	0.331010	1
H	-1.266794	2.305695	0.519330	1
Es	1.889201	-1.380231	0.479922	99
Es	1.777167	0.610158	-0.904527	99
Es	2.063375	0.685455	0.265226	99
Es	-2.367189	-0.072763	0.725886	99
Es	-0.230700	2.061008	0.312646	99
Es	1.900534	-1.447757	-0.728733	99
Es	0.883677	0.621507	-0.078701	99
Es	-0.140699	-2.164891	-0.145550	99
Es	-2.149820	-0.358015	0.081999	99
Es	-2.428061	-1.045397	0.023599	99
Es	-0.003414	1.396437	0.506497	99
Es	-0.283681	0.237848	0.031579	99
Es	1.594014	-0.374648	-0.181575	99
Es	-0.099652	1.500267	-0.129581	99
Es	-0.662315	-0.378364	0.007143	99
Es	-0.934339	2.230478	0.451302	99
Es	0.107381	-1.470051	-0.112938	99
Es	-0.266180	-0.924656	0.263360	99
Es	0.165537	0.809803	0.053530	99
Es	-2.424134	0.050974	-0.466264	99
Es	-0.298321	-0.884002	-0.373731	99
Es	0.252470	2.619686	0.326770	99
Es	0.841066	-1.339040	-0.134570	99
Es	1.586471	0.391438	-0.223105	99
Es	1.563780	-1.136513	-0.141722	99
Es	-1.406536	-0.364032	0.046390	99
43
Properties=species:S:1:pos:R:3:Z:I:1 energy=-270.96301385513567 field_type=dipole dipole="0.000000 0.000000 0.000000" charge=0
C	-2.149864	-0.358015	0.082000	6
C	-0.662234	-0.378455	0.007100	6
C	0.107296	-1.469955	-0.112930	6
C	1.563816	-1.136525	-0.141720	6
C	1.586506	0.391465	-0.223110	6
C	0.165486	0.809915	0.053560	6
C	-0.230674	2.060925	0.312630	6
H	-2.568604	-1.366465	-0.004520	1
H	-2.569314	0.244315	-0.730700	1
H	-2.485774	0.059985	1.036400	1
H	-0.265554	-2.483865	-0.159940	1
H	2.053816	-1.493875	0.770550	1
H	2.062716	-1.587425	-1.004980	1
H	1.881126	0.708895	-1.230740	1
H	2.294316	0.815915	0.496060	1
H	0.483736	2.877475	0.331010	1
H	-1.266794	2.305695	0.519330	1
Es	-2.367043	-0.072840	0.725919	99
Es	-2.149822	-0.358013	0.082003	99
Es	-0.266389	-0.924901	0.263085	99
Es	1.900489	-1.447656	-0.728822	99
Es	1.586473	0.391440	-0.223105	99
Es	-0.003564	1.396429	0.506510	99
Es	-2.424177	0.051112	-0.466289	99
Es	1.777039	0.610157	-0.904462	99
Es	-0.140738	-2.164885	-0.145575	99
Es	0.107386	-1.470051	-0.112937	99
Es	-0.934340	2.230512	0.451283	99
Es	-0.099629	1.500205	-0.129515	99
Es	0.165537	0.809800	0.053532	99
Es	1.563779	-1.136513	-0.141722	99
Es	1.889259	-1.380338	0.479818	99
Es	2.063451	0.685482	0.265067	99
Es	-1.406623	-0.364152	0.046447	99
Es	-0.283652	0.237927	0.031697	99
Es	-0.298179	-0.883799	-0.373679	99
Es	1.594063	-0.374728	-0.181439	99
Es	0.883767	0.621552	-0.078561	99
Es	0.252500	2.619666	0.326754	99
Es	-0.230700	2.061008	0.312643	99
Es	-0.662318	-0.378359	0.007111	99
Es	0.841156	-1.338972	-0.134520	99
Es	-2.428091	-1.045384	0.023612	99
43
Properties=species:S:1:pos:R:3:Z:I:1 energy=-270.96301385513567 field_type=dipole dipole="0.000000 0.000000 0.000000" charge=0
C	-2.149864	-0.358015	0.082000	6
C	-0.662234	-0.378455	0.007100	6
C	0.107296	-1.469955	-0.112930	6
C	1.563816	-1.136525	-0.141720	6
C	1.586506	0.391465	-0.223110	6
C	0.165486	0.809915	0.053560	6
C	-0.230674	2.060925	0.312630	6
H	-2.568604	-1.366465	-0.004520	1
H	-2.569314	0.244315	-0.730700	1
H	-2.485774	0.059985	1.036400	1
H	-0.265554	-2.483865	-0.159940	1
H	2.053816	-1.493875	0.770550	1
H	2.062716	-1.587425	-1.004980	1
H	1.881126	0.708895	-1.230740	1
H	2.294316	0.815915	0.496060	1
H	0.483736	2.877475	0.331010	1
H	-1.266794	2.305695	0.519330	1
Es	1.889222	-1.380341	0.479861	99
Es	1.586472	0.391439	-0.223105	99
Es	-0.283644	0.237980	0.031712	99
Es	1.777068	0.610222	-0.904453	99
Es	-0.230700	2.061006	0.312644	99
Es	-1.406637	-0.364237	0.046427	99
Es	-0.662317	-0.378361	0.007112	99
Es	0.252461	2.619703	0.326717	99
Es	-2.367089	-0.072714	0.725855	99
Es	1.900457	-1.447735	-0.728763	99
Es	-0.099576	1.500168	-0.129456	99
Es	1.563780	-1.136511	-0.141721	99
Es	-0.003596	1.396446	0.506486	99
Es	-2.424255	0.050934	-0.466454	99
Es	0.165537	0.809802	0.053530	99
Es	1.594078	-0.374725	-0.181495	99
Es	0.107380	-1.470049	-0.112940	99
Es	-0.298145	-0.883782	-0.373535	99
Es	0.883872	0.621537	-0.078561	99
Es	-2.149823	-0.358019	0.081999	99
Es	2.063349	0.685504	0.265063	99
Es	-0.934317	2.230479	0.451279	99
Es	-0.266382	-0.924871	0.262910	99
Es	-2.428020	-1.045303	0.023839	99
Es	0.841288	-1.339061	-0.134573	99
Es	-0.140831	-2.164817	-0.145523	99
43
Properties=species:S:1:pos:R:3:Z:I:1 energy=-270.96301385513567 field_type=dipole dipole="0.000000 0.000000 0.000000" charge=0
C	-2.149864	-0.358015	0.082000	6
C	-0.662234	-0.378455	0.007100	6
C	0.107296	-1.469955	-0.112930	6
C	1.563816	-1.136525	-0.141720	6
C	1.586506	0.391465	-0.223110	6
C	0.165486	0.809915	0.053560	6
C	-0.230674	2.060925	0.312630	6
H	-2.568604	-1.366465	-0.004520	1
H	-2.569314	0.244315	-0.730700	1
H	-2.485774	0.059985	1.036400	1
H	-0.265554	-2.483865	-0.159940	1
H	2.053816	-1.493875	0.770550	1
H	2.062716	-1.587425	-1.004980	1
H	1.881126	0.708895	-1.230740	1
H	2.294316	0.815915	0.496060	1
H	0.483736	2.877475	0.331010	1
H	-1.266794	2.305695	0.519330	1
Es	-2.367099	-0.072864	0.725861	99
Es	0.165538	0.809801	0.053534	99
Es	-2.424168	0.051106	-0.466242	99
Es	-0.003575	1.396533	0.506679	99
Es	0.841317	-1.339052	-0.134655	99
Es	-0.230701	2.061009	0.312645	99
Es	-0.099476	1.499979	-0.129052	99
Es	-0.662319	-0.378359	0.007108	99
Es	0.252446	2.619715	0.326503	99
Es	1.889095	-1.380269	0.479848	99
Es	2.063363	0.685398	0.265119	99
Es	-2.428110	-1.045396	0.023583	99
Es	1.900576	-1.447812	-0.728602	99
Es	-0.266356	-0.924855	0.262977	99
Es	-0.298132	-0.883818	-0.373372	99
Es	1.563780	-1.136512	-0.141721	99
Es	-0.283735	0.237932	0.031627	99
Es	-2.149821	-0.358015	0.081998	99
Es	0.107381	-1.470051	-0.112936	99
Es	1.777101	0.610301	-0.904382	99
Es	1.586472	0.391439	-0.223105	99
Es	1.594037	-0.374666	-0.181702	99
Es	0.883884	0.621644	-0.078745	99
Es	-0.934388	2.230517	0.451083	99
Es	-1.406663	-0.364158	0.046358	99
Es	-0.140815	-2.164851	-0.145555	99
43
Properties=species:S:1:pos:R:3:Z:I:1 energy=-270.96301385513567 field_type=dipole dipole="0.000000 0.000000 0.000000" charge=0
C	-2.149864	-0.358015	0.082000	6
C	-0.662234	-0.378455	0.007100	6
C	0.107296	-1.469955	-0.112930	6
C	1.563816	-1.136525	-0.141720	6
C	1.586506	0.391465	-0.223110	6
C	0.165486	0.809915	0.053560	6
C	-0.230674	2.060925	0.312630	6
H	-2.568604	-1.366465	-0.004520	1
H	-2.569314	0.244315	-0.730700	1
H	-2.485774	0.059985	1.036400	1
H	-0.265554	-2.483865	-0.159940	1
H	2.053816	-1.493875	0.770550	1
H	2.062716	-1.587425	-1.004980	1
H	1.881126	0.708895	-1.230740	1
H	2.294316	0.815915	0.496060	1
H	0.483736	2.877475	0.331010	1
H	-1.266794	2.305695	0.519330	1
Es	-2.366999	-0.073061	0.725974	99
Es	1.900541	-1.447833	-0.728631	99
Es	-0.283742	0.237976	0.031949	99
Es	-2.149819	-0.358012	0.082002	99
Es	2.063343	0.685516	0.265008	99
Es	0.252458	2.619711	0.326597	99
Es	-0.140838	-2.164826	-0.145442	99
Es	1.594128	-0.374715	-0.181579	99
Es	-0.099535	1.500027	-0.129143	99
Es	-2.428126	-1.045342	0.023437	99
Es	0.107378	-1.470047	-0.112936	99
Es	-0.934362	2.230499	0.451168	99
Es	1.889087	-1.380306	0.479822	99
Es	-2.424224	0.051303	-0.466156	99
Es	-0.662308	-0.378365	0.007100	99
Es	0.841409	-1.339007	-0.134523	99
Es	-1.406654	-0.364244	0.046478	99
Es	-0.230701	2.061008	0.312645	99
Es	-0.298122	-0.883766	-0.373675	99
Es	0.883966	0.621622	-0.078695	99
Es	1.563779	-1.136514	-0.141720	99
Es	1.777040	0.610252	-0.904364	99
Es	0.165536	0.809800	0.053536	99
Es	-0.003605	1.396495	0.506500	99
Es	-0.266468	-0.924911	0.262608	99
Es	1.586472	0.391438	-0.223104	99
43
Properties=species:S:1:pos:R:3:Z:I:1 energy=-270.96301385513567 field_type=dipole dipole="0.000000 0.000000 0.000000" charge=0
C	-2.149864	-0.358015	0.082000	6
C	-0.662234	-0.378455	0.007100	6
C	0.107296	-1.469955	-0.112930	6
C	1.563816	-1.136525	-0.141720	6
C	1.586506	0.391465	-0.223110	6
C	0.165486	0.809915	0.053560	6
C	-0.230674	2.060925	0.312630	6
H	-2.568604	-1.366465	-0.004520	1
H	-2.569314	0.244315	-0.730700	1
H	-2.485774	0.059985	1.036400	1
H	-0.265554	-2.483865	-0.159940	1
H	2.053816	-1.493875	0.770550	1
H	2.062716	-1.587425	-1.004980	1
H	1.881126	0.708895	-1.230740	1
H	2.294316	0.815915	0.496060	1
H	0.483736	2.877475	0.331010	1
H	-1.266794	2.305695	0.519330	1
Es	0.883986	0.621684	-0.078742	99
Es	-0.283770	0.237927	0.031721	99
Es	-0.140941	-2.164830	-0.145564	99
Es	2.063289	0.685428	0.265014	99
Es	0.252471	2.619714	0.326585	99
Es	0.841520	-1.339096	-0.134641	99
Es	-0.266371	-0.924865	0.262527	99
Es	-0.662314	-0.378368	0.007109	99
Es	-2.424097	0.051068	-0.466244	99
Es	-2.428111	-1.045371	0.023528	99
Es	-0.099473	1.499940	-0.129052	99
Es	-0.003656	1.396561	0.506467	99
Es	-2.367126	-0.072812	0.725954	99
Es	1.900504	-1.447733	-0.728607	99
Es	-0.934362	2.230495	0.451188	99
Es	0.165538	0.809802	0.053533	99
Es	1.889154	-1.380382	0.479781	99
Es	0.107380	-1.470046	-0.112934	99
Es	-0.230697	2.061003	0.312656	99
Es	-2.149821	-0.358014	0.081999	99
Es	-1.406830	-0.364276	0.046518	99
Es	1.586473	0.391439	-0.223103	99
Es	-0.298025	-0.883712	-0.373204	99
Es	1.777113	0.610325	-0.904320	99
Es	1.594024	-0.374668	-0.181595	99
Es	1.563778	-1.136512	-0.141720	99
43
Properties=species:S:1:pos:R:3:Z:I:1 energy=-270.96301385513567 field_type=dipole dipole="0.000000 0.000000 0.000000" charge=0
C	-2.149864	-0.358015	0.082000	6
C	-0.662234	-0.378455	0.007100	6
C	0.107296	-1.469955	-0.112930	6
C	1.563816	-1.136525	-0.141720	6
C	1.586506	0.391465	-0.223110	6
C	0.165486	0.809915	0.053560	6
C	-0.230674	2.060925	0.312630	6
H	-2.568604	-1.366465	-0.004520	1
H	-2.569314	0.244315	-0.730700	1
H	-2.485774	0.059985	1.036400	1
H	-0.265554	-2.483865	-0.159940	1
H	2.053816	-1.493875	0.770550	1
H	2.062716	-1.587425	-1.004980	1
H	1.881126	0.708895	-1.230740	1
H	2.294316	0.815915	0.496060	1
H	0.483736	2.877475	0.331010	1
H	-1.266794	2.305695	0.519330	1
Es	-2.367091	-0.072885	0.725957	99
Es	1.594236	-0.374728	-0.181599	99
Es	1.900433	-1.447845	-0.728612	99
Es	0.165539	0.809802	0.053534	99
Es	-2.428098	-1.045360	0.023518	99
Es	1.563780	-1.136511	-0.141726	99
Es	0.884083	0.621625	-0.078667	99
Es	-0.662317	-0.378363	0.007112	99
Es	-2.149819	-0.358013	0.081999	99
Es	-0.283762	0.237958	0.031852	99
Es	0.107380	-1.470048	-0.112936	99
Es	-2.424156	0.051121	-0.466225	99
Es	-0.003510	1.396481	0.506285	99
Es	1.776965	0.610320	-0.904272	99
Es	1.586469	0.391439	-0.223105	99
Es	-0.099563	1.500065	-0.129130	99
Es	-0.140988	-2.164800	-0.145537	99
Es	-0.266383	-0.924826	0.262407	99
Es	0.841596	-1.338941	-0.134585	99
Es	0.252398	2.619707	0.326607	99
Es	2.063328	0.685553	0.264957	99
Es	1.889083	-1.380438	0.479767	99
Es	-0.298085	-0.883827	-0.373067	99
Es	-1.406822	-0.364264	0.046433	99
Es	-0.934363	2.230469	0.451240	99
Es	-0.230701	2.061006	0.312647	99
43
Properties=species:S:1:pos:R:3:Z:I:1 energy=-270.96301385513567 field_type=dipole dipole="0.000000 0.000000 0.000000" charge=0
C	-2.149864	-0.358015	0.082000	6
C	-0.662234	-0.378455	0.007100	6
C	0.107296	-1.469955	-0.112930	6
C	1.563816	-1.136525	-0.141720	6
C	1.586506	0.391465	-0.223110	6
C	0.165486	0.809915	0.053560	6
C	-0.230674	2.060925	0.312630	6
H	-2.568604	-1.366465	-0.004520	1
H	-2.569314	0.244315	-0.730700	1
H	-2.485774	0.059985	1.036400	1
H	-0.265554	-2.483865	-0.159940	1
H	2.053816	-1.493875	0.770550	1
H	2.062716	-1.587425	-1.004980	1
H	1.881126	0.708895	-1.230740	1
H	2.294316	0.815915	0.496060	1
H	0.483736	2.877475	0.331010	1
H	-1.266794	2.305695	0.519330	1
Es	1.900556	-1.447959	-0.728539	99
Es	-0.230700	2.061005	0.312645	99
Es	1.888989	-1.380300	0.479771	99
Es	1.586474	0.391440	-0.223104	99
Es	2.063239	0.685434	0.264895	99
Es	1.777087	0.610372	-0.904262	99
Es	-2.428112	-1.045394	0.023488	99
Es	-0.662317	-0.378361	0.007111	99
Es	-0.266444	-0.924949	0.262255	99
Es	-0.140996	-2.164793	-0.145481	99
Es	1.594153	-0.374757	-0.181672	99
Es	0.165550	0.809795	0.053530	99
Es	-0.298021	-0.883682	-0.373034	99
Es	-0.934343	2.230476	0.451235	99
Es	0.884070	0.621759	-0.078651	99
Es	-2.424136	0.051174	-0.466204	99
Es	-0.099608	1.500053	-0.129128	99
Es	-2.149824	-0.358017	0.081999	99
Es	0.841655	-1.338984	-0.134558	99
Es	1.563780	-1.136512	-0.141721	99
Es	0.252421	2.619713	0.326616	99
Es	-2.367081	-0.072917	0.725928	99
Es	0.107379	-1.470046	-0.112936	99
Es	-0.283707	0.237952	0.031837	99
Es	-1.406872	-0.364271	0.046524	99
Es	-0.003560	1.396467	0.506311	99
43
Properties=species:S:1:pos:R:3:Z:I:1 energy=-270.96301385513567 field_type=dipole dipole="0.000000 0.000000 0.000000" charge=0
C	-2.149864	-0.358015	0.082000	6
C	-0.662234	-0.378455	0.007100	6
C	0.107296	-1.469955	-0.112930	6
C	1.563816	-1.136525	-0.141720	6
C	1.586506	0.391465	-0.223110	6
C	0.165486	0.809915	0.053560	6
C	-0.230674	2.060925	0.312630	6
H	-2.568604	-1.366465	-0.004520	1
H	-2.569314	0.244315	-0.730700	1
H	-2.485774	0.059985	1.036400	1
H	-0.265554	-2.483865	-0.159940	1
H	2.053816	-1.493875	0.770550	1
H	2.062716	-1.587425	-1.004980	1
H	1.881126	0.708895	-1.230740	1
H	2.294316	0.815915	0.496060	1
H	0.483736	2.877475	0.331010	1
H	-1.266794	2.305695	0.519330	1
Es	0.252406	2.619705	0.326603	99
Es	-1.406903	-0.364365	0.046419	99
Es	1.586469	0.391440	-0.223104	99
Es	0.884090	0.621650	-0.078685	99
Es	1.777051	0.610418	-0.904159	99
Es	-0.934317	2.230503	0.451174	99
Es	-2.424135	0.051147	-0.466229	99
Es	1.563780	-1.136505	-0.141723	99
Es	-0.283758	0.238037	0.031845	99
Es	-0.099545	1.500036	-0.129088	99
Es	2.063207	0.685496	0.264915	99
Es	-0.141035	-2.164789	-0.145610	99
Es	1.889079	-1.380422	0.479708	99
Es	0.841707	-1.338991	-0.134680	99
Es	0.165538	0.809795	0.053540	99
Es	-0.298093	-0.883931	-0.372723	99
Es	-0.662314	-0.378364	0.007112	99
Es	-2.428149	-1.045362	0.023538	99
Es	1.594244	-0.374741	-0.181691	99
Es	0.107378	-1.470046	-0.112938	99
Es	1.900453	-1.447856	-0.728519	99
Es	-2.367057	-0.072871	0.725931	99
Es	-0.230699	2.061004	0.312642	99
Es	-0.266355	-0.924739	0.262271	99
Es	-2.149820	-0.358015	0.081999	99
Es	-0.003591	1.396466	0.506304	99
43
Properties=species:S:1:pos:R:3:Z:I:1 energy=-270.96301385513567 field_type=dipole dipole="0.000000 0.000000 0.000000" charge=0
C	-2.149864	-0.358015	0.082000	6
C	-0.662234	-0.378455	0.007100	6
C	0.107296	-1.469955	-0.112930	6
C	1.563816	-1.136525	-0.141720	6
C	1.586506	0.391465	-0.223110	6
C	0.165486	0.809915	0.053560	6
C	-0.230674	2.060925	0.312630	6
H	-2.568604	-1.366465	-0.004520	1
H	-2.569314	0.244315	-0.730700	1
H	-2.485774	0.059985	1.036400	1
H	-0.265554	-2.483865	-0.159940	1
H	2.053816	-1.493875	0.770550	1
H	2.062716	-1.587425	-1.004980	1
H	1.881126	0.708895	-1.230740	1
H	2.294316	0.815915	0.496060	1
H	0.483736	2.877475	0.331010	1
H	-1.266794	2.305695	0.519330	1
Es	-2.149821	-0.358014	0.081998	99
Es	-0.230700	2.061003	0.312643	99
Es	-0.297997	-0.883817	-0.372695	99
Es	0.841758	-1.338987	-0.134612	99
Es	1.586472	0.391438	-0.223108	99
Es	0.884192	0.621676	-0.078669	99
Es	-0.662321	-0.378361	0.007111	99
Es	-0.266378	-0.924810	0.262085	99
Es	1.594297	-0.374702	-0.181564	99
Es	-0.099583	1.500039	-0.129064	99
Es	2.063269	0.685585	0.264830	99
Es	-0.141118	-2.164781	-0.145544	99
Es	1.888996	-1.380438	0.479637	99
Es	-0.283770	0.237986	0.031973	99
Es	0.165534	0.809807	0.053537	99
Es	1.900469	-1.447915	-0.728522	99
Es	-0.934339	2.230459	0.451193	99
Es	-2.428106	-1.045370	0.023533	99
Es	0.252376	2.619730	0.326590	99
Es	0.107378	-1.470045	-0.112938	99
Es	-2.424092	0.051054	-0.466254	99
Es	1.776951	0.610340	-0.904166	99
Es	-2.367143	-0.072808	0.725940	99
Es	-1.406947	-0.364317	0.046450	99
Es	1.563783	-1.136515	-0.141715	99
Es	-0.003529	1.396458	0.506185	99
