42
Properties=species:S:1:pos:R:3:Z:I:1 energy=-286.9159597892254 field_type=dipole dipole="0.000000 0.000000 0.000000" charge=0
C	-3.135246	-0.422573	-0.202481	6
C	-1.691246	-0.422573	-0.202481	6
C	-0.501086	-0.422573	-0.202481	6
C	0.904913	-0.422573	-0.202481	6
C	1.551824	-1.595283	-0.308011	6
C	1.648364	0.890647	-0.136961	6
N	1.604013	1.477367	1.199959	7
H	-3.529206	0.598307	-0.190461	1
H	-3.529246	-0.943383	0.675619	1
H	-3.529276	-0.922603	-1.092571	1
H	1.016354	-2.538023	-0.368451	1
H	2.635893	-1.641673	-0.317481	1
H	1.216114	1.593557	-0.859661	1
H	2.698304	0.757367	-0.422351	1
H	0.627854	1.604807	1.465059	1
H	2.011673	2.409197	1.165229	1
Es	0.904783	-0.422457	-0.202475	99
Es	-3.381287	-0.757296	-0.798058	99
Es	-3.382353	0.261525	-0.194332	99
Es	1.551866	-1.595353	-0.308019	99
Es	0.180771	-0.408499	-0.196354	99
Es	1.648312	0.890644	-0.136826	99
Es	1.211370	-1.026348	0.061922	99
Es	-1.691528	-0.422572	-0.202481	99
Es	2.286821	-1.629238	-0.317526	99
Es	1.195140	-2.234846	-0.350047	99
Es	1.344788	1.364031	-0.640286	99
Es	2.364795	0.791304	-0.331352	99
Es	1.199294	-0.975650	-0.579006	99
Es	-1.069436	-0.279450	-0.530333	99
Es	1.839085	2.046194	1.158122	99
Es	1.772086	1.275774	1.435455	99
Es	1.011666	1.564776	1.340148	99
Es	-2.391387	-0.422698	-0.202647	99
Es	-3.381233	-0.771202	0.384973	99
Es	1.255543	0.225201	-0.162986	99
Es	-3.135138	-0.422571	-0.202481	99
Es	1.606090	1.233194	0.607659	99
Es	-0.500848	-0.422567	-0.202479	99
Es	1.603814	1.477594	1.199655	99
Es	-1.091310	-0.780293	-0.162205	99
Es	-1.077306	-0.205221	0.086099	99
42
Properties=species:S:1:pos:R:3:Z:I:1 energy=-286.9159597892254 field_type=dipole dipole="0.000000 0.000000 0.000000" charge=0
C	-3.135246	-0.422573	-0.202481	6
C	-1.691246	-0.422573	-0.202481	6
C	-0.501086	-0.422573	-0.202481	6
C	0.904913	-0.422573	-0.202481	6
C	1.551824	-1.595283	-0.308011	6
C	1.648364	0.890647	-0.136961	6
N	1.604013	1.477367	1.199959	7
H	-3.529206	0.598307	-0.190461	1
H	-3.529246	-0.943383	0.675619	1
H	-3.529276	-0.922603	-1.092571	1
H	1.016354	-2.538023	-0.368451	1
H	2.635893	-1.641673	-0.317481	1
H	1.216114	1.593557	-0.859661	1
H	2.698304	0.757367	-0.422351	1
H	0.627854	1.604807	1.465059	1
H	2.011673	2.409197	1.165229	1
Es	1.255474	0.225233	-0.163093	99
Es	1.011567	1.564722	1.340236	99
Es	1.344922	1.363898	-0.640245	99
Es	1.211402	-1.026317	0.061900	99
Es	2.286870	-1.629279	-0.317536	99
Es	1.648313	0.890643	-0.136829	99
Es	1.199146	-0.975709	-0.579017	99
Es	-2.391511	-0.422553	-0.202636	99
Es	-3.382484	0.261506	-0.194483	99
Es	-1.066922	-0.330442	-0.547085	99
Es	1.551868	-1.595355	-0.308018	99
Es	1.195095	-2.234803	-0.349975	99
Es	2.364875	0.791331	-0.331323	99
Es	-3.381132	-0.757524	-0.798072	99
Es	-1.081221	-0.164157	0.051327	99
Es	-1.089878	-0.770432	-0.110890	99
Es	-0.500845	-0.422568	-0.202478	99
Es	1.772034	1.275962	1.435411	99
Es	1.603735	1.477703	1.199558	99
Es	-3.381162	-0.771127	0.385040	99
Es	1.839124	2.046160	1.158166	99
Es	0.180848	-0.408425	-0.196006	99
Es	-3.135134	-0.422572	-0.202481	99
Es	1.606163	1.233113	0.607629	99
Es	0.904783	-0.422458	-0.202475	99
Es	-1.691528	-0.422571	-0.202487	99
42
Properties=species:S:1:pos:R:3:Z:I:1 energy=-286.9159597892254 field_type=dipole dipole="0.000000 0.000000 0.000000" charge=0
C	-3.135246	-0.422573	-0.202481	6
C	-1.691246	-0.422573	-0.202481	6
C	-0.501086	-0.422573	-0.202481	6
C	0.904913	-0.422573	-0.202481	6
C	1.551824	-1.595283	-0.308011	6
C	1.648364	0.890647	-0.136961	6
N	1.604013	1.477367	1.199959	7
H	-3.529206	0.598307	-0.190461	1
H	-3.529246	-0.943383	0.675619	1
H	-3.529276	-0.922603	-1.092571	1
H	1.016354	-2.538023	-0.368451	1
H	2.635893	-1.641673	-0.317481	1
H	1.216114	1.593557	-0.859661	1
H	2.698304	0.757367	-0.422351	1
H	0.627854	1.604807	1.465059	1
H	2.011673	2.409197	1.165229	1
Es	1.199102	-0.975789	-0.578888	99
Es	-1.691526	-0.422572	-0.202482	99
Es	2.364778	0.791336	-0.331338	99
Es	-3.381188	-0.757368	-0.798203	99
Es	-1.078660	-0.190341	0.075382	99
Es	-2.391615	-0.422678	-0.202549	99
Es	-3.382333	0.261637	-0.194274	99
Es	-1.090937	-0.777792	-0.145370	99
Es	1.344862	1.363845	-0.640336	99
Es	1.551867	-1.595354	-0.308016	99
Es	1.195158	-2.234848	-0.350071	99
Es	1.606158	1.233256	0.607623	99
Es	1.771898	1.275801	1.435555	99
Es	1.603757	1.477656	1.199628	99
Es	1.255836	0.225243	-0.162912	99
Es	-0.500842	-0.422568	-0.202477	99
Es	1.648314	0.890645	-0.136828	99
Es	1.839097	2.046186	1.158322	99
Es	1.011724	1.564805	1.339970	99
Es	0.180800	-0.408401	-0.196203	99
Es	-3.135136	-0.422572	-0.202481	99
Es	2.286862	-1.629187	-0.317574	99
Es	-3.381155	-0.771262	0.384977	99
Es	-1.068369	-0.296774	-0.536609	99
Es	1.211163	-1.026466	0.061775	99
Es	0.904786	-0.422461	-0.202479	99
42
Properties=species:S:1:pos:R:3:Z:I:1 energy=-286.9159597892254 field_type=dipole dipole="0.000000 0.000000 0.000000" charge=0
C	-3.135246	-0.422573	-0.202481	6
C	-1.691246	-0.422573	-0.202481	6
C	-0.501086	-0.422573	-0.202481	6
C	0.904913	-0.422573	-0.202481	6
C	1.551824	-1.595283	-0.308011	6
C	1.648364	0.890647	-0.136961	6
N	1.604013	1.477367	1.199959	7
H	-3.529206	0.598307	-0.190461	1
H	-3.529246	-0.943383	0.675619	1
H	-3.529276	-0.922603	-1.092571	1
H	1.016354	-2.538023	-0.368451	1
H	2.635893	-1.641673	-0.317481	1
H	1.216114	1.593557	-0.859661	1
H	2.698304	0.757367	-0.422351	1
H	0.627854	1.604807	1.465059	1
H	2.011673	2.409197	1.165229	1
Es	1.551867	-1.595354	-0.308017	99
Es	-0.500853	-0.422561	-0.202466	99
Es	-2.391680	-0.422621	-0.202789	99
Es	2.364719	0.791248	-0.331287	99
Es	1.606229	1.233117	0.607501	99
Es	-1.091362	-0.780792	-0.167529	99
Es	1.648314	0.890645	-0.136827	99
Es	1.771870	1.276059	1.435275	99
Es	-1.069651	-0.274622	-0.528085	99
Es	-1.076884	-0.209336	0.089387	99
Es	-3.381283	-0.757482	-0.798133	99
Es	1.011612	1.564795	1.340353	99
Es	-3.135135	-0.422572	-0.202481	99
Es	2.286945	-1.629183	-0.317661	99
Es	1.195074	-2.234826	-0.350085	99
Es	0.904781	-0.422458	-0.202468	99
Es	1.255829	0.225418	-0.163021	99
Es	1.211039	-1.026576	0.061746	99
Es	0.180883	-0.408520	-0.196651	99
Es	1.839232	2.046019	1.158410	99
Es	1.199016	-0.975905	-0.578557	99
Es	-3.382370	0.261657	-0.194305	99
Es	-3.380961	-0.771228	0.385114	99
Es	1.344967	1.363932	-0.640362	99
Es	1.603730	1.477699	1.199562	99
Es	-1.691529	-0.422573	-0.202483	99
42
Properties=species:S:1:pos:R:3:Z:I:1 energy=-286.9159597892254 field_type=dipole dipole="0.000000 0.000000 0.000000" charge=0
C	-3.135246	-0.422573	-0.202481	6
C	-1.691246	-0.422573	-0.202481	6
C	-0.501086	-0.422573	-0.202481	6
C	0.904913	-0.422573	-0.202481	6
C	1.551824	-1.595283	-0.308011	6
C	1.648364	0.890647	-0.136961	6
N	1.604013	1.477367	1.199959	7
H	-3.529206	0.598307	-0.190461	1
H	-3.529246	-0.943383	0.675619	1
H	-3.529276	-0.922603	-1.092571	1
H	1.016354	-2.538023	-0.368451	1
H	2.635893	-1.641673	-0.317481	1
H	1.216114	1.593557	-0.859661	1
H	2.698304	0.757367	-0.422351	1
H	0.627854	1.604807	1.465059	1
H	2.011673	2.409197	1.165229	1
Es	1.211172	-1.026528	0.061589	99
Es	1.255848	0.225496	-0.163124	99
Es	-1.091279	-0.780199	-0.162245	99
Es	1.198828	-0.975989	-0.578737	99
Es	0.180871	-0.408457	-0.196223	99
Es	-3.135133	-0.422571	-0.202481	99
Es	-1.077201	-0.205457	0.086259	99
Es	1.011612	1.564774	1.340547	99
Es	-2.391811	-0.422567	-0.202608	99
Es	-3.381106	-0.757358	-0.798253	99
Es	1.839256	2.045967	1.158424	99
Es	1.345047	1.363901	-0.640409	99
Es	-1.069383	-0.279197	-0.530464	99
Es	-0.500843	-0.422569	-0.202478	99
Es	-3.382285	0.261740	-0.194278	99
Es	-3.381097	-0.771383	0.385096	99
Es	1.606247	1.232931	0.607544	99
Es	2.286936	-1.629134	-0.317669	99
Es	-1.691526	-0.422580	-0.202477	99
Es	1.551868	-1.595356	-0.308019	99
Es	1.648313	0.890643	-0.136831	99
Es	2.364680	0.791154	-0.331273	99
Es	0.904786	-0.422459	-0.202476	99
Es	1.603730	1.477707	1.199565	99
Es	1.771782	1.276344	1.435129	99
Es	1.195090	-2.234874	-0.349969	99
42
Properties=species:S:1:pos:R:3:Z:I:1 energy=-286.9159597892254 field_type=dipole dipole="0.000000 0.000000 0.000000" charge=0
C	-3.135246	-0.422573	-0.202481	6
C	-1.691246	-0.422573	-0.202481	6
C	-0.501086	-0.422573	-0.202481	6
C	0.904913	-0.422573	-0.202481	6
C	1.551824	-1.595283	-0.308011	6
C	1.648364	0.890647	-0.136961	6
N	1.604013	1.477367	1.199959	7
H	-3.529206	0.598307	-0.190461	1
H	-3.529246	-0.943383	0.675619	1
H	-3.529276	-0.922603	-1.092571	1
H	1.016354	-2.538023	-0.368451	1
H	2.635893	-1.641673	-0.317481	1
H	1.216114	1.593557	-0.859661	1
H	2.698304	0.757367	-0.422351	1
H	0.627854	1.604807	1.465059	1
H	2.011673	2.409197	1.165229	1
Es	1.648312	0.890645	-0.136830	99
Es	1.198921	-0.975937	-0.578737	99
Es	1.211127	-1.026627	0.061474	99
Es	-1.072323	-0.235218	-0.508163	99
Es	1.344997	1.363832	-0.640310	99
Es	-3.381139	-0.757451	-0.798258	99
Es	1.771798	1.276364	1.435094	99
Es	1.195050	-2.234825	-0.350057	99
Es	-3.382211	0.261830	-0.194310	99
Es	-1.091633	-0.782576	-0.209940	99
Es	2.286994	-1.629164	-0.317560	99
Es	-0.500864	-0.422570	-0.202480	99
Es	-2.391920	-0.422663	-0.202590	99
Es	0.180884	-0.408745	-0.196529	99
Es	1.603728	1.477712	1.199559	99
Es	1.839169	2.046061	1.158483	99
Es	1.551868	-1.595353	-0.308018	99
Es	-1.691528	-0.422572	-0.202483	99
Es	2.364684	0.791297	-0.331362	99
Es	-3.135140	-0.422570	-0.202482	99
Es	-1.073809	-0.246867	0.111922	99
Es	-3.381039	-0.771315	0.385146	99
Es	1.011684	1.564637	1.340588	99
Es	1.255729	0.225534	-0.162999	99
Es	1.606278	1.232971	0.607476	99
Es	0.904783	-0.422456	-0.202494	99
42
Properties=species:S:1:pos:R:3:Z:I:1 energy=-286.9159597892254 field_type=dipole dipole="0.000000 0.000000 0.000000" charge=0
C	-3.135246	-0.422573	-0.202481	6
C	-1.691246	-0.422573	-0.202481	6
C	-0.501086	-0.422573	-0.202481	6
C	0.904913	-0.422573	-0.202481	6
C	1.551824	-1.595283	-0.308011	6
C	1.648364	0.890647	-0.136961	6
N	1.604013	1.477367	1.199959	7
H	-3.529206	0.598307	-0.190461	1
H	-3.529246	-0.943383	0.675619	1
H	-3.529276	-0.922603	-1.092571	1
H	1.016354	-2.538023	-0.368451	1
H	2.635893	-1.641673	-0.317481	1
H	1.216114	1.593557	-0.859661	1
H	2.698304	0.757367	-0.422351	1
H	0.627854	1.604807	1.465059	1
H	2.011673	2.409197	1.165229	1
Es	1.648315	0.890645	-0.136828	99
Es	-1.074609	-0.208829	-0.492138	99
Es	1.255870	0.225616	-0.163079	99
Es	1.344948	1.363848	-0.640310	99
Es	0.180995	-0.408646	-0.196891	99
Es	1.771992	1.276505	1.434989	99
Es	0.904779	-0.422457	-0.202489	99
Es	-3.381113	-0.757427	-0.798301	99
Es	-2.392043	-0.422492	-0.202704	99
Es	1.210940	-1.026708	0.061665	99
Es	1.198893	-0.976032	-0.578573	99
Es	1.551866	-1.595354	-0.308013	99
Es	1.603733	1.477713	1.199543	99
Es	1.011795	1.564317	1.340818	99
Es	-1.091413	-0.780529	-0.238098	99
Es	2.286973	-1.629127	-0.317669	99
Es	2.364657	0.791301	-0.331398	99
Es	-1.071732	-0.275403	0.124386	99
Es	1.838896	2.046204	1.158487	99
Es	-0.500847	-0.422569	-0.202480	99
Es	-3.380996	-0.771391	0.385290	99
Es	-3.135137	-0.422572	-0.202481	99
Es	1.195066	-2.234847	-0.350182	99
Es	1.606267	1.232974	0.607403	99
Es	-1.691523	-0.422570	-0.202481	99
Es	-3.382172	0.261808	-0.194326	99
42
Properties=species:S:1:pos:R:3:Z:I:1 energy=-286.9159597892254 field_type=dipole dipole="0.000000 0.000000 0.000000" charge=0
C	-3.135246	-0.422573	-0.202481	6
C	-1.691246	-0.422573	-0.202481	6
C	-0.501086	-0.422573	-0.202481	6
C	0.904913	-0.422573	-0.202481	6
C	1.551824	-1.595283	-0.308011	6
C	1.648364	0.890647	-0.136961	6
N	1.604013	1.477367	1.199959	7
H	-3.529206	0.598307	-0.190461	1
H	-3.529246	-0.943383	0.675619	1
H	-3.529276	-0.922603	-1.092571	1
H	1.016354	-2.538023	-0.368451	1
H	2.635893	-1.641673	-0.317481	1
H	1.216114	1.593557	-0.859661	1
H	2.698304	0.757367	-0.422351	1
H	0.627854	1.604807	1.465059	1
H	2.011673	2.409197	1.165229	1
Es	1.255841	0.225707	-0.163149	99
Es	2.364633	0.791246	-0.331392	99
Es	-3.381071	-0.757409	-0.798405	99
Es	-3.380951	-0.771464	0.385215	99
Es	1.345062	1.363762	-0.640322	99
Es	-2.392132	-0.422542	-0.202807	99
Es	1.606340	1.232867	0.607510	99
Es	-1.066801	-0.329887	-0.546737	99
Es	1.771470	1.276502	1.435001	99
Es	-1.089879	-0.770525	-0.111851	99
Es	-0.500848	-0.422569	-0.202478	99
Es	1.011706	1.564728	1.340561	99
Es	1.603742	1.477689	1.199578	99
Es	-3.382178	0.261858	-0.194211	99
Es	-1.691531	-0.422571	-0.202479	99
Es	0.180937	-0.408680	-0.196397	99
Es	1.839392	2.046038	1.158634	99
Es	2.287042	-1.629102	-0.317713	99
Es	1.199028	-0.976084	-0.578165	99
Es	1.648314	0.890645	-0.136830	99
Es	1.551865	-1.595358	-0.308014	99
Es	-1.081073	-0.164399	0.052107	99
Es	1.210858	-1.026588	0.061537	99
Es	-3.135137	-0.422572	-0.202481	99
Es	0.904789	-0.422450	-0.202462	99
Es	1.194983	-2.234865	-0.350111	99
42
Properties=species:S:1:pos:R:3:Z:I:1 energy=-286.9159597892254 field_type=dipole dipole="0.000000 0.000000 0.000000" charge=0
C	-3.135246	-0.422573	-0.202481	6
C	-1.691246	-0.422573	-0.202481	6
C	-0.501086	-0.422573	-0.202481	6
C	0.904913	-0.422573	-0.202481	6
C	1.551824	-1.595283	-0.308011	6
C	1.648364	0.890647	-0.136961	6
N	1.604013	1.477367	1.199959	7
H	-3.529206	0.598307	-0.190461	1
H	-3.529246	-0.943383	0.675619	1
H	-3.529276	-0.922603	-1.092571	1
H	1.016354	-2.538023	-0.368451	1
H	2.635893	-1.641673	-0.317481	1
H	1.216114	1.593557	-0.859661	1
H	2.698304	0.757367	-0.422351	1
H	0.627854	1.604807	1.465059	1
H	2.011673	2.409197	1.165229	1
Es	1.011750	1.564755	1.340671	99
Es	0.180928	-0.408962	-0.196581	99
Es	1.551865	-1.595353	-0.308017	99
Es	1.606272	1.232774	0.607541	99
Es	-3.135140	-0.422574	-0.202480	99
Es	1.255810	0.225804	-0.163038	99
Es	1.771471	1.276609	1.434978	99
Es	1.603773	1.477702	1.199605	99
Es	-2.392250	-0.422477	-0.202692	99
Es	1.648314	0.890642	-0.136829	99
Es	1.345046	1.363709	-0.640334	99
Es	-3.382173	0.261974	-0.194262	99
Es	-3.380893	-0.771453	0.385256	99
Es	-1.076056	-0.217531	0.094659	99
Es	-3.381005	-0.757512	-0.798413	99
Es	0.904789	-0.422460	-0.202472	99
Es	1.210943	-1.026680	0.061330	99
Es	-1.691535	-0.422573	-0.202485	99
Es	-1.091485	-0.781557	-0.176481	99
Es	1.194941	-2.234882	-0.350172	99
Es	1.839346	2.046000	1.158554	99
Es	1.199008	-0.976058	-0.578307	99
Es	2.364607	0.791284	-0.331410	99
Es	-0.500851	-0.422569	-0.202479	99
Es	-1.070131	-0.265547	-0.524366	99
Es	2.287056	-1.629087	-0.317636	99
42
Properties=species:S:1:pos:R:3:Z:I:1 energy=-286.9159597892254 field_type=dipole dipole="0.000000 0.000000 0.000000" charge=0
C	-3.135246	-0.422573	-0.202481	6
C	-1.691246	-0.422573	-0.202481	6
C	-0.501086	-0.422573	-0.202481	6
C	0.904913	-0.422573	-0.202481	6
C	1.551824	-1.595283	-0.308011	6
C	1.648364	0.890647	-0.136961	6
N	1.604013	1.477367	1.199959	7
H	-3.529206	0.598307	-0.190461	1
H	-3.529246	-0.943383	0.675619	1
H	-3.529276	-0.922603	-1.092571	1
H	1.016354	-2.538023	-0.368451	1
H	2.635893	-1.641673	-0.317481	1
H	1.216114	1.593557	-0.859661	1
H	2.698304	0.757367	-0.422351	1
H	0.627854	1.604807	1.465059	1
H	2.011673	2.409197	1.165229	1
Es	1.345063	1.363707	-0.640356	99
Es	2.287130	-1.629058	-0.317674	99
Es	1.551868	-1.595354	-0.308017	99
Es	1.194890	-2.234886	-0.350154	99
Es	0.904788	-0.422459	-0.202453	99
Es	-3.380910	-0.771405	0.385321	99
Es	1.210918	-1.026649	0.061197	99
Es	1.771549	1.276774	1.434641	99
Es	0.181097	-0.408184	-0.197259	99
Es	2.364571	0.791224	-0.331421	99
Es	-3.380989	-0.757541	-0.798404	99
Es	-1.083881	-0.722217	-0.396177	99
Es	-3.382131	0.261932	-0.194332	99
Es	1.198879	-0.975948	-0.578288	99
Es	1.606303	1.232861	0.607417	99
Es	1.839341	2.046023	1.158727	99
Es	-1.066607	-0.446140	0.150545	99
Es	-2.392392	-0.422755	-0.202306	99
Es	1.011731	1.564522	1.341008	99
Es	-1.691525	-0.422573	-0.202481	99
Es	1.255887	0.225802	-0.163100	99
Es	1.603736	1.477694	1.199565	99
Es	1.648317	0.890645	-0.136834	99
Es	-3.135138	-0.422572	-0.202481	99
Es	-0.500851	-0.422567	-0.202480	99
Es	-1.087244	-0.096900	-0.360065	99
42
Properties=species:S:1:pos:R:3:Z:I:1 energy=-286.9159597892254 field_type=dipole dipole="0.000000 0.000000 0.000000" charge=0
C	-3.135246	-0.422573	-0.202481	6
C	-1.691246	-0.422573	-0.202481	6
C	-0.501086	-0.422573	-0.202481	6
C	0.904913	-0.422573	-0.202481	6
C	1.551824	-1.595283	-0.308011	6
C	1.648364	0.890647	-0.136961	6
N	1.604013	1.477367	1.199959	7
H	-3.529206	0.598307	-0.190461	1
H	-3.529246	-0.943383	0.675619	1
H	-3.529276	-0.922603	-1.092571	1
H	1.016354	-2.538023	-0.368451	1
H	2.635893	-1.641673	-0.317481	1
H	1.216114	1.593557	-0.859661	1
H	2.698304	0.757367	-0.422351	1
H	0.627854	1.604807	1.465059	1
H	2.011673	2.409197	1.165229	1
Es	1.345106	1.363752	-0.640288	99
Es	-3.382127	0.262062	-0.194399	99
Es	-1.691524	-0.422573	-0.202480	99
Es	1.648316	0.890644	-0.136834	99
Es	1.606585	1.232553	0.607490	99
Es	-3.135136	-0.422572	-0.202481	99
Es	-3.380873	-0.771457	0.385403	99
Es	-1.067524	-0.311714	-0.541845	99
Es	1.011805	1.564561	1.340645	99
Es	0.181041	-0.408929	-0.196227	99
Es	1.771262	1.276901	1.434906	99
Es	-1.090479	-0.774609	-0.129738	99
Es	1.551866	-1.595355	-0.308018	99
Es	0.904787	-0.422459	-0.202475	99
Es	-1.079651	-0.178346	0.065200	99
Es	1.839323	2.046127	1.158775	99
Es	1.255803	0.225970	-0.163053	99
Es	1.198891	-0.976141	-0.578209	99
Es	1.210932	-1.026670	0.061123	99
Es	2.287096	-1.629132	-0.317632	99
Es	1.194822	-2.234869	-0.350132	99
Es	1.603725	1.477691	1.199573	99
Es	-2.392471	-0.422478	-0.202791	99
Es	2.364548	0.791213	-0.331457	99
Es	-0.500850	-0.422570	-0.202479	99
Es	-3.380874	-0.757620	-0.798435	99
42
Properties=species:S:1:pos:R:3:Z:I:1 energy=-286.9159597892254 field_type=dipole dipole="0.000000 0.000000 0.000000" charge=0
C	-3.135246	-0.422573	-0.202481	6
C	-1.691246	-0.422573	-0.202481	6
C	-0.501086	-0.422573	-0.202481	6
C	0.904913	-0.422573	-0.202481	6
C	1.551824	-1.595283	-0.308011	6
C	1.648364	0.890647	-0.136961	6
N	1.604013	1.477367	1.199959	7
H	-3.529206	0.598307	-0.190461	1
H	-3.529246	-0.943383	0.675619	1
H	-3.529276	-0.922603	-1.092571	1
H	1.016354	-2.538023	-0.368451	1
H	2.635893	-1.641673	-0.317481	1
H	1.216114	1.593557	-0.859661	1
H	2.698304	0.757367	-0.422351	1
H	0.627854	1.604807	1.465059	1
H	2.011673	2.409197	1.165229	1
Es	1.194843	-2.234927	-0.350215	99
Es	1.256081	0.225929	-0.163084	99
Es	-1.067491	-0.311818	-0.541954	99
Es	1.771233	1.276907	1.434732	99
Es	-0.500852	-0.422570	-0.202477	99
Es	2.364574	0.791352	-0.331444	99
Es	0.904790	-0.422465	-0.202472	99
Es	-1.691524	-0.422573	-0.202483	99
Es	1.551866	-1.595351	-0.308013	99
Es	1.345038	1.363655	-0.640307	99
Es	-2.392525	-0.422389	-0.202937	99
Es	1.210668	-1.026693	0.061174	99
Es	-3.380926	-0.757566	-0.798456	99
Es	0.181019	-0.408888	-0.196315	99
Es	1.011779	1.564651	1.340793	99
Es	-3.380741	-0.771568	0.385475	99
Es	1.648315	0.890644	-0.136832	99
Es	1.603756	1.477684	1.199614	99
Es	2.287118	-1.629016	-0.317803	99
Es	-3.382130	0.262058	-0.194306	99
Es	-1.079644	-0.178157	0.065064	99
Es	-3.135138	-0.422571	-0.202481	99
Es	1.606422	1.232650	0.607432	99
Es	-1.090470	-0.774679	-0.129498	99
Es	1.198928	-0.976292	-0.577895	99
Es	1.839411	2.045970	1.158829	99
42
Properties=species:S:1:pos:R:3:Z:I:1 energy=-286.9159597892254 field_type=dipole dipole="0.000000 0.000000 0.000000" charge=0
C	-3.135246	-0.422573	-0.202481	6
C	-1.691246	-0.422573	-0.202481	6
C	-0.501086	-0.422573	-0.202481	6
C	0.904913	-0.422573	-0.202481	6
C	1.551824	-1.595283	-0.308011	6
C	1.648364	0.890647	-0.136961	6
N	1.604013	1.477367	1.199959	7
H	-3.529206	0.598307	-0.190461	1
H	-3.529246	-0.943383	0.675619	1
H	-3.529276	-0.922603	-1.092571	1
H	1.016354	-2.538023	-0.368451	1
H	2.635893	-1.641673	-0.317481	1
H	1.216114	1.593557	-0.859661	1
H	2.698304	0.757367	-0.422351	1
H	0.627854	1.604807	1.465059	1
H	2.011673	2.409197	1.165229	1
Es	1.839348	2.046012	1.158871	99
Es	1.198887	-0.975957	-0.578056	99
Es	1.648314	0.890644	-0.136833	99
Es	0.181292	-0.407970	-0.196422	99
Es	-1.075381	-0.640594	0.075843	99
Es	-1.093031	-0.061729	-0.155305	99
Es	2.287123	-1.628998	-0.317683	99
Es	-1.069508	-0.563187	-0.526827	99
Es	1.194848	-2.234965	-0.350185	99
Es	1.551867	-1.595354	-0.308016	99
Es	-3.380867	-0.757556	-0.798500	99
Es	1.011786	1.564483	1.341048	99
Es	-3.382092	0.262055	-0.194300	99
Es	-3.135138	-0.422571	-0.202481	99
Es	1.606298	1.232830	0.607398	99
Es	1.210864	-1.026539	0.061043	99
Es	-1.691525	-0.422570	-0.202483	99
Es	0.904787	-0.422459	-0.202472	99
Es	1.603747	1.477700	1.199582	99
Es	-2.392590	-0.422963	-0.202686	99
Es	1.771390	1.276913	1.434563	99
Es	1.345187	1.363614	-0.640335	99
Es	2.364516	0.791281	-0.331408	99
Es	1.255977	0.225938	-0.163092	99
Es	-0.500849	-0.422569	-0.202475	99
Es	-3.380851	-0.771512	0.385353	99
42
Properties=species:S:1:pos:R:3:Z:I:1 energy=-286.9159597892254 field_type=dipole dipole="0.000000 0.000000 0.000000" charge=0
C	-3.135246	-0.422573	-0.202481	6
C	-1.691246	-0.422573	-0.202481	6
C	-0.501086	-0.422573	-0.202481	6
C	0.904913	-0.422573	-0.202481	6
C	1.551824	-1.595283	-0.308011	6
C	1.648364	0.890647	-0.136961	6
N	1.604013	1.477367	1.199959	7
H	-3.529206	0.598307	-0.190461	1
H	-3.529246	-0.943383	0.675619	1
H	-3.529276	-0.922603	-1.092571	1
H	1.016354	-2.538023	-0.368451	1
H	2.635893	-1.641673	-0.317481	1
H	1.216114	1.593557	-0.859661	1
H	2.698304	0.757367	-0.422351	1
H	0.627854	1.604807	1.465059	1
H	2.011673	2.409197	1.165229	1
Es	1.603750	1.477685	1.199588	99
Es	0.904789	-0.422463	-0.202467	99
Es	2.287223	-1.629047	-0.317689	99
Es	2.364518	0.791289	-0.331605	99
Es	1.194814	-2.234862	-0.350074	99
Es	-0.500854	-0.422575	-0.202455	99
Es	1.606484	1.232792	0.607398	99
Es	-2.392668	-0.422462	-0.202972	99
Es	-1.083330	-0.142923	0.029425	99
Es	-3.382075	0.262157	-0.194203	99
Es	1.771245	1.276996	1.434547	99
Es	1.648317	0.890642	-0.136842	99
Es	-1.088573	-0.760715	-0.082750	99
Es	1.551868	-1.595354	-0.308017	99
Es	1.198714	-0.976274	-0.577984	99
Es	1.344999	1.363519	-0.640273	99
Es	-1.691520	-0.422577	-0.202493	99
Es	-3.380665	-0.771591	0.385431	99
Es	-3.380915	-0.757601	-0.798573	99
Es	1.210703	-1.026763	0.060888	99
Es	1.839438	2.045940	1.158956	99
Es	1.011767	1.564560	1.341015	99
Es	-1.065749	-0.361133	-0.553150	99
Es	1.256110	0.226119	-0.162928	99
Es	-3.135138	-0.422571	-0.202481	99
Es	0.181145	-0.408809	-0.196153	99
42
Properties=species:S:1:pos:R:3:Z:I:1 energy=-286.9159597892254 field_type=dipole dipole="0.000000 0.000000 0.000000" charge=0
C	-3.135246	-0.422573	-0.202481	6
C	-1.691246	-0.422573	-0.202481	6
C	-0.501086	-0.422573	-0.202481	6
C	0.904913	-0.422573	-0.202481	6
C	1.551824	-1.595283	-0.308011	6
C	1.648364	0.890647	-0.136961	6
N	1.604013	1.477367	1.199959	7
H	-3.529206	0.598307	-0.190461	1
H	-3.529246	-0.943383	0.675619	1
H	-3.529276	-0.922603	-1.092571	1
H	1.016354	-2.538023	-0.368451	1
H	2.635893	-1.641673	-0.317481	1
H	1.216114	1.593557	-0.859661	1
H	2.698304	0.757367	-0.422351	1
H	0.627854	1.604807	1.465059	1
H	2.011673	2.409197	1.165229	1
Es	2.364480	0.791284	-0.331444	99
Es	0.904788	-0.422461	-0.202481	99
Es	-1.691516	-0.422572	-0.202483	99
Es	1.210717	-1.026783	0.060760	99
Es	1.011838	1.564453	1.340982	99
Es	1.194775	-2.234934	-0.350132	99
Es	-1.065886	-0.351983	-0.551303	99
Es	1.198711	-0.976310	-0.578004	99
Es	0.181202	-0.408918	-0.195928	99
Es	-3.382011	0.262187	-0.194283	99
Es	1.551865	-1.595352	-0.308023	99
Es	-2.392785	-0.422472	-0.202925	99
Es	1.839175	2.045939	1.159021	99
Es	1.345130	1.363553	-0.640377	99
Es	-1.088999	-0.763849	-0.092082	99
Es	1.648315	0.890646	-0.136831	99
Es	-3.380834	-0.757629	-0.798612	99
Es	-0.500869	-0.422555	-0.202455	99
Es	1.603742	1.477703	1.199580	99
Es	1.256042	0.226137	-0.162938	99
Es	-1.082693	-0.148867	0.036800	99
Es	-3.380715	-0.771588	0.385511	99
Es	2.287211	-1.628988	-0.317616	99
Es	1.606497	1.232873	0.607227	99
Es	-3.135137	-0.422572	-0.202481	99
Es	1.771354	1.277037	1.434658	99
