42
Properties=species:S:1:pos:R:3:Z:I:1 energy=-286.9720289182457 field_type=dipole dipole="0.000000 0.000000 0.000000" charge=0
C	-0.597334	-1.277775	-1.345193	6
C	-0.761694	-0.815725	0.096227	6
C	-0.213944	0.576435	0.341497	6
C	-1.031554	1.582115	0.703147	6
C	1.276416	0.797565	0.165107	6
C	2.071236	-0.030545	1.086327	6
N	2.711386	-0.686895	1.799687	7
H	-1.078244	-2.251605	-1.483833	1
H	0.457936	-1.389995	-1.613343	1
H	-1.056834	-0.570615	-2.043583	1
H	-0.273584	-1.530345	0.768867	1
H	-1.829794	-0.851445	0.346147	1
H	-2.099954	1.429325	0.831597	1
H	-0.662274	2.587345	0.886147	1
H	1.530056	1.851735	0.332387	1
H	1.558176	0.580425	-0.871183	1
Es	2.711130	-0.686636	1.799406	99
Es	0.560180	0.672932	0.265921	99
Es	2.160529	-0.512595	1.589487	99
Es	1.690261	0.353064	0.653599	99
Es	0.125875	-1.347535	-1.524138	99
Es	-1.488457	-0.828630	0.265050	99
Es	-0.669392	1.168200	0.203247	99
Es	2.539568	-0.133710	1.602584	99
Es	-0.761657	-0.815671	0.096193	99
Es	-0.470982	-0.111438	0.215179	99
Es	1.276475	0.797445	0.165225	99
Es	1.452216	1.485803	0.292476	99
Es	2.911789	-0.894276	2.025999	99
Es	-0.780779	2.265831	0.826978	99
Es	-0.667557	-1.030420	-0.623902	99
Es	-0.421495	-1.288669	0.548382	99
Es	-0.924427	-1.938193	-1.434411	99
Es	-0.597327	-1.277762	-1.345159	99
Es	-0.213788	0.576345	0.341451	99
Es	2.560671	-0.520860	1.235411	99
Es	-0.578310	1.019833	0.839552	99
Es	-1.754442	1.480781	0.788757	99
Es	-1.031602	1.582187	0.703169	99
Es	-0.909645	-0.792030	-1.816889	99
Es	2.071024	-0.030329	1.086094	99
Es	1.468775	0.634726	-0.506277	99
42
Properties=species:S:1:pos:R:3:Z:I:1 energy=-286.9720289182457 field_type=dipole dipole="0.000000 0.000000 0.000000" charge=0
C	-0.597334	-1.277775	-1.345193	6
C	-0.761694	-0.815725	0.096227	6
C	-0.213944	0.576435	0.341497	6
C	-1.031554	1.582115	0.703147	6
C	1.276416	0.797565	0.165107	6
C	2.071236	-0.030545	1.086327	6
N	2.711386	-0.686895	1.799687	7
H	-1.078244	-2.251605	-1.483833	1
H	0.457936	-1.389995	-1.613343	1
H	-1.056834	-0.570615	-2.043583	1
H	-0.273584	-1.530345	0.768867	1
H	-1.829794	-0.851445	0.346147	1
H	-2.099954	1.429325	0.831597	1
H	-0.662274	2.587345	0.886147	1
H	1.530056	1.851735	0.332387	1
H	1.558176	0.580425	-0.871183	1
Es	0.125870	-1.347567	-1.524092	99
Es	2.711140	-0.686652	1.799414	99
Es	-1.754470	1.480771	0.788728	99
Es	2.466902	-0.594799	1.251248	99
Es	-0.909597	-0.792037	-1.816936	99
Es	1.276475	0.797442	0.165225	99
Es	-0.761657	-0.815672	0.096195	99
Es	1.452351	1.485923	0.292483	99
Es	-0.421513	-1.288701	0.548424	99
Es	-0.924453	-1.938205	-1.434388	99
Es	2.617432	-0.154139	1.512106	99
Es	-1.031604	1.582189	0.703161	99
Es	2.071025	-0.030340	1.086101	99
Es	-1.488371	-0.828588	0.265057	99
Es	1.468800	0.634632	-0.506193	99
Es	2.912501	-0.893941	2.025714	99
Es	-0.780782	2.265826	0.826964	99
Es	-0.669287	1.168220	0.203391	99
Es	0.560032	0.672889	0.265924	99
Es	-0.471036	-0.111483	0.215067	99
Es	-0.578262	1.019872	0.839562	99
Es	1.690071	0.352985	0.653430	99
Es	-0.667654	-1.030408	-0.623950	99
Es	2.175834	-0.418410	1.664450	99
Es	-0.213788	0.576344	0.341454	99
Es	-0.597328	-1.277760	-1.345155	99
42
Properties=species:S:1:pos:R:3:Z:I:1 energy=-286.9720289182457 field_type=dipole dipole="0.000000 0.000000 0.000000" charge=0
C	-0.597334	-1.277775	-1.345193	6
C	-0.761694	-0.815725	0.096227	6
C	-0.213944	0.576435	0.341497	6
C	-1.031554	1.582115	0.703147	6
C	1.276416	0.797565	0.165107	6
C	2.071236	-0.030545	1.086327	6
N	2.711386	-0.686895	1.799687	7
H	-1.078244	-2.251605	-1.483833	1
H	0.457936	-1.389995	-1.613343	1
H	-1.056834	-0.570615	-2.043583	1
H	-0.273584	-1.530345	0.768867	1
H	-1.829794	-0.851445	0.346147	1
H	-2.099954	1.429325	0.831597	1
H	-0.662274	2.587345	0.886147	1
H	1.530056	1.851735	0.332387	1
H	1.558176	0.580425	-0.871183	1
Es	1.689910	0.353150	0.653709	99
Es	-0.471019	-0.111585	0.215219	99
Es	0.125815	-1.347578	-1.524042	99
Es	-0.667817	-1.030228	-0.623883	99
Es	-0.761657	-0.815671	0.096194	99
Es	1.276473	0.797448	0.165217	99
Es	-1.754491	1.480801	0.788710	99
Es	2.912250	-0.893882	2.025391	99
Es	-0.213788	0.576345	0.341453	99
Es	2.352671	-0.640589	1.308364	99
Es	1.452416	1.485754	0.292503	99
Es	-0.924341	-1.938150	-1.434478	99
Es	2.669929	-0.218821	1.405851	99
Es	2.071023	-0.030373	1.086115	99
Es	-1.488457	-0.828648	0.265252	99
Es	0.560028	0.673130	0.265880	99
Es	-0.669349	1.168078	0.203641	99
Es	-0.578271	1.019868	0.839484	99
Es	-0.909533	-0.792120	-1.817041	99
Es	-0.421446	-1.288689	0.548183	99
Es	1.468948	0.634573	-0.506333	99
Es	-0.780760	2.265835	0.826875	99
Es	2.237896	-0.308037	1.713701	99
Es	-1.031601	1.582185	0.703167	99
Es	2.711131	-0.686640	1.799409	99
Es	-0.597328	-1.277761	-1.345156	99
42
Properties=species:S:1:pos:R:3:Z:I:1 energy=-286.9720289182457 field_type=dipole dipole="0.000000 0.000000 0.000000" charge=0
C	-0.597334	-1.277775	-1.345193	6
C	-0.761694	-0.815725	0.096227	6
C	-0.213944	0.576435	0.341497	6
C	-1.031554	1.582115	0.703147	6
C	1.276416	0.797565	0.165107	6
C	2.071236	-0.030545	1.086327	6
N	2.711386	-0.686895	1.799687	7
H	-1.078244	-2.251605	-1.483833	1
H	0.457936	-1.389995	-1.613343	1
H	-1.056834	-0.570615	-2.043583	1
H	-0.273584	-1.530345	0.768867	1
H	-1.829794	-0.851445	0.346147	1
H	-2.099954	1.429325	0.831597	1
H	-0.662274	2.587345	0.886147	1
H	1.530056	1.851735	0.332387	1
H	1.558176	0.580425	-0.871183	1
Es	-0.578426	1.019891	0.839107	99
Es	2.160893	-0.486093	1.614550	99
Es	-0.669265	1.168081	0.203775	99
Es	-0.761657	-0.815672	0.096193	99
Es	-0.213788	0.576344	0.341453	99
Es	2.534004	-0.546462	1.236275	99
Es	1.689999	0.353136	0.653528	99
Es	-0.780659	2.265830	0.826989	99
Es	2.711137	-0.686641	1.799411	99
Es	0.559995	0.673169	0.265826	99
Es	-0.471157	-0.111563	0.215057	99
Es	-1.031599	1.582184	0.703159	99
Es	0.125743	-1.347613	-1.524154	99
Es	2.071026	-0.030361	1.086104	99
Es	-0.909537	-0.792073	-1.816969	99
Es	-1.754533	1.480767	0.788768	99
Es	-0.421615	-1.288566	0.548456	99
Es	-0.667574	-1.030525	-0.623817	99
Es	-0.924379	-1.938121	-1.434522	99
Es	1.469010	0.634611	-0.506029	99
Es	1.276474	0.797446	0.165219	99
Es	-1.488328	-0.828614	0.265068	99
Es	1.452457	1.485843	0.292432	99
Es	-0.597328	-1.277761	-1.345157	99
Es	2.565682	-0.135254	1.577160	99
Es	2.912057	-0.893590	2.025502	99
42
Properties=species:S:1:pos:R:3:Z:I:1 energy=-286.9720289182457 field_type=dipole dipole="0.000000 0.000000 0.000000" charge=0
C	-0.597334	-1.277775	-1.345193	6
C	-0.761694	-0.815725	0.096227	6
C	-0.213944	0.576435	0.341497	6
C	-1.031554	1.582115	0.703147	6
C	1.276416	0.797565	0.165107	6
C	2.071236	-0.030545	1.086327	6
N	2.711386	-0.686895	1.799687	7
H	-1.078244	-2.251605	-1.483833	1
H	0.457936	-1.389995	-1.613343	1
H	-1.056834	-0.570615	-2.043583	1
H	-0.273584	-1.530345	0.768867	1
H	-1.829794	-0.851445	0.346147	1
H	-2.099954	1.429325	0.831597	1
H	-0.662274	2.587345	0.886147	1
H	1.530056	1.851735	0.332387	1
H	1.558176	0.580425	-0.871183	1
Es	-0.597328	-1.277761	-1.345157	99
Es	-0.213793	0.576345	0.341479	99
Es	-0.669299	1.167990	0.203857	99
Es	2.605564	-0.469242	1.241632	99
Es	-0.578385	1.019938	0.839012	99
Es	1.276476	0.797446	0.165222	99
Es	-0.421528	-1.288535	0.548415	99
Es	2.484243	-0.138979	1.648825	99
Es	2.912095	-0.893398	2.024887	99
Es	-1.031605	1.582190	0.703164	99
Es	-0.909507	-0.792110	-1.817010	99
Es	-1.754514	1.480731	0.788768	99
Es	-0.761657	-0.815673	0.096193	99
Es	-0.780696	2.265883	0.826921	99
Es	1.690021	0.353415	0.653407	99
Es	0.560100	0.673156	0.265932	99
Es	-0.667559	-1.030392	-0.623849	99
Es	-0.924371	-1.938107	-1.434520	99
Es	-0.471255	-0.111674	0.215188	99
Es	2.711127	-0.686634	1.799407	99
Es	0.125697	-1.347643	-1.524165	99
Es	1.469036	0.634591	-0.506221	99
Es	2.071034	-0.030326	1.086103	99
Es	2.170635	-0.560024	1.538136	99
Es	1.452461	1.485844	0.292604	99
Es	-1.488358	-0.828637	0.265152	99
42
Properties=species:S:1:pos:R:3:Z:I:1 energy=-286.9720289182457 field_type=dipole dipole="0.000000 0.000000 0.000000" charge=0
C	-0.597334	-1.277775	-1.345193	6
C	-0.761694	-0.815725	0.096227	6
C	-0.213944	0.576435	0.341497	6
C	-1.031554	1.582115	0.703147	6
C	1.276416	0.797565	0.165107	6
C	2.071236	-0.030545	1.086327	6
N	2.711386	-0.686895	1.799687	7
H	-1.078244	-2.251605	-1.483833	1
H	0.457936	-1.389995	-1.613343	1
H	-1.056834	-0.570615	-2.043583	1
H	-0.273584	-1.530345	0.768867	1
H	-1.829794	-0.851445	0.346147	1
H	-2.099954	1.429325	0.831597	1
H	-0.662274	2.587345	0.886147	1
H	1.530056	1.851735	0.332387	1
H	1.558176	0.580425	-0.871183	1
Es	-0.761658	-0.815673	0.096193	99
Es	-0.909634	-0.792179	-1.816848	99
Es	1.689826	0.353107	0.653489	99
Es	0.560017	0.673227	0.265952	99
Es	-0.924334	-1.938115	-1.434553	99
Es	-1.488303	-0.828626	0.265172	99
Es	-0.421566	-1.288481	0.548452	99
Es	-0.667413	-1.030462	-0.623830	99
Es	2.912119	-0.893359	2.024815	99
Es	-0.780718	2.265870	0.826863	99
Es	2.711142	-0.686647	1.799415	99
Es	1.276476	0.797445	0.165225	99
Es	1.452565	1.485693	0.292691	99
Es	-0.213787	0.576344	0.341460	99
Es	2.218491	-0.335161	1.706026	99
Es	-1.754530	1.480731	0.788776	99
Es	1.469098	0.634749	-0.506224	99
Es	2.380459	-0.634434	1.290565	99
Es	2.071022	-0.030334	1.086102	99
Es	-0.471414	-0.111722	0.215308	99
Es	0.125661	-1.347536	-1.524400	99
Es	-0.578360	1.020006	0.838840	99
Es	-0.669269	1.167982	0.203936	99
Es	2.661673	-0.198456	1.431950	99
Es	-1.031603	1.582187	0.703167	99
Es	-0.597328	-1.277762	-1.345158	99
42
Properties=species:S:1:pos:R:3:Z:I:1 energy=-286.9720289182457 field_type=dipole dipole="0.000000 0.000000 0.000000" charge=0
C	-0.597334	-1.277775	-1.345193	6
C	-0.761694	-0.815725	0.096227	6
C	-0.213944	0.576435	0.341497	6
C	-1.031554	1.582115	0.703147	6
C	1.276416	0.797565	0.165107	6
C	2.071236	-0.030545	1.086327	6
N	2.711386	-0.686895	1.799687	7
H	-1.078244	-2.251605	-1.483833	1
H	0.457936	-1.389995	-1.613343	1
H	-1.056834	-0.570615	-2.043583	1
H	-0.273584	-1.530345	0.768867	1
H	-1.829794	-0.851445	0.346147	1
H	-2.099954	1.429325	0.831597	1
H	-0.662274	2.587345	0.886147	1
H	1.530056	1.851735	0.332387	1
H	1.558176	0.580425	-0.871183	1
Es	2.071023	-0.030335	1.086105	99
Es	1.689701	0.353350	0.653373	99
Es	0.560073	0.673102	0.266075	99
Es	1.452572	1.485877	0.292678	99
Es	-0.924320	-1.938107	-1.434554	99
Es	1.469137	0.634503	-0.506263	99
Es	2.663284	-0.201611	1.427774	99
Es	-1.488290	-0.828629	0.265183	99
Es	-0.578381	1.020009	0.838782	99
Es	-0.213791	0.576347	0.341455	99
Es	1.276475	0.797445	0.165221	99
Es	-1.031604	1.582188	0.703159	99
Es	-1.754550	1.480690	0.788764	99
Es	2.711209	-0.686716	1.799496	99
Es	-0.761658	-0.815673	0.096193	99
Es	2.911951	-0.892998	2.024698	99
Es	2.221116	-0.330847	1.707790	99
Es	-0.909491	-0.792208	-1.817016	99
Es	-0.780706	2.265878	0.826921	99
Es	-0.471462	-0.111743	0.215214	99
Es	-0.597329	-1.277760	-1.345159	99
Es	2.376353	-0.635881	1.293015	99
Es	-0.669196	1.167969	0.204106	99
Es	-0.421572	-1.288473	0.548451	99
Es	0.125636	-1.347615	-1.524223	99
Es	-0.667548	-1.030371	-0.623855	99
42
Properties=species:S:1:pos:R:3:Z:I:1 energy=-286.9720289182457 field_type=dipole dipole="0.000000 0.000000 0.000000" charge=0
C	-0.597334	-1.277775	-1.345193	6
C	-0.761694	-0.815725	0.096227	6
C	-0.213944	0.576435	0.341497	6
C	-1.031554	1.582115	0.703147	6
C	1.276416	0.797565	0.165107	6
C	2.071236	-0.030545	1.086327	6
N	2.711386	-0.686895	1.799687	7
H	-1.078244	-2.251605	-1.483833	1
H	0.457936	-1.389995	-1.613343	1
H	-1.056834	-0.570615	-2.043583	1
H	-0.273584	-1.530345	0.768867	1
H	-1.829794	-0.851445	0.346147	1
H	-2.099954	1.429325	0.831597	1
H	-0.662274	2.587345	0.886147	1
H	1.530056	1.851735	0.332387	1
H	1.558176	0.580425	-0.871183	1
Es	-1.754592	1.480704	0.788709	99
Es	1.276477	0.797446	0.165220	99
Es	-0.667522	-1.030290	-0.623817	99
Es	1.689715	0.353411	0.653143	99
Es	2.711135	-0.686640	1.799408	99
Es	-1.488270	-0.828735	0.265297	99
Es	2.911678	-0.892969	2.024768	99
Es	2.514045	-0.563780	1.238869	99
Es	2.071027	-0.030332	1.086099	99
Es	2.584041	-0.138642	1.557772	99
Es	-0.909506	-0.792295	-1.816982	99
Es	-0.421486	-1.288402	0.548376	99
Es	0.560072	0.673194	0.266006	99
Es	1.452571	1.485784	0.292799	99
Es	0.125594	-1.347626	-1.524357	99
Es	-0.761658	-0.815673	0.096194	99
Es	-0.578437	1.020025	0.838686	99
Es	-0.669161	1.167860	0.204357	99
Es	-0.597327	-1.277763	-1.345159	99
Es	-0.924330	-1.938077	-1.434542	99
Es	-0.780667	2.265881	0.826896	99
Es	-1.031604	1.582191	0.703164	99
Es	1.469214	0.634619	-0.506285	99
Es	-0.471561	-0.111754	0.215191	99
Es	-0.213787	0.576344	0.341454	99
Es	2.162972	-0.466087	1.632117	99
42
Properties=species:S:1:pos:R:3:Z:I:1 energy=-286.9720289182457 field_type=dipole dipole="0.000000 0.000000 0.000000" charge=0
C	-0.597334	-1.277775	-1.345193	6
C	-0.761694	-0.815725	0.096227	6
C	-0.213944	0.576435	0.341497	6
C	-1.031554	1.582115	0.703147	6
C	1.276416	0.797565	0.165107	6
C	2.071236	-0.030545	1.086327	6
N	2.711386	-0.686895	1.799687	7
H	-1.078244	-2.251605	-1.483833	1
H	0.457936	-1.389995	-1.613343	1
H	-1.056834	-0.570615	-2.043583	1
H	-0.273584	-1.530345	0.768867	1
H	-1.829794	-0.851445	0.346147	1
H	-2.099954	1.429325	0.831597	1
H	-0.662274	2.587345	0.886147	1
H	1.530056	1.851735	0.332387	1
H	1.558176	0.580425	-0.871183	1
Es	-1.754581	1.480687	0.788781	99
Es	-1.031598	1.582180	0.703188	99
Es	-1.488210	-0.828620	0.265205	99
Es	-0.421608	-1.288433	0.548488	99
Es	-0.669131	1.167925	0.204327	99
Es	2.166836	-0.554029	1.546949	99
Es	1.689684	0.353593	0.653105	99
Es	0.125574	-1.347617	-1.524281	99
Es	-0.597328	-1.277761	-1.345157	99
Es	2.600407	-0.476885	1.240111	99
Es	-0.667542	-1.030351	-0.623856	99
Es	-0.909450	-0.792271	-1.817014	99
Es	-0.213790	0.576347	0.341454	99
Es	0.560072	0.673104	0.266145	99
Es	1.469216	0.634449	-0.506214	99
Es	1.276475	0.797446	0.165219	99
Es	2.494179	-0.137456	1.641923	99
Es	-0.761658	-0.815673	0.096193	99
Es	2.071029	-0.030335	1.086101	99
Es	1.452657	1.485905	0.292731	99
Es	-0.924299	-1.938084	-1.434615	99
Es	2.911264	-0.893182	2.024509	99
Es	-0.471635	-0.111818	0.215224	99
Es	-0.578407	1.020051	0.838550	99
Es	-0.780671	2.265877	0.826898	99
Es	2.711148	-0.686658	1.799419	99
42
Properties=species:S:1:pos:R:3:Z:I:1 energy=-286.9720289182457 field_type=dipole dipole="0.000000 0.000000 0.000000" charge=0
C	-0.597334	-1.277775	-1.345193	6
C	-0.761694	-0.815725	0.096227	6
C	-0.213944	0.576435	0.341497	6
C	-1.031554	1.582115	0.703147	6
C	1.276416	0.797565	0.165107	6
C	2.071236	-0.030545	1.086327	6
N	2.711386	-0.686895	1.799687	7
H	-1.078244	-2.251605	-1.483833	1
H	0.457936	-1.389995	-1.613343	1
H	-1.056834	-0.570615	-2.043583	1
H	-0.273584	-1.530345	0.768867	1
H	-1.829794	-0.851445	0.346147	1
H	-2.099954	1.429325	0.831597	1
H	-0.662274	2.587345	0.886147	1
H	1.530056	1.851735	0.332387	1
H	1.558176	0.580425	-0.871183	1
Es	-1.754636	1.480624	0.788796	99
Es	-0.471628	-0.111927	0.215266	99
Es	-0.421617	-1.288349	0.548440	99
Es	2.385405	-0.633872	1.287484	99
Es	-0.578406	1.020086	0.838318	99
Es	2.711137	-0.686642	1.799411	99
Es	-0.780685	2.265846	0.826958	99
Es	-0.597328	-1.277761	-1.345157	99
Es	2.911367	-0.892693	2.024562	99
Es	-0.213794	0.576348	0.341455	99
Es	-0.909559	-0.792354	-1.817011	99
Es	-1.031601	1.582185	0.703165	99
Es	-0.667534	-1.030395	-0.623851	99
Es	-0.669098	1.167939	0.204422	99
Es	-1.488226	-0.828628	0.265294	99
Es	2.660714	-0.195498	1.436162	99
Es	0.125546	-1.347501	-1.524343	99
Es	0.560060	0.673181	0.266277	99
Es	-0.924161	-1.938118	-1.434614	99
Es	2.071029	-0.030333	1.086100	99
Es	1.452703	1.485911	0.292745	99
Es	1.469205	0.634440	-0.506239	99
Es	1.276479	0.797447	0.165221	99
Es	2.215327	-0.339364	1.705173	99
Es	-0.761659	-0.815674	0.096194	99
Es	1.689591	0.353494	0.653153	99
42
Properties=species:S:1:pos:R:3:Z:I:1 energy=-286.9720289182457 field_type=dipole dipole="0.000000 0.000000 0.000000" charge=0
C	-0.597334	-1.277775	-1.345193	6
C	-0.761694	-0.815725	0.096227	6
C	-0.213944	0.576435	0.341497	6
C	-1.031554	1.582115	0.703147	6
C	1.276416	0.797565	0.165107	6
C	2.071236	-0.030545	1.086327	6
N	2.711386	-0.686895	1.799687	7
H	-1.078244	-2.251605	-1.483833	1
H	0.457936	-1.389995	-1.613343	1
H	-1.056834	-0.570615	-2.043583	1
H	-0.273584	-1.530345	0.768867	1
H	-1.829794	-0.851445	0.346147	1
H	-2.099954	1.429325	0.831597	1
H	-0.662274	2.587345	0.886147	1
H	1.530056	1.851735	0.332387	1
H	1.558176	0.580425	-0.871183	1
Es	1.276475	0.797447	0.165219	99
Es	-0.213792	0.576347	0.341456	99
Es	0.560117	0.673165	0.266217	99
Es	-1.754595	1.480637	0.788757	99
Es	2.071030	-0.030333	1.086100	99
Es	-0.669061	1.167867	0.204587	99
Es	-0.761658	-0.815674	0.096195	99
Es	1.689535	0.353617	0.652996	99
Es	2.911196	-0.892677	2.024270	99
Es	-0.421577	-1.288268	0.548490	99
Es	2.517556	-0.561814	1.237831	99
Es	-0.597328	-1.277761	-1.345156	99
Es	2.162432	-0.469328	1.630008	99
Es	0.125502	-1.347650	-1.524313	99
Es	-0.667412	-1.030342	-0.623853	99
Es	-0.471879	-0.111991	0.215296	99
Es	-0.924255	-1.938040	-1.434651	99
Es	-1.488271	-0.828667	0.265271	99
Es	-0.909429	-0.792313	-1.817055	99
Es	1.452713	1.485889	0.292775	99
Es	2.581594	-0.137676	1.561429	99
Es	2.711144	-0.686649	1.799419	99
Es	-1.031602	1.582185	0.703163	99
Es	-0.578405	1.020112	0.838265	99
Es	1.469279	0.634408	-0.506258	99
Es	-0.780675	2.265901	0.826925	99
42
Properties=species:S:1:pos:R:3:Z:I:1 energy=-286.9720289182457 field_type=dipole dipole="0.000000 0.000000 0.000000" charge=0
C	-0.597334	-1.277775	-1.345193	6
C	-0.761694	-0.815725	0.096227	6
C	-0.213944	0.576435	0.341497	6
C	-1.031554	1.582115	0.703147	6
C	1.276416	0.797565	0.165107	6
C	2.071236	-0.030545	1.086327	6
N	2.711386	-0.686895	1.799687	7
H	-1.078244	-2.251605	-1.483833	1
H	0.457936	-1.389995	-1.613343	1
H	-1.056834	-0.570615	-2.043583	1
H	-0.273584	-1.530345	0.768867	1
H	-1.829794	-0.851445	0.346147	1
H	-2.099954	1.429325	0.831597	1
H	-0.662274	2.587345	0.886147	1
H	1.530056	1.851735	0.332387	1
H	1.558176	0.580425	-0.871183	1
Es	2.308532	-0.232865	1.722330	99
Es	-0.909374	-0.792312	-1.817009	99
Es	-0.597328	-1.277761	-1.345157	99
Es	-1.754611	1.480615	0.788826	99
Es	-0.471858	-0.111986	0.215395	99
Es	1.469344	0.634319	-0.506302	99
Es	1.276475	0.797447	0.165219	99
Es	1.452812	1.485919	0.292837	99
Es	-1.488176	-0.828609	0.265230	99
Es	-0.667426	-1.030344	-0.623839	99
Es	-0.780635	2.265883	0.826995	99
Es	2.273362	-0.643832	1.374197	99
Es	-0.213793	0.576348	0.341458	99
Es	2.711139	-0.686638	1.799414	99
Es	1.689441	0.353754	0.653110	99
Es	2.911423	-0.892774	2.023833	99
Es	-0.924294	-1.938082	-1.434699	99
Es	-1.031602	1.582186	0.703161	99
Es	-0.669107	1.167906	0.204593	99
Es	-0.421667	-1.288338	0.548521	99
Es	2.679482	-0.292066	1.332944	99
Es	0.125451	-1.347630	-1.524341	99
Es	0.560082	0.673149	0.266369	99
Es	2.071030	-0.030335	1.086102	99
Es	-0.578409	1.020114	0.838002	99
Es	-0.761660	-0.815676	0.096194	99
42
Properties=species:S:1:pos:R:3:Z:I:1 energy=-286.9720289182457 field_type=dipole dipole="0.000000 0.000000 0.000000" charge=0
C	-0.597334	-1.277775	-1.345193	6
C	-0.761694	-0.815725	0.096227	6
C	-0.213944	0.576435	0.341497	6
C	-1.031554	1.582115	0.703147	6
C	1.276416	0.797565	0.165107	6
C	2.071236	-0.030545	1.086327	6
N	2.711386	-0.686895	1.799687	7
H	-1.078244	-2.251605	-1.483833	1
H	0.457936	-1.389995	-1.613343	1
H	-1.056834	-0.570615	-2.043583	1
H	-0.273584	-1.530345	0.768867	1
H	-1.829794	-0.851445	0.346147	1
H	-2.099954	1.429325	0.831597	1
H	-0.662274	2.587345	0.886147	1
H	1.530056	1.851735	0.332387	1
H	1.558176	0.580425	-0.871183	1
Es	-1.488155	-0.828591	0.265257	99
Es	2.593298	-0.140851	1.547944	99
Es	-0.668990	1.167849	0.204747	99
Es	-0.780641	2.265871	0.826920	99
Es	-0.597328	-1.277761	-1.345157	99
Es	-0.924259	-1.938030	-1.434706	99
Es	2.164702	-0.455660	1.640968	99
Es	2.503934	-0.572630	1.240450	99
Es	1.689429	0.353715	0.652870	99
Es	1.469358	0.634363	-0.506242	99
Es	-0.578419	1.020178	0.837962	99
Es	-0.667473	-1.030345	-0.623851	99
Es	-0.471891	-0.112061	0.215398	99
Es	0.560045	0.673169	0.266400	99
Es	2.910918	-0.892336	2.024168	99
Es	2.711137	-0.686642	1.799412	99
Es	2.071024	-0.030333	1.086096	99
Es	-0.421700	-1.288324	0.548512	99
Es	-0.213796	0.576347	0.341459	99
Es	-0.909386	-0.792362	-1.817027	99
Es	0.125468	-1.347641	-1.524359	99
Es	1.276475	0.797448	0.165218	99
Es	-1.754669	1.480621	0.788762	99
Es	-1.031599	1.582184	0.703175	99
Es	-0.761658	-0.815674	0.096192	99
Es	1.452809	1.485890	0.292818	99
42
Properties=species:S:1:pos:R:3:Z:I:1 energy=-286.9720289182457 field_type=dipole dipole="0.000000 0.000000 0.000000" charge=0
C	-0.597334	-1.277775	-1.345193	6
C	-0.761694	-0.815725	0.096227	6
C	-0.213944	0.576435	0.341497	6
C	-1.031554	1.582115	0.703147	6
C	1.276416	0.797565	0.165107	6
C	2.071236	-0.030545	1.086327	6
N	2.711386	-0.686895	1.799687	7
H	-1.078244	-2.251605	-1.483833	1
H	0.457936	-1.389995	-1.613343	1
H	-1.056834	-0.570615	-2.043583	1
H	-0.273584	-1.530345	0.768867	1
H	-1.829794	-0.851445	0.346147	1
H	-2.099954	1.429325	0.831597	1
H	-0.662274	2.587345	0.886147	1
H	1.530056	1.851735	0.332387	1
H	1.558176	0.580425	-0.871183	1
Es	-0.213789	0.576345	0.341455	99
Es	-1.031601	1.582184	0.703167	99
Es	1.452873	1.485909	0.292848	99
Es	-0.669058	1.167717	0.204903	99
Es	-0.597329	-1.277760	-1.345157	99
Es	-1.754584	1.480535	0.788873	99
Es	2.071032	-0.030334	1.086100	99
Es	-0.924262	-1.938048	-1.434662	99
Es	-0.909371	-0.792416	-1.817059	99
Es	-0.471937	-0.112044	0.215370	99
Es	2.911205	-0.892717	2.023422	99
Es	1.276475	0.797448	0.165218	99
Es	2.711133	-0.686616	1.799385	99
Es	2.394279	-0.174226	1.700009	99
Es	-1.488105	-0.828570	0.265294	99
Es	-0.761659	-0.815675	0.096194	99
Es	2.658578	-0.378227	1.275609	99
Es	0.125402	-1.347663	-1.524401	99
Es	-0.667435	-1.030328	-0.623869	99
Es	2.208601	-0.616487	1.454443	99
Es	-0.578453	1.020214	0.837831	99
Es	1.689538	0.353942	0.652876	99
Es	0.560048	0.673191	0.266386	99
Es	-0.780635	2.265998	0.826872	99
Es	-0.421749	-1.288273	0.548519	99
Es	1.469435	0.634293	-0.506245	99
42
Properties=species:S:1:pos:R:3:Z:I:1 energy=-286.9720289182457 field_type=dipole dipole="0.000000 0.000000 0.000000" charge=0
C	-0.597334	-1.277775	-1.345193	6
C	-0.761694	-0.815725	0.096227	6
C	-0.213944	0.576435	0.341497	6
C	-1.031554	1.582115	0.703147	6
C	1.276416	0.797565	0.165107	6
C	2.071236	-0.030545	1.086327	6
N	2.711386	-0.686895	1.799687	7
H	-1.078244	-2.251605	-1.483833	1
H	0.457936	-1.389995	-1.613343	1
H	-1.056834	-0.570615	-2.043583	1
H	-0.273584	-1.530345	0.768867	1
H	-1.829794	-0.851445	0.346147	1
H	-2.099954	1.429325	0.831597	1
H	-0.662274	2.587345	0.886147	1
H	1.530056	1.851735	0.332387	1
H	1.558176	0.580425	-0.871183	1
Es	-0.761658	-0.815675	0.096197	99
Es	1.469530	0.634213	-0.506226	99
Es	2.711137	-0.686642	1.799412	99
Es	-0.597330	-1.277760	-1.345157	99
Es	-1.488130	-0.828612	0.265322	99
Es	-0.472022	-0.112080	0.215269	99
Es	2.184572	-0.395716	1.680173	99
Es	-1.031600	1.582187	0.703165	99
Es	2.910972	-0.892042	2.023738	99
Es	-0.213794	0.576349	0.341456	99
Es	1.452853	1.485984	0.292860	99
Es	-0.667370	-1.030442	-0.623838	99
Es	2.071034	-0.030341	1.086100	99
Es	0.125385	-1.347567	-1.524464	99
Es	-0.924134	-1.938039	-1.434709	99
Es	2.443160	-0.610778	1.259181	99
Es	-0.668924	1.167634	0.205187	99
Es	-0.421719	-1.288197	0.548520	99
Es	2.634182	-0.162943	1.490403	99
Es	0.560073	0.673202	0.266230	99
Es	1.276476	0.797448	0.165217	99
Es	1.689201	0.353852	0.652893	99
Es	-0.909495	-0.792413	-1.817022	99
Es	-0.780598	2.265962	0.826790	99
Es	-0.578505	1.020171	0.838028	99
Es	-1.754665	1.480639	0.788656	99
42
Properties=species:S:1:pos:R:3:Z:I:1 energy=-286.9720289182457 field_type=dipole dipole="0.000000 0.000000 0.000000" charge=0
C	-0.597334	-1.277775	-1.345193	6
C	-0.761694	-0.815725	0.096227	6
C	-0.213944	0.576435	0.341497	6
C	-1.031554	1.582115	0.703147	6
C	1.276416	0.797565	0.165107	6
C	2.071236	-0.030545	1.086327	6
N	2.711386	-0.686895	1.799687	7
H	-1.078244	-2.251605	-1.483833	1
H	0.457936	-1.389995	-1.613343	1
H	-1.056834	-0.570615	-2.043583	1
H	-0.273584	-1.530345	0.768867	1
H	-1.829794	-0.851445	0.346147	1
H	-2.099954	1.429325	0.831597	1
H	-0.662274	2.587345	0.886147	1
H	1.530056	1.851735	0.332387	1
H	1.558176	0.580425	-0.871183	1
Es	-1.031600	1.582188	0.703158	99
Es	1.469516	0.634132	-0.506284	99
Es	-0.421689	-1.288192	0.548436	99
Es	-0.667586	-1.030352	-0.623827	99
Es	1.689331	0.354093	0.652857	99
Es	0.560105	0.673278	0.266405	99
Es	-0.924108	-1.937991	-1.434759	99
Es	2.711138	-0.686642	1.799412	99
Es	-0.909412	-0.792498	-1.817079	99
Es	2.510511	-0.134385	1.630634	99
Es	-0.213793	0.576349	0.341456	99
Es	2.910443	-0.892254	2.023576	99
Es	2.588959	-0.492973	1.236861	99
Es	1.276474	0.797449	0.165217	99
Es	-0.578482	1.020208	0.837666	99
Es	-0.668966	1.167689	0.205123	99
Es	1.452862	1.485922	0.292789	99
Es	-0.472096	-0.112146	0.215418	99
Es	-0.780581	2.265944	0.826941	99
Es	-1.754630	1.480600	0.788778	99
Es	2.071027	-0.030335	1.086102	99
Es	0.125416	-1.347588	-1.524407	99
Es	-0.597328	-1.277761	-1.345158	99
Es	-0.761657	-0.815676	0.096184	99
Es	-1.488091	-0.828657	0.265424	99
Es	2.162867	-0.542008	1.562461	99
42
Properties=species:S:1:pos:R:3:Z:I:1 energy=-286.9720289182457 field_type=dipole dipole="0.000000 0.000000 0.000000" charge=0
C	-0.597334	-1.277775	-1.345193	6
C	-0.761694	-0.815725	0.096227	6
C	-0.213944	0.576435	0.341497	6
C	-1.031554	1.582115	0.703147	6
C	1.276416	0.797565	0.165107	6
C	2.071236	-0.030545	1.086327	6
N	2.711386	-0.686895	1.799687	7
H	-1.078244	-2.251605	-1.483833	1
H	0.457936	-1.389995	-1.613343	1
H	-1.056834	-0.570615	-2.043583	1
H	-0.273584	-1.530345	0.768867	1
H	-1.829794	-0.851445	0.346147	1
H	-2.099954	1.429325	0.831597	1
H	-0.662274	2.587345	0.886147	1
H	1.530056	1.851735	0.332387	1
H	1.558176	0.580425	-0.871183	1
Es	1.689315	0.354111	0.652705	99
Es	-0.668906	1.167694	0.205174	99
Es	2.071018	-0.030339	1.086103	99
Es	2.467983	-0.143206	1.661610	99
Es	-0.421798	-1.288157	0.548539	99
Es	1.469582	0.634240	-0.506216	99
Es	-0.597327	-1.277766	-1.345163	99
Es	-0.472103	-0.112232	0.215395	99
Es	2.910463	-0.892196	2.023379	99
Es	1.276474	0.797448	0.165219	99
Es	-0.924265	-1.937978	-1.434788	99
Es	-0.667424	-1.030367	-0.623891	99
Es	-0.909281	-0.792456	-1.817029	99
Es	-1.754687	1.480609	0.788797	99
Es	-0.213802	0.576353	0.341458	99
Es	2.620031	-0.451422	1.246098	99
Es	0.560030	0.673207	0.266430	99
Es	2.174299	-0.574850	1.522411	99
Es	-0.761660	-0.815677	0.096185	99
Es	-0.780570	2.265892	0.826923	99
Es	-1.488091	-0.828555	0.265350	99
Es	-1.031599	1.582185	0.703162	99
Es	0.125382	-1.347684	-1.524417	99
Es	1.452933	1.485951	0.292941	99
Es	2.711135	-0.686637	1.799407	99
Es	-0.578499	1.020225	0.837602	99
42
Properties=species:S:1:pos:R:3:Z:I:1 energy=-286.9720289182457 field_type=dipole dipole="0.000000 0.000000 0.000000" charge=0
C	-0.597334	-1.277775	-1.345193	6
C	-0.761694	-0.815725	0.096227	6
C	-0.213944	0.576435	0.341497	6
C	-1.031554	1.582115	0.703147	6
C	1.276416	0.797565	0.165107	6
C	2.071236	-0.030545	1.086327	6
N	2.711386	-0.686895	1.799687	7
H	-1.078244	-2.251605	-1.483833	1
H	0.457936	-1.389995	-1.613343	1
H	-1.056834	-0.570615	-2.043583	1
H	-0.273584	-1.530345	0.768867	1
H	-1.829794	-0.851445	0.346147	1
H	-2.099954	1.429325	0.831597	1
H	-0.662274	2.587345	0.886147	1
H	1.530056	1.851735	0.332387	1
H	1.558176	0.580425	-0.871183	1
Es	-1.031599	1.582184	0.703162	99
Es	-0.667269	-1.030355	-0.623902	99
Es	1.469626	0.634244	-0.506280	99
Es	-1.754658	1.480570	0.788773	99
Es	2.669782	-0.212007	1.413817	99
Es	-0.578552	1.020218	0.837403	99
Es	0.560068	0.673137	0.266538	99
Es	-0.909250	-0.792412	-1.816975	99
Es	-0.780528	2.265981	0.826929	99
Es	1.276474	0.797447	0.165219	99
Es	1.689170	0.353897	0.652699	99
Es	2.711137	-0.686641	1.799411	99
Es	-0.421745	-1.288081	0.548530	99
Es	-0.213798	0.576348	0.341459	99
Es	-0.761658	-0.815679	0.096186	99
Es	-0.597328	-1.277762	-1.345158	99
Es	-0.668887	1.167679	0.205319	99
Es	2.230987	-0.316098	1.714272	99
Es	-1.488098	-0.828706	0.265330	99
Es	-0.924343	-1.938026	-1.434795	99
Es	0.125343	-1.347687	-1.524450	99
Es	-0.472314	-0.112178	0.215409	99
Es	1.452948	1.485972	0.293040	99
Es	2.071020	-0.030329	1.086093	99
Es	2.910881	-0.891842	2.023234	99
Es	2.361224	-0.641481	1.302121	99
42
Properties=species:S:1:pos:R:3:Z:I:1 energy=-286.9720289182457 field_type=dipole dipole="0.000000 0.000000 0.000000" charge=0
C	-0.597334	-1.277775	-1.345193	6
C	-0.761694	-0.815725	0.096227	6
C	-0.213944	0.576435	0.341497	6
C	-1.031554	1.582115	0.703147	6
C	1.276416	0.797565	0.165107	6
C	2.071236	-0.030545	1.086327	6
N	2.711386	-0.686895	1.799687	7
H	-1.078244	-2.251605	-1.483833	1
H	0.457936	-1.389995	-1.613343	1
H	-1.056834	-0.570615	-2.043583	1
H	-0.273584	-1.530345	0.768867	1
H	-1.829794	-0.851445	0.346147	1
H	-2.099954	1.429325	0.831597	1
H	-0.662274	2.587345	0.886147	1
H	1.530056	1.851735	0.332387	1
H	1.558176	0.580425	-0.871183	1
Es	-0.924163	-1.937987	-1.434800	99
Es	-0.668959	1.167572	0.205418	99
Es	-0.578580	1.020226	0.837330	99
Es	2.183979	-0.396621	1.680239	99
Es	-0.780504	2.266031	0.826870	99
Es	-1.754632	1.480553	0.788830	99
Es	-0.421790	-1.288104	0.548506	99
Es	-0.667390	-1.030381	-0.623869	99
Es	-1.031599	1.582184	0.703161	99
Es	0.560079	0.673264	0.266613	99
Es	1.276473	0.797450	0.165215	99
Es	2.910366	-0.891620	2.023302	99
Es	-1.488047	-0.828609	0.265403	99
Es	1.689113	0.354015	0.652647	99
Es	-0.472225	-0.112244	0.215420	99
Es	-0.597328	-1.277761	-1.345159	99
Es	1.453007	1.485930	0.292984	99
Es	2.634085	-0.162320	1.491631	99
Es	2.071028	-0.030333	1.086105	99
Es	0.125294	-1.347648	-1.524468	99
Es	2.711144	-0.686646	1.799413	99
Es	-0.909337	-0.792487	-1.817064	99
Es	1.469593	0.634181	-0.506304	99
Es	2.444479	-0.610925	1.258305	99
Es	-0.213795	0.576348	0.341456	99
Es	-0.761658	-0.815677	0.096198	99
