10
Properties=species:S:1:pos:R:3:Z:I:1 energy=-40.20898433575489 field_type=dipole dipole="0.000000 0.000000 0.000000" charge=0
C	0.998260	-0.002460	-0.004360	6
H	2.090210	-0.002430	0.004140	1
H	0.633790	1.026860	0.004140	1
H	0.627040	-0.527730	0.878110	1
H	0.641360	-0.507470	-0.905400	1
Es	0.998260	-0.002460	-0.004361	99
Es	1.736621	-0.002420	0.001436	99
Es	0.756952	-0.343880	-0.613540	99
Es	0.751856	0.693567	0.001450	99
Es	0.747277	-0.357593	0.592394	99
