31
Properties=species:S:1:pos:R:3:Z:I:1 energy=-551.3487263726132 field_type=dipole dipole="0.000000 0.000000 0.000000" charge=0
S	-0.517510	-1.270120	-0.002790	16
C	-1.302910	0.250960	-0.019090	6
C	-0.406050	1.296210	-0.035950	6
C	0.944970	0.841430	-0.035460	6
C	1.027070	-0.533650	-0.018250	6
H	-2.383010	0.303660	-0.015520	1
H	-0.704820	2.337390	-0.048050	1
H	1.812950	1.489750	-0.047140	1
H	1.919190	-1.144580	-0.013970	1
Es	0.294657	-0.915792	-0.010546	99
Es	1.026937	-0.533795	-0.018248	99
Es	0.283431	1.110337	-0.036292	99
Es	-0.567287	-1.170366	-0.044048	99
Es	-0.413338	-1.243662	0.047409	99
Es	0.944967	0.841446	-0.035460	99
Es	1.614593	-0.950085	-0.015256	99
Es	-2.022728	0.274444	-0.016566	99
Es	-0.588621	-1.318861	0.077260	99
Es	-0.563594	-1.407250	0.420581	99
Es	-0.406038	1.296221	-0.035950	99
Es	-0.602941	1.997435	-0.044117	99
Es	0.946252	0.161160	-0.337234	99
Es	-0.567167	-1.417939	-0.422145	99
Es	-1.302892	0.250763	-0.019088	99
Es	-0.517503	-1.270100	-0.002791	99
Es	-0.815915	0.763076	0.282938	99
Es	0.948677	0.169078	0.283551	99
Es	-0.499825	-1.344676	-0.091816	99
Es	-0.818371	0.755160	-0.337899	99
Es	-0.950370	-0.496662	-0.010915	99
Es	1.526049	1.280736	-0.043343	99
