33
Properties=species:S:1:pos:R:3:Z:I:1 energy=-230.75586901179258 field_type=dipole dipole="0.000000 0.000000 0.000000" charge=0
C	-1.213100	-0.688400	0.000000	6
C	-1.202800	0.706400	0.000100	6
C	-0.010300	-1.394800	0.000000	6
C	0.010400	1.394800	-0.000100	6
C	1.202800	-0.706300	0.000000	6
C	1.213100	0.688400	0.000000	6
H	-2.157700	-1.224400	0.000000	1
H	-2.139300	1.256400	0.000100	1
H	-0.018400	-2.480900	-0.000100	1
H	0.018400	2.480800	0.000000	1
H	2.139400	-1.256300	0.000100	1
H	2.157700	1.224500	0.000000	1
Es	1.224522	-0.009077	-0.000014	99
Es	0.010402	1.394829	-0.000100	99
Es	-1.839313	1.082690	0.000109	99
Es	1.857255	1.051531	-0.000001	99
Es	0.530840	-0.935275	-0.287501	99
Es	-1.075412	0.008028	-0.287453	99
Es	-1.075360	0.008004	0.287566	99
Es	1.202824	-0.706316	-0.000000	99
Es	0.544638	0.927293	-0.287556	99
Es	-0.604385	1.065022	-0.000012	99
Es	-0.620100	-1.055896	-0.000030	99
Es	1.841527	-1.078913	0.000055	99
Es	1.213124	0.688416	0.000000	99
Es	-1.213126	-0.688413	-0.000000	99
Es	-0.017932	-2.134218	-0.000056	99
Es	0.013740	2.134203	-0.000055	99
Es	-1.202826	0.706413	0.000100	99
Es	0.544607	0.927263	0.287463	99
Es	-0.010298	-1.394829	0.000000	99
Es	0.530791	-0.935232	0.287524	99
Es	-1.855155	-1.055185	0.000002	99
