10
Properties=species:S:1:pos:R:3:Z:I:1 energy=-92.89859122931644 field_type=dipole dipole="0.000000 0.000000 0.000000" charge=0
N	-0.580000	0.000000	0.000000	7
C	0.580000	0.000000	0.000000	6
H	1.645000	0.000000	0.000000	1
Es	-0.041849	-0.108754	-0.286248	99
Es	-0.041851	0.302329	0.048976	99
Es	1.258288	-0.000012	-0.000006	99
Es	-0.041854	-0.193550	0.237294	99
Es	-0.945281	-0.000012	-0.000015	99
Es	0.580323	-0.000001	-0.000001	99
Es	-0.579522	0.000000	-0.000000	99
