14
Properties=species:S:1:pos:R:3:Z:I:1 energy=-187.68919801895987 field_type=dipole dipole="0.000000 0.000000 0.000000" charge=0
O	-1.157569	0.000000	0.000000	8
O	1.157569	0.000000	0.000000	8
C	0.000000	0.000000	0.000000	6
Es	0.846398	0.257585	0.075860	99
Es	-0.000002	-0.000000	0.000005	99
Es	-1.433720	-0.001562	0.000913	99
Es	1.433857	-0.000600	0.003225	99
Es	-0.847639	0.036866	-0.266530	99
Es	-0.847267	0.213397	0.163692	99
Es	1.157106	-0.000011	0.000008	99
Es	-1.157107	0.000017	-0.000003	99
Es	0.844055	-0.195435	0.183580	99
Es	0.848759	-0.061547	-0.262682	99
Es	-0.844439	-0.248711	0.101931	99
