32
Properties=species:S:1:pos:R:3:Z:I:1 energy=-698.130091050524 field_type=dipole dipole="0.000000 0.000000 0.000000" charge=0
S	0.000200	-0.000200	-0.118100	16
O	1.274400	0.035500	0.897500	8
O	-1.276500	-0.032600	0.894900	8
O	-0.033600	1.257700	-0.839100	8
O	0.035400	-1.260400	-0.835100	8
H	1.211100	0.691200	1.631200	1
H	-1.214800	-0.685900	1.630700	1
Es	0.019309	0.096765	-0.052155	99
Es	1.483425	0.108720	0.703226	99
Es	-0.033591	1.257464	-0.838953	99
Es	0.228598	1.110732	-0.926238	99
Es	-0.074972	-0.072423	-0.060948	99
Es	-1.260105	0.243415	1.014060	99
Es	0.035392	-1.260161	-0.834952	99
Es	-1.206774	-0.382577	1.253273	99
Es	0.064565	-0.792206	-0.527944	99
Es	-0.807499	-0.053590	0.583034	99
Es	-1.485006	-0.106616	0.700436	99
Es	-0.017609	1.424011	-0.592443	99
Es	1.257593	-0.240029	1.017575	99
Es	0.806170	0.055452	0.584568	99
Es	-0.275487	1.167935	-0.982491	99
Es	1.203920	0.386690	1.254539	99
Es	0.018961	-1.426041	-0.588064	99
Es	-0.046763	0.031260	-0.222278	99
Es	-0.063224	0.790466	-0.530659	99
Es	0.277430	-1.171052	-0.978391	99
Es	0.103222	-0.056393	-0.136256	99
Es	-0.226649	-1.113601	-0.923084	99
Es	1.274085	0.035730	0.897538	99
Es	0.000200	-0.000200	-0.118088	99
Es	-1.276185	-0.032830	0.894939	99
