10
Properties=species:S:1:pos:R:3:Z:I:1 energy=-40.21343211905004 field_type=dipole dipole="0.000000 0.000000 0.000000" charge=0
C	0.998260	-0.002460	-0.004360	6
H	2.090210	-0.002430	0.004140	1
H	0.633790	1.026860	0.004140	1
H	0.627040	-0.527730	0.878110	1
H	0.641360	-0.507470	-0.905400	1
Es	0.751739	0.693820	0.001456	99
Es	0.756725	-0.344128	-0.613793	99
Es	1.737029	-0.002423	0.001452	99
Es	0.998261	-0.002459	-0.004358	99
Es	0.747212	-0.357597	0.592622	99
