10
Properties=species:S:1:pos:R:3:Z:I:1 energy=-40.20898433575471 field_type=dipole dipole="0.000000 0.000000 0.000000" charge=0
C	0.998260	-0.002460	-0.004360	6
H	2.090210	-0.002430	0.004140	1
H	0.633790	1.026860	0.004140	1
H	0.627040	-0.527730	0.878110	1
H	0.641360	-0.507470	-0.905400	1
Es	0.998260	-0.002460	-0.004361	99
Es	1.736619	-0.002404	0.001447	99
Es	0.751847	0.693559	0.001441	99
Es	0.756962	-0.343895	-0.613545	99
Es	0.747278	-0.357586	0.592398	99
