31
Properties=species:S:1:pos:R:3:Z:I:1 energy=-551.3487263726132 field_type=dipole dipole="0.000000 0.000000 0.000000" charge=0
S	-0.517510	-1.270120	-0.002790	16
C	-1.302910	0.250960	-0.019090	6
C	-0.406050	1.296210	-0.035950	6
C	0.944970	0.841430	-0.035460	6
C	1.027070	-0.533650	-0.018250	6
H	-2.383010	0.303660	-0.015520	1
H	-0.704820	2.337390	-0.048050	1
H	1.812950	1.489750	-0.047140	1
H	1.919190	-1.144580	-0.013970	1
Es	-0.517503	-1.270099	-0.002790	99
Es	-1.302893	0.250761	-0.019088	99
Es	1.026936	-0.533798	-0.018248	99
Es	0.944967	0.841448	-0.035460	99
Es	-0.406037	1.296223	-0.035950	99
Es	-0.502926	-1.248581	-0.111055	99
Es	-0.597953	-1.191566	0.037633	99
Es	-0.555534	-1.385583	0.011993	99
Es	-0.412590	-1.251399	0.050075	99
Es	0.295820	-0.916593	-0.010682	99
Es	1.614918	-0.949751	-0.015254	99
Es	-0.814772	0.763134	0.280983	99
Es	0.947808	0.169817	0.281599	99
Es	-2.022788	0.274910	-0.016563	99
Es	-0.603353	1.998267	-0.044136	99
Es	1.526876	1.281147	-0.043365	99
Es	0.283021	1.109121	-0.036301	99
Es	-0.951793	-0.496605	-0.011125	99
Es	-0.817216	0.755276	-0.335938	99
Es	-0.563631	-1.407095	0.417288	99
Es	-0.567785	-1.420312	-0.418311	99
Es	0.945402	0.161946	-0.335283	99
