14
Properties=species:S:1:pos:R:3:Z:I:1 energy=-187.68919801895998 field_type=dipole dipole="0.000000 0.000000 0.000000" charge=0
O	-1.157569	0.000000	0.000000	8
O	1.157569	0.000000	0.000000	8
C	0.000000	0.000000	0.000000	6
Es	-0.843384	-0.260548	-0.017296	99
Es	0.843399	0.241607	-0.099021	99
Es	0.000000	0.000000	0.000000	99
Es	1.157105	0.000000	-0.000000	99
Es	1.442934	0.000002	0.000003	99
Es	-0.843396	0.115299	0.234282	99
Es	-1.157105	-0.000000	0.000000	99
Es	0.843397	-0.206555	-0.159740	99
Es	0.843382	-0.035054	0.258758	99
Es	-1.442932	-0.000004	0.000001	99
Es	-0.843400	0.145253	-0.216987	99
