10
Properties=species:S:1:pos:R:3:Z:I:1 energy=-40.21343211845962 field_type=dipole dipole="0.000000 0.000000 0.000000" charge=0
C	0.998260	-0.002460	-0.004360	6
H	2.090210	-0.002430	0.004140	1
H	0.633790	1.026860	0.004140	1
H	0.627040	-0.527730	0.878110	1
H	0.641360	-0.507470	-0.905400	1
Es	1.096748	-0.085395	0.137749	99
Es	1.178596	0.278011	0.028923	99
Es	1.123547	-0.188898	-0.263155	99
Es	0.879781	-0.136397	0.213116	99
Es	0.712292	0.119892	-0.139254	99
