27
Properties=species:S:1:pos:R:3:Z:I:1 energy=-172.1313825347881 field_type=dipole dipole="0.000000 0.000000 0.000000" charge=0
C	-1.239611	-0.008605	0.579296	6
N	0.213849	-0.079675	0.698436	7
C	0.850879	-0.748455	-0.430544	6
C	0.920349	0.749585	-0.271084	6
H	-1.624341	0.749155	1.269866	1
H	-1.681221	-0.969605	0.862736	1
H	-1.599181	0.242405	-0.426174	1
H	0.223419	-1.160965	-1.210554	1
H	1.735969	-1.326505	-0.194884	1
H	1.853749	1.181394	0.069916	1
H	0.346139	1.371275	-0.947014	1
Es	0.465939	-0.012799	0.079058	99
Es	0.118125	0.293137	0.195707	99
Es	1.195400	1.089575	-0.279269	99
Es	-0.804459	-0.115735	0.567624	99
Es	0.587531	-0.787035	-0.393547	99
Es	0.731016	0.508861	-0.095541	99
Es	-1.391563	-0.428806	0.612277	99
Es	1.046828	-0.802518	-0.257535	99
Es	0.348162	-0.326876	0.076764	99
Es	-1.292373	0.019990	0.701364	99
Es	0.027036	-0.064526	0.354416	99
Es	0.836939	-0.356309	-0.235735	99
Es	-1.404623	0.244960	0.884084	99
Es	0.893025	0.550868	-0.112684	99
Es	-0.539960	0.291028	0.265234	99
Es	1.201257	-0.378129	-0.432283	99
