30
Properties=species:S:1:pos:R:3:Z:I:1 energy=-173.3341962947228 field_type=dipole dipole="0.000000 0.000000 0.000000" charge=0
C	-1.300289	-0.239857	0.420012	6
N	0.161661	-0.232907	0.416952	7
C	0.673681	-0.956407	-0.745708	6
C	0.666212	1.139203	0.427842	6
H	-1.685889	0.265693	1.312772	1
H	-1.680459	-1.267307	0.453232	1
H	-1.719949	0.254393	-0.464148	1
H	0.330842	-1.997367	-0.733098	1
H	1.769141	-0.987287	-0.728378	1
H	0.356761	-0.500697	-1.691238	1
H	0.315932	1.671343	1.319712	1
H	0.350892	1.704843	-0.456908	1
H	1.761461	1.146353	0.468952	1
Es	0.379209	1.135102	0.436164	99
Es	1.267486	1.130835	0.386112	99
Es	-1.443481	0.118497	0.649380	99
Es	0.501975	-0.909478	-0.919923	99
Es	-0.401605	-0.149513	0.245470	99
Es	-0.121373	-0.201526	0.300637	99
Es	0.495190	1.052354	0.236713	99
Es	0.454142	0.612083	0.301571	99
Es	-1.091320	-0.122139	0.186408	99
Es	-1.361122	-0.203208	0.535816	99
Es	1.207685	-0.832709	-0.627193	99
Es	0.542134	1.305890	0.723335	99
Es	0.546263	-0.581712	-0.141704	99
Es	0.594894	-1.097196	-0.857159	99
Es	0.520785	-1.240459	-0.800704	99
Es	-1.533101	-0.899042	0.435479	99
Es	0.053299	0.001856	0.485609	99
