17
Properties=species:S:1:pos:R:3:Z:I:1 energy=-79.25981201622716 field_type=dipole dipole="0.000000 0.000000 0.000000" charge=0
C	1.004040	-0.002950	-0.006400	6
C	2.515960	-0.007020	0.000590	6
H	0.622350	1.022400	-0.001640	1
H	0.614110	-0.519740	0.875610	1
H	0.622370	-0.508420	-0.898570	1
H	2.897650	0.502100	0.890620	1
H	2.905890	0.506090	-0.883570	1
H	2.897630	-1.032430	0.000060	1
Es	0.738603	-0.356403	0.596953	99
Es	0.744258	-0.348756	-0.616654	99
Es	2.515930	-0.007021	0.000590	99
Es	2.775742	-0.708501	0.000252	99
Es	0.744267	0.698438	-0.003183	99
Es	1.004069	-0.002951	-0.006399	99
Es	2.775710	0.341281	0.609386	99
Es	1.760035	-0.004970	-0.002917	99
Es	2.781385	0.343969	-0.604206	99
