14
Properties=species:S:1:pos:R:3:Z:I:1 energy=-78.05543859664067 field_type=dipole dipole="0.000000 0.000000 0.000000" charge=0
C	0.989160	0.000100	0.000000	6
C	2.324920	-0.000170	-0.000000	6
H	0.429410	0.930140	0.000000	1
H	0.429070	-0.929850	0.000000	1
H	2.885000	0.929800	-0.000000	1
H	2.884670	-0.930200	0.000000	1
Es	1.657046	-0.000066	-0.319768	99
Es	2.710744	0.625405	0.000009	99
Es	1.657041	-0.000113	0.319759	99
Es	2.710649	-0.625735	-0.000038	99
Es	0.603532	0.625708	0.000033	99
Es	0.989061	0.000099	0.000001	99
Es	0.603225	-0.625392	0.000005	99
Es	2.325016	-0.000169	0.000000	99
