22
Properties=species:S:1:pos:R:3:Z:I:1 energy=-154.1436539508846 field_type=dipole dipole="0.000000 0.000000 0.000000" charge=0
C	1.005480	-0.000680	0.004310	6
C	2.520130	0.001580	0.001240	6
O	3.004400	1.336610	0.011740	8
H	0.617530	-1.022410	0.011110	1
H	0.616690	0.518480	-0.877370	1
H	0.622110	0.530030	0.881350	1
H	2.912170	-0.507140	-0.885470	1
H	2.905990	-0.508360	0.889530	1
H	2.665730	1.777070	-0.785890	1
Es	2.809314	1.554633	-0.426043	99
Es	0.748098	0.354807	-0.604240	99
Es	2.869174	1.474771	0.250140	99
Es	1.750094	-0.005844	-0.000707	99
Es	3.308708	1.322563	-0.021416	99
Es	2.781229	-0.347143	0.609548	99
Es	1.005484	-0.000688	0.004296	99
Es	3.004219	1.336469	0.011519	99
Es	2.520164	0.001807	0.001235	99
Es	0.748603	0.356082	0.601180	99
Es	2.782638	-0.355702	-0.614834	99
Es	0.745219	-0.698618	0.006441	99
Es	2.810245	0.835897	-0.014756	99
