22
Properties=species:S:1:pos:R:3:Z:I:1 energy=-154.12775982568482 field_type=dipole dipole="0.000000 0.000000 0.000000" charge=0
C	0.982700	-0.001790	0.004550	6
O	2.403300	0.023630	0.000000	8
C	2.901470	1.354260	-0.004550	6
H	0.656500	-1.045550	0.003120	1
H	0.587590	0.488860	-0.890200	1
H	0.593620	0.484720	0.904440	1
H	3.994240	1.313340	-0.003120	1
H	2.570850	1.890490	0.890200	1
H	2.572750	1.883420	-0.904440	1
Es	0.708063	0.343326	-0.608798	99
Es	2.559692	0.545116	-0.001555	99
Es	3.645049	1.328560	-0.003501	99
Es	0.982920	-0.001779	0.004550	99
Es	0.758772	-0.711275	0.003637	99
Es	1.859546	0.050499	0.001709	99
Es	2.901387	1.354061	-0.004549	99
Es	2.487346	-0.097123	-0.268280	99
Es	2.403086	0.023927	-0.000032	99
Es	2.489108	-0.096123	0.268158	99
Es	0.712105	0.340598	0.621395	99
Es	2.669121	1.723543	-0.621449	99
Es	2.667647	1.728386	0.608716	99
