21
Properties=species:S:1:pos:R:3:Z:I:1 energy=-117.1016633533324 field_type=dipole dipole="0.000000 0.000000 0.000000" charge=0
C	-0.026670	0.866370	-0.056930	6
C	-0.735540	-0.458480	-0.057100	6
C	0.762830	-0.408160	0.042620	6
H	0.016420	1.420700	-0.987120	1
H	-0.106360	1.485880	0.829050	1
H	-1.172120	-0.801350	-0.987490	1
H	-1.295280	-0.736100	0.828540	1
H	1.217890	-0.651750	0.995630	1
H	1.340680	-0.717160	-0.820750	1
Es	0.019627	-0.625829	0.000205	99
Es	-1.028763	-0.689473	-0.690793	99
Es	0.531515	0.330927	0.000238	99
Es	0.002829	1.239010	-0.690608	99
Es	0.762669	-0.408070	0.042606	99
Es	1.152164	-0.616439	-0.546047	99
Es	-0.080847	1.283361	0.546892	99
Es	-0.026664	0.866186	-0.056922	99
Es	1.068399	-0.571671	0.691522	99
Es	-0.550433	0.294667	-0.071703	99
Es	-1.112610	-0.644967	0.546434	99
Es	-0.735387	-0.458385	-0.057093	99
