25
Properties=species:S:1:pos:R:3:Z:I:1 energy=-154.9664341533231 field_type=dipole dipole="0.000000 0.000000 0.000000" charge=0
C	1.000000	0.000000	0.000000	6
C	2.444000	0.000000	0.000000	6
C	3.634160	0.000000	0.000000	6
C	5.078160	0.000000	0.000000	6
H	0.606090	1.020330	0.011670	1
H	0.606090	-0.520270	0.877790	1
H	0.606090	-0.500060	-0.889470	1
H	5.472070	1.020330	-0.011670	1
H	5.472070	-0.520270	-0.877790	1
H	5.472070	-0.500060	0.889470	1
Es	0.751232	-0.335452	-0.596634	99
Es	4.335680	0.000033	-0.000008	99
Es	5.078053	0.000001	0.000001	99
Es	2.443719	0.000001	0.000001	99
Es	1.000106	-0.000000	0.000000	99
Es	3.039067	0.197786	-0.304608	99
Es	0.751162	-0.348964	0.588802	99
Es	3.039087	0.164466	0.323883	99
Es	3.039080	-0.362318	-0.019345	99
Es	5.326967	-0.348894	-0.588744	99
Es	0.751155	0.684359	0.007785	99
Es	3.634442	0.000001	-0.000001	99
Es	5.327041	0.684385	-0.007785	99
Es	5.327008	-0.335485	0.596544	99
Es	1.742402	0.000080	0.000108	99
