25
Properties=species:S:1:pos:R:3:Z:I:1 energy=-154.95716900966886 field_type=dipole dipole="0.000000 0.000000 0.000000" charge=0
C	1.000120	-0.054800	0.002960	6
C	2.520000	0.000000	0.000000	6
C	3.002020	1.361170	0.000000	6
C	3.399300	2.483070	0.000000	6
H	0.658160	-1.094070	0.002060	1
H	0.584950	0.441120	-0.880590	1
H	0.588560	0.438410	0.889710	1
H	2.895760	-0.532790	-0.880760	1
H	2.899280	-0.534150	0.878430	1
H	3.754860	3.487710	0.000000	1
Es	2.520005	0.000112	-0.000001	99
Es	1.774976	-0.008557	0.001500	99
Es	3.061326	1.985160	0.326674	99
Es	2.777579	-0.341867	-0.593995	99
Es	3.007524	2.003825	-0.293914	99
Es	2.770832	0.706413	0.000085	99
Es	0.725875	0.279323	0.607173	99
Es	0.773945	-0.766020	0.002311	99
Es	1.000175	-0.054804	0.002959	99
Es	0.723447	0.281244	-0.599122	99
Es	3.541670	1.816842	-0.032784	99
Es	2.779862	-0.342661	0.592456	99
Es	3.631646	3.140337	-0.000039	99
Es	3.001933	1.360919	-0.000000	99
Es	3.399393	2.483324	-0.000011	99
