21
Properties=species:S:1:pos:R:3:Z:I:1 energy=-169.82635259937769 field_type=dipole dipole="0.000000 0.000000 0.000000" charge=0
C	0.977710	-0.003580	-0.000000	6
C	2.316050	0.022730	0.000000	6
C	3.055690	1.236960	0.000000	6
N	3.663170	2.224800	0.000000	7
H	0.441270	-0.947000	-0.000000	1
H	0.385750	0.908920	-0.000000	1
H	2.882290	-0.901300	0.000000	1
Es	3.854867	2.537936	-0.000126	99
Es	2.705925	0.658753	-0.000131	99
Es	3.414740	1.742448	0.302663	99
Es	1.698081	0.035085	0.319442	99
Es	3.588410	1.642089	-0.190405	99
Es	3.055505	1.236659	-0.000003	99
Es	0.617002	-0.634093	-0.000087	99
Es	3.662931	2.224412	-0.000000	99
Es	0.977648	-0.003582	0.000000	99
Es	1.698069	0.035035	-0.319257	99
Es	3.136583	1.920785	-0.111956	99
Es	2.316216	0.022867	-0.000010	99
Es	0.579657	0.602407	-0.000109	99
Es	2.705531	-0.577085	-0.000019	99
