27
Properties=species:S:1:pos:R:3:Z:I:1 energy=-172.13138258260796 field_type=dipole dipole="0.000000 0.000000 0.000000" charge=0
C	1.144150	-0.006700	-0.093280	6
N	2.597610	-0.077770	0.025860	7
C	3.234640	-0.746550	-1.103120	6
C	3.304110	0.751490	-0.943660	6
H	0.759420	0.751060	0.597290	1
H	0.702540	-0.967700	0.190160	1
H	0.784580	0.244310	-1.098750	1
H	2.607180	-1.159060	-1.883130	1
H	4.119730	-1.324600	-0.867460	1
H	4.237510	1.183300	-0.602660	1
H	2.729900	1.373180	-1.619590	1
Es	1.968976	-0.041350	-0.065513	99
Es	3.392598	0.015912	-1.210724	99
Es	2.800185	-1.026112	-1.631098	99
Es	2.738812	-0.119442	0.347098	99
Es	2.853005	0.409817	-0.337116	99
Es	2.597420	-0.077694	0.025228	99
Es	3.834366	-1.143506	-0.945564	99
Es	0.907494	0.165628	-0.793829	99
Es	1.144274	-0.006705	-0.093278	99
Es	2.813279	-0.497933	-0.435514	99
Es	0.844783	-0.664031	0.095951	99
Es	3.937217	1.049504	-0.713270	99
Es	3.234559	-0.746375	-1.102978	99
Es	3.304009	0.751296	-0.943553	99
Es	0.882219	0.513562	0.372930	99
Es	2.905237	1.173593	-1.400036	99
