27
Properties=species:S:1:pos:R:3:Z:I:1 energy=-172.15869200228872 field_type=dipole dipole="0.000000 0.000000 0.000000" charge=0
N	0.924800	-0.080640	-0.199650	7
C	2.338340	0.030970	0.120960	6
C	2.760980	1.462570	0.067770	6
C	3.300380	2.132360	1.096710	6
H	0.645800	-1.057180	-0.130940	1
H	0.777690	0.186500	-1.170610	1
H	2.926970	-0.549940	-0.598000	1
H	2.516570	-0.397240	1.113380	1
H	2.624210	1.983040	-0.876450	1
H	3.454760	1.663250	2.062910	1
H	3.585060	3.174310	0.991710	1
Es	2.552254	0.752703	0.094984	99
Es	2.460539	-0.258612	0.800203	99
Es	3.338141	1.706919	0.493272	99
Es	0.774911	-0.678547	-0.171703	99
Es	2.660726	1.805076	-0.581696	99
Es	3.497552	2.839430	1.032887	99
Es	2.760940	1.462502	0.067682	99
Es	2.742431	1.893544	0.685844	99
Es	2.752917	-0.360395	-0.374960	99
Es	0.854970	0.069109	-0.795435	99
Es	0.925139	-0.080982	-0.200019	99
Es	3.408823	1.817089	1.754324	99
Es	1.547304	-0.042974	-0.079460	99
Es	2.338214	0.031001	0.120915	99
Es	0.727932	0.117745	0.012695	99
Es	3.300437	2.132407	1.096782	99
