23
Properties=species:S:1:pos:R:3:Z:I:1 energy=-190.83393445727563 field_type=dipole dipole="0.000000 0.000000 0.000000" charge=0
C	0.978670	-0.014110	0.023790	6
C	2.313830	0.007060	-0.027740	6
C	3.051060	1.286070	-0.012840	6
O	4.274180	1.316150	-0.059680	8
H	0.445660	-0.960380	0.012280	1
H	0.381040	0.891190	0.078130	1
H	2.911310	-0.895570	-0.081990	1
H	2.441000	2.202660	0.042390	1
Es	2.669816	0.642194	-0.019950	99
Es	4.273849	1.316145	-0.059672	99
Es	3.812014	1.311823	-0.293427	99
Es	3.051042	1.286045	-0.012830	99
Es	0.612164	-0.645158	0.016557	99
Es	0.577083	0.595165	0.060367	99
Es	2.313903	0.007107	-0.027744	99
Es	1.696025	0.015691	0.315147	99
Es	4.393999	1.606925	-0.054836	99
Es	2.621259	1.907368	0.025207	99
Es	2.713221	-0.595366	-0.063982	99
Es	3.830529	1.296270	0.207820	99
Es	0.978561	-0.014108	0.023794	99
Es	1.671195	0.037377	-0.319880	99
Es	4.394400	1.028930	-0.073009	99
