28
Properties=species:S:1:pos:R:3:Z:I:1 energy=-156.15077722315417 field_type=dipole dipole="0.000000 0.000000 0.000000" charge=0
C	1.023610	0.012930	-0.075360	6
C	2.510840	-0.045760	0.002370	6
C	3.296290	-0.734340	-1.080970	6
C	3.355610	0.762940	-0.945110	6
H	0.641860	0.787150	0.598340	1
H	0.592060	-0.945480	0.229400	1
H	0.671040	0.239650	-1.086800	1
H	2.856580	-0.159490	1.023310	1
H	2.763400	-1.147160	-1.928940	1
H	4.170210	-1.305440	-0.786790	1
H	4.268830	1.202800	-0.560930	1
H	2.863660	1.359210	-1.705570	1
Es	3.977730	1.058818	-0.683273	99
Es	1.023622	0.012931	-0.075361	99
Es	3.891525	-1.119849	-0.879623	99
Es	3.444865	0.022434	-1.160245	99
Es	2.841053	-0.565560	-0.487356	99
Es	3.355558	0.762778	-0.945065	99
Es	0.730704	-0.641295	0.133442	99
Es	3.296252	-0.734185	-1.080897	99
Es	2.882778	0.528093	-0.385170	99
Es	2.510928	-0.045749	0.002218	99
Es	0.789473	0.166553	-0.769077	99
Es	2.755870	-0.122842	0.695519	99
Es	2.927949	-1.011404	-1.655259	99
Es	0.765200	0.541919	0.384062	99
Es	1.768206	-0.013782	-0.053132	99
Es	3.014565	1.165195	-1.459696	99
