29
Properties=species:S:1:pos:R:3:Z:I:1 energy=-193.1956775957288 field_type=dipole dipole="0.000000 0.000000 0.000000" charge=0
C	0.992270	0.004820	0.008040	6
C	2.513080	-0.012580	-0.001010	6
C	3.064710	-0.742190	-1.216070	6
O	2.996920	1.327750	0.000280	8
H	0.622530	0.554020	0.880640	1
H	0.583690	-1.009900	0.034840	1
H	0.598350	0.518050	-0.876190	1
H	2.878690	-0.493890	0.911700	1
H	2.746510	-0.257220	-2.145560	1
H	2.736220	-1.785780	-1.235550	1
H	4.159870	-0.720230	-1.209310	1
H	2.676060	1.761650	-0.807940	1
Es	2.811197	1.540761	-0.444339	99
Es	0.733324	0.355240	-0.603718	99
Es	2.996714	1.327612	0.000044	99
Es	2.858618	1.471591	0.234629	99
Es	0.992266	0.004811	0.008029	99
Es	3.064698	-0.742196	-1.216077	99
Es	0.743235	0.373852	0.602247	99
Es	0.718411	-0.689727	0.023710	99
Es	2.785759	-0.388499	-0.622322	99
Es	3.807067	-0.730121	-1.207802	99
Es	2.835568	-1.452834	-1.226235	99
Es	2.762532	-0.343330	0.623071	99
Es	2.802861	0.827905	-0.023950	99
Es	3.303157	1.312056	-0.027156	99
Es	1.737316	-0.010654	-0.003049	99
Es	2.837621	-0.403793	-1.846955	99
Es	2.513127	-0.012371	-0.001058	99
