26
Properties=species:S:1:pos:R:3:Z:I:1 energy=-192.03238264003497 field_type=dipole dipole="0.000000 0.000000 0.000000" charge=0
C	0.998380	-0.004910	-0.007370	6
C	2.501690	0.034430	0.005080	6
C	3.225490	-1.284730	-0.005320	6
O	3.118790	1.098850	0.018200	8
H	0.602320	1.014310	0.000580	1
H	0.638000	-0.530330	0.880670	1
H	0.652160	-0.511220	-0.912660	1
H	2.512230	-2.113800	0.017700	1
H	3.867150	-1.352130	0.877400	1
H	3.823860	-1.361800	-0.917040	1
Es	2.895126	0.716805	0.265478	99
Es	0.782489	-0.353144	-0.612594	99
Es	3.118553	1.098571	0.018195	99
Es	2.931190	1.352773	0.019830	99
Es	2.897341	0.721609	-0.238170	99
Es	3.617477	-1.325290	-0.612839	99
Es	2.736117	-1.845749	0.009916	99
Es	3.432570	1.054883	0.019295	99
Es	2.854044	-0.642913	0.000431	99
Es	0.730420	0.675557	-0.002130	99
Es	0.998414	-0.004944	-0.007371	99
Es	1.739116	0.006013	-0.001095	99
Es	3.647351	-1.319920	0.582592	99
Es	3.225460	-1.284706	-0.005321	99
Es	0.772732	-0.366011	0.586491	99
Es	2.501672	0.034396	0.005079	99
