26
Properties=species:S:1:pos:R:3:Z:I:1 energy=-191.99776960110367 field_type=dipole dipole="0.000000 0.000000 0.000000" charge=0
O	0.988160	-0.071040	-0.301560	8
C	2.351230	-0.030470	0.086460	6
C	2.787880	1.394410	0.053990	6
C	3.340850	2.047660	1.084440	6
H	0.707030	-0.998310	-0.234500	1
H	2.937510	-0.620640	-0.624230	1
H	2.448870	-0.469920	1.084220	1
H	2.629350	1.922930	-0.883110	1
H	3.509980	1.566470	2.042420	1
H	3.626680	3.090590	0.988300	1
Es	3.340904	2.047703	1.084516	99
Es	2.678793	1.741942	-0.583881	99
Es	3.367606	1.623286	0.474801	99
Es	2.427472	-0.331428	0.775132	99
Es	1.507856	-0.077780	-0.151624	99
Es	0.833648	0.082174	-0.086446	99
Es	2.575184	0.684328	0.076259	99
Es	0.980356	0.003922	-0.598715	99
Es	3.458376	1.724049	1.736356	99
Es	2.351022	-0.030443	0.086390	99
Es	3.539360	2.753572	1.026602	99
Es	2.762003	-0.432170	-0.398076	99
Es	2.776566	1.812194	0.678507	99
Es	0.855735	-0.577754	-0.260844	99
Es	0.988353	-0.071333	-0.301398	99
Es	2.787841	1.394330	0.053918	99
