23
Properties=species:S:1:pos:R:3:Z:I:1 energy=-190.7852650251486 field_type=dipole dipole="0.000000 0.000000 0.000000" charge=0
O	1.000300	-0.002170	-0.011500	8
C	2.420000	0.000000	0.000000	6
C	2.902020	1.361170	0.000000	6
C	3.299300	2.483070	0.000000	6
H	0.723060	-0.931690	-0.010600	1
H	2.772420	-0.541450	-0.883270	1
H	2.758030	-0.536310	0.891980	1
H	3.643820	3.491510	-0.000110	1
Es	2.671967	-0.355125	-0.598011	99
Es	2.901932	1.360907	-0.000001	99
Es	0.874638	-0.511278	-0.010925	99
Es	2.913733	1.995253	0.294436	99
Es	1.549777	-0.017162	-0.007034	99
Es	3.438480	1.790120	0.031023	99
Es	2.668360	0.705709	-0.000125	99
Es	2.662240	-0.351751	0.604096	99
Es	0.912666	0.114551	0.256260	99
Es	0.916876	0.113091	-0.281287	99
Es	2.419804	0.000122	0.000000	99
Es	1.000534	-0.002495	-0.011506	99
Es	2.965358	1.981262	-0.325429	99
Es	3.526210	3.140261	0.000153	99
Es	3.299395	2.483314	0.000002	99
