31
Properties=species:S:1:pos:R:3:Z:I:1 energy=-157.35548523667828 field_type=dipole dipole="0.000000 0.000000 0.000000" charge=0
C	0.979850	-0.057530	0.000960	6
C	2.498770	0.004820	-0.003850	6
C	2.999020	1.447630	0.015250	6
C	4.517980	1.509970	0.009910	6
H	0.642940	-1.098970	-0.012510	1
H	0.562380	0.445770	-0.877290	1
H	0.570310	0.419160	0.897500	1
H	2.876250	-0.508780	-0.895370	1
H	2.883720	-0.535030	0.869250	1
H	2.620900	1.961310	0.906850	1
H	2.613570	1.987180	-0.857670	1
H	4.934390	1.006650	0.888360	1
H	4.854570	2.551320	0.023810	1
H	4.927150	1.032560	-0.886180	1
Es	2.498738	0.004839	-0.003849	99
Es	4.517964	1.509971	0.009910	99
Es	0.748881	-0.770021	-0.008420	99
Es	0.697510	0.288881	-0.600523	99
Es	4.794813	1.181329	-0.603833	99
Es	2.759546	-0.344846	-0.618520	99
Es	4.799833	1.163545	0.611481	99
Es	2.999053	1.447610	0.015250	99
Es	4.748857	2.222409	0.019419	99
Es	1.732352	-0.024770	-0.001510	99
Es	0.979864	-0.057532	0.000960	99
Es	3.765394	1.477230	0.012552	99
Es	2.737973	1.797487	0.630011	99
Es	2.732901	1.815261	-0.586797	99
Es	0.702746	0.270770	0.614999	99
Es	2.748930	0.726239	0.005853	99
Es	2.764564	-0.363133	0.598218	99
