31
Properties=species:S:1:pos:R:3:Z:I:1 energy=-157.3563410769135 field_type=dipole dipole="0.000000 0.000000 0.000000" charge=0
C	0.987840	-0.007640	-0.000770	6
C	2.514770	0.008730	-0.006250	6
C	3.055230	-0.746890	-1.218020	6
C	3.036280	1.443710	0.008050	6
H	0.596690	0.508310	0.882680	1
H	0.610090	-1.035580	0.018010	1
H	0.580060	0.486600	-0.889540	1
H	2.868340	-0.495990	0.900960	1
H	2.729000	-0.282990	-2.155310	1
H	2.707440	-1.785420	-1.215340	1
H	4.150310	-0.761060	-1.210520	1
H	2.710660	1.995270	-0.880710	1
H	4.131070	1.459050	0.033730	1
H	2.673620	1.980300	0.891210	1
Es	0.722502	0.347016	0.604109	99
Es	0.987842	-0.007640	-0.000770	99
Es	0.731698	-0.712166	0.010979	99
Es	3.055229	-0.746888	-1.218015	99
Es	1.741910	0.002635	-0.007417	99
Es	2.828976	-0.425177	-1.856335	99
Es	2.786292	-0.370832	-0.622228	99
Es	0.714436	0.331710	-0.610959	99
Es	2.514755	0.008753	-0.006291	99
Es	2.810466	1.816278	-0.602172	99
Es	2.758075	-0.338614	0.618036	99
Es	2.814971	-1.457037	-1.214626	99
Es	2.785885	1.809227	0.612741	99
Es	3.036279	1.443707	0.008051	99
Es	3.785737	1.451669	0.024460	99
Es	2.776734	0.735848	-0.002874	99
Es	3.804812	-0.754265	-1.211321	99
