25
Properties=species:S:1:pos:R:3:Z:I:1 energy=-154.9783083520609 field_type=dipole dipole="0.000000 0.000000 0.000000" charge=0
C	0.929460	-0.149640	0.229990	6
C	2.142190	0.097820	-0.277690	6
C	2.757830	1.400940	-0.235270	6
C	3.970420	1.650030	-0.742460	6
H	0.503640	-1.146710	0.176240	1
H	0.333050	0.621640	0.707270	1
H	2.696000	-0.712610	-0.744900	1
H	2.203200	2.212460	0.232610	1
H	4.567170	0.879320	-1.219760	1
H	4.395520	2.647390	-0.688300	1
Es	4.376954	1.128454	-1.066696	99
Es	1.410237	0.062261	-0.305998	99
Es	4.265826	2.323695	-0.709735	99
Es	3.489745	1.437443	-0.206775	99
Es	2.450106	0.749341	-0.256542	99
Es	2.757733	1.400909	-0.235232	99
Es	3.970511	1.650052	-0.742498	99
Es	3.223613	1.581591	-0.772241	99
Es	2.142287	0.097853	-0.277726	99
Es	0.523300	0.372241	0.554221	99
Es	2.525908	-0.444917	-0.596665	99
Es	0.929368	-0.149664	0.230044	99
Es	0.633550	-0.823238	0.197580	99
Es	2.373550	1.944175	0.084109	99
Es	1.676386	-0.081861	0.259442	99
