19
Properties=species:S:1:pos:R:3:Z:I:1 energy=-152.5380170688924 field_type=dipole dipole="0.000000 0.000000 0.000000" charge=0
C	0.908150	0.000000	0.000000	6
C	2.108190	0.000000	0.000000	6
C	3.640210	0.000000	0.000000	6
C	4.840190	0.000000	0.000000	6
H	-0.156900	0.000000	0.000000	1
H	5.905370	0.000000	0.000000	1
Es	1.529866	0.346974	0.077089	99
Es	0.907951	0.000003	0.000004	99
Es	0.218744	0.000014	0.000078	99
Es	1.529824	-0.240514	0.262061	99
Es	2.108668	0.000002	0.000004	99
Es	4.218538	-0.344934	0.086393	99
Es	4.218539	0.247353	0.255523	99
Es	3.639732	-0.000001	0.000001	99
Es	4.218546	0.097532	-0.341896	99
Es	1.529811	-0.106399	-0.339183	99
Es	2.874204	-0.000056	-0.000085	99
Es	4.840391	-0.000001	0.000001	99
Es	5.529619	0.000028	0.000010	99
