36
Properties=species:S:1:pos:R:3:Z:I:1 energy=-232.2416979344236 field_type=dipole dipole="0.000000 0.000000 0.000000" charge=0
C	0.927060	-0.049230	0.030700	6
C	2.444170	0.033880	0.065720	6
C	2.981420	1.466670	0.021510	6
C	2.599200	2.298800	1.238000	6
O	4.405750	1.414470	-0.060540	8
H	0.609320	-1.095450	-0.024670	1
H	0.525280	0.473120	-0.843120	1
H	0.480840	0.384830	0.930160	1
H	2.852810	-0.523710	-0.786740	1
H	2.820330	-0.480290	0.959250	1
H	2.627570	1.967620	-0.885870	1
H	2.931090	1.815990	2.163990	1
H	1.519390	2.462290	1.295730	1
H	3.092430	3.276510	1.200290	1
H	4.735070	0.975520	0.742430	1
Es	2.444125	0.033891	0.065733	99
Es	2.981637	1.466650	0.021549	99
Es	2.696683	0.747986	0.054316	99
Es	4.507058	1.705299	-0.046927	99
Es	3.872167	1.422226	-0.005482	99
Es	2.827960	1.957435	1.867211	99
Es	4.405590	1.414387	-0.060270	99
Es	2.735141	1.808136	-0.599809	99
Es	0.712650	-0.762228	-0.007327	99
Es	2.599190	2.298785	1.238005	99
Es	1.680047	0.001486	0.053227	99
Es	0.927087	-0.049227	0.030700	99
Es	2.705063	-0.309341	0.687808	99
Es	2.719140	-0.341697	-0.519236	99
Es	0.625313	0.250558	0.644932	99
Es	2.930805	2.960980	1.207436	99
Es	2.775157	1.881937	0.644781	99
Es	0.657251	0.311148	-0.566099	99
Es	4.560314	1.174401	0.383256	99
Es	4.473937	1.225790	-0.294404	99
Es	1.862458	2.404443	1.275022	99
