36
Properties=species:S:1:pos:R:3:Z:I:1 energy=-232.2283729969344 field_type=dipole dipole="0.000000 0.000000 0.000000" charge=0
C	0.924430	-0.041160	0.023290	6
C	2.441550	-0.015350	0.007700	6
C	2.984750	1.407840	0.000020	6
O	4.409720	1.344060	-0.016100	8
C	4.992820	2.639930	-0.013910	6
H	0.562080	-1.074110	0.030410	1
H	0.513800	0.456320	-0.861870	1
H	0.531820	0.462320	0.913090	1
H	2.814090	-0.555320	-0.870540	1
H	2.831880	-0.552220	0.879990	1
H	2.652190	1.945890	0.895880	1
H	2.632750	1.944050	-0.889540	1
H	6.080590	2.528190	-0.033160	1
H	4.713710	3.183670	0.893650	1
H	4.683480	3.201410	-0.900400	1
Es	2.441510	-0.015308	0.007700	99
Es	4.489911	1.214790	0.249683	99
Es	0.659438	0.306144	0.631809	99
Es	3.871996	1.406015	-0.008618	99
Es	4.482684	1.220052	-0.287352	99
Es	4.774406	3.032160	-0.621725	99
Es	4.992725	2.639737	-0.013910	99
Es	0.924452	-0.041155	0.023290	99
Es	2.737285	1.783138	-0.614675	99
Es	4.602165	1.854783	-0.013921	99
Es	0.678897	-0.744570	0.028252	99
Es	2.750907	1.784402	0.619211	99
Es	1.678108	-0.019606	0.015461	99
Es	5.733870	2.566575	-0.027030	99
Es	2.984969	1.407815	0.000018	99
Es	2.702953	-0.375769	0.608064	99
Es	4.409512	1.344411	-0.016031	99
Es	0.647070	0.301744	-0.582140	99
Es	2.710054	0.701167	0.003860	99
Es	2.690584	-0.377692	-0.596624	99
Es	4.795159	3.020195	0.608562	99
