30
Properties=species:S:1:pos:R:3:Z:I:1 energy=-229.89031462726814 field_type=dipole dipole="0.000000 0.000000 0.000000" charge=0
C	0.941350	-0.102230	0.002290	6
C	2.427940	0.001620	-0.212880	6
O	3.097650	-0.963490	-0.578800	8
C	3.117610	1.300090	0.020150	6
C	2.516390	2.426830	0.419730	6
H	0.414760	0.579780	-0.670250	1
H	0.695710	0.115440	1.044890	1
H	0.614830	-1.122620	-0.220770	1
H	4.188260	1.277470	-0.161880	1
H	1.451640	2.495560	0.613310	1
H	3.100830	3.331040	0.564910	1
Es	3.117600	1.300004	0.020125	99
Es	2.516340	2.426915	0.419760	99
Es	1.677050	-0.036534	-0.100466	99
Es	2.757022	1.906435	-0.094665	99
Es	3.833877	1.285108	-0.101601	99
Es	3.405624	-0.892307	-0.610108	99
Es	0.789823	0.055033	0.698716	99
Es	2.902891	3.038757	0.519463	99
Es	0.723756	-0.781919	-0.146281	99
Es	0.602318	0.364744	-0.444763	99
Es	2.857630	1.743078	0.517041	99
Es	2.815175	-0.545120	-0.683723	99
Es	2.893256	-0.671656	-0.206157	99
Es	0.941397	-0.102193	0.002292	99
Es	1.799398	2.473978	0.550258	99
Es	2.756745	0.669874	-0.088658	99
Es	3.097504	-0.963237	-0.578715	99
Es	2.427930	0.001658	-0.212871	99
Es	2.926315	-1.227954	-0.620684	99
