32
Properties=species:S:1:pos:R:3:Z:I:1 energy=-194.04336329102352 field_type=dipole dipole="0.000000 0.000000 0.000000" charge=0
C	-1.268280	-0.000090	-0.129960	6
C	-0.382420	-1.223390	0.104370	6
C	0.993830	-0.669210	-0.051750	6
C	0.994360	0.667570	-0.044550	6
C	-0.383140	1.219990	0.116860	6
H	-1.622800	0.005340	-1.169060	1
H	-2.155240	-0.003590	0.512160	1
H	-0.592180	-2.008580	-0.627990	1
H	-0.516290	-1.630950	1.111640	1
H	1.880550	-1.283920	-0.127560	1
H	1.880850	1.283600	-0.114320	1
H	-0.516310	1.617380	1.129000	1
H	-0.592160	2.012920	-0.607020	1
Es	-1.268252	-0.000091	-0.129946	99
Es	0.322950	0.979239	0.030015	99
Es	0.323081	-0.981669	0.019877	99
Es	-0.382401	-1.223364	0.104366	99
Es	1.592728	1.096342	-0.091062	99
Es	0.981381	0.000923	-0.383793	99
Es	-0.839662	-0.624566	-0.004313	99
Es	0.993819	-0.669340	-0.051745	99
Es	0.994349	0.667702	-0.044548	99
Es	-0.383120	1.219966	0.116858	99
Es	-0.523470	1.763329	-0.375004	99
Es	-0.467370	1.487233	0.807864	99
Es	-1.877010	-0.002480	0.312012	99
Es	-1.505660	0.003630	-0.843761	99
Es	1.043567	-0.002478	0.264734	99
Es	1.592343	-1.097208	-0.102613	99
Es	-0.467002	-1.497686	0.792112	99
Es	-0.840054	0.622676	0.002017	99
Es	-0.523147	-1.761390	-0.393324	99
