33
Properties=species:S:1:pos:R:3:Z:I:1 energy=-231.045277088565 field_type=dipole dipole="0.000000 0.000000 0.000000" charge=0
C	0.957780	-1.093720	-0.017150	6
C	2.063170	-0.054290	0.020190	6
O	1.457040	1.234950	0.119020	8
C	2.289880	2.314370	0.169420	6
C	3.626290	2.354200	0.141720	6
H	1.373340	-2.102230	-0.095460	1
H	0.291880	-0.918280	-0.868660	1
H	0.341910	-1.034300	0.886540	1
H	2.655940	-0.123100	-0.898760	1
H	2.703150	-0.238450	0.890810	1
H	1.694070	3.219390	0.241300	1
H	4.243250	1.466530	0.070850	1
H	4.140670	3.308160	0.191530	1
Es	1.457436	1.234930	0.119034	99
Es	4.041544	1.752916	0.093784	99
Es	1.321068	1.291395	-0.132806	99
Es	3.626350	2.354191	0.141719	99
Es	0.546693	-1.054511	0.599427	99
Es	1.250590	-1.775703	-0.070490	99
Es	1.325797	1.257321	0.380088	99
Es	1.507765	-0.572117	0.001682	99
Es	3.018264	2.311386	0.485276	99
Es	0.512562	-0.975291	-0.598792	99
Es	2.507591	-0.177059	0.615446	99
Es	2.475211	-0.098251	-0.608157	99
Es	1.820590	1.615287	0.136814	99
Es	0.957817	-1.093706	-0.017151	99
Es	1.721794	0.773697	0.083130	99
Es	1.886577	2.927952	0.218115	99
Es	2.289625	2.314163	0.169412	99
Es	2.063034	-0.054081	0.020208	99
Es	3.003437	2.353998	-0.176941	99
Es	3.971056	2.996310	0.175309	99
