33
Properties=species:S:1:pos:R:3:Z:I:1 energy=-231.03446173525393 field_type=dipole dipole="0.000000 0.000000 0.000000" charge=0
C	2.233270	-0.842310	-0.247470	6
O	3.454980	-0.118750	-0.218030	8
C	3.240620	1.258190	0.073820	6
C	4.576600	1.929440	0.075820	6
C	4.901800	2.987600	-0.678250	6
H	2.457380	-1.888400	-0.474190	1
H	1.573410	-0.450170	-1.027680	1
H	1.735610	-0.794880	0.725990	1
H	2.782910	1.358350	1.064570	1
H	2.571950	1.698130	-0.675630	1
H	5.322780	1.503960	0.741600	1
H	4.193340	3.439830	-1.365340	1
H	5.897510	3.416870	-0.628500	1
Es	2.970363	-0.365410	-0.220301	99
Es	1.884848	-0.803886	0.421635	99
Es	3.614579	-0.229070	0.019858	99
Es	3.909348	1.600846	0.071175	99
Es	2.778538	1.564693	-0.440880	99
Es	4.576548	1.929348	0.075867	99
Es	3.561902	-0.124824	-0.503877	99
Es	3.240696	1.257988	0.073779	99
Es	3.454635	-0.118590	-0.217972	99
Es	4.901816	2.987691	-0.678302	99
Es	2.925805	1.330401	0.753836	99
Es	2.383668	-1.554008	-0.401447	99
Es	3.339044	0.401354	-0.103678	99
Es	2.233448	-0.842196	-0.247464	99
Es	1.773683	-0.567520	-0.780084	99
Es	5.073916	1.636962	0.530857	99
Es	4.835880	2.270895	-0.542753	99
Es	4.422999	3.298319	-1.145439	99
Es	5.573529	3.285737	-0.648584	99
Es	4.631644	2.667360	-0.065089	99
