30
Properties=species:S:1:pos:R:3:Z:I:1 energy=-229.82213588782508 field_type=dipole dipole="0.000000 0.000000 0.000000" charge=0
C	1.001800	-0.063780	0.029990	6
O	2.421090	-0.008220	0.028890	8
C	2.894010	1.338550	0.000000	6
C	4.338010	1.338550	0.000000	6
C	5.528170	1.338550	0.000000	6
H	0.699990	-1.113360	0.052710	1
H	0.599310	0.396030	-0.876720	1
H	0.599300	0.434660	0.916580	1
H	2.514430	1.874340	0.877410	1
H	2.514430	1.836190	-0.899590	1
H	6.593500	1.327380	0.000240	1
Es	4.943605	1.159946	-0.308794	99
Es	0.796228	-0.774800	0.045291	99
Es	2.508585	-0.117797	0.299522	99
Es	4.943246	1.169160	0.314526	99
Es	3.642170	1.335929	0.000021	99
Es	0.723346	0.261093	-0.591117	99
Es	5.528433	1.338556	0.000006	99
Es	4.921979	1.702653	-0.006084	99
Es	2.647909	1.706051	0.594274	99
Es	6.223585	1.333487	0.000117	99
Es	2.509164	-0.131378	-0.236171	99
Es	1.879135	0.010688	0.028740	99
Es	2.420841	-0.007931	0.028858	99
Es	4.337731	1.338558	0.000011	99
Es	1.002020	-0.063760	0.029990	99
Es	2.577938	0.523855	0.016650	99
Es	0.723293	0.287467	0.636876	99
Es	2.647918	1.680189	-0.609474	99
Es	2.894069	1.338338	0.000005	99
