33
Properties=species:S:1:pos:R:3:Z:I:1 energy=-231.03597932749076 field_type=dipole dipole="0.000000 0.000000 0.000000" charge=0
O	0.937080	0.006060	0.025260	8
C	2.373700	0.019470	0.008460	6
C	3.050340	1.057730	0.935150	6
C	4.121370	-0.005860	1.238230	6
C	3.076370	-1.070210	0.852030	6
H	0.688250	-0.786390	-0.481770	1
H	2.747760	0.067630	-1.022420	1
H	2.445500	1.342820	1.803710	1
H	3.416470	1.963030	0.443770	1
H	4.982630	0.030760	0.561440	1
H	4.478570	-0.041800	2.270110	1
H	3.465090	-1.924960	0.292480	1
H	2.480250	-1.436780	1.695560	1
Es	0.842777	0.248738	-0.136006	99
Es	0.937288	0.005840	0.025106	99
Es	0.817762	-0.425792	-0.252804	99
Es	3.076400	-1.070167	0.852019	99
Es	3.300175	1.682225	0.597979	99
Es	3.340502	-1.663733	0.466084	99
Es	0.857405	-0.046645	0.317286	99
Es	2.656347	0.606542	0.439302	99
Es	2.679134	-0.599569	0.393883	99
Es	3.652747	-0.604347	1.076585	99
Es	4.121302	-0.005863	1.238203	99
Es	2.639064	0.047956	-0.700159	99
Es	4.369178	-0.030487	1.944570	99
Es	2.373489	0.019461	0.008507	99
Es	2.668621	-1.305967	1.425461	99
Es	3.637930	0.587258	1.122624	99
Es	1.475977	-0.004415	0.003655	99
Es	4.702460	0.019187	0.766824	99
Es	3.050358	1.057671	0.935126	99
Es	2.639461	1.235493	1.524420	99
