30
Properties=species:S:1:pos:R:3:Z:I:1 energy=-229.8766173044031 field_type=dipole dipole="0.000000 0.000000 0.000000" charge=0
O	1.058670	0.003500	0.204800	8
C	2.263740	-0.004300	0.072700	6
C	3.346750	1.089890	-0.017280	6
C	4.272530	-0.001430	-0.609970	6
C	3.320680	-1.115600	-0.106660	6
H	3.651940	1.470680	0.961670	1
H	3.109360	1.916510	-0.689150	1
H	4.352170	0.041780	-1.702590	1
H	5.281790	-0.030840	-0.189290	1
H	3.063870	-1.878570	-0.843400	1
H	3.615450	-1.580980	0.837690	1
Es	1.059017	0.003476	0.204760	99
Es	1.513971	-0.008972	0.408631	99
Es	3.143632	-1.628422	-0.601040	99
Es	2.743439	-0.629976	-0.001616	99
Es	4.313827	0.028126	-1.352582	99
Es	2.757993	0.612287	0.048569	99
Es	1.469709	0.011324	-0.097439	99
Es	4.272460	-0.001432	-0.609928	99
Es	0.945484	-0.280953	0.203553	99
Es	3.512157	-1.409468	0.531321	99
Es	2.263818	-0.004302	0.072682	99
Es	3.544529	1.326547	0.642360	99
Es	0.946860	0.288970	0.226371	99
Es	3.863069	0.600713	-0.324454	99
Es	3.848771	-0.615026	-0.373706	99
Es	4.960859	-0.021432	-0.321497	99
Es	3.182664	1.645467	-0.468017	99
Es	3.320675	-1.115542	-0.106659	99
Es	3.346744	1.089832	-0.017283	99
