30
Properties=species:S:1:pos:R:3:Z:I:1 energy=-229.86242781733063 field_type=dipole dipole="0.000000 0.000000 0.000000" charge=0
O	2.315440	-0.968780	-0.293040	8
C	2.077560	0.195580	0.000860	6
C	3.161820	1.200440	0.057110	6
C	3.524700	1.976030	-1.184530	6
C	2.851460	2.673600	-0.037440	6
H	1.059500	0.541910	0.245160	1
H	3.985170	0.911560	0.702870	1
H	2.950930	1.801450	-2.088290	1
H	4.575230	2.178070	-1.362620	1
H	3.446530	3.355530	0.560250	1
H	1.823050	2.988530	-0.172930	1
Es	2.185172	-0.491657	-0.429568	99
Es	2.618792	-1.010464	-0.349000	99
Es	2.063682	-1.154197	-0.292116	99
Es	3.191586	2.488770	-0.705172	99
Es	2.851523	2.673438	-0.037512	99
Es	3.129747	1.856262	-1.787982	99
Es	3.524618	1.975996	-1.184347	99
Es	2.077570	0.195598	0.000860	99
Es	3.704698	1.004555	0.490530	99
Es	2.315362	-0.968448	-0.292959	99
Es	3.389239	1.408448	-0.627709	99
Es	2.262153	-0.594502	0.058918	99
Es	4.233219	2.109368	-1.297838	99
Es	3.256191	3.130750	0.367438	99
Es	2.921801	1.929023	0.187073	99
Es	1.381379	0.444112	0.164799	99
Es	3.161785	1.200595	0.057002	99
Es	2.607703	0.724811	0.030790	99
Es	2.150887	2.873889	-0.128983	99
