29
Properties=species:S:1:pos:R:3:Z:I:1 energy=-245.8336639527635 field_type=dipole dipole="0.000000 0.000000 0.000000" charge=0
C	-1.240090	-0.012140	-0.165290	6
C	-0.400340	-1.225640	0.122070	6
C	0.929030	-0.606530	-0.059390	6
N	0.948390	0.681850	-0.054020	7
O	-0.392440	1.105740	0.119370	8
H	-1.537250	0.038800	-1.218490	1
H	-2.136810	0.032190	0.458970	1
H	-0.575810	-2.050840	-0.569620	1
H	-0.489550	-1.574010	1.154460	1
H	1.833120	-1.225120	-0.142840	1
Es	0.947905	0.681446	-0.053975	99
Es	-0.698329	0.661899	0.006237	99
Es	-1.848538	0.020265	0.259541	99
Es	-1.440232	0.011080	-0.890156	99
Es	1.534583	-1.017083	-0.117611	99
Es	-0.453365	-1.454741	0.815960	99
Es	-0.402479	1.142133	0.419110	99
Es	1.207077	0.949419	-0.074979	99
Es	-1.239937	-0.012009	-0.165228	99
Es	-0.392364	1.105347	0.119340	99
Es	0.913147	0.106669	-0.357790	99
Es	0.929035	-0.606574	-0.059402	99
Es	-0.400304	-1.225614	0.122062	99
Es	-0.515550	-1.780019	-0.344495	99
Es	0.180210	0.881892	0.029343	99
Es	0.275241	-0.944593	0.021191	99
Es	0.979250	0.098708	0.221909	99
Es	-0.445525	1.324401	-0.092001	99
Es	-0.840912	-0.647147	-0.017061	99
