26
Properties=species:S:1:pos:R:3:Z:I:1 energy=-244.6721593042983 field_type=dipole dipole="0.000000 0.000000 0.000000" charge=0
O	-0.377080	-1.071010	-0.002180	8
C	-1.159400	0.037930	-0.002010	6
C	-0.369430	1.158260	0.000520	6
C	0.939560	0.646040	0.001850	6
N	0.955920	-0.688930	0.000270	7
H	-2.224530	-0.141760	-0.003810	1
H	-0.691150	2.187960	0.001270	1
H	1.879100	1.179640	0.003890	1
Es	-0.655401	-0.650350	-0.100783	99
Es	-1.868462	-0.078216	-0.003806	99
Es	-0.459914	-1.347203	-0.112759	99
Es	-0.419045	-0.942832	0.223899	99
Es	0.939580	0.646007	0.001850	99
Es	-0.578615	1.848901	0.000901	99
Es	0.168159	-0.880818	-0.019286	99
Es	0.303252	0.960370	-0.000344	99
Es	1.561877	1.011902	0.003063	99
Es	0.955435	-0.688494	0.000269	99
Es	-0.376995	-1.070554	-0.002184	99
Es	1.210204	-0.963362	-0.000192	99
Es	-0.369427	1.158270	0.000513	99
Es	0.923267	-0.114669	-0.278987	99
Es	-0.686005	0.660062	0.309975	99
Es	-0.690428	0.660034	-0.308785	99
Es	0.921153	-0.114642	0.282523	99
Es	-1.159317	0.037666	-0.002012	99
