29
Properties=species:S:1:pos:R:3:Z:I:1 energy=-192.80036129622647 field_type=dipole dipole="0.000000 0.000000 0.000000" charge=0
C	1.017450	0.035620	-0.105840	6
C	2.216140	0.009190	-0.046780	6
C	3.647140	-0.027240	0.029690	6
C	4.409400	-0.752320	-1.047650	6
C	4.448330	0.746830	-0.983810	6
H	-0.046540	0.057250	-0.157490	1
H	4.056540	-0.079470	1.034490	1
H	3.857350	-1.210620	-1.860770	1
H	5.298540	-1.298600	-0.755160	1
H	5.364930	1.218270	-0.648810	1
H	3.922570	1.301180	-1.753350	1
Es	5.010163	-1.118439	-0.842235	99
Es	1.017212	0.035628	-0.105859	99
Es	4.031990	-1.057734	-1.591545	99
Es	3.964771	0.512681	-0.386635	99
Es	1.595980	0.321990	0.121173	99
Es	0.322618	0.050093	-0.140404	99
Es	3.913000	-0.062207	0.700779	99
Es	5.067203	1.061900	-0.749534	99
Es	4.546125	0.000825	-1.165891	99
Es	3.647133	-0.027237	0.029519	99
Es	4.448262	0.746664	-0.983720	99
Es	2.909310	-0.007353	-0.012914	99
Es	4.088574	1.116888	-1.498878	99
Es	1.583497	-0.299425	0.078473	99
Es	4.409340	-0.752161	-1.047545	99
Es	2.216403	0.009185	-0.046766	99
Es	3.937786	-0.545342	-0.431761	99
Es	1.636346	0.046300	-0.437416	99
