35
Properties=species:S:1:pos:R:3:Z:I:1 energy=-248.22883262297367 field_type=dipole dipole="0.000000 0.000000 0.000000" charge=0
C	1.786210	-0.407210	0.630530	6
N	3.162170	0.041190	0.451460	7
C	3.194780	1.421150	-0.062680	6
C	4.651820	1.877730	-0.206960	6
O	5.332400	1.717190	1.035370	8
H	1.783880	-1.434580	1.008750	1
H	1.234060	-0.395370	-0.315250	1
H	1.258740	0.214230	1.361810	1
H	3.624920	-0.576010	-0.217230	1
H	2.689990	2.080550	0.653280	1
H	2.686650	1.494620	-1.030510	1
H	4.701360	2.931540	-0.496490	1
H	5.176250	1.284190	-0.963040	1
H	4.927460	0.922460	1.439930	1
Es	5.062243	1.762502	0.562410	99
Es	5.115234	1.296694	1.234594	99
Es	3.194805	1.421013	-0.062641	99
Es	5.332259	1.717078	1.035289	99
Es	3.346421	0.033435	0.765642	99
Es	5.625072	1.654949	0.969912	99
Es	2.845995	1.866807	0.425659	99
Es	3.425923	-0.324735	0.027467	99
Es	1.429888	0.023543	1.124173	99
Es	3.915918	1.645318	-0.142523	99
Es	3.161911	0.041217	0.450947	99
Es	5.246292	1.955281	1.207761	99
Es	1.786339	-0.407170	0.630511	99
Es	1.785039	-1.109582	0.884040	99
Es	5.001083	1.460851	-0.739046	99
Es	2.843230	1.472841	-0.734608	99
Es	1.403323	-0.394354	-0.023894	99
Es	4.678543	2.598507	-0.410146	99
Es	3.160648	0.629978	0.203410	99
Es	4.651875	1.877686	-0.206763	99
Es	2.558031	-0.146767	0.507240	99
