32
Properties=species:S:1:pos:R:3:Z:I:1 energy=-247.09696362180193 field_type=dipole dipole="0.000000 0.000000 0.000000" charge=0
C	0.857540	0.146370	0.107830	6
N	2.293200	0.133030	-0.019140	7
C	3.117560	1.217070	-0.113090	6
C	2.496210	2.584150	-0.015380	6
O	4.327900	1.056810	-0.248670	8
H	0.518640	-0.866420	0.337180	1
H	0.421640	0.477440	-0.838140	1
H	0.560700	0.828410	0.908160	1
H	2.771510	-0.755120	-0.118710	1
H	1.608550	2.655520	-0.648110	1
H	3.215660	3.331840	-0.360380	1
H	2.234830	2.794070	1.024590	1
Es	3.952787	1.113000	0.041359	99
Es	2.974617	3.080756	-0.243371	99
Es	2.478927	0.345724	0.238398	99
Es	1.678428	0.147669	0.022827	99
Es	2.521457	0.505506	-0.276859	99
Es	1.894515	2.618099	-0.437365	99
Es	3.899025	1.116788	-0.451399	99
Es	2.319253	2.706418	0.679768	99
Es	0.857732	0.146365	0.107818	99
Es	3.117419	1.216993	-0.113075	99
Es	0.552560	0.375109	-0.534997	99
Es	4.398803	0.746500	-0.258168	99
Es	4.327569	1.056864	-0.248636	99
Es	0.632167	-0.539252	0.261934	99
Es	2.496201	2.584086	-0.015373	99
Es	2.558936	-0.396642	-0.090481	99
Es	2.785417	1.898092	-0.067125	99
Es	4.486551	1.326228	-0.264084	99
Es	2.293198	0.133139	-0.019422	99
Es	0.654708	0.611368	0.650775	99
