35
Properties=species:S:1:pos:R:3:Z:I:1 energy=-248.22527863254572 field_type=dipole dipole="0.000000 0.000000 0.000000" charge=0
C	1.333580	-0.295470	-0.064900	6
O	2.714250	-0.025370	0.138700	8
C	3.014090	1.358450	-0.083750	6
C	4.520900	1.576040	0.092330	6
N	5.284070	0.854320	-0.931760	7
H	1.157800	-1.356190	0.132350	1
H	1.050550	-0.081030	-1.099800	1
H	0.721620	0.294610	0.623920	1
H	2.470040	1.964870	0.649100	1
H	2.699200	1.651630	-1.092410	1
H	4.829580	1.208560	1.077130	1
H	4.756800	2.642490	0.029740	1
H	4.937280	-0.108770	-0.944700	1
H	6.259630	0.799130	-0.644280	1
Es	2.714000	-0.025114	0.138619	99
Es	4.723724	1.330720	0.777921	99
Es	5.083472	0.276762	-0.920277	99
Es	2.794703	0.502997	0.046500	99
Es	0.909949	0.116395	0.404906	99
Es	1.333794	-0.295423	-0.064868	99
Es	2.182536	-0.095976	0.052977	99
Es	2.768844	-0.074850	0.436961	99
Es	2.636615	1.780388	0.421342	99
Es	2.794307	1.560836	-0.776295	99
Es	1.212204	-1.017112	0.069369	99
Es	4.674172	2.309445	0.051249	99
Es	2.865076	-0.179224	-0.082081	99
Es	5.284103	0.854081	-0.931241	99
Es	4.520926	1.575971	0.092212	99
Es	3.765466	1.463788	-0.000894	99
Es	5.869873	0.817829	-0.738109	99
Es	5.250658	1.006249	-1.253922	99
Es	4.958896	1.156309	-0.472186	99
Es	1.134644	-0.141248	-0.775731	99
Es	3.014076	1.358230	-0.083700	99
