29
Properties=species:S:1:pos:R:3:Z:I:1 energy=-245.8975556262355 field_type=dipole dipole="0.000000 0.000000 0.000000" charge=0
N	0.977200	-0.053110	0.197350	7
C	2.339230	0.045580	0.083470	6
C	3.054490	1.174050	0.061780	6
C	4.523470	1.117220	-0.053450	6
O	5.199350	2.137420	-0.100850	8
H	0.569800	-0.868610	-0.256410	1
H	0.465040	0.804950	0.002080	1
H	2.818920	-0.930710	0.020090	1
H	2.611050	2.158940	0.132350	1
H	4.974600	0.112100	-0.098260	1
Es	5.508222	2.084165	-0.126954	99
Es	2.745860	1.831657	0.107244	99
Es	2.774716	0.691143	-0.251566	99
Es	0.746162	-0.530913	-0.087302	99
Es	5.199158	2.137163	-0.100831	99
Es	4.821617	0.417181	-0.084188	99
Es	3.054526	1.174053	0.061796	99
Es	4.978496	1.766138	0.165522	99
Es	2.662379	-0.613313	0.037796	99
Es	3.774627	1.132924	0.011101	99
Es	1.552275	0.005572	0.066952	99
Es	0.679870	0.455514	0.064078	99
Es	0.977406	-0.053010	0.196828	99
Es	4.523432	1.117198	-0.053448	99
Es	5.019431	2.392113	-0.083864	99
Es	4.936899	1.770143	-0.333859	99
Es	2.803629	0.662689	0.380828	99
Es	1.048373	-0.094600	0.489689	99
Es	2.339020	0.045438	0.083490	99
