26
Properties=species:S:1:pos:R:3:Z:I:1 energy=-244.69786860780962 field_type=dipole dipole="0.000000 0.000000 0.000000" charge=0
N	1.027940	0.014560	0.000000	7
C	2.385570	-0.057320	-0.000000	6
O	2.996410	-1.115250	0.000000	8
C	3.085470	1.203140	-0.000000	6
C	3.668920	2.254220	-0.000000	6
H	0.536460	0.895860	-0.000000	1
H	0.507150	-0.850620	0.000000	1
H	4.197230	3.178750	-0.000000	1
Es	3.301410	-1.080173	0.000588	99
Es	3.481256	1.621109	0.318619	99
Es	2.794980	-0.745852	-0.248103	99
Es	3.062610	1.918008	-0.031246	99
Es	2.793115	-0.743006	0.247068	99
Es	2.789379	-1.350346	0.000279	99
Es	3.537198	1.602105	-0.286936	99
Es	2.733095	0.611897	-0.000344	99
Es	1.410670	0.008350	0.258580	99
Es	0.737146	0.532425	0.003576	99
Es	1.027993	0.014568	0.000029	99
Es	3.085338	1.202923	0.000009	99
Es	3.669028	2.254416	0.000010	99
Es	0.716692	-0.486032	0.003554	99
Es	2.385459	-0.057151	-0.000001	99
Es	2.996232	-1.114971	0.000003	99
Es	1.370449	0.010149	-0.265771	99
Es	4.010261	2.853491	0.000084	99
