29
Properties=species:S:1:pos:R:3:Z:I:1 energy=-245.89919737197962 field_type=dipole dipole="0.000000 0.000000 0.000000" charge=0
O	1.175690	-0.205350	0.291160	8
C	2.362770	-0.044850	0.156770	6
C	3.343980	1.119160	-0.064060	6
C	4.294630	0.012310	-0.555230	6
N	3.373030	-0.952220	0.055950	7
H	3.642890	1.627410	0.857230	1
H	3.032460	1.840500	-0.821220	1
H	4.365360	-0.105740	-1.640510	1
H	5.287750	0.006220	-0.100890	1
H	3.123150	-1.879800	-0.259210	1
Es	1.603436	-0.139797	0.495312	99
Es	1.175984	-0.205314	0.291123	99
Es	3.241399	-1.501186	-0.148210	99
Es	4.337208	-0.062722	-1.296539	99
Es	4.977018	0.007801	-0.250282	99
Es	2.911072	-0.616694	0.025941	99
Es	3.133061	1.601007	-0.573272	99
Es	2.795187	0.611513	0.070230	99
Es	3.880024	0.623506	-0.335282	99
Es	3.802681	-0.606980	-0.238038	99
Es	4.294479	0.012203	-0.555142	99
Es	3.370491	-0.881096	0.364995	99
Es	3.343985	1.119091	-0.064071	99
Es	2.362932	-0.044876	0.156772	99
Es	1.018583	0.054956	0.303512	99
Es	1.548317	-0.148498	-0.005922	99
Es	1.122253	-0.505835	0.300751	99
Es	3.544318	1.446339	0.553311	99
Es	3.372779	-0.952055	0.055465	99
