29
Properties=species:S:1:pos:R:3:Z:I:1 energy=-245.8261213510857 field_type=dipole dipole="0.000000 0.000000 0.000000" charge=0
O	0.899130	0.126870	-0.018930	8
N	2.273880	-0.112700	-0.134140	7
C	2.913290	0.977700	0.138660	6
C	4.387160	1.036900	0.100970	6
C	5.023280	2.177420	0.387510	6
H	0.517560	-0.742880	-0.241210	1
H	2.385980	1.909660	0.410990	1
H	4.912880	0.127460	-0.165180	1
H	4.494880	3.087350	0.653890	1
H	6.107810	2.221090	0.359810	1
Es	2.273628	-0.112138	-0.133978	99
Es	0.858163	0.188038	0.279339	99
Es	5.023326	2.177504	0.387531	99
Es	2.560789	0.449369	-0.292201	99
Es	0.899268	0.126554	-0.019034	99
Es	2.562808	1.604680	0.321758	99
Es	2.385740	-0.461931	-0.233039	99
Es	4.737415	0.426635	-0.077467	99
Es	4.690114	1.515417	0.552477	99
Es	2.581229	0.297629	0.266312	99
Es	4.666434	2.792037	0.567465	99
Es	4.387042	1.036835	0.100953	99
Es	4.667607	1.683424	-0.066295	99
Es	0.840537	0.326511	-0.243675	99
Es	0.699249	-0.340562	-0.137851	99
Es	2.913345	0.977701	0.138666	99
Es	3.644880	0.996631	0.116953	99
Es	5.754611	2.215135	0.371075	99
Es	1.500068	0.022659	-0.068910	99
