35
Properties=species:S:1:pos:R:3:Z:I:1 energy=-195.21434506339654 field_type=dipole dipole="0.000000 0.000000 0.000000" charge=0
C	0.927100	-0.119570	0.005790	6
C	2.417390	0.004830	0.001430	6
C	3.112300	1.158770	0.000170	6
C	2.483820	2.524740	0.004230	6
C	4.617840	1.158240	-0.004790	6
H	0.644420	-1.176990	-0.006030	1
H	0.491300	0.348600	-0.881450	1
H	0.499240	0.327180	0.907810	1
H	2.959820	-0.939200	-0.000920	1
H	1.390660	2.492660	0.004730	1
H	2.796270	3.085950	-0.882500	1
H	2.797220	3.080820	0.893850	1
H	5.032060	0.144840	-0.004030	1
H	4.999550	1.674590	0.881650	1
H	4.993530	1.670960	-0.895890	1
Es	2.786753	-0.643133	-0.000090	99
Es	3.869281	1.156563	-0.002279	99
Es	0.636090	0.204029	-0.592955	99
Es	4.617817	1.158248	-0.004790	99
Es	4.864969	1.510783	-0.609092	99
Es	2.483839	2.524711	0.004231	99
Es	0.736360	-0.840250	-0.002231	99
Es	2.760502	0.571342	0.333067	99
Es	3.112380	1.158909	0.000172	99
Es	2.417298	0.004740	0.001437	99
Es	4.895735	0.467182	-0.004287	99
Es	0.927134	-0.119570	0.005789	99
Es	1.667016	-0.050995	0.003596	99
Es	2.758432	0.571826	-0.331671	99
Es	2.788463	1.842590	0.002142	99
Es	1.742331	2.497797	0.004589	99
Es	2.702181	2.896938	-0.595881	99
Es	2.702909	2.893579	0.606129	99
Es	0.641546	0.189351	0.614652	99
Es	4.869088	1.513267	0.596423	99
