32
Properties=species:S:1:pos:R:3:Z:I:1 energy=-194.0302158217417 field_type=dipole dipole="0.000000 0.000000 0.000000" charge=0
C	0.867330	0.025970	-0.090920	6
C	2.356290	0.006220	-0.219770	6
C	3.165090	0.912610	0.348360	6
C	4.600510	0.873360	0.210080	6
C	5.411930	1.775340	0.774920	6
H	0.521480	-0.902940	0.372420	1
H	0.409120	0.108500	-1.081080	1
H	0.514760	0.863780	0.519330	1
H	2.771740	-0.803180	-0.815060	1
H	2.740710	1.719130	0.942340	1
H	5.034540	0.069860	-0.382530	1
H	5.034420	2.596380	1.375360	1
H	6.487300	1.706450	0.643840	1
Es	2.772102	0.656480	-0.195234	99
Es	3.165164	0.912669	0.348395	99
Es	0.642837	-0.602992	0.220254	99
Es	4.885280	0.323719	-0.194197	99
Es	2.635936	-0.546648	-0.626070	99
Es	0.634080	0.596886	0.324413	99
Es	3.883873	0.892247	0.278754	99
Es	4.975415	1.512212	0.233295	99
Es	0.867371	0.025964	-0.090927	99
Es	2.813203	0.286897	0.335980	99
Es	4.600437	0.873288	0.210038	99
Es	5.016157	1.146166	0.759389	99
Es	5.411996	1.775412	0.774966	99
Es	0.566914	0.080190	-0.761460	99
Es	5.157421	2.334097	1.183518	99
Es	2.882139	1.463646	0.753625	99
Es	6.143651	1.735598	0.690906	99
Es	1.611254	0.019527	-0.152946	99
Es	2.356188	0.006142	-0.219817	99
