29
Properties=species:S:1:pos:R:3:Z:I:1 energy=-192.81479524538298 field_type=dipole dipole="0.000000 0.000000 0.000000" charge=0
C	0.943130	-0.038520	0.013480	6
C	2.435250	-0.003190	0.023190	6
C	3.139020	1.137990	0.000000	6
C	4.545020	1.137990	0.000000	6
C	5.735180	1.137990	0.000000	6
H	0.595970	-1.073960	-0.056900	1
H	0.542780	0.505460	-0.848720	1
H	0.537680	0.390230	0.933750	1
H	2.951160	-0.960290	0.046700	1
H	2.630600	2.097660	-0.023130	1
H	6.800189	1.136360	0.000040	1
Es	4.544755	1.137995	-0.000003	99
Es	0.682197	0.254785	0.631671	99
Es	2.809056	1.785356	-0.015935	99
Es	3.139166	1.138080	0.000002	99
Es	5.735450	1.137986	-0.000001	99
Es	2.836291	0.589835	-0.310053	99
Es	2.435166	-0.003263	0.023191	99
Es	2.833238	0.605018	0.332095	99
Es	1.691075	-0.019671	0.018255	99
Es	0.709776	-0.741689	-0.033747	99
Es	0.943180	-0.038522	0.013480	99
Es	6.431412	1.136714	-0.000074	99
Es	5.136705	1.218099	0.343930	99
Es	5.142732	1.395659	-0.245523	99
Es	2.778255	-0.651918	0.039780	99
Es	3.863118	1.144818	0.000693	99
Es	0.683998	0.333561	-0.564842	99
Es	5.144661	0.792074	-0.098024	99
