32
Properties=species:S:1:pos:R:3:Z:I:1 energy=-194.004997943587 field_type=dipole dipole="0.000000 0.000000 0.000000" charge=0
C	0.993190	-0.031710	0.010600	6
C	2.520000	0.000000	0.000000	6
C	3.060090	-0.764150	-1.208410	6
C	3.002020	1.361170	0.000000	6
C	3.399300	2.483070	0.000000	6
H	0.595250	0.488270	0.890130	1
H	0.624320	-1.063160	0.036880	1
H	0.573710	0.454730	-0.878310	1
H	2.874920	-0.506160	0.906280	1
H	2.732170	-0.309910	-2.150210	1
H	2.716850	-1.803780	-1.196280	1
H	4.155640	-0.772660	-1.208810	1
H	3.754950	3.487660	-0.000160	1
Es	3.067938	1.981019	-0.332165	99
Es	3.004410	2.007968	0.289426	99
Es	2.764979	-0.326859	0.612088	99
Es	0.993233	-0.031714	0.010602	99
Es	2.770520	0.709322	-0.001093	99
Es	3.060073	-0.764132	-1.208372	99
Es	2.820451	-1.471536	-1.192278	99
Es	3.803992	-0.769331	-1.204246	99
Es	3.001935	1.360930	0.000001	99
Es	3.631872	3.140359	-0.000360	99
Es	1.766828	0.001592	0.001746	99
Es	0.751022	-0.738687	0.027535	99
Es	2.791970	-0.361582	-0.602596	99
Es	2.830989	-0.452278	-1.844203	99
Es	2.520013	0.000096	-0.000036	99
Es	3.541878	1.817326	0.039482	99
Es	3.399383	2.483322	-0.000006	99
Es	0.726985	0.320548	0.610131	99
Es	0.715612	0.297308	-0.597060	99
