35
Properties=species:S:1:pos:R:3:Z:I:1 energy=-195.21523734180903 field_type=dipole dipole="0.000000 0.000000 0.000000" charge=0
C	2.217980	-0.593650	1.417490	6
C	2.712630	-0.098500	0.067400	6
C	3.152550	1.335490	0.136840	6
C	4.405290	1.747250	-0.111760	6
C	4.842850	3.174500	-0.049020	6
H	1.890680	-1.635330	1.340920	1
H	1.369850	0.001500	1.772100	1
H	3.010200	-0.542070	2.171790	1
H	1.906100	-0.183380	-0.670060	1
H	3.529250	-0.744160	-0.276700	1
H	2.387460	2.064490	0.397070	1
H	5.171360	1.021470	-0.376650	1
H	4.023550	3.847330	0.222830	1
H	5.233100	3.487400	-1.022180	1
H	5.638340	3.287670	0.693710	1
Es	5.381542	3.244485	0.453151	99
Es	2.466284	-0.336604	0.744940	99
Es	2.161453	-0.150090	-0.433000	99
Es	5.106787	3.379305	-0.708764	99
Es	2.936509	0.621473	0.103637	99
Es	2.759906	-0.557138	1.929223	99
Es	2.217982	-0.593640	1.417461	99
Es	1.994007	-1.305335	1.362715	99
Es	3.703402	1.579504	-0.305776	99
Es	4.621192	2.464194	-0.078684	99
Es	3.152439	1.335440	0.136859	99
Es	2.624904	1.828329	0.317433	99
Es	3.275796	-0.536258	-0.165652	99
Es	1.638856	-0.182998	1.656272	99
Es	4.932612	1.255961	-0.293430	99
Es	4.842846	3.174466	-0.049023	99
Es	2.712625	-0.098469	0.067437	99
Es	4.405410	1.747316	-0.111776	99
Es	4.282091	3.627796	0.136206	99
Es	3.853838	1.502123	0.334511	99
