34
Properties=species:S:1:pos:R:3:Z:I:1 energy=-211.22086790684926 field_type=dipole dipole="0.000000 0.000000 0.000000" charge=0
C	-0.798530	-1.001080	-0.124290	6
C	-1.187600	0.421770	0.228430	6
C	0.021900	1.215800	-0.215640	6
N	1.139080	0.367220	0.191280	7
C	0.719470	-1.022260	-0.001980	6
H	-1.284570	-1.732500	0.528190	1
H	-1.090750	-1.219000	-1.158920	1
H	-1.333150	0.514500	1.311760	1
H	-2.107800	0.738410	-0.270590	1
H	0.020880	1.351620	-1.303470	1
H	0.068760	2.198650	0.261140	1
H	1.972760	0.575740	-0.355280	1
H	1.172500	-1.452370	-0.901490	1
H	1.036120	-1.622120	0.857060	1
Es	-1.187581	0.421757	0.228413	99
Es	1.635078	0.488578	-0.159787	99
Es	-0.798511	-1.001063	-0.124290	99
Es	-0.598945	0.841492	0.002649	99
Es	0.015316	1.308627	-0.975102	99
Es	1.138933	0.367131	0.190667	99
Es	1.198508	0.419834	0.533197	99
Es	-1.282793	0.486357	0.969539	99
Es	0.021988	1.215715	-0.215610	99
Es	0.960927	-0.233654	0.074792	99
Es	0.664450	0.735883	-0.016247	99
Es	0.937467	-1.441215	0.586499	99
Es	-1.013632	-0.298176	0.054355	99
Es	-1.129278	-1.503917	0.321266	99
Es	0.055392	1.893625	0.106296	99
Es	-0.040540	-1.027743	-0.060799	99
Es	0.719482	-1.022131	-0.001977	99
Es	-1.817516	0.640183	-0.114805	99
Es	-0.997513	-1.148208	-0.836261	99
Es	1.033907	-1.319934	-0.626953	99
