31
Properties=species:S:1:pos:R:3:Z:I:1 energy=-210.0329694773079 field_type=dipole dipole="0.000000 0.000000 0.000000" charge=0
C	-0.372170	1.181650	0.107500	6
N	-1.246790	-0.001670	-0.006720	7
C	-0.371480	-1.185130	0.093590	6
C	1.012740	-0.666730	-0.039770	6
C	1.012290	0.665950	-0.032120	6
H	-0.511050	1.659750	1.082850	1
H	-0.607850	1.908030	-0.677140	1
H	-1.647930	0.004080	-0.943630	1
H	-0.606520	-1.902340	-0.699210	1
H	-0.509580	-1.674380	1.063020	1
H	1.889600	-1.292490	-0.103730	1
H	1.888250	1.293520	-0.088790	1
Es	-0.856044	-0.514173	0.026196	99
Es	0.341705	-0.958404	0.020551	99
Es	-0.856285	0.510913	0.031315	99
Es	1.012735	-0.666853	-0.039762	99
Es	1.007206	0.001592	-0.370697	99
Es	1.601028	-1.102391	-0.082209	99
Es	-1.246340	-0.001669	-0.007131	99
Es	-0.532292	1.677240	-0.429918	99
Es	-0.453364	-1.520495	0.755358	99
Es	-1.506864	-0.002791	0.233230	99
Es	1.012285	0.666072	-0.032115	99
Es	-0.454505	1.509352	0.773292	99
Es	-0.371528	-1.185019	0.093567	99
Es	-0.531166	-1.674454	-0.449420	99
Es	1.600019	1.102710	-0.069560	99
Es	-1.466298	0.001409	-0.584500	99
Es	-0.372217	1.181539	0.107477	99
Es	0.341053	0.956369	0.031693	99
Es	1.060578	-0.002173	0.277753	99
