34
Properties=species:S:1:pos:R:3:Z:I:1 energy=-211.19470893874347 field_type=dipole dipole="0.000000 0.000000 0.000000" charge=0
C	1.039860	-0.007590	-0.070800	6
C	2.526210	0.046000	0.013750	6
N	3.337430	-0.641250	-0.990850	7
C	3.332910	0.819980	-1.000120	6
C	4.565130	1.548330	-0.588060	6
H	0.600520	0.734050	0.603560	1
H	0.678800	-0.996400	0.230230	1
H	0.674520	0.196820	-1.081900	1
H	2.888240	-0.025170	1.033040	1
H	2.756970	-1.011630	-1.745640	1
H	2.827690	1.297730	-1.831490	1
H	5.086610	1.050660	0.236450	1
H	4.308780	2.562000	-0.264550	1
H	5.257420	1.626190	-1.431540	1
Es	2.526318	0.045915	0.013537	99
Es	2.777525	-0.000344	0.708535	99
Es	2.976775	1.143870	-1.567853	99
Es	2.854633	0.631342	-0.398318	99
Es	4.382861	2.237936	-0.370814	99
Es	2.929994	-0.470397	-0.517631	99
Es	5.033218	1.602053	-1.164464	99
Es	0.798783	0.129668	-0.765023	99
Es	4.565112	1.548335	-0.588068	99
Es	3.332897	0.819747	-1.000073	99
Es	3.336940	-0.640881	-0.990956	99
Es	1.779449	0.016823	-0.044349	99
Es	1.039871	-0.007588	-0.070799	99
Es	3.634904	-0.815659	-0.891624	99
Es	2.970077	-0.846612	-1.442184	99
Es	3.957070	1.173549	-0.789960	99
Es	3.409934	-0.010571	-1.117239	99
Es	0.745850	0.496810	0.388114	99
Es	4.912575	1.208795	-0.027580	99
Es	0.797824	-0.681016	0.133666	99
