35
Properties=species:S:1:pos:R:3:Z:I:1 energy=-195.19680266262333 field_type=dipole dipole="0.000000 0.000000 0.000000" charge=0
C	0.968550	-0.010700	0.013230	6
C	2.482920	0.017310	0.020920	6
C	3.152800	1.050480	0.962350	6
C	4.242060	-0.008840	1.228730	6
C	3.193050	-1.077930	0.857450	6
H	0.602100	-0.870470	-0.558020	1
H	0.568830	0.896520	-0.452000	1
H	0.559450	-0.079220	1.026400	1
H	2.878160	0.075690	-1.003370	1
H	2.564630	1.306320	1.851540	1
H	3.497200	1.972660	0.487000	1
H	5.086610	0.041240	0.531550	1
H	4.624840	-0.052040	2.251460	1
H	3.571070	-1.934960	0.294740	1
H	2.616940	-1.441390	1.716350	1
Es	0.968549	-0.010700	0.013222	99
Es	0.695151	-0.057493	0.709209	99
Es	4.811833	0.025787	0.743140	99
Es	4.242001	-0.008839	1.228712	99
Es	2.760420	0.057266	-0.677581	99
Es	2.786484	-0.599502	0.404087	99
Es	3.193068	-1.077882	0.857446	99
Es	2.745438	1.211937	1.570523	99
Es	3.450601	-1.673522	0.471536	99
Es	2.482920	0.017310	0.020970	99
Es	4.510949	-0.038565	1.933185	99
Es	2.763691	0.604104	0.463611	99
Es	0.697177	0.610959	-0.304804	99
Es	1.713137	0.003126	0.014903	99
Es	3.152820	1.050432	0.962340	99
Es	3.386999	1.690617	0.637107	99
Es	0.719884	-0.599911	-0.377315	99
Es	2.793301	-1.313314	1.446180	99
Es	3.751628	0.587153	1.136508	99
Es	3.774518	-0.611314	1.077343	99
