28
Properties=species:S:1:pos:R:3:Z:I:1 energy=-208.8740527051552 field_type=dipole dipole="0.000000 0.000000 0.000000" charge=0
C	0.878810	-0.137700	-0.128360	6
C	2.180200	0.057300	0.125330	6
C	2.873790	1.389780	0.049520	6
C	3.483470	1.736860	1.342440	6
N	3.976120	2.018190	2.355710	7
H	0.442800	-1.130450	-0.056160	1
H	0.216380	0.676480	-0.407200	1
H	2.793840	-0.800380	0.398580	1
H	2.174950	2.178510	-0.251790	1
H	3.650200	1.337560	-0.722010	1
Es	2.180339	0.057393	0.125345	99
Es	0.430057	0.413177	-0.317253	99
Es	3.483308	1.736769	1.342115	99
Es	0.580803	-0.804066	-0.082783	99
Es	2.414018	1.915969	-0.130919	99
Es	4.130989	2.106658	2.676148	99
Es	3.194756	1.568545	0.734804	99
Es	2.605939	-0.510968	0.310286	99
Es	1.460200	0.016590	0.309553	99
Es	3.975929	2.018080	2.355317	99
Es	2.873852	1.389781	0.049685	99
Es	3.395665	1.354061	-0.440210	99
Es	1.601397	-0.083163	-0.321706	99
Es	0.878723	-0.137707	-0.128382	99
Es	4.014498	1.752465	1.807492	99
Es	3.705430	2.188073	1.832437	99
Es	3.535728	1.727170	2.044711	99
Es	2.537122	0.743190	0.106483	99
