34
Properties=species:S:1:pos:R:3:Z:I:1 energy=-211.21250151920637 field_type=dipole dipole="0.000000 0.000000 0.000000" charge=0
C	0.888110	0.009150	0.019180	6
C	2.378640	-0.084230	-0.012160	6
C	3.195750	0.982190	0.013020	6
C	4.686880	0.904400	-0.013350	6
N	5.188010	1.644130	-1.160700	7
H	0.500210	-0.522070	0.893730	1
H	0.467290	-0.452980	-0.879060	1
H	0.538210	1.045220	0.066050	1
H	2.797390	-1.086440	-0.060470	1
H	2.773130	1.983580	0.065030	1
H	5.036980	-0.132550	-0.061390	1
H	5.085460	1.346560	0.905690	1
H	4.847460	1.195720	-2.010270	1
H	6.202579	1.564090	-1.188120	1
Es	2.788516	0.462329	-0.333961	99
Es	5.188165	1.643586	-1.160710	99
Es	4.686890	0.904478	-0.013461	99
Es	4.920224	0.181420	-0.041499	99
Es	4.988981	1.352707	-1.666625	99
Es	4.978426	1.303316	-0.669107	99
Es	0.656102	0.714495	0.050993	99
Es	1.632378	-0.033653	0.004051	99
Es	0.633066	-0.352906	0.610663	99
Es	2.912768	1.663596	0.048606	99
Es	0.888147	0.009139	0.019179	99
Es	3.195830	0.982257	0.013023	99
Es	5.087867	1.983755	-1.151151	99
Es	2.378546	-0.084321	-0.012158	99
Es	4.955844	1.206836	0.612870	99
Es	2.658799	-0.771194	-0.045540	99
Es	3.937097	0.935702	-0.001084	99
Es	5.802405	1.574599	-1.173934	99
Es	2.800118	0.436026	0.328043	99
Es	0.610727	-0.306219	-0.588996	99
