28
Properties=species:S:1:pos:R:3:Z:I:1 energy=-208.87846553731512 field_type=dipole dipole="0.000000 0.000000 0.000000" charge=0
C	0.926950	-0.011840	0.010520	6
C	2.419930	0.005480	0.018180	6
C	3.139020	1.137990	0.000000	6
C	4.545020	1.137990	0.000000	6
N	5.696030	1.137990	0.000000	7
H	0.566050	-1.045400	-0.043280	1
H	0.531610	0.523530	-0.858880	1
H	0.526920	0.434880	0.925820	1
H	2.920990	-0.961110	0.036350	1
H	2.646020	2.104020	-0.017810	1
Es	5.695592	1.137990	0.000003	99
Es	0.687939	-0.710886	-0.025604	99
Es	6.065553	1.137531	0.000110	99
Es	2.752907	-0.643740	0.030919	99
Es	2.846168	0.612163	-0.311682	99
Es	2.843696	0.623578	0.328529	99
Es	3.875083	1.141102	0.000597	99
Es	2.825117	1.785305	-0.012177	99
Es	0.675126	0.292629	0.622537	99
Es	5.166916	1.137719	-0.305691	99
Es	4.544656	1.137971	0.000006	99
Es	3.139203	1.138064	0.000004	99
Es	1.681634	0.000369	0.014271	99
Es	5.166742	1.402925	0.156442	99
Es	2.419863	0.005421	0.018182	99
Es	0.927020	-0.011841	0.010521	99
Es	0.676591	0.353269	-0.570229	99
Es	5.165751	0.866371	0.149058	99
