31
Properties=species:S:1:pos:R:3:Z:I:1 energy=-210.07047842207754 field_type=dipole dipole="0.000000 0.000000 0.000000" charge=0
C	0.993260	-0.029940	0.010760	6
C	2.520000	0.000000	0.000000	6
C	3.059850	-0.762120	-1.208950	6
C	3.002020	1.361170	0.000000	6
N	3.386230	2.446160	0.000000	7
H	0.596440	0.489730	0.890760	1
H	0.623380	-1.060860	0.036040	1
H	0.574530	0.458010	-0.877500	1
H	2.875360	-0.505970	0.906020	1
H	2.732020	-0.306670	-2.150500	1
H	2.716850	-1.802100	-1.198580	1
H	4.155640	-0.770530	-1.209700	1
Es	2.520029	0.000139	-0.000034	99
Es	2.791859	-0.351991	-0.597430	99
Es	3.800748	-0.765471	-1.202878	99
Es	2.830825	-0.448587	-1.840099	99
Es	0.720000	0.299456	-0.594411	99
Es	2.775540	0.723101	-0.000840	99
Es	3.001886	1.360861	-0.000019	99
Es	0.731469	0.321550	0.608401	99
Es	3.059825	-0.762089	-1.208894	99
Es	3.509270	2.794503	-0.000391	99
Es	1.775487	0.008213	0.002463	99
Es	3.434059	1.875867	0.197970	99
Es	3.386083	2.445746	-0.000001	99
Es	2.938285	2.052559	0.103822	99
Es	2.766129	-0.317864	0.607980	99
Es	0.755699	-0.733098	0.026983	99
Es	2.819822	-1.464070	-1.190762	99
Es	3.262872	1.935734	-0.304509	99
Es	0.993329	-0.029940	0.010761	99
