31
Properties=species:S:1:pos:R:3:Z:I:1 energy=-210.0073917609266 field_type=dipole dipole="0.000000 0.000000 0.000000" charge=0
C	1.000000	0.000000	0.000000	6
C	2.444000	0.000000	0.000000	6
C	3.634160	0.000000	0.000000	6
C	5.078160	0.000000	0.000000	6
N	5.579760	1.366420	0.018250	7
H	0.605990	1.020880	0.011670	1
H	0.605920	-0.520510	0.878260	1
H	0.605930	-0.500300	-0.889930	1
H	5.460000	-0.514040	-0.888520	1
H	5.462120	-0.533340	0.875490	1
H	5.214180	1.859620	-0.794500	1
H	6.591670	1.350040	-0.084670	1
Es	3.045605	0.208267	-0.302061	99
Es	0.752126	-0.348885	0.588153	99
Es	4.330361	-0.000157	-0.000752	99
Es	1.000107	-0.000001	0.000002	99
Es	6.191711	1.338932	-0.062348	99
Es	1.743070	-0.000055	-0.000418	99
Es	0.751579	-0.335509	-0.596831	99
Es	3.037479	0.152905	0.325636	99
Es	5.325371	-0.360932	0.590616	99
Es	5.579890	1.366160	0.017824	99
Es	5.078090	0.000134	-0.000003	99
Es	0.752699	0.683487	0.007442	99
Es	3.049860	-0.362324	-0.033922	99
Es	3.634418	-0.000010	0.000002	99
Es	5.320945	-0.358201	-0.607160	99
Es	2.443716	0.000002	-0.000007	99
Es	5.360716	0.761954	-0.010880	99
Es	5.367613	1.645211	-0.486817	99
Es	5.489967	1.533058	0.313237	99
