37
Properties=species:S:1:pos:R:3:Z:I:1 energy=-212.400750253163 field_type=dipole dipole="0.000000 0.000000 0.000000" charge=0
C	0.970200	-0.079790	0.060600	6
C	2.489240	0.015520	0.088870	6
C	3.009650	1.459820	0.030250	6
C	2.592630	2.292150	1.242500	6
N	4.472850	1.427120	-0.057660	7
H	0.661290	-1.128780	0.002280	1
H	0.558790	0.442670	-0.809330	1
H	0.523340	0.345140	0.964580	1
H	2.880490	-0.545400	-0.769350	1
H	2.859860	-0.487950	0.990150	1
H	2.628940	1.942190	-0.878130	1
H	2.909190	1.822240	2.179600	1
H	1.506970	2.422300	1.276920	1
H	3.034500	3.293940	1.200870	1
H	4.858910	1.000910	0.784470	1
H	4.835960	2.379480	-0.082810	1
Es	0.761459	-0.795985	0.020559	99
Es	0.666731	0.213797	0.678387	99
Es	2.744848	1.793370	-0.592049	99
Es	2.754159	-0.363684	-0.497683	99
Es	1.850004	2.379149	1.266442	99
Es	1.722577	-0.020999	0.080225	99
Es	2.900500	2.975273	1.208391	99
Es	2.813759	1.964638	1.880298	99
Es	2.746827	-0.321860	0.714018	99
Es	4.585068	1.246448	-0.343092	99
Es	2.786798	1.879221	0.653126	99
Es	2.742003	0.739892	0.069747	99
Es	0.692509	0.280738	-0.534342	99
Es	0.970221	-0.079789	0.060600	99
Es	2.592622	2.292155	1.242508	99
Es	4.690370	1.183079	0.468740	99
Es	3.009781	1.459814	0.030293	99
Es	4.472680	1.427421	-0.057175	99
Es	2.489196	0.015547	0.088884	99
Es	4.679954	2.011865	-0.054222	99
Es	3.845708	1.454555	0.002831	99
