31
Properties=species:S:1:pos:R:3:Z:I:1 energy=-210.06969608966816 field_type=dipole dipole="0.000000 0.000000 0.000000" charge=0
C	0.960290	-0.046560	-0.004030	6
C	2.480370	-0.011390	-0.002790	6
C	3.007940	1.421820	0.008120	6
C	4.475740	1.444300	0.009160	6
N	5.637400	1.464130	0.009990	7
H	0.605150	-1.081810	-0.011890	1
H	0.556950	0.457600	-0.888040	1
H	0.555810	0.444530	0.886790	1
H	2.853680	-0.542830	-0.886960	1
H	2.852550	-0.555810	0.873910	1
H	2.634030	1.949300	0.893340	1
H	2.635080	1.962330	-0.869660	1
Es	2.734621	-0.372758	0.596816	99
Es	2.779212	1.781262	-0.579752	99
Es	0.723727	-0.749382	-0.009370	99
Es	4.475383	1.444303	0.009156	99
Es	3.008116	1.421810	0.008120	99
Es	0.691235	0.301493	-0.607603	99
Es	5.114685	1.198165	-0.165469	99
Es	2.773605	0.727905	0.002873	99
Es	0.960327	-0.046554	-0.004030	99
Es	3.789270	1.435648	0.008604	99
Es	5.108051	1.733178	-0.123147	99
Es	2.480362	-0.011300	-0.002790	99
Es	2.735371	-0.363900	-0.607330	99
Es	2.778492	1.772565	0.600892	99
Es	1.721542	-0.015743	-0.003282	99
Es	0.690416	0.292576	0.604247	99
Es	5.111897	1.429928	0.317859	99
Es	5.636952	1.464120	0.009990	99
Es	6.004554	1.469547	0.009932	99
