31
Properties=species:S:1:pos:R:3:Z:I:1 energy=-209.99963608788102 field_type=dipole dipole="0.000000 0.000000 0.000000" charge=0
C	0.992360	-0.041010	-0.013300	6
C	2.520000	0.000000	0.000000	6
N	3.052150	-0.704450	-1.163190	7
C	3.002020	1.361170	0.000000	6
C	3.399300	2.483070	0.000000	6
H	0.582890	0.470910	0.864140	1
H	0.627420	-1.073170	0.002990	1
H	0.581130	0.450200	-0.902340	1
H	2.874050	-0.514520	0.900340	1
H	2.745330	-0.225720	-2.008670	1
H	2.652040	-1.639060	-1.204770	1
H	3.763430	3.484260	-0.003080	1
Es	2.520045	0.000055	-0.000129	99
Es	0.716639	0.305449	0.585150	99
Es	2.982525	2.005989	0.277738	99
Es	3.001932	1.360927	0.000005	99
Es	2.799631	-0.389183	-0.661032	99
Es	2.759875	-0.334134	0.608938	99
Es	0.722366	0.291057	-0.623010	99
Es	2.842275	-0.415146	-1.663683	99
Es	0.992381	-0.041014	-0.013295	99
Es	0.755275	-0.750496	-0.004326	99
Es	2.769056	0.709556	-0.001935	99
Es	3.051599	-0.704407	-1.163195	99
Es	3.535117	1.820509	0.059441	99
Es	1.755674	-0.000111	-0.004077	99
Es	2.785585	-1.260585	-1.180137	99
Es	3.635602	3.137949	-0.001831	99
Es	3.402746	-0.723743	-1.155466	99
Es	3.399383	2.483332	-0.000004	99
Es	3.079315	1.969721	-0.339647	99
