34
Properties=species:S:1:pos:R:3:Z:I:1 energy=-211.17805162430506 field_type=dipole dipole="0.000000 0.000000 0.000000" charge=0
C	1.068100	-0.003810	0.067900	6
N	2.522880	0.030370	-0.020450	7
C	3.082210	1.029950	0.926380	6
C	4.173990	-0.004650	1.261490	6
C	3.124520	-1.041830	0.814540	6
H	0.681100	-0.855040	-0.502950	1
H	0.646070	0.904250	-0.376270	1
H	0.688600	-0.085030	1.093940	1
H	2.446860	1.290240	1.782870	1
H	3.441370	1.951630	0.459450	1
H	5.056330	0.048160	0.613070	1
H	4.491310	-0.054300	2.305450	1
H	3.520360	-1.892530	0.252520	1
H	2.503550	-1.418200	1.637510	1
Es	3.387971	-1.634030	0.429300	99
Es	4.395340	-0.038817	1.980628	99
Es	2.733225	-0.480292	0.330851	99
Es	2.713206	0.508035	0.384480	99
Es	2.660964	0.050782	-0.343098	99
Es	2.687571	-1.287591	1.381444	99
Es	0.803464	-0.590259	-0.317467	99
Es	3.705878	-0.595370	1.078946	99
Es	4.173929	-0.004653	1.261480	99
Es	4.768602	0.031566	0.814849	99
Es	3.124489	-1.041712	0.814484	99
Es	2.636133	1.195424	1.515046	99
Es	0.779874	0.620812	-0.230719	99
Es	3.681774	0.582194	1.142615	99
Es	1.878967	0.014318	0.034893	99
Es	0.815076	-0.059983	0.783611	99
Es	3.320102	1.670446	0.607340	99
Es	3.082183	1.029838	0.926310	99
Es	2.522688	0.030341	-0.019967	99
Es	1.068201	-0.003807	0.067890	99
