37
Properties=species:S:1:pos:R:3:Z:I:1 energy=-212.39231886926632 field_type=dipole dipole="0.000000 0.000000 0.000000" charge=0
C	0.980400	-0.043850	0.028040	6
N	2.427110	0.053340	0.177870	7
C	2.921230	1.433650	0.071720	6
C	2.527310	2.279250	1.284630	6
C	4.447500	1.392260	-0.051780	6
H	0.688620	-1.098520	0.039800	1
H	0.643840	0.384660	-0.920780	1
H	0.451880	0.442200	0.852910	1
H	2.865080	-0.515270	-0.547150	1
H	2.526450	1.901660	-0.839610	1
H	2.862350	1.817190	2.219190	1
H	1.444310	2.421350	1.343410	1
H	2.980390	3.274620	1.222820	1
H	4.909230	0.930890	0.827820	1
H	4.853870	2.404100	-0.153670	1
H	4.755940	0.823390	-0.935350	1
Es	2.838804	2.957121	1.234322	99
Es	0.745124	0.258888	-0.628786	99
Es	2.620054	0.656044	0.106474	99
Es	0.782261	-0.764699	0.031051	99
Es	2.643263	1.763311	-0.560848	99
Es	2.681330	-0.274632	-0.283417	99
Es	4.652450	0.998582	-0.658787	99
Es	1.786804	2.372996	1.321676	99
Es	4.447490	1.392265	-0.051794	99
Es	3.693774	1.410498	0.011029	99
Es	2.921220	1.433533	0.071770	99
Es	4.720509	2.085381	-0.122597	99
Es	0.622776	0.295447	0.588064	99
Es	1.792639	0.030555	0.089787	99
Es	2.522683	-0.073886	0.492223	99
Es	2.757958	1.963309	1.916586	99
Es	2.714979	1.855670	0.686303	99
Es	0.980529	-0.043843	0.028051	99
Es	4.757753	1.079498	0.547489	99
Es	2.527308	2.279252	1.284607	99
Es	2.426924	0.053575	0.177351	99
