34
Properties=species:S:1:pos:R:3:Z:I:1 energy=-211.19981110236915 field_type=dipole dipole="0.000000 0.000000 0.000000" charge=0
C	1.119890	-0.164880	0.003450	6
N	2.563570	-0.065480	-0.156590	7
C	3.023110	1.296170	0.096170	6
C	4.512040	1.345160	-0.058720	6
C	5.163150	2.135020	-0.921980	6
H	0.801790	-1.194300	-0.189910	1
H	0.591100	0.487690	-0.698890	1
H	0.815770	0.086840	1.024810	1
H	2.811520	-0.317610	-1.112990	1
H	2.774390	1.597570	1.120630	1
H	2.537180	2.001280	-0.590000	1
H	5.084920	0.689220	0.593490	1
H	4.636800	2.808670	-1.590800	1
H	6.247650	2.118580	-0.976460	1
Es	2.725744	-0.284673	0.068295	99
Es	4.893175	0.899169	0.386150	99
Es	5.898963	2.130368	-0.965109	99
Es	4.825867	1.512315	-0.729780	99
Es	4.855709	1.984000	-0.276930	99
Es	2.563286	-0.065076	-0.156968	99
Es	0.901352	-0.866408	-0.133221	99
Es	3.773062	1.326162	0.011453	99
Es	4.809034	2.594488	-1.378684	99
Es	1.927700	-0.085367	-0.103485	99
Es	2.854368	1.497923	0.792809	99
Es	2.748165	0.542043	-0.064071	99
Es	3.023122	1.296048	0.096147	99
Es	1.120010	-0.164871	0.003435	99
Es	2.689784	1.787893	-0.379847	99
Es	4.511974	1.345114	-0.058653	99
Es	2.697725	-0.197414	-0.744661	99
Es	5.163200	2.135084	-0.922050	99
Es	0.916675	0.014878	0.700100	99
Es	0.752462	0.292124	-0.480567	99
