30
Properties=species:S:1:pos:R:3:Z:I:1 energy=-226.0516279828834 field_type=dipole dipole="0.000000 0.000000 0.000000" charge=0
C	0.969190	-0.024680	-0.009900	6
N	2.424410	0.014390	0.013490	7
C	2.915780	1.400870	0.029760	6
C	4.393150	1.474720	0.005520	6
N	5.550840	1.545730	-0.037360	7
H	0.632510	-1.065990	-0.011780	1
H	0.568430	0.460190	-0.906000	1
H	0.545830	0.456470	0.877680	1
H	2.790420	-0.461420	-0.812180	1
H	2.554650	1.907380	0.932410	1
H	2.524130	1.946050	-0.837330	1
Es	4.997300	1.811681	-0.099685	99
Es	0.969333	-0.024669	-0.009900	99
Es	3.703853	1.431489	0.017533	99
Es	2.631882	-0.249354	-0.500813	99
Es	0.693778	0.317319	-0.627607	99
Es	5.550395	1.545705	-0.037345	99
Es	5.916668	1.568416	-0.051715	99
Es	2.646119	0.641627	-0.004136	99
Es	5.025588	1.293442	-0.236782	99
Es	4.392782	1.474699	0.005536	99
Es	1.794295	0.025868	-0.020403	99
Es	0.744686	-0.730192	-0.016174	99
Es	2.671851	1.774944	-0.556929	99
Es	0.688407	0.312206	0.592418	99
Es	2.424190	0.014748	0.012945	99
Es	5.044725	1.436349	0.280737	99
Es	2.541499	-0.144700	0.299365	99
Es	2.690250	1.739062	0.631411	99
Es	2.915945	1.400741	0.029753	99
