28
Properties=species:S:1:pos:R:3:Z:I:1 energy=-208.8645568608652 field_type=dipole dipole="0.000000 0.000000 0.000000" charge=0
N	0.994420	0.072590	-0.186950	7
C	2.150040	0.030920	-0.100140	6
C	3.581370	-0.020630	0.005730	6
C	4.374590	-0.752930	-1.048510	6
C	4.423860	0.746350	-0.983610	6
H	3.957200	-0.077010	1.022910	1
H	3.846550	-1.207110	-1.880500	1
H	5.250970	-1.305340	-0.730320	1
H	5.333650	1.210800	-0.621590	1
H	3.929110	1.304250	-1.771800	1
Es	1.525354	0.357565	-0.200731	99
Es	0.628166	0.084857	-0.214265	99
Es	1.502096	-0.053658	0.140698	99
Es	3.871612	-0.536344	-0.440552	99
Es	1.531906	-0.142023	-0.387526	99
Es	4.518845	-0.001042	-1.159299	99
Es	4.012616	-1.052852	-1.601385	99
Es	4.961336	-1.120966	-0.823188	99
Es	3.817860	-0.057631	0.680406	99
Es	4.423764	0.746185	-0.983501	99
Es	0.994872	0.072577	-0.186919	99
Es	2.830148	0.006876	-0.055040	99
Es	4.374507	-0.752768	-1.048389	99
Es	3.905929	0.511604	-0.395125	99
Es	5.032835	1.054516	-0.729099	99
Es	4.083922	1.115799	-1.507542	99
Es	2.150396	0.030907	-0.100121	99
Es	3.581320	-0.020621	0.005556	99
