34
Properties=species:S:1:pos:R:3:Z:I:1 energy=-211.20917005854253 field_type=dipole dipole="0.000000 0.000000 0.000000" charge=0
N	0.938590	-0.059810	-0.180850	7
C	2.382440	-0.186500	0.011460	6
C	3.071270	1.181600	-0.047360	6
C	4.555630	1.062240	0.162470	6
C	5.475060	1.423750	-0.741430	6
H	0.518260	-0.988490	-0.179070	1
H	0.751770	0.334190	-1.102370	1
H	2.790100	-0.849730	-0.760240	1
H	2.567030	-0.659680	0.982740	1
H	2.663930	1.837220	0.732410	1
H	2.857610	1.662720	-1.010200	1
H	4.884860	0.668420	1.122160	1
H	5.197010	1.831510	-1.708340	1
H	6.534660	1.321760	-0.527100	1
Es	4.769099	0.790397	0.817756	99
Es	0.938809	-0.060116	-0.181240	99
Es	2.511096	-0.509764	0.678745	99
Es	0.699684	-0.629353	-0.194828	99
Es	4.555529	1.062212	0.162544	99
Es	0.791496	0.143563	0.069192	99
Es	5.030375	1.546011	-0.175227	99
Es	5.475136	1.423776	-0.741506	99
Es	2.736805	0.502296	-0.017852	99
Es	2.674473	-0.641364	-0.522750	99
Es	2.382309	-0.186442	0.011442	99
Es	2.803903	1.620726	0.483516	99
Es	6.196686	1.357433	-0.603485	99
Es	3.818680	1.115521	0.053107	99
Es	0.841754	0.163936	-0.749812	99
Es	3.071315	1.181561	-0.047357	99
Es	2.927278	1.504188	-0.710725	99
Es	1.565088	-0.125797	-0.118673	99
Es	5.022373	0.943009	-0.426515	99
Es	5.289825	1.701070	-1.400261	99
