31
Properties=species:S:1:pos:R:3:Z:I:1 energy=-210.0020467460673 field_type=dipole dipole="0.000000 0.000000 0.000000" charge=0
N	0.959510	-0.037900	0.002810	7
C	2.422780	-0.008290	0.005920	6
C	2.959580	1.426590	0.012580	6
C	4.431690	1.443700	-0.013280	6
C	5.631640	1.462940	-0.033960	6
H	0.645830	-1.008020	-0.015010	1
H	0.610990	0.386990	-0.856080	1
H	2.792940	-0.548250	-0.873730	1
H	2.784380	-0.546220	0.890040	1
H	2.602840	1.953910	0.905460	1
H	2.576150	1.972570	-0.857890	1
H	6.697540	1.482870	-0.050290	1
Es	2.959720	1.426564	0.012562	99
Es	1.593664	-0.030744	-0.018114	99
Es	5.037740	1.810378	-0.003310	99
Es	2.708413	0.724475	0.006992	99
Es	2.668730	-0.372081	0.610422	99
Es	2.686790	-0.372892	-0.603402	99
Es	0.826396	0.132298	0.283460	99
Es	2.737808	1.777072	0.610008	99
Es	2.422644	-0.008218	0.005916	99
Es	5.043684	1.289571	-0.346438	99
Es	5.052868	1.253973	0.277231	99
Es	0.785387	-0.628364	-0.024708	99
Es	0.765728	0.207661	-0.530852	99
Es	5.631885	1.462937	-0.033962	99
Es	0.959737	-0.038156	0.002352	99
Es	2.713888	1.788942	-0.577313	99
Es	6.327512	1.475444	-0.044840	99
Es	3.727398	1.431394	-0.002694	99
Es	4.431412	1.443693	-0.013273	99
