30
Properties=species:S:1:pos:R:3:Z:I:1 energy=-229.8732684719874 field_type=dipole dipole="0.000000 0.000000 0.000000" charge=0
C	-1.211320	0.015930	-0.153330	6
C	-0.373420	-1.237490	0.086550	6
C	0.997610	-0.694080	-0.021250	6
C	0.921200	0.627840	-0.089480	6
O	-0.345620	1.169090	-0.061570	8
H	-1.658590	0.007200	-1.154140	1
H	-2.017240	0.113580	0.581080	1
H	-0.586130	-2.010010	-0.657450	1
H	-0.549650	-1.652050	1.084420	1
H	1.907570	-1.274070	-0.005930	1
H	1.721420	1.348620	-0.134180	1
Es	-0.657531	0.726188	-0.094623	99
Es	1.460301	1.118786	-0.121098	99
Es	1.003688	-0.053119	0.266438	99
Es	0.982078	-0.086414	-0.395265	99
Es	0.997588	-0.694188	-0.021252	99
Es	-0.492271	-1.516763	0.766049	99
Es	-1.515777	0.004651	-0.841827	99
Es	-0.520180	-1.759555	-0.419654	99
Es	-1.762760	0.081985	0.349417	99
Es	-0.349483	1.261200	0.215365	99
Es	-0.373414	-1.237446	0.086541	99
Es	-0.803733	-0.620023	-0.028951	99
Es	0.137002	0.947652	-0.086946	99
Es	-0.375574	1.341666	-0.305793	99
Es	-1.211150	0.016093	-0.153304	99
Es	-0.345485	1.168727	-0.061584	99
Es	0.920985	0.628083	-0.089489	99
Es	0.326852	-1.004650	0.027266	99
Es	1.607014	-1.090951	-0.011324	99
