27
Properties=species:S:1:pos:R:3:Z:I:1 energy=-228.70709881397926 field_type=dipole dipole="0.000000 0.000000 0.000000" charge=0
O	-0.356660	-1.084960	-0.004270	8
C	-1.138610	0.025200	-0.002180	6
C	-0.361770	1.159620	0.001080	6
C	0.983220	0.717060	0.000980	6
C	0.932560	-0.658210	-0.002330	6
H	-2.204650	-0.154330	-0.003360	1
H	-0.721390	2.179360	0.003260	1
H	1.878800	1.321310	0.003060	1
H	1.682380	-1.436310	-0.003650	1
Es	-1.138515	0.024915	-0.002179	99
Es	0.952357	0.062097	-0.321010	99
Es	1.437280	-1.179825	-0.002738	99
Es	-0.598515	1.847377	0.002636	99
Es	-0.356548	-1.084547	-0.004118	99
Es	-0.324189	-0.988451	-0.224726	99
Es	0.329928	0.996536	0.002565	99
Es	-0.730377	0.613525	0.317812	99
Es	-0.361763	1.159650	0.001065	99
Es	0.983232	0.717086	0.000985	99
Es	-0.642425	-0.667654	0.052608	99
Es	-1.854826	-0.093863	-0.002550	99
Es	0.954531	0.058369	0.317670	99
Es	0.932313	-0.658382	-0.002328	99
Es	1.582453	1.128397	0.002530	99
Es	0.121034	-0.919456	0.053438	99
Es	-0.447067	-1.359041	0.104280	99
Es	-0.726342	0.615236	-0.320911	99
