38
Properties=species:S:1:pos:R:3:Z:I:1 energy=-196.40400484910379 field_type=dipole dipole="0.000000 0.000000 0.000000" charge=0
C	0.988680	-0.011000	-0.005440	6
C	2.523680	-0.007510	0.010670	6
C	3.023750	-0.719060	1.275630	6
C	3.050110	-0.740850	-1.230920	6
C	3.032180	1.440900	0.003430	6
H	0.600630	0.492600	-0.898180	1
H	0.582010	0.505400	0.871570	1
H	0.594700	-1.033730	-0.002200	1
H	2.664930	-0.216460	2.181090	1
H	4.118940	-0.734370	1.314950	1
H	2.674650	-1.757390	1.310450	1
H	2.707750	-0.256090	-2.152340	1
H	2.704380	-1.780640	-1.253290	1
H	4.145890	-0.753730	-1.248650	1
H	2.691730	1.975930	-0.890470	1
H	4.127530	1.476390	0.015900	1
H	2.671060	1.992040	0.879240	1
Es	2.782436	-1.429218	1.295223	99
Es	3.773686	-0.727187	1.298319	99
Es	2.781239	0.726036	0.006983	99
Es	2.775803	-0.371711	1.892748	99
Es	0.727623	0.334673	-0.618099	99
Es	2.813355	-0.405642	-1.859077	99
Es	2.796803	1.803179	-0.610045	99
Es	2.776942	-0.367814	0.651274	99
Es	0.988685	-0.011000	-0.005440	99
Es	3.023749	-0.719059	1.275628	99
Es	1.746214	-0.009312	0.002563	99
Es	3.782210	1.460347	0.012065	99
Es	2.782584	1.814188	0.604490	99
Es	0.723552	-0.712853	-0.003247	99
Es	3.800355	-0.747181	-1.238832	99
Es	2.811043	-1.451978	-1.242044	99
Es	3.050109	-0.740849	-1.230918	99
Es	0.714756	0.343376	0.596584	99
Es	2.790297	-0.378967	-0.618129	99
Es	2.523680	-0.007510	0.010670	99
Es	3.032180	1.440899	0.003430	99
