33
Properties=species:S:1:pos:R:3:Z:I:1 energy=-231.02686530178676 field_type=dipole dipole="0.000000 0.000000 0.000000" charge=0
C	1.034260	0.010430	-0.066900	6
C	2.524830	0.000720	-0.015380	6
C	3.313150	-0.696190	-1.092280	6
C	3.320680	0.804850	-1.007760	6
O	4.526930	1.402710	-0.517660	8
H	0.641520	0.793700	0.586960	1
H	0.640820	-0.950340	0.276630	1
H	0.658290	0.190860	-1.078600	1
H	2.887330	-0.071930	1.003280	1
H	2.777780	-1.149060	-1.918920	1
H	4.208210	-1.234840	-0.804170	1
H	2.781880	1.346550	-1.779150	1
H	4.938360	0.880600	0.191640	1
Es	2.850622	0.563801	-0.421603	99
Es	3.313092	-0.696062	-1.092199	99
Es	3.923759	-1.051877	-0.891351	99
Es	4.718438	1.096600	-0.140541	99
Es	0.769277	0.544705	0.378311	99
Es	1.034282	0.010431	-0.066905	99
Es	2.865214	-0.520604	-0.495893	99
Es	0.767545	-0.644846	0.167169	99
Es	4.526757	1.402428	-0.517509	99
Es	2.524903	0.000698	-0.015522	99
Es	4.441716	1.664923	-0.386753	99
Es	2.941574	-1.002950	-1.648740	99
Es	4.073910	1.148404	-0.682350	99
Es	2.788665	-0.045115	0.673021	99
Es	2.962380	1.178686	-1.524778	99
Es	0.785681	0.133212	-0.761156	99
Es	1.781272	0.003798	-0.057067	99
Es	3.320861	0.804769	-1.007611	99
Es	3.424813	0.041073	-1.206608	99
Es	4.725580	1.396487	-0.749734	99
