33
Properties=species:S:1:pos:R:3:Z:I:1 energy=-231.03460173416454 field_type=dipole dipole="0.000000 0.000000 0.000000" charge=0
C	1.016470	-0.029040	-0.076190	6
C	2.488020	0.140930	0.049010	6
O	3.244610	-0.485100	-0.997240	8
C	3.270840	0.947670	-0.954340	6
C	4.595810	1.527750	-0.610960	6
H	0.499810	0.663050	0.595440	1
H	0.729090	-1.048770	0.197860	1
H	0.665470	0.162070	-1.096320	1
H	2.848200	0.039800	1.063430	1
H	2.753510	1.489050	-1.734490	1
H	5.107550	0.953170	0.167990	1
H	4.474250	2.554530	-0.252300	1
H	5.238880	1.549550	-1.496180	1
Es	3.515876	-0.587157	-0.886753	99
Es	1.748028	0.061855	-0.019572	99
Es	0.673089	0.443091	0.384674	99
Es	0.829007	-0.718799	0.112908	99
Es	3.309254	0.055288	-1.075876	99
Es	3.270843	0.947365	-0.954328	99
Es	3.935915	1.236988	-0.774275	99
Es	3.043717	-0.583699	-1.212836	99
Es	1.016486	-0.029028	-0.076176	99
Es	4.595788	1.527760	-0.610967	99
Es	3.244539	-0.484895	-0.997132	99
Es	2.913385	1.311663	-1.491634	99
Es	4.504935	2.225619	-0.371205	99
Es	2.741623	0.068240	0.741341	99
Es	2.488169	0.140806	0.048772	99
Es	2.803395	0.756990	-0.338998	99
Es	0.785015	0.104299	-0.767869	99
Es	5.024965	1.541640	-1.213928	99
Es	4.934723	1.137306	-0.081519	99
Es	2.939747	-0.346083	-0.560998	99
