33
Properties=species:S:1:pos:R:3:Z:I:1 energy=-231.0341380711178 field_type=dipole dipole="0.000000 0.000000 0.000000" charge=0
C	0.943200	0.020310	-0.133700	6
C	2.425980	-0.015050	0.042120	6
O	2.843640	-0.070070	1.411070	8
C	3.283610	-0.755520	-0.945510	6
C	3.315310	0.749250	-0.898360	6
H	0.655130	0.058880	-1.189980	1
H	0.523190	0.901240	0.363320	1
H	0.487050	-0.871880	0.308410	1
H	3.810520	-0.033940	1.504570	1
H	2.802900	-1.225700	-1.796010	1
H	4.144380	-1.298940	-0.575230	1
H	4.199640	1.230440	-0.498650	1
H	2.855580	1.291710	-1.716750	1
Es	0.662466	0.618283	0.200748	99
Es	2.740858	0.188810	1.535565	99
Es	1.690115	0.002706	-0.046847	99
Es	2.755923	-0.344810	1.514597	99
Es	3.424655	-0.000910	-1.059108	99
Es	3.315278	0.749089	-0.898332	99
Es	2.794260	-0.566983	-0.407634	99
Es	3.916467	1.068136	-0.618121	99
Es	3.000329	1.113440	-1.454408	99
Es	0.943242	0.020309	-0.133710	99
Es	0.638238	-0.585171	0.163484	99
Es	2.426176	-0.015058	0.042230	99
Es	3.869100	-1.116668	-0.686273	99
Es	2.818047	0.548616	-0.371279	99
Es	2.723120	-0.048600	0.881858	99
Es	2.843826	-0.070053	1.410872	99
Es	3.283582	-0.755356	-0.945473	99
Es	3.366467	-0.051362	1.425849	99
Es	0.763399	0.046232	-0.854323	99
Es	2.954423	-1.070172	-1.523507	99
