33
Properties=species:S:1:pos:R:3:Z:I:1 energy=-231.02735386815024 field_type=dipole dipole="0.000000 0.000000 0.000000" charge=0
C	1.036690	0.134000	0.091610	6
C	2.518060	-0.071800	-0.174190	6
C	3.268000	1.219150	-0.094500	6
C	3.864880	1.700090	1.200130	6
O	4.664570	1.071800	0.187350	8
H	0.499670	-0.816940	0.019160	1
H	0.601150	0.829690	-0.632960	1
H	0.871760	0.546180	1.092220	1
H	2.652270	-0.501270	-1.173900	1
H	2.916280	-0.799870	0.543730	1
H	2.979420	1.940290	-0.847450	1
H	3.675770	1.140160	2.107220	1
H	3.990200	2.766220	1.343620	1
Es	3.743240	1.316171	1.819199	99
Es	4.448426	1.321652	0.640065	99
Es	3.959489	2.425277	1.300250	99
Es	1.776679	0.039532	-0.043162	99
Es	2.789687	-0.559478	0.320160	99
Es	0.928616	0.415602	0.775426	99
Es	0.672783	-0.513822	0.041205	99
Es	0.743731	0.611151	-0.405230	99
Es	4.710817	0.778385	0.268139	99
Es	4.156456	1.090225	-0.020012	99
Es	3.865038	1.699952	1.199900	99
Es	3.075783	1.713782	-0.611390	99
Es	2.892375	0.577041	-0.125163	99
Es	4.830282	1.288557	0.040467	99
Es	1.036724	0.134000	0.091601	99
Es	4.664245	1.071924	0.187451	99
Es	3.268305	1.219124	-0.094416	99
Es	3.343823	1.535734	0.635644	99
Es	2.610235	-0.356692	-0.857803	99
Es	2.518025	-0.071760	-0.174186	99
