38
Properties=species:S:1:pos:R:3:Z:I:1 energy=-196.40193772928941 field_type=dipole dipole="0.000000 0.000000 0.000000" charge=0
C	0.971440	-0.078260	0.040720	6
C	2.489440	0.016080	0.100710	6
C	3.018840	1.459090	0.043470	6
C	2.569950	2.292590	1.244560	6
C	4.547300	1.448800	-0.036160	6
H	0.663070	-1.127300	-0.020070	1
H	0.579290	0.441000	-0.839660	1
H	0.505920	0.350140	0.933290	1
H	2.899280	-0.550080	-0.744890	1
H	2.843260	-0.479910	1.012710	1
H	2.638520	1.938110	-0.867590	1
H	2.872070	1.824910	2.187820	1
H	1.483100	2.418210	1.258410	1
H	3.011160	3.294820	1.208390	1
H	4.988970	0.984270	0.852290	1
H	4.940380	2.468090	-0.116540	1
H	4.887860	0.891250	-0.915320	1
Es	2.733605	-0.319478	0.730806	99
Es	4.814192	2.147860	-0.089686	99
Es	2.772246	-0.369915	-0.482978	99
Es	0.706338	0.279701	-0.562048	99
Es	2.874487	2.976166	1.216811	99
Es	2.789145	1.875282	0.654791	99
Es	2.569951	2.292585	1.244552	99
Es	4.778248	1.065216	-0.638108	99
Es	4.547295	1.448800	-0.036160	99
Es	2.778960	1.967836	1.887353	99
Es	3.793336	1.452259	0.006760	99
Es	0.762118	-0.795540	-0.001155	99
Es	0.971456	-0.078261	0.040719	99
Es	2.489403	0.016097	0.100708	99
Es	0.655551	0.217299	0.650410	99
Es	3.018862	1.459081	0.043509	99
Es	1.722554	-0.022763	0.073732	99
Es	4.844617	1.130148	0.574190	99
Es	2.746905	0.737690	0.079582	99
Es	1.826991	2.375305	1.253568	99
Es	2.754279	1.787291	-0.584362	99
