33
Properties=species:S:1:pos:R:3:Z:I:1 energy=-231.05046744071277 field_type=dipole dipole="0.000000 0.000000 0.000000" charge=0
C	0.912850	0.012640	0.056470	6
C	2.401150	0.013370	0.192370	6
C	3.184300	1.043490	-0.163580	6
C	4.671460	1.059830	-0.028490	6
O	5.234420	1.218680	-1.320270	8
H	0.598880	-0.808970	-0.595110	1
H	0.534940	0.948370	-0.367900	1
H	0.449210	-0.129350	1.037550	1
H	2.845060	-0.888320	0.609470	1
H	2.739310	1.946470	-0.575750	1
H	5.063720	0.138360	0.413380	1
H	4.986180	1.902100	0.594200	1
H	4.848200	0.522870	-1.879250	1
Es	0.708981	-0.544794	-0.382465	99
Es	5.007204	1.139611	-0.836324	99
Es	3.184366	1.043554	-0.163606	99
Es	2.401057	0.013284	0.192399	99
Es	5.534881	1.160491	-1.295570	99
Es	2.836594	0.403239	-0.296870	99
Es	4.880207	1.634193	0.394144	99
Es	4.671501	1.059857	-0.028707	99
Es	5.234213	1.218413	-1.320162	99
Es	4.929115	0.419916	0.281989	99
Es	2.774236	0.657600	0.312885	99
Es	0.608656	-0.085127	0.720700	99
Es	5.017397	0.834930	-1.603440	99
Es	2.699027	-0.603267	0.476966	99
Es	5.123262	1.483158	-1.428404	99
Es	2.886637	1.657909	-0.445407	99
Es	0.912890	0.012633	0.056476	99
Es	3.916489	1.044184	-0.084815	99
Es	1.657400	0.016460	0.122120	99
Es	0.662414	0.649733	-0.231988	99
