33
Properties=species:S:1:pos:R:3:Z:I:1 energy=-231.06985692812708 field_type=dipole dipole="0.000000 0.000000 0.000000" charge=0
C	0.972270	-0.008510	-0.039790	6
C	2.494370	0.002820	0.001520	6
C	3.089140	-0.752360	-1.178860	6
C	2.982600	1.433510	-0.024030	6
O	3.641650	1.936650	0.881090	8
H	0.556580	0.548610	0.807030	1
H	0.588650	-1.032670	0.006360	1
H	0.593060	0.457610	-0.956190	1
H	2.835500	-0.457370	0.936670	1
H	2.780250	-0.311350	-2.133120	1
H	2.774600	-1.800620	-1.169380	1
H	4.183730	-0.725550	-1.144850	1
H	2.711670	2.021480	-0.918570	1
Es	0.694938	0.371453	0.535573	99
Es	3.614147	1.680596	0.436764	99
Es	3.089123	-0.752329	-1.178833	99
Es	0.972310	-0.008501	-0.039794	99
Es	1.738681	0.010612	-0.026612	99
Es	2.982603	1.433515	-0.024030	99
Es	3.696478	1.735127	1.114812	99
Es	3.188226	1.828760	0.663688	99
Es	2.872781	-0.444650	-1.824780	99
Es	2.788261	1.825356	-0.645940	99
Es	0.720581	-0.704030	-0.010746	99
Es	2.790447	-0.359170	-0.592607	99
Es	3.831531	-0.730441	-1.152295	99
Es	0.723209	0.310980	-0.668090	99
Es	3.641523	1.936542	0.880906	99
Es	2.870134	-1.459264	-1.167068	99
Es	3.716482	2.235746	0.825433	99
Es	2.494347	0.002859	0.001452	99
Es	2.735285	0.721691	-0.019997	99
Es	2.724085	-0.307965	0.631741	99
