30
Properties=species:S:1:pos:R:3:Z:I:1 energy=-229.84488988913768 field_type=dipole dipole="0.000000 0.000000 0.000000" charge=0
C	1.000000	0.000000	0.000000	6
C	2.444000	0.000000	0.000000	6
C	3.634160	0.000000	0.000000	6
C	5.078160	0.000000	0.000000	6
O	5.567640	1.335020	-0.024590	8
H	0.605970	1.020870	0.011680	1
H	0.605910	-0.520530	0.878250	1
H	0.605920	-0.500290	-0.889930	1
H	5.476980	-0.524680	-0.873420	1
H	5.476280	-0.487390	0.894510	1
H	5.075940	1.795870	-0.725650	1
Es	5.861808	1.315527	-0.112506	99
Es	5.327544	-0.364065	-0.595956	99
Es	3.057674	-0.360580	-0.013715	99
Es	1.000115	0.000001	-0.000000	99
Es	5.078103	0.000227	-0.000010	99
Es	5.296661	1.564337	-0.408314	99
Es	0.753645	-0.348244	0.587301	99
Es	5.479197	1.462125	0.238154	99
Es	1.744484	0.000238	-0.000395	99
Es	3.634400	-0.000012	-0.000009	99
Es	3.039613	0.172243	0.316704	99
Es	0.752841	-0.334847	-0.596147	99
Es	5.567392	1.334887	-0.024794	99
Es	2.443720	-0.000003	-0.000002	99
Es	5.356948	0.826980	-0.033091	99
Es	0.754604	0.682760	0.007517	99
Es	3.050144	0.193941	-0.314636	99
Es	5.330130	-0.329240	0.603054	99
Es	4.325033	-0.004987	-0.001072	99
