29
Properties=species:S:1:pos:R:3:Z:I:1 energy=-192.85913081251408 field_type=dipole dipole="0.000000 0.000000 0.000000" charge=0
C	0.000460	1.268890	0.008860	6
C	1.164770	0.323120	0.004110	6
C	0.720970	-0.943870	-0.002610	6
C	-0.721200	-0.942500	-0.002840	6
C	-1.164440	0.322560	0.003710	6
H	0.000100	1.902330	-0.883300	1
H	-0.000190	1.892950	0.907610	1
H	2.200500	0.626090	0.005860	1
H	1.327930	-1.835660	-0.007170	1
H	-1.328890	-1.834080	-0.007620	1
H	-2.199970	0.625980	0.005140	1
Es	-1.129141	-1.553422	-0.006170	99
Es	-0.946840	-0.316858	-0.317417	99
Es	0.000459	1.268861	0.008860	99
Es	0.000320	1.681170	-0.586409	99
Es	0.947088	-0.317358	-0.317135	99
Es	1.128355	-1.554910	-0.005754	99
Es	1.865145	0.540805	0.005366	99
Es	-0.000167	-1.002303	-0.002959	99
Es	0.000112	1.674943	0.608395	99
Es	-0.946955	-0.320193	0.318165	99
Es	-1.864723	0.540500	0.004746	99
Es	-0.721152	-0.942612	-0.002838	99
Es	1.164781	0.323244	0.004107	99
Es	-0.606913	0.828507	0.006465	99
Es	0.607637	0.828814	0.006721	99
Es	-1.164450	0.322687	0.003711	99
Es	0.720929	-0.943974	-0.002614	99
Es	0.946980	-0.320711	0.318520	99
