39
Properties=species:S:1:pos:R:3:Z:I:1 energy=-233.06179720083537 field_type=dipole dipole="0.000000 0.000000 0.000000" charge=0
C	0.949430	0.005840	0.022730	6
C	2.470310	0.009820	0.022710	6
C	3.027390	1.432820	0.000000	6
C	4.471390	1.432820	0.000000	6
C	5.661550	1.432820	0.000000	6
C	7.105550	1.432820	0.000000	6
H	0.572830	-1.022280	0.039110	1
H	0.555390	0.497240	-0.872760	1
H	0.555340	0.525540	0.902080	1
H	2.830820	-0.549780	-0.848910	1
H	2.830770	-0.521670	0.911760	1
H	2.655720	1.985760	0.870830	1
H	2.655720	1.957690	-0.888030	1
H	7.499640	2.453650	-0.011680	1
H	7.499570	0.912240	-0.878240	1
H	7.499570	0.932470	0.889920	1
Es	6.363660	1.432455	0.000154	99
Es	1.704025	0.015946	0.022580	99
Es	2.788873	1.784196	-0.601136	99
Es	2.470285	0.009876	0.022709	99
Es	0.949448	0.005840	0.022730	99
Es	3.027497	1.432801	0.000000	99
Es	7.105445	1.432820	0.000000	99
Es	5.067118	1.279251	0.327514	99
Es	2.715812	-0.367178	-0.576250	99
Es	2.715787	-0.347903	0.633407	99
Es	3.775097	1.434372	0.000036	99
Es	4.471126	1.432818	-0.000004	99
Es	5.066810	1.224335	-0.296053	99
Es	7.354825	1.083691	-0.589197	99
Es	0.683763	0.364010	0.624414	99
Es	5.661830	1.432824	-0.000022	99
Es	2.767969	0.734226	0.011131	99
Es	5.068768	1.790396	-0.031606	99
Es	7.354604	2.117377	-0.007634	99
Es	7.354665	1.097117	0.596845	99
Es	0.693918	-0.695752	0.033890	99
Es	0.683806	0.344658	-0.590055	99
Es	2.788859	1.803204	0.589666	99
