39
Properties=species:S:1:pos:R:3:Z:I:1 energy=-233.05273581475808 field_type=dipole dipole="0.000000 0.000000 0.000000" charge=0
C	0.986910	-0.090090	0.008720	6
C	2.506390	-0.037460	0.015020	6
C	3.017660	1.403100	-0.000660	6
C	4.545530	1.451440	0.000970	6
C	5.032290	2.838480	0.001100	6
C	5.433780	3.971300	0.002040	6
H	0.643640	-1.129270	0.023630	1
H	0.581550	0.388680	-0.888380	1
H	0.572960	0.417000	0.886110	1
H	2.888410	-0.578140	-0.858710	1
H	2.880020	-0.555150	0.906170	1
H	2.628000	1.941000	0.873250	1
H	2.631170	1.921670	-0.887570	1
H	4.934580	0.927730	-0.880090	1
H	4.933300	0.928630	0.883100	1
H	5.789260	4.975350	0.003070	1
Es	0.753410	-0.799956	0.018921	99
Es	5.053746	3.483263	0.305822	99
Es	0.707982	0.258581	0.608911	99
Es	5.576495	3.301024	0.017144	99
Es	0.986933	-0.090091	0.008720	99
Es	4.545559	1.451576	0.000969	99
Es	4.808946	1.113369	0.596384	99
Es	2.768950	0.683119	0.006990	99
Es	2.765660	-0.389363	0.628764	99
Es	3.017723	1.403073	-0.000660	99
Es	5.079174	3.474846	-0.318308	99
Es	5.032201	2.838224	0.001104	99
Es	2.506365	-0.037430	0.015019	99
Es	2.757092	1.752825	-0.609832	99
Es	1.743084	-0.059929	0.011852	99
Es	4.809816	1.112635	-0.593652	99
Es	5.665708	4.627541	0.002671	99
Es	0.713896	0.239179	-0.605040	99
Es	2.771373	-0.405095	-0.586917	99
Es	3.803648	1.443634	0.000335	99
Es	4.801279	2.175637	0.000751	99
Es	5.433857	3.971527	0.002042	99
Es	2.754936	1.766069	0.599685	99
