35
Properties=species:S:1:pos:R:3:Z:I:1 energy=-247.8218077666103 field_type=dipole dipole="0.000000 0.000000 0.000000" charge=0
C	-1.358320	0.096230	-0.390120	6
C	-0.467970	-0.682360	0.652350	6
N	-0.549690	0.626220	1.452180	7
C	-0.298060	1.180290	0.042150	6
C	1.039270	0.622820	-0.272070	6
C	0.923630	-0.643770	0.143000	6
H	-1.323900	-0.247180	-1.428660	1
H	-2.400640	0.284320	-0.106340	1
H	-0.836080	-1.587780	1.133050	1
H	-1.476930	0.831270	1.819810	1
H	-0.486870	2.240350	-0.121370	1
H	1.888070	1.123690	-0.703940	1
H	1.654460	-1.433130	0.133980	1
Es	0.918822	-0.107599	-0.378364	99
Es	0.386341	0.953025	-0.144444	99
Es	-0.467994	-0.682189	0.652393	99
Es	-0.718202	-1.306586	0.981993	99
Es	1.039233	0.622938	-0.272102	99
Es	-0.283376	0.688600	1.716444	99
Es	0.233312	-0.723695	0.404880	99
Es	-2.066196	0.229692	-0.179868	99
Es	-1.133245	0.739922	1.636721	99
Es	1.602096	0.973504	-0.565053	99
Es	-0.298108	1.180185	0.042288	99
Es	1.113749	0.064792	0.202038	99
Es	1.404870	-1.185844	0.142556	99
Es	-0.848738	0.694289	-0.273491	99
Es	-0.424851	1.909503	-0.071837	99
Es	-1.358290	0.096241	-0.390078	99
Es	-0.446575	0.929541	0.863124	99
Es	0.923574	-0.643874	0.143039	99
Es	-0.550021	0.626140	1.451834	99
Es	-0.947806	-0.392512	0.082712	99
Es	-1.340206	-0.141887	-1.111662	99
Es	-0.529183	0.022922	1.160268	99
