38
Properties=species:S:1:pos:R:3:Z:I:1 energy=-249.05077466221334 field_type=dipole dipole="0.000000 0.000000 0.000000" charge=0
C	0.943420	0.000810	0.985390	6
C	0.298740	0.986390	-0.032640	6
C	-1.208700	0.775460	0.074480	6
C	-1.221720	-0.750170	0.085500	6
C	0.281780	-0.988270	-0.018070	6
N	0.791360	-0.012890	-1.073290	7
H	2.039450	-0.008290	1.020750	1
H	0.552420	0.011690	2.006700	1
H	0.697360	1.998930	-0.101030	1
H	-1.622590	1.198610	0.994730	1
H	-1.748790	1.186410	-0.784160	1
H	-1.768790	-1.164080	-0.767220	1
H	-1.642850	-1.152760	1.011650	1
H	0.663020	-2.008400	-0.071730	1
H	0.259470	-0.014720	-1.943340	1
Es	0.637300	0.570904	0.551997	99
Es	1.153779	-0.016216	-1.111630	99
Es	-1.208674	0.775429	0.074477	99
Es	0.666146	0.008410	1.692848	99
Es	-0.482226	-0.910167	0.036968	99
Es	0.281824	-0.988126	-0.018164	99
Es	0.298783	0.986245	-0.032728	99
Es	0.551259	-0.486438	-0.681248	99
Es	-1.254661	0.012976	0.082799	99
Es	0.790773	-0.012886	-1.073203	99
Es	0.559440	0.470352	-0.688404	99
Es	0.559938	1.689274	-0.084264	99
Es	-1.221694	-0.750140	0.085499	99
Es	-0.466499	0.922149	0.023555	99
Es	-1.507236	-1.027880	0.719698	99
Es	-1.591770	-1.035079	-0.501351	99
Es	-1.489250	1.067202	0.704585	99
Es	0.439745	-0.013745	-1.595743	99
Es	0.943357	0.000809	0.985338	99
Es	0.530922	-1.696196	-0.059459	99
Es	0.627470	-0.570214	0.560319	99
Es	-1.573944	1.058191	-0.516446	99
Es	1.682858	-0.005403	1.000639	99
