35
Properties=species:S:1:pos:R:3:Z:I:1 energy=-247.87085034685214 field_type=dipole dipole="0.000000 0.000000 0.000000" charge=0
C	0.351290	1.449710	0.351920	6
C	-0.762700	0.790710	-0.410520	6
C	-1.360680	-0.437120	0.096060	6
C	-0.461950	-1.421530	0.207120	6
C	0.876030	-0.905430	-0.233030	6
N	0.666680	0.493160	-0.706920	7
H	0.571160	2.486540	0.126710	1
H	0.544410	1.162490	1.378630	1
H	-1.290100	1.340750	-1.179530	1
H	-2.409540	-0.524460	0.343300	1
H	-0.652090	-2.423650	0.556000	1
H	1.605890	-0.942210	0.582810	1
H	1.252980	-1.509260	-1.064710	1
Es	0.823995	0.610055	-1.008173	99
Es	-0.378143	1.219524	0.100185	99
Es	-1.128795	1.167527	-0.924384	99
Es	1.364383	-0.928264	0.327072	99
Es	0.481353	1.247852	1.049620	99
Es	-0.461850	-1.421597	0.207138	99
Es	-1.093367	0.199382	-0.139094	99
Es	0.351261	1.449546	0.351747	99
Es	1.130032	-1.318582	-0.795270	99
Es	-0.577422	-2.101890	0.444549	99
Es	0.008383	0.544123	-0.671494	99
Es	-0.865751	-0.847146	0.462294	99
Es	-2.073535	-0.484970	0.259409	99
Es	0.875966	-0.905313	-0.233050	99
Es	0.666353	0.493016	-0.706363	99
Es	0.752593	-0.103488	-0.465749	99
Es	-0.992213	-1.030860	-0.147888	99
Es	0.671211	0.900286	-0.198312	99
Es	0.214215	-1.198575	-0.001289	99
Es	-1.360754	-0.437020	0.096049	99
Es	-0.762462	0.790687	-0.410512	99
Es	0.503240	2.152794	0.199147	99
