38
Properties=species:S:1:pos:R:3:Z:I:1 energy=-249.08673797265143 field_type=dipole dipole="0.000000 0.000000 0.000000" charge=0
C	0.422760	1.326610	0.262890	6
C	-1.057690	1.057560	-0.053490	6
C	-1.400270	-0.404180	-0.004570	6
C	-0.436690	-1.336250	0.045940	6
C	1.026860	-1.001320	0.024710	6
N	1.309230	0.370460	-0.406490	7
H	0.677270	2.341320	-0.062740	1
H	0.589700	1.291380	1.347060	1
H	-1.302320	1.437190	-1.052590	1
H	-1.680870	1.600770	0.665760	1
H	-2.447370	-0.690050	-0.014610	1
H	-0.703810	-2.387850	0.096980	1
H	1.444070	-1.175800	1.023520	1
H	1.536070	-1.684540	-0.663250	1
H	2.278170	0.591780	-0.186910	1
Es	0.931732	0.774763	-0.088514	99
Es	0.422801	1.326504	0.262814	99
Es	-1.057666	1.057517	-0.053473	99
Es	-2.115905	-0.589812	-0.011257	99
Es	1.026829	-1.001200	0.024679	99
Es	1.183153	-0.219607	-0.186877	99
Es	-0.915305	-0.891513	-0.303938	99
Es	1.368986	-1.471356	-0.440339	99
Es	0.598875	2.022559	0.040713	99
Es	-0.924071	-0.860678	0.353806	99
Es	0.291088	-1.158651	0.035377	99
Es	-1.480245	1.423357	0.438947	99
Es	-0.317875	1.178813	0.103067	99
Es	1.302742	-1.124055	0.716570	99
Es	-0.605442	-2.055515	0.082547	99
Es	1.255574	0.393610	-0.755803	99
Es	-1.400328	-0.404078	-0.004576	99
Es	-1.223793	1.308442	-0.730624	99
Es	1.309258	0.370426	-0.405985	99
Es	-0.436578	-1.336314	0.045951	99
Es	1.892492	0.501278	-0.247721	99
Es	-1.230713	0.325007	-0.025143	99
Es	0.531499	1.297585	1.019556	99
