41
Properties=species:S:1:pos:R:3:Z:I:1 energy=-250.27567336132913 field_type=dipole dipole="0.000000 0.000000 0.000000" charge=0
C	0.735800	1.274050	-0.200990	6
C	-0.729230	1.238530	0.223440	6
C	-1.409330	-0.046800	-0.245290	6
N	-0.700680	-1.240360	0.223290	7
C	0.686190	-1.245030	-0.248030	6
C	1.449420	-0.006750	0.220430	6
H	0.797040	1.383370	-1.290950	1
H	1.234580	2.144780	0.238270	1
H	-1.254600	2.108040	-0.187180	1
H	-0.793910	1.311840	1.316420	1
H	-2.436790	-0.073990	0.134500	1
H	-1.479860	-0.062830	-1.339650	1
H	-0.701960	-1.244500	1.243500	1
H	1.184460	-2.144440	0.129770	1
H	0.705680	-1.312700	-1.342440	1
H	1.548680	-0.027150	1.312950	1
H	2.464950	-0.018450	-0.192980	1
Es	-0.771161	1.280032	0.978359	99
Es	0.002814	1.254777	0.011600	99
Es	0.686079	-1.244997	-0.247976	99
Es	-0.093290	-1.214070	0.028516	99
Es	-2.113553	-0.062480	0.020127	99
Es	1.091602	0.632581	0.010237	99
Es	0.735784	1.274021	-0.200975	99
Es	-1.444969	-0.055399	-0.998106	99
Es	1.449400	-0.006732	0.220421	99
Es	-0.700378	-1.239824	0.223491	99
Es	0.774398	1.342897	-0.952141	99
Es	1.030318	-1.859965	0.016057	99
Es	1.077817	1.871337	0.102407	99
Es	-0.986404	-0.703194	0.029702	99
Es	0.695202	-1.279354	-1.000853	99
Es	-1.091213	1.835272	-0.060251	99
Es	-0.685693	-1.215314	0.844552	99
Es	-0.867734	-1.532041	0.109678	99
Es	1.073792	-0.616279	-0.015441	99
Es	-0.729205	1.238522	0.223430	99
Es	1.508674	-0.023005	0.975205	99
Es	-1.064102	0.605847	-0.012473	99
Es	2.146910	-0.015848	-0.065201	99
Es	-1.409241	-0.046884	-0.245232	99
