38
Properties=species:S:1:pos:R:3:Z:I:1 energy=-249.0339783632072 field_type=dipole dipole="0.000000 0.000000 0.000000" charge=0
C	0.921720	-0.013880	0.925880	6
C	0.275890	-1.043080	-0.030390	6
C	0.751350	-0.035650	-1.103450	6
N	0.327430	0.998120	-0.056690	7
C	-1.137400	0.768380	0.066130	6
C	-1.205500	-0.754130	0.093640	6
H	2.018330	-0.012410	0.974980	1
H	0.531570	0.034160	1.948750	1
H	0.644880	-2.066180	-0.049900	1
H	0.195560	-0.009230	-2.047510	1
H	1.824300	-0.037160	-1.334920	1
H	-1.532660	1.215130	0.984620	1
H	-1.677900	1.190350	-0.787880	1
H	-1.775190	-1.158510	-0.748920	1
H	-1.621650	-1.133910	1.032070	1
Es	0.646058	0.021896	1.630805	99
Es	-1.502984	1.055260	-0.521706	99
Es	0.585210	0.596207	0.420694	99
Es	0.327278	0.997600	-0.056673	99
Es	-1.489512	-1.016276	0.737476	99
Es	0.622578	-0.612641	0.523918	99
Es	0.361720	-0.014648	-1.753050	99
Es	-1.213955	-0.002781	0.083543	99
Es	0.275911	-1.043013	-0.030392	99
Es	0.517312	-1.757405	-0.042742	99
Es	0.524055	-0.625251	-0.644238	99
Es	-1.403347	1.072387	0.697358	99
Es	1.668584	-0.012368	0.944270	99
Es	0.447239	1.360541	-0.070667	99
Es	-0.470365	-0.939338	0.032385	99
Es	-1.595059	-1.033239	-0.484568	99
Es	-1.205467	-0.754120	0.093637	99
Es	1.484551	-0.036063	-1.246203	99
Es	0.921657	-0.013795	0.925776	99
Es	-1.137269	0.768363	0.066120	99
Es	-0.309043	0.888449	-0.002987	99
Es	0.751302	-0.035563	-1.103334	99
Es	0.503115	0.585713	-0.562062	99
