31
Properties=species:S:1:pos:R:3:Z:I:1 energy=-262.7671424044365 field_type=dipole dipole="0.000000 0.000000 0.000000" charge=0
C	-0.745110	1.105380	0.030750	6
C	0.638290	1.175320	0.033250	6
N	1.420200	0.071270	0.035760	7
C	0.753550	-1.105740	0.035670	6
C	-0.629950	-1.175600	0.033170	6
N	-1.411890	-0.071700	0.030660	7
H	-1.357780	1.999340	0.028760	1
H	1.157720	2.126470	0.033290	1
H	1.366110	-1.999680	0.037670	1
H	-1.149520	-2.126790	0.033130	1
Es	1.106402	-0.443744	0.035728	99
Es	1.796221	0.084912	0.036616	99
Es	-0.973724	-1.825162	0.033093	99
Es	1.160845	-1.717271	0.037059	99
Es	1.419589	0.071254	0.035762	99
Es	-0.630023	-1.175525	0.033166	99
Es	-0.745180	1.105293	0.030750	99
Es	-0.985016	0.400483	0.283394	99
Es	0.053169	-0.972312	0.322910	99
Es	0.053978	-0.970862	-0.254444	99
Es	0.946240	0.498372	0.286845	99
Es	-1.411271	-0.071651	0.030661	99
Es	-0.053837	1.148518	0.032270	99
Es	-1.787364	-0.096090	0.030356	99
Es	-0.982807	0.399604	-0.222082	99
Es	0.638369	1.175240	0.033243	99
Es	0.946959	0.497639	-0.218298	99
Es	0.753616	-1.105659	0.035661	99
Es	-1.047799	-0.552379	0.031958	99
Es	0.979101	1.826603	0.033309	99
Es	-1.149792	1.719018	0.029458	99
