40
Properties=species:S:1:pos:R:3:Z:I:1 energy=-266.2638261186856 field_type=dipole dipole="0.000000 0.000000 0.000000" charge=0
C	0.723490	1.198730	-0.236540	6
C	-0.749390	1.206030	0.228910	6
N	-1.485230	0.001180	-0.181780	7
C	-0.750080	-1.208360	0.213520	6
C	0.722110	-1.196150	-0.251760	6
N	1.457840	-0.001950	0.203590	7
H	0.770140	1.271440	-1.330500	1
H	1.231450	2.084840	0.159520	1
H	-1.252600	2.085260	-0.187430	1
H	-0.786910	1.300140	1.321410	1
H	-2.407330	-0.000570	0.250450	1
H	-0.788130	-1.316170	1.304780	1
H	-1.254320	-2.081630	-0.213920	1
H	1.229590	-2.087480	0.133340	1
H	0.769110	-1.255180	-1.346370	1
H	1.466180	-0.008200	1.223210	1
Es	1.114523	0.512534	0.024528	99
Es	1.061485	-1.808144	0.019927	99
Es	-2.033100	-0.000242	0.104642	99
Es	-1.093352	1.810621	-0.053999	99
Es	1.435362	-0.005773	0.825439	99
Es	0.722127	-1.196033	-0.251687	99
Es	0.723507	1.198611	-0.236468	99
Es	1.113770	-0.513697	0.018045	99
Es	-1.094597	-1.809054	-0.076952	99
Es	1.063205	1.807045	0.042713	99
Es	-0.765813	-1.281077	0.977471	99
Es	1.791687	-0.001333	0.078773	99
Es	-0.750127	-1.208233	0.213472	99
Es	1.457252	-0.001953	0.203797	99
Es	-1.162452	0.514962	0.024253	99
Es	-1.485129	0.001176	-0.181185	99
Es	-0.025724	-1.191161	-0.018187	99
Es	0.747485	-1.229047	-0.999464	99
Es	-0.024720	1.191304	-0.003020	99
Es	0.748624	1.241025	-0.983894	99
Es	-0.764869	1.269150	0.993756	99
Es	-1.162707	-0.515065	0.017485	99
Es	-1.516130	0.003589	-0.534744	99
Es	-0.749434	1.205908	0.228866	99
