34
Properties=species:S:1:pos:R:3:Z:I:1 energy=-263.85114092586105 field_type=dipole dipole="0.000000 0.000000 0.000000" charge=0
C	0.425560	1.424040	0.313200	6
C	1.107930	0.305630	-0.440130	6
C	1.047350	-1.091360	0.050010	6
C	-0.430980	-1.247350	0.087920	6
N	-1.091960	-0.216740	-0.332290	7
N	-0.244570	0.761840	-0.801870	7
H	0.747500	2.439490	0.118180	1
H	0.036760	1.258020	1.310150	1
H	1.900380	0.527130	-1.138410	1
H	1.473850	-1.217690	1.047480	1
H	1.479820	-1.813090	-0.646880	1
H	-0.898950	-2.165210	0.468320	1
Es	1.337984	-1.572169	-0.421549	99
Es	1.105390	-0.390921	-0.176586	99
Es	1.047307	-1.091346	0.050006	99
Es	1.107725	0.305724	-0.440106	99
Es	1.648191	0.462432	-0.910437	99
Es	-0.083605	1.103955	-0.282469	99
Es	-0.745303	-1.865298	0.345752	99
Es	0.425519	1.423878	0.313008	99
Es	-0.785400	-0.565167	0.126272	99
Es	-0.430959	-1.247393	0.087932	99
Es	-1.091333	-0.216826	-0.332266	99
Es	0.953839	0.872448	0.082114	99
Es	-0.324326	0.927887	-1.104019	99
Es	-0.800593	-0.783188	-0.414107	99
Es	-1.460060	-0.156157	-0.342903	99
Es	0.318317	-1.202482	0.077236	99
Es	-0.244363	0.761503	-0.801262	99
Es	-0.639687	0.263391	-0.539346	99
Es	1.328188	-1.178594	0.720392	99
Es	0.355991	0.475196	-0.742751	99
Es	0.645705	2.109949	0.181098	99
Es	0.163834	1.302343	0.984070	99
