37
Properties=species:S:1:pos:R:3:Z:I:1 energy=-265.023924324626 field_type=dipole dipole="0.000000 0.000000 0.000000" charge=0
C	0.192710	0.929100	-0.232410	6
N	-0.765420	-0.085090	0.179770	7
C	0.639030	-0.487990	0.036710	6
C	1.402710	-0.896010	1.287830	6
C	1.297270	-2.281560	1.878080	6
N	2.497610	-1.865470	1.168790	7
H	0.136440	1.267500	-1.259240	1
H	0.421450	1.691580	0.499670	1
H	-1.308420	-0.428520	-0.614400	1
H	0.847520	-1.093280	-0.845700	1
H	1.576540	-0.095130	2.004410	1
H	0.664380	-3.002440	1.375140	1
H	1.370120	-2.390550	2.952680	1
H	3.247470	-1.637060	1.823280	1
Es	0.638813	-0.487867	0.036775	99
Es	1.139234	-1.543299	1.647804	99
Es	-0.191128	-0.394163	0.142063	99
Es	1.021629	-0.691525	0.662062	99
Es	2.103424	-1.338604	1.159915	99
Es	0.637017	0.281277	-0.136947	99
Es	2.497377	-1.865222	1.169315	99
Es	0.192600	0.928885	-0.232350	99
Es	-0.909405	-0.068071	0.506094	99
Es	2.933528	-1.721438	1.577421	99
Es	-0.765092	-0.085083	0.179268	99
Es	0.779081	-0.901584	-0.560114	99
Es	-0.455428	0.448859	-0.026011	99
Es	2.040806	-2.169037	1.518091	99
Es	0.871588	-2.774868	1.537079	99
Es	0.347321	1.448650	0.265101	99
Es	1.297446	-2.281431	1.877965	99
Es	0.155622	1.159265	-0.933280	99
Es	1.521447	-0.346436	1.774059	99
Es	-1.074798	-0.285702	-0.312223	99
Es	2.571326	-2.005383	0.848069	99
Es	1.348578	-2.354638	2.610836	99
Es	1.402858	-0.896203	1.287783	99
