34
Properties=species:S:1:pos:R:3:Z:I:1 energy=-263.87761024081385 field_type=dipole dipole="0.000000 0.000000 0.000000" charge=0
C	0.485480	1.462850	0.334260	6
C	1.013280	0.297590	-0.435300	6
C	0.983940	-1.085050	0.153280	6
N	-0.462580	-1.387850	0.330150	7
C	-1.071760	-0.342970	-0.144990	6
N	-0.380630	0.750690	-0.611500	7
H	0.737800	2.460350	0.003160	1
H	0.206690	1.349310	1.373550	1
H	1.626830	0.428570	-1.312250	1
H	1.496980	-1.120550	1.119030	1
H	1.431120	-1.815700	-0.527510	1
H	-2.166950	-0.262820	-0.229200	1
Es	1.332270	-1.105304	0.805535	99
Es	0.195039	0.473812	-0.623567	99
Es	0.983810	-1.085021	0.153278	99
Es	0.656910	2.136521	0.115710	99
Es	-0.679131	0.292589	-0.362570	99
Es	-1.809880	-0.288662	-0.195779	99
Es	-0.714297	-0.834027	0.401158	99
Es	-1.071732	-0.342857	-0.145059	99
Es	1.013053	0.297709	-0.435270	99
Es	0.485349	1.462681	0.334079	99
Es	-0.711847	-1.057568	-0.133328	99
Es	-0.380379	0.750369	-0.610994	99
Es	-0.591790	-1.704011	0.468276	99
Es	1.024524	-0.372708	-0.131402	99
Es	1.288109	-1.572524	-0.313370	99
Es	-0.462398	-1.387370	0.329939	99
Es	1.442114	0.396364	-1.019471	99
Es	0.174619	-1.243716	0.254747	99
Es	-0.159337	1.086486	-0.151014	99
Es	0.960541	0.904951	0.058345	99
Es	0.306376	1.381719	1.038008	99
Es	-0.500403	0.901192	-0.903761	99
