41
Properties=species:S:1:pos:R:3:Z:I:1 energy=-250.232667354437 field_type=dipole dipole="0.000000 0.000000 0.000000" charge=0
C	0.960060	-0.012660	0.025830	6
C	2.476160	-0.030240	0.036640	6
C	3.166540	1.029670	0.938650	6
C	4.233280	-0.043720	1.255130	6
C	3.146260	-1.096340	0.945150	6
N	3.715140	-2.158170	0.124210	7
H	0.569190	-0.881800	-0.513280	1
H	0.588880	0.888100	-0.474210	1
H	0.547460	-0.030510	1.040420	1
H	2.867770	0.003630	-0.991150	1
H	2.581270	1.335490	1.813710	1
H	3.532490	1.923110	0.426430	1
H	5.088500	-0.012740	0.567070	1
H	4.609920	-0.039940	2.281800	1
H	2.565630	-1.426850	1.812060	1
H	4.276350	-1.838380	-0.664430	1
H	3.015570	-2.787440	-0.267900	1
Es	2.476137	-0.030194	0.036683	99
Es	4.233222	-0.043698	1.255118	99
Es	3.449189	-1.705034	0.456979	99
Es	2.760439	1.225546	1.538541	99
Es	2.745381	-1.321817	1.529700	99
Es	3.270958	-2.514623	-0.123903	99
Es	4.027621	-1.932977	-0.355716	99
Es	3.146338	-1.096416	0.945054	99
Es	2.756455	-0.017465	-0.663543	99
Es	3.742737	-0.627992	1.142389	99
Es	3.416342	1.650025	0.588210	99
Es	3.166560	1.029618	0.938645	99
Es	0.694684	-0.610559	-0.342807	99
Es	0.684544	-0.025947	0.723275	99
Es	3.755669	0.561116	1.136200	99
Es	4.804512	-0.032776	0.770969	99
Es	2.765328	0.576209	0.455148	99
Es	0.960057	-0.012665	0.025823	99
Es	1.703391	-0.020221	0.027297	99
Es	0.706932	0.602955	-0.316286	99
Es	2.744992	-0.610847	0.463579	99
Es	3.714841	-2.157902	0.123933	99
Es	4.497489	-0.041343	1.960798	99
Es	3.925808	-2.358339	0.317222	99
