41
Properties=species:S:1:pos:R:3:Z:I:1 energy=-250.24159279079083 field_type=dipole dipole="0.000000 0.000000 0.000000" charge=0
C	0.972280	-0.007870	0.051260	6
C	2.487360	0.006660	0.010530	6
C	3.195170	1.052450	0.911820	6
C	4.215400	-0.031190	1.315440	6
N	5.360300	0.019120	0.403890	7
C	3.213990	-1.096180	0.825950	6
H	0.581750	-0.868490	-0.500130	1
H	0.567590	0.898530	-0.408780	1
H	0.596440	-0.063860	1.077400	1
H	2.841570	0.051640	-1.029760	1
H	2.583690	1.392540	1.756930	1
H	3.580590	1.938020	0.396900	1
H	4.483400	-0.066790	2.374500	1
H	5.125320	0.072970	-0.586410	1
H	5.990020	-0.776810	0.498660	1
H	3.614300	-1.930730	0.241700	1
H	2.609330	-1.513420	1.640690	1
Es	0.707464	-0.597646	-0.325770	99
Es	0.972287	-0.007870	0.051251	99
Es	3.496768	-1.670788	0.425810	99
Es	2.770173	1.272283	1.490227	99
Es	3.213963	-1.096151	0.825940	99
Es	3.462853	1.657355	0.559941	99
Es	5.714303	-0.484845	0.461207	99
Es	1.720617	-0.000860	0.031177	99
Es	5.185978	0.027057	-0.185945	99
Es	2.487367	0.006662	0.010573	99
Es	0.697950	0.613100	-0.263333	99
Es	4.413785	-0.059698	2.040834	99
Es	5.359984	0.018616	0.403759	99
Es	3.748531	-0.638018	1.113034	99
Es	2.803846	-0.611219	0.379807	99
Es	2.792877	0.596157	0.429668	99
Es	2.736413	0.037799	-0.702638	99
Es	3.750564	0.574214	1.155194	99
Es	2.789194	-1.372937	1.384677	99
Es	4.860093	-0.031884	0.781303	99
Es	5.549517	0.302840	0.472608	99
Es	3.195162	1.052400	0.911819	99
Es	4.215478	-0.031185	1.315309	99
Es	0.721616	-0.045948	0.755638	99
