34
Properties=species:S:1:pos:R:3:Z:I:1 energy=-263.88667873509837 field_type=dipole dipole="0.000000 0.000000 0.000000" charge=0
C	0.944350	0.000370	0.040280	6
C	2.454670	0.000370	0.111880	6
C	3.050480	1.115540	-0.675700	6
N	3.784320	0.712570	-1.660720	7
N	3.784340	-0.716160	-1.658830	7
C	3.050510	-1.116400	-0.673050	6
H	0.532630	0.890600	0.527420	1
H	0.532390	-0.885870	0.534380	1
H	0.586920	-0.003660	-0.996200	1
H	2.824110	0.001710	1.139140	1
H	2.874560	2.167610	-0.418140	1
H	2.874640	-2.168410	-0.412890	1
Es	1.725794	0.000415	0.068043	99
Es	3.227053	-0.879747	-1.389626	99
Es	3.978265	0.902079	-1.923708	99
Es	3.226896	0.877118	-1.391917	99
Es	2.928221	-1.821654	-0.497308	99
Es	3.686599	0.878016	-1.054524	99
Es	2.706602	0.001244	0.787616	99
Es	3.686299	-0.879878	-1.052436	99
Es	0.714877	-0.002413	-0.660949	99
Es	3.050450	1.115556	-0.675653	99
Es	2.734556	-0.582971	-0.251334	99
Es	3.978548	-0.906489	-1.921495	99
Es	3.783990	0.712257	-1.660277	99
Es	2.734488	0.582930	-0.252602	99
Es	3.784008	-0.715849	-1.658385	99
Es	0.944429	0.000370	0.040288	99
Es	3.764723	-0.001828	-1.633239	99
Es	3.050477	-1.116417	-0.673003	99
Es	0.674239	0.605382	0.373321	99
Es	2.454655	0.000370	0.111855	99
Es	0.674129	-0.601889	0.378073	99
Es	2.928172	1.820896	-0.501722	99
