41
Properties=species:S:1:pos:R:3:Z:I:1 energy=-250.24255041714767 field_type=dipole dipole="0.000000 0.000000 0.000000" charge=0
C	1.072720	0.071260	-0.106370	6
C	2.560040	0.108740	-0.040640	6
N	3.353670	-0.547100	-1.075150	7
C	3.432690	0.919390	-0.991530	6
C	2.826520	1.720200	-2.113440	6
C	4.706090	1.500250	-0.433290	6
H	0.652140	0.863900	0.520550	1
H	0.706800	-0.887720	0.274970	1
H	0.679100	0.195590	-1.118770	1
H	2.911870	-0.037830	0.975670	1
H	2.771330	-0.842110	-1.859570	1
H	2.002720	1.201240	-2.613320	1
H	3.582090	1.933960	-2.877700	1
H	2.446940	2.674040	-1.733450	1
H	5.123420	0.886930	0.373080	1
H	4.519250	2.501170	-0.030040	1
H	5.465680	1.582640	-1.218060	1
Es	2.560146	0.108664	-0.040849	99
Es	3.640112	-0.748829	-0.983124	99
Es	2.949128	-0.386979	-0.598091	99
Es	0.813277	0.155783	-0.800553	99
Es	0.790756	0.610492	0.320619	99
Es	4.982124	1.083412	0.114472	99
Es	2.826525	1.720190	-2.113424	99
Es	2.984814	-0.704382	-1.544998	99
Es	4.075706	1.203503	-0.713235	99
Es	2.919261	0.710182	-0.412118	99
Es	2.804495	0.010870	0.654339	99
Es	1.072733	0.071264	-0.106370	99
Es	3.353228	-0.546724	-1.075234	99
Es	5.219288	1.558641	-0.971712	99
Es	2.264735	1.358838	-2.446893	99
Es	3.432658	0.919164	-0.991536	99
Es	3.466087	0.086279	-1.160506	99
Es	3.343938	1.861725	-2.627553	99
Es	4.706068	1.500257	-0.433300	99
Es	4.570824	2.183496	-0.163272	99
Es	0.830055	-0.581087	0.152523	99
Es	1.811966	0.095675	-0.096556	99
Es	2.571308	2.368046	-1.852966	99
Es	3.115402	1.313549	-1.555844	99
