35
Properties=species:S:1:pos:R:3:Z:I:1 energy=-247.83929716552078 field_type=dipole dipole="0.000000 0.000000 0.000000" charge=0
C	1.044340	-0.018580	-0.062320	6
C	2.529910	0.058560	0.004960	6
N	3.339970	-0.630820	-0.990990	7
C	3.313530	0.833190	-1.028760	6
C	4.487810	1.539830	-0.616890	6
C	5.473860	2.136280	-0.276520	6
H	0.600330	0.741830	0.587790	1
H	0.699700	-0.999800	0.279180	1
H	0.665190	0.142120	-1.077160	1
H	2.901090	0.013720	1.022510	1
H	2.768570	-1.012540	-1.744430	1
H	2.770310	1.265800	-1.863050	1
H	6.352390	2.656250	0.024520	1
Es	3.411544	0.027636	-1.119942	99
Es	2.785590	0.031236	0.691441	99
Es	3.926583	1.192739	-0.823044	99
Es	0.818394	-0.684816	0.168771	99
Es	2.951097	1.130484	-1.586138	99
Es	2.878828	0.663706	-0.435998	99
Es	5.474057	2.136406	-0.276449	99
Es	0.749154	0.496799	0.378469	99
Es	2.978207	-0.838517	-1.440818	99
Es	2.933642	-0.462179	-0.520307	99
Es	1.786956	0.022935	-0.047973	99
Es	5.142134	1.783492	-0.759639	99
Es	4.487601	1.539715	-0.616957	99
Es	1.044363	-0.018578	-0.062324	99
Es	2.530021	0.058518	0.004745	99
Es	5.024793	1.609960	-0.174400	99
Es	3.339453	-0.630443	-0.991106	99
Es	3.313608	0.832993	-1.028679	99
Es	0.796198	0.089012	-0.758923	99
Es	6.046082	2.476986	-0.079235	99
Es	4.781931	2.139006	-0.397562	99
Es	3.637831	-0.795711	-0.894008	99
