34
Properties=species:S:1:pos:R:3:Z:I:1 energy=-263.9009790647617 field_type=dipole dipole="0.000000 0.000000 0.000000" charge=0
C	1.047650	0.000830	-0.069310	6
C	2.535130	0.021560	0.003950	6
N	3.323850	-0.671150	-1.006220	7
C	3.350080	0.801720	-1.003250	6
C	4.516100	1.509210	-0.544010	6
N	5.437270	2.109770	-0.176560	7
H	0.630600	0.784130	0.571400	1
H	0.664580	-0.963140	0.280270	1
H	0.679210	0.165530	-1.087450	1
H	2.898390	-0.066790	1.022400	1
H	2.740190	-1.016790	-1.769260	1
H	2.828260	1.270730	-1.830230	1
Es	3.976985	1.158665	-0.771139	99
Es	3.008928	1.124846	-1.549962	99
Es	4.898269	2.083664	-0.486762	99
Es	3.425948	0.003498	-1.114702	99
Es	0.773420	0.529937	0.363589	99
Es	2.787412	-0.032468	0.686711	99
Es	3.323352	-0.670757	-1.006343	99
Es	5.202530	1.644963	-0.494756	99
Es	2.535257	0.021534	0.003716	99
Es	4.515809	1.509023	-0.544117	99
Es	3.615314	-0.844988	-0.912310	99
Es	0.809405	0.111044	-0.767656	99
Es	1.047686	0.000832	-0.069316	99
Es	3.350213	0.801530	-1.003162	99
Es	2.959204	-0.850838	-1.461073	99
Es	5.436907	2.109537	-0.176704	99
Es	2.917779	0.636957	-0.426174	99
Es	4.940406	1.777292	-0.049300	99
Es	1.795717	0.016552	-0.053175	99
Es	0.799272	-0.652053	0.166289	99
Es	5.728047	2.301114	-0.059406	99
Es	2.923659	-0.498562	-0.534323	99
