27
Properties=species:S:1:pos:R:3:Z:I:1 energy=-172.13138253571316 field_type=dipole dipole="0.000000 0.000000 0.000000" charge=0
C	-1.239611	-0.008605	0.579296	6
N	0.213849	-0.079675	0.698436	7
C	0.850879	-0.748455	-0.430544	6
C	0.920349	0.749585	-0.271084	6
H	-1.624341	0.749155	1.269866	1
H	-1.681221	-0.969605	0.862736	1
H	-1.599181	0.242405	-0.426174	1
H	0.223419	-1.160965	-1.210554	1
H	1.735969	-1.326505	-0.194884	1
H	1.853749	1.181394	0.069916	1
H	0.346139	1.371275	-0.947014	1
Es	0.920246	0.749392	-0.270973	99
Es	0.355295	-0.121387	1.019617	99
Es	0.521497	1.171677	-0.727434	99
Es	-1.501601	0.511613	1.045566	99
Es	-0.414732	-0.043298	0.607262	99
Es	1.008902	0.014019	-0.538232	99
Es	0.416430	-1.028036	-0.958498	99
Es	-1.538891	-0.665837	0.768519	99
Es	1.450535	-1.145431	-0.272946	99
Es	0.429403	-0.499731	0.236969	99
Es	0.850793	-0.748280	-0.430396	99
Es	1.553460	1.047605	-0.040681	99
Es	-1.239482	-0.008610	0.579298	99
Es	-1.476344	0.163668	-0.121310	99
Es	0.469139	0.407923	0.335345	99
Es	0.213630	-0.079601	0.697826	99
27
Properties=species:S:1:pos:R:3:Z:I:1 energy=-172.13138253571316 field_type=dipole dipole="0.000000 0.000000 0.000000" charge=0
C	-1.239611	-0.008605	0.579296	6
N	0.213849	-0.079675	0.698436	7
C	0.850879	-0.748455	-0.430544	6
C	0.920349	0.749585	-0.271084	6
H	-1.624341	0.749155	1.269866	1
H	-1.681221	-0.969605	0.862736	1
H	-1.599181	0.242405	-0.426174	1
H	0.223419	-1.160965	-1.210554	1
H	1.735969	-1.326505	-0.194884	1
H	1.853749	1.181394	0.069916	1
H	0.346139	1.371275	-0.947014	1
Es	-1.239482	-0.008610	0.579298	99
Es	-1.539164	-0.667043	0.768055	99
Es	0.920247	0.749395	-0.270973	99
Es	-0.414654	-0.043394	0.608757	99
Es	1.010385	0.014061	-0.540742	99
Es	0.521839	1.171759	-0.726403	99
Es	0.429638	-0.503036	0.237963	99
Es	0.416815	-1.028273	-0.957448	99
Es	0.213718	-0.079607	0.697876	99
Es	0.353115	-0.120865	1.015780	99
Es	-1.475309	0.163507	-0.120246	99
Es	0.469891	0.411028	0.336704	99
Es	1.552473	1.047844	-0.040741	99
Es	1.449613	-1.145596	-0.273090	99
Es	0.850795	-0.748281	-0.430398	99
Es	-1.501641	0.512797	1.045540	99
27
Properties=species:S:1:pos:R:3:Z:I:1 energy=-172.13138253571316 field_type=dipole dipole="0.000000 0.000000 0.000000" charge=0
C	-1.239611	-0.008605	0.579296	6
N	0.213849	-0.079675	0.698436	7
C	0.850879	-0.748455	-0.430544	6
C	0.920349	0.749585	-0.271084	6
H	-1.624341	0.749155	1.269866	1
H	-1.681221	-0.969605	0.862736	1
H	-1.599181	0.242405	-0.426174	1
H	0.223419	-1.160965	-1.210554	1
H	1.735969	-1.326505	-0.194884	1
H	1.853749	1.181394	0.069916	1
H	0.346139	1.371275	-0.947014	1
Es	0.850792	-0.748278	-0.430392	99
Es	-0.414531	-0.043396	0.610118	99
Es	0.417148	-1.028424	-0.956783	99
Es	0.429643	-0.505609	0.238460	99
Es	0.351846	-0.120549	1.012889	99
Es	0.522190	1.171794	-0.725760	99
Es	1.551743	1.047870	-0.040859	99
Es	1.448889	-1.145632	-0.273154	99
Es	0.213646	-0.079598	0.697804	99
Es	-1.539289	-0.667878	0.767735	99
Es	-1.474582	0.163393	-0.119488	99
Es	-1.239484	-0.008610	0.579297	99
Es	1.011418	0.014344	-0.542341	99
Es	0.920246	0.749390	-0.270972	99
Es	0.470218	0.413275	0.337879	99
Es	-1.501614	0.513594	1.045498	99
27
Properties=species:S:1:pos:R:3:Z:I:1 energy=-172.13138253571316 field_type=dipole dipole="0.000000 0.000000 0.000000" charge=0
C	-1.239611	-0.008605	0.579296	6
N	0.213849	-0.079675	0.698436	7
C	0.850879	-0.748455	-0.430544	6
C	0.920349	0.749585	-0.271084	6
H	-1.624341	0.749155	1.269866	1
H	-1.681221	-0.969605	0.862736	1
H	-1.599181	0.242405	-0.426174	1
H	0.223419	-1.160965	-1.210554	1
H	1.735969	-1.326505	-0.194884	1
H	1.853749	1.181394	0.069916	1
H	0.346139	1.371275	-0.947014	1
Es	-1.501582	0.514293	1.045488	99
Es	0.417388	-1.028491	-0.956258	99
Es	-0.414333	-0.043655	0.611176	99
Es	-1.539300	-0.668394	0.767532	99
Es	1.448289	-1.145622	-0.273287	99
Es	0.522426	1.171800	-0.725243	99
Es	1.012410	0.014451	-0.543773	99
Es	0.429550	-0.507180	0.239042	99
Es	0.850789	-0.748284	-0.430393	99
Es	0.350978	-0.120364	1.010611	99
Es	0.213648	-0.079597	0.697769	99
Es	0.470215	0.414853	0.338721	99
Es	1.551129	1.047939	-0.040880	99
Es	-1.474092	0.163155	-0.118900	99
Es	-1.239483	-0.008610	0.579298	99
Es	0.920247	0.749393	-0.270972	99
27
Properties=species:S:1:pos:R:3:Z:I:1 energy=-172.13138253571316 field_type=dipole dipole="0.000000 0.000000 0.000000" charge=0
C	-1.239611	-0.008605	0.579296	6
N	0.213849	-0.079675	0.698436	7
C	0.850879	-0.748455	-0.430544	6
C	0.920349	0.749585	-0.271084	6
H	-1.624341	0.749155	1.269866	1
H	-1.681221	-0.969605	0.862736	1
H	-1.599181	0.242405	-0.426174	1
H	0.223419	-1.160965	-1.210554	1
H	1.735969	-1.326505	-0.194884	1
H	1.853749	1.181394	0.069916	1
H	0.346139	1.371275	-0.947014	1
Es	0.429233	-0.508563	0.239320	99
Es	0.350380	-0.120295	1.008996	99
Es	1.550622	1.047959	-0.041034	99
Es	0.213654	-0.079596	0.697777	99
Es	1.447795	-1.145592	-0.273405	99
Es	0.850795	-0.748284	-0.430400	99
Es	0.417669	-1.028492	-0.955831	99
Es	1.013129	0.014550	-0.544760	99
Es	0.470308	0.416095	0.339534	99
Es	-1.539274	-0.668897	0.767286	99
Es	-0.414315	-0.043536	0.611987	99
Es	0.522671	1.171697	-0.724893	99
Es	-1.501570	0.514799	1.045489	99
Es	0.920247	0.749394	-0.270973	99
Es	-1.239488	-0.008609	0.579297	99
Es	-1.473576	0.163056	-0.118456	99
27
Properties=species:S:1:pos:R:3:Z:I:1 energy=-172.13138253571316 field_type=dipole dipole="0.000000 0.000000 0.000000" charge=0
C	-1.239611	-0.008605	0.579296	6
N	0.213849	-0.079675	0.698436	7
C	0.850879	-0.748455	-0.430544	6
C	0.920349	0.749585	-0.271084	6
H	-1.624341	0.749155	1.269866	1
H	-1.681221	-0.969605	0.862736	1
H	-1.599181	0.242405	-0.426174	1
H	0.223419	-1.160965	-1.210554	1
H	1.735969	-1.326505	-0.194884	1
H	1.853749	1.181394	0.069916	1
H	0.346139	1.371275	-0.947014	1
Es	0.429063	-0.509718	0.239794	99
Es	1.447330	-1.145500	-0.273444	99
Es	0.920248	0.749391	-0.270976	99
Es	-1.239484	-0.008610	0.579299	99
Es	-1.501453	0.515172	1.045558	99
Es	-1.539183	-0.669270	0.767152	99
Es	1.550115	1.047896	-0.041078	99
Es	0.522876	1.171745	-0.724549	99
Es	0.349997	-0.119939	1.007092	99
Es	-0.414340	-0.043738	0.613075	99
Es	0.213700	-0.079602	0.697855	99
Es	-1.473261	0.162999	-0.118168	99
Es	0.417880	-1.028599	-0.955465	99
Es	0.850795	-0.748282	-0.430396	99
Es	0.470111	0.417050	0.340002	99
Es	1.013886	0.014693	-0.545819	99
27
Properties=species:S:1:pos:R:3:Z:I:1 energy=-172.13138253571316 field_type=dipole dipole="0.000000 0.000000 0.000000" charge=0
C	-1.239611	-0.008605	0.579296	6
N	0.213849	-0.079675	0.698436	7
C	0.850879	-0.748455	-0.430544	6
C	0.920349	0.749585	-0.271084	6
H	-1.624341	0.749155	1.269866	1
H	-1.681221	-0.969605	0.862736	1
H	-1.599181	0.242405	-0.426174	1
H	0.223419	-1.160965	-1.210554	1
H	1.735969	-1.326505	-0.194884	1
H	1.853749	1.181394	0.069916	1
H	0.346139	1.371275	-0.947014	1
Es	1.014448	0.014777	-0.546457	99
Es	-1.472911	0.162939	-0.117954	99
Es	0.523046	1.171698	-0.724374	99
Es	-0.414339	-0.043894	0.614186	99
Es	0.850794	-0.748283	-0.430396	99
Es	0.418069	-1.028609	-0.955179	99
Es	0.349879	-0.120112	1.005663	99
Es	0.920245	0.749397	-0.270970	99
Es	0.428786	-0.510466	0.239755	99
Es	0.469938	0.418085	0.340748	99
Es	0.213660	-0.079594	0.697775	99
Es	1.549714	1.047848	-0.041205	99
Es	1.446963	-1.145416	-0.273545	99
Es	-1.501385	0.515495	1.045555	99
Es	-1.539144	-0.669567	0.767031	99
Es	-1.239484	-0.008610	0.579299	99
27
Properties=species:S:1:pos:R:3:Z:I:1 energy=-172.13138253571316 field_type=dipole dipole="0.000000 0.000000 0.000000" charge=0
C	-1.239611	-0.008605	0.579296	6
N	0.213849	-0.079675	0.698436	7
C	0.850879	-0.748455	-0.430544	6
C	0.920349	0.749585	-0.271084	6
H	-1.624341	0.749155	1.269866	1
H	-1.681221	-0.969605	0.862736	1
H	-1.599181	0.242405	-0.426174	1
H	0.223419	-1.160965	-1.210554	1
H	1.735969	-1.326505	-0.194884	1
H	1.853749	1.181394	0.069916	1
H	0.346139	1.371275	-0.947014	1
Es	-1.239481	-0.008610	0.579298	99
Es	0.920248	0.749393	-0.270971	99
Es	0.469571	0.418531	0.340792	99
Es	0.428856	-0.511509	0.240411	99
Es	1.014944	0.014882	-0.547172	99
Es	0.523193	1.171692	-0.724160	99
Es	0.349664	-0.119391	1.004525	99
Es	1.549412	1.047783	-0.041284	99
Es	-1.472660	0.162769	-0.117685	99
Es	0.418277	-1.028692	-0.954941	99
Es	1.446582	-1.145258	-0.273592	99
Es	-0.414453	-0.044031	0.614822	99
Es	0.850795	-0.748281	-0.430393	99
Es	-1.539038	-0.669870	0.767052	99
Es	-1.501290	0.515874	1.045471	99
Es	0.213659	-0.079594	0.697760	99
27
Properties=species:S:1:pos:R:3:Z:I:1 energy=-172.13138253571316 field_type=dipole dipole="0.000000 0.000000 0.000000" charge=0
C	-1.239611	-0.008605	0.579296	6
N	0.213849	-0.079675	0.698436	7
C	0.850879	-0.748455	-0.430544	6
C	0.920349	0.749585	-0.271084	6
H	-1.624341	0.749155	1.269866	1
H	-1.681221	-0.969605	0.862736	1
H	-1.599181	0.242405	-0.426174	1
H	0.223419	-1.160965	-1.210554	1
H	1.735969	-1.326505	-0.194884	1
H	1.853749	1.181394	0.069916	1
H	0.346139	1.371275	-0.947014	1
Es	1.015429	0.014920	-0.547954	99
Es	0.418394	-1.028654	-0.954647	99
Es	-1.539038	-0.670089	0.766929	99
Es	0.920247	0.749392	-0.270974	99
Es	0.469535	0.419068	0.340999	99
Es	0.850794	-0.748281	-0.430398	99
Es	0.213640	-0.079597	0.697781	99
Es	0.349479	-0.119214	1.003369	99
Es	0.428574	-0.512170	0.240828	99
Es	1.446280	-1.145274	-0.273660	99
Es	-0.414414	-0.044109	0.615597	99
Es	-1.472410	0.162854	-0.117570	99
Es	-1.501167	0.516003	1.045524	99
Es	1.549067	1.047661	-0.041297	99
Es	-1.239482	-0.008610	0.579299	99
Es	0.523351	1.171787	-0.723892	99
27
Properties=species:S:1:pos:R:3:Z:I:1 energy=-172.13138253571316 field_type=dipole dipole="0.000000 0.000000 0.000000" charge=0
C	-1.239611	-0.008605	0.579296	6
N	0.213849	-0.079675	0.698436	7
C	0.850879	-0.748455	-0.430544	6
C	0.920349	0.749585	-0.271084	6
H	-1.624341	0.749155	1.269866	1
H	-1.681221	-0.969605	0.862736	1
H	-1.599181	0.242405	-0.426174	1
H	0.223419	-1.160965	-1.210554	1
H	1.735969	-1.326505	-0.194884	1
H	1.853749	1.181394	0.069916	1
H	0.346139	1.371275	-0.947014	1
Es	1.548772	1.047571	-0.041346	99
Es	0.418571	-1.028607	-0.954556	99
Es	0.523536	1.171774	-0.723739	99
Es	0.469522	0.419602	0.341294	99
Es	0.920248	0.749387	-0.270978	99
Es	-1.538898	-0.670316	0.766859	99
Es	-1.239483	-0.008610	0.579299	99
Es	1.446019	-1.145233	-0.273672	99
Es	-1.501101	0.516235	1.045559	99
Es	-1.472230	0.162780	-0.117380	99
Es	1.015798	0.015013	-0.548284	99
Es	0.850794	-0.748284	-0.430395	99
Es	0.213659	-0.079597	0.697777	99
Es	0.428147	-0.512752	0.240773	99
Es	-0.414606	-0.044006	0.616387	99
Es	0.349531	-0.119271	1.002335	99
27
Properties=species:S:1:pos:R:3:Z:I:1 energy=-172.13138253571316 field_type=dipole dipole="0.000000 0.000000 0.000000" charge=0
C	-1.239611	-0.008605	0.579296	6
N	0.213849	-0.079675	0.698436	7
C	0.850879	-0.748455	-0.430544	6
C	0.920349	0.749585	-0.271084	6
H	-1.624341	0.749155	1.269866	1
H	-1.681221	-0.969605	0.862736	1
H	-1.599181	0.242405	-0.426174	1
H	0.223419	-1.160965	-1.210554	1
H	1.735969	-1.326505	-0.194884	1
H	1.853749	1.181394	0.069916	1
H	0.346139	1.371275	-0.947014	1
Es	0.850793	-0.748281	-0.430393	99
Es	0.523562	1.171733	-0.723621	99
Es	1.548554	1.047550	-0.041478	99
Es	0.469383	0.420114	0.341690	99
Es	-1.472049	0.162843	-0.117298	99
Es	0.349459	-0.119206	1.001344	99
Es	0.427993	-0.513175	0.240963	99
Es	0.920248	0.749392	-0.270974	99
Es	-1.500989	0.516337	1.045669	99
Es	1.016196	0.014996	-0.548805	99
Es	-1.239485	-0.008610	0.579299	99
Es	0.213652	-0.079591	0.697726	99
Es	0.418680	-1.028586	-0.954327	99
Es	-0.414589	-0.044190	0.617167	99
Es	-1.538849	-0.670459	0.766735	99
Es	1.445721	-1.145181	-0.273765	99
27
Properties=species:S:1:pos:R:3:Z:I:1 energy=-172.13138253571316 field_type=dipole dipole="0.000000 0.000000 0.000000" charge=0
C	-1.239611	-0.008605	0.579296	6
N	0.213849	-0.079675	0.698436	7
C	0.850879	-0.748455	-0.430544	6
C	0.920349	0.749585	-0.271084	6
H	-1.624341	0.749155	1.269866	1
H	-1.681221	-0.969605	0.862736	1
H	-1.599181	0.242405	-0.426174	1
H	0.223419	-1.160965	-1.210554	1
H	1.735969	-1.326505	-0.194884	1
H	1.853749	1.181394	0.069916	1
H	0.346139	1.371275	-0.947014	1
Es	-1.538737	-0.670605	0.766727	99
Es	0.213641	-0.079594	0.697764	99
Es	0.427603	-0.513371	0.241074	99
Es	0.349844	-0.119205	1.000277	99
Es	0.469256	0.420454	0.341559	99
Es	-1.501032	0.516614	1.045580	99
Es	0.920248	0.749394	-0.270973	99
Es	-1.239485	-0.008610	0.579299	99
Es	0.523718	1.171844	-0.723522	99
Es	-0.414829	-0.044270	0.618360	99
Es	-1.471777	0.162657	-0.117191	99
Es	1.548270	1.047394	-0.041451	99
Es	1.445531	-1.145031	-0.273763	99
Es	0.418723	-1.028712	-0.954267	99
Es	0.850795	-0.748279	-0.430398	99
Es	1.016511	0.015007	-0.549141	99
27
Properties=species:S:1:pos:R:3:Z:I:1 energy=-172.13138253571316 field_type=dipole dipole="0.000000 0.000000 0.000000" charge=0
C	-1.239611	-0.008605	0.579296	6
N	0.213849	-0.079675	0.698436	7
C	0.850879	-0.748455	-0.430544	6
C	0.920349	0.749585	-0.271084	6
H	-1.624341	0.749155	1.269866	1
H	-1.681221	-0.969605	0.862736	1
H	-1.599181	0.242405	-0.426174	1
H	0.223419	-1.160965	-1.210554	1
H	1.735969	-1.326505	-0.194884	1
H	1.853749	1.181394	0.069916	1
H	0.346139	1.371275	-0.947014	1
Es	1.548074	1.047423	-0.041486	99
Es	0.523786	1.171766	-0.723378	99
Es	-1.471638	0.162714	-0.117140	99
Es	1.445273	-1.145006	-0.273852	99
Es	-1.500917	0.516687	1.045598	99
Es	-1.538706	-0.670748	0.766701	99
Es	-1.239484	-0.008610	0.579299	99
Es	0.850789	-0.748286	-0.430392	99
Es	0.349661	-0.118792	0.999632	99
Es	-0.414857	-0.044264	0.618706	99
Es	0.469070	0.420586	0.341619	99
Es	0.418860	-1.028652	-0.954039	99
Es	1.016881	0.015127	-0.549638	99
Es	0.920247	0.749385	-0.270976	99
Es	0.213669	-0.079599	0.697807	99
Es	0.427573	-0.514044	0.241472	99
27
Properties=species:S:1:pos:R:3:Z:I:1 energy=-172.13138253571316 field_type=dipole dipole="0.000000 0.000000 0.000000" charge=0
C	-1.239611	-0.008605	0.579296	6
N	0.213849	-0.079675	0.698436	7
C	0.850879	-0.748455	-0.430544	6
C	0.920349	0.749585	-0.271084	6
H	-1.624341	0.749155	1.269866	1
H	-1.681221	-0.969605	0.862736	1
H	-1.599181	0.242405	-0.426174	1
H	0.223419	-1.160965	-1.210554	1
H	1.735969	-1.326505	-0.194884	1
H	1.853749	1.181394	0.069916	1
H	0.346139	1.371275	-0.947014	1
Es	0.468748	0.421060	0.341859	99
Es	0.418958	-1.028757	-0.954037	99
Es	0.213626	-0.079586	0.697699	99
Es	1.016992	0.015131	-0.549714	99
Es	-0.415065	-0.044481	0.620007	99
Es	0.523894	1.171791	-0.723399	99
Es	1.445163	-1.144841	-0.273824	99
Es	-1.239483	-0.008610	0.579300	99
Es	-1.471428	0.162725	-0.117110	99
Es	0.427457	-0.514265	0.241327	99
Es	1.547928	1.047292	-0.041565	99
Es	0.920248	0.749390	-0.270974	99
Es	-1.500905	0.516775	1.045644	99
Es	0.349942	-0.118762	0.998504	99
Es	0.850794	-0.748280	-0.430396	99
Es	-1.538591	-0.670895	0.766612	99
27
Properties=species:S:1:pos:R:3:Z:I:1 energy=-172.13138253571316 field_type=dipole dipole="0.000000 0.000000 0.000000" charge=0
C	-1.239611	-0.008605	0.579296	6
N	0.213849	-0.079675	0.698436	7
C	0.850879	-0.748455	-0.430544	6
C	0.920349	0.749585	-0.271084	6
H	-1.624341	0.749155	1.269866	1
H	-1.681221	-0.969605	0.862736	1
H	-1.599181	0.242405	-0.426174	1
H	0.223419	-1.160965	-1.210554	1
H	1.735969	-1.326505	-0.194884	1
H	1.853749	1.181394	0.069916	1
H	0.346139	1.371275	-0.947014	1
Es	0.850791	-0.748281	-0.430394	99
Es	0.349984	-0.118901	0.997312	99
Es	1.017360	0.015060	-0.550137	99
Es	-1.500819	0.516865	1.045607	99
Es	0.213651	-0.079592	0.697740	99
Es	0.468818	0.421429	0.342285	99
Es	0.418961	-1.028805	-0.953934	99
Es	-1.471257	0.162700	-0.117228	99
Es	-1.239485	-0.008609	0.579300	99
Es	-0.415302	-0.044560	0.621016	99
Es	1.547701	1.047098	-0.041603	99
Es	0.523974	1.171953	-0.723259	99
Es	1.444910	-1.144835	-0.273791	99
Es	-1.538535	-0.670961	0.766701	99
Es	0.427276	-0.514272	0.241292	99
Es	0.920252	0.749397	-0.270973	99
27
Properties=species:S:1:pos:R:3:Z:I:1 energy=-172.13138253571316 field_type=dipole dipole="0.000000 0.000000 0.000000" charge=0
C	-1.239611	-0.008605	0.579296	6
N	0.213849	-0.079675	0.698436	7
C	0.850879	-0.748455	-0.430544	6
C	0.920349	0.749585	-0.271084	6
H	-1.624341	0.749155	1.269866	1
H	-1.681221	-0.969605	0.862736	1
H	-1.599181	0.242405	-0.426174	1
H	0.223419	-1.160965	-1.210554	1
H	1.735969	-1.326505	-0.194884	1
H	1.853749	1.181394	0.069916	1
H	0.346139	1.371275	-0.947014	1
Es	-1.471142	0.162673	-0.116950	99
Es	1.547558	1.047083	-0.041605	99
Es	0.349544	-0.118934	0.997649	99
Es	0.419095	-1.028655	-0.953684	99
Es	0.468787	0.421711	0.342483	99
Es	-1.239490	-0.008610	0.579296	99
Es	1.444777	-1.144857	-0.273931	99
Es	0.920243	0.749390	-0.270973	99
Es	1.017556	0.015104	-0.550529	99
Es	0.524121	1.171881	-0.723178	99
Es	0.213642	-0.079590	0.697733	99
Es	-1.500769	0.517015	1.045641	99
Es	-0.415104	-0.044500	0.620269	99
Es	0.850792	-0.748279	-0.430394	99
Es	0.427186	-0.514653	0.241549	99
Es	-1.538517	-0.671093	0.766554	99
27
Properties=species:S:1:pos:R:3:Z:I:1 energy=-172.13138253571316 field_type=dipole dipole="0.000000 0.000000 0.000000" charge=0
C	-1.239611	-0.008605	0.579296	6
N	0.213849	-0.079675	0.698436	7
C	0.850879	-0.748455	-0.430544	6
C	0.920349	0.749585	-0.271084	6
H	-1.624341	0.749155	1.269866	1
H	-1.681221	-0.969605	0.862736	1
H	-1.599181	0.242405	-0.426174	1
H	0.223419	-1.160965	-1.210554	1
H	1.735969	-1.326505	-0.194884	1
H	1.853749	1.181394	0.069916	1
H	0.346139	1.371275	-0.947014	1
Es	-1.500700	0.517127	1.045579	99
Es	1.444659	-1.144669	-0.273863	99
Es	0.419173	-1.028833	-0.953672	99
Es	0.427077	-0.514902	0.241675	99
Es	0.468529	0.421695	0.342314	99
Es	0.850784	-0.748281	-0.430399	99
Es	-1.239483	-0.008610	0.579299	99
Es	0.213669	-0.079598	0.697794	99
Es	0.349887	-0.118605	0.996568	99
Es	1.547398	1.047018	-0.041605	99
Es	0.920248	0.749392	-0.270977	99
Es	-1.470981	0.162632	-0.117009	99
Es	-0.415376	-0.044653	0.621479	99
Es	-1.538478	-0.671166	0.766627	99
Es	1.017733	0.015183	-0.550786	99
Es	0.524142	1.171955	-0.723091	99
27
Properties=species:S:1:pos:R:3:Z:I:1 energy=-172.13138253571316 field_type=dipole dipole="0.000000 0.000000 0.000000" charge=0
C	-1.239611	-0.008605	0.579296	6
N	0.213849	-0.079675	0.698436	7
C	0.850879	-0.748455	-0.430544	6
C	0.920349	0.749585	-0.271084	6
H	-1.624341	0.749155	1.269866	1
H	-1.681221	-0.969605	0.862736	1
H	-1.599181	0.242405	-0.426174	1
H	0.223419	-1.160965	-1.210554	1
H	1.735969	-1.326505	-0.194884	1
H	1.853749	1.181394	0.069916	1
H	0.346139	1.371275	-0.947014	1
Es	-0.415328	-0.044718	0.622477	99
Es	0.524143	1.171943	-0.723021	99
Es	-1.470977	0.162643	-0.116997	99
Es	1.547269	1.047008	-0.041644	99
Es	1.444531	-1.144590	-0.273875	99
Es	-1.500637	0.517156	1.045648	99
Es	1.017925	0.015228	-0.550923	99
Es	0.419224	-1.028856	-0.953658	99
Es	0.850788	-0.748276	-0.430388	99
Es	-1.239482	-0.008610	0.579299	99
Es	0.426821	-0.515192	0.241692	99
Es	0.468345	0.421845	0.342241	99
Es	0.213614	-0.079585	0.697692	99
Es	0.350156	-0.118463	0.995753	99
Es	-1.538365	-0.671241	0.766614	99
Es	0.920252	0.749394	-0.270978	99
27
Properties=species:S:1:pos:R:3:Z:I:1 energy=-172.13138253571316 field_type=dipole dipole="0.000000 0.000000 0.000000" charge=0
C	-1.239611	-0.008605	0.579296	6
N	0.213849	-0.079675	0.698436	7
C	0.850879	-0.748455	-0.430544	6
C	0.920349	0.749585	-0.271084	6
H	-1.624341	0.749155	1.269866	1
H	-1.681221	-0.969605	0.862736	1
H	-1.599181	0.242405	-0.426174	1
H	0.223419	-1.160965	-1.210554	1
H	1.735969	-1.326505	-0.194884	1
H	1.853749	1.181394	0.069916	1
H	0.346139	1.371275	-0.947014	1
Es	-1.500639	0.517282	1.045613	99
Es	-1.538337	-0.671308	0.766580	99
Es	1.547124	1.047039	-0.041641	99
Es	0.524208	1.171879	-0.722972	99
Es	1.444383	-1.144631	-0.273931	99
Es	0.213610	-0.079584	0.697680	99
Es	-0.415361	-0.044813	0.622985	99
Es	0.468118	0.422011	0.342272	99
Es	1.018176	0.015262	-0.551171	99
Es	0.350310	-0.118503	0.995393	99
Es	0.920256	0.749393	-0.270969	99
Es	0.850786	-0.748276	-0.430391	99
Es	-1.239485	-0.008610	0.579300	99
Es	0.426674	-0.515244	0.241611	99
Es	-1.470806	0.162579	-0.116926	99
Es	0.419262	-1.028789	-0.953502	99
27
Properties=species:S:1:pos:R:3:Z:I:1 energy=-172.13138253571316 field_type=dipole dipole="0.000000 0.000000 0.000000" charge=0
C	-1.239611	-0.008605	0.579296	6
N	0.213849	-0.079675	0.698436	7
C	0.850879	-0.748455	-0.430544	6
C	0.920349	0.749585	-0.271084	6
H	-1.624341	0.749155	1.269866	1
H	-1.681221	-0.969605	0.862736	1
H	-1.599181	0.242405	-0.426174	1
H	0.223419	-1.160965	-1.210554	1
H	1.735969	-1.326505	-0.194884	1
H	1.853749	1.181394	0.069916	1
H	0.346139	1.371275	-0.947014	1
Es	-1.538284	-0.671349	0.766609	99
Es	0.468211	0.422297	0.342552	99
Es	1.018137	0.015234	-0.551180	99
Es	0.850792	-0.748280	-0.430394	99
Es	-1.470552	0.162607	-0.117132	99
Es	-0.415738	-0.044902	0.623737	99
Es	0.426749	-0.515580	0.241806	99
Es	-1.500589	0.517320	1.045619	99
Es	0.350111	-0.118340	0.994419	99
Es	0.920247	0.749396	-0.270973	99
Es	0.213648	-0.079590	0.697720	99
Es	-1.239483	-0.008610	0.579299	99
Es	0.419333	-1.028893	-0.953538	99
Es	1.444330	-1.144460	-0.273918	99
Es	0.524271	1.171943	-0.722970	99
Es	1.547096	1.046893	-0.041723	99
27
Properties=species:S:1:pos:R:3:Z:I:1 energy=-172.13138253571316 field_type=dipole dipole="0.000000 0.000000 0.000000" charge=0
C	-1.239611	-0.008605	0.579296	6
N	0.213849	-0.079675	0.698436	7
C	0.850879	-0.748455	-0.430544	6
C	0.920349	0.749585	-0.271084	6
H	-1.624341	0.749155	1.269866	1
H	-1.681221	-0.969605	0.862736	1
H	-1.599181	0.242405	-0.426174	1
H	0.223419	-1.160965	-1.210554	1
H	1.735969	-1.326505	-0.194884	1
H	1.853749	1.181394	0.069916	1
H	0.346139	1.371275	-0.947014	1
Es	-1.500522	0.517431	1.045570	99
Es	-0.415738	-0.044809	0.623599	99
Es	0.468084	0.422164	0.342578	99
Es	-1.538271	-0.671463	0.766596	99
Es	-1.239478	-0.008610	0.579299	99
Es	0.426675	-0.515735	0.241821	99
Es	0.419424	-1.028971	-0.953379	99
Es	0.350123	-0.118275	0.994485	99
Es	-1.470501	0.162578	-0.116945	99
Es	1.018376	0.015363	-0.551614	99
Es	0.524321	1.172037	-0.722849	99
Es	1.444165	-1.144366	-0.273902	99
Es	0.213647	-0.079590	0.697718	99
Es	0.850794	-0.748281	-0.430395	99
Es	0.920240	0.749392	-0.270970	99
Es	1.546940	1.046821	-0.041679	99
27
Properties=species:S:1:pos:R:3:Z:I:1 energy=-172.13138253571316 field_type=dipole dipole="0.000000 0.000000 0.000000" charge=0
C	-1.239611	-0.008605	0.579296	6
N	0.213849	-0.079675	0.698436	7
C	0.850879	-0.748455	-0.430544	6
C	0.920349	0.749585	-0.271084	6
H	-1.624341	0.749155	1.269866	1
H	-1.681221	-0.969605	0.862736	1
H	-1.599181	0.242405	-0.426174	1
H	0.223419	-1.160965	-1.210554	1
H	1.735969	-1.326505	-0.194884	1
H	1.853749	1.181394	0.069916	1
H	0.346139	1.371275	-0.947014	1
Es	0.468030	0.422454	0.342615	99
Es	1.018440	0.015347	-0.551519	99
Es	-0.416102	-0.044993	0.624923	99
Es	-1.239486	-0.008610	0.579299	99
Es	-1.500452	0.517408	1.045686	99
Es	0.524367	1.172027	-0.722881	99
Es	0.350459	-0.118282	0.993245	99
Es	0.920247	0.749394	-0.270973	99
Es	-1.538168	-0.671497	0.766566	99
Es	0.850791	-0.748275	-0.430396	99
Es	0.213657	-0.079596	0.697777	99
Es	0.419380	-1.028969	-0.953445	99
Es	1.444150	-1.144360	-0.273919	99
Es	0.426491	-0.515783	0.241796	99
Es	1.546834	1.046768	-0.041732	99
Es	-1.470360	0.162653	-0.117109	99
27
Properties=species:S:1:pos:R:3:Z:I:1 energy=-172.13138253571316 field_type=dipole dipole="0.000000 0.000000 0.000000" charge=0
C	-1.239611	-0.008605	0.579296	6
N	0.213849	-0.079675	0.698436	7
C	0.850879	-0.748455	-0.430544	6
C	0.920349	0.749585	-0.271084	6
H	-1.624341	0.749155	1.269866	1
H	-1.681221	-0.969605	0.862736	1
H	-1.599181	0.242405	-0.426174	1
H	0.223419	-1.160965	-1.210554	1
H	1.735969	-1.326505	-0.194884	1
H	1.853749	1.181394	0.069916	1
H	0.346139	1.371275	-0.947014	1
Es	1.018544	0.015281	-0.551622	99
Es	0.524441	1.172310	-0.722874	99
Es	-0.416344	-0.045124	0.625694	99
Es	0.467983	0.422512	0.342522	99
Es	0.426518	-0.515875	0.241898	99
Es	1.546689	1.046509	-0.041678	99
Es	-1.470291	0.162646	-0.117134	99
Es	0.419468	-1.029255	-0.953521	99
Es	0.213645	-0.079587	0.697741	99
Es	0.850792	-0.748276	-0.430393	99
Es	-1.538122	-0.671539	0.766607	99
Es	0.920243	0.749393	-0.270972	99
Es	-1.239489	-0.008609	0.579295	99
Es	0.350596	-0.118105	0.992511	99
Es	1.444000	-1.144042	-0.273823	99
Es	-1.500393	0.517447	1.045680	99
27
Properties=species:S:1:pos:R:3:Z:I:1 energy=-172.13138253571316 field_type=dipole dipole="0.000000 0.000000 0.000000" charge=0
C	-1.239611	-0.008605	0.579296	6
N	0.213849	-0.079675	0.698436	7
C	0.850879	-0.748455	-0.430544	6
C	0.920349	0.749585	-0.271084	6
H	-1.624341	0.749155	1.269866	1
H	-1.681221	-0.969605	0.862736	1
H	-1.599181	0.242405	-0.426174	1
H	0.223419	-1.160965	-1.210554	1
H	1.735969	-1.326505	-0.194884	1
H	1.853749	1.181394	0.069916	1
H	0.346139	1.371275	-0.947014	1
Es	1.018584	0.015296	-0.551778	99
Es	-1.239486	-0.008610	0.579299	99
Es	0.467889	0.422647	0.342549	99
Es	0.426224	-0.515983	0.241823	99
Es	0.350712	-0.118158	0.992069	99
Es	0.419524	-1.029089	-0.953410	99
Es	1.443967	-1.144159	-0.273880	99
Es	0.524426	1.172166	-0.722789	99
Es	-1.538118	-0.671566	0.766626	99
Es	-1.470061	0.162633	-0.117238	99
Es	0.850795	-0.748280	-0.430392	99
Es	-1.500363	0.517525	1.045646	99
Es	-0.416431	-0.045166	0.626339	99
Es	0.920249	0.749393	-0.270967	99
Es	1.546716	1.046629	-0.041713	99
Es	0.213651	-0.079593	0.697750	99
27
Properties=species:S:1:pos:R:3:Z:I:1 energy=-172.13138253571316 field_type=dipole dipole="0.000000 0.000000 0.000000" charge=0
C	-1.239611	-0.008605	0.579296	6
N	0.213849	-0.079675	0.698436	7
C	0.850879	-0.748455	-0.430544	6
C	0.920349	0.749585	-0.271084	6
H	-1.624341	0.749155	1.269866	1
H	-1.681221	-0.969605	0.862736	1
H	-1.599181	0.242405	-0.426174	1
H	0.223419	-1.160965	-1.210554	1
H	1.735969	-1.326505	-0.194884	1
H	1.853749	1.181394	0.069916	1
H	0.346139	1.371275	-0.947014	1
Es	-1.470010	0.162670	-0.117163	99
Es	1.018755	0.015355	-0.551987	99
Es	0.213632	-0.079588	0.697708	99
Es	-1.239490	-0.008609	0.579298	99
Es	0.350381	-0.118073	0.992075	99
Es	0.426465	-0.516175	0.242093	99
Es	0.524499	1.172153	-0.722760	99
Es	-0.416355	-0.045201	0.625997	99
Es	-1.500371	0.517522	1.045711	99
Es	0.419497	-1.029092	-0.953305	99
Es	0.850802	-0.748288	-0.430383	99
Es	0.467859	0.422784	0.342806	99
Es	0.920246	0.749392	-0.270971	99
Es	1.443856	-1.144131	-0.273951	99
Es	1.546608	1.046579	-0.041747	99
Es	-1.538094	-0.671611	0.766512	99
27
Properties=species:S:1:pos:R:3:Z:I:1 energy=-172.13138253571316 field_type=dipole dipole="0.000000 0.000000 0.000000" charge=0
C	-1.239611	-0.008605	0.579296	6
N	0.213849	-0.079675	0.698436	7
C	0.850879	-0.748455	-0.430544	6
C	0.920349	0.749585	-0.271084	6
H	-1.624341	0.749155	1.269866	1
H	-1.681221	-0.969605	0.862736	1
H	-1.599181	0.242405	-0.426174	1
H	0.223419	-1.160965	-1.210554	1
H	1.735969	-1.326505	-0.194884	1
H	1.853749	1.181394	0.069916	1
H	0.346139	1.371275	-0.947014	1
Es	0.213637	-0.079590	0.697718	99
Es	0.524530	1.172206	-0.722743	99
Es	1.018831	0.015317	-0.551981	99
Es	1.443817	-1.144064	-0.273889	99
Es	-1.500385	0.517559	1.045690	99
Es	0.850792	-0.748279	-0.430395	99
Es	0.467515	0.422699	0.342112	99
Es	-1.469902	0.162665	-0.117140	99
Es	0.426166	-0.516217	0.242108	99
Es	0.920247	0.749395	-0.270974	99
Es	0.351009	-0.117726	0.991293	99
Es	0.419470	-1.029208	-0.953349	99
Es	-0.416431	-0.045320	0.627407	99
Es	-1.538048	-0.671679	0.766488	99
Es	-1.239486	-0.008610	0.579298	99
Es	1.546518	1.046537	-0.041708	99
27
Properties=species:S:1:pos:R:3:Z:I:1 energy=-172.13138253571316 field_type=dipole dipole="0.000000 0.000000 0.000000" charge=0
C	-1.239611	-0.008605	0.579296	6
N	0.213849	-0.079675	0.698436	7
C	0.850879	-0.748455	-0.430544	6
C	0.920349	0.749585	-0.271084	6
H	-1.624341	0.749155	1.269866	1
H	-1.681221	-0.969605	0.862736	1
H	-1.599181	0.242405	-0.426174	1
H	0.223419	-1.160965	-1.210554	1
H	1.735969	-1.326505	-0.194884	1
H	1.853749	1.181394	0.069916	1
H	0.346139	1.371275	-0.947014	1
Es	-1.500255	0.517562	1.045708	99
Es	-1.239484	-0.008610	0.579299	99
Es	0.419492	-1.029135	-0.953377	99
Es	1.546465	1.046582	-0.041776	99
Es	1.018909	0.015326	-0.551922	99
Es	0.425889	-0.516202	0.241793	99
Es	0.467794	0.422888	0.342723	99
Es	0.350972	-0.118110	0.990444	99
Es	-1.537957	-0.671704	0.766620	99
Es	0.524476	1.172137	-0.722795	99
Es	1.443817	-1.144082	-0.273933	99
Es	0.213651	-0.079592	0.697742	99
Es	0.920249	0.749391	-0.270973	99
Es	-0.416657	-0.045167	0.628057	99
Es	0.850789	-0.748279	-0.430389	99
Es	-1.469870	0.162681	-0.117289	99
27
Properties=species:S:1:pos:R:3:Z:I:1 energy=-172.13138253571316 field_type=dipole dipole="0.000000 0.000000 0.000000" charge=0
C	-1.239611	-0.008605	0.579296	6
N	0.213849	-0.079675	0.698436	7
C	0.850879	-0.748455	-0.430544	6
C	0.920349	0.749585	-0.271084	6
H	-1.624341	0.749155	1.269866	1
H	-1.681221	-0.969605	0.862736	1
H	-1.599181	0.242405	-0.426174	1
H	0.223419	-1.160965	-1.210554	1
H	1.735969	-1.326505	-0.194884	1
H	1.853749	1.181394	0.069916	1
H	0.346139	1.371275	-0.947014	1
Es	0.467605	0.422991	0.342757	99
Es	1.443695	-1.143973	-0.273884	99
Es	-1.239486	-0.008610	0.579299	99
Es	-1.537935	-0.671702	0.766529	99
Es	0.426117	-0.516310	0.241868	99
Es	1.546429	1.046545	-0.041743	99
Es	-1.500279	0.517569	1.045779	99
Es	0.350923	-0.117956	0.990059	99
Es	0.850793	-0.748278	-0.430396	99
Es	0.524489	1.172199	-0.722789	99
Es	0.419576	-1.029222	-0.953332	99
Es	-0.416864	-0.045449	0.628382	99
Es	-1.469676	0.162716	-0.117364	99
Es	0.213651	-0.079595	0.697763	99
Es	0.920247	0.749392	-0.270971	99
Es	1.018994	0.015368	-0.552025	99
27
Properties=species:S:1:pos:R:3:Z:I:1 energy=-172.13138253571316 field_type=dipole dipole="0.000000 0.000000 0.000000" charge=0
C	-1.239611	-0.008605	0.579296	6
N	0.213849	-0.079675	0.698436	7
C	0.850879	-0.748455	-0.430544	6
C	0.920349	0.749585	-0.271084	6
H	-1.624341	0.749155	1.269866	1
H	-1.681221	-0.969605	0.862736	1
H	-1.599181	0.242405	-0.426174	1
H	0.223419	-1.160965	-1.210554	1
H	1.735969	-1.326505	-0.194884	1
H	1.853749	1.181394	0.069916	1
H	0.346139	1.371275	-0.947014	1
Es	-1.469517	0.162675	-0.117238	99
Es	-1.538028	-0.671800	0.766569	99
Es	0.524550	1.172222	-0.722547	99
Es	0.426191	-0.516641	0.242212	99
Es	0.467458	0.422777	0.342566	99
Es	-0.416828	-0.045405	0.628064	99
Es	-1.500215	0.517703	1.045612	99
Es	0.850790	-0.748277	-0.430392	99
Es	0.920245	0.749391	-0.270967	99
Es	0.419671	-1.029291	-0.953317	99
Es	1.546380	1.046492	-0.041782	99
Es	1.018985	0.015488	-0.552378	99
Es	-1.239486	-0.008610	0.579298	99
Es	0.350785	-0.117588	0.990408	99
Es	0.213619	-0.079585	0.697689	99
Es	1.443681	-1.143863	-0.273863	99
27
Properties=species:S:1:pos:R:3:Z:I:1 energy=-172.13138253571316 field_type=dipole dipole="0.000000 0.000000 0.000000" charge=0
C	-1.239611	-0.008605	0.579296	6
N	0.213849	-0.079675	0.698436	7
C	0.850879	-0.748455	-0.430544	6
C	0.920349	0.749585	-0.271084	6
H	-1.624341	0.749155	1.269866	1
H	-1.681221	-0.969605	0.862736	1
H	-1.599181	0.242405	-0.426174	1
H	0.223419	-1.160965	-1.210554	1
H	1.735969	-1.326505	-0.194884	1
H	1.853749	1.181394	0.069916	1
H	0.346139	1.371275	-0.947014	1
Es	0.524584	1.172301	-0.722681	99
Es	0.426124	-0.516537	0.242062	99
Es	0.467639	0.423140	0.342856	99
Es	-1.239485	-0.008610	0.579299	99
Es	-1.537926	-0.671739	0.766551	99
Es	-1.500251	0.517613	1.045742	99
Es	0.419651	-1.029364	-0.953260	99
Es	-1.469477	0.162718	-0.117440	99
Es	0.350683	-0.117820	0.989516	99
Es	-0.416943	-0.045477	0.628817	99
Es	0.920246	0.749393	-0.270975	99
Es	1.019082	0.015359	-0.552306	99
Es	0.850791	-0.748274	-0.430392	99
Es	0.213678	-0.079596	0.697758	99
Es	1.546287	1.046394	-0.041758	99
Es	1.443596	-1.143815	-0.273859	99
