26
Properties=species:S:1:pos:R:3:Z:I:1 energy=-191.97913078045264 field_type=dipole dipole="0.000000 0.000000 0.000000" charge=0
C	-1.161662	0.280251	0.325012	6
C	0.314898	0.142251	0.430662	6
C	1.117378	-0.486139	-0.675728	6
O	1.057118	0.938381	-0.498488	8
H	-1.516362	1.066781	0.998552	1
H	-1.648122	-0.657769	0.610312	1
H	-1.480122	0.534441	-0.691608	1
H	0.673058	0.069631	1.447752	1
H	0.597768	-0.907769	-1.526658	1
H	2.046048	-0.980059	-0.419808	1
Es	1.322991	1.036199	-0.373474	99
Es	1.144837	0.406971	-0.654794	99
Es	0.766426	-0.767796	-1.261134	99
Es	0.854948	1.052680	-0.701508	99
Es	0.565359	0.099678	1.125021	99
Es	-1.395788	0.813139	0.783922	99
Es	-1.369699	0.446412	-0.363431	99
Es	1.117356	-0.485836	-0.675678	99
Es	0.315051	0.142405	0.430439	99
Es	-1.484156	-0.358108	0.524012	99
Es	1.755001	-0.817454	-0.508107	99
Es	0.753711	0.730391	-0.089811	99
Es	0.647922	-0.398793	-0.056108	99
Es	-0.426173	0.209005	0.370647	99
Es	-1.161646	0.280238	0.325029	99
Es	1.056996	0.938080	-0.498403	99
26
Properties=species:S:1:pos:R:3:Z:I:1 energy=-191.97913078045264 field_type=dipole dipole="0.000000 0.000000 0.000000" charge=0
C	-1.161662	0.280251	0.325012	6
C	0.314898	0.142251	0.430662	6
C	1.117378	-0.486139	-0.675728	6
O	1.057118	0.938381	-0.498488	8
H	-1.516362	1.066781	0.998552	1
H	-1.648122	-0.657769	0.610312	1
H	-1.480122	0.534441	-0.691608	1
H	0.673058	0.069631	1.447752	1
H	0.597768	-0.907769	-1.526658	1
H	2.046048	-0.980059	-0.419808	1
Es	0.752265	0.733818	-0.085063	99
Es	-1.161645	0.280238	0.325029	99
Es	-1.483534	-0.359077	0.523254	99
Es	0.315052	0.142407	0.430439	99
Es	1.754598	-0.816776	-0.509175	99
Es	0.564735	0.100469	1.124654	99
Es	1.057039	0.938088	-0.498396	99
Es	-1.396126	0.814898	0.784910	99
Es	0.646826	-0.401675	-0.055105	99
Es	0.767603	-0.767189	-1.261126	99
Es	0.859309	1.054268	-0.699242	99
Es	-1.368441	0.445654	-0.362770	99
Es	1.117358	-0.485831	-0.675678	99
Es	-0.426793	0.209681	0.370265	99
Es	1.147956	0.405434	-0.658658	99
Es	1.316934	1.032803	-0.376713	99
26
Properties=species:S:1:pos:R:3:Z:I:1 energy=-191.97913078045264 field_type=dipole dipole="0.000000 0.000000 0.000000" charge=0
C	-1.161662	0.280251	0.325012	6
C	0.314898	0.142251	0.430662	6
C	1.117378	-0.486139	-0.675728	6
O	1.057118	0.938381	-0.498488	8
H	-1.516362	1.066781	0.998552	1
H	-1.648122	-0.657769	0.610312	1
H	-1.480122	0.534441	-0.691608	1
H	0.673058	0.069631	1.447752	1
H	0.597768	-0.907769	-1.526658	1
H	2.046048	-0.980059	-0.419808	1
Es	1.056945	0.938057	-0.498428	99
Es	0.315049	0.142402	0.430441	99
Es	0.564367	0.100911	1.124309	99
Es	-1.367431	0.445223	-0.362360	99
Es	1.151651	0.404952	-0.661704	99
Es	-1.483048	-0.359867	0.522740	99
Es	1.311171	1.029660	-0.377614	99
Es	0.750614	0.735854	-0.082807	99
Es	1.117358	-0.485828	-0.675678	99
Es	-0.427415	0.210316	0.370232	99
Es	-1.161644	0.280238	0.325028	99
Es	0.768463	-0.766664	-1.260983	99
Es	-1.396276	0.816013	0.785494	99
Es	1.754279	-0.816267	-0.510030	99
Es	0.645822	-0.403722	-0.054278	99
Es	0.863231	1.055931	-0.697739	99
26
Properties=species:S:1:pos:R:3:Z:I:1 energy=-191.97913078045264 field_type=dipole dipole="0.000000 0.000000 0.000000" charge=0
C	-1.161662	0.280251	0.325012	6
C	0.314898	0.142251	0.430662	6
C	1.117378	-0.486139	-0.675728	6
O	1.057118	0.938381	-0.498488	8
H	-1.516362	1.066781	0.998552	1
H	-1.648122	-0.657769	0.610312	1
H	-1.480122	0.534441	-0.691608	1
H	0.673058	0.069631	1.447752	1
H	0.597768	-0.907769	-1.526658	1
H	2.046048	-0.980059	-0.419808	1
Es	-1.366577	0.444872	-0.361910	99
Es	0.315048	0.142406	0.430439	99
Es	-0.427873	0.210744	0.370098	99
Es	1.753914	-0.815846	-0.510447	99
Es	0.750047	0.737650	-0.080388	99
Es	1.057040	0.938101	-0.498388	99
Es	1.117357	-0.485829	-0.675677	99
Es	1.307255	1.026094	-0.379008	99
Es	0.645191	-0.405338	-0.053829	99
Es	1.153144	0.405147	-0.664370	99
Es	-1.482701	-0.360519	0.522320	99
Es	0.769196	-0.766373	-1.260934	99
Es	0.563994	0.101349	1.124091	99
Es	-1.396391	0.816895	0.785832	99
Es	-1.161644	0.280238	0.325030	99
Es	0.866135	1.057616	-0.696234	99
26
Properties=species:S:1:pos:R:3:Z:I:1 energy=-191.97913078045264 field_type=dipole dipole="0.000000 0.000000 0.000000" charge=0
C	-1.161662	0.280251	0.325012	6
C	0.314898	0.142251	0.430662	6
C	1.117378	-0.486139	-0.675728	6
O	1.057118	0.938381	-0.498488	8
H	-1.516362	1.066781	0.998552	1
H	-1.648122	-0.657769	0.610312	1
H	-1.480122	0.534441	-0.691608	1
H	0.673058	0.069631	1.447752	1
H	0.597768	-0.907769	-1.526658	1
H	2.046048	-0.980059	-0.419808	1
Es	1.057021	0.938069	-0.498384	99
Es	-1.482394	-0.361117	0.522003	99
Es	-1.396384	0.817585	0.786089	99
Es	1.303434	1.020919	-0.378578	99
Es	1.154333	0.405249	-0.666427	99
Es	1.753578	-0.815433	-0.510984	99
Es	-0.428455	0.211151	0.369982	99
Es	0.563721	0.101664	1.123779	99
Es	0.644740	-0.406653	-0.053170	99
Es	0.748498	0.739398	-0.079464	99
Es	-1.365900	0.444623	-0.361491	99
Es	-1.161645	0.280238	0.325029	99
Es	0.870466	1.061043	-0.695726	99
Es	0.315047	0.142404	0.430441	99
Es	0.769709	-0.766100	-1.260800	99
Es	1.117366	-0.485830	-0.675675	99
26
Properties=species:S:1:pos:R:3:Z:I:1 energy=-191.97913078045264 field_type=dipole dipole="0.000000 0.000000 0.000000" charge=0
C	-1.161662	0.280251	0.325012	6
C	0.314898	0.142251	0.430662	6
C	1.117378	-0.486139	-0.675728	6
O	1.057118	0.938381	-0.498488	8
H	-1.516362	1.066781	0.998552	1
H	-1.648122	-0.657769	0.610312	1
H	-1.480122	0.534441	-0.691608	1
H	0.673058	0.069631	1.447752	1
H	0.597768	-0.907769	-1.526658	1
H	2.046048	-0.980059	-0.419808	1
Es	0.315053	0.142406	0.430442	99
Es	1.056892	0.938032	-0.498448	99
Es	-1.161647	0.280239	0.325026	99
Es	1.753303	-0.815005	-0.511419	99
Es	-0.428806	0.211507	0.369850	99
Es	0.747089	0.740353	-0.079205	99
Es	0.644408	-0.407732	-0.052636	99
Es	1.155836	0.405612	-0.668180	99
Es	-1.482122	-0.361632	0.521714	99
Es	1.298796	1.014444	-0.377234	99
Es	0.875183	1.066308	-0.695627	99
Es	0.563541	0.101917	1.123524	99
Es	1.117353	-0.485831	-0.675679	99
Es	-1.365387	0.444356	-0.360963	99
Es	-1.396492	0.818150	0.786199	99
Es	0.770136	-0.765917	-1.260741	99
26
Properties=species:S:1:pos:R:3:Z:I:1 energy=-191.97913078045264 field_type=dipole dipole="0.000000 0.000000 0.000000" charge=0
C	-1.161662	0.280251	0.325012	6
C	0.314898	0.142251	0.430662	6
C	1.117378	-0.486139	-0.675728	6
O	1.057118	0.938381	-0.498488	8
H	-1.516362	1.066781	0.998552	1
H	-1.648122	-0.657769	0.610312	1
H	-1.480122	0.534441	-0.691608	1
H	0.673058	0.069631	1.447752	1
H	0.597768	-0.907769	-1.526658	1
H	2.046048	-0.980059	-0.419808	1
Es	1.057097	0.938055	-0.498326	99
Es	-1.364770	0.444246	-0.360544	99
Es	-1.396536	0.818600	0.786235	99
Es	0.563345	0.102112	1.123298	99
Es	1.156653	0.405841	-0.669647	99
Es	-1.482079	-0.362057	0.521389	99
Es	0.878985	1.069832	-0.695239	99
Es	-1.161646	0.280238	0.325029	99
Es	0.746201	0.741692	-0.078523	99
Es	1.117357	-0.485822	-0.675678	99
Es	1.752998	-0.814624	-0.511664	99
Es	0.315051	0.142405	0.430440	99
Es	0.770605	-0.765787	-1.260727	99
Es	-0.429178	0.211715	0.369854	99
Es	1.294928	1.009382	-0.377037	99
Es	0.644126	-0.408618	-0.052238	99
26
Properties=species:S:1:pos:R:3:Z:I:1 energy=-191.97913078045264 field_type=dipole dipole="0.000000 0.000000 0.000000" charge=0
C	-1.161662	0.280251	0.325012	6
C	0.314898	0.142251	0.430662	6
C	1.117378	-0.486139	-0.675728	6
O	1.057118	0.938381	-0.498488	8
H	-1.516362	1.066781	0.998552	1
H	-1.648122	-0.657769	0.610312	1
H	-1.480122	0.534441	-0.691608	1
H	0.673058	0.069631	1.447752	1
H	0.597768	-0.907769	-1.526658	1
H	2.046048	-0.980059	-0.419808	1
Es	-1.482082	-0.362357	0.521116	99
Es	1.117358	-0.485829	-0.675680	99
Es	-1.396623	0.818985	0.786201	99
Es	-1.364471	0.444073	-0.359933	99
Es	-0.429288	0.211840	0.369667	99
Es	0.644085	-0.409053	-0.051774	99
Es	0.770882	-0.765802	-1.260784	99
Es	1.289972	0.998789	-0.374666	99
Es	1.752668	-0.814222	-0.511880	99
Es	0.744129	0.742945	-0.079068	99
Es	1.057065	0.938140	-0.498384	99
Es	1.155563	0.405782	-0.671879	99
Es	0.887241	1.079002	-0.694868	99
Es	-1.161645	0.280238	0.325029	99
Es	0.563230	0.102273	1.123086	99
Es	0.315050	0.142405	0.430441	99
26
Properties=species:S:1:pos:R:3:Z:I:1 energy=-191.97913078045264 field_type=dipole dipole="0.000000 0.000000 0.000000" charge=0
C	-1.161662	0.280251	0.325012	6
C	0.314898	0.142251	0.430662	6
C	1.117378	-0.486139	-0.675728	6
O	1.057118	0.938381	-0.498488	8
H	-1.516362	1.066781	0.998552	1
H	-1.648122	-0.657769	0.610312	1
H	-1.480122	0.534441	-0.691608	1
H	0.673058	0.069631	1.447752	1
H	0.597768	-0.907769	-1.526658	1
H	2.046048	-0.980059	-0.419808	1
Es	0.743613	0.743460	-0.078434	99
Es	-1.396665	0.819329	0.786192	99
Es	1.752383	-0.813934	-0.511967	99
Es	-0.429556	0.212132	0.369556	99
Es	1.117361	-0.485827	-0.675679	99
Es	-1.161645	0.280238	0.325029	99
Es	0.563144	0.102431	1.122830	99
Es	-1.481904	-0.362731	0.520951	99
Es	0.315048	0.142410	0.430436	99
Es	0.643890	-0.409601	-0.051429	99
Es	1.286713	0.995871	-0.375042	99
Es	1.057092	0.938026	-0.498311	99
Es	0.771205	-0.765779	-1.260827	99
Es	-1.364205	0.443906	-0.359468	99
Es	0.889914	1.080822	-0.693866	99
Es	1.156748	0.406457	-0.673349	99
26
Properties=species:S:1:pos:R:3:Z:I:1 energy=-191.97913078045264 field_type=dipole dipole="0.000000 0.000000 0.000000" charge=0
C	-1.161662	0.280251	0.325012	6
C	0.314898	0.142251	0.430662	6
C	1.117378	-0.486139	-0.675728	6
O	1.057118	0.938381	-0.498488	8
H	-1.516362	1.066781	0.998552	1
H	-1.648122	-0.657769	0.610312	1
H	-1.480122	0.534441	-0.691608	1
H	0.673058	0.069631	1.447752	1
H	0.597768	-0.907769	-1.526658	1
H	2.046048	-0.980059	-0.419808	1
Es	1.752148	-0.813600	-0.512192	99
Es	0.893913	1.083719	-0.693317	99
Es	0.315041	0.142402	0.430437	99
Es	1.117360	-0.485826	-0.675686	99
Es	-1.481918	-0.362888	0.520631	99
Es	0.643859	-0.410114	-0.051112	99
Es	-0.429663	0.212181	0.369610	99
Es	-1.396804	0.819564	0.786213	99
Es	0.742520	0.744609	-0.078676	99
Es	1.157217	0.406448	-0.673953	99
Es	-1.161643	0.280238	0.325030	99
Es	-1.363818	0.443820	-0.359131	99
Es	1.283637	0.991887	-0.374549	99
Es	1.056814	0.938009	-0.498490	99
Es	0.771403	-0.765754	-1.260886	99
Es	0.563069	0.102515	1.122695	99
26
Properties=species:S:1:pos:R:3:Z:I:1 energy=-191.97913078045264 field_type=dipole dipole="0.000000 0.000000 0.000000" charge=0
C	-1.161662	0.280251	0.325012	6
C	0.314898	0.142251	0.430662	6
C	1.117378	-0.486139	-0.675728	6
O	1.057118	0.938381	-0.498488	8
H	-1.516362	1.066781	0.998552	1
H	-1.648122	-0.657769	0.610312	1
H	-1.480122	0.534441	-0.691608	1
H	0.673058	0.069631	1.447752	1
H	0.597768	-0.907769	-1.526658	1
H	2.046048	-0.980059	-0.419808	1
Es	0.643619	-0.410677	-0.050841	99
Es	-1.363540	0.443707	-0.358851	99
Es	0.771733	-0.765655	-1.260769	99
Es	1.158248	0.406876	-0.675006	99
Es	0.894539	1.083144	-0.692446	99
Es	-1.396794	0.819842	0.786178	99
Es	-0.429913	0.212395	0.369598	99
Es	1.057176	0.938004	-0.498244	99
Es	1.751891	-0.813365	-0.512347	99
Es	0.742473	0.745335	-0.077922	99
Es	-1.161645	0.280238	0.325030	99
Es	-1.481795	-0.363171	0.520534	99
Es	0.315053	0.142407	0.430439	99
Es	1.281756	0.991347	-0.375543	99
Es	1.117360	-0.485825	-0.675678	99
Es	0.562974	0.102609	1.122491	99
26
Properties=species:S:1:pos:R:3:Z:I:1 energy=-191.97913078045264 field_type=dipole dipole="0.000000 0.000000 0.000000" charge=0
C	-1.161662	0.280251	0.325012	6
C	0.314898	0.142251	0.430662	6
C	1.117378	-0.486139	-0.675728	6
O	1.057118	0.938381	-0.498488	8
H	-1.516362	1.066781	0.998552	1
H	-1.648122	-0.657769	0.610312	1
H	-1.480122	0.534441	-0.691608	1
H	0.673058	0.069631	1.447752	1
H	0.597768	-0.907769	-1.526658	1
H	2.046048	-0.980059	-0.419808	1
Es	0.643848	-0.410695	-0.050565	99
Es	1.751627	-0.813013	-0.512335	99
Es	0.902842	1.091693	-0.691327	99
Es	1.276149	0.982082	-0.374466	99
Es	-1.363688	0.443670	-0.358181	99
Es	-0.429608	0.212290	0.369211	99
Es	1.156755	0.406970	-0.676578	99
Es	1.117359	-0.485825	-0.675679	99
Es	0.315050	0.142404	0.430444	99
Es	-1.482007	-0.363129	0.520217	99
Es	0.771856	-0.765842	-1.261084	99
Es	0.562974	0.102732	1.122430	99
Es	-1.396875	0.819928	0.786214	99
Es	0.741118	0.745777	-0.078643	99
Es	-1.161646	0.280238	0.325029	99
Es	1.057381	0.937926	-0.498064	99
26
Properties=species:S:1:pos:R:3:Z:I:1 energy=-191.97913078045264 field_type=dipole dipole="0.000000 0.000000 0.000000" charge=0
C	-1.161662	0.280251	0.325012	6
C	0.314898	0.142251	0.430662	6
C	1.117378	-0.486139	-0.675728	6
O	1.057118	0.938381	-0.498488	8
H	-1.516362	1.066781	0.998552	1
H	-1.648122	-0.657769	0.610312	1
H	-1.480122	0.534441	-0.691608	1
H	0.673058	0.069631	1.447752	1
H	0.597768	-0.907769	-1.526658	1
H	2.046048	-0.980059	-0.419808	1
Es	0.910708	1.098535	-0.689801	99
Es	1.751364	-0.812712	-0.512210	99
Es	-1.482138	-0.363095	0.520013	99
Es	1.117361	-0.485822	-0.675681	99
Es	-1.363772	0.443594	-0.357711	99
Es	1.057072	0.938214	-0.498426	99
Es	0.739620	0.746277	-0.079257	99
Es	-0.429380	0.212285	0.369031	99
Es	1.155932	0.407222	-0.678047	99
Es	-1.161646	0.280239	0.325029	99
Es	0.315051	0.142409	0.430439	99
Es	0.643999	-0.410606	-0.050428	99
Es	1.270974	0.973994	-0.373445	99
Es	0.772009	-0.766085	-1.261365	99
Es	-1.397008	0.820002	0.786179	99
Es	0.562990	0.102758	1.122305	99
26
Properties=species:S:1:pos:R:3:Z:I:1 energy=-191.97913078045264 field_type=dipole dipole="0.000000 0.000000 0.000000" charge=0
C	-1.161662	0.280251	0.325012	6
C	0.314898	0.142251	0.430662	6
C	1.117378	-0.486139	-0.675728	6
O	1.057118	0.938381	-0.498488	8
H	-1.516362	1.066781	0.998552	1
H	-1.648122	-0.657769	0.610312	1
H	-1.480122	0.534441	-0.691608	1
H	0.673058	0.069631	1.447752	1
H	0.597768	-0.907769	-1.526658	1
H	2.046048	-0.980059	-0.419808	1
Es	-1.397257	0.819896	0.786228	99
Es	-1.364095	0.443545	-0.357261	99
Es	1.153769	0.407437	-0.679856	99
Es	1.263558	0.964549	-0.373796	99
Es	1.751417	-0.812548	-0.512259	99
Es	1.056548	0.937611	-0.498449	99
Es	0.644392	-0.410175	-0.050258	99
Es	-1.161645	0.280238	0.325029	99
Es	-1.482356	-0.362753	0.519748	99
Es	-0.428810	0.211970	0.368640	99
Es	0.771852	-0.766239	-1.261593	99
Es	0.738501	0.746232	-0.079948	99
Es	1.117363	-0.485826	-0.675679	99
Es	0.563022	0.102878	1.122444	99
Es	0.921826	1.107986	-0.686808	99
Es	0.315049	0.142408	0.430441	99
26
Properties=species:S:1:pos:R:3:Z:I:1 energy=-191.97913078045264 field_type=dipole dipole="0.000000 0.000000 0.000000" charge=0
C	-1.161662	0.280251	0.325012	6
C	0.314898	0.142251	0.430662	6
C	1.117378	-0.486139	-0.675728	6
O	1.057118	0.938381	-0.498488	8
H	-1.516362	1.066781	0.998552	1
H	-1.648122	-0.657769	0.610312	1
H	-1.480122	0.534441	-0.691608	1
H	0.673058	0.069631	1.447752	1
H	0.597768	-0.907769	-1.526658	1
H	2.046048	-0.980059	-0.419808	1
Es	1.260037	0.960022	-0.373395	99
Es	0.315048	0.142408	0.430440	99
Es	0.644406	-0.410169	-0.050164	99
Es	-1.482371	-0.362712	0.519517	99
Es	1.751218	-0.812355	-0.512235	99
Es	-0.428633	0.211961	0.368446	99
Es	1.153562	0.407724	-0.680809	99
Es	0.563053	0.102890	1.122430	99
Es	-1.161644	0.280238	0.325028	99
Es	-1.364159	0.443511	-0.356893	99
Es	0.926226	1.111366	-0.685706	99
Es	1.056999	0.938076	-0.498401	99
Es	0.737425	0.746480	-0.080507	99
Es	0.771964	-0.766335	-1.261771	99
Es	-1.397362	0.819929	0.786322	99
Es	1.117367	-0.485825	-0.675680	99
26
Properties=species:S:1:pos:R:3:Z:I:1 energy=-191.97913078045264 field_type=dipole dipole="0.000000 0.000000 0.000000" charge=0
C	-1.161662	0.280251	0.325012	6
C	0.314898	0.142251	0.430662	6
C	1.117378	-0.486139	-0.675728	6
O	1.057118	0.938381	-0.498488	8
H	-1.516362	1.066781	0.998552	1
H	-1.648122	-0.657769	0.610312	1
H	-1.480122	0.534441	-0.691608	1
H	0.673058	0.069631	1.447752	1
H	0.597768	-0.907769	-1.526658	1
H	2.046048	-0.980059	-0.419808	1
Es	0.315048	0.142407	0.430441	99
Es	-1.364127	0.443461	-0.356455	99
Es	1.750968	-0.812040	-0.512333	99
Es	0.924937	1.109683	-0.685956	99
Es	-1.482302	-0.362973	0.519421	99
Es	-1.161646	0.280238	0.325029	99
Es	0.772259	-0.766353	-1.261788	99
Es	-1.397238	0.820113	0.786365	99
Es	1.117357	-0.485827	-0.675681	99
Es	1.260467	0.961241	-0.374070	99
Es	1.154166	0.407813	-0.680710	99
Es	0.563096	0.102943	1.122159	99
Es	-0.428832	0.212180	0.368311	99
Es	1.056802	0.937987	-0.498488	99
Es	0.644357	-0.410636	-0.049990	99
Es	0.737824	0.746973	-0.079629	99
26
Properties=species:S:1:pos:R:3:Z:I:1 energy=-191.97913078045264 field_type=dipole dipole="0.000000 0.000000 0.000000" charge=0
C	-1.161662	0.280251	0.325012	6
C	0.314898	0.142251	0.430662	6
C	1.117378	-0.486139	-0.675728	6
O	1.057118	0.938381	-0.498488	8
H	-1.516362	1.066781	0.998552	1
H	-1.648122	-0.657769	0.610312	1
H	-1.480122	0.534441	-0.691608	1
H	0.673058	0.069631	1.447752	1
H	0.597768	-0.907769	-1.526658	1
H	2.046048	-0.980059	-0.419808	1
Es	1.056581	0.937896	-0.498587	99
Es	-1.364535	0.443471	-0.356271	99
Es	0.736431	0.747241	-0.080634	99
Es	0.771991	-0.766484	-1.261944	99
Es	0.935195	1.117050	-0.682726	99
Es	1.117350	-0.485833	-0.675682	99
Es	-1.161643	0.280238	0.325029	99
Es	-1.482466	-0.362542	0.519292	99
Es	-1.397437	0.819884	0.786454	99
Es	0.644634	-0.410066	-0.050040	99
Es	-0.428185	0.211868	0.367947	99
Es	0.315051	0.142407	0.430442	99
Es	1.152707	0.408025	-0.682243	99
Es	1.253246	0.953169	-0.374554	99
Es	0.563131	0.102964	1.122439	99
Es	1.751083	-0.812078	-0.512300	99
26
Properties=species:S:1:pos:R:3:Z:I:1 energy=-191.97913078045264 field_type=dipole dipole="0.000000 0.000000 0.000000" charge=0
C	-1.161662	0.280251	0.325012	6
C	0.314898	0.142251	0.430662	6
C	1.117378	-0.486139	-0.675728	6
O	1.057118	0.938381	-0.498488	8
H	-1.516362	1.066781	0.998552	1
H	-1.648122	-0.657769	0.610312	1
H	-1.480122	0.534441	-0.691608	1
H	0.673058	0.069631	1.447752	1
H	0.597768	-0.907769	-1.526658	1
H	2.046048	-0.980059	-0.419808	1
Es	-1.397485	0.820059	0.786410	99
Es	1.117353	-0.485824	-0.675687	99
Es	-1.482324	-0.362845	0.519195	99
Es	0.644482	-0.410384	-0.049781	99
Es	0.933178	1.115011	-0.682509	99
Es	0.736921	0.747230	-0.080129	99
Es	1.154154	0.408418	-0.682612	99
Es	-1.364132	0.443429	-0.356256	99
Es	-1.161645	0.280238	0.325029	99
Es	1.253766	0.954933	-0.374868	99
Es	1.056319	0.937866	-0.498755	99
Es	1.750776	-0.811861	-0.512251	99
Es	-0.428779	0.212130	0.368381	99
Es	0.772292	-0.766538	-1.262032	99
Es	0.563210	0.102936	1.122046	99
Es	0.315050	0.142411	0.430440	99
26
Properties=species:S:1:pos:R:3:Z:I:1 energy=-191.97913078045264 field_type=dipole dipole="0.000000 0.000000 0.000000" charge=0
C	-1.161662	0.280251	0.325012	6
C	0.314898	0.142251	0.430662	6
C	1.117378	-0.486139	-0.675728	6
O	1.057118	0.938381	-0.498488	8
H	-1.516362	1.066781	0.998552	1
H	-1.648122	-0.657769	0.610312	1
H	-1.480122	0.534441	-0.691608	1
H	0.673058	0.069631	1.447752	1
H	0.597768	-0.907769	-1.526658	1
H	2.046048	-0.980059	-0.419808	1
Es	1.152790	0.408264	-0.683150	99
Es	0.563117	0.103026	1.122459	99
Es	1.117357	-0.485831	-0.675680	99
Es	1.750846	-0.811762	-0.512251	99
Es	0.941076	1.120231	-0.680694	99
Es	1.056717	0.937964	-0.498534	99
Es	0.644741	-0.410001	-0.049846	99
Es	-1.161645	0.280238	0.325029	99
Es	0.772161	-0.766680	-1.262173	99
Es	0.735618	0.747906	-0.080809	99
Es	-1.397483	0.819892	0.786506	99
Es	-1.482535	-0.362477	0.519143	99
Es	-1.364651	0.443440	-0.355920	99
Es	1.247992	0.948751	-0.375552	99
Es	-0.428022	0.211839	0.367651	99
Es	0.315056	0.142411	0.430443	99
26
Properties=species:S:1:pos:R:3:Z:I:1 energy=-191.97913078045264 field_type=dipole dipole="0.000000 0.000000 0.000000" charge=0
C	-1.161662	0.280251	0.325012	6
C	0.314898	0.142251	0.430662	6
C	1.117378	-0.486139	-0.675728	6
O	1.057118	0.938381	-0.498488	8
H	-1.516362	1.066781	0.998552	1
H	-1.648122	-0.657769	0.610312	1
H	-1.480122	0.534441	-0.691608	1
H	0.673058	0.069631	1.447752	1
H	0.597768	-0.907769	-1.526658	1
H	2.046048	-0.980059	-0.419808	1
Es	-1.397544	0.820093	0.786449	99
Es	0.315046	0.142412	0.430440	99
Es	1.249324	0.950811	-0.375860	99
Es	1.750540	-0.811533	-0.512222	99
Es	-1.482351	-0.362797	0.519069	99
Es	0.772559	-0.766651	-1.262267	99
Es	-1.364381	0.443334	-0.355722	99
Es	0.644492	-0.410392	-0.049677	99
Es	-1.161646	0.280238	0.325029	99
Es	1.153418	0.408171	-0.682958	99
Es	1.057135	0.938046	-0.498288	99
Es	0.736099	0.748217	-0.080287	99
Es	-0.428439	0.212202	0.367880	99
Es	0.563179	0.102984	1.122109	99
Es	1.117357	-0.485824	-0.675678	99
Es	0.938349	1.117900	-0.681394	99
26
Properties=species:S:1:pos:R:3:Z:I:1 energy=-191.97913078045264 field_type=dipole dipole="0.000000 0.000000 0.000000" charge=0
C	-1.161662	0.280251	0.325012	6
C	0.314898	0.142251	0.430662	6
C	1.117378	-0.486139	-0.675728	6
O	1.057118	0.938381	-0.498488	8
H	-1.516362	1.066781	0.998552	1
H	-1.648122	-0.657769	0.610312	1
H	-1.480122	0.534441	-0.691608	1
H	0.673058	0.069631	1.447752	1
H	0.597768	-0.907769	-1.526658	1
H	2.046048	-0.980059	-0.419808	1
Es	0.772270	-0.766731	-1.262451	99
Es	0.734890	0.747838	-0.081442	99
Es	-1.397687	0.819833	0.786656	99
Es	1.151755	0.408406	-0.684262	99
Es	-1.161645	0.280238	0.325029	99
Es	1.056520	0.937935	-0.498656	99
Es	0.315052	0.142410	0.430444	99
Es	0.948055	1.124756	-0.677927	99
Es	1.750793	-0.811593	-0.512206	99
Es	0.644809	-0.409796	-0.049732	99
Es	1.242938	0.943806	-0.376329	99
Es	-0.427951	0.211714	0.367600	99
Es	1.117358	-0.485827	-0.675681	99
Es	-1.364782	0.443360	-0.355804	99
Es	-1.482462	-0.362221	0.518972	99
Es	0.563222	0.103082	1.122411	99
26
Properties=species:S:1:pos:R:3:Z:I:1 energy=-191.97913078045264 field_type=dipole dipole="0.000000 0.000000 0.000000" charge=0
C	-1.161662	0.280251	0.325012	6
C	0.314898	0.142251	0.430662	6
C	1.117378	-0.486139	-0.675728	6
O	1.057118	0.938381	-0.498488	8
H	-1.516362	1.066781	0.998552	1
H	-1.648122	-0.657769	0.610312	1
H	-1.480122	0.534441	-0.691608	1
H	0.673058	0.069631	1.447752	1
H	0.597768	-0.907769	-1.526658	1
H	2.046048	-0.980059	-0.419808	1
Es	1.242608	0.944493	-0.376803	99
Es	1.152383	0.408258	-0.684159	99
Es	-1.161645	0.280238	0.325029	99
Es	1.057075	0.938099	-0.498354	99
Es	0.644774	-0.409941	-0.049642	99
Es	-0.428065	0.211931	0.367640	99
Es	-1.364690	0.443409	-0.355716	99
Es	0.315047	0.142412	0.430438	99
Es	0.772421	-0.766805	-1.262412	99
Es	0.734714	0.748698	-0.081229	99
Es	0.563197	0.103042	1.122304	99
Es	-1.397740	0.819814	0.786689	99
Es	1.750603	-0.811443	-0.512217	99
Es	0.947436	1.123266	-0.678158	99
Es	1.117357	-0.485828	-0.675679	99
Es	-1.482340	-0.362433	0.518892	99
26
Properties=species:S:1:pos:R:3:Z:I:1 energy=-191.97913078045264 field_type=dipole dipole="0.000000 0.000000 0.000000" charge=0
C	-1.161662	0.280251	0.325012	6
C	0.314898	0.142251	0.430662	6
C	1.117378	-0.486139	-0.675728	6
O	1.057118	0.938381	-0.498488	8
H	-1.516362	1.066781	0.998552	1
H	-1.648122	-0.657769	0.610312	1
H	-1.480122	0.534441	-0.691608	1
H	0.673058	0.069631	1.447752	1
H	0.597768	-0.907769	-1.526658	1
H	2.046048	-0.980059	-0.419808	1
Es	-1.161645	0.280238	0.325029	99
Es	1.241677	0.943483	-0.376872	99
Es	-0.427799	0.211900	0.367293	99
Es	0.644754	-0.410028	-0.049549	99
Es	-1.397759	0.819917	0.786688	99
Es	1.117358	-0.485826	-0.675682	99
Es	0.563099	0.103114	1.122368	99
Es	0.734673	0.748318	-0.081089	99
Es	-1.482363	-0.362354	0.518847	99
Es	1.056502	0.938106	-0.498773	99
Es	0.772485	-0.766782	-1.262455	99
Es	0.948820	1.124236	-0.677409	99
Es	-1.364803	0.443284	-0.355408	99
Es	1.750495	-0.811373	-0.512255	99
Es	0.315048	0.142405	0.430441	99
Es	1.152594	0.408572	-0.684550	99
26
Properties=species:S:1:pos:R:3:Z:I:1 energy=-191.97913078045264 field_type=dipole dipole="0.000000 0.000000 0.000000" charge=0
C	-1.161662	0.280251	0.325012	6
C	0.314898	0.142251	0.430662	6
C	1.117378	-0.486139	-0.675728	6
O	1.057118	0.938381	-0.498488	8
H	-1.516362	1.066781	0.998552	1
H	-1.648122	-0.657769	0.610312	1
H	-1.480122	0.534441	-0.691608	1
H	0.673058	0.069631	1.447752	1
H	0.597768	-0.907769	-1.526658	1
H	2.046048	-0.980059	-0.419808	1
Es	0.315045	0.142403	0.430442	99
Es	-1.397898	0.819743	0.786760	99
Es	1.056267	0.937875	-0.498800	99
Es	1.237161	0.938914	-0.377760	99
Es	-0.427755	0.211765	0.367445	99
Es	1.117357	-0.485828	-0.675681	99
Es	0.733930	0.748241	-0.081633	99
Es	-1.364952	0.443287	-0.355644	99
Es	0.644926	-0.409529	-0.049689	99
Es	0.563273	0.103155	1.122451	99
Es	1.750848	-0.811510	-0.512264	99
Es	0.772203	-0.766769	-1.262538	99
Es	-1.482341	-0.362066	0.518857	99
Es	1.151055	0.408686	-0.685372	99
Es	0.955664	1.128604	-0.674980	99
Es	-1.161646	0.280238	0.325029	99
26
Properties=species:S:1:pos:R:3:Z:I:1 energy=-191.97913078045264 field_type=dipole dipole="0.000000 0.000000 0.000000" charge=0
C	-1.161662	0.280251	0.325012	6
C	0.314898	0.142251	0.430662	6
C	1.117378	-0.486139	-0.675728	6
O	1.057118	0.938381	-0.498488	8
H	-1.516362	1.066781	0.998552	1
H	-1.648122	-0.657769	0.610312	1
H	-1.480122	0.534441	-0.691608	1
H	0.673058	0.069631	1.447752	1
H	0.597768	-0.907769	-1.526658	1
H	2.046048	-0.980059	-0.419808	1
Es	1.235710	0.938136	-0.377945	99
Es	0.956607	1.128968	-0.674356	99
Es	1.151593	0.408985	-0.685844	99
Es	0.772252	-0.766761	-1.262570	99
Es	1.750733	-0.811490	-0.512257	99
Es	0.733507	0.748291	-0.081845	99
Es	1.056729	0.937949	-0.498515	99
Es	0.563113	0.103173	1.122628	99
Es	1.117370	-0.485828	-0.675676	99
Es	-1.482333	-0.362082	0.518864	99
Es	-0.427595	0.211730	0.367089	99
Es	-1.365036	0.443265	-0.355510	99
Es	-1.161642	0.280239	0.325028	99
Es	-1.397883	0.819757	0.786764	99
Es	0.315050	0.142407	0.430442	99
Es	0.644959	-0.409529	-0.049672	99
26
Properties=species:S:1:pos:R:3:Z:I:1 energy=-191.97913078045264 field_type=dipole dipole="0.000000 0.000000 0.000000" charge=0
C	-1.161662	0.280251	0.325012	6
C	0.314898	0.142251	0.430662	6
C	1.117378	-0.486139	-0.675728	6
O	1.057118	0.938381	-0.498488	8
H	-1.516362	1.066781	0.998552	1
H	-1.648122	-0.657769	0.610312	1
H	-1.480122	0.534441	-0.691608	1
H	0.673058	0.069631	1.447752	1
H	0.597768	-0.907769	-1.526658	1
H	2.046048	-0.980059	-0.419808	1
Es	1.151804	0.408744	-0.685558	99
Es	0.956843	1.128420	-0.674561	99
Es	1.056620	0.937953	-0.498598	99
Es	1.750650	-0.811386	-0.512259	99
Es	-1.482474	-0.362153	0.518684	99
Es	0.733468	0.749027	-0.081605	99
Es	0.563082	0.103210	1.122625	99
Es	-1.397807	0.819776	0.786820	99
Es	-0.427560	0.211670	0.367021	99
Es	-1.364936	0.443367	-0.355312	99
Es	1.117357	-0.485829	-0.675682	99
Es	0.644906	-0.409617	-0.049608	99
Es	-1.161646	0.280238	0.325029	99
Es	0.772363	-0.766797	-1.262566	99
Es	0.315049	0.142406	0.430442	99
Es	1.235416	0.938177	-0.378248	99
26
Properties=species:S:1:pos:R:3:Z:I:1 energy=-191.97913078045264 field_type=dipole dipole="0.000000 0.000000 0.000000" charge=0
C	-1.161662	0.280251	0.325012	6
C	0.314898	0.142251	0.430662	6
C	1.117378	-0.486139	-0.675728	6
O	1.057118	0.938381	-0.498488	8
H	-1.516362	1.066781	0.998552	1
H	-1.648122	-0.657769	0.610312	1
H	-1.480122	0.534441	-0.691608	1
H	0.673058	0.069631	1.447752	1
H	0.597768	-0.907769	-1.526658	1
H	2.046048	-0.980059	-0.419808	1
Es	1.117353	-0.485831	-0.675679	99
Es	-1.482329	-0.362012	0.518767	99
Es	0.772272	-0.766807	-1.262616	99
Es	1.151144	0.408859	-0.686101	99
Es	-1.365138	0.443313	-0.355418	99
Es	1.056168	0.937735	-0.498784	99
Es	1.750705	-0.811377	-0.512295	99
Es	1.233190	0.936373	-0.379054	99
Es	0.733474	0.749095	-0.081577	99
Es	-1.161646	0.280238	0.325029	99
Es	-1.397895	0.819666	0.786885	99
Es	0.315050	0.142407	0.430442	99
Es	0.960095	1.130179	-0.672965	99
Es	0.645029	-0.409504	-0.049663	99
Es	-0.427634	0.211745	0.367177	99
Es	0.563295	0.103131	1.122476	99
26
Properties=species:S:1:pos:R:3:Z:I:1 energy=-191.97913078045264 field_type=dipole dipole="0.000000 0.000000 0.000000" charge=0
C	-1.161662	0.280251	0.325012	6
C	0.314898	0.142251	0.430662	6
C	1.117378	-0.486139	-0.675728	6
O	1.057118	0.938381	-0.498488	8
H	-1.516362	1.066781	0.998552	1
H	-1.648122	-0.657769	0.610312	1
H	-1.480122	0.534441	-0.691608	1
H	0.673058	0.069631	1.447752	1
H	0.597768	-0.907769	-1.526658	1
H	2.046048	-0.980059	-0.419808	1
Es	0.772346	-0.766895	-1.262682	99
Es	0.315047	0.142404	0.430442	99
Es	0.645074	-0.409299	-0.049642	99
Es	1.150750	0.408973	-0.686744	99
Es	0.962214	1.131836	-0.672010	99
Es	0.733232	0.748799	-0.081796	99
Es	-1.398005	0.819668	0.786841	99
Es	-1.161644	0.280238	0.325029	99
Es	1.117362	-0.485826	-0.675675	99
Es	0.563252	0.103172	1.122549	99
Es	-1.365104	0.443271	-0.355477	99
Es	1.056723	0.937963	-0.498528	99
Es	-0.427568	0.211628	0.367188	99
Es	1.750709	-0.811293	-0.512232	99
Es	1.231127	0.934447	-0.379379	99
Es	-1.482379	-0.361874	0.518739	99
26
Properties=species:S:1:pos:R:3:Z:I:1 energy=-191.97913078045264 field_type=dipole dipole="0.000000 0.000000 0.000000" charge=0
C	-1.161662	0.280251	0.325012	6
C	0.314898	0.142251	0.430662	6
C	1.117378	-0.486139	-0.675728	6
O	1.057118	0.938381	-0.498488	8
H	-1.516362	1.066781	0.998552	1
H	-1.648122	-0.657769	0.610312	1
H	-1.480122	0.534441	-0.691608	1
H	0.673058	0.069631	1.447752	1
H	0.597768	-0.907769	-1.526658	1
H	2.046048	-0.980059	-0.419808	1
Es	1.056945	0.938076	-0.498438	99
Es	-0.427480	0.211606	0.367050	99
Es	-1.365049	0.443254	-0.355125	99
Es	0.645108	-0.409448	-0.049532	99
Es	1.151059	0.409108	-0.686705	99
Es	1.750561	-0.811196	-0.512258	99
Es	1.230966	0.934625	-0.379776	99
Es	0.315048	0.142408	0.430440	99
Es	-1.482423	-0.361900	0.518527	99
Es	0.733597	0.748987	-0.081271	99
Es	-1.161645	0.280238	0.325030	99
Es	1.117355	-0.485837	-0.675680	99
Es	0.772395	-0.766917	-1.262731	99
Es	-1.398071	0.819725	0.786888	99
Es	0.563226	0.103174	1.122472	99
Es	0.961544	1.131308	-0.672266	99
26
Properties=species:S:1:pos:R:3:Z:I:1 energy=-191.97913078045264 field_type=dipole dipole="0.000000 0.000000 0.000000" charge=0
C	-1.161662	0.280251	0.325012	6
C	0.314898	0.142251	0.430662	6
C	1.117378	-0.486139	-0.675728	6
O	1.057118	0.938381	-0.498488	8
H	-1.516362	1.066781	0.998552	1
H	-1.648122	-0.657769	0.610312	1
H	-1.480122	0.534441	-0.691608	1
H	0.673058	0.069631	1.447752	1
H	0.597768	-0.907769	-1.526658	1
H	2.046048	-0.980059	-0.419808	1
Es	1.150722	0.409095	-0.686949	99
Es	0.772306	-0.766930	-1.262810	99
Es	0.732777	0.748934	-0.082016	99
Es	-1.161646	0.280238	0.325029	99
Es	-1.365323	0.443290	-0.355261	99
Es	-1.398105	0.819532	0.786986	99
Es	0.563225	0.103229	1.122720	99
Es	1.227938	0.932272	-0.380250	99
Es	0.315046	0.142413	0.430442	99
Es	0.645113	-0.409166	-0.049670	99
Es	1.117356	-0.485829	-0.675683	99
Es	1.750727	-0.811262	-0.512207	99
Es	-0.427221	0.211586	0.366849	99
Es	0.965814	1.133564	-0.670644	99
Es	1.056749	0.937978	-0.498519	99
Es	-1.482343	-0.361734	0.518606	99
