32
Properties=species:S:1:pos:R:3:Z:I:1 energy=-247.08238966949875 field_type=dipole dipole="0.000000 0.000000 0.000000" charge=0
C	-1.361708	0.132376	-0.149840	6
N	0.069102	0.130326	0.076370	7
C	0.761962	-1.142754	0.028090	6
C	0.780572	1.307386	0.180420	6
O	1.996812	1.406946	0.277380	8
H	-1.774838	1.139816	-0.051480	1
H	-1.838948	-0.524974	0.582540	1
H	-1.559188	-0.237394	-1.159790	1
H	0.293602	-1.829194	0.738590	1
H	1.820102	-1.034034	0.282230	1
H	0.678842	-1.548654	-0.983560	1
H	0.133692	2.200156	0.179050	1
Es	0.360766	-0.408236	0.047132	99
Es	-1.499065	-0.121704	-0.837389	99
Es	0.761843	-1.142591	0.028093	99
Es	1.458338	-1.068986	0.197853	99
Es	-0.541343	0.134922	-0.026171	99
Es	1.608779	1.385232	-0.003034	99
Es	0.780466	1.307249	0.180406	99
Es	-1.631141	0.817670	-0.081876	99
Es	1.571264	1.357248	0.492105	99
Es	0.187379	0.376585	0.385206	99
Es	-1.361526	0.132387	-0.149809	99
Es	1.996468	1.406903	0.277346	99
Es	0.699325	-1.421464	-0.661790	99
Es	0.435084	-1.609744	0.509138	99
Es	-1.687019	-0.316469	0.346089	99
Es	2.081595	1.700749	0.300641	99
Es	2.133078	1.127825	0.272063	99
Es	0.320188	0.525304	-0.128976	99
Es	0.069125	0.130371	0.076241	99
Es	0.321457	1.910270	0.176284	99
32
Properties=species:S:1:pos:R:3:Z:I:1 energy=-247.08238966949875 field_type=dipole dipole="0.000000 0.000000 0.000000" charge=0
C	-1.361708	0.132376	-0.149840	6
N	0.069102	0.130326	0.076370	7
C	0.761962	-1.142754	0.028090	6
C	0.780572	1.307386	0.180420	6
O	1.996812	1.406946	0.277380	8
H	-1.774838	1.139816	-0.051480	1
H	-1.838948	-0.524974	0.582540	1
H	-1.559188	-0.237394	-1.159790	1
H	0.293602	-1.829194	0.738590	1
H	1.820102	-1.034034	0.282230	1
H	0.678842	-1.548654	-0.983560	1
H	0.133692	2.200156	0.179050	1
Es	-1.631524	0.816609	-0.082126	99
Es	-0.542243	0.136111	-0.030443	99
Es	0.697826	-1.420720	-0.660297	99
Es	0.780464	1.307248	0.180409	99
Es	0.433932	-1.609166	0.507571	99
Es	0.321479	1.910031	0.176278	99
Es	1.996470	1.406919	0.277353	99
Es	-1.499539	-0.121498	-0.837035	99
Es	-1.687337	-0.316095	0.345788	99
Es	0.163609	0.334145	0.362102	99
Es	2.098198	1.704175	0.305102	99
Es	1.461206	-1.069092	0.198200	99
Es	1.609871	1.384730	-0.002675	99
Es	0.362364	-0.407021	0.041142	99
Es	0.344004	0.564737	-0.095708	99
Es	0.069147	0.130378	0.076100	99
Es	2.115881	1.127952	0.270704	99
Es	0.761842	-1.142593	0.028092	99
Es	1.570938	1.354284	0.488804	99
Es	-1.361527	0.132387	-0.149809	99
32
Properties=species:S:1:pos:R:3:Z:I:1 energy=-247.08238966949875 field_type=dipole dipole="0.000000 0.000000 0.000000" charge=0
C	-1.361708	0.132376	-0.149840	6
N	0.069102	0.130326	0.076370	7
C	0.761962	-1.142754	0.028090	6
C	0.780572	1.307386	0.180420	6
O	1.996812	1.406946	0.277380	8
H	-1.774838	1.139816	-0.051480	1
H	-1.838948	-0.524974	0.582540	1
H	-1.559188	-0.237394	-1.159790	1
H	0.293602	-1.829194	0.738590	1
H	1.820102	-1.034034	0.282230	1
H	0.678842	-1.548654	-0.983560	1
H	0.133692	2.200156	0.179050	1
Es	0.433602	-1.608373	0.506764	99
Es	-1.361530	0.132387	-0.149809	99
Es	1.996472	1.406872	0.277350	99
Es	-1.631455	0.815462	-0.082111	99
Es	1.609894	1.386609	-0.005393	99
Es	2.115429	1.700053	0.308961	99
Es	0.363908	-0.405835	0.035599	99
Es	0.696947	-1.420685	-0.659885	99
Es	0.761843	-1.142593	0.028092	99
Es	0.321353	1.909840	0.176369	99
Es	0.143724	0.296200	0.321984	99
Es	0.780464	1.307248	0.180409	99
Es	0.069116	0.130340	0.076145	99
Es	-1.500059	-0.121447	-0.837334	99
Es	2.098668	1.130010	0.269835	99
Es	1.571027	1.354530	0.488679	99
Es	-1.687515	-0.315500	0.345774	99
Es	0.363769	0.599808	-0.048135	99
Es	-0.543062	0.137610	-0.032388	99
Es	1.462464	-1.069016	0.198647	99
32
Properties=species:S:1:pos:R:3:Z:I:1 energy=-247.08238966949875 field_type=dipole dipole="0.000000 0.000000 0.000000" charge=0
C	-1.361708	0.132376	-0.149840	6
N	0.069102	0.130326	0.076370	7
C	0.761962	-1.142754	0.028090	6
C	0.780572	1.307386	0.180420	6
O	1.996812	1.406946	0.277380	8
H	-1.774838	1.139816	-0.051480	1
H	-1.838948	-0.524974	0.582540	1
H	-1.559188	-0.237394	-1.159790	1
H	0.293602	-1.829194	0.738590	1
H	1.820102	-1.034034	0.282230	1
H	0.678842	-1.548654	-0.983560	1
H	0.133692	2.200156	0.179050	1
Es	-1.687614	-0.315039	0.345811	99
Es	-1.361533	0.132387	-0.149810	99
Es	0.433253	-1.607900	0.506181	99
Es	-0.543819	0.137929	-0.031484	99
Es	2.088441	1.131851	0.268922	99
Es	-1.500506	-0.121399	-0.837533	99
Es	2.125858	1.697118	0.309577	99
Es	0.761843	-1.142596	0.028092	99
Es	1.996438	1.406905	0.277343	99
Es	0.780464	1.307249	0.180408	99
Es	1.607107	1.386769	-0.005594	99
Es	0.369487	0.610121	-0.027868	99
Es	-1.631334	0.814576	-0.082084	99
Es	1.463322	-1.069004	0.198900	99
Es	0.321328	1.909736	0.176498	99
Es	0.138584	0.284737	0.302671	99
Es	0.069205	0.130455	0.075840	99
Es	0.696388	-1.420524	-0.659460	99
Es	1.573782	1.355347	0.489179	99
Es	0.364367	-0.405197	0.033967	99
32
Properties=species:S:1:pos:R:3:Z:I:1 energy=-247.08238966949875 field_type=dipole dipole="0.000000 0.000000 0.000000" charge=0
C	-1.361708	0.132376	-0.149840	6
N	0.069102	0.130326	0.076370	7
C	0.761962	-1.142754	0.028090	6
C	0.780572	1.307386	0.180420	6
O	1.996812	1.406946	0.277380	8
H	-1.774838	1.139816	-0.051480	1
H	-1.838948	-0.524974	0.582540	1
H	-1.559188	-0.237394	-1.159790	1
H	0.293602	-1.829194	0.738590	1
H	1.820102	-1.034034	0.282230	1
H	0.678842	-1.548654	-0.983560	1
H	0.133692	2.200156	0.179050	1
Es	2.080014	1.135549	0.268644	99
Es	0.365033	-0.404737	0.031945	99
Es	0.761841	-1.142593	0.028092	99
Es	1.570059	1.354541	0.489856	99
Es	1.996494	1.406889	0.277351	99
Es	-0.544314	0.138324	-0.030851	99
Es	-1.631130	0.813978	-0.082254	99
Es	1.611079	1.387807	-0.008007	99
Es	0.432959	-1.607760	0.505865	99
Es	-1.361529	0.132387	-0.149809	99
Es	1.463781	-1.068879	0.199040	99
Es	-1.687924	-0.314853	0.345920	99
Es	2.134112	1.693075	0.311603	99
Es	-1.500670	-0.121204	-0.837561	99
Es	0.069203	0.130443	0.075853	99
Es	0.696159	-1.420289	-0.659215	99
Es	0.373944	0.619187	-0.005545	99
Es	0.134192	0.274771	0.281702	99
Es	0.780465	1.307249	0.180407	99
Es	0.321292	1.909636	0.176519	99
32
Properties=species:S:1:pos:R:3:Z:I:1 energy=-247.08238966949875 field_type=dipole dipole="0.000000 0.000000 0.000000" charge=0
C	-1.361708	0.132376	-0.149840	6
N	0.069102	0.130326	0.076370	7
C	0.761962	-1.142754	0.028090	6
C	0.780572	1.307386	0.180420	6
O	1.996812	1.406946	0.277380	8
H	-1.774838	1.139816	-0.051480	1
H	-1.838948	-0.524974	0.582540	1
H	-1.559188	-0.237394	-1.159790	1
H	0.293602	-1.829194	0.738590	1
H	1.820102	-1.034034	0.282230	1
H	0.678842	-1.548654	-0.983560	1
H	0.133692	2.200156	0.179050	1
Es	-0.544723	0.138257	-0.029699	99
Es	0.069344	0.130659	0.075579	99
Es	0.321267	1.909586	0.176640	99
Es	1.464191	-1.068953	0.199012	99
Es	0.695821	-1.420365	-0.658854	99
Es	0.365046	-0.404520	0.031712	99
Es	1.996490	1.406946	0.277352	99
Es	0.780464	1.307248	0.180407	99
Es	0.433035	-1.607460	0.505585	99
Es	-1.500915	-0.121318	-0.837537	99
Es	2.067513	1.137613	0.267436	99
Es	1.610042	1.389674	-0.007499	99
Es	-1.631167	0.813751	-0.082218	99
Es	0.375085	0.621349	0.000998	99
Es	2.147030	1.686972	0.311939	99
Es	1.570745	1.356611	0.490199	99
Es	0.133320	0.272227	0.274384	99
Es	-1.687843	-0.314550	0.345834	99
Es	-1.361528	0.132387	-0.149809	99
Es	0.761844	-1.142596	0.028092	99
32
Properties=species:S:1:pos:R:3:Z:I:1 energy=-247.08238966949875 field_type=dipole dipole="0.000000 0.000000 0.000000" charge=0
C	-1.361708	0.132376	-0.149840	6
N	0.069102	0.130326	0.076370	7
C	0.761962	-1.142754	0.028090	6
C	0.780572	1.307386	0.180420	6
O	1.996812	1.406946	0.277380	8
H	-1.774838	1.139816	-0.051480	1
H	-1.838948	-0.524974	0.582540	1
H	-1.559188	-0.237394	-1.159790	1
H	0.293602	-1.829194	0.738590	1
H	1.820102	-1.034034	0.282230	1
H	0.678842	-1.548654	-0.983560	1
H	0.133692	2.200156	0.179050	1
Es	1.464413	-1.068921	0.198924	99
Es	-1.688054	-0.314589	0.345826	99
Es	0.761844	-1.142596	0.028092	99
Es	0.695683	-1.420170	-0.658678	99
Es	-1.631022	0.813512	-0.082212	99
Es	0.432923	-1.607489	0.505466	99
Es	-1.500975	-0.121025	-0.837535	99
Es	0.780464	1.307248	0.180407	99
Es	0.321210	1.909589	0.176613	99
Es	-1.361529	0.132387	-0.149810	99
Es	0.131652	0.268552	0.260317	99
Es	0.069213	0.130460	0.075824	99
Es	-0.545044	0.138330	-0.028991	99
Es	2.059605	1.140511	0.267112	99
Es	1.996417	1.407007	0.277365	99
Es	1.574049	1.358907	0.492759	99
Es	0.365246	-0.404693	0.032106	99
Es	2.155434	1.681840	0.309601	99
Es	0.377136	0.625236	0.013770	99
Es	1.606394	1.389425	-0.007403	99
32
Properties=species:S:1:pos:R:3:Z:I:1 energy=-247.08238966949875 field_type=dipole dipole="0.000000 0.000000 0.000000" charge=0
C	-1.361708	0.132376	-0.149840	6
N	0.069102	0.130326	0.076370	7
C	0.761962	-1.142754	0.028090	6
C	0.780572	1.307386	0.180420	6
O	1.996812	1.406946	0.277380	8
H	-1.774838	1.139816	-0.051480	1
H	-1.838948	-0.524974	0.582540	1
H	-1.559188	-0.237394	-1.159790	1
H	0.293602	-1.829194	0.738590	1
H	1.820102	-1.034034	0.282230	1
H	0.678842	-1.548654	-0.983560	1
H	0.133692	2.200156	0.179050	1
Es	0.695622	-1.420044	-0.658480	99
Es	-1.361527	0.132387	-0.149809	99
Es	1.570635	1.358607	0.491818	99
Es	0.069186	0.130423	0.075900	99
Es	0.365368	-0.404813	0.032350	99
Es	-1.688039	-0.314467	0.345812	99
Es	0.377979	0.626860	0.020166	99
Es	0.432808	-1.607464	0.505261	99
Es	1.464608	-1.068975	0.198968	99
Es	-1.631055	0.813369	-0.082257	99
Es	0.761843	-1.142592	0.028092	99
Es	0.130995	0.266983	0.253022	99
Es	0.321170	1.909585	0.176655	99
Es	2.052646	1.143147	0.266235	99
Es	1.996356	1.406945	0.277366	99
Es	1.609936	1.391568	-0.008101	99
Es	-0.545268	0.138517	-0.028436	99
Es	-1.501049	-0.121092	-0.837501	99
Es	0.780464	1.307247	0.180408	99
Es	2.162382	1.677331	0.312086	99
32
Properties=species:S:1:pos:R:3:Z:I:1 energy=-247.08238966949875 field_type=dipole dipole="0.000000 0.000000 0.000000" charge=0
C	-1.361708	0.132376	-0.149840	6
N	0.069102	0.130326	0.076370	7
C	0.761962	-1.142754	0.028090	6
C	0.780572	1.307386	0.180420	6
O	1.996812	1.406946	0.277380	8
H	-1.774838	1.139816	-0.051480	1
H	-1.838948	-0.524974	0.582540	1
H	-1.559188	-0.237394	-1.159790	1
H	0.293602	-1.829194	0.738590	1
H	1.820102	-1.034034	0.282230	1
H	0.678842	-1.548654	-0.983560	1
H	0.133692	2.200156	0.179050	1
Es	0.321177	1.909545	0.176782	99
Es	-0.545513	0.138494	-0.027557	99
Es	1.569231	1.360533	0.491188	99
Es	0.378537	0.627927	0.024694	99
Es	0.432839	-1.607319	0.505050	99
Es	0.069248	0.130507	0.075672	99
Es	-1.501146	-0.120977	-0.837541	99
Es	0.365287	-0.404994	0.032831	99
Es	2.167651	1.673943	0.311950	99
Es	-1.688030	-0.314439	0.345708	99
Es	0.761841	-1.142593	0.028092	99
Es	-1.631050	0.813238	-0.082138	99
Es	-1.361526	0.132389	-0.149809	99
Es	1.996413	1.407003	0.277355	99
Es	2.047274	1.144888	0.267699	99
Es	0.130627	0.265977	0.247350	99
Es	1.464812	-1.068998	0.199022	99
Es	1.611430	1.391204	-0.008907	99
Es	0.780464	1.307248	0.180414	99
Es	0.695493	-1.420055	-0.658302	99
32
Properties=species:S:1:pos:R:3:Z:I:1 energy=-247.08238966949875 field_type=dipole dipole="0.000000 0.000000 0.000000" charge=0
C	-1.361708	0.132376	-0.149840	6
N	0.069102	0.130326	0.076370	7
C	0.761962	-1.142754	0.028090	6
C	0.780572	1.307386	0.180420	6
O	1.996812	1.406946	0.277380	8
H	-1.774838	1.139816	-0.051480	1
H	-1.838948	-0.524974	0.582540	1
H	-1.559188	-0.237394	-1.159790	1
H	0.293602	-1.829194	0.738590	1
H	1.820102	-1.034034	0.282230	1
H	0.678842	-1.548654	-0.983560	1
H	0.133692	2.200156	0.179050	1
Es	-1.688180	-0.314443	0.345773	99
Es	0.379225	0.629542	0.031655	99
Es	0.130107	0.264302	0.240237	99
Es	1.464949	-1.069031	0.198974	99
Es	1.609292	1.390574	-0.008744	99
Es	2.171214	1.671433	0.310257	99
Es	0.321143	1.909555	0.176683	99
Es	0.780464	1.307248	0.180409	99
Es	0.432623	-1.607483	0.504925	99
Es	0.761844	-1.142595	0.028093	99
Es	0.695546	-1.419786	-0.658098	99
Es	2.043887	1.147089	0.267558	99
Es	0.365428	-0.404847	0.032278	99
Es	-1.631004	0.813125	-0.082302	99
Es	-1.361526	0.132387	-0.149808	99
Es	0.069137	0.130357	0.076069	99
Es	-1.501112	-0.120921	-0.837430	99
Es	1.571227	1.361384	0.492909	99
Es	-0.545621	0.138634	-0.027240	99
Es	1.996417	1.406997	0.277356	99
32
Properties=species:S:1:pos:R:3:Z:I:1 energy=-247.08238966949875 field_type=dipole dipole="0.000000 0.000000 0.000000" charge=0
C	-1.361708	0.132376	-0.149840	6
N	0.069102	0.130326	0.076370	7
C	0.761962	-1.142754	0.028090	6
C	0.780572	1.307386	0.180420	6
O	1.996812	1.406946	0.277380	8
H	-1.774838	1.139816	-0.051480	1
H	-1.838948	-0.524974	0.582540	1
H	-1.559188	-0.237394	-1.159790	1
H	0.293602	-1.829194	0.738590	1
H	1.820102	-1.034034	0.282230	1
H	0.678842	-1.548654	-0.983560	1
H	0.133692	2.200156	0.179050	1
Es	1.465120	-1.069006	0.198987	99
Es	0.695369	-1.419826	-0.657987	99
Es	0.432642	-1.607306	0.504813	99
Es	0.780463	1.307247	0.180409	99
Es	0.069230	0.130483	0.075753	99
Es	-1.688122	-0.314348	0.345726	99
Es	-0.545793	0.138596	-0.026373	99
Es	2.174847	1.668736	0.311529	99
Es	0.321153	1.909545	0.176845	99
Es	-1.501165	-0.121019	-0.837323	99
Es	0.365264	-0.405044	0.032833	99
Es	0.130254	0.264474	0.239259	99
Es	0.761842	-1.142594	0.028091	99
Es	1.608424	1.392774	-0.008145	99
Es	-1.631102	0.813038	-0.082355	99
Es	-1.361528	0.132387	-0.149809	99
Es	1.996433	1.406986	0.277353	99
Es	0.379368	0.629449	0.031369	99
Es	2.040368	1.147578	0.266089	99
Es	1.571994	1.361374	0.492487	99
32
Properties=species:S:1:pos:R:3:Z:I:1 energy=-247.08238966949875 field_type=dipole dipole="0.000000 0.000000 0.000000" charge=0
C	-1.361708	0.132376	-0.149840	6
N	0.069102	0.130326	0.076370	7
C	0.761962	-1.142754	0.028090	6
C	0.780572	1.307386	0.180420	6
O	1.996812	1.406946	0.277380	8
H	-1.774838	1.139816	-0.051480	1
H	-1.838948	-0.524974	0.582540	1
H	-1.559188	-0.237394	-1.159790	1
H	0.293602	-1.829194	0.738590	1
H	1.820102	-1.034034	0.282230	1
H	0.678842	-1.548654	-0.983560	1
H	0.133692	2.200156	0.179050	1
Es	0.379685	0.630677	0.037101	99
Es	0.761843	-1.142594	0.028092	99
Es	1.465124	-1.069065	0.198808	99
Es	1.612615	1.393938	-0.009013	99
Es	-0.545843	0.138575	-0.026273	99
Es	0.695372	-1.419750	-0.657877	99
Es	0.069169	0.130392	0.075959	99
Es	0.321081	1.909578	0.176794	99
Es	1.567969	1.362577	0.491253	99
Es	2.181130	1.663596	0.313077	99
Es	-1.361525	0.132387	-0.149809	99
Es	0.780464	1.307248	0.180408	99
Es	0.365569	-0.405015	0.032767	99
Es	-1.631116	0.813129	-0.082454	99
Es	0.129820	0.263353	0.233352	99
Es	0.432635	-1.607441	0.504895	99
Es	1.996399	1.407035	0.277353	99
Es	-1.688187	-0.314385	0.345728	99
Es	2.033944	1.150304	0.266616	99
Es	-1.501088	-0.121018	-0.837223	99
32
Properties=species:S:1:pos:R:3:Z:I:1 energy=-247.08238966949875 field_type=dipole dipole="0.000000 0.000000 0.000000" charge=0
C	-1.361708	0.132376	-0.149840	6
N	0.069102	0.130326	0.076370	7
C	0.761962	-1.142754	0.028090	6
C	0.780572	1.307386	0.180420	6
O	1.996812	1.406946	0.277380	8
H	-1.774838	1.139816	-0.051480	1
H	-1.838948	-0.524974	0.582540	1
H	-1.559188	-0.237394	-1.159790	1
H	0.293602	-1.829194	0.738590	1
H	1.820102	-1.034034	0.282230	1
H	0.678842	-1.548654	-0.983560	1
H	0.133692	2.200156	0.179050	1
Es	1.608418	1.392084	-0.008505	99
Es	2.183387	1.662414	0.310824	99
Es	0.432585	-1.607507	0.504691	99
Es	0.761843	-1.142595	0.028092	99
Es	-0.545994	0.138540	-0.025548	99
Es	-1.361531	0.132386	-0.149808	99
Es	0.321089	1.909596	0.176790	99
Es	0.379773	0.630900	0.038303	99
Es	0.129822	0.262902	0.232019	99
Es	-1.631167	0.813176	-0.082369	99
Es	2.031941	1.152403	0.267114	99
Es	1.572029	1.363446	0.492510	99
Es	0.695401	-1.419623	-0.657605	99
Es	0.365422	-0.404945	0.032398	99
Es	-1.501115	-0.120955	-0.837169	99
Es	0.069267	0.130539	0.075669	99
Es	1.996299	1.407047	0.277352	99
Es	1.465277	-1.069119	0.198773	99
Es	-1.688150	-0.314417	0.345618	99
Es	0.780464	1.307248	0.180405	99
32
Properties=species:S:1:pos:R:3:Z:I:1 energy=-247.08238966949875 field_type=dipole dipole="0.000000 0.000000 0.000000" charge=0
C	-1.361708	0.132376	-0.149840	6
N	0.069102	0.130326	0.076370	7
C	0.761962	-1.142754	0.028090	6
C	0.780572	1.307386	0.180420	6
O	1.996812	1.406946	0.277380	8
H	-1.774838	1.139816	-0.051480	1
H	-1.838948	-0.524974	0.582540	1
H	-1.559188	-0.237394	-1.159790	1
H	0.293602	-1.829194	0.738590	1
H	1.820102	-1.034034	0.282230	1
H	0.678842	-1.548654	-0.983560	1
H	0.133692	2.200156	0.179050	1
Es	-0.546082	0.138565	-0.025467	99
Es	0.129584	0.262494	0.227895	99
Es	2.030205	1.153385	0.265896	99
Es	-1.501022	-0.120764	-0.837149	99
Es	0.365560	-0.404990	0.032866	99
Es	-1.688264	-0.314575	0.345557	99
Es	1.569106	1.362102	0.491916	99
Es	0.432472	-1.607464	0.504631	99
Es	1.996455	1.406954	0.277348	99
Es	1.611466	1.394104	-0.008995	99
Es	1.465327	-1.069167	0.198836	99
Es	-1.631176	0.813092	-0.082379	99
Es	0.069231	0.130486	0.075735	99
Es	0.780463	1.307247	0.180409	99
Es	0.695399	-1.419586	-0.657548	99
Es	0.761845	-1.142597	0.028092	99
Es	0.321087	1.909578	0.176886	99
Es	2.184882	1.660803	0.313061	99
Es	-1.361526	0.132386	-0.149808	99
Es	0.380048	0.631466	0.041770	99
32
Properties=species:S:1:pos:R:3:Z:I:1 energy=-247.08238966949875 field_type=dipole dipole="0.000000 0.000000 0.000000" charge=0
C	-1.361708	0.132376	-0.149840	6
N	0.069102	0.130326	0.076370	7
C	0.761962	-1.142754	0.028090	6
C	0.780572	1.307386	0.180420	6
O	1.996812	1.406946	0.277380	8
H	-1.774838	1.139816	-0.051480	1
H	-1.838948	-0.524974	0.582540	1
H	-1.559188	-0.237394	-1.159790	1
H	0.293602	-1.829194	0.738590	1
H	1.820102	-1.034034	0.282230	1
H	0.678842	-1.548654	-0.983560	1
H	0.133692	2.200156	0.179050	1
Es	-1.688336	-0.314454	0.345711	99
Es	0.365528	-0.405140	0.033317	99
Es	-1.361527	0.132388	-0.149808	99
Es	-1.631097	0.813000	-0.082540	99
Es	1.465374	-1.069084	0.198782	99
Es	2.186365	1.659533	0.311567	99
Es	1.996420	1.407007	0.277354	99
Es	2.028808	1.153811	0.267064	99
Es	0.380342	0.632065	0.044961	99
Es	1.570221	1.363902	0.492425	99
Es	1.610327	1.393066	-0.009189	99
Es	0.129568	0.262203	0.223316	99
Es	0.761842	-1.142594	0.028092	99
Es	0.069150	0.130371	0.076008	99
Es	-1.501066	-0.120847	-0.837088	99
Es	0.432501	-1.607441	0.504664	99
Es	0.695323	-1.419586	-0.657543	99
Es	0.321106	1.909551	0.176833	99
Es	0.780464	1.307248	0.180408	99
Es	-0.546251	0.138522	-0.024781	99
32
Properties=species:S:1:pos:R:3:Z:I:1 energy=-247.08238966949875 field_type=dipole dipole="0.000000 0.000000 0.000000" charge=0
C	-1.361708	0.132376	-0.149840	6
N	0.069102	0.130326	0.076370	7
C	0.761962	-1.142754	0.028090	6
C	0.780572	1.307386	0.180420	6
O	1.996812	1.406946	0.277380	8
H	-1.774838	1.139816	-0.051480	1
H	-1.838948	-0.524974	0.582540	1
H	-1.559188	-0.237394	-1.159790	1
H	0.293602	-1.829194	0.738590	1
H	1.820102	-1.034034	0.282230	1
H	0.678842	-1.548654	-0.983560	1
H	0.133692	2.200156	0.179050	1
Es	0.761843	-1.142596	0.028092	99
Es	0.069238	0.130493	0.075726	99
Es	1.465419	-1.069251	0.198652	99
Es	0.695237	-1.419642	-0.657409	99
Es	0.365542	-0.405305	0.033711	99
Es	0.380414	0.632125	0.045749	99
Es	0.321036	1.909600	0.176943	99
Es	-1.361526	0.132386	-0.149808	99
Es	-1.631185	0.813141	-0.082526	99
Es	2.190335	1.656385	0.312421	99
Es	1.569706	1.362975	0.492458	99
Es	1.610763	1.394323	-0.008723	99
Es	2.024858	1.156714	0.265691	99
Es	-1.688306	-0.314449	0.345569	99
Es	-0.546202	0.138614	-0.024802	99
Es	0.780464	1.307248	0.180408	99
Es	-1.501023	-0.120874	-0.837011	99
Es	0.432569	-1.607391	0.504672	99
Es	0.129423	0.262093	0.222391	99
Es	1.996456	1.406930	0.277350	99
32
Properties=species:S:1:pos:R:3:Z:I:1 energy=-247.08238966949875 field_type=dipole dipole="0.000000 0.000000 0.000000" charge=0
C	-1.361708	0.132376	-0.149840	6
N	0.069102	0.130326	0.076370	7
C	0.761962	-1.142754	0.028090	6
C	0.780572	1.307386	0.180420	6
O	1.996812	1.406946	0.277380	8
H	-1.774838	1.139816	-0.051480	1
H	-1.838948	-0.524974	0.582540	1
H	-1.559188	-0.237394	-1.159790	1
H	0.293602	-1.829194	0.738590	1
H	1.820102	-1.034034	0.282230	1
H	0.678842	-1.548654	-0.983560	1
H	0.133692	2.200156	0.179050	1
Es	0.432547	-1.607468	0.504689	99
Es	2.024465	1.157215	0.266357	99
Es	0.069151	0.130376	0.076004	99
Es	0.365690	-0.405443	0.034103	99
Es	1.609556	1.393347	-0.008757	99
Es	-0.546333	0.138535	-0.024398	99
Es	1.570855	1.364033	0.493460	99
Es	0.320990	1.909584	0.176896	99
Es	1.996440	1.406826	0.277358	99
Es	-1.630994	0.812968	-0.082514	99
Es	0.780464	1.307248	0.180406	99
Es	1.465479	-1.069172	0.198552	99
Es	0.695168	-1.419520	-0.657391	99
Es	2.190831	1.655883	0.310773	99
Es	-1.501110	-0.120695	-0.837080	99
Es	0.761843	-1.142592	0.028092	99
Es	0.380612	0.632776	0.049579	99
Es	0.129363	0.261711	0.217510	99
Es	-1.361528	0.132388	-0.149809	99
Es	-1.688428	-0.314482	0.345724	99
32
Properties=species:S:1:pos:R:3:Z:I:1 energy=-247.08238966949875 field_type=dipole dipole="0.000000 0.000000 0.000000" charge=0
C	-1.361708	0.132376	-0.149840	6
N	0.069102	0.130326	0.076370	7
C	0.761962	-1.142754	0.028090	6
C	0.780572	1.307386	0.180420	6
O	1.996812	1.406946	0.277380	8
H	-1.774838	1.139816	-0.051480	1
H	-1.838948	-0.524974	0.582540	1
H	-1.559188	-0.237394	-1.159790	1
H	0.293602	-1.829194	0.738590	1
H	1.820102	-1.034034	0.282230	1
H	0.678842	-1.548654	-0.983560	1
H	0.133692	2.200156	0.179050	1
Es	1.465566	-1.069138	0.198775	99
Es	0.365426	-0.405520	0.034056	99
Es	1.571171	1.365322	0.492810	99
Es	0.695277	-1.419382	-0.657314	99
Es	2.023974	1.157398	0.268037	99
Es	-1.688266	-0.314435	0.345542	99
Es	-1.631166	0.812974	-0.082398	99
Es	0.380662	0.632518	0.048317	99
Es	-1.361526	0.132387	-0.149808	99
Es	0.129418	0.261817	0.218757	99
Es	2.191302	1.656155	0.309744	99
Es	0.321028	1.909586	0.176899	99
Es	0.780463	1.307247	0.180411	99
Es	0.432457	-1.607504	0.504386	99
Es	-0.546375	0.138603	-0.024061	99
Es	1.996391	1.407016	0.277354	99
Es	-1.501161	-0.120766	-0.837044	99
Es	0.761843	-1.142594	0.028092	99
Es	1.609337	1.391337	-0.008720	99
Es	0.069240	0.130499	0.075720	99
32
Properties=species:S:1:pos:R:3:Z:I:1 energy=-247.08238966949875 field_type=dipole dipole="0.000000 0.000000 0.000000" charge=0
C	-1.361708	0.132376	-0.149840	6
N	0.069102	0.130326	0.076370	7
C	0.761962	-1.142754	0.028090	6
C	0.780572	1.307386	0.180420	6
O	1.996812	1.406946	0.277380	8
H	-1.774838	1.139816	-0.051480	1
H	-1.838948	-0.524974	0.582540	1
H	-1.559188	-0.237394	-1.159790	1
H	0.293602	-1.829194	0.738590	1
H	1.820102	-1.034034	0.282230	1
H	0.678842	-1.548654	-0.983560	1
H	0.133692	2.200156	0.179050	1
Es	2.022072	1.158795	0.265398	99
Es	0.321019	1.909607	0.176841	99
Es	0.761843	-1.142594	0.028092	99
Es	0.380729	0.633146	0.052236	99
Es	0.069118	0.130340	0.076140	99
Es	-0.546482	0.138516	-0.023819	99
Es	0.780463	1.307249	0.180409	99
Es	1.570707	1.363424	0.493575	99
Es	-1.501059	-0.120675	-0.837006	99
Es	0.432358	-1.607528	0.504423	99
Es	-1.688489	-0.314483	0.345673	99
Es	2.193252	1.653707	0.311445	99
Es	0.695304	-1.419353	-0.657190	99
Es	1.465594	-1.069235	0.198698	99
Es	0.365670	-0.405384	0.033881	99
Es	0.129377	0.261327	0.214343	99
Es	-1.631015	0.812965	-0.082574	99
Es	1.609681	1.394351	-0.008558	99
Es	1.996450	1.406961	0.277355	99
Es	-1.361532	0.132386	-0.149809	99
32
Properties=species:S:1:pos:R:3:Z:I:1 energy=-247.08238966949875 field_type=dipole dipole="0.000000 0.000000 0.000000" charge=0
C	-1.361708	0.132376	-0.149840	6
N	0.069102	0.130326	0.076370	7
C	0.761962	-1.142754	0.028090	6
C	0.780572	1.307386	0.180420	6
O	1.996812	1.406946	0.277380	8
H	-1.774838	1.139816	-0.051480	1
H	-1.838948	-0.524974	0.582540	1
H	-1.559188	-0.237394	-1.159790	1
H	0.293602	-1.829194	0.738590	1
H	1.820102	-1.034034	0.282230	1
H	0.678842	-1.548654	-0.983560	1
H	0.133692	2.200156	0.179050	1
Es	0.695181	-1.419421	-0.657119	99
Es	0.129349	0.261400	0.213429	99
Es	1.609796	1.393076	-0.009103	99
Es	-1.631143	0.812991	-0.082580	99
Es	0.069207	0.130451	0.075801	99
Es	1.465642	-1.069246	0.198562	99
Es	0.380741	0.633237	0.052498	99
Es	0.432479	-1.607477	0.504475	99
Es	0.365637	-0.405492	0.034446	99
Es	0.321011	1.909597	0.176913	99
Es	1.570708	1.363908	0.493282	99
Es	2.021234	1.159987	0.266446	99
Es	0.761843	-1.142594	0.028092	99
Es	-1.501139	-0.120828	-0.836899	99
Es	1.996424	1.406983	0.277353	99
Es	2.194017	1.653251	0.311185	99
Es	-1.688343	-0.314394	0.345639	99
Es	0.780464	1.307250	0.180408	99
Es	-0.546520	0.138457	-0.023467	99
Es	-1.361527	0.132386	-0.149810	99
32
Properties=species:S:1:pos:R:3:Z:I:1 energy=-247.08238966949875 field_type=dipole dipole="0.000000 0.000000 0.000000" charge=0
C	-1.361708	0.132376	-0.149840	6
N	0.069102	0.130326	0.076370	7
C	0.761962	-1.142754	0.028090	6
C	0.780572	1.307386	0.180420	6
O	1.996812	1.406946	0.277380	8
H	-1.774838	1.139816	-0.051480	1
H	-1.838948	-0.524974	0.582540	1
H	-1.559188	-0.237394	-1.159790	1
H	0.293602	-1.829194	0.738590	1
H	1.820102	-1.034034	0.282230	1
H	0.678842	-1.548654	-0.983560	1
H	0.133692	2.200156	0.179050	1
Es	1.567756	1.363538	0.492803	99
Es	1.996473	1.406903	0.277353	99
Es	0.432524	-1.607410	0.504476	99
Es	-1.501054	-0.120796	-0.836934	99
Es	2.018097	1.161579	0.265330	99
Es	0.129077	0.261145	0.210711	99
Es	1.465590	-1.069321	0.198625	99
Es	-0.546500	0.138474	-0.023665	99
Es	0.761844	-1.142597	0.028092	99
Es	-1.688300	-0.314513	0.345550	99
Es	0.320981	1.909592	0.176853	99
Es	-1.361525	0.132386	-0.149807	99
Es	-1.631215	0.813109	-0.082497	99
Es	1.612721	1.395140	-0.008871	99
Es	0.380934	0.633581	0.054859	99
Es	0.069293	0.130572	0.075602	99
Es	0.780464	1.307248	0.180409	99
Es	2.197103	1.650125	0.312567	99
Es	0.695167	-1.419493	-0.657215	99
Es	0.365631	-0.405743	0.035313	99
32
Properties=species:S:1:pos:R:3:Z:I:1 energy=-247.08238966949875 field_type=dipole dipole="0.000000 0.000000 0.000000" charge=0
C	-1.361708	0.132376	-0.149840	6
N	0.069102	0.130326	0.076370	7
C	0.761962	-1.142754	0.028090	6
C	0.780572	1.307386	0.180420	6
O	1.996812	1.406946	0.277380	8
H	-1.774838	1.139816	-0.051480	1
H	-1.838948	-0.524974	0.582540	1
H	-1.559188	-0.237394	-1.159790	1
H	0.293602	-1.829194	0.738590	1
H	1.820102	-1.034034	0.282230	1
H	0.678842	-1.548654	-0.983560	1
H	0.133692	2.200156	0.179050	1
Es	0.432344	-1.607567	0.504526	99
Es	0.320999	1.909564	0.176938	99
Es	-1.501079	-0.120718	-0.836916	99
Es	0.365970	-0.405779	0.035201	99
Es	2.197009	1.650117	0.311598	99
Es	0.761843	-1.142594	0.028092	99
Es	0.069117	0.130340	0.076148	99
Es	2.018347	1.161170	0.265290	99
Es	0.780464	1.307248	0.180409	99
Es	0.695223	-1.419310	-0.657149	99
Es	-1.631041	0.812975	-0.082637	99
Es	1.996409	1.407017	0.277343	99
Es	1.465630	-1.069176	0.198552	99
Es	0.129312	0.261166	0.207629	99
Es	0.380775	0.633862	0.056771	99
Es	1.570054	1.364011	0.493674	99
Es	-1.361526	0.132388	-0.149808	99
Es	-0.546670	0.138339	-0.023082	99
Es	-1.688478	-0.314468	0.345713	99
Es	1.610359	1.394937	-0.008738	99
32
Properties=species:S:1:pos:R:3:Z:I:1 energy=-247.08238966949875 field_type=dipole dipole="0.000000 0.000000 0.000000" charge=0
C	-1.361708	0.132376	-0.149840	6
N	0.069102	0.130326	0.076370	7
C	0.761962	-1.142754	0.028090	6
C	0.780572	1.307386	0.180420	6
O	1.996812	1.406946	0.277380	8
H	-1.774838	1.139816	-0.051480	1
H	-1.838948	-0.524974	0.582540	1
H	-1.559188	-0.237394	-1.159790	1
H	0.293602	-1.829194	0.738590	1
H	1.820102	-1.034034	0.282230	1
H	0.678842	-1.548654	-0.983560	1
H	0.133692	2.200156	0.179050	1
Es	1.996427	1.406995	0.277350	99
Es	0.069175	0.130405	0.075904	99
Es	0.365508	-0.405612	0.034643	99
Es	2.196595	1.650980	0.310758	99
Es	-1.361523	0.132385	-0.149806	99
Es	-0.546729	0.138420	-0.022652	99
Es	-1.631115	0.812994	-0.082490	99
Es	1.572574	1.362764	0.494644	99
Es	-1.688420	-0.314511	0.345539	99
Es	0.432446	-1.607592	0.504352	99
Es	0.695234	-1.419281	-0.656984	99
Es	0.780463	1.307247	0.180408	99
Es	0.761844	-1.142596	0.028092	99
Es	2.018890	1.161980	0.264450	99
Es	0.321031	1.909590	0.176897	99
Es	0.380975	0.633728	0.056429	99
Es	-1.501107	-0.120626	-0.836915	99
Es	1.607723	1.394430	-0.007996	99
Es	0.129354	0.260991	0.208388	99
Es	1.465718	-1.069172	0.198541	99
32
Properties=species:S:1:pos:R:3:Z:I:1 energy=-247.08238966949875 field_type=dipole dipole="0.000000 0.000000 0.000000" charge=0
C	-1.361708	0.132376	-0.149840	6
N	0.069102	0.130326	0.076370	7
C	0.761962	-1.142754	0.028090	6
C	0.780572	1.307386	0.180420	6
O	1.996812	1.406946	0.277380	8
H	-1.774838	1.139816	-0.051480	1
H	-1.838948	-0.524974	0.582540	1
H	-1.559188	-0.237394	-1.159790	1
H	0.293602	-1.829194	0.738590	1
H	1.820102	-1.034034	0.282230	1
H	0.678842	-1.548654	-0.983560	1
H	0.133692	2.200156	0.179050	1
Es	1.996338	1.407038	0.277351	99
Es	1.465689	-1.069253	0.198462	99
Es	0.365757	-0.405717	0.035104	99
Es	0.695313	-1.419265	-0.656879	99
Es	-1.501003	-0.120631	-0.836831	99
Es	1.568793	1.364413	0.493226	99
Es	2.016381	1.163369	0.266230	99
Es	0.129205	0.260738	0.205188	99
Es	-1.361527	0.132387	-0.149809	99
Es	0.069205	0.130448	0.075819	99
Es	1.611790	1.394134	-0.009660	99
Es	-1.631029	0.812990	-0.082716	99
Es	0.320982	1.909604	0.176866	99
Es	0.761844	-1.142596	0.028092	99
Es	-0.546705	0.138312	-0.022616	99
Es	2.198880	1.648256	0.311995	99
Es	0.780463	1.307247	0.180406	99
Es	-1.688596	-0.314509	0.345668	99
Es	0.380925	0.634225	0.059219	99
Es	0.432355	-1.607669	0.504438	99
32
Properties=species:S:1:pos:R:3:Z:I:1 energy=-247.08238966949875 field_type=dipole dipole="0.000000 0.000000 0.000000" charge=0
C	-1.361708	0.132376	-0.149840	6
N	0.069102	0.130326	0.076370	7
C	0.761962	-1.142754	0.028090	6
C	0.780572	1.307386	0.180420	6
O	1.996812	1.406946	0.277380	8
H	-1.774838	1.139816	-0.051480	1
H	-1.838948	-0.524974	0.582540	1
H	-1.559188	-0.237394	-1.159790	1
H	0.293602	-1.829194	0.738590	1
H	1.820102	-1.034034	0.282230	1
H	0.678842	-1.548654	-0.983560	1
H	0.133692	2.200156	0.179050	1
Es	1.608849	1.394011	-0.008316	99
Es	-0.546726	0.138586	-0.022700	99
Es	1.996378	1.407018	0.277354	99
Es	1.571489	1.365140	0.494035	99
Es	-1.688524	-0.314492	0.345675	99
Es	0.321001	1.909621	0.176914	99
Es	1.465747	-1.069214	0.198396	99
Es	0.365507	-0.405610	0.034822	99
Es	-1.631067	0.812858	-0.082670	99
Es	0.129302	0.260784	0.205592	99
Es	0.069113	0.130334	0.076180	99
Es	-1.501045	-0.120667	-0.836896	99
Es	2.199199	1.648435	0.310167	99
Es	0.780464	1.307247	0.180408	99
Es	-1.361527	0.132387	-0.149810	99
Es	0.695232	-1.419245	-0.656849	99
Es	2.016284	1.162563	0.265903	99
Es	0.761843	-1.142594	0.028092	99
Es	0.381170	0.634009	0.058814	99
Es	0.432371	-1.607649	0.504442	99
32
Properties=species:S:1:pos:R:3:Z:I:1 energy=-247.08238966949875 field_type=dipole dipole="0.000000 0.000000 0.000000" charge=0
C	-1.361708	0.132376	-0.149840	6
N	0.069102	0.130326	0.076370	7
C	0.761962	-1.142754	0.028090	6
C	0.780572	1.307386	0.180420	6
O	1.996812	1.406946	0.277380	8
H	-1.774838	1.139816	-0.051480	1
H	-1.838948	-0.524974	0.582540	1
H	-1.559188	-0.237394	-1.159790	1
H	0.293602	-1.829194	0.738590	1
H	1.820102	-1.034034	0.282230	1
H	0.678842	-1.548654	-0.983560	1
H	0.133692	2.200156	0.179050	1
Es	0.780463	1.307247	0.180409	99
Es	-1.361527	0.132386	-0.149808	99
Es	2.199979	1.648085	0.310388	99
Es	1.609557	1.393492	-0.008360	99
Es	-1.688350	-0.314401	0.345522	99
Es	2.015422	1.164034	0.265985	99
Es	-1.501065	-0.120868	-0.836721	99
Es	0.432268	-1.607668	0.504237	99
Es	1.465796	-1.069354	0.198518	99
Es	0.761839	-1.142592	0.028092	99
Es	0.695327	-1.419159	-0.656721	99
Es	-0.546592	0.138382	-0.023063	99
Es	1.996427	1.406990	0.277356	99
Es	0.069207	0.130450	0.075804	99
Es	-1.631265	0.813078	-0.082666	99
Es	0.129179	0.260838	0.207400	99
Es	0.321019	1.909591	0.176930	99
Es	0.380896	0.633945	0.057668	99
Es	1.570813	1.364589	0.493822	99
Es	0.365666	-0.405544	0.034762	99
32
Properties=species:S:1:pos:R:3:Z:I:1 energy=-247.08238966949875 field_type=dipole dipole="0.000000 0.000000 0.000000" charge=0
C	-1.361708	0.132376	-0.149840	6
N	0.069102	0.130326	0.076370	7
C	0.761962	-1.142754	0.028090	6
C	0.780572	1.307386	0.180420	6
O	1.996812	1.406946	0.277380	8
H	-1.774838	1.139816	-0.051480	1
H	-1.838948	-0.524974	0.582540	1
H	-1.559188	-0.237394	-1.159790	1
H	0.293602	-1.829194	0.738590	1
H	1.820102	-1.034034	0.282230	1
H	0.678842	-1.548654	-0.983560	1
H	0.133692	2.200156	0.179050	1
Es	0.069160	0.130387	0.075955	99
Es	-1.631009	0.812852	-0.082692	99
Es	0.761842	-1.142595	0.028092	99
Es	-1.688626	-0.314517	0.345658	99
Es	-1.361525	0.132387	-0.149809	99
Es	1.996422	1.407007	0.277355	99
Es	-1.501039	-0.120552	-0.836841	99
Es	0.432270	-1.607655	0.504433	99
Es	2.200485	1.647062	0.311177	99
Es	0.321039	1.909563	0.177009	99
Es	1.611209	1.394591	-0.008735	99
Es	0.365737	-0.405857	0.035576	99
Es	0.780464	1.307248	0.180406	99
Es	1.569237	1.365033	0.493431	99
Es	-0.546688	0.138479	-0.022826	99
Es	0.129141	0.260734	0.202989	99
Es	0.381087	0.634287	0.060913	99
Es	0.695199	-1.419174	-0.656779	99
Es	1.465800	-1.069263	0.198359	99
Es	2.014857	1.163501	0.265884	99
32
Properties=species:S:1:pos:R:3:Z:I:1 energy=-247.08238966949875 field_type=dipole dipole="0.000000 0.000000 0.000000" charge=0
C	-1.361708	0.132376	-0.149840	6
N	0.069102	0.130326	0.076370	7
C	0.761962	-1.142754	0.028090	6
C	0.780572	1.307386	0.180420	6
O	1.996812	1.406946	0.277380	8
H	-1.774838	1.139816	-0.051480	1
H	-1.838948	-0.524974	0.582540	1
H	-1.559188	-0.237394	-1.159790	1
H	0.293602	-1.829194	0.738590	1
H	1.820102	-1.034034	0.282230	1
H	0.678842	-1.548654	-0.983560	1
H	0.133692	2.200156	0.179050	1
Es	-1.688489	-0.314586	0.345585	99
Es	-0.546712	0.138464	-0.022718	99
Es	1.465794	-1.069329	0.198464	99
Es	-1.361525	0.132388	-0.149810	99
Es	-1.631172	0.813008	-0.082665	99
Es	0.761844	-1.142595	0.028092	99
Es	1.569026	1.363904	0.493541	99
Es	0.381149	0.634353	0.061300	99
Es	2.013789	1.165103	0.265038	99
Es	0.320995	1.909584	0.176979	99
Es	0.365630	-0.405920	0.035902	99
Es	0.069289	0.130568	0.075587	99
Es	0.432366	-1.607566	0.504328	99
Es	1.611384	1.395024	-0.008488	99
Es	0.695195	-1.419249	-0.656812	99
Es	0.129030	0.260608	0.202570	99
Es	-1.501004	-0.120644	-0.836748	99
Es	2.201570	1.646209	0.311648	99
Es	1.996440	1.406948	0.277353	99
Es	0.780464	1.307247	0.180411	99
32
Properties=species:S:1:pos:R:3:Z:I:1 energy=-247.08238966949875 field_type=dipole dipole="0.000000 0.000000 0.000000" charge=0
C	-1.361708	0.132376	-0.149840	6
N	0.069102	0.130326	0.076370	7
C	0.761962	-1.142754	0.028090	6
C	0.780572	1.307386	0.180420	6
O	1.996812	1.406946	0.277380	8
H	-1.774838	1.139816	-0.051480	1
H	-1.838948	-0.524974	0.582540	1
H	-1.559188	-0.237394	-1.159790	1
H	0.293602	-1.829194	0.738590	1
H	1.820102	-1.034034	0.282230	1
H	0.678842	-1.548654	-0.983560	1
H	0.133692	2.200156	0.179050	1
Es	1.996376	1.407033	0.277354	99
Es	0.129366	0.260521	0.200482	99
Es	0.432327	-1.607757	0.504353	99
Es	0.365543	-0.405826	0.035351	99
Es	0.761843	-1.142594	0.028092	99
Es	-1.361527	0.132387	-0.149809	99
Es	0.320952	1.909582	0.176893	99
Es	-1.631047	0.812948	-0.082686	99
Es	-1.500958	-0.120521	-0.836822	99
Es	0.069155	0.130380	0.075971	99
Es	2.012932	1.165092	0.266052	99
Es	1.465777	-1.069240	0.198377	99
Es	-1.688628	-0.314624	0.345632	99
Es	1.571612	1.365750	0.494091	99
Es	2.202517	1.645193	0.310284	99
Es	1.608756	1.394149	-0.008652	99
Es	0.695300	-1.419136	-0.656734	99
Es	0.780466	1.307249	0.180412	99
Es	-0.546941	0.138380	-0.021538	99
Es	0.381242	0.634553	0.062451	99
32
Properties=species:S:1:pos:R:3:Z:I:1 energy=-247.08238966949875 field_type=dipole dipole="0.000000 0.000000 0.000000" charge=0
C	-1.361708	0.132376	-0.149840	6
N	0.069102	0.130326	0.076370	7
C	0.761962	-1.142754	0.028090	6
C	0.780572	1.307386	0.180420	6
O	1.996812	1.406946	0.277380	8
H	-1.774838	1.139816	-0.051480	1
H	-1.838948	-0.524974	0.582540	1
H	-1.559188	-0.237394	-1.159790	1
H	0.293602	-1.829194	0.738590	1
H	1.820102	-1.034034	0.282230	1
H	0.678842	-1.548654	-0.983560	1
H	0.133692	2.200156	0.179050	1
Es	1.610142	1.394235	-0.008248	99
Es	1.465842	-1.069208	0.198408	99
Es	1.570187	1.364837	0.494238	99
Es	0.761845	-1.142597	0.028093	99
Es	0.695231	-1.419185	-0.656695	99
Es	-1.500984	-0.120699	-0.836618	99
Es	0.432285	-1.607641	0.504350	99
Es	-1.688477	-0.314579	0.345575	99
Es	-1.631217	0.813158	-0.082722	99
Es	2.012586	1.166176	0.265543	99
Es	1.996306	1.407023	0.277349	99
Es	0.780463	1.307248	0.180409	99
Es	-1.361522	0.132386	-0.149808	99
Es	0.320979	1.909593	0.176965	99
Es	0.381197	0.634531	0.062583	99
Es	-0.546670	0.138422	-0.022809	99
Es	0.365610	-0.406099	0.035809	99
Es	2.202990	1.644916	0.310239	99
Es	0.069225	0.130466	0.075769	99
Es	0.129043	0.260537	0.201123	99
