34
Properties=species:S:1:pos:R:3:Z:I:1 energy=-211.19470882244283 field_type=dipole dipole="0.000000 0.000000 0.000000" charge=0
C	-1.808789	-0.521856	0.421194	6
C	-0.322439	-0.468266	0.505744	6
N	0.488780	-1.155516	-0.498856	7
C	0.484261	0.305714	-0.508126	6
C	1.716480	1.034064	-0.096066	6
H	-2.248129	0.219784	1.095554	1
H	-2.169849	-1.510666	0.722224	1
H	-2.174129	-0.317446	-0.589906	1
H	0.039591	-0.539436	1.525034	1
H	-0.091679	-1.525896	-1.253646	1
H	-0.020959	0.783464	-1.339496	1
H	2.237961	0.536394	0.728444	1
H	1.460130	2.047734	0.227444	1
H	2.408771	1.111924	-0.939546	1
Es	2.184635	1.087750	-0.672501	99
Es	-2.102804	-0.017505	0.880058	99
Es	0.121651	-1.361080	-0.950269	99
Es	0.488292	-1.155157	-0.498969	99
Es	1.716460	1.034068	-0.096073	99
Es	0.484248	0.305490	-0.508078	99
Es	-0.071118	-0.514622	1.200498	99
Es	0.786203	-1.329545	-0.399696	99
Es	-0.322333	-0.468342	0.505540	99
Es	-2.049889	-0.384613	-0.273133	99
Es	1.108444	0.659241	-0.297941	99
Es	2.063859	0.694573	0.464303	99
Es	-1.069180	-0.497372	0.447763	99
Es	1.534232	1.723709	0.121267	99
Es	0.081337	-0.985072	-0.025602	99
Es	0.561113	-0.524591	-0.625199	99
Es	-2.050791	-1.195261	0.625731	99
Es	0.128051	0.629620	-1.075817	99
Es	0.005995	0.117046	0.093736	99
Es	-1.808778	-0.521855	0.421194	99
34
Properties=species:S:1:pos:R:3:Z:I:1 energy=-211.19470882244283 field_type=dipole dipole="0.000000 0.000000 0.000000" charge=0
C	-1.808789	-0.521856	0.421194	6
C	-0.322439	-0.468266	0.505744	6
N	0.488780	-1.155516	-0.498856	7
C	0.484261	0.305714	-0.508126	6
C	1.716480	1.034064	-0.096066	6
H	-2.248129	0.219784	1.095554	1
H	-2.169849	-1.510666	0.722224	1
H	-2.174129	-0.317446	-0.589906	1
H	0.039591	-0.539436	1.525034	1
H	-0.091679	-1.525896	-1.253646	1
H	-0.020959	0.783464	-1.339496	1
H	2.237961	0.536394	0.728444	1
H	1.460130	2.047734	0.227444	1
H	2.408771	1.111924	-0.939546	1
Es	0.564712	-0.523287	-0.627138	99
Es	-1.808777	-0.521855	0.421194	99
Es	0.005027	0.118896	0.094419	99
Es	0.123777	-1.362711	-0.950078	99
Es	1.533560	1.723798	0.122229	99
Es	-2.102374	-0.016298	0.880284	99
Es	-1.069632	-0.497757	0.447284	99
Es	-0.071777	-0.514990	1.200469	99
Es	0.781326	-1.326465	-0.401899	99
Es	-2.050618	-1.196633	0.625845	99
Es	2.185586	1.087330	-0.673782	99
Es	0.128980	0.629232	-1.075886	99
Es	0.484251	0.305481	-0.508080	99
Es	1.108852	0.659276	-0.297589	99
Es	2.062619	0.694593	0.463593	99
Es	0.080464	-0.988134	-0.021795	99
Es	1.716462	1.034068	-0.096073	99
Es	-2.048849	-0.384535	-0.272806	99
Es	-0.322333	-0.468346	0.505541	99
Es	0.488371	-1.155182	-0.498922	99
34
Properties=species:S:1:pos:R:3:Z:I:1 energy=-211.19470882244283 field_type=dipole dipole="0.000000 0.000000 0.000000" charge=0
C	-1.808789	-0.521856	0.421194	6
C	-0.322439	-0.468266	0.505744	6
N	0.488780	-1.155516	-0.498856	7
C	0.484261	0.305714	-0.508126	6
C	1.716480	1.034064	-0.096066	6
H	-2.248129	0.219784	1.095554	1
H	-2.169849	-1.510666	0.722224	1
H	-2.174129	-0.317446	-0.589906	1
H	0.039591	-0.539436	1.525034	1
H	-0.091679	-1.525896	-1.253646	1
H	-0.020959	0.783464	-1.339496	1
H	2.237961	0.536394	0.728444	1
H	1.460130	2.047734	0.227444	1
H	2.408771	1.111924	-0.939546	1
Es	0.129761	0.629003	-1.075882	99
Es	-1.070062	-0.498136	0.447342	99
Es	0.080024	-0.990004	-0.019565	99
Es	2.061711	0.694699	0.463198	99
Es	0.488303	-1.155155	-0.498956	99
Es	1.716463	1.034069	-0.096073	99
Es	-2.047848	-0.384399	-0.272687	99
Es	-0.322337	-0.468337	0.505543	99
Es	-0.072173	-0.515270	1.200385	99
Es	0.125502	-1.364142	-0.949751	99
Es	-1.808779	-0.521855	0.421195	99
Es	0.777653	-1.324023	-0.403043	99
Es	0.567326	-0.522636	-0.628812	99
Es	0.004109	0.120356	0.095100	99
Es	1.532960	1.723816	0.122758	99
Es	-2.050464	-1.197552	0.625713	99
Es	0.484253	0.305484	-0.508081	99
Es	1.109219	0.659157	-0.297375	99
Es	-2.102248	-0.015566	0.880419	99
Es	2.186254	1.086971	-0.674618	99
34
Properties=species:S:1:pos:R:3:Z:I:1 energy=-211.19470882244283 field_type=dipole dipole="0.000000 0.000000 0.000000" charge=0
C	-1.808789	-0.521856	0.421194	6
C	-0.322439	-0.468266	0.505744	6
N	0.488780	-1.155516	-0.498856	7
C	0.484261	0.305714	-0.508126	6
C	1.716480	1.034064	-0.096066	6
H	-2.248129	0.219784	1.095554	1
H	-2.169849	-1.510666	0.722224	1
H	-2.174129	-0.317446	-0.589906	1
H	0.039591	-0.539436	1.525034	1
H	-0.091679	-1.525896	-1.253646	1
H	-0.020959	0.783464	-1.339496	1
H	2.237961	0.536394	0.728444	1
H	1.460130	2.047734	0.227444	1
H	2.408771	1.111924	-0.939546	1
Es	1.532536	1.723902	0.123225	99
Es	-1.808776	-0.521855	0.421194	99
Es	0.079707	-0.992025	-0.017774	99
Es	-0.322331	-0.468356	0.505539	99
Es	0.484251	0.305479	-0.508080	99
Es	-1.070477	-0.498115	0.446901	99
Es	-2.050235	-1.198336	0.625914	99
Es	0.003746	0.121239	0.095548	99
Es	-0.072486	-0.515532	1.200438	99
Es	0.569087	-0.521934	-0.629935	99
Es	2.061059	0.694626	0.462833	99
Es	-2.101766	-0.014904	0.880512	99
Es	2.186616	1.086659	-0.675216	99
Es	-2.047417	-0.384355	-0.272464	99
Es	0.127081	-1.365521	-0.949477	99
Es	1.109537	0.659135	-0.297255	99
Es	0.130172	0.628932	-1.075973	99
Es	1.716462	1.034069	-0.096074	99
Es	0.774577	-1.321488	-0.404083	99
Es	0.488285	-1.155141	-0.498961	99
34
Properties=species:S:1:pos:R:3:Z:I:1 energy=-211.19470882244283 field_type=dipole dipole="0.000000 0.000000 0.000000" charge=0
C	-1.808789	-0.521856	0.421194	6
C	-0.322439	-0.468266	0.505744	6
N	0.488780	-1.155516	-0.498856	7
C	0.484261	0.305714	-0.508126	6
C	1.716480	1.034064	-0.096066	6
H	-2.248129	0.219784	1.095554	1
H	-2.169849	-1.510666	0.722224	1
H	-2.174129	-0.317446	-0.589906	1
H	0.039591	-0.539436	1.525034	1
H	-0.091679	-1.525896	-1.253646	1
H	-0.020959	0.783464	-1.339496	1
H	2.237961	0.536394	0.728444	1
H	1.460130	2.047734	0.227444	1
H	2.408771	1.111924	-0.939546	1
Es	0.130567	0.628875	-1.075984	99
Es	-2.101656	-0.014468	0.880528	99
Es	-2.050148	-1.198816	0.625865	99
Es	2.186885	1.086457	-0.675711	99
Es	-1.070708	-0.498236	0.446911	99
Es	-1.808777	-0.521855	0.421195	99
Es	0.570194	-0.521646	-0.630995	99
Es	-2.046747	-0.384290	-0.272455	99
Es	2.060584	0.694649	0.462468	99
Es	0.003505	0.122057	0.095763	99
Es	0.772510	-1.319650	-0.404771	99
Es	0.079327	-0.993410	-0.016357	99
Es	-0.322335	-0.468343	0.505539	99
Es	0.128332	-1.366469	-0.949101	99
Es	1.532206	1.723901	0.123638	99
Es	0.488289	-1.155147	-0.498962	99
Es	1.109739	0.659055	-0.297053	99
Es	1.716463	1.034069	-0.096073	99
Es	0.484257	0.305475	-0.508084	99
Es	-0.072862	-0.515730	1.200454	99
34
Properties=species:S:1:pos:R:3:Z:I:1 energy=-211.19470882244283 field_type=dipole dipole="0.000000 0.000000 0.000000" charge=0
C	-1.808789	-0.521856	0.421194	6
C	-0.322439	-0.468266	0.505744	6
N	0.488780	-1.155516	-0.498856	7
C	0.484261	0.305714	-0.508126	6
C	1.716480	1.034064	-0.096066	6
H	-2.248129	0.219784	1.095554	1
H	-2.169849	-1.510666	0.722224	1
H	-2.174129	-0.317446	-0.589906	1
H	0.039591	-0.539436	1.525034	1
H	-0.091679	-1.525896	-1.253646	1
H	-0.020959	0.783464	-1.339496	1
H	2.237961	0.536394	0.728444	1
H	1.460130	2.047734	0.227444	1
H	2.408771	1.111924	-0.939546	1
Es	-2.046202	-0.384254	-0.272343	99
Es	0.003189	0.122671	0.096132	99
Es	2.187090	1.086273	-0.676177	99
Es	-0.322332	-0.468348	0.505540	99
Es	-2.050120	-1.199259	0.625864	99
Es	1.716461	1.034069	-0.096074	99
Es	-1.071008	-0.498452	0.446939	99
Es	-2.101479	-0.014036	0.880493	99
Es	1.110006	0.659127	-0.296922	99
Es	0.129105	-1.366889	-0.948778	99
Es	2.060152	0.694601	0.462231	99
Es	0.484254	0.305480	-0.508082	99
Es	0.079264	-0.994576	-0.015350	99
Es	-1.808777	-0.521854	0.421195	99
Es	0.571251	-0.521262	-0.631799	99
Es	1.531914	1.723858	0.123960	99
Es	0.770812	-1.318430	-0.405471	99
Es	0.130832	0.628835	-1.075919	99
Es	0.488279	-1.155142	-0.498967	99
Es	-0.073064	-0.515932	1.200339	99
34
Properties=species:S:1:pos:R:3:Z:I:1 energy=-211.19470882244283 field_type=dipole dipole="0.000000 0.000000 0.000000" charge=0
C	-1.808789	-0.521856	0.421194	6
C	-0.322439	-0.468266	0.505744	6
N	0.488780	-1.155516	-0.498856	7
C	0.484261	0.305714	-0.508126	6
C	1.716480	1.034064	-0.096066	6
H	-2.248129	0.219784	1.095554	1
H	-2.169849	-1.510666	0.722224	1
H	-2.174129	-0.317446	-0.589906	1
H	0.039591	-0.539436	1.525034	1
H	-0.091679	-1.525896	-1.253646	1
H	-0.020959	0.783464	-1.339496	1
H	2.237961	0.536394	0.728444	1
H	1.460130	2.047734	0.227444	1
H	2.408771	1.111924	-0.939546	1
Es	0.484257	0.305478	-0.508082	99
Es	-2.101448	-0.013794	0.880514	99
Es	0.572167	-0.520917	-0.632456	99
Es	2.059769	0.694570	0.462082	99
Es	0.130316	-1.367690	-0.948564	99
Es	-2.045807	-0.384226	-0.272304	99
Es	-0.073326	-0.516102	1.200318	99
Es	0.488288	-1.155159	-0.498973	99
Es	-1.071228	-0.498472	0.446885	99
Es	0.002997	0.123188	0.096450	99
Es	0.131063	0.628784	-1.075909	99
Es	0.768926	-1.316744	-0.405911	99
Es	1.531698	1.723837	0.124164	99
Es	1.716462	1.034069	-0.096074	99
Es	-0.322334	-0.468346	0.505541	99
Es	-2.049959	-1.199591	0.625819	99
Es	2.187298	1.086106	-0.676454	99
Es	1.110139	0.659181	-0.296881	99
Es	-1.808777	-0.521855	0.421195	99
Es	0.079127	-0.995836	-0.014550	99
34
Properties=species:S:1:pos:R:3:Z:I:1 energy=-211.19470882244283 field_type=dipole dipole="0.000000 0.000000 0.000000" charge=0
C	-1.808789	-0.521856	0.421194	6
C	-0.322439	-0.468266	0.505744	6
N	0.488780	-1.155516	-0.498856	7
C	0.484261	0.305714	-0.508126	6
C	1.716480	1.034064	-0.096066	6
H	-2.248129	0.219784	1.095554	1
H	-2.169849	-1.510666	0.722224	1
H	-2.174129	-0.317446	-0.589906	1
H	0.039591	-0.539436	1.525034	1
H	-0.091679	-1.525896	-1.253646	1
H	-0.020959	0.783464	-1.339496	1
H	2.237961	0.536394	0.728444	1
H	1.460130	2.047734	0.227444	1
H	2.408771	1.111924	-0.939546	1
Es	0.767416	-1.315438	-0.405877	99
Es	-2.101337	-0.013611	0.880457	99
Es	-0.322335	-0.468345	0.505541	99
Es	2.059441	0.694444	0.461925	99
Es	1.531496	1.723823	0.124403	99
Es	-0.073547	-0.516265	1.200174	99
Es	1.110266	0.659206	-0.297031	99
Es	2.187449	1.086019	-0.676661	99
Es	0.131326	-1.368668	-0.948306	99
Es	-2.045501	-0.384176	-0.272252	99
Es	0.002949	0.123761	0.096839	99
Es	-2.049956	-1.199834	0.625839	99
Es	0.078839	-0.996247	-0.014045	99
Es	-1.071362	-0.498529	0.446916	99
Es	1.716463	1.034069	-0.096074	99
Es	0.573005	-0.520927	-0.633251	99
Es	-1.808774	-0.521855	0.421195	99
Es	0.488288	-1.155151	-0.498966	99
Es	0.131244	0.628728	-1.075930	99
Es	0.484257	0.305476	-0.508085	99
34
Properties=species:S:1:pos:R:3:Z:I:1 energy=-211.19470882244283 field_type=dipole dipole="0.000000 0.000000 0.000000" charge=0
C	-1.808789	-0.521856	0.421194	6
C	-0.322439	-0.468266	0.505744	6
N	0.488780	-1.155516	-0.498856	7
C	0.484261	0.305714	-0.508126	6
C	1.716480	1.034064	-0.096066	6
H	-2.248129	0.219784	1.095554	1
H	-2.169849	-1.510666	0.722224	1
H	-2.174129	-0.317446	-0.589906	1
H	0.039591	-0.539436	1.525034	1
H	-0.091679	-1.525896	-1.253646	1
H	-0.020959	0.783464	-1.339496	1
H	2.237961	0.536394	0.728444	1
H	1.460130	2.047734	0.227444	1
H	2.408771	1.111924	-0.939546	1
Es	0.766583	-1.314866	-0.406409	99
Es	0.484254	0.305479	-0.508084	99
Es	1.110442	0.659249	-0.296905	99
Es	1.531391	1.723761	0.124714	99
Es	-2.045108	-0.384196	-0.272203	99
Es	-2.101237	-0.013315	0.880377	99
Es	0.002722	0.124066	0.096898	99
Es	2.187559	1.085959	-0.676928	99
Es	-0.322344	-0.468346	0.505536	99
Es	-2.049979	-1.200052	0.625864	99
Es	-1.071450	-0.498634	0.446875	99
Es	2.059180	0.694412	0.461655	99
Es	-1.808776	-0.521855	0.421195	99
Es	0.078734	-0.997105	-0.013511	99
Es	0.131415	0.628693	-1.075908	99
Es	-0.073728	-0.516302	1.200274	99
Es	0.573340	-0.520746	-0.633772	99
Es	0.131820	-1.368616	-0.947846	99
Es	0.488346	-1.155175	-0.498939	99
Es	1.716462	1.034069	-0.096074	99
34
Properties=species:S:1:pos:R:3:Z:I:1 energy=-211.19470882244283 field_type=dipole dipole="0.000000 0.000000 0.000000" charge=0
C	-1.808789	-0.521856	0.421194	6
C	-0.322439	-0.468266	0.505744	6
N	0.488780	-1.155516	-0.498856	7
C	0.484261	0.305714	-0.508126	6
C	1.716480	1.034064	-0.096066	6
H	-2.248129	0.219784	1.095554	1
H	-2.169849	-1.510666	0.722224	1
H	-2.174129	-0.317446	-0.589906	1
H	0.039591	-0.539436	1.525034	1
H	-0.091679	-1.525896	-1.253646	1
H	-0.020959	0.783464	-1.339496	1
H	2.237961	0.536394	0.728444	1
H	1.460130	2.047734	0.227444	1
H	2.408771	1.111924	-0.939546	1
Es	-2.101156	-0.013254	0.880293	99
Es	0.131661	0.628810	-1.075914	99
Es	-0.322336	-0.468349	0.505540	99
Es	1.110604	0.659203	-0.296834	99
Es	-1.071650	-0.498601	0.446895	99
Es	0.002773	0.124289	0.097001	99
Es	0.573427	-0.520396	-0.634277	99
Es	-2.044979	-0.384151	-0.272164	99
Es	-2.049941	-1.200244	0.625932	99
Es	2.058927	0.694304	0.461603	99
Es	0.488412	-1.155221	-0.498932	99
Es	-0.073830	-0.516358	1.200109	99
Es	0.765390	-1.313137	-0.406413	99
Es	-1.808777	-0.521855	0.421195	99
Es	1.716462	1.034069	-0.096074	99
Es	0.078555	-0.997888	-0.012987	99
Es	0.133034	-1.369836	-0.947807	99
Es	0.484257	0.305479	-0.508086	99
Es	1.531150	1.723784	0.124822	99
Es	2.187644	1.085834	-0.677092	99
34
Properties=species:S:1:pos:R:3:Z:I:1 energy=-211.19470882244283 field_type=dipole dipole="0.000000 0.000000 0.000000" charge=0
C	-1.808789	-0.521856	0.421194	6
C	-0.322439	-0.468266	0.505744	6
N	0.488780	-1.155516	-0.498856	7
C	0.484261	0.305714	-0.508126	6
C	1.716480	1.034064	-0.096066	6
H	-2.248129	0.219784	1.095554	1
H	-2.169849	-1.510666	0.722224	1
H	-2.174129	-0.317446	-0.589906	1
H	0.039591	-0.539436	1.525034	1
H	-0.091679	-1.525896	-1.253646	1
H	-0.020959	0.783464	-1.339496	1
H	2.237961	0.536394	0.728444	1
H	1.460130	2.047734	0.227444	1
H	2.408771	1.111924	-0.939546	1
Es	-1.071812	-0.498721	0.446913	99
Es	0.078366	-0.998189	-0.012687	99
Es	1.716462	1.034069	-0.096074	99
Es	-0.073830	-0.516410	1.200081	99
Es	0.484253	0.305478	-0.508082	99
Es	2.058667	0.694309	0.461412	99
Es	-2.101088	-0.012996	0.880291	99
Es	0.764640	-1.313065	-0.406618	99
Es	0.488286	-1.155152	-0.498969	99
Es	0.131746	0.628837	-1.075925	99
Es	0.574349	-0.520393	-0.634740	99
Es	1.531011	1.723725	0.125039	99
Es	-0.322333	-0.468343	0.505540	99
Es	-2.049868	-1.200454	0.625909	99
Es	-2.044709	-0.384187	-0.272049	99
Es	2.187799	1.085775	-0.677264	99
Es	1.110706	0.659225	-0.296739	99
Es	0.133220	-1.369618	-0.947524	99
Es	0.002540	0.124447	0.097104	99
Es	-1.808778	-0.521855	0.421195	99
34
Properties=species:S:1:pos:R:3:Z:I:1 energy=-211.19470882244283 field_type=dipole dipole="0.000000 0.000000 0.000000" charge=0
C	-1.808789	-0.521856	0.421194	6
C	-0.322439	-0.468266	0.505744	6
N	0.488780	-1.155516	-0.498856	7
C	0.484261	0.305714	-0.508126	6
C	1.716480	1.034064	-0.096066	6
H	-2.248129	0.219784	1.095554	1
H	-2.169849	-1.510666	0.722224	1
H	-2.174129	-0.317446	-0.589906	1
H	0.039591	-0.539436	1.525034	1
H	-0.091679	-1.525896	-1.253646	1
H	-0.020959	0.783464	-1.339496	1
H	2.237961	0.536394	0.728444	1
H	1.460130	2.047734	0.227444	1
H	2.408771	1.111924	-0.939546	1
Es	0.133834	-1.370017	-0.947119	99
Es	-0.322332	-0.468353	0.505540	99
Es	-2.044528	-0.384053	-0.272065	99
Es	0.574211	-0.520367	-0.635305	99
Es	-2.049832	-1.200630	0.625880	99
Es	0.131890	0.628741	-1.075907	99
Es	2.058406	0.694222	0.461323	99
Es	-1.808777	-0.521855	0.421195	99
Es	0.484252	0.305480	-0.508081	99
Es	0.488269	-1.155135	-0.498969	99
Es	0.078321	-0.998670	-0.012177	99
Es	-0.074003	-0.516526	1.200009	99
Es	1.530987	1.723784	0.125142	99
Es	2.187905	1.085618	-0.677318	99
Es	-1.072026	-0.498750	0.446880	99
Es	0.002509	0.124763	0.097251	99
Es	-2.100949	-0.012943	0.880333	99
Es	0.764174	-1.312244	-0.406915	99
Es	1.716464	1.034068	-0.096071	99
Es	1.110853	0.659347	-0.296815	99
34
Properties=species:S:1:pos:R:3:Z:I:1 energy=-211.19470882244283 field_type=dipole dipole="0.000000 0.000000 0.000000" charge=0
C	-1.808789	-0.521856	0.421194	6
C	-0.322439	-0.468266	0.505744	6
N	0.488780	-1.155516	-0.498856	7
C	0.484261	0.305714	-0.508126	6
C	1.716480	1.034064	-0.096066	6
H	-2.248129	0.219784	1.095554	1
H	-2.169849	-1.510666	0.722224	1
H	-2.174129	-0.317446	-0.589906	1
H	0.039591	-0.539436	1.525034	1
H	-0.091679	-1.525896	-1.253646	1
H	-0.020959	0.783464	-1.339496	1
H	2.237961	0.536394	0.728444	1
H	1.460130	2.047734	0.227444	1
H	2.408771	1.111924	-0.939546	1
Es	0.131949	0.628760	-1.075915	99
Es	-2.044170	-0.384075	-0.272029	99
Es	-1.072103	-0.498613	0.446920	99
Es	-0.322335	-0.468347	0.505537	99
Es	0.484254	0.305479	-0.508081	99
Es	0.763204	-1.311748	-0.406747	99
Es	-2.049854	-1.200754	0.625819	99
Es	1.530807	1.723715	0.125236	99
Es	0.134507	-1.370381	-0.946905	99
Es	-2.101032	-0.012793	0.880243	99
Es	-1.808777	-0.521855	0.421195	99
Es	1.110987	0.659271	-0.296675	99
Es	2.058340	0.694308	0.461225	99
Es	0.574893	-0.520115	-0.635680	99
Es	-0.074181	-0.516543	1.200053	99
Es	0.488208	-1.155103	-0.498993	99
Es	0.002601	0.124735	0.097326	99
Es	0.077944	-0.999106	-0.012114	99
Es	2.187921	1.085576	-0.677531	99
Es	1.716462	1.034069	-0.096074	99
34
Properties=species:S:1:pos:R:3:Z:I:1 energy=-211.19470882244283 field_type=dipole dipole="0.000000 0.000000 0.000000" charge=0
C	-1.808789	-0.521856	0.421194	6
C	-0.322439	-0.468266	0.505744	6
N	0.488780	-1.155516	-0.498856	7
C	0.484261	0.305714	-0.508126	6
C	1.716480	1.034064	-0.096066	6
H	-2.248129	0.219784	1.095554	1
H	-2.169849	-1.510666	0.722224	1
H	-2.174129	-0.317446	-0.589906	1
H	0.039591	-0.539436	1.525034	1
H	-0.091679	-1.525896	-1.253646	1
H	-0.020959	0.783464	-1.339496	1
H	2.237961	0.536394	0.728444	1
H	1.460130	2.047734	0.227444	1
H	2.408771	1.111924	-0.939546	1
Es	0.575091	-0.520310	-0.636011	99
Es	2.058198	0.694224	0.461124	99
Es	2.187968	1.085593	-0.677642	99
Es	0.488404	-1.155204	-0.498916	99
Es	1.110993	0.659244	-0.296668	99
Es	-0.074269	-0.516727	1.199943	99
Es	-1.072112	-0.498660	0.446896	99
Es	-2.100948	-0.012712	0.880206	99
Es	-0.322336	-0.468352	0.505540	99
Es	-2.044109	-0.384070	-0.271975	99
Es	0.762561	-1.311234	-0.407060	99
Es	0.002442	0.125242	0.097559	99
Es	1.716462	1.034069	-0.096074	99
Es	0.484256	0.305478	-0.508083	99
Es	1.530757	1.723652	0.125393	99
Es	0.077995	-0.999343	-0.011853	99
Es	0.134713	-1.370451	-0.946679	99
Es	-2.049830	-1.200860	0.625867	99
Es	-1.808778	-0.521855	0.421195	99
Es	0.132168	0.628756	-1.075950	99
34
Properties=species:S:1:pos:R:3:Z:I:1 energy=-211.19470882244283 field_type=dipole dipole="0.000000 0.000000 0.000000" charge=0
C	-1.808789	-0.521856	0.421194	6
C	-0.322439	-0.468266	0.505744	6
N	0.488780	-1.155516	-0.498856	7
C	0.484261	0.305714	-0.508126	6
C	1.716480	1.034064	-0.096066	6
H	-2.248129	0.219784	1.095554	1
H	-2.169849	-1.510666	0.722224	1
H	-2.174129	-0.317446	-0.589906	1
H	0.039591	-0.539436	1.525034	1
H	-0.091679	-1.525896	-1.253646	1
H	-0.020959	0.783464	-1.339496	1
H	2.237961	0.536394	0.728444	1
H	1.460130	2.047734	0.227444	1
H	2.408771	1.111924	-0.939546	1
Es	1.530696	1.723634	0.125602	99
Es	0.078032	-0.999759	-0.011377	99
Es	0.488256	-1.155128	-0.498972	99
Es	-1.072183	-0.498766	0.446929	99
Es	2.187998	1.085577	-0.677753	99
Es	-2.100948	-0.012550	0.880113	99
Es	-0.074323	-0.516642	1.199992	99
Es	-2.043839	-0.384099	-0.271905	99
Es	-2.049890	-1.200970	0.625849	99
Es	0.134849	-1.370392	-0.946396	99
Es	0.575371	-0.520198	-0.636443	99
Es	0.762316	-1.311047	-0.407329	99
Es	1.111048	0.659354	-0.296662	99
Es	-0.322334	-0.468354	0.505540	99
Es	1.716461	1.034069	-0.096075	99
Es	-1.808772	-0.521855	0.421196	99
Es	0.132162	0.628751	-1.075833	99
Es	0.484255	0.305479	-0.508076	99
Es	0.002414	0.125220	0.097467	99
Es	2.058058	0.694156	0.460945	99
34
Properties=species:S:1:pos:R:3:Z:I:1 energy=-211.19470882244283 field_type=dipole dipole="0.000000 0.000000 0.000000" charge=0
C	-1.808789	-0.521856	0.421194	6
C	-0.322439	-0.468266	0.505744	6
N	0.488780	-1.155516	-0.498856	7
C	0.484261	0.305714	-0.508126	6
C	1.716480	1.034064	-0.096066	6
H	-2.248129	0.219784	1.095554	1
H	-2.169849	-1.510666	0.722224	1
H	-2.174129	-0.317446	-0.589906	1
H	0.039591	-0.539436	1.525034	1
H	-0.091679	-1.525896	-1.253646	1
H	-0.020959	0.783464	-1.339496	1
H	2.237961	0.536394	0.728444	1
H	1.460130	2.047734	0.227444	1
H	2.408771	1.111924	-0.939546	1
Es	0.761390	-1.310016	-0.407112	99
Es	0.135823	-1.371143	-0.946341	99
Es	2.188090	1.085526	-0.677808	99
Es	-2.049815	-1.201062	0.625853	99
Es	0.002459	0.125477	0.097695	99
Es	-0.074453	-0.516748	1.199924	99
Es	0.484258	0.305478	-0.508081	99
Es	0.488413	-1.155207	-0.498910	99
Es	-0.322328	-0.468347	0.505534	99
Es	-1.072231	-0.498675	0.446883	99
Es	0.077734	-1.000057	-0.011466	99
Es	1.530527	1.723585	0.125513	99
Es	1.111181	0.659287	-0.296714	99
Es	-1.808778	-0.521855	0.421195	99
Es	-2.101025	-0.012490	0.880049	99
Es	1.716462	1.034069	-0.096075	99
Es	0.132259	0.628751	-1.075918	99
Es	-2.043737	-0.384147	-0.271842	99
Es	2.057932	0.694180	0.461046	99
Es	0.575463	-0.520126	-0.636614	99
34
Properties=species:S:1:pos:R:3:Z:I:1 energy=-211.19470882244283 field_type=dipole dipole="0.000000 0.000000 0.000000" charge=0
C	-1.808789	-0.521856	0.421194	6
C	-0.322439	-0.468266	0.505744	6
N	0.488780	-1.155516	-0.498856	7
C	0.484261	0.305714	-0.508126	6
C	1.716480	1.034064	-0.096066	6
H	-2.248129	0.219784	1.095554	1
H	-2.169849	-1.510666	0.722224	1
H	-2.174129	-0.317446	-0.589906	1
H	0.039591	-0.539436	1.525034	1
H	-0.091679	-1.525896	-1.253646	1
H	-0.020959	0.783464	-1.339496	1
H	2.237961	0.536394	0.728444	1
H	1.460130	2.047734	0.227444	1
H	2.408771	1.111924	-0.939546	1
Es	-0.322337	-0.468348	0.505536	99
Es	1.111156	0.659263	-0.296755	99
Es	0.488286	-1.155151	-0.498968	99
Es	0.575712	-0.520067	-0.637032	99
Es	-1.072310	-0.498670	0.446886	99
Es	0.136066	-1.371390	-0.946134	99
Es	-0.074486	-0.516769	1.199884	99
Es	0.761067	-1.309665	-0.407144	99
Es	-2.043611	-0.384153	-0.271754	99
Es	2.057850	0.694117	0.461003	99
Es	2.188126	1.085547	-0.677851	99
Es	1.530467	1.723551	0.125593	99
Es	-2.100995	-0.012400	0.879965	99
Es	1.716462	1.034069	-0.096075	99
Es	0.132378	0.628763	-1.075893	99
Es	-2.049815	-1.201187	0.625878	99
Es	0.002367	0.125556	0.097793	99
Es	0.077762	-1.000205	-0.011236	99
Es	0.484258	0.305475	-0.508081	99
Es	-1.808777	-0.521855	0.421195	99
34
Properties=species:S:1:pos:R:3:Z:I:1 energy=-211.19470882244283 field_type=dipole dipole="0.000000 0.000000 0.000000" charge=0
C	-1.808789	-0.521856	0.421194	6
C	-0.322439	-0.468266	0.505744	6
N	0.488780	-1.155516	-0.498856	7
C	0.484261	0.305714	-0.508126	6
C	1.716480	1.034064	-0.096066	6
H	-2.248129	0.219784	1.095554	1
H	-2.169849	-1.510666	0.722224	1
H	-2.174129	-0.317446	-0.589906	1
H	0.039591	-0.539436	1.525034	1
H	-0.091679	-1.525896	-1.253646	1
H	-0.020959	0.783464	-1.339496	1
H	2.237961	0.536394	0.728444	1
H	1.460130	2.047734	0.227444	1
H	2.408771	1.111924	-0.939546	1
Es	1.530343	1.723479	0.125740	99
Es	-0.074614	-0.516856	1.199876	99
Es	-2.100947	-0.012364	0.879992	99
Es	0.077479	-1.000752	-0.011369	99
Es	2.057722	0.694228	0.460829	99
Es	0.136799	-1.371541	-0.946217	99
Es	0.002340	0.125709	0.097851	99
Es	0.760467	-1.309124	-0.407084	99
Es	0.488286	-1.155157	-0.498974	99
Es	2.188223	1.085525	-0.677976	99
Es	-2.043577	-0.384130	-0.271731	99
Es	-1.072217	-0.498749	0.446814	99
Es	-1.808778	-0.521855	0.421195	99
Es	-2.049849	-1.201200	0.625849	99
Es	0.484255	0.305473	-0.508083	99
Es	1.716463	1.034071	-0.096073	99
Es	0.132453	0.628941	-1.076027	99
Es	0.575875	-0.519947	-0.636831	99
Es	-0.322336	-0.468349	0.505540	99
Es	1.111238	0.659080	-0.296510	99
34
Properties=species:S:1:pos:R:3:Z:I:1 energy=-211.19470882244283 field_type=dipole dipole="0.000000 0.000000 0.000000" charge=0
C	-1.808789	-0.521856	0.421194	6
C	-0.322439	-0.468266	0.505744	6
N	0.488780	-1.155516	-0.498856	7
C	0.484261	0.305714	-0.508126	6
C	1.716480	1.034064	-0.096066	6
H	-2.248129	0.219784	1.095554	1
H	-2.169849	-1.510666	0.722224	1
H	-2.174129	-0.317446	-0.589906	1
H	0.039591	-0.539436	1.525034	1
H	-0.091679	-1.525896	-1.253646	1
H	-0.020959	0.783464	-1.339496	1
H	2.237961	0.536394	0.728444	1
H	1.460130	2.047734	0.227444	1
H	2.408771	1.111924	-0.939546	1
Es	-1.808778	-0.521855	0.421195	99
Es	0.575922	-0.519954	-0.637516	99
Es	-2.043263	-0.384154	-0.271764	99
Es	-0.322340	-0.468337	0.505547	99
Es	2.057560	0.694001	0.460845	99
Es	1.111371	0.659337	-0.296706	99
Es	0.484252	0.305480	-0.508079	99
Es	-1.072416	-0.498756	0.446948	99
Es	2.188250	1.085457	-0.677948	99
Es	1.716461	1.034069	-0.096075	99
Es	0.077454	-1.000743	-0.010887	99
Es	0.488263	-1.155126	-0.498967	99
Es	0.136933	-1.371805	-0.945842	99
Es	-2.049851	-1.201275	0.625819	99
Es	0.760260	-1.308817	-0.407225	99
Es	-0.074648	-0.516839	1.199874	99
Es	1.530326	1.723554	0.125796	99
Es	0.002398	0.125669	0.097762	99
Es	0.132502	0.628832	-1.075877	99
Es	-2.101030	-0.012258	0.879909	99
34
Properties=species:S:1:pos:R:3:Z:I:1 energy=-211.19470882244283 field_type=dipole dipole="0.000000 0.000000 0.000000" charge=0
C	-1.808789	-0.521856	0.421194	6
C	-0.322439	-0.468266	0.505744	6
N	0.488780	-1.155516	-0.498856	7
C	0.484261	0.305714	-0.508126	6
C	1.716480	1.034064	-0.096066	6
H	-2.248129	0.219784	1.095554	1
H	-2.169849	-1.510666	0.722224	1
H	-2.174129	-0.317446	-0.589906	1
H	0.039591	-0.539436	1.525034	1
H	-0.091679	-1.525896	-1.253646	1
H	-0.020959	0.783464	-1.339496	1
H	2.237961	0.536394	0.728444	1
H	1.460130	2.047734	0.227444	1
H	2.408771	1.111924	-0.939546	1
Es	-1.808778	-0.521855	0.421195	99
Es	2.188337	1.085393	-0.678003	99
Es	0.077506	-1.000978	-0.010906	99
Es	-2.100979	-0.012209	0.879885	99
Es	1.716462	1.034069	-0.096074	99
Es	-1.072381	-0.498731	0.446812	99
Es	1.530268	1.723523	0.125814	99
Es	-2.043340	-0.384183	-0.271627	99
Es	0.488335	-1.155217	-0.498987	99
Es	2.057373	0.693926	0.460865	99
Es	0.132544	0.628783	-1.075892	99
Es	0.137323	-1.372088	-0.945676	99
Es	1.111464	0.659512	-0.296717	99
Es	0.759700	-1.308231	-0.407254	99
Es	0.484253	0.305477	-0.508081	99
Es	-0.322334	-0.468348	0.505539	99
Es	0.002308	0.125835	0.097919	99
Es	-2.049821	-1.201344	0.625853	99
Es	-0.074675	-0.516950	1.199847	99
Es	0.576062	-0.519907	-0.637703	99
