34
Properties=species:S:1:pos:R:3:Z:I:1 energy=-211.19728785381676 field_type=dipole dipole="0.000000 0.000000 0.000000" charge=0
C	-1.541908	0.110104	-0.046296	6
C	-0.060078	0.052804	0.222304	6
N	0.312782	0.019394	1.642794	7
C	0.806752	-0.703606	-0.753576	6
C	0.850682	0.797854	-0.721506	6
H	-1.763798	0.142734	-1.118586	1
H	-1.978788	1.002834	0.413784	1
H	-2.039218	-0.771786	0.371554	1
H	1.323502	-0.026726	1.761264	1
H	-0.059728	-0.818586	2.089004	1
H	0.335562	-1.176776	-1.607966	1
H	1.670682	-1.242336	-0.382486	1
H	1.736412	1.276194	-0.319656	1
H	0.407142	1.337894	-1.550626	1
Es	0.925325	-0.025983	1.692522	99
Es	0.186955	0.303185	1.806683	99
Es	-0.059935	0.052800	0.222329	99
Es	1.394220	-1.066352	-0.492000	99
Es	-1.836585	0.714809	0.265096	99
Es	-0.799255	0.078399	0.085244	99
Es	0.312981	0.018948	1.642537	99
Es	0.344806	0.601029	-0.183161	99
Es	-1.876742	-0.494170	0.241290	99
Es	0.170029	0.007672	1.019808	99
Es	0.482999	-1.022647	-1.336207	99
Es	0.095373	-0.502371	1.890381	99
Es	-1.681668	0.129807	-0.778240	99
Es	0.806730	-0.703445	-0.753545	99
Es	-1.541881	0.110091	-0.046298	99
Es	0.544122	1.160954	-1.283788	99
Es	1.453376	1.115908	-0.442464	99
Es	0.953905	0.046349	-0.873770	99
Es	0.312377	-0.508916	-0.220482	99
Es	0.850641	0.797696	-0.721471	99
34
Properties=species:S:1:pos:R:3:Z:I:1 energy=-211.19728785381676 field_type=dipole dipole="0.000000 0.000000 0.000000" charge=0
C	-1.541908	0.110104	-0.046296	6
C	-0.060078	0.052804	0.222304	6
N	0.312782	0.019394	1.642794	7
C	0.806752	-0.703606	-0.753576	6
C	0.850682	0.797854	-0.721506	6
H	-1.763798	0.142734	-1.118586	1
H	-1.978788	1.002834	0.413784	1
H	-2.039218	-0.771786	0.371554	1
H	1.323502	-0.026726	1.761264	1
H	-0.059728	-0.818586	2.089004	1
H	0.335562	-1.176776	-1.607966	1
H	1.670682	-1.242336	-0.382486	1
H	1.736412	1.276194	-0.319656	1
H	0.407142	1.337894	-1.550626	1
Es	-1.877132	-0.495365	0.241493	99
Es	0.483692	-1.022491	-1.335135	99
Es	0.311364	-0.509967	-0.219696	99
Es	0.850634	0.797696	-0.721463	99
Es	0.171063	0.006556	1.020559	99
Es	0.544836	1.160973	-1.283419	99
Es	-0.799412	0.078203	0.084946	99
Es	1.452786	1.115512	-0.443150	99
Es	0.094457	-0.503513	1.891496	99
Es	0.955506	0.046731	-0.875632	99
Es	-1.541876	0.110090	-0.046296	99
Es	-0.059934	0.052802	0.222327	99
Es	0.187968	0.306138	1.806057	99
Es	0.923767	-0.026965	1.690975	99
Es	0.344094	0.602676	-0.182272	99
Es	0.312970	0.018969	1.642526	99
Es	1.393380	-1.066446	-0.492611	99
Es	0.806731	-0.703443	-0.753544	99
Es	-1.836329	0.715698	0.264737	99
Es	-1.680791	0.129910	-0.777436	99
34
Properties=species:S:1:pos:R:3:Z:I:1 energy=-211.19728785381676 field_type=dipole dipole="0.000000 0.000000 0.000000" charge=0
C	-1.541908	0.110104	-0.046296	6
C	-0.060078	0.052804	0.222304	6
N	0.312782	0.019394	1.642794	7
C	0.806752	-0.703606	-0.753576	6
C	0.850682	0.797854	-0.721506	6
H	-1.763798	0.142734	-1.118586	1
H	-1.978788	1.002834	0.413784	1
H	-2.039218	-0.771786	0.371554	1
H	1.323502	-0.026726	1.761264	1
H	-0.059728	-0.818586	2.089004	1
H	0.335562	-1.176776	-1.607966	1
H	1.670682	-1.242336	-0.382486	1
H	1.736412	1.276194	-0.319656	1
H	0.407142	1.337894	-1.550626	1
Es	0.093737	-0.503950	1.892110	99
Es	-0.059934	0.052798	0.222326	99
Es	-1.680175	0.130069	-0.776821	99
Es	1.452324	1.115302	-0.443612	99
Es	-1.541881	0.110089	-0.046297	99
Es	0.171887	0.005483	1.021323	99
Es	-1.836145	0.716267	0.264548	99
Es	-0.799630	0.078178	0.084679	99
Es	0.806731	-0.703444	-0.753546	99
Es	0.343891	0.603314	-0.181862	99
Es	0.310273	-0.511112	-0.218987	99
Es	0.545254	1.160886	-1.283334	99
Es	-1.877348	-0.496252	0.241547	99
Es	0.956647	0.047576	-0.876537	99
Es	0.922545	-0.028465	1.689602	99
Es	1.392824	-1.066516	-0.493066	99
Es	0.188794	0.309041	1.805842	99
Es	0.484353	-1.022132	-1.334502	99
Es	0.850634	0.797695	-0.721461	99
Es	0.312995	0.018937	1.642513	99
34
Properties=species:S:1:pos:R:3:Z:I:1 energy=-211.19728785381676 field_type=dipole dipole="0.000000 0.000000 0.000000" charge=0
C	-1.541908	0.110104	-0.046296	6
C	-0.060078	0.052804	0.222304	6
N	0.312782	0.019394	1.642794	7
C	0.806752	-0.703606	-0.753576	6
C	0.850682	0.797854	-0.721506	6
H	-1.763798	0.142734	-1.118586	1
H	-1.978788	1.002834	0.413784	1
H	-2.039218	-0.771786	0.371554	1
H	1.323502	-0.026726	1.761264	1
H	-0.059728	-0.818586	2.089004	1
H	0.335562	-1.176776	-1.607966	1
H	1.670682	-1.242336	-0.382486	1
H	1.736412	1.276194	-0.319656	1
H	0.407142	1.337894	-1.550626	1
Es	-1.679787	0.130061	-0.776476	99
Es	-0.799832	0.078212	0.084523	99
Es	0.343613	0.603782	-0.181249	99
Es	1.392387	-1.066527	-0.493446	99
Es	-1.836003	0.716711	0.264433	99
Es	0.806729	-0.703441	-0.753545	99
Es	-1.877395	-0.496782	0.241655	99
Es	0.172408	0.004804	1.021915	99
Es	0.093288	-0.504551	1.892642	99
Es	0.921818	-0.028813	1.688798	99
Es	0.957797	0.047888	-0.877878	99
Es	0.545589	1.160953	-1.283031	99
Es	0.309508	-0.511748	-0.218441	99
Es	-1.541879	0.110090	-0.046297	99
Es	-0.059934	0.052799	0.222326	99
Es	0.850636	0.797697	-0.721463	99
Es	0.312958	0.018991	1.642548	99
Es	0.189239	0.310479	1.805227	99
Es	1.451817	1.115078	-0.443989	99
Es	0.484818	-1.021918	-1.333791	99
34
Properties=species:S:1:pos:R:3:Z:I:1 energy=-211.19728785381676 field_type=dipole dipole="0.000000 0.000000 0.000000" charge=0
C	-1.541908	0.110104	-0.046296	6
C	-0.060078	0.052804	0.222304	6
N	0.312782	0.019394	1.642794	7
C	0.806752	-0.703606	-0.753576	6
C	0.850682	0.797854	-0.721506	6
H	-1.763798	0.142734	-1.118586	1
H	-1.978788	1.002834	0.413784	1
H	-2.039218	-0.771786	0.371554	1
H	1.323502	-0.026726	1.761264	1
H	-0.059728	-0.818586	2.089004	1
H	0.335562	-1.176776	-1.607966	1
H	1.670682	-1.242336	-0.382486	1
H	1.736412	1.276194	-0.319656	1
H	0.407142	1.337894	-1.550626	1
Es	-0.059931	0.052804	0.222326	99
Es	0.092766	-0.504682	1.893114	99
Es	-1.835893	0.717065	0.264316	99
Es	0.189853	0.311705	1.804886	99
Es	-1.877436	-0.497265	0.241722	99
Es	-1.541878	0.110089	-0.046298	99
Es	0.921201	-0.029460	1.688231	99
Es	0.485125	-1.021653	-1.333319	99
Es	-1.679513	0.130087	-0.776066	99
Es	0.545918	1.160959	-1.282950	99
Es	0.958356	0.048034	-0.878517	99
Es	-0.799923	0.078137	0.084282	99
Es	1.451519	1.114834	-0.444255	99
Es	0.806725	-0.703448	-0.753540	99
Es	0.172775	0.004355	1.022296	99
Es	0.308982	-0.512236	-0.217964	99
Es	0.343369	0.604351	-0.181002	99
Es	0.312979	0.018926	1.642511	99
Es	0.850635	0.797698	-0.721463	99
Es	1.392146	-1.066534	-0.493845	99
34
Properties=species:S:1:pos:R:3:Z:I:1 energy=-211.19728785381676 field_type=dipole dipole="0.000000 0.000000 0.000000" charge=0
C	-1.541908	0.110104	-0.046296	6
C	-0.060078	0.052804	0.222304	6
N	0.312782	0.019394	1.642794	7
C	0.806752	-0.703606	-0.753576	6
C	0.850682	0.797854	-0.721506	6
H	-1.763798	0.142734	-1.118586	1
H	-1.978788	1.002834	0.413784	1
H	-2.039218	-0.771786	0.371554	1
H	1.323502	-0.026726	1.761264	1
H	-0.059728	-0.818586	2.089004	1
H	0.335562	-1.176776	-1.607966	1
H	1.670682	-1.242336	-0.382486	1
H	1.736412	1.276194	-0.319656	1
H	0.407142	1.337894	-1.550626	1
Es	-1.877588	-0.497587	0.241757	99
Es	-0.800047	0.078109	0.084243	99
Es	0.312984	0.018927	1.642517	99
Es	-1.541880	0.110090	-0.046298	99
Es	0.092110	-0.504816	1.893209	99
Es	0.958849	0.048319	-0.879036	99
Es	0.485636	-1.021472	-1.332929	99
Es	0.343188	0.604744	-0.180665	99
Es	0.806727	-0.703442	-0.753542	99
Es	0.190393	0.313194	1.804685	99
Es	0.546191	1.160871	-1.282917	99
Es	0.308362	-0.512802	-0.217607	99
Es	0.850636	0.797704	-0.721463	99
Es	0.173470	0.003856	1.022788	99
Es	-1.835768	0.717269	0.264161	99
Es	1.391862	-1.066358	-0.494133	99
Es	-0.059935	0.052798	0.222328	99
Es	0.920519	-0.030438	1.687748	99
Es	-1.679218	0.130152	-0.775827	99
Es	1.451283	1.114645	-0.444557	99
34
Properties=species:S:1:pos:R:3:Z:I:1 energy=-211.19728785381676 field_type=dipole dipole="0.000000 0.000000 0.000000" charge=0
C	-1.541908	0.110104	-0.046296	6
C	-0.060078	0.052804	0.222304	6
N	0.312782	0.019394	1.642794	7
C	0.806752	-0.703606	-0.753576	6
C	0.850682	0.797854	-0.721506	6
H	-1.763798	0.142734	-1.118586	1
H	-1.978788	1.002834	0.413784	1
H	-2.039218	-0.771786	0.371554	1
H	1.323502	-0.026726	1.761264	1
H	-0.059728	-0.818586	2.089004	1
H	0.335562	-1.176776	-1.607966	1
H	1.670682	-1.242336	-0.382486	1
H	1.736412	1.276194	-0.319656	1
H	0.407142	1.337894	-1.550626	1
Es	0.312979	0.018937	1.642514	99
Es	-1.541878	0.110088	-0.046297	99
Es	0.342971	0.604887	-0.180391	99
Es	0.920243	-0.030164	1.687258	99
Es	0.190361	0.313806	1.804072	99
Es	-0.059935	0.052797	0.222328	99
Es	0.806727	-0.703441	-0.753542	99
Es	0.546444	1.161007	-1.282805	99
Es	1.391667	-1.066345	-0.494285	99
Es	-1.835698	0.717514	0.264144	99
Es	0.092256	-0.505010	1.893868	99
Es	0.308002	-0.513084	-0.217353	99
Es	-1.877575	-0.497845	0.241763	99
Es	0.959419	0.048532	-0.879844	99
Es	0.173495	0.003136	1.023135	99
Es	-1.679061	0.130151	-0.775593	99
Es	1.450967	1.114408	-0.444671	99
Es	0.485874	-1.021374	-1.332467	99
Es	0.850627	0.797700	-0.721454	99
Es	-0.800109	0.078061	0.084084	99
34
Properties=species:S:1:pos:R:3:Z:I:1 energy=-211.19728785381676 field_type=dipole dipole="0.000000 0.000000 0.000000" charge=0
C	-1.541908	0.110104	-0.046296	6
C	-0.060078	0.052804	0.222304	6
N	0.312782	0.019394	1.642794	7
C	0.806752	-0.703606	-0.753576	6
C	0.850682	0.797854	-0.721506	6
H	-1.763798	0.142734	-1.118586	1
H	-1.978788	1.002834	0.413784	1
H	-2.039218	-0.771786	0.371554	1
H	1.323502	-0.026726	1.761264	1
H	-0.059728	-0.818586	2.089004	1
H	0.335562	-1.176776	-1.607966	1
H	1.670682	-1.242336	-0.382486	1
H	1.736412	1.276194	-0.319656	1
H	0.407142	1.337894	-1.550626	1
Es	0.850631	0.797696	-0.721462	99
Es	-1.678775	0.130129	-0.775470	99
Es	-0.800271	0.078013	0.084126	99
Es	-0.059933	0.052798	0.222325	99
Es	-1.877620	-0.498063	0.241795	99
Es	0.173670	0.003340	1.023223	99
Es	0.342815	0.605243	-0.180142	99
Es	1.450779	1.114271	-0.444889	99
Es	0.312983	0.018923	1.642496	99
Es	0.546648	1.160951	-1.282715	99
Es	0.806734	-0.703445	-0.753549	99
Es	0.919911	-0.030336	1.687116	99
Es	0.091964	-0.505283	1.893853	99
Es	-1.835668	0.717694	0.264017	99
Es	0.959866	0.048535	-0.880363	99
Es	0.190703	0.314038	1.804040	99
Es	0.486036	-1.021160	-1.332082	99
Es	0.307700	-0.513251	-0.217040	99
Es	1.391485	-1.066418	-0.494518	99
Es	-1.541882	0.110091	-0.046300	99
34
Properties=species:S:1:pos:R:3:Z:I:1 energy=-211.19728785381676 field_type=dipole dipole="0.000000 0.000000 0.000000" charge=0
C	-1.541908	0.110104	-0.046296	6
C	-0.060078	0.052804	0.222304	6
N	0.312782	0.019394	1.642794	7
C	0.806752	-0.703606	-0.753576	6
C	0.850682	0.797854	-0.721506	6
H	-1.763798	0.142734	-1.118586	1
H	-1.978788	1.002834	0.413784	1
H	-2.039218	-0.771786	0.371554	1
H	1.323502	-0.026726	1.761264	1
H	-0.059728	-0.818586	2.089004	1
H	0.335562	-1.176776	-1.607966	1
H	1.670682	-1.242336	-0.382486	1
H	1.736412	1.276194	-0.319656	1
H	0.407142	1.337894	-1.550626	1
Es	1.391304	-1.066386	-0.494650	99
Es	-1.541879	0.110090	-0.046297	99
Es	0.342756	0.605170	-0.180006	99
Es	0.919434	-0.031159	1.686477	99
Es	-1.678709	0.130191	-0.775266	99
Es	-0.800175	0.078039	0.083978	99
Es	0.173929	0.002750	1.023821	99
Es	0.486262	-1.021027	-1.331836	99
Es	0.191215	0.315359	1.803744	99
Es	0.307349	-0.513471	-0.216820	99
Es	1.450657	1.114209	-0.445010	99
Es	0.091563	-0.505199	1.894197	99
Es	0.960259	0.048778	-0.880748	99
Es	0.806732	-0.703451	-0.753550	99
Es	-0.059936	0.052801	0.222330	99
Es	-1.835594	0.717764	0.263932	99
Es	0.312986	0.018909	1.642507	99
Es	0.546693	1.160946	-1.282690	99
Es	0.850635	0.797694	-0.721463	99
Es	-1.877706	-0.498241	0.241813	99
34
Properties=species:S:1:pos:R:3:Z:I:1 energy=-211.19728785381676 field_type=dipole dipole="0.000000 0.000000 0.000000" charge=0
C	-1.541908	0.110104	-0.046296	6
C	-0.060078	0.052804	0.222304	6
N	0.312782	0.019394	1.642794	7
C	0.806752	-0.703606	-0.753576	6
C	0.850682	0.797854	-0.721506	6
H	-1.763798	0.142734	-1.118586	1
H	-1.978788	1.002834	0.413784	1
H	-2.039218	-0.771786	0.371554	1
H	1.323502	-0.026726	1.761264	1
H	-0.059728	-0.818586	2.089004	1
H	0.335562	-1.176776	-1.607966	1
H	1.670682	-1.242336	-0.382486	1
H	1.736412	1.276194	-0.319656	1
H	0.407142	1.337894	-1.550626	1
Es	0.174076	0.002306	1.023978	99
Es	0.312980	0.018950	1.642532	99
Es	0.091451	-0.505197	1.894591	99
Es	0.546838	1.160931	-1.282648	99
Es	1.391177	-1.066394	-0.494864	99
Es	0.307003	-0.513805	-0.216573	99
Es	-1.877678	-0.498426	0.241838	99
Es	0.806731	-0.703437	-0.753546	99
Es	0.342728	0.605276	-0.179829	99
Es	-0.059934	0.052799	0.222327	99
Es	0.960625	0.048943	-0.881133	99
Es	-1.835490	0.717972	0.263939	99
Es	0.919273	-0.031208	1.686219	99
Es	0.850629	0.797699	-0.721455	99
Es	1.450457	1.114092	-0.445161	99
Es	-1.541879	0.110090	-0.046297	99
Es	-1.678595	0.130185	-0.775121	99
Es	-0.800362	0.078069	0.083889	99
Es	0.486424	-1.020852	-1.331540	99
Es	0.191322	0.315772	1.803317	99
34
Properties=species:S:1:pos:R:3:Z:I:1 energy=-211.19728785381676 field_type=dipole dipole="0.000000 0.000000 0.000000" charge=0
C	-1.541908	0.110104	-0.046296	6
C	-0.060078	0.052804	0.222304	6
N	0.312782	0.019394	1.642794	7
C	0.806752	-0.703606	-0.753576	6
C	0.850682	0.797854	-0.721506	6
H	-1.763798	0.142734	-1.118586	1
H	-1.978788	1.002834	0.413784	1
H	-2.039218	-0.771786	0.371554	1
H	1.323502	-0.026726	1.761264	1
H	-0.059728	-0.818586	2.089004	1
H	0.335562	-1.176776	-1.607966	1
H	1.670682	-1.242336	-0.382486	1
H	1.736412	1.276194	-0.319656	1
H	0.407142	1.337894	-1.550626	1
Es	0.960849	0.048978	-0.881428	99
Es	0.486552	-1.020690	-1.331297	99
Es	-0.800462	0.078046	0.083883	99
Es	0.306852	-0.513950	-0.216419	99
Es	0.806734	-0.703440	-0.753549	99
Es	-1.835439	0.718049	0.263837	99
Es	0.547009	1.160922	-1.282598	99
Es	1.450298	1.113946	-0.445316	99
Es	-1.678453	0.130160	-0.775092	99
Es	1.391106	-1.066401	-0.495048	99
Es	-0.059931	0.052797	0.222326	99
Es	0.919023	-0.031363	1.686135	99
Es	0.174375	0.002119	1.024240	99
Es	0.312986	0.018913	1.642504	99
Es	-1.877700	-0.498538	0.241928	99
Es	0.191410	0.316254	1.803112	99
Es	-1.541880	0.110090	-0.046297	99
Es	0.091241	-0.505332	1.894613	99
Es	0.850634	0.797695	-0.721462	99
Es	0.342571	0.605510	-0.179608	99
34
Properties=species:S:1:pos:R:3:Z:I:1 energy=-211.19728785381676 field_type=dipole dipole="0.000000 0.000000 0.000000" charge=0
C	-1.541908	0.110104	-0.046296	6
C	-0.060078	0.052804	0.222304	6
N	0.312782	0.019394	1.642794	7
C	0.806752	-0.703606	-0.753576	6
C	0.850682	0.797854	-0.721506	6
H	-1.763798	0.142734	-1.118586	1
H	-1.978788	1.002834	0.413784	1
H	-2.039218	-0.771786	0.371554	1
H	1.323502	-0.026726	1.761264	1
H	-0.059728	-0.818586	2.089004	1
H	0.335562	-1.176776	-1.607966	1
H	1.670682	-1.242336	-0.382486	1
H	1.736412	1.276194	-0.319656	1
H	0.407142	1.337894	-1.550626	1
Es	0.306474	-0.514112	-0.216220	99
Es	0.547109	1.160931	-1.282470	99
Es	0.091109	-0.505310	1.894733	99
Es	1.391010	-1.066423	-0.495163	99
Es	0.850635	0.797696	-0.721461	99
Es	0.191667	0.316632	1.803086	99
Es	1.450225	1.113879	-0.445375	99
Es	0.174380	0.001969	1.024379	99
Es	0.486758	-1.020504	-1.331108	99
Es	-0.059937	0.052799	0.222332	99
Es	-0.800548	0.078033	0.083824	99
Es	0.312978	0.018954	1.642525	99
Es	0.806731	-0.703437	-0.753543	99
Es	-1.877690	-0.498689	0.241923	99
Es	-1.835353	0.718110	0.263873	99
Es	-1.541880	0.110090	-0.046297	99
Es	0.961088	0.049045	-0.881795	99
Es	0.918846	-0.031689	1.685835	99
Es	0.342550	0.605555	-0.179590	99
Es	-1.678378	0.130236	-0.775026	99
34
Properties=species:S:1:pos:R:3:Z:I:1 energy=-211.19728785381676 field_type=dipole dipole="0.000000 0.000000 0.000000" charge=0
C	-1.541908	0.110104	-0.046296	6
C	-0.060078	0.052804	0.222304	6
N	0.312782	0.019394	1.642794	7
C	0.806752	-0.703606	-0.753576	6
C	0.850682	0.797854	-0.721506	6
H	-1.763798	0.142734	-1.118586	1
H	-1.978788	1.002834	0.413784	1
H	-2.039218	-0.771786	0.371554	1
H	1.323502	-0.026726	1.761264	1
H	-0.059728	-0.818586	2.089004	1
H	0.335562	-1.176776	-1.607966	1
H	1.670682	-1.242336	-0.382486	1
H	1.736412	1.276194	-0.319656	1
H	0.407142	1.337894	-1.550626	1
Es	-1.877695	-0.498763	0.241913	99
Es	0.918669	-0.031706	1.686128	99
Es	0.175184	0.001114	1.024726	99
Es	1.390824	-1.066447	-0.495296	99
Es	0.191574	0.317325	1.801939	99
Es	-0.800567	0.078021	0.083725	99
Es	-1.541879	0.110090	-0.046297	99
Es	0.806730	-0.703442	-0.753545	99
Es	0.961391	0.049104	-0.881907	99
Es	-0.059935	0.052798	0.222328	99
Es	0.850635	0.797697	-0.721463	99
Es	1.450020	1.113723	-0.445355	99
Es	-1.835372	0.718227	0.263819	99
Es	0.306505	-0.514240	-0.216169	99
Es	0.313001	0.018915	1.642517	99
Es	0.342372	0.605664	-0.179494	99
Es	0.486798	-1.020410	-1.330931	99
Es	-1.678310	0.130187	-0.774882	99
Es	0.547312	1.160999	-1.282563	99
Es	0.090515	-0.505090	1.895270	99
34
Properties=species:S:1:pos:R:3:Z:I:1 energy=-211.19728785381676 field_type=dipole dipole="0.000000 0.000000 0.000000" charge=0
C	-1.541908	0.110104	-0.046296	6
C	-0.060078	0.052804	0.222304	6
N	0.312782	0.019394	1.642794	7
C	0.806752	-0.703606	-0.753576	6
C	0.850682	0.797854	-0.721506	6
H	-1.763798	0.142734	-1.118586	1
H	-1.978788	1.002834	0.413784	1
H	-2.039218	-0.771786	0.371554	1
H	1.323502	-0.026726	1.761264	1
H	-0.059728	-0.818586	2.089004	1
H	0.335562	-1.176776	-1.607966	1
H	1.670682	-1.242336	-0.382486	1
H	1.736412	1.276194	-0.319656	1
H	0.407142	1.337894	-1.550626	1
Es	0.191897	0.317313	1.802724	99
Es	-1.835284	0.718284	0.263767	99
Es	0.090829	-0.505469	1.894913	99
Es	0.342287	0.605748	-0.179308	99
Es	1.449894	1.113724	-0.445517	99
Es	-0.059936	0.052798	0.222328	99
Es	0.547343	1.160905	-1.282513	99
Es	0.486931	-1.020391	-1.330716	99
Es	0.174753	0.001637	1.024739	99
Es	-1.678389	0.130139	-0.774813	99
Es	0.312959	0.018944	1.642499	99
Es	1.390770	-1.066356	-0.495380	99
Es	-1.877688	-0.498779	0.242036	99
Es	0.806729	-0.703437	-0.753547	99
Es	0.961674	0.049179	-0.882284	99
Es	-0.800489	0.077970	0.083678	99
Es	0.850635	0.797694	-0.721462	99
Es	0.918474	-0.031900	1.685600	99
Es	-1.541880	0.110090	-0.046298	99
Es	0.306267	-0.514329	-0.215982	99
34
Properties=species:S:1:pos:R:3:Z:I:1 energy=-211.19728785381676 field_type=dipole dipole="0.000000 0.000000 0.000000" charge=0
C	-1.541908	0.110104	-0.046296	6
C	-0.060078	0.052804	0.222304	6
N	0.312782	0.019394	1.642794	7
C	0.806752	-0.703606	-0.753576	6
C	0.850682	0.797854	-0.721506	6
H	-1.763798	0.142734	-1.118586	1
H	-1.978788	1.002834	0.413784	1
H	-2.039218	-0.771786	0.371554	1
H	1.323502	-0.026726	1.761264	1
H	-0.059728	-0.818586	2.089004	1
H	0.335562	-1.176776	-1.607966	1
H	1.670682	-1.242336	-0.382486	1
H	1.736412	1.276194	-0.319656	1
H	0.407142	1.337894	-1.550626	1
Es	1.390663	-1.066434	-0.495475	99
Es	-1.678157	0.130173	-0.774763	99
Es	0.306071	-0.514400	-0.215884	99
Es	0.174733	0.001388	1.024971	99
Es	0.090804	-0.505424	1.895049	99
Es	-1.541881	0.110090	-0.046298	99
Es	0.961804	0.049196	-0.882424	99
Es	0.918344	-0.032145	1.685317	99
Es	-1.877758	-0.498912	0.241992	99
Es	0.487018	-1.020238	-1.330543	99
Es	0.312992	0.018930	1.642522	99
Es	0.547457	1.160871	-1.282543	99
Es	0.806727	-0.703434	-0.753540	99
Es	0.850637	0.797697	-0.721463	99
Es	1.449904	1.113634	-0.445577	99
Es	0.342216	0.605865	-0.179263	99
Es	0.191969	0.317757	1.802624	99
Es	-0.059934	0.052807	0.222328	99
Es	-0.800567	0.077983	0.083735	99
Es	-1.835270	0.718359	0.263697	99
34
Properties=species:S:1:pos:R:3:Z:I:1 energy=-211.19728785381676 field_type=dipole dipole="0.000000 0.000000 0.000000" charge=0
C	-1.541908	0.110104	-0.046296	6
C	-0.060078	0.052804	0.222304	6
N	0.312782	0.019394	1.642794	7
C	0.806752	-0.703606	-0.753576	6
C	0.850682	0.797854	-0.721506	6
H	-1.763798	0.142734	-1.118586	1
H	-1.978788	1.002834	0.413784	1
H	-2.039218	-0.771786	0.371554	1
H	1.323502	-0.026726	1.761264	1
H	-0.059728	-0.818586	2.089004	1
H	0.335562	-1.176776	-1.607966	1
H	1.670682	-1.242336	-0.382486	1
H	1.736412	1.276194	-0.319656	1
H	0.407142	1.337894	-1.550626	1
Es	-1.835303	0.718352	0.263730	99
Es	-1.877715	-0.499043	0.241931	99
Es	1.449679	1.113524	-0.445583	99
Es	0.850631	0.797697	-0.721459	99
Es	0.342092	0.605865	-0.179112	99
Es	0.306063	-0.514679	-0.215896	99
Es	0.174990	0.000989	1.025007	99
Es	0.487181	-1.020177	-1.330339	99
Es	0.806737	-0.703441	-0.753546	99
Es	-1.678097	0.130246	-0.774702	99
Es	0.547578	1.160977	-1.282431	99
Es	-1.541879	0.110090	-0.046297	99
Es	-0.800660	0.078015	0.083689	99
Es	1.390567	-1.066350	-0.495575	99
Es	0.192008	0.317981	1.802174	99
Es	-0.059936	0.052800	0.222329	99
Es	0.962014	0.049407	-0.882744	99
Es	0.312978	0.018921	1.642495	99
Es	0.090586	-0.505280	1.895358	99
Es	0.918260	-0.032129	1.685434	99
34
Properties=species:S:1:pos:R:3:Z:I:1 energy=-211.19728785381676 field_type=dipole dipole="0.000000 0.000000 0.000000" charge=0
C	-1.541908	0.110104	-0.046296	6
C	-0.060078	0.052804	0.222304	6
N	0.312782	0.019394	1.642794	7
C	0.806752	-0.703606	-0.753576	6
C	0.850682	0.797854	-0.721506	6
H	-1.763798	0.142734	-1.118586	1
H	-1.978788	1.002834	0.413784	1
H	-2.039218	-0.771786	0.371554	1
H	1.323502	-0.026726	1.761264	1
H	-0.059728	-0.818586	2.089004	1
H	0.335562	-1.176776	-1.607966	1
H	1.670682	-1.242336	-0.382486	1
H	1.736412	1.276194	-0.319656	1
H	0.407142	1.337894	-1.550626	1
Es	0.918064	-0.032565	1.684952	99
Es	0.962049	0.049379	-0.882765	99
Es	1.449725	1.113474	-0.445667	99
Es	0.487223	-1.020010	-1.330319	99
Es	0.312970	0.018938	1.642502	99
Es	-0.800623	0.078074	0.083639	99
Es	-1.541881	0.110090	-0.046298	99
Es	-0.059937	0.052799	0.222332	99
Es	-1.835241	0.718433	0.263656	99
Es	0.090473	-0.505371	1.895332	99
Es	0.192444	0.318331	1.802391	99
Es	-1.877736	-0.499075	0.242018	99
Es	0.806731	-0.703436	-0.753547	99
Es	-1.678075	0.130196	-0.774641	99
Es	0.547607	1.160946	-1.282405	99
Es	0.342148	0.605954	-0.179041	99
Es	1.390541	-1.066370	-0.495755	99
Es	0.305845	-0.514796	-0.215719	99
Es	0.850635	0.797696	-0.721462	99
Es	0.174813	0.001077	1.025260	99
34
Properties=species:S:1:pos:R:3:Z:I:1 energy=-211.19728785381676 field_type=dipole dipole="0.000000 0.000000 0.000000" charge=0
C	-1.541908	0.110104	-0.046296	6
C	-0.060078	0.052804	0.222304	6
N	0.312782	0.019394	1.642794	7
C	0.806752	-0.703606	-0.753576	6
C	0.850682	0.797854	-0.721506	6
H	-1.763798	0.142734	-1.118586	1
H	-1.978788	1.002834	0.413784	1
H	-2.039218	-0.771786	0.371554	1
H	1.323502	-0.026726	1.761264	1
H	-0.059728	-0.818586	2.089004	1
H	0.335562	-1.176776	-1.607966	1
H	1.670682	-1.242336	-0.382486	1
H	1.736412	1.276194	-0.319656	1
H	0.407142	1.337894	-1.550626	1
Es	-1.877707	-0.499162	0.241986	99
Es	-0.800686	0.078041	0.083548	99
Es	0.305660	-0.514744	-0.215605	99
Es	1.390454	-1.066379	-0.495702	99
Es	0.487329	-1.020006	-1.330119	99
Es	0.090396	-0.505354	1.895524	99
Es	0.547578	1.160901	-1.282330	99
Es	-1.678043	0.130215	-0.774559	99
Es	0.313005	0.018946	1.642526	99
Es	-1.835228	0.718496	0.263685	99
Es	1.449676	1.113442	-0.445846	99
Es	0.175083	0.000899	1.025246	99
Es	0.850637	0.797694	-0.721467	99
Es	-0.059934	0.052803	0.222327	99
Es	0.192362	0.318480	1.802046	99
Es	0.962226	0.049328	-0.883087	99
Es	0.806731	-0.703442	-0.753543	99
Es	0.917890	-0.032489	1.685090	99
Es	0.342223	0.606004	-0.178960	99
Es	-1.541880	0.110090	-0.046298	99
34
Properties=species:S:1:pos:R:3:Z:I:1 energy=-211.19728785381676 field_type=dipole dipole="0.000000 0.000000 0.000000" charge=0
C	-1.541908	0.110104	-0.046296	6
C	-0.060078	0.052804	0.222304	6
N	0.312782	0.019394	1.642794	7
C	0.806752	-0.703606	-0.753576	6
C	0.850682	0.797854	-0.721506	6
H	-1.763798	0.142734	-1.118586	1
H	-1.978788	1.002834	0.413784	1
H	-2.039218	-0.771786	0.371554	1
H	1.323502	-0.026726	1.761264	1
H	-0.059728	-0.818586	2.089004	1
H	0.335562	-1.176776	-1.607966	1
H	1.670682	-1.242336	-0.382486	1
H	1.736412	1.276194	-0.319656	1
H	0.407142	1.337894	-1.550626	1
Es	0.090036	-0.505285	1.895591	99
Es	0.487411	-1.019967	-1.330128	99
Es	0.313013	0.018957	1.642561	99
Es	-1.877731	-0.499155	0.242071	99
Es	1.449550	1.113382	-0.445794	99
Es	0.806731	-0.703436	-0.753544	99
Es	-0.800737	0.077963	0.083558	99
Es	0.850638	0.797695	-0.721465	99
Es	0.547741	1.160906	-1.282380	99
Es	1.390342	-1.066304	-0.495785	99
Es	0.962415	0.049362	-0.883068	99
Es	-0.059936	0.052798	0.222330	99
Es	0.341999	0.606116	-0.178903	99
Es	0.193031	0.318691	1.802185	99
Es	-1.678044	0.130181	-0.774561	99
Es	-1.835143	0.718549	0.263645	99
Es	-1.541879	0.110090	-0.046297	99
Es	0.917842	-0.033081	1.684554	99
Es	0.305670	-0.514878	-0.215601	99
Es	0.174826	0.001180	1.025491	99
34
Properties=species:S:1:pos:R:3:Z:I:1 energy=-211.19728785381676 field_type=dipole dipole="0.000000 0.000000 0.000000" charge=0
C	-1.541908	0.110104	-0.046296	6
C	-0.060078	0.052804	0.222304	6
N	0.312782	0.019394	1.642794	7
C	0.806752	-0.703606	-0.753576	6
C	0.850682	0.797854	-0.721506	6
H	-1.763798	0.142734	-1.118586	1
H	-1.978788	1.002834	0.413784	1
H	-2.039218	-0.771786	0.371554	1
H	1.323502	-0.026726	1.761264	1
H	-0.059728	-0.818586	2.089004	1
H	0.335562	-1.176776	-1.607966	1
H	1.670682	-1.242336	-0.382486	1
H	1.736412	1.276194	-0.319656	1
H	0.407142	1.337894	-1.550626	1
Es	1.449549	1.113271	-0.445850	99
Es	0.341919	0.606174	-0.178772	99
Es	-1.541878	0.110090	-0.046297	99
Es	-1.677993	0.130204	-0.774565	99
Es	0.192406	0.318943	1.801786	99
Es	0.305677	-0.514793	-0.215565	99
Es	0.090238	-0.505389	1.895613	99
Es	0.175288	0.000555	1.025558	99
Es	-0.059936	0.052797	0.222329	99
Es	0.917788	-0.032635	1.684910	99
Es	-0.800857	0.077936	0.083503	99
Es	-1.835107	0.718564	0.263645	99
Es	0.806725	-0.703439	-0.753546	99
Es	0.487461	-1.019971	-1.329877	99
Es	0.850640	0.797697	-0.721462	99
Es	0.312998	0.018924	1.642516	99
Es	1.390353	-1.066274	-0.495824	99
Es	0.962399	0.049395	-0.883424	99
Es	0.547798	1.160953	-1.282330	99
Es	-1.877693	-0.499240	0.242113	99
34
Properties=species:S:1:pos:R:3:Z:I:1 energy=-211.19728785381676 field_type=dipole dipole="0.000000 0.000000 0.000000" charge=0
C	-1.541908	0.110104	-0.046296	6
C	-0.060078	0.052804	0.222304	6
N	0.312782	0.019394	1.642794	7
C	0.806752	-0.703606	-0.753576	6
C	0.850682	0.797854	-0.721506	6
H	-1.763798	0.142734	-1.118586	1
H	-1.978788	1.002834	0.413784	1
H	-2.039218	-0.771786	0.371554	1
H	1.323502	-0.026726	1.761264	1
H	-0.059728	-0.818586	2.089004	1
H	0.335562	-1.176776	-1.607966	1
H	1.670682	-1.242336	-0.382486	1
H	1.736412	1.276194	-0.319656	1
H	0.407142	1.337894	-1.550626	1
Es	1.390270	-1.066321	-0.495990	99
Es	-0.059936	0.052802	0.222330	99
Es	0.305471	-0.515031	-0.215324	99
Es	0.917753	-0.032739	1.684731	99
Es	0.192541	0.319040	1.801811	99
Es	0.962704	0.049470	-0.883484	99
Es	-0.800805	0.078007	0.083518	99
Es	-1.541878	0.110090	-0.046298	99
Es	0.342011	0.606072	-0.178800	99
Es	-1.835115	0.718613	0.263615	99
Es	-1.677925	0.130202	-0.774500	99
Es	0.090223	-0.505396	1.895677	99
Es	0.175148	0.000612	1.025608	99
Es	0.547831	1.160950	-1.282320	99
Es	0.806730	-0.703444	-0.753546	99
Es	-1.877743	-0.499261	0.242060	99
Es	0.850634	0.797695	-0.721463	99
Es	0.487490	-1.019806	-1.329814	99
Es	1.449384	1.113275	-0.445868	99
Es	0.312986	0.018934	1.642519	99
34
Properties=species:S:1:pos:R:3:Z:I:1 energy=-211.19728785381676 field_type=dipole dipole="0.000000 0.000000 0.000000" charge=0
C	-1.541908	0.110104	-0.046296	6
C	-0.060078	0.052804	0.222304	6
N	0.312782	0.019394	1.642794	7
C	0.806752	-0.703606	-0.753576	6
C	0.850682	0.797854	-0.721506	6
H	-1.763798	0.142734	-1.118586	1
H	-1.978788	1.002834	0.413784	1
H	-2.039218	-0.771786	0.371554	1
H	1.323502	-0.026726	1.761264	1
H	-0.059728	-0.818586	2.089004	1
H	0.335562	-1.176776	-1.607966	1
H	1.670682	-1.242336	-0.382486	1
H	1.736412	1.276194	-0.319656	1
H	0.407142	1.337894	-1.550626	1
Es	0.342007	0.606180	-0.178782	99
Es	-1.835146	0.718670	0.263583	99
Es	0.806730	-0.703440	-0.753548	99
Es	0.305359	-0.515059	-0.215238	99
Es	0.917692	-0.032859	1.684609	99
Es	0.313010	0.018952	1.642518	99
Es	-1.877773	-0.499292	0.242018	99
Es	0.192566	0.319174	1.801836	99
Es	1.449355	1.113197	-0.445931	99
Es	0.175181	0.000587	1.025740	99
Es	-0.800842	0.077892	0.083584	99
Es	1.390209	-1.066270	-0.496021	99
Es	0.090194	-0.505414	1.895643	99
Es	0.487599	-1.019761	-1.329784	99
Es	0.547872	1.160977	-1.282292	99
Es	-1.677804	0.130185	-0.774476	99
Es	-1.541880	0.110090	-0.046297	99
Es	0.962744	0.049464	-0.883564	99
Es	0.850635	0.797696	-0.721464	99
Es	-0.059935	0.052795	0.222328	99
34
Properties=species:S:1:pos:R:3:Z:I:1 energy=-211.19728785381676 field_type=dipole dipole="0.000000 0.000000 0.000000" charge=0
C	-1.541908	0.110104	-0.046296	6
C	-0.060078	0.052804	0.222304	6
N	0.312782	0.019394	1.642794	7
C	0.806752	-0.703606	-0.753576	6
C	0.850682	0.797854	-0.721506	6
H	-1.763798	0.142734	-1.118586	1
H	-1.978788	1.002834	0.413784	1
H	-2.039218	-0.771786	0.371554	1
H	1.323502	-0.026726	1.761264	1
H	-0.059728	-0.818586	2.089004	1
H	0.335562	-1.176776	-1.607966	1
H	1.670682	-1.242336	-0.382486	1
H	1.736412	1.276194	-0.319656	1
H	0.407142	1.337894	-1.550626	1
Es	-1.835043	0.718730	0.263568	99
Es	0.850631	0.797697	-0.721458	99
Es	0.341785	0.606273	-0.178680	99
Es	0.305380	-0.515146	-0.215379	99
Es	0.547990	1.160910	-1.282327	99
Es	0.313011	0.018932	1.642528	99
Es	0.192672	0.319295	1.801555	99
Es	1.449299	1.113176	-0.445941	99
Es	-0.800907	0.077859	0.083524	99
Es	0.175305	0.000446	1.025824	99
Es	-0.059936	0.052797	0.222329	99
Es	0.487666	-1.019737	-1.329643	99
Es	-1.877780	-0.499306	0.242098	99
Es	-1.541879	0.110090	-0.046297	99
Es	0.917657	-0.032892	1.684601	99
Es	0.962851	0.049540	-0.883659	99
Es	-1.677825	0.130167	-0.774451	99
Es	0.090021	-0.505354	1.895833	99
Es	0.806731	-0.703438	-0.753546	99
Es	1.390146	-1.066274	-0.496016	99
34
Properties=species:S:1:pos:R:3:Z:I:1 energy=-211.19728785381676 field_type=dipole dipole="0.000000 0.000000 0.000000" charge=0
C	-1.541908	0.110104	-0.046296	6
C	-0.060078	0.052804	0.222304	6
N	0.312782	0.019394	1.642794	7
C	0.806752	-0.703606	-0.753576	6
C	0.850682	0.797854	-0.721506	6
H	-1.763798	0.142734	-1.118586	1
H	-1.978788	1.002834	0.413784	1
H	-2.039218	-0.771786	0.371554	1
H	1.323502	-0.026726	1.761264	1
H	-0.059728	-0.818586	2.089004	1
H	0.335562	-1.176776	-1.607966	1
H	1.670682	-1.242336	-0.382486	1
H	1.736412	1.276194	-0.319656	1
H	0.407142	1.337894	-1.550626	1
Es	0.313021	0.018917	1.642521	99
Es	-0.059937	0.052805	0.222332	99
Es	0.548053	1.160932	-1.282381	99
Es	0.963006	0.049463	-0.883699	99
Es	1.449187	1.113152	-0.445900	99
Es	-1.541880	0.110090	-0.046297	99
Es	0.305273	-0.515146	-0.215232	99
Es	0.487680	-1.019727	-1.329626	99
Es	0.806731	-0.703443	-0.753544	99
Es	0.917516	-0.032921	1.684474	99
Es	-1.677701	0.130188	-0.774391	99
Es	0.850633	0.797697	-0.721463	99
Es	0.341750	0.606282	-0.178763	99
Es	-1.877807	-0.499354	0.241965	99
Es	-0.800776	0.077878	0.083618	99
Es	0.175404	0.000150	1.026034	99
Es	-1.835170	0.718725	0.263542	99
Es	0.089875	-0.505259	1.896214	99
Es	0.192793	0.319592	1.801104	99
Es	1.390122	-1.066257	-0.496048	99
34
Properties=species:S:1:pos:R:3:Z:I:1 energy=-211.19728785381676 field_type=dipole dipole="0.000000 0.000000 0.000000" charge=0
C	-1.541908	0.110104	-0.046296	6
C	-0.060078	0.052804	0.222304	6
N	0.312782	0.019394	1.642794	7
C	0.806752	-0.703606	-0.753576	6
C	0.850682	0.797854	-0.721506	6
H	-1.763798	0.142734	-1.118586	1
H	-1.978788	1.002834	0.413784	1
H	-2.039218	-0.771786	0.371554	1
H	1.323502	-0.026726	1.761264	1
H	-0.059728	-0.818586	2.089004	1
H	0.335562	-1.176776	-1.607966	1
H	1.670682	-1.242336	-0.382486	1
H	1.736412	1.276194	-0.319656	1
H	0.407142	1.337894	-1.550626	1
Es	0.089987	-0.505404	1.895826	99
Es	0.963083	0.049480	-0.883797	99
Es	-0.800950	0.077868	0.083451	99
Es	0.806728	-0.703439	-0.753543	99
Es	0.305097	-0.515210	-0.215166	99
Es	1.449210	1.113072	-0.446052	99
Es	0.192456	0.319606	1.801288	99
Es	-1.541879	0.110089	-0.046297	99
Es	1.390003	-1.066279	-0.496158	99
Es	0.850633	0.797697	-0.721460	99
Es	0.312967	0.018944	1.642497	99
Es	0.175475	0.000027	1.026141	99
Es	-1.835038	0.718738	0.263642	99
Es	-1.877682	-0.499385	0.242098	99
Es	0.547991	1.160969	-1.282293	99
Es	0.487805	-1.019557	-1.329555	99
Es	-1.677803	0.130197	-0.774478	99
Es	0.917695	-0.032827	1.684582	99
Es	0.341934	0.606382	-0.178595	99
Es	-0.059936	0.052798	0.222329	99
34
Properties=species:S:1:pos:R:3:Z:I:1 energy=-211.19728785381676 field_type=dipole dipole="0.000000 0.000000 0.000000" charge=0
C	-1.541908	0.110104	-0.046296	6
C	-0.060078	0.052804	0.222304	6
N	0.312782	0.019394	1.642794	7
C	0.806752	-0.703606	-0.753576	6
C	0.850682	0.797854	-0.721506	6
H	-1.763798	0.142734	-1.118586	1
H	-1.978788	1.002834	0.413784	1
H	-2.039218	-0.771786	0.371554	1
H	1.323502	-0.026726	1.761264	1
H	-0.059728	-0.818586	2.089004	1
H	0.335562	-1.176776	-1.607966	1
H	1.670682	-1.242336	-0.382486	1
H	1.736412	1.276194	-0.319656	1
H	0.407142	1.337894	-1.550626	1
Es	0.806728	-0.703436	-0.753543	99
Es	0.192908	0.319658	1.801354	99
Es	0.313005	0.018942	1.642537	99
Es	0.175232	0.000333	1.026220	99
Es	0.917648	-0.033178	1.684234	99
Es	0.305080	-0.515403	-0.215009	99
Es	-1.677735	0.130227	-0.774428	99
Es	-1.835013	0.718744	0.263585	99
Es	0.089771	-0.505355	1.895939	99
Es	1.389973	-1.066187	-0.496251	99
Es	0.850635	0.797695	-0.721462	99
Es	1.449060	1.113035	-0.446077	99
Es	-1.541880	0.110090	-0.046297	99
Es	-1.877762	-0.499424	0.242083	99
Es	0.548061	1.160957	-1.282325	99
Es	-0.059935	0.052798	0.222327	99
Es	0.487745	-1.019620	-1.329567	99
Es	0.963227	0.049518	-0.883807	99
Es	0.341954	0.606362	-0.178557	99
Es	-0.800927	0.078007	0.083507	99
34
Properties=species:S:1:pos:R:3:Z:I:1 energy=-211.19728785381676 field_type=dipole dipole="0.000000 0.000000 0.000000" charge=0
C	-1.541908	0.110104	-0.046296	6
C	-0.060078	0.052804	0.222304	6
N	0.312782	0.019394	1.642794	7
C	0.806752	-0.703606	-0.753576	6
C	0.850682	0.797854	-0.721506	6
H	-1.763798	0.142734	-1.118586	1
H	-1.978788	1.002834	0.413784	1
H	-2.039218	-0.771786	0.371554	1
H	1.323502	-0.026726	1.761264	1
H	-0.059728	-0.818586	2.089004	1
H	0.335562	-1.176776	-1.607966	1
H	1.670682	-1.242336	-0.382486	1
H	1.736412	1.276194	-0.319656	1
H	0.407142	1.337894	-1.550626	1
Es	0.341723	0.606425	-0.178507	99
Es	-1.835082	0.718819	0.263558	99
Es	-1.677641	0.130167	-0.774401	99
Es	1.449060	1.113052	-0.446055	99
Es	0.487823	-1.019588	-1.329424	99
Es	0.850634	0.797698	-0.721461	99
Es	0.089743	-0.505396	1.896068	99
Es	0.548141	1.160920	-1.282239	99
Es	0.193003	0.319502	1.801260	99
Es	-0.059935	0.052796	0.222328	99
Es	0.313013	0.018919	1.642521	99
Es	-0.800954	0.077951	0.083523	99
Es	-1.541879	0.110090	-0.046299	99
Es	1.389963	-1.066205	-0.496226	99
Es	0.175164	0.000435	1.026220	99
Es	0.305107	-0.515359	-0.215098	99
Es	-1.877718	-0.499453	0.242056	99
Es	0.963277	0.049481	-0.884046	99
Es	0.806729	-0.703441	-0.753544	99
Es	0.917606	-0.033047	1.684228	99
34
Properties=species:S:1:pos:R:3:Z:I:1 energy=-211.19728785381676 field_type=dipole dipole="0.000000 0.000000 0.000000" charge=0
C	-1.541908	0.110104	-0.046296	6
C	-0.060078	0.052804	0.222304	6
N	0.312782	0.019394	1.642794	7
C	0.806752	-0.703606	-0.753576	6
C	0.850682	0.797854	-0.721506	6
H	-1.763798	0.142734	-1.118586	1
H	-1.978788	1.002834	0.413784	1
H	-2.039218	-0.771786	0.371554	1
H	1.323502	-0.026726	1.761264	1
H	-0.059728	-0.818586	2.089004	1
H	0.335562	-1.176776	-1.607966	1
H	1.670682	-1.242336	-0.382486	1
H	1.736412	1.276194	-0.319656	1
H	0.407142	1.337894	-1.550626	1
Es	0.548123	1.160927	-1.282267	99
Es	0.487913	-1.019473	-1.329351	99
Es	0.312986	0.018927	1.642501	99
Es	-1.877762	-0.499493	0.242083	99
Es	0.192860	0.320068	1.801131	99
Es	1.449117	1.113010	-0.446097	99
Es	-0.800980	0.077947	0.083470	99
Es	0.917361	-0.033176	1.684298	99
Es	-1.677647	0.130188	-0.774334	99
Es	-1.541879	0.110090	-0.046297	99
Es	0.806731	-0.703439	-0.753547	99
Es	-0.059937	0.052799	0.222329	99
Es	0.963217	0.049557	-0.884048	99
Es	0.175576	-0.000041	1.026313	99
Es	-1.835041	0.718821	0.263516	99
Es	0.089774	-0.505365	1.896073	99
Es	1.389968	-1.066219	-0.496289	99
Es	0.304940	-0.515419	-0.215003	99
Es	0.850637	0.797689	-0.721466	99
Es	0.341819	0.606366	-0.178552	99
34
Properties=species:S:1:pos:R:3:Z:I:1 energy=-211.19728785381676 field_type=dipole dipole="0.000000 0.000000 0.000000" charge=0
C	-1.541908	0.110104	-0.046296	6
C	-0.060078	0.052804	0.222304	6
N	0.312782	0.019394	1.642794	7
C	0.806752	-0.703606	-0.753576	6
C	0.850682	0.797854	-0.721506	6
H	-1.763798	0.142734	-1.118586	1
H	-1.978788	1.002834	0.413784	1
H	-2.039218	-0.771786	0.371554	1
H	1.323502	-0.026726	1.761264	1
H	-0.059728	-0.818586	2.089004	1
H	0.335562	-1.176776	-1.607966	1
H	1.670682	-1.242336	-0.382486	1
H	1.736412	1.276194	-0.319656	1
H	0.407142	1.337894	-1.550626	1
Es	0.175374	0.000171	1.026349	99
Es	-1.877714	-0.499477	0.242106	99
Es	0.089525	-0.505322	1.896293	99
Es	0.193284	0.319936	1.801048	99
Es	-1.677657	0.130145	-0.774354	99
Es	0.917360	-0.033298	1.684097	99
Es	1.389960	-1.066260	-0.496327	99
Es	0.548175	1.161000	-1.282167	99
Es	1.449102	1.112945	-0.446081	99
Es	-1.835024	0.718878	0.263549	99
Es	0.341873	0.606447	-0.178603	99
Es	0.312968	0.018948	1.642484	99
Es	0.850634	0.797696	-0.721462	99
Es	-0.800995	0.077941	0.083441	99
Es	0.963260	0.049366	-0.884264	99
Es	0.487880	-1.019444	-1.329274	99
Es	0.304856	-0.515351	-0.214861	99
Es	-0.059936	0.052798	0.222330	99
Es	0.806729	-0.703441	-0.753544	99
Es	-1.541880	0.110090	-0.046297	99
34
Properties=species:S:1:pos:R:3:Z:I:1 energy=-211.19728785381676 field_type=dipole dipole="0.000000 0.000000 0.000000" charge=0
C	-1.541908	0.110104	-0.046296	6
C	-0.060078	0.052804	0.222304	6
N	0.312782	0.019394	1.642794	7
C	0.806752	-0.703606	-0.753576	6
C	0.850682	0.797854	-0.721506	6
H	-1.763798	0.142734	-1.118586	1
H	-1.978788	1.002834	0.413784	1
H	-2.039218	-0.771786	0.371554	1
H	1.323502	-0.026726	1.761264	1
H	-0.059728	-0.818586	2.089004	1
H	0.335562	-1.176776	-1.607966	1
H	1.670682	-1.242336	-0.382486	1
H	1.736412	1.276194	-0.319656	1
H	0.407142	1.337894	-1.550626	1
Es	-1.835023	0.718840	0.263574	99
Es	-0.059937	0.052799	0.222330	99
Es	0.806729	-0.703440	-0.753545	99
Es	0.548179	1.160931	-1.282195	99
Es	1.448996	1.112981	-0.446140	99
Es	0.487943	-1.019477	-1.329199	99
Es	-1.877746	-0.499536	0.242040	99
Es	0.917315	-0.033183	1.684228	99
Es	0.313012	0.018928	1.642530	99
Es	-0.800988	0.077933	0.083419	99
Es	1.389860	-1.066187	-0.496331	99
Es	0.192973	0.320063	1.800947	99
Es	0.341727	0.606371	-0.178389	99
Es	0.963452	0.049614	-0.884336	99
Es	-1.541879	0.110090	-0.046298	99
Es	0.089629	-0.505423	1.896170	99
Es	0.175553	-0.000004	1.026423	99
Es	0.850639	0.797697	-0.721466	99
Es	-1.677626	0.130226	-0.774323	99
Es	0.304967	-0.515458	-0.214976	99
