27
Properties=species:S:1:pos:R:3:Z:I:1 energy=-228.70709881124412 field_type=dipole dipole="0.000000 0.000000 0.000000" charge=0
O	-0.433758	-1.314820	-0.003447	8
C	-1.215708	-0.204660	-0.001357	6
C	-0.438868	0.929760	0.001903	6
C	0.906122	0.487200	0.001803	6
C	0.855462	-0.888070	-0.001507	6
H	-2.281748	-0.384190	-0.002537	1
H	-0.798488	1.949500	0.004083	1
H	1.801702	1.091450	0.003883	1
H	1.605282	-1.666170	-0.002827	1
Es	0.855213	-0.888244	-0.001510	99
Es	-0.804235	0.383793	0.320778	99
Es	0.252841	0.766744	0.000454	99
Es	0.874748	-0.169295	0.320646	99
Es	-0.438863	0.929787	0.001903	99
Es	0.877792	-0.169774	-0.317964	99
Es	0.043627	-1.149021	-0.060394	99
Es	-1.931924	-0.323745	-0.002586	99
Es	0.906134	0.487231	0.001803	99
Es	1.505405	0.898501	0.003082	99
Es	1.360190	-1.409659	-0.002806	99
Es	-0.719812	-0.896358	-0.055897	99
Es	-1.215612	-0.204949	-0.001352	99
Es	-0.400739	-1.222555	0.218896	99
Es	-0.806770	0.385136	-0.318032	99
Es	-0.433612	-1.314374	-0.003575	99
Es	-0.675627	1.617511	0.003304	99
Es	-0.523959	-1.586240	-0.116908	99
27
Properties=species:S:1:pos:R:3:Z:I:1 energy=-228.70709881124412 field_type=dipole dipole="0.000000 0.000000 0.000000" charge=0
O	-0.433758	-1.314820	-0.003447	8
C	-1.215708	-0.204660	-0.001357	6
C	-0.438868	0.929760	0.001903	6
C	0.906122	0.487200	0.001803	6
C	0.855462	-0.888070	-0.001507	6
H	-2.281748	-0.384190	-0.002537	1
H	-0.798488	1.949500	0.004083	1
H	1.801702	1.091450	0.003883	1
H	1.605282	-1.666170	-0.002827	1
Es	0.906134	0.487229	0.001811	99
Es	1.507032	0.898862	0.003288	99
Es	0.855215	-0.888240	-0.001513	99
Es	-0.804055	0.385368	-0.314928	99
Es	-0.433615	-1.314393	-0.003462	99
Es	-0.730482	-0.888817	0.001490	99
Es	1.361251	-1.409777	-0.002477	99
Es	-0.535966	-1.624425	0.002316	99
Es	-0.438860	0.929793	0.001901	99
Es	-0.804643	0.383787	0.315668	99
Es	0.252086	0.764440	0.002048	99
Es	-1.215612	-0.204951	-0.001382	99
Es	0.875620	-0.168149	-0.315184	99
Es	0.875378	-0.169794	0.315361	99
Es	0.058069	-1.149276	0.005979	99
Es	-0.393107	-1.192739	-0.022336	99
Es	-0.676804	1.618770	0.003368	99
Es	-1.932845	-0.323199	-0.002105	99
27
Properties=species:S:1:pos:R:3:Z:I:1 energy=-228.70709881124412 field_type=dipole dipole="0.000000 0.000000 0.000000" charge=0
O	-0.433758	-1.314820	-0.003447	8
C	-1.215708	-0.204660	-0.001357	6
C	-0.438868	0.929760	0.001903	6
C	0.906122	0.487200	0.001803	6
C	0.855462	-0.888070	-0.001507	6
H	-2.281748	-0.384190	-0.002537	1
H	-0.798488	1.949500	0.004083	1
H	1.801702	1.091450	0.003883	1
H	1.605282	-1.666170	-0.002827	1
Es	-0.803280	0.383921	0.312490	99
Es	-0.433613	-1.314385	-0.003484	99
Es	-0.729446	-0.888732	-0.002419	99
Es	0.057333	-1.148272	-0.001763	99
Es	-0.536095	-1.625578	-0.002907	99
Es	1.508169	0.899093	0.003376	99
Es	-1.215613	-0.204950	-0.001352	99
Es	-0.677557	1.619620	0.003422	99
Es	-1.933419	-0.322661	-0.002125	99
Es	0.875098	-0.169404	0.312187	99
Es	-0.393713	-1.194058	-0.005589	99
Es	0.874425	-0.167019	-0.311947	99
Es	-0.438860	0.929795	0.001897	99
Es	1.361977	-1.409722	-0.002427	99
Es	-0.803366	0.385475	-0.311677	99
Es	0.855212	-0.888247	-0.001506	99
Es	0.251409	0.762381	0.001853	99
Es	0.906135	0.487229	0.001814	99
27
Properties=species:S:1:pos:R:3:Z:I:1 energy=-228.70709881124412 field_type=dipole dipole="0.000000 0.000000 0.000000" charge=0
O	-0.433758	-1.314820	-0.003447	8
C	-1.215708	-0.204660	-0.001357	6
C	-0.438868	0.929760	0.001903	6
C	0.906122	0.487200	0.001803	6
C	0.855462	-0.888070	-0.001507	6
H	-2.281748	-0.384190	-0.002537	1
H	-0.798488	1.949500	0.004083	1
H	1.801702	1.091450	0.003883	1
H	1.605282	-1.666170	-0.002827	1
Es	-1.215613	-0.204955	-0.001355	99
Es	0.855209	-0.888249	-0.001512	99
Es	1.509010	0.899123	0.003192	99
Es	0.874631	-0.169023	0.309747	99
Es	-0.394185	-1.195204	-0.006886	99
Es	-0.802500	0.384060	0.309958	99
Es	0.906136	0.487232	0.001803	99
Es	-1.933843	-0.322238	-0.002116	99
Es	-0.433534	-1.314186	-0.003170	99
Es	0.873635	-0.166333	-0.309402	99
Es	-0.536213	-1.626546	-0.004232	99
Es	0.250869	0.760804	0.001883	99
Es	1.362577	-1.409635	-0.002376	99
Es	0.056448	-1.147221	-0.001069	99
Es	-0.438859	0.929793	0.001902	99
Es	-0.678111	1.620200	0.003419	99
Es	-0.728429	-0.888815	-0.000741	99
Es	-0.802433	0.385681	-0.309203	99
27
Properties=species:S:1:pos:R:3:Z:I:1 energy=-228.70709881124412 field_type=dipole dipole="0.000000 0.000000 0.000000" charge=0
O	-0.433758	-1.314820	-0.003447	8
C	-1.215708	-0.204660	-0.001357	6
C	-0.438868	0.929760	0.001903	6
C	0.906122	0.487200	0.001803	6
C	0.855462	-0.888070	-0.001507	6
H	-2.281748	-0.384190	-0.002537	1
H	-0.798488	1.949500	0.004083	1
H	1.801702	1.091450	0.003883	1
H	1.605282	-1.666170	-0.002827	1
Es	-1.215613	-0.204954	-0.001358	99
Es	0.906136	0.487232	0.001804	99
Es	0.250360	0.759316	0.001836	99
Es	1.363058	-1.409524	-0.002328	99
Es	-0.678598	1.620628	0.003358	99
Es	-0.801011	0.384281	0.307847	99
Es	-0.438860	0.929795	0.001911	99
Es	0.055902	-1.147086	-0.003240	99
Es	-0.802497	0.385601	-0.307140	99
Es	1.509597	0.899266	0.003218	99
Es	0.872794	-0.167359	0.307757	99
Es	-1.934150	-0.321875	-0.002203	99
Es	0.874549	-0.166893	-0.307195	99
Es	-0.433607	-1.314387	-0.003451	99
Es	-0.394370	-1.195800	-0.004375	99
Es	-0.727519	-0.888505	-0.001437	99
Es	0.855211	-0.888248	-0.001508	99
Es	-0.536584	-1.627001	-0.003655	99
27
Properties=species:S:1:pos:R:3:Z:I:1 energy=-228.70709881124412 field_type=dipole dipole="0.000000 0.000000 0.000000" charge=0
O	-0.433758	-1.314820	-0.003447	8
C	-1.215708	-0.204660	-0.001357	6
C	-0.438868	0.929760	0.001903	6
C	0.906122	0.487200	0.001803	6
C	0.855462	-0.888070	-0.001507	6
H	-2.281748	-0.384190	-0.002537	1
H	-0.798488	1.949500	0.004083	1
H	1.801702	1.091450	0.003883	1
H	1.605282	-1.666170	-0.002827	1
Es	0.864251	-0.158959	-0.301750	99
Es	0.055192	-1.146463	-0.005218	99
Es	-0.536781	-1.627675	-0.004916	99
Es	-0.726627	-0.888408	-0.001704	99
Es	0.882328	-0.174397	0.301715	99
Es	1.363392	-1.409436	-0.002916	99
Es	1.510037	0.899364	0.003218	99
Es	-0.433616	-1.314386	-0.003536	99
Es	-0.799437	0.385847	-0.305590	99
Es	0.855210	-0.888249	-0.001509	99
Es	-0.803084	0.384275	0.306054	99
Es	0.249965	0.757956	0.002805	99
Es	-0.438860	0.929795	0.001901	99
Es	-1.215613	-0.204954	-0.001364	99
Es	-0.394520	-1.196440	-0.000914	99
Es	-0.678788	1.620974	0.003704	99
Es	0.906135	0.487229	0.001822	99
Es	-1.934387	-0.321586	-0.001959	99
27
Properties=species:S:1:pos:R:3:Z:I:1 energy=-228.70709881124412 field_type=dipole dipole="0.000000 0.000000 0.000000" charge=0
O	-0.433758	-1.314820	-0.003447	8
C	-1.215708	-0.204660	-0.001357	6
C	-0.438868	0.929760	0.001903	6
C	0.906122	0.487200	0.001803	6
C	0.855462	-0.888070	-0.001507	6
H	-2.281748	-0.384190	-0.002537	1
H	-0.798488	1.949500	0.004083	1
H	1.801702	1.091450	0.003883	1
H	1.605282	-1.666170	-0.002827	1
Es	-0.438860	0.929796	0.001904	99
Es	-0.433612	-1.314393	-0.003441	99
Es	1.509857	0.899664	0.003756	99
Es	-0.394836	-1.196866	-0.003882	99
Es	-0.771216	0.386558	-0.278337	99
Es	-0.536820	-1.627940	-0.007465	99
Es	1.363253	-1.409428	-0.002459	99
Es	-1.215613	-0.204955	-0.001356	99
Es	-0.726359	-0.888643	-0.003314	99
Es	0.249892	0.757603	0.004433	99
Es	-1.934263	-0.321690	-0.003039	99
Es	0.855210	-0.888248	-0.001509	99
Es	0.860631	-0.156226	-0.298560	99
Es	-0.830654	0.384150	0.277860	99
Es	0.054981	-1.146055	0.001853	99
Es	0.906136	0.487231	0.001804	99
Es	-0.678459	1.621143	0.003584	99
Es	0.885528	-0.177214	0.298011	99
27
Properties=species:S:1:pos:R:3:Z:I:1 energy=-228.70709881124412 field_type=dipole dipole="0.000000 0.000000 0.000000" charge=0
O	-0.433758	-1.314820	-0.003447	8
C	-1.215708	-0.204660	-0.001357	6
C	-0.438868	0.929760	0.001903	6
C	0.906122	0.487200	0.001803	6
C	0.855462	-0.888070	-0.001507	6
H	-2.281748	-0.384190	-0.002537	1
H	-0.798488	1.949500	0.004083	1
H	1.801702	1.091450	0.003883	1
H	1.605282	-1.666170	-0.002827	1
Es	0.906135	0.487231	0.001800	99
Es	0.854588	-0.153731	0.290638	99
Es	-0.394966	-1.197058	-0.003045	99
Es	-0.536694	-1.628329	-0.005026	99
Es	-0.835992	0.384289	0.266043	99
Es	-0.433624	-1.314407	-0.003422	99
Es	-0.438860	0.929796	0.001904	99
Es	0.891118	-0.179446	-0.290231	99
Es	-1.934231	-0.321609	-0.004416	99
Es	-0.725776	-0.888818	-0.014158	99
Es	-1.215612	-0.204955	-0.001363	99
Es	0.855210	-0.888248	-0.001502	99
Es	1.509889	0.899872	0.004104	99
Es	-0.765204	0.386393	-0.265970	99
Es	1.363262	-1.409384	-0.000381	99
Es	0.054226	-1.145633	0.009452	99
Es	0.249730	0.757252	0.002945	99
Es	-0.678402	1.621271	0.002470	99
27
Properties=species:S:1:pos:R:3:Z:I:1 energy=-228.70709881124412 field_type=dipole dipole="0.000000 0.000000 0.000000" charge=0
O	-0.433758	-1.314820	-0.003447	8
C	-1.215708	-0.204660	-0.001357	6
C	-0.438868	0.929760	0.001903	6
C	0.906122	0.487200	0.001803	6
C	0.855462	-0.888070	-0.001507	6
H	-2.281748	-0.384190	-0.002537	1
H	-0.798488	1.949500	0.004083	1
H	1.801702	1.091450	0.003883	1
H	1.605282	-1.666170	-0.002827	1
Es	-0.433616	-1.314383	-0.003370	99
Es	-1.934125	-0.321763	-0.003573	99
Es	1.509603	0.900209	0.004037	99
Es	0.249778	0.757108	0.005239	99
Es	-0.725373	-0.888479	-0.004977	99
Es	0.906136	0.487230	0.001803	99
Es	0.054410	-1.145775	0.003422	99
Es	-0.846048	0.383996	0.234687	99
Es	0.858690	-0.155259	-0.297005	99
Es	0.855209	-0.888248	-0.001506	99
Es	-0.677983	1.621376	0.003599	99
Es	0.886825	-0.178400	0.296285	99
Es	1.363090	-1.409423	-0.002380	99
Es	-0.438861	0.929794	0.001885	99
Es	-0.395406	-1.197417	-0.003168	99
Es	-1.215613	-0.204954	-0.001359	99
Es	-0.754673	0.387356	-0.235455	99
Es	-0.537245	-1.628480	-0.008323	99
27
Properties=species:S:1:pos:R:3:Z:I:1 energy=-228.70709881124412 field_type=dipole dipole="0.000000 0.000000 0.000000" charge=0
O	-0.433758	-1.314820	-0.003447	8
C	-1.215708	-0.204660	-0.001357	6
C	-0.438868	0.929760	0.001903	6
C	0.906122	0.487200	0.001803	6
C	0.855462	-0.888070	-0.001507	6
H	-2.281748	-0.384190	-0.002537	1
H	-0.798488	1.949500	0.004083	1
H	1.801702	1.091450	0.003883	1
H	1.605282	-1.666170	-0.002827	1
Es	-0.678030	1.621487	0.002163	99
Es	1.509710	0.900172	0.004491	99
Es	0.900703	-0.186828	-0.267178	99
Es	0.855210	-0.888248	-0.001503	99
Es	0.249658	0.757148	0.002324	99
Es	-0.438860	0.929796	0.001905	99
Es	-0.395012	-1.197538	-0.003374	99
Es	-0.537222	-1.628647	-0.003877	99
Es	0.053637	-1.145517	0.012976	99
Es	0.844366	-0.145802	0.267938	99
Es	-1.934064	-0.321715	-0.005066	99
Es	-0.759703	0.386306	-0.252761	99
Es	-0.433610	-1.314357	-0.003575	99
Es	-0.840861	0.384110	0.252947	99
Es	-1.215614	-0.204952	-0.001356	99
Es	-0.724722	-0.888806	-0.018385	99
Es	1.363074	-1.409353	0.000382	99
Es	0.906137	0.487231	0.001793	99
27
Properties=species:S:1:pos:R:3:Z:I:1 energy=-228.70709881124412 field_type=dipole dipole="0.000000 0.000000 0.000000" charge=0
O	-0.433758	-1.314820	-0.003447	8
C	-1.215708	-0.204660	-0.001357	6
C	-0.438868	0.929760	0.001903	6
C	0.906122	0.487200	0.001803	6
C	0.855462	-0.888070	-0.001507	6
H	-2.281748	-0.384190	-0.002537	1
H	-0.798488	1.949500	0.004083	1
H	1.801702	1.091450	0.003883	1
H	1.605282	-1.666170	-0.002827	1
Es	1.362989	-1.409357	0.000705	99
Es	-0.837935	0.384141	0.261617	99
Es	-0.433623	-1.314398	-0.003511	99
Es	0.906137	0.487231	0.001800	99
Es	-0.537287	-1.628846	-0.003208	99
Es	-0.394819	-1.197755	-0.003826	99
Es	-0.762623	0.385856	-0.261362	99
Es	0.838450	-0.140698	0.247125	99
Es	0.249533	0.756811	0.001950	99
Es	0.053337	-1.145317	0.013665	99
Es	1.509556	0.900476	0.004615	99
Es	-1.215612	-0.204955	-0.001356	99
Es	-0.677866	1.621585	0.002026	99
Es	0.855209	-0.888248	-0.001501	99
Es	-0.438860	0.929796	0.001898	99
Es	-0.724406	-0.888828	-0.019291	99
Es	-1.934001	-0.321753	-0.005180	99
Es	0.906615	-0.191252	-0.246323	99
27
Properties=species:S:1:pos:R:3:Z:I:1 energy=-228.70709881124412 field_type=dipole dipole="0.000000 0.000000 0.000000" charge=0
O	-0.433758	-1.314820	-0.003447	8
C	-1.215708	-0.204660	-0.001357	6
C	-0.438868	0.929760	0.001903	6
C	0.906122	0.487200	0.001803	6
C	0.855462	-0.888070	-0.001507	6
H	-2.281748	-0.384190	-0.002537	1
H	-0.798488	1.949500	0.004083	1
H	1.801702	1.091450	0.003883	1
H	1.605282	-1.666170	-0.002827	1
Es	0.910915	-0.196212	0.223773	99
Es	-0.834551	0.383718	0.269441	99
Es	-0.394676	-1.198406	-0.002620	99
Es	0.855211	-0.888248	-0.001513	99
Es	-0.438860	0.929795	0.001905	99
Es	-0.537414	-1.628949	-0.010228	99
Es	1.362830	-1.409419	-0.003520	99
Es	-1.215612	-0.204956	-0.001359	99
Es	0.906135	0.487230	0.001799	99
Es	1.509273	0.900719	0.003787	99
Es	-0.766323	0.385831	-0.270664	99
Es	0.053889	-1.145405	-0.001664	99
Es	-0.677537	1.621626	0.004193	99
Es	-1.933910	-0.321930	-0.002774	99
Es	0.249448	0.756859	0.006488	99
Es	0.834350	-0.134924	-0.225267	99
Es	-0.433626	-1.314406	-0.003427	99
Es	-0.724743	-0.888436	0.001490	99
27
Properties=species:S:1:pos:R:3:Z:I:1 energy=-228.70709881124412 field_type=dipole dipole="0.000000 0.000000 0.000000" charge=0
O	-0.433758	-1.314820	-0.003447	8
C	-1.215708	-0.204660	-0.001357	6
C	-0.438868	0.929760	0.001903	6
C	0.906122	0.487200	0.001803	6
C	0.855462	-0.888070	-0.001507	6
H	-2.281748	-0.384190	-0.002537	1
H	-0.798488	1.949500	0.004083	1
H	1.801702	1.091450	0.003883	1
H	1.605282	-1.666170	-0.002827	1
Es	0.891485	-0.182232	0.288362	99
Es	-0.537506	-1.629205	-0.009246	99
Es	0.852429	-0.151338	-0.289518	99
Es	0.249726	0.756622	0.005802	99
Es	0.906136	0.487232	0.001805	99
Es	0.053651	-1.145243	0.003532	99
Es	-1.215612	-0.204954	-0.001361	99
Es	-0.414655	-1.255755	0.000503	99
Es	-0.857147	0.383662	0.182023	99
Es	-1.933816	-0.321967	-0.003417	99
Es	-0.724400	-0.888477	-0.003680	99
Es	1.509249	0.900937	0.004029	99
Es	-0.741405	0.388546	-0.182892	99
Es	0.855210	-0.888248	-0.001509	99
Es	-0.438860	0.929796	0.001906	99
Es	-0.415251	-1.257216	-0.007570	99
Es	-0.677143	1.621743	0.003831	99
Es	1.362706	-1.409413	-0.002757	99
27
Properties=species:S:1:pos:R:3:Z:I:1 energy=-228.70709881124412 field_type=dipole dipole="0.000000 0.000000 0.000000" charge=0
O	-0.433758	-1.314820	-0.003447	8
C	-1.215708	-0.204660	-0.001357	6
C	-0.438868	0.929760	0.001903	6
C	0.906122	0.487200	0.001803	6
C	0.855462	-0.888070	-0.001507	6
H	-2.281748	-0.384190	-0.002537	1
H	-0.798488	1.949500	0.004083	1
H	1.801702	1.091450	0.003883	1
H	1.605282	-1.666170	-0.002827	1
Es	0.906136	0.487231	0.001801	99
Es	0.053551	-1.145367	-0.009719	99
Es	-1.215612	-0.204954	-0.001354	99
Es	1.509251	0.900921	0.002352	99
Es	1.362745	-1.409400	-0.002548	99
Es	0.855210	-0.888248	-0.001509	99
Es	-0.737233	0.388444	0.152260	99
Es	-1.933852	-0.321968	-0.000663	99
Es	-0.677052	1.621734	0.003212	99
Es	-0.537570	-1.629276	-0.000465	99
Es	0.882061	-0.173899	-0.302644	99
Es	-0.433603	-1.314363	-0.003614	99
Es	-0.724162	-0.888299	0.001552	99
Es	-0.396655	-1.198028	-0.003707	99
Es	-0.861593	0.384400	-0.150196	99
Es	-0.438858	0.929798	0.001900	99
Es	0.249860	0.756623	-0.000971	99
Es	0.862171	-0.160863	0.304156	99
27
Properties=species:S:1:pos:R:3:Z:I:1 energy=-228.70709881124412 field_type=dipole dipole="0.000000 0.000000 0.000000" charge=0
O	-0.433758	-1.314820	-0.003447	8
C	-1.215708	-0.204660	-0.001357	6
C	-0.438868	0.929760	0.001903	6
C	0.906122	0.487200	0.001803	6
C	0.855462	-0.888070	-0.001507	6
H	-2.281748	-0.384190	-0.002537	1
H	-0.798488	1.949500	0.004083	1
H	1.801702	1.091450	0.003883	1
H	1.605282	-1.666170	-0.002827	1
Es	0.822482	-0.123484	-0.136283	99
Es	0.922695	-0.205167	0.135485	99
Es	-0.433584	-1.314308	-0.003207	99
Es	-0.724367	-0.888414	0.003732	99
Es	-0.790999	0.384426	-0.305483	99
Es	-0.393653	-1.199236	-0.001807	99
Es	-0.677218	1.621793	0.004189	99
Es	1.509025	0.901110	0.003296	99
Es	-1.933792	-0.321988	-0.001873	99
Es	-1.215612	-0.204955	-0.001357	99
Es	0.249064	0.756846	0.004631	99
Es	0.855210	-0.888248	-0.001511	99
Es	-0.810315	0.382936	0.305324	99
Es	-0.537439	-1.629363	-0.008122	99
Es	-0.438860	0.929796	0.001913	99
Es	0.053341	-1.145056	-0.006963	99
Es	1.362681	-1.409432	-0.003928	99
Es	0.906137	0.487231	0.001806	99
27
Properties=species:S:1:pos:R:3:Z:I:1 energy=-228.70709881124412 field_type=dipole dipole="0.000000 0.000000 0.000000" charge=0
O	-0.433758	-1.314820	-0.003447	8
C	-1.215708	-0.204660	-0.001357	6
C	-0.438868	0.929760	0.001903	6
C	0.906122	0.487200	0.001803	6
C	0.855462	-0.888070	-0.001507	6
H	-2.281748	-0.384190	-0.002537	1
H	-0.798488	1.949500	0.004083	1
H	1.801702	1.091450	0.003883	1
H	1.605282	-1.666170	-0.002827	1
Es	-0.843653	0.384726	-0.241456	99
Es	-0.537507	-1.629458	0.001860	99
Es	0.053370	-1.145047	-0.004953	99
Es	0.911155	-0.195327	-0.223118	99
Es	-0.433616	-1.314388	-0.003506	99
Es	0.833506	-0.135999	0.225568	99
Es	0.855210	-0.888248	-0.001503	99
Es	0.906136	0.487231	0.001798	99
Es	-0.677039	1.621839	0.002354	99
Es	0.249385	0.756532	-0.002519	99
Es	-1.933736	-0.322015	-0.001134	99
Es	-1.215612	-0.204954	-0.001355	99
Es	-0.756302	0.385230	0.244144	99
Es	-0.438860	0.929796	0.001898	99
Es	1.362630	-1.409391	-0.001270	99
Es	-0.395116	-1.198816	-0.003641	99
Es	-0.724187	-0.888432	-0.005557	99
Es	1.509033	0.901209	0.002232	99
27
Properties=species:S:1:pos:R:3:Z:I:1 energy=-228.70709881124412 field_type=dipole dipole="0.000000 0.000000 0.000000" charge=0
O	-0.433758	-1.314820	-0.003447	8
C	-1.215708	-0.204660	-0.001357	6
C	-0.438868	0.929760	0.001903	6
C	0.906122	0.487200	0.001803	6
C	0.855462	-0.888070	-0.001507	6
H	-2.281748	-0.384190	-0.002537	1
H	-0.798488	1.949500	0.004083	1
H	1.801702	1.091450	0.003883	1
H	1.605282	-1.666170	-0.002827	1
Es	-0.724054	-0.888760	0.002009	99
Es	-0.866344	0.384026	-0.104323	99
Es	0.867551	-0.165472	0.308427	99
Es	0.053612	-1.144976	-0.008985	99
Es	0.249995	0.756498	-0.000261	99
Es	-0.731519	0.389638	0.106244	99
Es	0.906137	0.487231	0.001803	99
Es	-0.537711	-1.629400	-0.000700	99
Es	-0.438860	0.929796	0.001901	99
Es	1.362569	-1.409357	-0.002801	99
Es	-0.676799	1.621839	0.003404	99
Es	-0.397269	-1.198166	-0.004834	99
Es	0.855210	-0.888248	-0.001501	99
Es	0.876139	-0.170073	-0.307241	99
Es	-1.215612	-0.204954	-0.001358	99
Es	-0.433606	-1.314370	-0.003564	99
Es	1.509064	0.901239	0.002544	99
Es	-1.933707	-0.322004	-0.000921	99
27
Properties=species:S:1:pos:R:3:Z:I:1 energy=-228.70709881124412 field_type=dipole dipole="0.000000 0.000000 0.000000" charge=0
O	-0.433758	-1.314820	-0.003447	8
C	-1.215708	-0.204660	-0.001357	6
C	-0.438868	0.929760	0.001903	6
C	0.906122	0.487200	0.001803	6
C	0.855462	-0.888070	-0.001507	6
H	-2.281748	-0.384190	-0.002537	1
H	-0.798488	1.949500	0.004083	1
H	1.801702	1.091450	0.003883	1
H	1.605282	-1.666170	-0.002827	1
Es	0.829384	-0.132057	0.202190	99
Es	-1.933669	-0.322073	-0.001258	99
Es	1.362540	-1.409417	-0.001152	99
Es	-0.724011	-0.888432	-0.004891	99
Es	0.855209	-0.888248	-0.001505	99
Es	0.906137	0.487232	0.001799	99
Es	1.508903	0.901416	0.002267	99
Es	-0.759667	0.384676	0.254898	99
Es	0.915172	-0.198478	-0.199737	99
Es	0.249299	0.756324	-0.002582	99
Es	-0.676789	1.621953	0.002360	99
Es	0.053264	-1.144939	-0.004630	99
Es	-0.840411	0.384741	-0.252227	99
Es	-0.537609	-1.629544	0.002118	99
Es	-0.433616	-1.314402	-0.003472	99
Es	-0.438860	0.929796	0.001903	99
Es	-1.215612	-0.204955	-0.001355	99
Es	-0.394866	-1.199104	-0.004884	99
27
Properties=species:S:1:pos:R:3:Z:I:1 energy=-228.70709881124412 field_type=dipole dipole="0.000000 0.000000 0.000000" charge=0
O	-0.433758	-1.314820	-0.003447	8
C	-1.215708	-0.204660	-0.001357	6
C	-0.438868	0.929760	0.001903	6
C	0.906122	0.487200	0.001803	6
C	0.855462	-0.888070	-0.001507	6
H	-2.281748	-0.384190	-0.002537	1
H	-0.798488	1.949500	0.004083	1
H	1.801702	1.091450	0.003883	1
H	1.605282	-1.666170	-0.002827	1
Es	-0.537789	-1.629600	0.001023	99
Es	-0.438859	0.929797	0.001895	99
Es	0.855209	-0.888248	-0.001505	99
Es	0.894458	-0.183129	-0.282869	99
Es	-0.396652	-1.198556	-0.004148	99
Es	0.053305	-1.144990	-0.005512	99
Es	0.249721	0.756264	-0.001950	99
Es	-0.861995	0.384194	-0.146627	99
Es	-0.433616	-1.314394	-0.003494	99
Es	1.508974	0.901442	0.002352	99
Es	-0.723706	-0.888402	-0.003734	99
Es	-0.676637	1.621953	0.002658	99
Es	-1.933672	-0.322122	-0.001026	99
Es	-0.736297	0.388410	0.149112	99
Es	0.849314	-0.151017	0.285072	99
Es	1.362516	-1.409393	-0.001847	99
Es	0.906136	0.487231	0.001800	99
Es	-1.215612	-0.204955	-0.001355	99
27
Properties=species:S:1:pos:R:3:Z:I:1 energy=-228.70709881124412 field_type=dipole dipole="0.000000 0.000000 0.000000" charge=0
O	-0.433758	-1.314820	-0.003447	8
C	-1.215708	-0.204660	-0.001357	6
C	-0.438868	0.929760	0.001903	6
C	0.906122	0.487200	0.001803	6
C	0.855462	-0.888070	-0.001507	6
H	-2.281748	-0.384190	-0.002537	1
H	-0.798488	1.949500	0.004083	1
H	1.801702	1.091450	0.003883	1
H	1.605282	-1.666170	-0.002827	1
Es	0.906136	0.487231	0.001793	99
Es	1.362518	-1.409377	-0.002267	99
Es	-0.433600	-1.314371	-0.003548	99
Es	0.855208	-0.888248	-0.001506	99
Es	0.053295	-1.145257	-0.006893	99
Es	-0.867704	0.383919	-0.086756	99
Es	0.880742	-0.173392	-0.304356	99
Es	-0.538133	-1.629605	-0.001484	99
Es	-0.397302	-1.198406	-0.003632	99
Es	-0.723336	-0.888213	-0.000466	99
Es	-0.676492	1.621960	0.003046	99
Es	1.509001	0.901472	0.002573	99
Es	-1.215614	-0.204953	-0.001355	99
Es	0.249987	0.756179	0.000026	99
Es	0.862603	-0.161961	0.305709	99
Es	-1.933638	-0.322123	-0.001272	99
Es	-0.730015	0.389837	0.088323	99
Es	-0.438860	0.929796	0.001907	99
27
Properties=species:S:1:pos:R:3:Z:I:1 energy=-228.70709881124412 field_type=dipole dipole="0.000000 0.000000 0.000000" charge=0
O	-0.433758	-1.314820	-0.003447	8
C	-1.215708	-0.204660	-0.001357	6
C	-0.438868	0.929760	0.001903	6
C	0.906122	0.487200	0.001803	6
C	0.855462	-0.888070	-0.001507	6
H	-2.281748	-0.384190	-0.002537	1
H	-0.798488	1.949500	0.004083	1
H	1.801702	1.091450	0.003883	1
H	1.605282	-1.666170	-0.002827	1
Es	1.508671	0.901643	0.003150	99
Es	-0.433589	-1.314308	-0.003245	99
Es	-0.393229	-1.199868	-0.003453	99
Es	0.855210	-0.888247	-0.001503	99
Es	1.362503	-1.409395	-0.003255	99
Es	-0.723844	-0.888440	0.002564	99
Es	-1.933560	-0.322095	-0.001798	99
Es	-0.537488	-1.629894	-0.005457	99
Es	-0.676735	1.622039	0.003817	99
Es	-0.800541	0.382475	0.309208	99
Es	0.248826	0.756564	0.003110	99
Es	0.052791	-1.144703	-0.006700	99
Es	0.817535	-0.118575	-0.058246	99
Es	-0.438860	0.929796	0.001901	99
Es	-0.800634	0.383977	-0.308754	99
Es	0.927215	-0.208759	0.058058	99
Es	-1.215612	-0.204954	-0.001355	99
Es	0.906136	0.487231	0.001801	99
27
Properties=species:S:1:pos:R:3:Z:I:1 energy=-228.70709881124412 field_type=dipole dipole="0.000000 0.000000 0.000000" charge=0
O	-0.433758	-1.314820	-0.003447	8
C	-1.215708	-0.204660	-0.001357	6
C	-0.438868	0.929760	0.001903	6
C	0.906122	0.487200	0.001803	6
C	0.855462	-0.888070	-0.001507	6
H	-2.281748	-0.384190	-0.002537	1
H	-0.798488	1.949500	0.004083	1
H	1.801702	1.091450	0.003883	1
H	1.605282	-1.666170	-0.002827	1
Es	1.508666	0.901681	0.002993	99
Es	0.816921	-0.117983	-0.037856	99
Es	-0.438860	0.929796	0.001899	99
Es	-0.797565	0.382375	0.309339	99
Es	-1.933483	-0.322158	-0.001681	99
Es	-0.723825	-0.888400	0.001445	99
Es	0.906136	0.487231	0.001808	99
Es	-0.393140	-1.199892	-0.003998	99
Es	0.248876	0.756702	0.002618	99
Es	-0.803614	0.383905	-0.308674	99
Es	0.052823	-1.144716	-0.005825	99
Es	-0.433612	-1.314372	-0.003539	99
Es	0.927644	-0.209186	0.037963	99
Es	1.362467	-1.409431	-0.003157	99
Es	0.855213	-0.888247	-0.001507	99
Es	-1.215613	-0.204954	-0.001357	99
Es	-0.676691	1.622029	0.003703	99
Es	-0.537544	-1.629893	-0.004332	99
27
Properties=species:S:1:pos:R:3:Z:I:1 energy=-228.70709881124412 field_type=dipole dipole="0.000000 0.000000 0.000000" charge=0
O	-0.433758	-1.314820	-0.003447	8
C	-1.215708	-0.204660	-0.001357	6
C	-0.438868	0.929760	0.001903	6
C	0.906122	0.487200	0.001803	6
C	0.855462	-0.888070	-0.001507	6
H	-2.281748	-0.384190	-0.002537	1
H	-0.798488	1.949500	0.004083	1
H	1.801702	1.091450	0.003883	1
H	1.605282	-1.666170	-0.002827	1
Es	0.052910	-1.144765	-0.004915	99
Es	-1.933569	-0.322102	-0.001055	99
Es	-0.762033	0.384053	0.262154	99
Es	0.825013	-0.127663	0.171222	99
Es	0.249131	0.756127	-0.002230	99
Es	-0.676494	1.622146	0.002371	99
Es	-0.723625	-0.888422	-0.005724	99
Es	0.906137	0.487231	0.001794	99
Es	-0.394601	-1.199700	-0.003491	99
Es	1.508741	0.901737	0.002282	99
Es	-0.837876	0.384604	-0.259677	99
Es	1.362416	-1.409396	-0.001393	99
Es	0.855209	-0.888248	-0.001505	99
Es	-1.215612	-0.204954	-0.001358	99
Es	-0.433570	-1.314232	-0.003717	99
Es	-0.537698	-1.629832	0.002083	99
Es	0.919179	-0.201893	-0.168898	99
Es	-0.438860	0.929796	0.001899	99
27
Properties=species:S:1:pos:R:3:Z:I:1 energy=-228.70709881124412 field_type=dipole dipole="0.000000 0.000000 0.000000" charge=0
O	-0.433758	-1.314820	-0.003447	8
C	-1.215708	-0.204660	-0.001357	6
C	-0.438868	0.929760	0.001903	6
C	0.906122	0.487200	0.001803	6
C	0.855462	-0.888070	-0.001507	6
H	-2.281748	-0.384190	-0.002537	1
H	-0.798488	1.949500	0.004083	1
H	1.801702	1.091450	0.003883	1
H	1.605282	-1.666170	-0.002827	1
Es	-0.777470	0.384095	-0.293180	99
Es	-0.676544	1.622167	0.004017	99
Es	1.362413	-1.409402	-0.003067	99
Es	1.508606	0.901811	0.003788	99
Es	-0.433605	-1.314362	-0.003588	99
Es	0.925143	-0.207336	0.099892	99
Es	0.855210	-0.888248	-0.001508	99
Es	-0.823098	0.382980	0.292470	99
Es	-0.723597	-0.888411	-0.001299	99
Es	0.906137	0.487231	0.001813	99
Es	-0.438860	0.929796	0.001905	99
Es	-1.933547	-0.322063	-0.002775	99
Es	-1.215611	-0.204954	-0.001348	99
Es	0.819328	-0.120527	-0.100803	99
Es	-0.393712	-1.199886	-0.001725	99
Es	0.248921	0.756223	0.005122	99
Es	0.052711	-1.144646	-0.001328	99
Es	-0.537627	-1.629979	-0.008544	99
27
Properties=species:S:1:pos:R:3:Z:I:1 energy=-228.70709881124412 field_type=dipole dipole="0.000000 0.000000 0.000000" charge=0
O	-0.433758	-1.314820	-0.003447	8
C	-1.215708	-0.204660	-0.001357	6
C	-0.438868	0.929760	0.001903	6
C	0.906122	0.487200	0.001803	6
C	0.855462	-0.888070	-0.001507	6
H	-2.281748	-0.384190	-0.002537	1
H	-0.798488	1.949500	0.004083	1
H	1.801702	1.091450	0.003883	1
H	1.605282	-1.666170	-0.002827	1
Es	-0.537984	-1.629898	-0.007509	99
Es	-1.933563	-0.322160	-0.002596	99
Es	-0.723268	-0.888691	-0.000554	99
Es	0.855214	-0.888247	-0.001509	99
Es	-0.438860	0.929796	0.001903	99
Es	0.053059	-1.144544	-0.001421	99
Es	-0.869073	0.383372	0.064139	99
Es	0.249740	0.755938	0.003785	99
Es	1.362462	-1.409345	-0.002867	99
Es	0.859015	-0.157723	-0.301394	99
Es	-0.728047	0.390553	-0.064139	99
Es	-0.676170	1.622115	0.003819	99
Es	0.906136	0.487232	0.001812	99
Es	-0.433621	-1.314413	-0.003427	99
Es	0.883997	-0.177670	0.301041	99
Es	-0.397509	-1.198606	-0.003474	99
Es	-1.215613	-0.204954	-0.001359	99
Es	1.508882	0.901732	0.003595	99
27
Properties=species:S:1:pos:R:3:Z:I:1 energy=-228.70709881124412 field_type=dipole dipole="0.000000 0.000000 0.000000" charge=0
O	-0.433758	-1.314820	-0.003447	8
C	-1.215708	-0.204660	-0.001357	6
C	-0.438868	0.929760	0.001903	6
C	0.906122	0.487200	0.001803	6
C	0.855462	-0.888070	-0.001507	6
H	-2.281748	-0.384190	-0.002537	1
H	-0.798488	1.949500	0.004083	1
H	1.801702	1.091450	0.003883	1
H	1.605282	-1.666170	-0.002827	1
Es	-0.438860	0.929796	0.001902	99
Es	-0.397627	-1.198628	-0.003238	99
Es	-1.215613	-0.204954	-0.001359	99
Es	-0.870467	0.383449	0.015928	99
Es	-1.933535	-0.322173	-0.002527	99
Es	0.873658	-0.168504	-0.307976	99
Es	0.052873	-1.144598	-0.000436	99
Es	0.906136	0.487231	0.001806	99
Es	0.869120	-0.167026	0.308332	99
Es	-0.433622	-1.314405	-0.003446	99
Es	-0.676096	1.622151	0.003178	99
Es	1.362583	-1.409329	-0.002057	99
Es	-0.723213	-0.888528	-0.004307	99
Es	1.509054	0.901688	0.003346	99
Es	-0.537891	-1.630014	-0.004730	99
Es	0.855210	-0.888248	-0.001507	99
Es	0.249531	0.755829	0.002174	99
Es	-0.726445	0.390750	-0.015238	99
27
Properties=species:S:1:pos:R:3:Z:I:1 energy=-228.70709881124412 field_type=dipole dipole="0.000000 0.000000 0.000000" charge=0
O	-0.433758	-1.314820	-0.003447	8
C	-1.215708	-0.204660	-0.001357	6
C	-0.438868	0.929760	0.001903	6
C	0.906122	0.487200	0.001803	6
C	0.855462	-0.888070	-0.001507	6
H	-2.281748	-0.384190	-0.002537	1
H	-0.798488	1.949500	0.004083	1
H	1.801702	1.091450	0.003883	1
H	1.605282	-1.666170	-0.002827	1
Es	0.855209	-0.888248	-0.001512	99
Es	-1.215613	-0.204954	-0.001359	99
Es	-0.438860	0.929796	0.001907	99
Es	0.924065	-0.206589	0.115374	99
Es	-0.829736	0.383083	0.281029	99
Es	1.362333	-1.409403	-0.003069	99
Es	1.508546	0.901930	0.003974	99
Es	-0.537631	-1.630056	-0.009648	99
Es	0.052584	-1.144572	-0.000118	99
Es	-0.393948	-1.200029	-0.001979	99
Es	0.820158	-0.121535	-0.116560	99
Es	-1.933488	-0.322128	-0.003031	99
Es	-0.433587	-1.314315	-0.003220	99
Es	-0.723442	-0.888406	-0.001548	99
Es	0.906136	0.487231	0.001807	99
Es	0.248920	0.756195	0.005761	99
Es	-0.770443	0.384275	-0.282049	99
Es	-0.676408	1.622212	0.004084	99
27
Properties=species:S:1:pos:R:3:Z:I:1 energy=-228.70709881124412 field_type=dipole dipole="0.000000 0.000000 0.000000" charge=0
O	-0.433758	-1.314820	-0.003447	8
C	-1.215708	-0.204660	-0.001357	6
C	-0.438868	0.929760	0.001903	6
C	0.906122	0.487200	0.001803	6
C	0.855462	-0.888070	-0.001507	6
H	-2.281748	-0.384190	-0.002537	1
H	-0.798488	1.949500	0.004083	1
H	1.801702	1.091450	0.003883	1
H	1.605282	-1.666170	-0.002827	1
Es	0.927551	-0.209119	0.045001	99
Es	-0.676408	1.622289	0.003634	99
Es	-0.537625	-1.630172	-0.006933	99
Es	1.362324	-1.409406	-0.002472	99
Es	1.508490	0.901969	0.003716	99
Es	-0.393409	-1.200206	-0.002913	99
Es	-1.215612	-0.204954	-0.001362	99
Es	-0.723375	-0.888372	-0.003101	99
Es	-0.783865	0.383745	-0.300807	99
Es	-0.433583	-1.314314	-0.003655	99
Es	0.816847	-0.117945	-0.045211	99
Es	-0.438860	0.929796	0.001905	99
Es	0.052463	-1.144508	0.000259	99
Es	0.855210	-0.888248	-0.001508	99
Es	-0.816741	0.382727	0.300701	99
Es	-1.933531	-0.322099	-0.002862	99
Es	0.906136	0.487231	0.001805	99
Es	0.248786	0.756074	0.003647	99
27
Properties=species:S:1:pos:R:3:Z:I:1 energy=-228.70709881124412 field_type=dipole dipole="0.000000 0.000000 0.000000" charge=0
O	-0.433758	-1.314820	-0.003447	8
C	-1.215708	-0.204660	-0.001357	6
C	-0.438868	0.929760	0.001903	6
C	0.906122	0.487200	0.001803	6
C	0.855462	-0.888070	-0.001507	6
H	-2.281748	-0.384190	-0.002537	1
H	-0.798488	1.949500	0.004083	1
H	1.801702	1.091450	0.003883	1
H	1.605282	-1.666170	-0.002827	1
Es	0.927659	-0.209061	-0.038069	99
Es	-0.816354	0.384150	-0.299870	99
Es	-1.933538	-0.322074	-0.001292	99
Es	1.362316	-1.409406	-0.002331	99
Es	-0.438860	0.929796	0.001904	99
Es	-0.433611	-1.314372	-0.003532	99
Es	0.906137	0.487231	0.001802	99
Es	-0.393449	-1.200157	-0.004227	99
Es	-1.215613	-0.204954	-0.001358	99
Es	-0.723308	-0.888421	-0.000766	99
Es	-0.537688	-1.630188	-0.001969	99
Es	0.855211	-0.888248	-0.001507	99
Es	0.052482	-1.144474	-0.005478	99
Es	-0.676483	1.622297	0.003091	99
Es	1.508489	0.902015	0.002608	99
Es	0.816607	-0.118058	0.039028	99
Es	-0.784082	0.382326	0.301142	99
Es	0.248880	0.756084	0.000666	99
27
Properties=species:S:1:pos:R:3:Z:I:1 energy=-228.70709881124412 field_type=dipole dipole="0.000000 0.000000 0.000000" charge=0
O	-0.433758	-1.314820	-0.003447	8
C	-1.215708	-0.204660	-0.001357	6
C	-0.438868	0.929760	0.001903	6
C	0.906122	0.487200	0.001803	6
C	0.855462	-0.888070	-0.001507	6
H	-2.281748	-0.384190	-0.002537	1
H	-0.798488	1.949500	0.004083	1
H	1.801702	1.091450	0.003883	1
H	1.605282	-1.666170	-0.002827	1
Es	0.249071	0.755950	-0.002742	99
Es	-0.438859	0.929796	0.001902	99
Es	-0.723448	-0.888696	-0.005239	99
Es	-0.537336	-1.630291	0.002801	99
Es	-0.433645	-1.314401	-0.003443	99
Es	-0.754879	0.384598	0.242282	99
Es	-0.394909	-1.199713	-0.003549	99
Es	1.508549	0.902060	0.002192	99
Es	-0.844314	0.384450	-0.239452	99
Es	0.855210	-0.888248	-0.001508	99
Es	0.906136	0.487231	0.001800	99
Es	0.052377	-1.144113	-0.006329	99
Es	0.918047	-0.201023	-0.178429	99
Es	1.362300	-1.409375	-0.001313	99
Es	0.825774	-0.128872	0.180897	99
Es	-1.933448	-0.322166	-0.001038	99
Es	-1.215612	-0.204954	-0.001355	99
Es	-0.676215	1.622256	0.002366	99
