38
Properties=species:S:1:pos:R:3:Z:I:1 energy=-196.40193774007383 field_type=dipole dipole="0.000000 0.000000 0.000000" charge=0
C	-1.729139	-1.113072	-0.273524	6
C	-0.211139	-1.018732	-0.213534	6
C	0.318261	0.424278	-0.270774	6
C	-0.130629	1.257778	0.930316	6
C	1.846721	0.413988	-0.350404	6
H	-2.037509	-2.162112	-0.334314	1
H	-2.121289	-0.593812	-1.153903	1
H	-2.194659	-0.684672	0.619046	1
H	0.198701	-1.584893	-1.059134	1
H	0.142681	-1.514722	0.698466	1
H	-0.062059	0.903297	-1.181834	1
H	0.171491	0.790097	1.873576	1
H	-1.217479	1.383398	0.944166	1
H	0.310581	2.260007	0.894146	1
H	2.288391	-0.050542	0.538046	1
H	2.239801	1.433278	-0.430784	1
H	2.187281	-0.143562	-1.229563	1
Es	0.053930	0.752417	-0.898600	99
Es	0.318284	0.424269	-0.270733	99
Es	0.088399	0.840558	0.340540	99
Es	0.046207	-0.297137	-0.234790	99
Es	-0.130627	1.257772	0.930308	99
Es	0.173879	1.941345	0.902473	99
Es	-0.978015	-1.057604	-0.240416	99
Es	-0.211175	-1.018717	-0.213535	99
Es	-2.045047	-0.817563	0.336179	99
Es	2.077601	0.030400	-0.952320	99
Es	-0.873563	1.340495	0.939284	99
Es	2.113666	1.113062	-0.403977	99
Es	1.846716	0.413988	-0.350405	99
Es	1.092751	0.417441	-0.307315	99
Es	-1.729121	-1.113072	-0.273524	99
Es	-1.938471	-1.830361	-0.315479	99
Es	2.144072	0.095306	0.259927	99
Es	-1.994216	-0.755052	-0.876254	99
Es	0.078398	0.933056	1.573204	99
Es	0.033087	-1.354263	0.416559	99
Es	0.071624	-1.404734	-0.797244	99
38
Properties=species:S:1:pos:R:3:Z:I:1 energy=-196.40193774007383 field_type=dipole dipole="0.000000 0.000000 0.000000" charge=0
C	-1.729139	-1.113072	-0.273524	6
C	-0.211139	-1.018732	-0.213534	6
C	0.318261	0.424278	-0.270774	6
C	-0.130629	1.257778	0.930316	6
C	1.846721	0.413988	-0.350404	6
H	-2.037509	-2.162112	-0.334314	1
H	-2.121289	-0.593812	-1.153903	1
H	-2.194659	-0.684672	0.619046	1
H	0.198701	-1.584893	-1.059134	1
H	0.142681	-1.514722	0.698466	1
H	-0.062059	0.903297	-1.181834	1
H	0.171491	0.790097	1.873576	1
H	-1.217479	1.383398	0.944166	1
H	0.310581	2.260007	0.894146	1
H	2.288391	-0.050542	0.538046	1
H	2.239801	1.433278	-0.430784	1
H	2.187281	-0.143562	-1.229563	1
Es	-1.729123	-1.113073	-0.273525	99
Es	0.173592	1.941452	0.902266	99
Es	2.113356	1.112999	-0.404098	99
Es	0.078324	0.932851	1.573783	99
Es	-2.044748	-0.817603	0.336253	99
Es	-1.938222	-1.830438	-0.315165	99
Es	0.033065	-1.354544	0.417006	99
Es	-0.872965	1.340540	0.939069	99
Es	2.144155	0.095024	0.260476	99
Es	2.077391	0.030615	-0.952500	99
Es	0.088448	0.840508	0.340480	99
Es	0.318284	0.424269	-0.270734	99
Es	1.846715	0.413988	-0.350402	99
Es	-0.978003	-1.057620	-0.240507	99
Es	-1.994309	-0.754844	-0.876739	99
Es	-0.130630	1.257775	0.930311	99
Es	0.053861	0.752659	-0.899036	99
Es	0.071391	-1.404632	-0.797348	99
Es	0.046205	-0.297094	-0.234750	99
Es	-0.211176	-1.018715	-0.213536	99
Es	1.092769	0.417486	-0.307420	99
38
Properties=species:S:1:pos:R:3:Z:I:1 energy=-196.40193774007383 field_type=dipole dipole="0.000000 0.000000 0.000000" charge=0
C	-1.729139	-1.113072	-0.273524	6
C	-0.211139	-1.018732	-0.213534	6
C	0.318261	0.424278	-0.270774	6
C	-0.130629	1.257778	0.930316	6
C	1.846721	0.413988	-0.350404	6
H	-2.037509	-2.162112	-0.334314	1
H	-2.121289	-0.593812	-1.153903	1
H	-2.194659	-0.684672	0.619046	1
H	0.198701	-1.584893	-1.059134	1
H	0.142681	-1.514722	0.698466	1
H	-0.062059	0.903297	-1.181834	1
H	0.171491	0.790097	1.873576	1
H	-1.217479	1.383398	0.944166	1
H	0.310581	2.260007	0.894146	1
H	2.288391	-0.050542	0.538046	1
H	2.239801	1.433278	-0.430784	1
H	2.187281	-0.143562	-1.229563	1
Es	2.077244	0.030605	-0.952557	99
Es	0.053817	0.752807	-0.899423	99
Es	-1.938006	-1.830523	-0.315020	99
Es	0.318284	0.424270	-0.270734	99
Es	-0.211176	-1.018715	-0.213536	99
Es	0.088422	0.840623	0.340331	99
Es	0.078366	0.932589	1.574136	99
Es	2.144215	0.094985	0.260694	99
Es	0.046227	-0.297088	-0.234751	99
Es	0.071174	-1.404476	-0.797472	99
Es	-0.978043	-1.057578	-0.240570	99
Es	-0.872653	1.340722	0.938973	99
Es	0.173405	1.941329	0.902252	99
Es	-1.729121	-1.113072	-0.273524	99
Es	-0.130627	1.257773	0.930309	99
Es	-1.994317	-0.754628	-0.877087	99
Es	1.092788	0.417284	-0.307270	99
Es	2.113102	1.113179	-0.404243	99
Es	0.033104	-1.354804	0.417422	99
Es	-2.044546	-0.817665	0.336358	99
Es	1.846718	0.413988	-0.350405	99
38
Properties=species:S:1:pos:R:3:Z:I:1 energy=-196.40193774007383 field_type=dipole dipole="0.000000 0.000000 0.000000" charge=0
C	-1.729139	-1.113072	-0.273524	6
C	-0.211139	-1.018732	-0.213534	6
C	0.318261	0.424278	-0.270774	6
C	-0.130629	1.257778	0.930316	6
C	1.846721	0.413988	-0.350404	6
H	-2.037509	-2.162112	-0.334314	1
H	-2.121289	-0.593812	-1.153903	1
H	-2.194659	-0.684672	0.619046	1
H	0.198701	-1.584893	-1.059134	1
H	0.142681	-1.514722	0.698466	1
H	-0.062059	0.903297	-1.181834	1
H	0.171491	0.790097	1.873576	1
H	-1.217479	1.383398	0.944166	1
H	0.310581	2.260007	0.894146	1
H	2.288391	-0.050542	0.538046	1
H	2.239801	1.433278	-0.430784	1
H	2.187281	-0.143562	-1.229563	1
Es	2.113129	1.113169	-0.404262	99
Es	-1.729123	-1.113073	-0.273524	99
Es	-2.044339	-0.817572	0.336333	99
Es	0.071052	-1.404477	-0.797542	99
Es	-0.978058	-1.057754	-0.240488	99
Es	0.033114	-1.354880	0.417538	99
Es	1.092793	0.417402	-0.307322	99
Es	0.078447	0.932589	1.574272	99
Es	0.318284	0.424269	-0.270734	99
Es	1.846716	0.413989	-0.350405	99
Es	0.046190	-0.297050	-0.234761	99
Es	0.053852	0.752933	-0.899598	99
Es	-1.938085	-1.830598	-0.314880	99
Es	-0.211176	-1.018715	-0.213536	99
Es	0.173237	1.941421	0.902134	99
Es	2.077026	0.030682	-0.952643	99
Es	0.088477	0.840616	0.340343	99
Es	-0.130627	1.257773	0.930308	99
Es	-0.872470	1.340631	0.939012	99
Es	-1.994218	-0.754476	-0.877268	99
Es	2.144157	0.094727	0.260905	99
38
Properties=species:S:1:pos:R:3:Z:I:1 energy=-196.40193774007383 field_type=dipole dipole="0.000000 0.000000 0.000000" charge=0
C	-1.729139	-1.113072	-0.273524	6
C	-0.211139	-1.018732	-0.213534	6
C	0.318261	0.424278	-0.270774	6
C	-0.130629	1.257778	0.930316	6
C	1.846721	0.413988	-0.350404	6
H	-2.037509	-2.162112	-0.334314	1
H	-2.121289	-0.593812	-1.153903	1
H	-2.194659	-0.684672	0.619046	1
H	0.198701	-1.584893	-1.059134	1
H	0.142681	-1.514722	0.698466	1
H	-0.062059	0.903297	-1.181834	1
H	0.171491	0.790097	1.873576	1
H	-1.217479	1.383398	0.944166	1
H	0.310581	2.260007	0.894146	1
H	2.288391	-0.050542	0.538046	1
H	2.239801	1.433278	-0.430784	1
H	2.187281	-0.143562	-1.229563	1
Es	-0.130627	1.257773	0.930308	99
Es	0.071006	-1.404423	-0.797576	99
Es	-0.978102	-1.057624	-0.240493	99
Es	-2.044287	-0.817799	0.336394	99
Es	1.846716	0.413987	-0.350405	99
Es	-0.211176	-1.018715	-0.213537	99
Es	2.144186	0.094672	0.261129	99
Es	0.088462	0.840597	0.340390	99
Es	-1.729121	-1.113072	-0.273524	99
Es	0.053876	0.752961	-0.899700	99
Es	-1.994350	-0.754327	-0.877400	99
Es	0.078307	0.932540	1.574586	99
Es	2.076943	0.030717	-0.952656	99
Es	0.318283	0.424268	-0.270734	99
Es	0.173156	1.941423	0.902025	99
Es	1.092905	0.417388	-0.307351	99
Es	0.046160	-0.297073	-0.234801	99
Es	0.033131	-1.354947	0.417702	99
Es	-0.872232	1.340690	0.938779	99
Es	2.112999	1.113170	-0.404376	99
Es	-1.937856	-1.830602	-0.314876	99
38
Properties=species:S:1:pos:R:3:Z:I:1 energy=-196.40193774007383 field_type=dipole dipole="0.000000 0.000000 0.000000" charge=0
C	-1.729139	-1.113072	-0.273524	6
C	-0.211139	-1.018732	-0.213534	6
C	0.318261	0.424278	-0.270774	6
C	-0.130629	1.257778	0.930316	6
C	1.846721	0.413988	-0.350404	6
H	-2.037509	-2.162112	-0.334314	1
H	-2.121289	-0.593812	-1.153903	1
H	-2.194659	-0.684672	0.619046	1
H	0.198701	-1.584893	-1.059134	1
H	0.142681	-1.514722	0.698466	1
H	-0.062059	0.903297	-1.181834	1
H	0.171491	0.790097	1.873576	1
H	-1.217479	1.383398	0.944166	1
H	0.310581	2.260007	0.894146	1
H	2.288391	-0.050542	0.538046	1
H	2.239801	1.433278	-0.430784	1
H	2.187281	-0.143562	-1.229563	1
Es	-0.211176	-1.018714	-0.213535	99
Es	2.144178	0.094615	0.261196	99
Es	0.173081	1.941449	0.901979	99
Es	-1.937689	-1.830602	-0.314781	99
Es	1.846717	0.413988	-0.350405	99
Es	2.076919	0.030756	-0.952664	99
Es	2.112959	1.113188	-0.404383	99
Es	-2.044194	-0.817951	0.336401	99
Es	0.078338	0.932561	1.574643	99
Es	0.053862	0.753054	-0.899888	99
Es	0.070962	-1.404411	-0.797633	99
Es	-1.994431	-0.754173	-0.877619	99
Es	1.092765	0.417372	-0.307332	99
Es	-0.872146	1.340665	0.938808	99
Es	0.033046	-1.355045	0.417785	99
Es	0.046263	-0.297032	-0.234740	99
Es	-1.729121	-1.113073	-0.273524	99
Es	-0.130627	1.257772	0.930308	99
Es	0.088502	0.840512	0.340435	99
Es	0.318284	0.424269	-0.270734	99
Es	-0.978111	-1.057596	-0.240434	99
38
Properties=species:S:1:pos:R:3:Z:I:1 energy=-196.40193774007383 field_type=dipole dipole="0.000000 0.000000 0.000000" charge=0
C	-1.729139	-1.113072	-0.273524	6
C	-0.211139	-1.018732	-0.213534	6
C	0.318261	0.424278	-0.270774	6
C	-0.130629	1.257778	0.930316	6
C	1.846721	0.413988	-0.350404	6
H	-2.037509	-2.162112	-0.334314	1
H	-2.121289	-0.593812	-1.153903	1
H	-2.194659	-0.684672	0.619046	1
H	0.198701	-1.584893	-1.059134	1
H	0.142681	-1.514722	0.698466	1
H	-0.062059	0.903297	-1.181834	1
H	0.171491	0.790097	1.873576	1
H	-1.217479	1.383398	0.944166	1
H	0.310581	2.260007	0.894146	1
H	2.288391	-0.050542	0.538046	1
H	2.239801	1.433278	-0.430784	1
H	2.187281	-0.143562	-1.229563	1
Es	-2.044108	-0.817811	0.336462	99
Es	2.076775	0.030780	-0.952755	99
Es	0.070872	-1.404345	-0.797696	99
Es	-0.130628	1.257772	0.930308	99
Es	-1.937715	-1.830664	-0.314736	99
Es	2.112839	1.113217	-0.404449	99
Es	-1.994348	-0.754180	-0.877661	99
Es	0.046217	-0.297009	-0.234723	99
Es	1.092880	0.417397	-0.307282	99
Es	0.173027	1.941381	0.901993	99
Es	1.846716	0.413988	-0.350405	99
Es	0.053859	0.753110	-0.899946	99
Es	0.033095	-1.355144	0.417831	99
Es	0.318284	0.424269	-0.270734	99
Es	-1.729121	-1.113072	-0.273524	99
Es	0.088519	0.840612	0.340390	99
Es	-0.211176	-1.018715	-0.213536	99
Es	0.078359	0.932442	1.574755	99
Es	-0.978120	-1.057702	-0.240477	99
Es	2.144237	0.094546	0.261328	99
Es	-0.872083	1.340730	0.938739	99
38
Properties=species:S:1:pos:R:3:Z:I:1 energy=-196.40193774007383 field_type=dipole dipole="0.000000 0.000000 0.000000" charge=0
C	-1.729139	-1.113072	-0.273524	6
C	-0.211139	-1.018732	-0.213534	6
C	0.318261	0.424278	-0.270774	6
C	-0.130629	1.257778	0.930316	6
C	1.846721	0.413988	-0.350404	6
H	-2.037509	-2.162112	-0.334314	1
H	-2.121289	-0.593812	-1.153903	1
H	-2.194659	-0.684672	0.619046	1
H	0.198701	-1.584893	-1.059134	1
H	0.142681	-1.514722	0.698466	1
H	-0.062059	0.903297	-1.181834	1
H	0.171491	0.790097	1.873576	1
H	-1.217479	1.383398	0.944166	1
H	0.310581	2.260007	0.894146	1
H	2.288391	-0.050542	0.538046	1
H	2.239801	1.433278	-0.430784	1
H	2.187281	-0.143562	-1.229563	1
Es	-1.994379	-0.754158	-0.877724	99
Es	-1.937565	-1.830710	-0.314730	99
Es	2.076716	0.030824	-0.952754	99
Es	0.046293	-0.297114	-0.234751	99
Es	1.092862	0.417435	-0.307271	99
Es	-0.871940	1.340664	0.938694	99
Es	0.078359	0.932558	1.574931	99
Es	0.172901	1.941436	0.901819	99
Es	0.070822	-1.404349	-0.797678	99
Es	0.088497	0.840544	0.340417	99
Es	2.144264	0.094484	0.261340	99
Es	-1.729121	-1.113073	-0.273524	99
Es	-2.044124	-0.817880	0.336479	99
Es	0.318284	0.424269	-0.270734	99
Es	0.033067	-1.355172	0.418009	99
Es	0.053843	0.753061	-0.900017	99
Es	2.112825	1.113247	-0.404463	99
Es	-0.978139	-1.057511	-0.240527	99
Es	-0.130628	1.257773	0.930307	99
Es	1.846716	0.413988	-0.350405	99
Es	-0.211177	-1.018715	-0.213536	99
38
Properties=species:S:1:pos:R:3:Z:I:1 energy=-196.40193774007383 field_type=dipole dipole="0.000000 0.000000 0.000000" charge=0
C	-1.729139	-1.113072	-0.273524	6
C	-0.211139	-1.018732	-0.213534	6
C	0.318261	0.424278	-0.270774	6
C	-0.130629	1.257778	0.930316	6
C	1.846721	0.413988	-0.350404	6
H	-2.037509	-2.162112	-0.334314	1
H	-2.121289	-0.593812	-1.153903	1
H	-2.194659	-0.684672	0.619046	1
H	0.198701	-1.584893	-1.059134	1
H	0.142681	-1.514722	0.698466	1
H	-0.062059	0.903297	-1.181834	1
H	0.171491	0.790097	1.873576	1
H	-1.217479	1.383398	0.944166	1
H	0.310581	2.260007	0.894146	1
H	2.288391	-0.050542	0.538046	1
H	2.239801	1.433278	-0.430784	1
H	2.187281	-0.143562	-1.229563	1
Es	2.144256	0.094451	0.261481	99
Es	2.076673	0.030833	-0.952796	99
Es	0.078359	0.932456	1.574903	99
Es	-2.043894	-0.817943	0.336547	99
Es	0.172925	1.941412	0.901892	99
Es	-0.871973	1.340687	0.938661	99
Es	0.070791	-1.404343	-0.797735	99
Es	1.846716	0.413988	-0.350404	99
Es	0.046216	-0.297065	-0.234831	99
Es	0.318284	0.424269	-0.270734	99
Es	1.092872	0.417436	-0.307307	99
Es	0.033086	-1.355183	0.418058	99
Es	-0.130629	1.257773	0.930308	99
Es	2.112768	1.113209	-0.404501	99
Es	-1.994470	-0.753980	-0.877703	99
Es	0.053856	0.753185	-0.900058	99
Es	0.088575	0.840576	0.340487	99
Es	-0.211177	-1.018715	-0.213536	99
Es	-1.937640	-1.830713	-0.314721	99
Es	-0.978096	-1.057657	-0.240605	99
Es	-1.729121	-1.113072	-0.273524	99
38
Properties=species:S:1:pos:R:3:Z:I:1 energy=-196.40193774007383 field_type=dipole dipole="0.000000 0.000000 0.000000" charge=0
C	-1.729139	-1.113072	-0.273524	6
C	-0.211139	-1.018732	-0.213534	6
C	0.318261	0.424278	-0.270774	6
C	-0.130629	1.257778	0.930316	6
C	1.846721	0.413988	-0.350404	6
H	-2.037509	-2.162112	-0.334314	1
H	-2.121289	-0.593812	-1.153903	1
H	-2.194659	-0.684672	0.619046	1
H	0.198701	-1.584893	-1.059134	1
H	0.142681	-1.514722	0.698466	1
H	-0.062059	0.903297	-1.181834	1
H	0.171491	0.790097	1.873576	1
H	-1.217479	1.383398	0.944166	1
H	0.310581	2.260007	0.894146	1
H	2.288391	-0.050542	0.538046	1
H	2.239801	1.433278	-0.430784	1
H	2.187281	-0.143562	-1.229563	1
Es	1.092865	0.417415	-0.307302	99
Es	2.112720	1.113230	-0.404505	99
Es	0.088594	0.840655	0.340431	99
Es	2.144273	0.094421	0.261508	99
Es	2.076655	0.030861	-0.952812	99
Es	0.318284	0.424269	-0.270734	99
Es	-1.729121	-1.113072	-0.273525	99
Es	-2.043963	-0.817939	0.336487	99
Es	-0.211177	-1.018713	-0.213536	99
Es	0.070646	-1.404343	-0.797758	99
Es	-1.994370	-0.753967	-0.877819	99
Es	0.172836	1.941359	0.901894	99
Es	-1.937543	-1.830789	-0.314695	99
Es	1.846716	0.413988	-0.350405	99
Es	0.078379	0.932413	1.575016	99
Es	-0.978196	-1.057506	-0.240395	99
Es	0.053846	0.753171	-0.900124	99
Es	-0.871908	1.340719	0.938614	99
Es	0.033142	-1.355248	0.418078	99
Es	-0.130627	1.257773	0.930307	99
Es	0.046328	-0.297091	-0.234844	99
38
Properties=species:S:1:pos:R:3:Z:I:1 energy=-196.40193774007383 field_type=dipole dipole="0.000000 0.000000 0.000000" charge=0
C	-1.729139	-1.113072	-0.273524	6
C	-0.211139	-1.018732	-0.213534	6
C	0.318261	0.424278	-0.270774	6
C	-0.130629	1.257778	0.930316	6
C	1.846721	0.413988	-0.350404	6
H	-2.037509	-2.162112	-0.334314	1
H	-2.121289	-0.593812	-1.153903	1
H	-2.194659	-0.684672	0.619046	1
H	0.198701	-1.584893	-1.059134	1
H	0.142681	-1.514722	0.698466	1
H	-0.062059	0.903297	-1.181834	1
H	0.171491	0.790097	1.873576	1
H	-1.217479	1.383398	0.944166	1
H	0.310581	2.260007	0.894146	1
H	2.288391	-0.050542	0.538046	1
H	2.239801	1.433278	-0.430784	1
H	2.187281	-0.143562	-1.229563	1
Es	2.144247	0.094434	0.261579	99
Es	-2.043876	-0.817925	0.336559	99
Es	0.046259	-0.297071	-0.234831	99
Es	-0.978177	-1.057645	-0.240617	99
Es	0.053864	0.753210	-0.900130	99
Es	2.112675	1.113261	-0.404538	99
Es	0.070779	-1.404323	-0.797720	99
Es	0.078372	0.932447	1.575145	99
Es	-1.937557	-1.830792	-0.314701	99
Es	-1.729121	-1.113073	-0.273524	99
Es	0.088577	0.840604	0.340496	99
Es	2.076655	0.030840	-0.952802	99
Es	-0.130626	1.257773	0.930308	99
Es	0.033068	-1.355226	0.418111	99
Es	1.846716	0.413988	-0.350405	99
Es	-0.211176	-1.018715	-0.213535	99
Es	-0.871903	1.340821	0.938530	99
Es	0.172858	1.941255	0.901789	99
Es	-1.994419	-0.753952	-0.877775	99
Es	0.318283	0.424269	-0.270734	99
Es	1.092881	0.417423	-0.307322	99
38
Properties=species:S:1:pos:R:3:Z:I:1 energy=-196.40193774007383 field_type=dipole dipole="0.000000 0.000000 0.000000" charge=0
C	-1.729139	-1.113072	-0.273524	6
C	-0.211139	-1.018732	-0.213534	6
C	0.318261	0.424278	-0.270774	6
C	-0.130629	1.257778	0.930316	6
C	1.846721	0.413988	-0.350404	6
H	-2.037509	-2.162112	-0.334314	1
H	-2.121289	-0.593812	-1.153903	1
H	-2.194659	-0.684672	0.619046	1
H	0.198701	-1.584893	-1.059134	1
H	0.142681	-1.514722	0.698466	1
H	-0.062059	0.903297	-1.181834	1
H	0.171491	0.790097	1.873576	1
H	-1.217479	1.383398	0.944166	1
H	0.310581	2.260007	0.894146	1
H	2.288391	-0.050542	0.538046	1
H	2.239801	1.433278	-0.430784	1
H	2.187281	-0.143562	-1.229563	1
Es	-0.978218	-1.057604	-0.240539	99
Es	0.070694	-1.404287	-0.797754	99
Es	0.053858	0.753202	-0.900210	99
Es	0.046286	-0.297028	-0.234824	99
Es	-2.043799	-0.817945	0.336503	99
Es	-0.130626	1.257774	0.930307	99
Es	1.092864	0.417409	-0.307321	99
Es	-0.211175	-1.018715	-0.213536	99
Es	1.846713	0.413987	-0.350404	99
Es	2.076607	0.030902	-0.952824	99
Es	0.088572	0.840620	0.340426	99
Es	2.144305	0.094384	0.261643	99
Es	0.033098	-1.355295	0.418161	99
Es	-1.994414	-0.753870	-0.877863	99
Es	-1.729120	-1.113072	-0.273524	99
Es	0.078403	0.932435	1.575102	99
Es	2.112640	1.113209	-0.404567	99
Es	-1.937539	-1.830849	-0.314626	99
Es	0.172804	1.941286	0.901843	99
Es	-0.871860	1.340793	0.938619	99
Es	0.318286	0.424268	-0.270732	99
38
Properties=species:S:1:pos:R:3:Z:I:1 energy=-196.40193774007383 field_type=dipole dipole="0.000000 0.000000 0.000000" charge=0
C	-1.729139	-1.113072	-0.273524	6
C	-0.211139	-1.018732	-0.213534	6
C	0.318261	0.424278	-0.270774	6
C	-0.130629	1.257778	0.930316	6
C	1.846721	0.413988	-0.350404	6
H	-2.037509	-2.162112	-0.334314	1
H	-2.121289	-0.593812	-1.153903	1
H	-2.194659	-0.684672	0.619046	1
H	0.198701	-1.584893	-1.059134	1
H	0.142681	-1.514722	0.698466	1
H	-0.062059	0.903297	-1.181834	1
H	0.171491	0.790097	1.873576	1
H	-1.217479	1.383398	0.944166	1
H	0.310581	2.260007	0.894146	1
H	2.288391	-0.050542	0.538046	1
H	2.239801	1.433278	-0.430784	1
H	2.187281	-0.143562	-1.229563	1
Es	0.172786	1.941250	0.901783	99
Es	0.318284	0.424269	-0.270734	99
Es	0.070696	-1.404382	-0.797680	99
Es	0.046389	-0.296856	-0.234864	99
Es	0.032958	-1.355293	0.418179	99
Es	2.076566	0.030885	-0.952888	99
Es	-0.211176	-1.018715	-0.213537	99
Es	0.088570	0.840570	0.340531	99
Es	0.078406	0.932493	1.575158	99
Es	-0.978097	-1.057621	-0.240598	99
Es	1.092994	0.417397	-0.307311	99
Es	-2.043750	-0.818031	0.336488	99
Es	-1.937515	-1.830818	-0.314595	99
Es	2.144255	0.094350	0.261721	99
Es	1.846717	0.413988	-0.350405	99
Es	-0.130629	1.257772	0.930309	99
Es	0.053851	0.753192	-0.900276	99
Es	-1.994506	-0.753819	-0.877885	99
Es	2.112581	1.113244	-0.404560	99
Es	-0.871881	1.340800	0.938570	99
Es	-1.729122	-1.113073	-0.273524	99
38
Properties=species:S:1:pos:R:3:Z:I:1 energy=-196.40193774007383 field_type=dipole dipole="0.000000 0.000000 0.000000" charge=0
C	-1.729139	-1.113072	-0.273524	6
C	-0.211139	-1.018732	-0.213534	6
C	0.318261	0.424278	-0.270774	6
C	-0.130629	1.257778	0.930316	6
C	1.846721	0.413988	-0.350404	6
H	-2.037509	-2.162112	-0.334314	1
H	-2.121289	-0.593812	-1.153903	1
H	-2.194659	-0.684672	0.619046	1
H	0.198701	-1.584893	-1.059134	1
H	0.142681	-1.514722	0.698466	1
H	-0.062059	0.903297	-1.181834	1
H	0.171491	0.790097	1.873576	1
H	-1.217479	1.383398	0.944166	1
H	0.310581	2.260007	0.894146	1
H	2.288391	-0.050542	0.538046	1
H	2.239801	1.433278	-0.430784	1
H	2.187281	-0.143562	-1.229563	1
Es	1.092926	0.417458	-0.307374	99
Es	2.144343	0.094317	0.261753	99
Es	-0.211176	-1.018715	-0.213536	99
Es	0.046140	-0.297179	-0.234808	99
Es	-0.978214	-1.057584	-0.240569	99
Es	-1.994422	-0.753846	-0.877906	99
Es	-1.729121	-1.113074	-0.273524	99
Es	0.172744	1.941243	0.901801	99
Es	0.318288	0.424270	-0.270736	99
Es	2.076531	0.030955	-0.952859	99
Es	0.070667	-1.404257	-0.797802	99
Es	0.033117	-1.355320	0.418254	99
Es	0.053889	0.753249	-0.900157	99
Es	-1.937481	-1.830869	-0.314612	99
Es	0.078412	0.932450	1.575200	99
Es	2.112557	1.113208	-0.404612	99
Es	-0.130627	1.257773	0.930308	99
Es	-0.871802	1.340828	0.938590	99
Es	-2.043764	-0.817949	0.336541	99
Es	1.846715	0.413987	-0.350405	99
Es	0.088656	0.840660	0.340335	99
38
Properties=species:S:1:pos:R:3:Z:I:1 energy=-196.40193774007383 field_type=dipole dipole="0.000000 0.000000 0.000000" charge=0
C	-1.729139	-1.113072	-0.273524	6
C	-0.211139	-1.018732	-0.213534	6
C	0.318261	0.424278	-0.270774	6
C	-0.130629	1.257778	0.930316	6
C	1.846721	0.413988	-0.350404	6
H	-2.037509	-2.162112	-0.334314	1
H	-2.121289	-0.593812	-1.153903	1
H	-2.194659	-0.684672	0.619046	1
H	0.198701	-1.584893	-1.059134	1
H	0.142681	-1.514722	0.698466	1
H	-0.062059	0.903297	-1.181834	1
H	0.171491	0.790097	1.873576	1
H	-1.217479	1.383398	0.944166	1
H	0.310581	2.260007	0.894146	1
H	2.288391	-0.050542	0.538046	1
H	2.239801	1.433278	-0.430784	1
H	2.187281	-0.143562	-1.229563	1
Es	-1.994412	-0.753748	-0.877946	99
Es	-0.871831	1.340839	0.938614	99
Es	0.053864	0.753409	-0.900261	99
Es	-2.043720	-0.818006	0.336520	99
Es	-0.130629	1.257772	0.930308	99
Es	0.172726	1.941200	0.901707	99
Es	2.144302	0.094248	0.261684	99
Es	-1.729121	-1.113073	-0.273524	99
Es	-0.978313	-1.057511	-0.240539	99
Es	0.078460	0.932549	1.575229	99
Es	2.076522	0.030979	-0.952903	99
Es	2.112574	1.113274	-0.404518	99
Es	0.088613	0.840388	0.340515	99
Es	-1.937434	-1.830938	-0.314611	99
Es	0.046349	-0.297031	-0.235013	99
Es	0.033025	-1.355281	0.418263	99
Es	1.092924	0.417362	-0.307256	99
Es	0.318284	0.424269	-0.270734	99
Es	-0.211176	-1.018715	-0.213536	99
Es	0.070653	-1.404369	-0.797713	99
Es	1.846716	0.413989	-0.350404	99
38
Properties=species:S:1:pos:R:3:Z:I:1 energy=-196.40193774007383 field_type=dipole dipole="0.000000 0.000000 0.000000" charge=0
C	-1.729139	-1.113072	-0.273524	6
C	-0.211139	-1.018732	-0.213534	6
C	0.318261	0.424278	-0.270774	6
C	-0.130629	1.257778	0.930316	6
C	1.846721	0.413988	-0.350404	6
H	-2.037509	-2.162112	-0.334314	1
H	-2.121289	-0.593812	-1.153903	1
H	-2.194659	-0.684672	0.619046	1
H	0.198701	-1.584893	-1.059134	1
H	0.142681	-1.514722	0.698466	1
H	-0.062059	0.903297	-1.181834	1
H	0.171491	0.790097	1.873576	1
H	-1.217479	1.383398	0.944166	1
H	0.310581	2.260007	0.894146	1
H	2.288391	-0.050542	0.538046	1
H	2.239801	1.433278	-0.430784	1
H	2.187281	-0.143562	-1.229563	1
Es	0.070604	-1.404258	-0.797800	99
Es	0.033077	-1.355394	0.418276	99
Es	-0.871835	1.340874	0.938582	99
Es	2.144345	0.094357	0.261755	99
Es	-1.729121	-1.113073	-0.273524	99
Es	-1.994490	-0.753721	-0.877947	99
Es	-1.937451	-1.830935	-0.314554	99
Es	0.088598	0.840652	0.340406	99
Es	2.076544	0.030923	-0.952876	99
Es	1.846714	0.413988	-0.350404	99
Es	0.046299	-0.297036	-0.234809	99
Es	0.318284	0.424269	-0.270733	99
Es	0.053859	0.753257	-0.900313	99
Es	1.092851	0.417440	-0.307280	99
Es	-0.978211	-1.057575	-0.240575	99
Es	2.112537	1.113206	-0.404615	99
Es	0.078457	0.932414	1.575218	99
Es	0.172749	1.941177	0.901790	99
Es	-2.043627	-0.818021	0.336516	99
Es	-0.130628	1.257773	0.930308	99
Es	-0.211176	-1.018715	-0.213536	99
38
Properties=species:S:1:pos:R:3:Z:I:1 energy=-196.40193774007383 field_type=dipole dipole="0.000000 0.000000 0.000000" charge=0
C	-1.729139	-1.113072	-0.273524	6
C	-0.211139	-1.018732	-0.213534	6
C	0.318261	0.424278	-0.270774	6
C	-0.130629	1.257778	0.930316	6
C	1.846721	0.413988	-0.350404	6
H	-2.037509	-2.162112	-0.334314	1
H	-2.121289	-0.593812	-1.153903	1
H	-2.194659	-0.684672	0.619046	1
H	0.198701	-1.584893	-1.059134	1
H	0.142681	-1.514722	0.698466	1
H	-0.062059	0.903297	-1.181834	1
H	0.171491	0.790097	1.873576	1
H	-1.217479	1.383398	0.944166	1
H	0.310581	2.260007	0.894146	1
H	2.288391	-0.050542	0.538046	1
H	2.239801	1.433278	-0.430784	1
H	2.187281	-0.143562	-1.229563	1
Es	0.078511	0.932467	1.575233	99
Es	-1.937424	-1.831027	-0.314552	99
Es	1.092904	0.417414	-0.307243	99
Es	0.070676	-1.404278	-0.797815	99
Es	-1.994420	-0.753621	-0.878003	99
Es	0.172710	1.941141	0.901758	99
Es	0.053852	0.753266	-0.900351	99
Es	-0.978354	-1.057607	-0.240471	99
Es	-0.871856	1.340874	0.938609	99
Es	0.046277	-0.296986	-0.234775	99
Es	1.846716	0.413988	-0.350404	99
Es	-1.729122	-1.113072	-0.273523	99
Es	2.144335	0.094277	0.261736	99
Es	0.033061	-1.355336	0.418241	99
Es	2.112541	1.113251	-0.404578	99
Es	-2.043592	-0.818044	0.336474	99
Es	-0.130627	1.257773	0.930308	99
Es	0.088601	0.840622	0.340420	99
Es	0.318284	0.424268	-0.270734	99
Es	-0.211178	-1.018715	-0.213534	99
Es	2.076486	0.030951	-0.952915	99
38
Properties=species:S:1:pos:R:3:Z:I:1 energy=-196.40193774007383 field_type=dipole dipole="0.000000 0.000000 0.000000" charge=0
C	-1.729139	-1.113072	-0.273524	6
C	-0.211139	-1.018732	-0.213534	6
C	0.318261	0.424278	-0.270774	6
C	-0.130629	1.257778	0.930316	6
C	1.846721	0.413988	-0.350404	6
H	-2.037509	-2.162112	-0.334314	1
H	-2.121289	-0.593812	-1.153903	1
H	-2.194659	-0.684672	0.619046	1
H	0.198701	-1.584893	-1.059134	1
H	0.142681	-1.514722	0.698466	1
H	-0.062059	0.903297	-1.181834	1
H	0.171491	0.790097	1.873576	1
H	-1.217479	1.383398	0.944166	1
H	0.310581	2.260007	0.894146	1
H	2.288391	-0.050542	0.538046	1
H	2.239801	1.433278	-0.430784	1
H	2.187281	-0.143562	-1.229563	1
Es	0.088654	0.840556	0.340316	99
Es	2.076367	0.030981	-0.952892	99
Es	-1.937418	-1.831033	-0.314534	99
Es	1.846716	0.413988	-0.350404	99
Es	2.144344	0.094176	0.261743	99
Es	0.078575	0.932509	1.575229	99
Es	-2.043574	-0.817961	0.336531	99
Es	0.318284	0.424269	-0.270734	99
Es	0.070562	-1.404192	-0.797829	99
Es	-0.871878	1.340897	0.938676	99
Es	0.053782	0.753314	-0.900337	99
Es	0.033159	-1.355443	0.418232	99
Es	1.093025	0.417423	-0.307241	99
Es	-1.994386	-0.753666	-0.878020	99
Es	0.172655	1.941077	0.901772	99
Es	2.112576	1.113310	-0.404610	99
Es	-0.978414	-1.057614	-0.240492	99
Es	-1.729121	-1.113073	-0.273524	99
Es	-0.130631	1.257773	0.930308	99
Es	-0.211176	-1.018715	-0.213536	99
Es	0.046277	-0.296974	-0.234770	99
38
Properties=species:S:1:pos:R:3:Z:I:1 energy=-196.40193774007383 field_type=dipole dipole="0.000000 0.000000 0.000000" charge=0
C	-1.729139	-1.113072	-0.273524	6
C	-0.211139	-1.018732	-0.213534	6
C	0.318261	0.424278	-0.270774	6
C	-0.130629	1.257778	0.930316	6
C	1.846721	0.413988	-0.350404	6
H	-2.037509	-2.162112	-0.334314	1
H	-2.121289	-0.593812	-1.153903	1
H	-2.194659	-0.684672	0.619046	1
H	0.198701	-1.584893	-1.059134	1
H	0.142681	-1.514722	0.698466	1
H	-0.062059	0.903297	-1.181834	1
H	0.171491	0.790097	1.873576	1
H	-1.217479	1.383398	0.944166	1
H	0.310581	2.260007	0.894146	1
H	2.288391	-0.050542	0.538046	1
H	2.239801	1.433278	-0.430784	1
H	2.187281	-0.143562	-1.229563	1
Es	-2.043537	-0.818000	0.336454	99
Es	-0.130628	1.257772	0.930309	99
Es	-1.994490	-0.753681	-0.878095	99
Es	0.078504	0.932435	1.575261	99
Es	2.144364	0.094250	0.261815	99
Es	0.033086	-1.355408	0.418290	99
Es	-0.978248	-1.057605	-0.240461	99
Es	2.076490	0.031012	-0.952911	99
Es	0.046311	-0.296979	-0.234852	99
Es	2.112490	1.113210	-0.404597	99
Es	0.070550	-1.404284	-0.797843	99
Es	1.846716	0.413988	-0.350404	99
Es	0.318286	0.424269	-0.270735	99
Es	-1.937406	-1.830981	-0.314412	99
Es	-0.211176	-1.018715	-0.213536	99
Es	0.053876	0.753238	-0.900340	99
Es	-0.871836	1.340864	0.938576	99
Es	0.172688	1.941152	0.901759	99
Es	-1.729122	-1.113073	-0.273524	99
Es	0.088597	0.840699	0.340458	99
Es	1.092864	0.417439	-0.307328	99
