33
Properties=species:S:1:pos:R:3:Z:I:1 energy=-231.04988719497874 field_type=dipole dipole="0.000000 0.000000 0.000000" charge=0
C	-1.449721	-0.243355	-0.112335	6
C	0.051899	-0.296485	-0.131485	6
C	0.719949	-1.458135	-0.020365	6
C	0.758008	1.018865	-0.303145	6
O	0.505779	1.835325	0.829655	8
H	-1.802501	0.354685	0.733925	1
H	-1.894791	-1.240025	-0.022745	1
H	-1.825391	0.205795	-1.037465	1
H	0.198399	-2.403745	0.094815	1
H	1.804929	-1.496295	-0.043405	1
H	0.397779	1.537595	-1.197205	1
H	1.841798	0.897085	-0.401815	1
H	0.693869	1.288685	1.611565	1
Es	0.713266	2.059865	0.823020	99
Es	0.204859	1.886472	0.833333	99
Es	1.458246	-1.487333	-0.035586	99
Es	0.505875	1.835032	0.829688	99
Es	-1.449672	-0.243357	-0.112341	99
Es	-0.696659	-0.269110	-0.118885	99
Es	0.411952	-0.850816	0.259534	99
Es	0.392495	-0.927473	-0.395997	99
Es	0.604163	1.503978	0.412228	99
Es	1.504105	0.921034	-0.374372	99
Es	-1.691741	0.063155	-0.739361	99
Es	0.757931	1.018959	-0.302951	99
Es	0.613140	1.525491	1.238116	99
Es	0.720002	-1.458220	-0.020356	99
Es	0.051828	-0.296380	-0.131501	99
Es	-1.677820	0.157884	0.455952	99
Es	-1.744979	-0.923916	-0.051691	99
Es	0.403927	0.349038	-0.222112	99
Es	0.369291	-2.103082	0.059111	99
Es	0.504828	1.365989	-0.910832	99
33
Properties=species:S:1:pos:R:3:Z:I:1 energy=-231.04988719497874 field_type=dipole dipole="0.000000 0.000000 0.000000" charge=0
C	-1.449721	-0.243355	-0.112335	6
C	0.051899	-0.296485	-0.131485	6
C	0.719949	-1.458135	-0.020365	6
C	0.758008	1.018865	-0.303145	6
O	0.505779	1.835325	0.829655	8
H	-1.802501	0.354685	0.733925	1
H	-1.894791	-1.240025	-0.022745	1
H	-1.825391	0.205795	-1.037465	1
H	0.198399	-2.403745	0.094815	1
H	1.804929	-1.496295	-0.043405	1
H	0.397779	1.537595	-1.197205	1
H	1.841798	0.897085	-0.401815	1
H	0.693869	1.288685	1.611565	1
Es	0.403808	0.349098	-0.221813	99
Es	0.392352	-0.928067	-0.398611	99
Es	1.503441	0.920677	-0.373559	99
Es	-1.744419	-0.924002	-0.051513	99
Es	0.757934	1.018955	-0.302954	99
Es	0.603528	1.504836	0.411856	99
Es	0.505766	1.834927	0.829666	99
Es	-1.677351	0.157756	0.456348	99
Es	0.051824	-0.296380	-0.131496	99
Es	0.614969	1.525124	1.239005	99
Es	-1.691763	0.063555	-0.740165	99
Es	-0.696792	-0.268785	-0.118778	99
Es	-1.449674	-0.243355	-0.112340	99
Es	1.457524	-1.487541	-0.035005	99
Es	0.720003	-1.458220	-0.020348	99
Es	0.504840	1.366230	-0.912040	99
Es	0.716839	2.040031	0.822136	99
Es	0.200184	1.905898	0.833515	99
Es	0.369964	-2.102923	0.059814	99
Es	0.412063	-0.850607	0.261277	99
33
Properties=species:S:1:pos:R:3:Z:I:1 energy=-231.04988719497874 field_type=dipole dipole="0.000000 0.000000 0.000000" charge=0
C	-1.449721	-0.243355	-0.112335	6
C	0.051899	-0.296485	-0.131485	6
C	0.719949	-1.458135	-0.020365	6
C	0.758008	1.018865	-0.303145	6
O	0.505779	1.835325	0.829655	8
H	-1.802501	0.354685	0.733925	1
H	-1.894791	-1.240025	-0.022745	1
H	-1.825391	0.205795	-1.037465	1
H	0.198399	-2.403745	0.094815	1
H	1.804929	-1.496295	-0.043405	1
H	0.397779	1.537595	-1.197205	1
H	1.841798	0.897085	-0.401815	1
H	0.693869	1.288685	1.611565	1
Es	0.719080	2.018610	0.821870	99
Es	0.370264	-2.103161	0.059988	99
Es	0.403873	0.349131	-0.221620	99
Es	0.051825	-0.296380	-0.131499	99
Es	0.392247	-0.928330	-0.399788	99
Es	0.199213	1.927713	0.832160	99
Es	-1.449675	-0.243355	-0.112341	99
Es	0.504925	1.366448	-0.912662	99
Es	1.456860	-1.487526	-0.034894	99
Es	-1.691695	0.064251	-0.740388	99
Es	0.505909	1.834963	0.829656	99
Es	0.602743	1.505231	0.412316	99
Es	-0.696989	-0.268278	-0.118654	99
Es	0.757933	1.018957	-0.302951	99
Es	0.614343	1.524234	1.240025	99
Es	1.502946	0.920588	-0.373115	99
Es	-1.676743	0.157486	0.456426	99
Es	0.412172	-0.850550	0.262314	99
Es	0.720003	-1.458220	-0.020356	99
Es	-1.744194	-0.924606	-0.051489	99
33
Properties=species:S:1:pos:R:3:Z:I:1 energy=-231.04988719497874 field_type=dipole dipole="0.000000 0.000000 0.000000" charge=0
C	-1.449721	-0.243355	-0.112335	6
C	0.051899	-0.296485	-0.131485	6
C	0.719949	-1.458135	-0.020365	6
C	0.758008	1.018865	-0.303145	6
O	0.505779	1.835325	0.829655	8
H	-1.802501	0.354685	0.733925	1
H	-1.894791	-1.240025	-0.022745	1
H	-1.825391	0.205795	-1.037465	1
H	0.198399	-2.403745	0.094815	1
H	1.804929	-1.496295	-0.043405	1
H	0.397779	1.537595	-1.197205	1
H	1.841798	0.897085	-0.401815	1
H	0.693869	1.288685	1.611565	1
Es	0.718058	1.982815	0.822804	99
Es	0.757933	1.018956	-0.302951	99
Es	-1.744222	-0.925454	-0.051171	99
Es	0.610994	1.522507	1.240315	99
Es	0.403902	0.349231	-0.221475	99
Es	-1.449674	-0.243356	-0.112340	99
Es	0.600568	1.505223	0.412482	99
Es	-1.691538	0.064517	-0.740289	99
Es	0.392271	-0.928431	-0.399917	99
Es	0.505161	1.366654	-0.912930	99
Es	1.456383	-1.487118	-0.034685	99
Es	1.502529	0.920796	-0.372828	99
Es	0.051823	-0.296378	-0.131493	99
Es	0.370339	-2.103745	0.060229	99
Es	-1.676294	0.157602	0.455971	99
Es	-0.696993	-0.267990	-0.118628	99
Es	0.412096	-0.850605	0.262131	99
Es	0.205827	1.965258	0.830459	99
Es	0.505869	1.834954	0.829660	99
Es	0.720006	-1.458226	-0.020346	99
33
Properties=species:S:1:pos:R:3:Z:I:1 energy=-231.04988719497874 field_type=dipole dipole="0.000000 0.000000 0.000000" charge=0
C	-1.449721	-0.243355	-0.112335	6
C	0.051899	-0.296485	-0.131485	6
C	0.719949	-1.458135	-0.020365	6
C	0.758008	1.018865	-0.303145	6
O	0.505779	1.835325	0.829655	8
H	-1.802501	0.354685	0.733925	1
H	-1.894791	-1.240025	-0.022745	1
H	-1.825391	0.205795	-1.037465	1
H	0.198399	-2.403745	0.094815	1
H	1.804929	-1.496295	-0.043405	1
H	0.397779	1.537595	-1.197205	1
H	1.841798	0.897085	-0.401815	1
H	0.693869	1.288685	1.611565	1
Es	0.216171	1.993037	0.829361	99
Es	0.051825	-0.296379	-0.131497	99
Es	0.598101	1.504941	0.413189	99
Es	-1.691675	0.065010	-0.740040	99
Es	0.720004	-1.458223	-0.020348	99
Es	-1.675841	0.157319	0.455601	99
Es	0.370370	-2.104048	0.060283	99
Es	0.712409	1.956525	0.823078	99
Es	0.505824	1.834936	0.829640	99
Es	0.412120	-0.850697	0.261985	99
Es	1.502496	0.920953	-0.372794	99
Es	-1.449676	-0.243356	-0.112341	99
Es	1.456217	-1.486887	-0.034665	99
Es	0.757932	1.018957	-0.302952	99
Es	-1.744281	-0.926043	-0.051029	99
Es	-0.697051	-0.267737	-0.118672	99
Es	0.392264	-0.928387	-0.399761	99
Es	0.403828	0.349258	-0.221351	99
Es	0.608852	1.521259	1.240202	99
Es	0.505150	1.366767	-0.912893	99
33
Properties=species:S:1:pos:R:3:Z:I:1 energy=-231.04988719497874 field_type=dipole dipole="0.000000 0.000000 0.000000" charge=0
C	-1.449721	-0.243355	-0.112335	6
C	0.051899	-0.296485	-0.131485	6
C	0.719949	-1.458135	-0.020365	6
C	0.758008	1.018865	-0.303145	6
O	0.505779	1.835325	0.829655	8
H	-1.802501	0.354685	0.733925	1
H	-1.894791	-1.240025	-0.022745	1
H	-1.825391	0.205795	-1.037465	1
H	0.198399	-2.403745	0.094815	1
H	1.804929	-1.496295	-0.043405	1
H	0.397779	1.537595	-1.197205	1
H	1.841798	0.897085	-0.401815	1
H	0.693869	1.288685	1.611565	1
Es	-1.449674	-0.243356	-0.112341	99
Es	-1.675705	0.157031	0.454951	99
Es	1.502644	0.921081	-0.372761	99
Es	-1.744649	-0.926464	-0.050969	99
Es	1.456381	-1.486641	-0.034604	99
Es	0.229434	2.017863	0.828376	99
Es	0.608350	1.520594	1.240325	99
Es	0.505707	1.834864	0.829694	99
Es	0.596624	1.505054	0.413502	99
Es	0.757934	1.018955	-0.302953	99
Es	0.505220	1.366816	-0.912696	99
Es	0.370191	-2.104268	0.060354	99
Es	-1.691766	0.065352	-0.739528	99
Es	0.403818	0.349223	-0.221388	99
Es	0.701184	1.932313	0.823286	99
Es	-0.696854	-0.267491	-0.118596	99
Es	0.392262	-0.928273	-0.399044	99
Es	0.051825	-0.296377	-0.131495	99
Es	0.720002	-1.458226	-0.020349	99
Es	0.412110	-0.850843	0.261234	99
33
Properties=species:S:1:pos:R:3:Z:I:1 energy=-231.04988719497874 field_type=dipole dipole="0.000000 0.000000 0.000000" charge=0
C	-1.449721	-0.243355	-0.112335	6
C	0.051899	-0.296485	-0.131485	6
C	0.719949	-1.458135	-0.020365	6
C	0.758008	1.018865	-0.303145	6
O	0.505779	1.835325	0.829655	8
H	-1.802501	0.354685	0.733925	1
H	-1.894791	-1.240025	-0.022745	1
H	-1.825391	0.205795	-1.037465	1
H	0.198399	-2.403745	0.094815	1
H	1.804929	-1.496295	-0.043405	1
H	0.397779	1.537595	-1.197205	1
H	1.841798	0.897085	-0.401815	1
H	0.693869	1.288685	1.611565	1
Es	-1.449675	-0.243354	-0.112342	99
Es	-1.691923	0.065610	-0.739188	99
Es	-1.744928	-0.926629	-0.050892	99
Es	0.505960	1.834978	0.829654	99
Es	0.370048	-2.104327	0.060395	99
Es	-1.675532	0.156782	0.454522	99
Es	-0.696674	-0.267498	-0.118559	99
Es	1.456617	-1.486510	-0.034598	99
Es	1.502818	0.921173	-0.372782	99
Es	0.609308	1.520195	1.240237	99
Es	0.238581	2.032190	0.827825	99
Es	0.412075	-0.850936	0.260643	99
Es	0.403764	0.349308	-0.221253	99
Es	0.757933	1.018955	-0.302955	99
Es	0.051824	-0.296377	-0.131496	99
Es	0.595946	1.505445	0.413945	99
Es	0.392268	-0.928237	-0.398519	99
Es	0.691502	1.917861	0.823257	99
Es	0.505122	1.366800	-0.912556	99
Es	0.720005	-1.458222	-0.020343	99
33
Properties=species:S:1:pos:R:3:Z:I:1 energy=-231.04988719497874 field_type=dipole dipole="0.000000 0.000000 0.000000" charge=0
C	-1.449721	-0.243355	-0.112335	6
C	0.051899	-0.296485	-0.131485	6
C	0.719949	-1.458135	-0.020365	6
C	0.758008	1.018865	-0.303145	6
O	0.505779	1.835325	0.829655	8
H	-1.802501	0.354685	0.733925	1
H	-1.894791	-1.240025	-0.022745	1
H	-1.825391	0.205795	-1.037465	1
H	0.198399	-2.403745	0.094815	1
H	1.804929	-1.496295	-0.043405	1
H	0.397779	1.537595	-1.197205	1
H	1.841798	0.897085	-0.401815	1
H	0.693869	1.288685	1.611565	1
Es	0.505799	1.834929	0.829665	99
Es	-0.696508	-0.267275	-0.118527	99
Es	-1.449675	-0.243355	-0.112341	99
Es	-1.745278	-0.926728	-0.050846	99
Es	0.505042	1.366887	-0.912351	99
Es	0.403772	0.349265	-0.221174	99
Es	0.369868	-2.104323	0.060346	99
Es	-1.675364	0.156446	0.454075	99
Es	0.248545	2.045467	0.826676	99
Es	0.051825	-0.296377	-0.131494	99
Es	0.720004	-1.458221	-0.020344	99
Es	-1.692167	0.065897	-0.738753	99
Es	0.609497	1.519673	1.240121	99
Es	0.757934	1.018955	-0.302955	99
Es	0.680940	1.904494	0.823873	99
Es	0.392328	-0.928216	-0.398037	99
Es	1.456879	-1.486449	-0.034575	99
Es	1.503105	0.921167	-0.372773	99
Es	0.411987	-0.851002	0.260066	99
Es	0.596506	1.505975	0.414346	99
33
Properties=species:S:1:pos:R:3:Z:I:1 energy=-231.04988719497874 field_type=dipole dipole="0.000000 0.000000 0.000000" charge=0
C	-1.449721	-0.243355	-0.112335	6
C	0.051899	-0.296485	-0.131485	6
C	0.719949	-1.458135	-0.020365	6
C	0.758008	1.018865	-0.303145	6
O	0.505779	1.835325	0.829655	8
H	-1.802501	0.354685	0.733925	1
H	-1.894791	-1.240025	-0.022745	1
H	-1.825391	0.205795	-1.037465	1
H	0.198399	-2.403745	0.094815	1
H	1.804929	-1.496295	-0.043405	1
H	0.397779	1.537595	-1.197205	1
H	1.841798	0.897085	-0.401815	1
H	0.693869	1.288685	1.611565	1
Es	-1.449677	-0.243356	-0.112341	99
Es	0.051825	-0.296377	-0.131493	99
Es	0.254243	2.052466	0.826239	99
Es	0.675875	1.897836	0.824648	99
Es	0.596823	1.506863	0.414652	99
Es	-1.675401	0.156302	0.453826	99
Es	1.457014	-1.486385	-0.034548	99
Es	0.504940	1.366896	-0.912316	99
Es	0.411980	-0.851139	0.259949	99
Es	-0.696377	-0.267125	-0.118546	99
Es	0.608599	1.518426	1.239316	99
Es	1.503284	0.921078	-0.372703	99
Es	-1.745424	-0.926753	-0.050887	99
Es	0.392302	-0.928124	-0.397842	99
Es	0.757934	1.018955	-0.302955	99
Es	0.505717	1.834880	0.829662	99
Es	-1.692217	0.065990	-0.738528	99
Es	0.369859	-2.104317	0.060297	99
Es	0.403737	0.349314	-0.221084	99
Es	0.720005	-1.458223	-0.020349	99
33
Properties=species:S:1:pos:R:3:Z:I:1 energy=-231.04988719497874 field_type=dipole dipole="0.000000 0.000000 0.000000" charge=0
C	-1.449721	-0.243355	-0.112335	6
C	0.051899	-0.296485	-0.131485	6
C	0.719949	-1.458135	-0.020365	6
C	0.758008	1.018865	-0.303145	6
O	0.505779	1.835325	0.829655	8
H	-1.802501	0.354685	0.733925	1
H	-1.894791	-1.240025	-0.022745	1
H	-1.825391	0.205795	-1.037465	1
H	0.198399	-2.403745	0.094815	1
H	1.804929	-1.496295	-0.043405	1
H	0.397779	1.537595	-1.197205	1
H	1.841798	0.897085	-0.401815	1
H	0.693869	1.288685	1.611565	1
Es	-1.745623	-0.926885	-0.050881	99
Es	0.505713	1.834594	0.829635	99
Es	1.457241	-1.486420	-0.034732	99
Es	0.612145	1.518310	1.239175	99
Es	0.259990	2.059046	0.826261	99
Es	0.369683	-2.104246	0.060349	99
Es	0.504986	1.366895	-0.912128	99
Es	-1.675257	0.156064	0.453549	99
Es	0.051823	-0.296376	-0.131495	99
Es	0.403532	0.349418	-0.221055	99
Es	-1.449676	-0.243353	-0.112342	99
Es	-1.692342	0.066225	-0.738219	99
Es	1.503490	0.921024	-0.372705	99
Es	-0.696293	-0.267054	-0.118321	99
Es	0.392345	-0.928298	-0.397505	99
Es	0.667271	1.890745	0.823902	99
Es	0.596115	1.507783	0.415353	99
Es	0.720005	-1.458223	-0.020349	99
Es	0.411956	-0.850995	0.259464	99
Es	0.757934	1.018954	-0.302957	99
33
Properties=species:S:1:pos:R:3:Z:I:1 energy=-231.04988719497874 field_type=dipole dipole="0.000000 0.000000 0.000000" charge=0
C	-1.449721	-0.243355	-0.112335	6
C	0.051899	-0.296485	-0.131485	6
C	0.719949	-1.458135	-0.020365	6
C	0.758008	1.018865	-0.303145	6
O	0.505779	1.835325	0.829655	8
H	-1.802501	0.354685	0.733925	1
H	-1.894791	-1.240025	-0.022745	1
H	-1.825391	0.205795	-1.037465	1
H	0.198399	-2.403745	0.094815	1
H	1.804929	-1.496295	-0.043405	1
H	0.397779	1.537595	-1.197205	1
H	1.841798	0.897085	-0.401815	1
H	0.693869	1.288685	1.611565	1
Es	0.505562	1.834779	0.829665	99
Es	0.392230	-0.928084	-0.397249	99
Es	-1.692621	0.066528	-0.737904	99
Es	-0.696377	-0.266762	-0.118511	99
Es	-1.449675	-0.243355	-0.112341	99
Es	0.051824	-0.296377	-0.131492	99
Es	-1.675026	0.155745	0.453389	99
Es	0.757934	1.018954	-0.302956	99
Es	0.662047	1.885634	0.824385	99
Es	1.503604	0.920994	-0.372685	99
Es	0.403511	0.349340	-0.220961	99
Es	0.369647	-2.104244	0.060213	99
Es	0.412055	-0.851225	0.259336	99
Es	0.504927	1.366989	-0.912034	99
Es	-1.745641	-0.927068	-0.050894	99
Es	0.612239	1.518575	1.238950	99
Es	1.457362	-1.486380	-0.034724	99
Es	0.597533	1.507745	0.415855	99
Es	0.720006	-1.458225	-0.020349	99
Es	0.263899	2.063643	0.825305	99
33
Properties=species:S:1:pos:R:3:Z:I:1 energy=-231.04988719497874 field_type=dipole dipole="0.000000 0.000000 0.000000" charge=0
C	-1.449721	-0.243355	-0.112335	6
C	0.051899	-0.296485	-0.131485	6
C	0.719949	-1.458135	-0.020365	6
C	0.758008	1.018865	-0.303145	6
O	0.505779	1.835325	0.829655	8
H	-1.802501	0.354685	0.733925	1
H	-1.894791	-1.240025	-0.022745	1
H	-1.825391	0.205795	-1.037465	1
H	0.198399	-2.403745	0.094815	1
H	1.804929	-1.496295	-0.043405	1
H	0.397779	1.537595	-1.197205	1
H	1.841798	0.897085	-0.401815	1
H	0.693869	1.288685	1.611565	1
Es	1.457486	-1.486324	-0.034783	99
Es	0.614405	1.517047	1.238106	99
Es	0.598371	1.510212	0.415857	99
Es	0.655334	1.880989	0.824763	99
Es	0.720005	-1.458224	-0.020350	99
Es	-1.675039	0.155701	0.453099	99
Es	0.403476	0.349386	-0.220781	99
Es	1.503742	0.921114	-0.372731	99
Es	0.392376	-0.928181	-0.397045	99
Es	0.504860	1.366837	-0.911910	99
Es	0.411878	-0.851169	0.259139	99
Es	0.051827	-0.296376	-0.131495	99
Es	0.267409	2.067407	0.825620	99
Es	-0.696234	-0.266736	-0.118361	99
Es	-1.745815	-0.927156	-0.050864	99
Es	-1.692588	0.066551	-0.737712	99
Es	0.369611	-2.104259	0.060082	99
Es	0.505675	1.834791	0.829658	99
Es	-1.449676	-0.243355	-0.112341	99
Es	0.757934	1.018954	-0.302956	99
33
Properties=species:S:1:pos:R:3:Z:I:1 energy=-231.04988719497874 field_type=dipole dipole="0.000000 0.000000 0.000000" charge=0
C	-1.449721	-0.243355	-0.112335	6
C	0.051899	-0.296485	-0.131485	6
C	0.719949	-1.458135	-0.020365	6
C	0.758008	1.018865	-0.303145	6
O	0.505779	1.835325	0.829655	8
H	-1.802501	0.354685	0.733925	1
H	-1.894791	-1.240025	-0.022745	1
H	-1.825391	0.205795	-1.037465	1
H	0.198399	-2.403745	0.094815	1
H	1.804929	-1.496295	-0.043405	1
H	0.397779	1.537595	-1.197205	1
H	1.841798	0.897085	-0.401815	1
H	0.693869	1.288685	1.611565	1
Es	0.392415	-0.928285	-0.397029	99
Es	1.503868	0.920936	-0.372625	99
Es	0.369500	-2.104148	0.060073	99
Es	0.051825	-0.296376	-0.131493	99
Es	0.720005	-1.458225	-0.020353	99
Es	0.411813	-0.851126	0.258990	99
Es	-1.449675	-0.243355	-0.112340	99
Es	0.598249	1.511077	0.416673	99
Es	0.504879	1.366818	-0.911922	99
Es	-1.674937	0.155517	0.452980	99
Es	0.615038	1.516240	1.237312	99
Es	0.403387	0.349531	-0.220709	99
Es	-1.692770	0.066682	-0.737462	99
Es	1.457631	-1.486414	-0.034815	99
Es	-1.745871	-0.927210	-0.050879	99
Es	-0.696104	-0.266545	-0.118383	99
Es	0.757932	1.018955	-0.302952	99
Es	0.651446	1.877416	0.824862	99
Es	0.270704	2.070861	0.825388	99
Es	0.505705	1.834858	0.829683	99
33
Properties=species:S:1:pos:R:3:Z:I:1 energy=-231.04988719497874 field_type=dipole dipole="0.000000 0.000000 0.000000" charge=0
C	-1.449721	-0.243355	-0.112335	6
C	0.051899	-0.296485	-0.131485	6
C	0.719949	-1.458135	-0.020365	6
C	0.758008	1.018865	-0.303145	6
O	0.505779	1.835325	0.829655	8
H	-1.802501	0.354685	0.733925	1
H	-1.894791	-1.240025	-0.022745	1
H	-1.825391	0.205795	-1.037465	1
H	0.198399	-2.403745	0.094815	1
H	1.804929	-1.496295	-0.043405	1
H	0.397779	1.537595	-1.197205	1
H	1.841798	0.897085	-0.401815	1
H	0.693869	1.288685	1.611565	1
Es	1.504072	0.921034	-0.372710	99
Es	0.369424	-2.104183	0.059908	99
Es	0.506993	1.834308	0.829634	99
Es	0.403341	0.349537	-0.220586	99
Es	0.617522	1.516125	1.237047	99
Es	0.720005	-1.458225	-0.020350	99
Es	1.457766	-1.486353	-0.034933	99
Es	-1.449673	-0.243355	-0.112341	99
Es	0.641671	1.872506	0.825152	99
Es	-1.692807	0.066821	-0.737229	99
Es	0.504787	1.366784	-0.911692	99
Es	-0.696023	-0.266539	-0.118275	99
Es	0.392423	-0.928164	-0.396613	99
Es	-1.746063	-0.927246	-0.050929	99
Es	-1.674930	0.155335	0.452738	99
Es	0.599698	1.512502	0.416714	99
Es	0.051824	-0.296378	-0.131494	99
Es	0.275241	2.074964	0.825187	99
Es	0.757935	1.018953	-0.302960	99
Es	0.411832	-0.851220	0.258727	99
33
Properties=species:S:1:pos:R:3:Z:I:1 energy=-231.04988719497874 field_type=dipole dipole="0.000000 0.000000 0.000000" charge=0
C	-1.449721	-0.243355	-0.112335	6
C	0.051899	-0.296485	-0.131485	6
C	0.719949	-1.458135	-0.020365	6
C	0.758008	1.018865	-0.303145	6
O	0.505779	1.835325	0.829655	8
H	-1.802501	0.354685	0.733925	1
H	-1.894791	-1.240025	-0.022745	1
H	-1.825391	0.205795	-1.037465	1
H	0.198399	-2.403745	0.094815	1
H	1.804929	-1.496295	-0.043405	1
H	0.397779	1.537595	-1.197205	1
H	1.841798	0.897085	-0.401815	1
H	0.693869	1.288685	1.611565	1
Es	0.411858	-0.851164	0.258579	99
Es	-0.696027	-0.266521	-0.118313	99
Es	-1.674979	0.155426	0.452767	99
Es	0.051823	-0.296377	-0.131490	99
Es	-1.449674	-0.243355	-0.112341	99
Es	0.618554	1.515026	1.236299	99
Es	0.757934	1.018955	-0.302955	99
Es	0.639379	1.868743	0.825010	99
Es	0.598593	1.513542	0.417384	99
Es	-1.746146	-0.927203	-0.051000	99
Es	0.720005	-1.458224	-0.020348	99
Es	0.504818	1.366667	-0.911701	99
Es	1.457948	-1.486490	-0.035013	99
Es	0.369308	-2.104009	0.059923	99
Es	0.392430	-0.928222	-0.396491	99
Es	-1.692780	0.066730	-0.737068	99
Es	0.505815	1.834933	0.829663	99
Es	1.504154	0.920905	-0.372654	99
Es	0.403295	0.349579	-0.220542	99
Es	0.278731	2.078267	0.825288	99
33
Properties=species:S:1:pos:R:3:Z:I:1 energy=-231.04988719497874 field_type=dipole dipole="0.000000 0.000000 0.000000" charge=0
C	-1.449721	-0.243355	-0.112335	6
C	0.051899	-0.296485	-0.131485	6
C	0.719949	-1.458135	-0.020365	6
C	0.758008	1.018865	-0.303145	6
O	0.505779	1.835325	0.829655	8
H	-1.802501	0.354685	0.733925	1
H	-1.894791	-1.240025	-0.022745	1
H	-1.825391	0.205795	-1.037465	1
H	0.198399	-2.403745	0.094815	1
H	1.804929	-1.496295	-0.043405	1
H	0.397779	1.537595	-1.197205	1
H	1.841798	0.897085	-0.401815	1
H	0.693869	1.288685	1.611565	1
Es	0.505852	1.834679	0.829647	99
Es	0.757934	1.018954	-0.302959	99
Es	-1.692954	0.067082	-0.736860	99
Es	0.635415	1.866913	0.825435	99
Es	0.619897	1.514237	1.235550	99
Es	0.403294	0.349565	-0.220308	99
Es	0.369380	-2.104188	0.059702	99
Es	1.504197	0.920904	-0.372656	99
Es	0.600028	1.515260	0.417765	99
Es	0.051827	-0.296374	-0.131492	99
Es	-1.449674	-0.243355	-0.112340	99
Es	0.411802	-0.851203	0.258614	99
Es	-1.674792	0.155079	0.452682	99
Es	1.457886	-1.486338	-0.035184	99
Es	0.392425	-0.928234	-0.396399	99
Es	0.720005	-1.458225	-0.020357	99
Es	0.279888	2.079446	0.825141	99
Es	0.504788	1.366629	-0.911651	99
Es	-0.696025	-0.266268	-0.118232	99
Es	-1.746135	-0.927355	-0.051101	99
33
Properties=species:S:1:pos:R:3:Z:I:1 energy=-231.04988719497874 field_type=dipole dipole="0.000000 0.000000 0.000000" charge=0
C	-1.449721	-0.243355	-0.112335	6
C	0.051899	-0.296485	-0.131485	6
C	0.719949	-1.458135	-0.020365	6
C	0.758008	1.018865	-0.303145	6
O	0.505779	1.835325	0.829655	8
H	-1.802501	0.354685	0.733925	1
H	-1.894791	-1.240025	-0.022745	1
H	-1.825391	0.205795	-1.037465	1
H	0.198399	-2.403745	0.094815	1
H	1.804929	-1.496295	-0.043405	1
H	0.397779	1.537595	-1.197205	1
H	1.841798	0.897085	-0.401815	1
H	0.693869	1.288685	1.611565	1
Es	-1.674887	0.154774	0.451818	99
Es	1.504881	0.921045	-0.373018	99
Es	1.458722	-1.486383	-0.035093	99
Es	0.627985	1.516572	1.235859	99
Es	0.504722	1.366549	-0.910832	99
Es	-0.695471	-0.266471	-0.118400	99
Es	0.392518	-0.927900	-0.394766	99
Es	-1.693069	0.067070	-0.735778	99
Es	0.051824	-0.296376	-0.131491	99
Es	0.545083	1.839852	0.828460	99
Es	-1.449674	-0.243355	-0.112341	99
Es	-1.747331	-0.926966	-0.051217	99
Es	0.411783	-0.851450	0.256988	99
Es	0.403295	0.349394	-0.220512	99
Es	0.606490	1.518390	0.416809	99
Es	0.757934	1.018954	-0.302957	99
Es	0.720005	-1.458225	-0.020350	99
Es	0.368728	-2.103881	0.059685	99
Es	0.296903	2.092694	0.824261	99
Es	0.564598	1.842922	0.827871	99
33
Properties=species:S:1:pos:R:3:Z:I:1 energy=-231.04988719497874 field_type=dipole dipole="0.000000 0.000000 0.000000" charge=0
C	-1.449721	-0.243355	-0.112335	6
C	0.051899	-0.296485	-0.131485	6
C	0.719949	-1.458135	-0.020365	6
C	0.758008	1.018865	-0.303145	6
O	0.505779	1.835325	0.829655	8
H	-1.802501	0.354685	0.733925	1
H	-1.894791	-1.240025	-0.022745	1
H	-1.825391	0.205795	-1.037465	1
H	0.198399	-2.403745	0.094815	1
H	1.804929	-1.496295	-0.043405	1
H	0.397779	1.537595	-1.197205	1
H	1.841798	0.897085	-0.401815	1
H	0.693869	1.288685	1.611565	1
Es	0.285073	2.083925	0.825014	99
Es	-0.696076	-0.265983	-0.118186	99
Es	1.458046	-1.486390	-0.035238	99
Es	0.720005	-1.458224	-0.020350	99
Es	0.051824	-0.296377	-0.131494	99
Es	-1.692723	0.066638	-0.736613	99
Es	0.392469	-0.928244	-0.396290	99
Es	0.411788	-0.851208	0.258428	99
Es	0.757933	1.018956	-0.302947	99
Es	0.599903	1.518089	0.419218	99
Es	0.403228	0.349634	-0.220184	99
Es	0.627707	1.861410	0.825571	99
Es	-1.449673	-0.243355	-0.112341	99
Es	0.504735	1.366473	-0.911526	99
Es	0.369331	-2.104085	0.059577	99
Es	-1.746119	-0.927482	-0.051181	99
Es	0.505695	1.834864	0.829674	99
Es	0.622621	1.512323	1.233930	99
Es	1.504407	0.920796	-0.372670	99
Es	-1.675133	0.155447	0.452605	99
33
Properties=species:S:1:pos:R:3:Z:I:1 energy=-231.04988719497874 field_type=dipole dipole="0.000000 0.000000 0.000000" charge=0
C	-1.449721	-0.243355	-0.112335	6
C	0.051899	-0.296485	-0.131485	6
C	0.719949	-1.458135	-0.020365	6
C	0.758008	1.018865	-0.303145	6
O	0.505779	1.835325	0.829655	8
H	-1.802501	0.354685	0.733925	1
H	-1.894791	-1.240025	-0.022745	1
H	-1.825391	0.205795	-1.037465	1
H	0.198399	-2.403745	0.094815	1
H	1.804929	-1.496295	-0.043405	1
H	0.397779	1.537595	-1.197205	1
H	1.841798	0.897085	-0.401815	1
H	0.693869	1.288685	1.611565	1
Es	-1.449675	-0.243355	-0.112341	99
Es	0.504835	1.366430	-0.911423	99
Es	0.051823	-0.296376	-0.131493	99
Es	1.458127	-1.486441	-0.035419	99
Es	0.369258	-2.104038	0.059562	99
Es	0.599955	1.519737	0.419851	99
Es	0.411757	-0.851151	0.258408	99
Es	0.507828	1.835135	0.829590	99
Es	0.624680	1.511476	1.232904	99
Es	1.504530	0.920678	-0.372614	99
Es	0.392457	-0.928320	-0.396110	99
Es	-1.675095	0.155524	0.452590	99
Es	0.287987	2.086264	0.825266	99
Es	-0.695854	-0.266081	-0.118336	99
Es	0.620491	1.858050	0.825715	99
Es	-1.692740	0.066574	-0.736408	99
Es	0.757933	1.018956	-0.302953	99
Es	-1.746395	-0.927304	-0.051206	99
Es	0.720005	-1.458225	-0.020350	99
Es	0.403131	0.349673	-0.220236	99
33
Properties=species:S:1:pos:R:3:Z:I:1 energy=-231.04988719497874 field_type=dipole dipole="0.000000 0.000000 0.000000" charge=0
C	-1.449721	-0.243355	-0.112335	6
C	0.051899	-0.296485	-0.131485	6
C	0.719949	-1.458135	-0.020365	6
C	0.758008	1.018865	-0.303145	6
O	0.505779	1.835325	0.829655	8
H	-1.802501	0.354685	0.733925	1
H	-1.894791	-1.240025	-0.022745	1
H	-1.825391	0.205795	-1.037465	1
H	0.198399	-2.403745	0.094815	1
H	1.804929	-1.496295	-0.043405	1
H	0.397779	1.537595	-1.197205	1
H	1.841798	0.897085	-0.401815	1
H	0.693869	1.288685	1.611565	1
Es	0.368698	-2.103715	0.059457	99
Es	0.051824	-0.296377	-0.131490	99
Es	-0.695401	-0.266218	-0.118161	99
Es	-1.675050	0.155008	0.451828	99
Es	1.505069	0.920765	-0.372868	99
Es	0.606226	1.522114	0.418910	99
Es	0.411626	-0.851226	0.257000	99
Es	0.720005	-1.458224	-0.020350	99
Es	0.541387	1.837998	0.828562	99
Es	-1.747329	-0.926974	-0.051267	99
Es	1.458850	-1.486553	-0.035339	99
Es	0.392591	-0.928217	-0.394807	99
Es	0.757935	1.018954	-0.302954	99
Es	-1.692964	0.066808	-0.735614	99
Es	0.403161	0.349591	-0.220364	99
Es	0.504742	1.366458	-0.910795	99
Es	-1.449677	-0.243356	-0.112340	99
Es	0.558393	1.838697	0.827987	99
Es	0.631752	1.514264	1.233289	99
Es	0.303202	2.097411	0.824312	99
33
Properties=species:S:1:pos:R:3:Z:I:1 energy=-231.04988719497874 field_type=dipole dipole="0.000000 0.000000 0.000000" charge=0
C	-1.449721	-0.243355	-0.112335	6
C	0.051899	-0.296485	-0.131485	6
C	0.719949	-1.458135	-0.020365	6
C	0.758008	1.018865	-0.303145	6
O	0.505779	1.835325	0.829655	8
H	-1.802501	0.354685	0.733925	1
H	-1.894791	-1.240025	-0.022745	1
H	-1.825391	0.205795	-1.037465	1
H	0.198399	-2.403745	0.094815	1
H	1.804929	-1.496295	-0.043405	1
H	0.397779	1.537595	-1.197205	1
H	1.841798	0.897085	-0.401815	1
H	0.693869	1.288685	1.611565	1
Es	0.720005	-1.458224	-0.020351	99
Es	0.411710	-0.851159	0.258535	99
Es	0.617353	1.855562	0.825922	99
Es	0.506526	1.835106	0.829632	99
Es	0.051827	-0.296375	-0.131493	99
Es	-1.692486	0.066465	-0.736418	99
Es	1.458147	-1.486526	-0.035505	99
Es	0.289808	2.087886	0.825146	99
Es	1.504530	0.920591	-0.372546	99
Es	0.626924	1.509560	1.230994	99
Es	0.402980	0.349677	-0.220062	99
Es	-0.696025	-0.265967	-0.118173	99
Es	0.600219	1.522791	0.421539	99
Es	0.369263	-2.103981	0.059322	99
Es	0.505021	1.366236	-0.911392	99
Es	-1.449675	-0.243355	-0.112341	99
Es	-1.746337	-0.927439	-0.051298	99
Es	0.392509	-0.928333	-0.396220	99
Es	-1.675194	0.155738	0.452653	99
Es	0.757934	1.018956	-0.302949	99
33
Properties=species:S:1:pos:R:3:Z:I:1 energy=-231.04988719497874 field_type=dipole dipole="0.000000 0.000000 0.000000" charge=0
C	-1.449721	-0.243355	-0.112335	6
C	0.051899	-0.296485	-0.131485	6
C	0.719949	-1.458135	-0.020365	6
C	0.758008	1.018865	-0.303145	6
O	0.505779	1.835325	0.829655	8
H	-1.802501	0.354685	0.733925	1
H	-1.894791	-1.240025	-0.022745	1
H	-1.825391	0.205795	-1.037465	1
H	0.198399	-2.403745	0.094815	1
H	1.804929	-1.496295	-0.043405	1
H	0.397779	1.537595	-1.197205	1
H	1.841798	0.897085	-0.401815	1
H	0.693869	1.288685	1.611565	1
Es	0.606040	1.526235	0.420799	99
Es	-1.675290	0.155358	0.451953	99
Es	0.051824	-0.296376	-0.131493	99
Es	1.505076	0.920712	-0.372878	99
Es	0.757935	1.018954	-0.302957	99
Es	0.411685	-0.851372	0.257397	99
Es	-1.692733	0.066483	-0.735617	99
Es	0.392548	-0.928080	-0.395025	99
Es	0.720009	-1.458225	-0.020350	99
Es	0.305027	2.098745	0.824706	99
Es	0.633416	1.511210	1.230758	99
Es	0.368750	-2.103607	0.059217	99
Es	1.458873	-1.486670	-0.035460	99
Es	-0.695416	-0.266142	-0.118244	99
Es	0.540020	1.834527	0.828680	99
Es	0.556281	1.840168	0.828101	99
Es	-1.449674	-0.243355	-0.112341	99
Es	0.403048	0.349586	-0.220113	99
Es	-1.747248	-0.926986	-0.051358	99
Es	0.504871	1.366045	-0.910779	99
33
Properties=species:S:1:pos:R:3:Z:I:1 energy=-231.04988719497874 field_type=dipole dipole="0.000000 0.000000 0.000000" charge=0
C	-1.449721	-0.243355	-0.112335	6
C	0.051899	-0.296485	-0.131485	6
C	0.719949	-1.458135	-0.020365	6
C	0.758008	1.018865	-0.303145	6
O	0.505779	1.835325	0.829655	8
H	-1.802501	0.354685	0.733925	1
H	-1.894791	-1.240025	-0.022745	1
H	-1.825391	0.205795	-1.037465	1
H	0.198399	-2.403745	0.094815	1
H	1.804929	-1.496295	-0.043405	1
H	0.397779	1.537595	-1.197205	1
H	1.841798	0.897085	-0.401815	1
H	0.693869	1.288685	1.611565	1
Es	0.628886	1.507584	1.228893	99
Es	0.612479	1.852354	0.826206	99
Es	1.504687	0.920435	-0.372512	99
Es	-1.746116	-0.927645	-0.051451	99
Es	0.293041	2.090431	0.825261	99
Es	-1.675499	0.156023	0.452738	99
Es	0.600421	1.525797	0.423177	99
Es	-1.449677	-0.243356	-0.112341	99
Es	0.402966	0.349939	-0.219931	99
Es	0.051824	-0.296377	-0.131487	99
Es	0.720005	-1.458225	-0.020352	99
Es	-0.696093	-0.265699	-0.118276	99
Es	0.392351	-0.928160	-0.396184	99
Es	1.458218	-1.486554	-0.035599	99
Es	0.757936	1.018954	-0.302959	99
Es	0.411859	-0.851343	0.258648	99
Es	0.504946	1.365925	-0.911416	99
Es	0.369278	-2.103928	0.059156	99
Es	-1.692318	0.066115	-0.736219	99
Es	0.505844	1.834938	0.829642	99
33
Properties=species:S:1:pos:R:3:Z:I:1 energy=-231.04988719497874 field_type=dipole dipole="0.000000 0.000000 0.000000" charge=0
C	-1.449721	-0.243355	-0.112335	6
C	0.051899	-0.296485	-0.131485	6
C	0.719949	-1.458135	-0.020365	6
C	0.758008	1.018865	-0.303145	6
O	0.505779	1.835325	0.829655	8
H	-1.802501	0.354685	0.733925	1
H	-1.894791	-1.240025	-0.022745	1
H	-1.825391	0.205795	-1.037465	1
H	0.198399	-2.403745	0.094815	1
H	1.804929	-1.496295	-0.043405	1
H	0.397779	1.537595	-1.197205	1
H	1.841798	0.897085	-0.401815	1
H	0.693869	1.288685	1.611565	1
Es	-1.746138	-0.927608	-0.051436	99
Es	0.369231	-2.103769	0.059151	99
Es	-1.449675	-0.243355	-0.112341	99
Es	0.411827	-0.851271	0.258692	99
Es	-0.696125	-0.265653	-0.118225	99
Es	0.757935	1.018954	-0.302953	99
Es	0.051824	-0.296377	-0.131494	99
Es	0.505056	1.365884	-0.911358	99
Es	0.609486	1.850529	0.826238	99
Es	0.294979	2.091860	0.825487	99
Es	0.720005	-1.458225	-0.020351	99
Es	0.402872	0.349896	-0.219965	99
Es	-1.692100	0.065787	-0.736251	99
Es	-1.675704	0.156360	0.452758	99
Es	1.458299	-1.486704	-0.035614	99
Es	0.630235	1.506558	1.227757	99
Es	0.599968	1.527254	0.424035	99
Es	0.505960	1.834977	0.829625	99
Es	0.392385	-0.928238	-0.396273	99
Es	1.504721	0.920348	-0.372487	99
33
Properties=species:S:1:pos:R:3:Z:I:1 energy=-231.04988719497874 field_type=dipole dipole="0.000000 0.000000 0.000000" charge=0
C	-1.449721	-0.243355	-0.112335	6
C	0.051899	-0.296485	-0.131485	6
C	0.719949	-1.458135	-0.020365	6
C	0.758008	1.018865	-0.303145	6
O	0.505779	1.835325	0.829655	8
H	-1.802501	0.354685	0.733925	1
H	-1.894791	-1.240025	-0.022745	1
H	-1.825391	0.205795	-1.037465	1
H	0.198399	-2.403745	0.094815	1
H	1.804929	-1.496295	-0.043405	1
H	0.397779	1.537595	-1.197205	1
H	1.841798	0.897085	-0.401815	1
H	0.693869	1.288685	1.611565	1
Es	0.605560	1.848736	0.826470	99
Es	-1.692008	0.065845	-0.736258	99
Es	0.505109	1.365780	-0.911353	99
Es	0.600545	1.529236	0.425064	99
Es	0.297031	2.093341	0.825479	99
Es	-0.696024	-0.265663	-0.118030	99
Es	0.392644	-0.928509	-0.396267	99
Es	0.720006	-1.458224	-0.020351	99
Es	0.402860	0.349845	-0.219843	99
Es	0.505701	1.834429	0.829653	99
Es	-1.449675	-0.243355	-0.112340	99
Es	-1.675811	0.156296	0.452780	99
Es	1.458327	-1.486732	-0.035710	99
Es	0.369204	-2.103748	0.059109	99
Es	1.504699	0.920304	-0.372507	99
Es	0.757935	1.018953	-0.302957	99
Es	0.051824	-0.296378	-0.131492	99
Es	-1.746229	-0.927494	-0.051596	99
Es	0.411558	-0.851023	0.258641	99
Es	0.631783	1.505569	1.226505	99
33
Properties=species:S:1:pos:R:3:Z:I:1 energy=-231.04988719497874 field_type=dipole dipole="0.000000 0.000000 0.000000" charge=0
C	-1.449721	-0.243355	-0.112335	6
C	0.051899	-0.296485	-0.131485	6
C	0.719949	-1.458135	-0.020365	6
C	0.758008	1.018865	-0.303145	6
O	0.505779	1.835325	0.829655	8
H	-1.802501	0.354685	0.733925	1
H	-1.894791	-1.240025	-0.022745	1
H	-1.825391	0.205795	-1.037465	1
H	0.198399	-2.403745	0.094815	1
H	1.804929	-1.496295	-0.043405	1
H	0.397779	1.537595	-1.197205	1
H	1.841798	0.897085	-0.401815	1
H	0.693869	1.288685	1.611565	1
Es	0.720005	-1.458224	-0.020351	99
Es	-1.675607	0.156114	0.452807	99
Es	0.402918	0.350016	-0.219796	99
Es	-0.696142	-0.265582	-0.118130	99
Es	-1.746121	-0.927623	-0.051570	99
Es	0.506177	1.835019	0.829636	99
Es	0.757935	1.018954	-0.302957	99
Es	0.392734	-0.928553	-0.396208	99
Es	0.411494	-0.850957	0.258592	99
Es	0.603912	1.847434	0.826538	99
Es	1.458295	-1.486698	-0.035724	99
Es	0.600608	1.529692	0.425512	99
Es	1.504803	0.920249	-0.372516	99
Es	0.632116	1.505306	1.226074	99
Es	0.297731	2.093904	0.825378	99
Es	-1.449674	-0.243355	-0.112341	99
Es	0.505000	1.365641	-0.911341	99
Es	-1.692225	0.066033	-0.736143	99
Es	0.369256	-2.103785	0.059027	99
Es	0.051824	-0.296376	-0.131491	99
33
Properties=species:S:1:pos:R:3:Z:I:1 energy=-231.04988719497874 field_type=dipole dipole="0.000000 0.000000 0.000000" charge=0
C	-1.449721	-0.243355	-0.112335	6
C	0.051899	-0.296485	-0.131485	6
C	0.719949	-1.458135	-0.020365	6
C	0.758008	1.018865	-0.303145	6
O	0.505779	1.835325	0.829655	8
H	-1.802501	0.354685	0.733925	1
H	-1.894791	-1.240025	-0.022745	1
H	-1.825391	0.205795	-1.037465	1
H	0.198399	-2.403745	0.094815	1
H	1.804929	-1.496295	-0.043405	1
H	0.397779	1.537595	-1.197205	1
H	1.841798	0.897085	-0.401815	1
H	0.693869	1.288685	1.611565	1
Es	0.402980	0.349869	-0.219809	99
Es	-1.449675	-0.243355	-0.112340	99
Es	-1.746253	-0.927393	-0.051562	99
Es	0.392627	-0.928476	-0.396160	99
Es	0.051825	-0.296376	-0.131492	99
Es	0.594098	1.843006	0.826900	99
Es	0.720004	-1.458225	-0.020352	99
Es	-1.676036	0.156645	0.452811	99
Es	-1.691966	0.065395	-0.736083	99
Es	1.458460	-1.486860	-0.035748	99
Es	0.411594	-0.851035	0.258572	99
Es	1.504841	0.920291	-0.372536	99
Es	0.302024	2.096891	0.825558	99
Es	0.505087	1.365454	-0.911276	99
Es	0.757934	1.018955	-0.302952	99
Es	0.369127	-2.103592	0.059068	99
Es	0.508878	1.835285	0.829595	99
Es	0.634597	1.504243	1.224430	99
Es	-0.695950	-0.265609	-0.118241	99
Es	0.600843	1.532094	0.426613	99
33
Properties=species:S:1:pos:R:3:Z:I:1 energy=-231.04988719497874 field_type=dipole dipole="0.000000 0.000000 0.000000" charge=0
C	-1.449721	-0.243355	-0.112335	6
C	0.051899	-0.296485	-0.131485	6
C	0.719949	-1.458135	-0.020365	6
C	0.758008	1.018865	-0.303145	6
O	0.505779	1.835325	0.829655	8
H	-1.802501	0.354685	0.733925	1
H	-1.894791	-1.240025	-0.022745	1
H	-1.825391	0.205795	-1.037465	1
H	0.198399	-2.403745	0.094815	1
H	1.804929	-1.496295	-0.043405	1
H	0.397779	1.537595	-1.197205	1
H	1.841798	0.897085	-0.401815	1
H	0.693869	1.288685	1.611565	1
Es	-1.691731	0.065129	-0.736041	99
Es	0.392733	-0.928487	-0.396144	99
Es	0.584986	1.843788	0.827164	99
Es	0.303054	2.097513	0.825689	99
Es	-1.746323	-0.927404	-0.051582	99
Es	0.505100	1.365452	-0.911256	99
Es	1.458459	-1.486837	-0.035743	99
Es	0.051824	-0.296377	-0.131492	99
Es	0.757935	1.018954	-0.302954	99
Es	-1.676201	0.156950	0.452795	99
Es	0.369157	-2.103610	0.058946	99
Es	-0.695963	-0.265661	-0.118230	99
Es	0.720004	-1.458224	-0.020356	99
Es	0.513985	1.832559	0.829396	99
Es	0.402928	0.349830	-0.219707	99
Es	-1.449675	-0.243355	-0.112341	99
Es	0.636762	1.503853	1.223295	99
Es	0.411510	-0.851005	0.258606	99
Es	0.601671	1.533825	0.427554	99
Es	1.504823	0.920317	-0.372603	99
33
Properties=species:S:1:pos:R:3:Z:I:1 energy=-231.04988719497874 field_type=dipole dipole="0.000000 0.000000 0.000000" charge=0
C	-1.449721	-0.243355	-0.112335	6
C	0.051899	-0.296485	-0.131485	6
C	0.719949	-1.458135	-0.020365	6
C	0.758008	1.018865	-0.303145	6
O	0.505779	1.835325	0.829655	8
H	-1.802501	0.354685	0.733925	1
H	-1.894791	-1.240025	-0.022745	1
H	-1.825391	0.205795	-1.037465	1
H	0.198399	-2.403745	0.094815	1
H	1.804929	-1.496295	-0.043405	1
H	0.397779	1.537595	-1.197205	1
H	1.841798	0.897085	-0.401815	1
H	0.693869	1.288685	1.611565	1
Es	0.599250	1.533885	0.428644	99
Es	0.299631	2.095271	0.825813	99
Es	-1.449675	-0.243355	-0.112340	99
Es	0.635790	1.502536	1.222397	99
Es	1.504744	0.920278	-0.372478	99
Es	0.051824	-0.296377	-0.131491	99
Es	0.720005	-1.458224	-0.020352	99
Es	0.402919	0.349912	-0.219739	99
Es	0.505124	1.365222	-0.911408	99
Es	1.458212	-1.486762	-0.035997	99
Es	-1.691565	0.064935	-0.736220	99
Es	-0.696236	-0.265442	-0.118155	99
Es	0.392320	-0.928447	-0.396552	99
Es	0.369395	-2.103736	0.059063	99
Es	-1.676300	0.157239	0.453048	99
Es	0.757935	1.018954	-0.302956	99
Es	0.599938	1.845492	0.826544	99
Es	0.411891	-0.851075	0.259110	99
Es	-1.745885	-0.927656	-0.051599	99
Es	0.505722	1.834556	0.829663	99
33
Properties=species:S:1:pos:R:3:Z:I:1 energy=-231.04988719497874 field_type=dipole dipole="0.000000 0.000000 0.000000" charge=0
C	-1.449721	-0.243355	-0.112335	6
C	0.051899	-0.296485	-0.131485	6
C	0.719949	-1.458135	-0.020365	6
C	0.758008	1.018865	-0.303145	6
O	0.505779	1.835325	0.829655	8
H	-1.802501	0.354685	0.733925	1
H	-1.894791	-1.240025	-0.022745	1
H	-1.825391	0.205795	-1.037465	1
H	0.198399	-2.403745	0.094815	1
H	1.804929	-1.496295	-0.043405	1
H	0.397779	1.537595	-1.197205	1
H	1.841798	0.897085	-0.401815	1
H	0.693869	1.288685	1.611565	1
Es	-1.676272	0.157057	0.453069	99
Es	0.505148	1.365239	-0.911399	99
Es	0.411440	-0.850797	0.258800	99
Es	0.506704	1.835092	0.829648	99
Es	0.302106	2.097012	0.825657	99
Es	-1.745884	-0.927597	-0.051663	99
Es	1.458308	-1.486818	-0.035823	99
Es	0.595476	1.842820	0.826852	99
Es	-1.449675	-0.243354	-0.112340	99
Es	-1.691697	0.065055	-0.736170	99
Es	-0.696203	-0.265467	-0.118188	99
Es	0.051823	-0.296378	-0.131493	99
Es	0.600076	1.534809	0.429181	99
Es	1.504840	0.920039	-0.372402	99
Es	0.402816	0.350140	-0.219723	99
Es	0.757935	1.018954	-0.302958	99
Es	0.720005	-1.458224	-0.020352	99
Es	0.369332	-2.103647	0.059003	99
Es	0.635947	1.501995	1.221754	99
Es	0.392814	-0.928720	-0.396457	99
