39
Properties=species:S:1:pos:R:3:Z:I:1 energy=-233.05273574015092 field_type=dipole dipole="0.000000 0.000000 0.000000" charge=0
C	-2.138431	-1.263482	0.003234	6
C	-0.618951	-1.210852	0.009534	6
C	-0.107681	0.229708	-0.006146	6
C	1.420189	0.278048	-0.004516	6
C	1.906950	1.665088	-0.004386	6
C	2.308440	2.797908	-0.003446	6
H	-2.481700	-2.302662	0.018144	1
H	-2.543791	-0.784712	-0.893866	1
H	-2.552381	-0.756392	0.880624	1
H	-0.236930	-1.751532	-0.864196	1
H	-0.245321	-1.728542	0.900684	1
H	-0.497340	0.767608	0.867764	1
H	-0.494170	0.748278	-0.893056	1
H	1.809239	-0.245662	-0.885576	1
H	1.807960	-0.244762	0.877614	1
H	2.663919	3.801958	-0.002416	1
Es	-0.370390	0.592638	0.594246	99
Es	1.420217	0.278186	-0.004516	99
Es	1.684502	-0.060900	-0.599251	99
Es	-2.138407	-1.263482	0.003233	99
Es	2.540347	3.454141	-0.002697	99
Es	1.675778	1.002250	-0.004694	99
Es	-0.356405	-0.490365	0.001504	99
Es	-2.411505	-0.934151	-0.610540	99
Es	1.906864	1.664840	-0.004386	99
Es	-0.618976	-1.210822	0.009534	99
Es	2.439589	2.131427	0.089577	99
Es	-0.359706	-1.562751	0.623353	99
Es	-1.382269	-1.233291	0.006289	99
Es	0.678405	0.270218	-0.005073	99
Es	2.308520	2.798149	-0.003447	99
Es	-0.368250	0.579487	-0.615349	99
Es	-0.107619	0.229680	-0.006146	99
Es	-2.371994	-1.973319	0.013491	99
Es	2.023694	2.277426	-0.351857	99
Es	1.870190	2.330074	0.250311	99
Es	-2.417269	-0.914850	0.603387	99
Es	1.683555	-0.059891	0.590967	99
Es	-0.353891	-1.578456	-0.592436	99
39
Properties=species:S:1:pos:R:3:Z:I:1 energy=-233.05273574015092 field_type=dipole dipole="0.000000 0.000000 0.000000" charge=0
C	-2.138431	-1.263482	0.003234	6
C	-0.618951	-1.210852	0.009534	6
C	-0.107681	0.229708	-0.006146	6
C	1.420189	0.278048	-0.004516	6
C	1.906950	1.665088	-0.004386	6
C	2.308440	2.797908	-0.003446	6
H	-2.481700	-2.302662	0.018144	1
H	-2.543791	-0.784712	-0.893866	1
H	-2.552381	-0.756392	0.880624	1
H	-0.236930	-1.751532	-0.864196	1
H	-0.245321	-1.728542	0.900684	1
H	-0.497340	0.767608	0.867764	1
H	-0.494170	0.748278	-0.893056	1
H	1.809239	-0.245662	-0.885576	1
H	1.807960	-0.244762	0.877614	1
H	2.663919	3.801958	-0.002416	1
Es	-0.618976	-1.210822	0.009533	99
Es	1.682844	-0.061738	-0.597524	99
Es	1.933559	2.307886	0.299220	99
Es	-0.355240	-1.579485	-0.591087	99
Es	1.906860	1.664830	-0.004386	99
Es	-0.369095	0.593518	0.592686	99
Es	-2.409759	-0.933092	-0.608434	99
Es	-1.382350	-1.232886	0.006297	99
Es	2.540052	3.456035	-0.002815	99
Es	1.953414	2.301390	-0.319634	99
Es	-2.138405	-1.263483	0.003233	99
Es	0.678856	0.270071	-0.005186	99
Es	1.682005	-0.060962	0.589229	99
Es	-2.415662	-0.913735	0.601453	99
Es	-0.356521	-0.490296	0.001487	99
Es	2.446467	2.129326	0.008568	99
Es	1.420218	0.278185	-0.004515	99
Es	1.677295	1.004363	-0.004685	99
Es	-0.107618	0.229680	-0.006146	99
Es	2.308513	2.798146	-0.003447	99
Es	-0.361156	-1.563544	0.621906	99
Es	-2.373360	-1.977466	0.013421	99
Es	-0.366961	0.580315	-0.613676	99
39
Properties=species:S:1:pos:R:3:Z:I:1 energy=-233.05273574015092 field_type=dipole dipole="0.000000 0.000000 0.000000" charge=0
C	-2.138431	-1.263482	0.003234	6
C	-0.618951	-1.210852	0.009534	6
C	-0.107681	0.229708	-0.006146	6
C	1.420189	0.278048	-0.004516	6
C	1.906950	1.665088	-0.004386	6
C	2.308440	2.797908	-0.003446	6
H	-2.481700	-2.302662	0.018144	1
H	-2.543791	-0.784712	-0.893866	1
H	-2.552381	-0.756392	0.880624	1
H	-0.236930	-1.751532	-0.864196	1
H	-0.245321	-1.728542	0.900684	1
H	-0.497340	0.767608	0.867764	1
H	-0.494170	0.748278	-0.893056	1
H	1.809239	-0.245662	-0.885576	1
H	1.807960	-0.244762	0.877614	1
H	2.663919	3.801958	-0.002416	1
Es	1.681907	-0.062121	-0.596424	99
Es	-1.382461	-1.232781	0.006107	99
Es	-0.356566	-0.490329	0.001359	99
Es	2.539811	3.456899	-0.002780	99
Es	1.931738	2.308776	-0.303512	99
Es	-2.138407	-1.263483	0.003234	99
Es	1.420218	0.278183	-0.004516	99
Es	-2.374191	-1.979525	0.013425	99
Es	-2.408664	-0.932622	-0.606994	99
Es	-0.366056	0.580784	-0.612732	99
Es	-2.414543	-0.913135	0.600150	99
Es	1.680967	-0.061470	0.588149	99
Es	-0.107618	0.229680	-0.006146	99
Es	-0.361957	-1.563971	0.621047	99
Es	-0.356040	-1.579856	-0.590121	99
Es	2.443586	2.130428	-0.019864	99
Es	-0.618976	-1.210823	0.009535	99
Es	1.958151	2.299239	0.311658	99
Es	1.906857	1.664830	-0.004384	99
Es	0.679112	0.269917	-0.005185	99
Es	-0.368330	0.593909	0.591715	99
Es	1.677927	1.005557	-0.004779	99
Es	2.308513	2.798151	-0.003444	99
39
Properties=species:S:1:pos:R:3:Z:I:1 energy=-233.05273574015092 field_type=dipole dipole="0.000000 0.000000 0.000000" charge=0
C	-2.138431	-1.263482	0.003234	6
C	-0.618951	-1.210852	0.009534	6
C	-0.107681	0.229708	-0.006146	6
C	1.420189	0.278048	-0.004516	6
C	1.906950	1.665088	-0.004386	6
C	2.308440	2.797908	-0.003446	6
H	-2.481700	-2.302662	0.018144	1
H	-2.543791	-0.784712	-0.893866	1
H	-2.552381	-0.756392	0.880624	1
H	-0.236930	-1.751532	-0.864196	1
H	-0.245321	-1.728542	0.900684	1
H	-0.497340	0.767608	0.867764	1
H	-0.494170	0.748278	-0.893056	1
H	1.809239	-0.245662	-0.885576	1
H	1.807960	-0.244762	0.877614	1
H	2.663919	3.801958	-0.002416	1
Es	2.050507	2.267172	0.343081	99
Es	0.679513	0.269951	-0.005505	99
Es	1.678338	1.006353	-0.004768	99
Es	1.681190	-0.062503	-0.595550	99
Es	1.420217	0.278185	-0.004516	99
Es	-0.367719	0.594312	0.591036	99
Es	2.539648	3.457405	-0.002821	99
Es	-2.407844	-0.932286	-0.605974	99
Es	2.423051	2.137706	-0.120867	99
Es	-0.618977	-1.210820	0.009533	99
Es	-1.382491	-1.232668	0.006268	99
Es	-0.356724	-1.580211	-0.589553	99
Es	-2.413725	-0.912848	0.599159	99
Es	1.680035	-0.061730	0.587468	99
Es	-0.362584	-1.564173	0.620265	99
Es	1.906859	1.664824	-0.004386	99
Es	-0.365473	0.580868	-0.611905	99
Es	-0.356576	-0.490320	0.001446	99
Es	2.308516	2.798154	-0.003447	99
Es	1.859942	2.333453	-0.233958	99
Es	-2.138407	-1.263483	0.003234	99
Es	-0.107617	0.229680	-0.006146	99
Es	-2.374700	-1.980784	0.013404	99
39
Properties=species:S:1:pos:R:3:Z:I:1 energy=-233.05273574015092 field_type=dipole dipole="0.000000 0.000000 0.000000" charge=0
C	-2.138431	-1.263482	0.003234	6
C	-0.618951	-1.210852	0.009534	6
C	-0.107681	0.229708	-0.006146	6
C	1.420189	0.278048	-0.004516	6
C	1.906950	1.665088	-0.004386	6
C	2.308440	2.797908	-0.003446	6
H	-2.481700	-2.302662	0.018144	1
H	-2.543791	-0.784712	-0.893866	1
H	-2.552381	-0.756392	0.880624	1
H	-0.236930	-1.751532	-0.864196	1
H	-0.245321	-1.728542	0.900684	1
H	-0.497340	0.767608	0.867764	1
H	-0.494170	0.748278	-0.893056	1
H	1.809239	-0.245662	-0.885576	1
H	1.807960	-0.244762	0.877614	1
H	2.663919	3.801958	-0.002416	1
Es	2.089574	2.253576	0.346961	99
Es	-2.138407	-1.263483	0.003234	99
Es	-1.382656	-1.232576	0.006246	99
Es	-2.374989	-1.981652	0.013328	99
Es	2.539480	3.457698	-0.002873	99
Es	2.406366	2.143607	-0.158479	99
Es	-0.367282	0.594399	0.590288	99
Es	-2.413178	-0.912520	0.598445	99
Es	1.906854	1.664823	-0.004390	99
Es	-0.365020	0.581024	-0.611264	99
Es	1.678761	1.006841	-0.004808	99
Es	1.837526	2.341129	-0.200097	99
Es	0.679784	0.270070	-0.005322	99
Es	1.420217	0.278184	-0.004517	99
Es	1.680488	-0.062651	-0.594980	99
Es	-0.357226	-1.580404	-0.588987	99
Es	-0.356547	-0.490349	0.001496	99
Es	-2.407078	-0.932188	-0.605170	99
Es	-0.618976	-1.210821	0.009534	99
Es	2.308519	2.798155	-0.003444	99
Es	1.679514	-0.061954	0.586741	99
Es	-0.107618	0.229680	-0.006145	99
Es	-0.363128	-1.564350	0.619701	99
39
Properties=species:S:1:pos:R:3:Z:I:1 energy=-233.05273574015092 field_type=dipole dipole="0.000000 0.000000 0.000000" charge=0
C	-2.138431	-1.263482	0.003234	6
C	-0.618951	-1.210852	0.009534	6
C	-0.107681	0.229708	-0.006146	6
C	1.420189	0.278048	-0.004516	6
C	1.906950	1.665088	-0.004386	6
C	2.308440	2.797908	-0.003446	6
H	-2.481700	-2.302662	0.018144	1
H	-2.543791	-0.784712	-0.893866	1
H	-2.552381	-0.756392	0.880624	1
H	-0.236930	-1.751532	-0.864196	1
H	-0.245321	-1.728542	0.900684	1
H	-0.497340	0.767608	0.867764	1
H	-0.494170	0.748278	-0.893056	1
H	1.809239	-0.245662	-0.885576	1
H	1.807960	-0.244762	0.877614	1
H	2.663919	3.801958	-0.002416	1
Es	1.678989	-0.062111	0.586282	99
Es	-0.618977	-1.210821	0.009533	99
Es	-1.382367	-1.232362	0.006352	99
Es	-0.107617	0.229679	-0.006147	99
Es	2.308515	2.798157	-0.003454	99
Es	-0.363562	-1.564510	0.619224	99
Es	-2.375317	-1.982228	0.013235	99
Es	-0.357732	-1.580569	-0.588659	99
Es	-0.364681	0.581094	-0.610641	99
Es	2.211496	2.211778	-0.335812	99
Es	1.906858	1.664822	-0.004383	99
Es	1.420217	0.278186	-0.004516	99
Es	1.679970	-0.062797	-0.594463	99
Es	1.678779	1.007284	-0.004641	99
Es	-0.356585	-0.490304	0.001441	99
Es	-0.367006	0.594438	0.589781	99
Es	1.791228	2.356940	0.068689	99
Es	-2.138407	-1.263484	0.003234	99
Es	2.330938	2.169488	0.255162	99
Es	0.680268	0.270168	-0.005357	99
Es	-2.412691	-0.912564	0.597714	99
Es	2.539310	3.457950	-0.002713	99
Es	-2.406649	-0.931997	-0.604363	99
39
Properties=species:S:1:pos:R:3:Z:I:1 energy=-233.05273574015092 field_type=dipole dipole="0.000000 0.000000 0.000000" charge=0
C	-2.138431	-1.263482	0.003234	6
C	-0.618951	-1.210852	0.009534	6
C	-0.107681	0.229708	-0.006146	6
C	1.420189	0.278048	-0.004516	6
C	1.906950	1.665088	-0.004386	6
C	2.308440	2.797908	-0.003446	6
H	-2.481700	-2.302662	0.018144	1
H	-2.543791	-0.784712	-0.893866	1
H	-2.552381	-0.756392	0.880624	1
H	-0.236930	-1.751532	-0.864196	1
H	-0.245321	-1.728542	0.900684	1
H	-0.497340	0.767608	0.867764	1
H	-0.494170	0.748278	-0.893056	1
H	1.809239	-0.245662	-0.885576	1
H	1.807960	-0.244762	0.877614	1
H	2.663919	3.801958	-0.002416	1
Es	-0.618976	-1.210821	0.009534	99
Es	-1.382374	-1.232322	0.006180	99
Es	2.539419	3.458036	-0.002798	99
Es	-2.138406	-1.263484	0.003234	99
Es	1.678532	-0.062389	0.585743	99
Es	1.679416	-0.062739	-0.593930	99
Es	-2.375609	-1.982707	0.013140	99
Es	1.886781	2.324158	-0.260627	99
Es	-2.406175	-0.931980	-0.603549	99
Es	1.679081	1.007610	-0.004667	99
Es	-0.358059	-1.580585	-0.588168	99
Es	1.420217	0.278186	-0.004516	99
Es	-0.364221	0.581227	-0.610185	99
Es	1.906858	1.664821	-0.004390	99
Es	-0.366615	0.594535	0.589320	99
Es	2.015414	2.279391	0.330585	99
Es	-2.412211	-0.912455	0.597105	99
Es	2.431239	2.134707	-0.081749	99
Es	0.680370	0.270134	-0.005359	99
Es	-0.363920	-1.564629	0.618775	99
Es	-0.356682	-0.490292	0.001423	99
Es	-0.107617	0.229680	-0.006146	99
Es	2.308515	2.798157	-0.003455	99
39
Properties=species:S:1:pos:R:3:Z:I:1 energy=-233.05273574015092 field_type=dipole dipole="0.000000 0.000000 0.000000" charge=0
C	-2.138431	-1.263482	0.003234	6
C	-0.618951	-1.210852	0.009534	6
C	-0.107681	0.229708	-0.006146	6
C	1.420189	0.278048	-0.004516	6
C	1.906950	1.665088	-0.004386	6
C	2.308440	2.797908	-0.003446	6
H	-2.481700	-2.302662	0.018144	1
H	-2.543791	-0.784712	-0.893866	1
H	-2.552381	-0.756392	0.880624	1
H	-0.236930	-1.751532	-0.864196	1
H	-0.245321	-1.728542	0.900684	1
H	-0.497340	0.767608	0.867764	1
H	-0.494170	0.748278	-0.893056	1
H	1.809239	-0.245662	-0.885576	1
H	1.807960	-0.244762	0.877614	1
H	2.663919	3.801958	-0.002416	1
Es	1.875896	2.327787	0.237465	99
Es	-2.375800	-1.983010	0.013277	99
Es	2.539264	3.458183	-0.002754	99
Es	1.678990	-0.062857	-0.593529	99
Es	2.426426	2.136120	0.093785	99
Es	1.906860	1.664820	-0.004386	99
Es	-2.411937	-0.912213	0.596528	99
Es	0.680678	0.270218	-0.005352	99
Es	-2.138405	-1.263483	0.003234	99
Es	2.308516	2.798158	-0.003451	99
Es	1.678196	-0.062417	0.585344	99
Es	-0.364309	-1.564578	0.618443	99
Es	2.031271	2.274279	-0.343162	99
Es	-0.358327	-1.580796	-0.587852	99
Es	-0.363997	0.581136	-0.609770	99
Es	1.679151	1.007844	-0.004666	99
Es	-0.618977	-1.210821	0.009534	99
Es	-1.382255	-1.232183	0.006137	99
Es	-0.107617	0.229679	-0.006147	99
Es	-2.405791	-0.932182	-0.603036	99
Es	1.420217	0.278186	-0.004514	99
Es	-0.366370	0.594650	0.588845	99
Es	-0.356703	-0.490283	0.001524	99
39
Properties=species:S:1:pos:R:3:Z:I:1 energy=-233.05273574015092 field_type=dipole dipole="0.000000 0.000000 0.000000" charge=0
C	-2.138431	-1.263482	0.003234	6
C	-0.618951	-1.210852	0.009534	6
C	-0.107681	0.229708	-0.006146	6
C	1.420189	0.278048	-0.004516	6
C	1.906950	1.665088	-0.004386	6
C	2.308440	2.797908	-0.003446	6
H	-2.481700	-2.302662	0.018144	1
H	-2.543791	-0.784712	-0.893866	1
H	-2.552381	-0.756392	0.880624	1
H	-0.236930	-1.751532	-0.864196	1
H	-0.245321	-1.728542	0.900684	1
H	-0.497340	0.767608	0.867764	1
H	-0.494170	0.748278	-0.893056	1
H	1.809239	-0.245662	-0.885576	1
H	1.807960	-0.244762	0.877614	1
H	2.663919	3.801958	-0.002416	1
Es	1.678600	-0.062816	-0.593230	99
Es	-2.411711	-0.912226	0.595987	99
Es	-0.358615	-1.580894	-0.587622	99
Es	1.420217	0.278186	-0.004516	99
Es	-0.107617	0.229679	-0.006147	99
Es	1.679246	1.008005	-0.004668	99
Es	2.539289	3.458240	-0.002737	99
Es	-1.382143	-1.232040	0.006302	99
Es	2.051416	2.267336	-0.346790	99
Es	1.677949	-0.062557	0.585009	99
Es	-2.405395	-0.932177	-0.602496	99
Es	2.419600	2.138457	0.114045	99
Es	-0.364557	-1.564594	0.618141	99
Es	0.680843	0.270319	-0.005292	99
Es	-0.356738	-0.490308	0.001426	99
Es	-2.375976	-1.983276	0.013189	99
Es	2.308516	2.798159	-0.003446	99
Es	-0.618977	-1.210821	0.009533	99
Es	-2.138407	-1.263484	0.003234	99
Es	-0.363672	0.581093	-0.609324	99
Es	1.862474	2.332420	0.220827	99
Es	1.906857	1.664819	-0.004387	99
Es	-0.366222	0.594715	0.588460	99
39
Properties=species:S:1:pos:R:3:Z:I:1 energy=-233.05273574015092 field_type=dipole dipole="0.000000 0.000000 0.000000" charge=0
C	-2.138431	-1.263482	0.003234	6
C	-0.618951	-1.210852	0.009534	6
C	-0.107681	0.229708	-0.006146	6
C	1.420189	0.278048	-0.004516	6
C	1.906950	1.665088	-0.004386	6
C	2.308440	2.797908	-0.003446	6
H	-2.481700	-2.302662	0.018144	1
H	-2.543791	-0.784712	-0.893866	1
H	-2.552381	-0.756392	0.880624	1
H	-0.236930	-1.751532	-0.864196	1
H	-0.245321	-1.728542	0.900684	1
H	-0.497340	0.767608	0.867764	1
H	-0.494170	0.748278	-0.893056	1
H	1.809239	-0.245662	-0.885576	1
H	1.807960	-0.244762	0.877614	1
H	2.663919	3.801958	-0.002416	1
Es	0.681336	0.270477	-0.005483	99
Es	-0.365960	0.594668	0.588069	99
Es	1.678237	-0.062828	-0.592874	99
Es	1.888021	2.323710	-0.259878	99
Es	-0.107616	0.229680	-0.006146	99
Es	2.430280	2.134942	-0.079774	99
Es	-0.364916	-1.564652	0.617859	99
Es	-2.411437	-0.912197	0.595485	99
Es	-0.618977	-1.210821	0.009534	99
Es	-2.405097	-0.932258	-0.601911	99
Es	-0.358985	-1.581039	-0.587419	99
Es	2.015168	2.279554	0.327855	99
Es	-0.356827	-0.490248	0.001509	99
Es	-0.363558	0.581101	-0.608913	99
Es	1.679252	1.008193	-0.004733	99
Es	-1.381832	-1.231796	0.006300	99
Es	2.308517	2.798157	-0.003445	99
Es	2.539320	3.458292	-0.002830	99
Es	-2.138409	-1.263482	0.003233	99
Es	1.906863	1.664817	-0.004386	99
Es	-2.376143	-1.983492	0.013162	99
Es	1.420218	0.278186	-0.004514	99
Es	1.677524	-0.062727	0.584799	99
39
Properties=species:S:1:pos:R:3:Z:I:1 energy=-233.05273574015092 field_type=dipole dipole="0.000000 0.000000 0.000000" charge=0
C	-2.138431	-1.263482	0.003234	6
C	-0.618951	-1.210852	0.009534	6
C	-0.107681	0.229708	-0.006146	6
C	1.420189	0.278048	-0.004516	6
C	1.906950	1.665088	-0.004386	6
C	2.308440	2.797908	-0.003446	6
H	-2.481700	-2.302662	0.018144	1
H	-2.543791	-0.784712	-0.893866	1
H	-2.552381	-0.756392	0.880624	1
H	-0.236930	-1.751532	-0.864196	1
H	-0.245321	-1.728542	0.900684	1
H	-0.497340	0.767608	0.867764	1
H	-0.494170	0.748278	-0.893056	1
H	1.809239	-0.245662	-0.885576	1
H	1.807960	-0.244762	0.877614	1
H	2.663919	3.801958	-0.002416	1
Es	1.906861	1.664817	-0.004390	99
Es	-0.363344	0.580986	-0.608497	99
Es	0.681605	0.270608	-0.005545	99
Es	1.677955	-0.062895	-0.592575	99
Es	-0.365196	-1.564560	0.617535	99
Es	-0.359114	-1.581135	-0.587090	99
Es	2.308522	2.798157	-0.003451	99
Es	-0.356773	-0.490271	0.001473	99
Es	-0.365837	0.594736	0.587742	99
Es	-2.138407	-1.263485	0.003233	99
Es	-2.376274	-1.983657	0.013223	99
Es	1.991706	2.287927	-0.328750	99
Es	1.420217	0.278186	-0.004516	99
Es	2.539202	3.458371	-0.002834	99
Es	-2.411225	-0.912075	0.595018	99
Es	-2.404803	-0.932435	-0.601446	99
Es	-0.107616	0.229679	-0.006146	99
Es	1.907538	2.316927	0.265796	99
Es	1.677161	-0.062748	0.584467	99
Es	1.679328	1.008319	-0.004617	99
Es	-0.618977	-1.210821	0.009534	99
Es	2.434327	2.133314	0.051107	99
Es	-1.381881	-1.231707	0.006226	99
39
Properties=species:S:1:pos:R:3:Z:I:1 energy=-233.05273574015092 field_type=dipole dipole="0.000000 0.000000 0.000000" charge=0
C	-2.138431	-1.263482	0.003234	6
C	-0.618951	-1.210852	0.009534	6
C	-0.107681	0.229708	-0.006146	6
C	1.420189	0.278048	-0.004516	6
C	1.906950	1.665088	-0.004386	6
C	2.308440	2.797908	-0.003446	6
H	-2.481700	-2.302662	0.018144	1
H	-2.543791	-0.784712	-0.893866	1
H	-2.552381	-0.756392	0.880624	1
H	-0.236930	-1.751532	-0.864196	1
H	-0.245321	-1.728542	0.900684	1
H	-0.497340	0.767608	0.867764	1
H	-0.494170	0.748278	-0.893056	1
H	1.809239	-0.245662	-0.885576	1
H	1.807960	-0.244762	0.877614	1
H	2.663919	3.801958	-0.002416	1
Es	-2.404581	-0.932605	-0.600935	99
Es	-0.356856	-0.490236	0.001449	99
Es	-0.618977	-1.210820	0.009533	99
Es	1.677594	-0.062924	-0.592316	99
Es	2.308516	2.798161	-0.003446	99
Es	1.855313	2.335002	0.207686	99
Es	-1.381537	-1.231488	0.006141	99
Es	0.681946	0.270850	-0.005610	99
Es	-0.359423	-1.581305	-0.587017	99
Es	2.063799	2.263079	-0.346962	99
Es	-2.376369	-1.983781	0.013163	99
Es	1.420217	0.278186	-0.004515	99
Es	-0.365479	-1.564578	0.617414	99
Es	-0.107617	0.229678	-0.006146	99
Es	-2.411018	-0.911967	0.594723	99
Es	1.906853	1.664820	-0.004387	99
Es	1.679432	1.008390	-0.004605	99
Es	1.676844	-0.062860	0.584298	99
Es	-0.365732	0.594744	0.587457	99
Es	2.539278	3.458381	-0.002846	99
Es	2.414409	2.140094	0.127357	99
Es	-0.363226	0.580902	-0.608172	99
Es	-2.138408	-1.263484	0.003234	99
