34
Properties=species:S:1:pos:R:3:Z:I:1 energy=-263.92860406228743 field_type=dipole dipole="0.000000 0.000000 0.000000" charge=0
C	-1.883202	0.246511	0.001351	6
C	-0.403622	0.153251	0.000141	6
N	0.351897	1.258191	-0.005179	7
N	1.611038	0.792971	-0.004889	7
C	1.686237	-0.568149	0.000141	6
C	0.388638	-1.018179	0.003461	6
H	-2.222142	1.287601	0.015341	1
H	-2.295362	-0.255569	0.882311	1
H	-2.294922	-0.231989	-0.892839	1
H	2.370968	1.464471	-0.008379	1
H	2.635877	-1.083049	0.000861	1
H	0.054598	-2.046059	0.007681	1
Es	0.388640	-1.018208	0.003460	99
Es	1.686341	-0.567960	0.000141	99
Es	1.617484	0.397823	0.260027	99
Es	0.281825	1.630290	-0.006638	99
Es	-1.883146	0.246487	0.001351	99
Es	0.912668	-0.786664	0.300789	99
Es	0.915371	-0.789960	-0.296556	99
Es	-0.403642	0.153311	0.000141	99
Es	-2.106573	0.945888	0.010631	99
Es	-2.151520	-0.081520	-0.601734	99
Es	1.615217	0.401229	-0.267666	99
Es	0.070572	0.770801	0.272510	99
Es	1.610982	0.792933	-0.004794	99
Es	2.326555	-0.909697	0.000584	99
Es	-0.051278	-0.473225	0.001766	99
Es	-2.152137	-0.097455	0.595512	99
Es	2.064408	1.183648	-0.006325	99
Es	0.069754	0.768623	-0.277978	99
Es	1.016151	1.017378	-0.004903	99
Es	0.352102	1.257614	-0.005177	99
Es	0.157769	-1.711293	0.006192	99
Es	-1.142294	0.197127	0.000943	99
34
Properties=species:S:1:pos:R:3:Z:I:1 energy=-263.92860406228743 field_type=dipole dipole="0.000000 0.000000 0.000000" charge=0
C	-1.883202	0.246511	0.001351	6
C	-0.403622	0.153251	0.000141	6
N	0.351897	1.258191	-0.005179	7
N	1.611038	0.792971	-0.004889	7
C	1.686237	-0.568149	0.000141	6
C	0.388638	-1.018179	0.003461	6
H	-2.222142	1.287601	0.015341	1
H	-2.295362	-0.255569	0.882311	1
H	-2.294922	-0.231989	-0.892839	1
H	2.370968	1.464471	-0.008379	1
H	2.635877	-1.083049	0.000861	1
H	0.054598	-2.046059	0.007681	1
Es	-1.139983	0.195921	0.000799	99
Es	-2.109502	0.946034	0.010656	99
Es	0.064556	0.756619	0.266744	99
Es	0.922833	-0.786415	0.298842	99
Es	-2.152481	-0.096998	0.592039	99
Es	-0.403643	0.153311	0.000133	99
Es	1.684519	0.203553	0.007409	99
Es	-0.050667	-0.469650	0.001957	99
Es	2.328845	-0.909425	0.000606	99
Es	0.352122	1.257607	-0.005177	99
Es	1.610966	0.792975	-0.004714	99
Es	1.538315	0.623333	-0.015301	99
Es	-1.883151	0.246488	0.001351	99
Es	0.065053	0.754483	-0.273189	99
Es	0.923961	-0.789089	-0.295086	99
Es	0.277730	1.630704	-0.005795	99
Es	1.686347	-0.567961	0.000146	99
Es	2.072433	1.182775	-0.006066	99
Es	0.388631	-1.018216	0.003459	99
Es	0.157849	-1.712535	0.006274	99
Es	-2.152007	-0.080925	-0.597997	99
Es	1.012523	1.014579	-0.004814	99
34
Properties=species:S:1:pos:R:3:Z:I:1 energy=-263.92860406228743 field_type=dipole dipole="0.000000 0.000000 0.000000" charge=0
C	-1.883202	0.246511	0.001351	6
C	-0.403622	0.153251	0.000141	6
N	0.351897	1.258191	-0.005179	7
N	1.611038	0.792971	-0.004889	7
C	1.686237	-0.568149	0.000141	6
C	0.388638	-1.018179	0.003461	6
H	-2.222142	1.287601	0.015341	1
H	-2.295362	-0.255569	0.882311	1
H	-2.294922	-0.231989	-0.892839	1
H	2.370968	1.464471	-0.008379	1
H	2.635877	-1.083049	0.000861	1
H	0.054598	-2.046059	0.007681	1
Es	0.274582	1.630909	-0.006268	99
Es	-1.138763	0.194820	0.000846	99
Es	-2.111869	0.946362	0.010483	99
Es	0.157765	-1.713527	0.006199	99
Es	-1.883151	0.246487	0.001350	99
Es	1.686346	-0.567961	0.000141	99
Es	-0.049471	-0.467704	0.001397	99
Es	1.683893	0.204017	-0.005493	99
Es	0.388632	-1.018213	0.003449	99
Es	0.064686	0.754565	0.263104	99
Es	-0.403644	0.153311	0.000143	99
Es	2.329089	-0.909838	0.000752	99
Es	1.610971	0.792987	-0.004868	99
Es	0.921969	-0.787795	-0.291007	99
Es	-2.152770	-0.097030	0.589113	99
Es	0.065857	0.752365	-0.268809	99
Es	2.073073	1.182574	-0.006975	99
Es	0.920223	-0.784433	0.295508	99
Es	0.352127	1.257614	-0.005202	99
Es	1.543441	0.622922	-0.000736	99
Es	-2.151264	-0.080141	-0.594997	99
Es	1.013529	1.014879	-0.005851	99
34
Properties=species:S:1:pos:R:3:Z:I:1 energy=-263.92860406228743 field_type=dipole dipole="0.000000 0.000000 0.000000" charge=0
C	-1.883202	0.246511	0.001351	6
C	-0.403622	0.153251	0.000141	6
N	0.351897	1.258191	-0.005179	7
N	1.611038	0.792971	-0.004889	7
C	1.686237	-0.568149	0.000141	6
C	0.388638	-1.018179	0.003461	6
H	-2.222142	1.287601	0.015341	1
H	-2.295362	-0.255569	0.882311	1
H	-2.294922	-0.231989	-0.892839	1
H	2.370968	1.464471	-0.008379	1
H	2.635877	-1.083049	0.000861	1
H	0.054598	-2.046059	0.007681	1
Es	0.071222	0.755995	0.263192	99
Es	-0.048371	-0.466355	-0.009880	99
Es	0.832061	-0.753069	0.256434	99
Es	0.999765	-0.817979	-0.242595	99
Es	1.682959	0.205244	0.013737	99
Es	0.388631	-1.018208	0.003446	99
Es	1.610970	0.792987	-0.004954	99
Es	1.014051	1.014843	-0.011643	99
Es	-2.151707	-0.095486	0.587788	99
Es	-0.403648	0.153309	0.000134	99
Es	2.073476	1.182490	-0.004553	99
Es	1.686345	-0.567960	0.000138	99
Es	1.549615	0.618703	-0.015817	99
Es	0.063601	0.752847	-0.266306	99
Es	0.352123	1.257600	-0.005179	99
Es	0.157620	-1.713953	0.005495	99
Es	-2.112847	0.946179	0.010448	99
Es	2.329166	-0.910033	0.002388	99
Es	-2.152038	-0.081363	-0.594181	99
Es	-1.883155	0.246487	0.001347	99
Es	0.273777	1.630443	-0.007417	99
Es	-1.138367	0.194448	0.000256	99
34
Properties=species:S:1:pos:R:3:Z:I:1 energy=-263.92860406228743 field_type=dipole dipole="0.000000 0.000000 0.000000" charge=0
C	-1.883202	0.246511	0.001351	6
C	-0.403622	0.153251	0.000141	6
N	0.351897	1.258191	-0.005179	7
N	1.611038	0.792971	-0.004889	7
C	1.686237	-0.568149	0.000141	6
C	0.388638	-1.018179	0.003461	6
H	-2.222142	1.287601	0.015341	1
H	-2.295362	-0.255569	0.882311	1
H	-2.294922	-0.231989	-0.892839	1
H	2.370968	1.464471	-0.008379	1
H	2.635877	-1.083049	0.000861	1
H	0.054598	-2.046059	0.007681	1
Es	-2.111707	0.945219	0.010665	99
Es	1.610914	0.792830	-0.005468	99
Es	0.274840	1.629005	-0.007224	99
Es	0.066319	0.756406	-0.268161	99
Es	-2.152500	-0.081171	-0.595686	99
Es	0.352133	1.257615	-0.005176	99
Es	0.157225	-1.713926	0.005285	99
Es	1.049234	-0.836641	-0.142249	99
Es	0.076225	0.759897	0.265224	99
Es	0.766935	-0.734940	0.158555	99
Es	1.686345	-0.567960	0.000145	99
Es	2.329226	-0.910117	0.002430	99
Es	1.682308	0.206097	0.019352	99
Es	2.073586	1.182444	-0.004384	99
Es	-2.152213	-0.095594	0.588998	99
Es	1.557018	0.611013	-0.020715	99
Es	-0.403647	0.153309	0.000138	99
Es	0.388634	-1.018211	0.003419	99
Es	-1.138516	0.194960	0.000243	99
Es	1.014148	1.015551	-0.011828	99
Es	-0.048107	-0.465104	-0.012639	99
Es	-1.883152	0.246487	0.001352	99
34
Properties=species:S:1:pos:R:3:Z:I:1 energy=-263.92860406228743 field_type=dipole dipole="0.000000 0.000000 0.000000" charge=0
C	-1.883202	0.246511	0.001351	6
C	-0.403622	0.153251	0.000141	6
N	0.351897	1.258191	-0.005179	7
N	1.611038	0.792971	-0.004889	7
C	1.686237	-0.568149	0.000141	6
C	0.388638	-1.018179	0.003461	6
H	-2.222142	1.287601	0.015341	1
H	-2.295362	-0.255569	0.882311	1
H	-2.294922	-0.231989	-0.892839	1
H	2.370968	1.464471	-0.008379	1
H	2.635877	-1.083049	0.000861	1
H	0.054598	-2.046059	0.007681	1
Es	1.686346	-0.567960	0.000136	99
Es	-1.883152	0.246488	0.001351	99
Es	0.074158	0.761591	0.265954	99
Es	-0.403645	0.153309	0.000134	99
Es	1.068997	-0.843081	-0.005767	99
Es	-1.138763	0.195247	0.000660	99
Es	-2.152353	-0.080276	-0.596349	99
Es	-2.153021	-0.096409	0.590389	99
Es	2.329337	-0.910138	0.000759	99
Es	-0.048653	-0.463796	0.000911	99
Es	0.276120	1.627823	-0.006177	99
Es	1.013960	1.015911	-0.005193	99
Es	0.388632	-1.018214	0.003483	99
Es	1.682301	0.205649	0.000461	99
Es	0.352107	1.257620	-0.005178	99
Es	0.156927	-1.713926	0.006126	99
Es	0.072884	0.759520	-0.271718	99
Es	1.560845	0.607219	-0.006727	99
Es	-2.110810	0.944557	0.010595	99
Es	2.073757	1.182426	-0.006668	99
Es	0.738358	-0.729200	0.010611	99
Es	1.610916	0.792808	-0.005518	99
34
Properties=species:S:1:pos:R:3:Z:I:1 energy=-263.92860406228743 field_type=dipole dipole="0.000000 0.000000 0.000000" charge=0
C	-1.883202	0.246511	0.001351	6
C	-0.403622	0.153251	0.000141	6
N	0.351897	1.258191	-0.005179	7
N	1.611038	0.792971	-0.004889	7
C	1.686237	-0.568149	0.000141	6
C	0.388638	-1.018179	0.003461	6
H	-2.222142	1.287601	0.015341	1
H	-2.295362	-0.255569	0.882311	1
H	-2.294922	-0.231989	-0.892839	1
H	2.370968	1.464471	-0.008379	1
H	2.635877	-1.083049	0.000861	1
H	0.054598	-2.046059	0.007681	1
Es	0.352127	1.257603	-0.005174	99
Es	2.073990	1.182327	-0.006479	99
Es	1.686347	-0.567960	0.000135	99
Es	0.156629	-1.713823	0.006116	99
Es	0.736935	-0.728630	0.004733	99
Es	1.610967	0.792977	-0.005049	99
Es	-1.883153	0.246489	0.001351	99
Es	0.388629	-1.018215	0.003445	99
Es	1.561623	0.607027	-0.007153	99
Es	2.329349	-0.909920	0.000621	99
Es	-0.403646	0.153308	0.000137	99
Es	1.014341	1.016156	-0.005108	99
Es	0.074762	0.761008	0.264767	99
Es	0.275099	1.627932	-0.005938	99
Es	-2.151676	-0.079464	-0.595441	99
Es	-1.138329	0.194972	0.000776	99
Es	1.682102	0.205702	0.000045	99
Es	1.069077	-0.843147	-0.000054	99
Es	-2.111514	0.944515	0.010571	99
Es	0.073431	0.759099	-0.270520	99
Es	-2.153555	-0.096950	0.589472	99
Es	-0.048286	-0.463836	0.001023	99
34
Properties=species:S:1:pos:R:3:Z:I:1 energy=-263.92860406228743 field_type=dipole dipole="0.000000 0.000000 0.000000" charge=0
C	-1.883202	0.246511	0.001351	6
C	-0.403622	0.153251	0.000141	6
N	0.351897	1.258191	-0.005179	7
N	1.611038	0.792971	-0.004889	7
C	1.686237	-0.568149	0.000141	6
C	0.388638	-1.018179	0.003461	6
H	-2.222142	1.287601	0.015341	1
H	-2.295362	-0.255569	0.882311	1
H	-2.294922	-0.231989	-0.892839	1
H	2.370968	1.464471	-0.008379	1
H	2.635877	-1.083049	0.000861	1
H	0.054598	-2.046059	0.007681	1
Es	2.329393	-0.909777	0.000576	99
Es	0.388631	-1.018215	0.003448	99
Es	-0.403646	0.153309	0.000137	99
Es	-2.153420	-0.096963	0.588761	99
Es	-0.047808	-0.463864	0.002097	99
Es	-2.151391	-0.079421	-0.594554	99
Es	0.073850	0.760526	0.263481	99
Es	-2.112277	0.944648	0.010450	99
Es	0.274167	1.627831	-0.006152	99
Es	0.156301	-1.713800	0.006281	99
Es	1.014607	1.016458	-0.005230	99
Es	1.682039	0.205827	-0.005530	99
Es	2.074153	1.182230	-0.006722	99
Es	1.069026	-0.843042	0.008577	99
Es	1.562307	0.606992	-0.001587	99
Es	-1.883152	0.246488	0.001350	99
Es	0.075444	0.758740	-0.269439	99
Es	0.735742	-0.728229	-0.004696	99
Es	0.352112	1.257603	-0.005179	99
Es	1.686346	-0.567960	0.000141	99
Es	-1.138144	0.194811	0.000802	99
Es	1.610969	0.792978	-0.004735	99
34
Properties=species:S:1:pos:R:3:Z:I:1 energy=-263.92860406228743 field_type=dipole dipole="0.000000 0.000000 0.000000" charge=0
C	-1.883202	0.246511	0.001351	6
C	-0.403622	0.153251	0.000141	6
N	0.351897	1.258191	-0.005179	7
N	1.611038	0.792971	-0.004889	7
C	1.686237	-0.568149	0.000141	6
C	0.388638	-1.018179	0.003461	6
H	-2.222142	1.287601	0.015341	1
H	-2.295362	-0.255569	0.882311	1
H	-2.294922	-0.231989	-0.892839	1
H	2.370968	1.464471	-0.008379	1
H	2.635877	-1.083049	0.000861	1
H	0.054598	-2.046059	0.007681	1
Es	1.682004	0.205923	-0.002314	99
Es	0.388630	-1.018215	0.003462	99
Es	-0.403646	0.153309	0.000135	99
Es	-0.047536	-0.463935	0.001535	99
Es	0.352128	1.257597	-0.005175	99
Es	1.686345	-0.567961	0.000141	99
Es	0.734585	-0.727820	0.001513	99
Es	0.075750	0.760327	0.262716	99
Es	-2.112970	0.944621	0.010411	99
Es	-1.883149	0.246489	0.001350	99
Es	-1.137858	0.194539	0.000666	99
Es	1.014694	1.016182	-0.005045	99
Es	0.273586	1.628135	-0.006127	99
Es	-2.151579	-0.079745	-0.593738	99
Es	-2.152925	-0.096477	0.588066	99
Es	0.156092	-1.713712	0.006370	99
Es	0.074475	0.758464	-0.268503	99
Es	2.329407	-0.909594	0.000609	99
Es	1.562880	0.606881	-0.004717	99
Es	1.069116	-0.843057	0.002560	99
Es	2.074250	1.182229	-0.006771	99
Es	1.610971	0.792989	-0.004867	99
34
Properties=species:S:1:pos:R:3:Z:I:1 energy=-263.92860406228743 field_type=dipole dipole="0.000000 0.000000 0.000000" charge=0
C	-1.883202	0.246511	0.001351	6
C	-0.403622	0.153251	0.000141	6
N	0.351897	1.258191	-0.005179	7
N	1.611038	0.792971	-0.004889	7
C	1.686237	-0.568149	0.000141	6
C	0.388638	-1.018179	0.003461	6
H	-2.222142	1.287601	0.015341	1
H	-2.295362	-0.255569	0.882311	1
H	-2.294922	-0.231989	-0.892839	1
H	2.370968	1.464471	-0.008379	1
H	2.635877	-1.083049	0.000861	1
H	0.054598	-2.046059	0.007681	1
Es	1.686346	-0.567961	0.000141	99
Es	-1.883153	0.246486	0.001354	99
Es	0.155908	-1.713701	0.006085	99
Es	0.733548	-0.727486	0.003688	99
Es	2.329398	-0.909539	0.000700	99
Es	0.388631	-1.018214	0.003482	99
Es	0.352117	1.257601	-0.005180	99
Es	0.075442	0.760167	0.261804	99
Es	1.563394	0.606854	-0.004100	99
Es	-0.047227	-0.463905	0.001189	99
Es	1.014971	1.016505	-0.005335	99
Es	-1.137697	0.194218	0.000738	99
Es	-2.153264	-0.096849	0.587326	99
Es	0.272825	1.627954	-0.006025	99
Es	-2.113601	0.944757	0.010197	99
Es	2.074321	1.182246	-0.006597	99
Es	1.069093	-0.843017	0.000883	99
Es	0.075749	0.758010	-0.267744	99
Es	-0.403647	0.153309	0.000143	99
Es	1.681986	0.206002	-0.002540	99
Es	-2.150863	-0.079251	-0.592929	99
Es	1.610970	0.792981	-0.005003	99
34
Properties=species:S:1:pos:R:3:Z:I:1 energy=-263.92860406228743 field_type=dipole dipole="0.000000 0.000000 0.000000" charge=0
C	-1.883202	0.246511	0.001351	6
C	-0.403622	0.153251	0.000141	6
N	0.351897	1.258191	-0.005179	7
N	1.611038	0.792971	-0.004889	7
C	1.686237	-0.568149	0.000141	6
C	0.388638	-1.018179	0.003461	6
H	-2.222142	1.287601	0.015341	1
H	-2.295362	-0.255569	0.882311	1
H	-2.294922	-0.231989	-0.892839	1
H	2.370968	1.464471	-0.008379	1
H	2.635877	-1.083049	0.000861	1
H	0.054598	-2.046059	0.007681	1
Es	0.155682	-1.713625	0.006019	99
Es	-2.153613	-0.097738	0.586543	99
Es	0.272162	1.627912	-0.005719	99
Es	0.076664	0.759731	0.260990	99
Es	1.015143	1.016692	-0.005243	99
Es	-0.046965	-0.463956	0.001588	99
Es	1.686346	-0.567961	0.000139	99
Es	-2.114258	0.944801	0.010456	99
Es	2.329419	-0.909416	0.000614	99
Es	-2.150099	-0.078278	-0.592161	99
Es	1.681940	0.206062	-0.004661	99
Es	-1.883151	0.246487	0.001352	99
Es	1.610971	0.792985	-0.004804	99
Es	1.069121	-0.842974	0.006111	99
Es	-0.403647	0.153309	0.000140	99
Es	0.388631	-1.018214	0.003468	99
Es	0.732646	-0.727271	-0.001808	99
Es	1.563809	0.606802	-0.002378	99
Es	2.074411	1.182193	-0.006656	99
Es	-1.137538	0.194055	0.000533	99
Es	0.352133	1.257600	-0.005184	99
Es	0.075442	0.757973	-0.267061	99
34
Properties=species:S:1:pos:R:3:Z:I:1 energy=-263.92860406228743 field_type=dipole dipole="0.000000 0.000000 0.000000" charge=0
C	-1.883202	0.246511	0.001351	6
C	-0.403622	0.153251	0.000141	6
N	0.351897	1.258191	-0.005179	7
N	1.611038	0.792971	-0.004889	7
C	1.686237	-0.568149	0.000141	6
C	0.388638	-1.018179	0.003461	6
H	-2.222142	1.287601	0.015341	1
H	-2.295362	-0.255569	0.882311	1
H	-2.294922	-0.231989	-0.892839	1
H	2.370968	1.464471	-0.008379	1
H	2.635877	-1.083049	0.000861	1
H	0.054598	-2.046059	0.007681	1
Es	0.352128	1.257604	-0.005173	99
Es	2.074471	1.182166	-0.006580	99
Es	-0.046669	-0.464038	0.001382	99
Es	-2.148951	-0.077152	-0.591503	99
Es	0.072848	0.757830	-0.266222	99
Es	-1.137389	0.193987	0.000703	99
Es	-0.403647	0.153310	0.000144	99
Es	-1.883151	0.246487	0.001350	99
Es	1.015325	1.016948	-0.005419	99
Es	1.681913	0.206071	-0.005220	99
Es	-2.114880	0.944784	0.010527	99
Es	1.564197	0.606796	-0.001630	99
Es	0.731884	-0.726963	0.000842	99
Es	1.686347	-0.567961	0.000140	99
Es	-2.154345	-0.098816	0.585647	99
Es	2.329428	-0.909375	0.000567	99
Es	1.610970	0.792987	-0.004843	99
Es	0.388632	-1.018214	0.003476	99
Es	0.080042	0.759308	0.259857	99
Es	0.271502	1.627877	-0.005298	99
Es	1.069094	-0.842844	0.003564	99
Es	0.155499	-1.713623	0.005966	99
34
Properties=species:S:1:pos:R:3:Z:I:1 energy=-263.92860406228743 field_type=dipole dipole="0.000000 0.000000 0.000000" charge=0
C	-1.883202	0.246511	0.001351	6
C	-0.403622	0.153251	0.000141	6
N	0.351897	1.258191	-0.005179	7
N	1.611038	0.792971	-0.004889	7
C	1.686237	-0.568149	0.000141	6
C	0.388638	-1.018179	0.003461	6
H	-2.222142	1.287601	0.015341	1
H	-2.295362	-0.255569	0.882311	1
H	-2.294922	-0.231989	-0.892839	1
H	2.370968	1.464471	-0.008379	1
H	2.635877	-1.083049	0.000861	1
H	0.054598	-2.046059	0.007681	1
Es	-2.147811	-0.075776	-0.590681	99
Es	1.681908	0.206219	-0.003772	99
Es	1.564522	0.606752	-0.004142	99
Es	0.076741	0.757470	-0.266027	99
Es	1.610971	0.792987	-0.004825	99
Es	-0.403647	0.153309	0.000139	99
Es	-1.883153	0.246488	0.001349	99
Es	2.329409	-0.909306	0.000652	99
Es	-0.046425	-0.464035	0.000635	99
Es	0.076986	0.759338	0.259206	99
Es	1.069106	-0.842824	0.005338	99
Es	-2.115246	0.944847	0.010575	99
Es	0.155280	-1.713571	0.005695	99
Es	-1.137283	0.193628	0.000624	99
Es	1.015413	1.016910	-0.004884	99
Es	0.731100	-0.726796	-0.000260	99
Es	1.686347	-0.567961	0.000140	99
Es	2.074569	1.182132	-0.005698	99
Es	0.388631	-1.018214	0.003463	99
Es	0.352121	1.257598	-0.005177	99
Es	-2.155294	-0.099937	0.584711	99
Es	0.271003	1.627909	-0.004780	99
34
Properties=species:S:1:pos:R:3:Z:I:1 energy=-263.92860406228743 field_type=dipole dipole="0.000000 0.000000 0.000000" charge=0
C	-1.883202	0.246511	0.001351	6
C	-0.403622	0.153251	0.000141	6
N	0.351897	1.258191	-0.005179	7
N	1.611038	0.792971	-0.004889	7
C	1.686237	-0.568149	0.000141	6
C	0.388638	-1.018179	0.003461	6
H	-2.222142	1.287601	0.015341	1
H	-2.295362	-0.255569	0.882311	1
H	-2.294922	-0.231989	-0.892839	1
H	2.370968	1.464471	-0.008379	1
H	2.635877	-1.083049	0.000861	1
H	0.054598	-2.046059	0.007681	1
Es	-2.150785	-0.094105	0.585752	99
Es	-2.152589	-0.081665	-0.591547	99
Es	2.329469	-0.909187	0.001175	99
Es	-0.046459	-0.464029	0.000537	99
Es	-0.403646	0.153309	0.000138	99
Es	1.686347	-0.567961	0.000141	99
Es	0.730200	-0.726803	-0.005772	99
Es	2.074642	1.182074	-0.005772	99
Es	-1.883152	0.246488	0.001350	99
Es	0.271447	1.627522	-0.006966	99
Es	-2.114969	0.944570	0.010235	99
Es	1.681803	0.206253	-0.002412	99
Es	0.388631	-1.018215	0.003462	99
Es	0.155335	-1.713544	0.005967	99
Es	1.610971	0.792987	-0.004836	99
Es	0.098393	0.757035	-0.252732	99
Es	1.069077	-0.842817	0.011300	99
Es	1.015445	1.016940	-0.006835	99
Es	0.352133	1.257604	-0.005172	99
Es	0.055429	0.760471	0.247132	99
Es	-1.137286	0.193895	0.000623	99
Es	1.564814	0.606347	-0.003491	99
34
Properties=species:S:1:pos:R:3:Z:I:1 energy=-263.92860406228743 field_type=dipole dipole="0.000000 0.000000 0.000000" charge=0
C	-1.883202	0.246511	0.001351	6
C	-0.403622	0.153251	0.000141	6
N	0.351897	1.258191	-0.005179	7
N	1.611038	0.792971	-0.004889	7
C	1.686237	-0.568149	0.000141	6
C	0.388638	-1.018179	0.003461	6
H	-2.222142	1.287601	0.015341	1
H	-2.295362	-0.255569	0.882311	1
H	-2.294922	-0.231989	-0.892839	1
H	2.370968	1.464471	-0.008379	1
H	2.635877	-1.083049	0.000861	1
H	0.054598	-2.046059	0.007681	1
Es	-1.883152	0.246488	0.001351	99
Es	0.050541	0.758971	-0.248613	99
Es	1.686347	-0.567961	0.000141	99
Es	2.074624	1.182084	-0.006386	99
Es	-1.137331	0.193988	0.000668	99
Es	0.155199	-1.713500	0.005992	99
Es	0.271834	1.627234	-0.004540	99
Es	-2.114695	0.944421	0.010111	99
Es	-2.145501	-0.072866	-0.589834	99
Es	0.103161	0.758969	0.242250	99
Es	-0.403647	0.153309	0.000140	99
Es	1.610968	0.792974	-0.005054	99
Es	1.681919	0.206316	-0.009629	99
Es	0.729601	-0.726476	0.007044	99
Es	2.329429	-0.909226	0.000004	99
Es	1.069104	-0.842923	-0.003048	99
Es	0.388629	-1.018215	0.003437	99
Es	-0.046388	-0.463916	0.001512	99
Es	0.352128	1.257595	-0.005177	99
Es	1.565191	0.605831	0.000683	99
Es	-2.158120	-0.102896	0.584636	99
Es	1.015408	1.016965	-0.003413	99
34
Properties=species:S:1:pos:R:3:Z:I:1 energy=-263.92860406228743 field_type=dipole dipole="0.000000 0.000000 0.000000" charge=0
C	-1.883202	0.246511	0.001351	6
C	-0.403622	0.153251	0.000141	6
N	0.351897	1.258191	-0.005179	7
N	1.611038	0.792971	-0.004889	7
C	1.686237	-0.568149	0.000141	6
C	0.388638	-1.018179	0.003461	6
H	-2.222142	1.287601	0.015341	1
H	-2.295362	-0.255569	0.882311	1
H	-2.294922	-0.231989	-0.892839	1
H	2.370968	1.464471	-0.008379	1
H	2.635877	-1.083049	0.000861	1
H	0.054598	-2.046059	0.007681	1
Es	1.069006	-0.842734	0.014954	99
Es	-0.046409	-0.463978	0.000307	99
Es	-0.403647	0.153309	0.000139	99
Es	2.074691	1.182032	-0.005340	99
Es	1.610965	0.792962	-0.005117	99
Es	1.681876	0.206399	0.001701	99
Es	0.045553	0.761150	0.231405	99
Es	-1.883152	0.246484	0.001346	99
Es	1.686346	-0.567961	0.000145	99
Es	2.329491	-0.909170	0.001400	99
Es	-1.137306	0.194260	0.000612	99
Es	0.271897	1.627094	-0.006398	99
Es	0.352132	1.257588	-0.005183	99
Es	0.108696	0.757242	-0.237764	99
Es	1.565517	0.605456	-0.007871	99
Es	-2.114726	0.944220	0.010700	99
Es	0.388631	-1.018215	0.003458	99
Es	-2.152801	-0.081619	-0.592290	99
Es	-2.150804	-0.094245	0.585846	99
Es	1.015386	1.016923	-0.006268	99
Es	0.728671	-0.726544	-0.009062	99
Es	0.155236	-1.713487	0.005557	99
34
Properties=species:S:1:pos:R:3:Z:I:1 energy=-263.92860406228743 field_type=dipole dipole="0.000000 0.000000 0.000000" charge=0
C	-1.883202	0.246511	0.001351	6
C	-0.403622	0.153251	0.000141	6
N	0.351897	1.258191	-0.005179	7
N	1.611038	0.792971	-0.004889	7
C	1.686237	-0.568149	0.000141	6
C	0.388638	-1.018179	0.003461	6
H	-2.222142	1.287601	0.015341	1
H	-2.295362	-0.255569	0.882311	1
H	-2.294922	-0.231989	-0.892839	1
H	2.370968	1.464471	-0.008379	1
H	2.635877	-1.083049	0.000861	1
H	0.054598	-2.046059	0.007681	1
Es	1.015538	1.017152	-0.006351	99
Es	1.565677	0.605399	-0.009803	99
Es	2.074729	1.182008	-0.005403	99
Es	1.069042	-0.842761	0.014051	99
Es	-2.114739	0.944265	0.010561	99
Es	-2.149760	-0.092770	0.585548	99
Es	-2.153920	-0.082867	-0.591787	99
Es	1.610971	0.792979	-0.004756	99
Es	-0.046277	-0.463975	0.000464	99
Es	1.686348	-0.567959	0.000142	99
Es	0.728222	-0.726448	-0.008249	99
Es	1.681786	0.206401	0.003285	99
Es	0.352097	1.257635	-0.005178	99
Es	-1.137247	0.193942	0.000542	99
Es	0.271698	1.626891	-0.007099	99
Es	-1.883151	0.246487	0.001349	99
Es	0.388631	-1.018215	0.003445	99
Es	-0.403647	0.153309	0.000139	99
Es	0.155118	-1.713447	0.005678	99
Es	2.329509	-0.909110	0.001365	99
Es	0.109951	0.757097	-0.235443	99
Es	0.044675	0.761157	0.229777	99
34
Properties=species:S:1:pos:R:3:Z:I:1 energy=-263.92860406228743 field_type=dipole dipole="0.000000 0.000000 0.000000" charge=0
C	-1.883202	0.246511	0.001351	6
C	-0.403622	0.153251	0.000141	6
N	0.351897	1.258191	-0.005179	7
N	1.611038	0.792971	-0.004889	7
C	1.686237	-0.568149	0.000141	6
C	0.388638	-1.018179	0.003461	6
H	-2.222142	1.287601	0.015341	1
H	-2.295362	-0.255569	0.882311	1
H	-2.294922	-0.231989	-0.892839	1
H	2.370968	1.464471	-0.008379	1
H	2.635877	-1.083049	0.000861	1
H	0.054598	-2.046059	0.007681	1
Es	-1.883151	0.246488	0.001351	99
Es	-2.160080	-0.105250	0.583056	99
Es	2.074774	1.181993	-0.006243	99
Es	0.109909	0.758832	0.231667	99
Es	-2.143673	-0.070387	-0.588752	99
Es	-2.114683	0.944163	0.010479	99
Es	0.388631	-1.018215	0.003471	99
Es	0.044540	0.759547	-0.238944	99
Es	1.681765	0.206422	-0.009929	99
Es	0.352130	1.257594	-0.005182	99
Es	1.015541	1.017101	-0.003025	99
Es	-0.046291	-0.463933	0.001309	99
Es	-0.403646	0.153309	0.000143	99
Es	0.155066	-1.713414	0.005759	99
Es	-1.137246	0.194039	0.000800	99
Es	1.069115	-0.842916	-0.004939	99
Es	0.271864	1.626756	-0.003285	99
Es	0.727971	-0.726117	0.009019	99
Es	1.565879	0.605194	0.000400	99
Es	1.686347	-0.567960	0.000140	99
Es	1.610970	0.792986	-0.004980	99
Es	2.329517	-0.909064	-0.000036	99
34
Properties=species:S:1:pos:R:3:Z:I:1 energy=-263.92860406228743 field_type=dipole dipole="0.000000 0.000000 0.000000" charge=0
C	-1.883202	0.246511	0.001351	6
C	-0.403622	0.153251	0.000141	6
N	0.351897	1.258191	-0.005179	7
N	1.611038	0.792971	-0.004889	7
C	1.686237	-0.568149	0.000141	6
C	0.388638	-1.018179	0.003461	6
H	-2.222142	1.287601	0.015341	1
H	-2.295362	-0.255569	0.882311	1
H	-2.294922	-0.231989	-0.892839	1
H	2.370968	1.464471	-0.008379	1
H	2.635877	-1.083049	0.000861	1
H	0.054598	-2.046059	0.007681	1
Es	-0.046274	-0.463907	0.001120	99
Es	-1.883151	0.246488	0.001351	99
Es	1.686346	-0.567961	0.000138	99
Es	0.352131	1.257593	-0.005181	99
Es	-0.403647	0.153310	0.000139	99
Es	-2.159052	-0.103894	0.584120	99
Es	0.040802	0.759871	-0.230819	99
Es	1.610946	0.792894	-0.005325	99
Es	0.113836	0.758955	0.224378	99
Es	2.329550	-0.909052	0.000021	99
Es	0.388631	-1.018215	0.003448	99
Es	-2.114483	0.944073	0.010413	99
Es	1.566115	0.604956	0.001578	99
Es	-1.137235	0.193951	0.000737	99
Es	-2.144906	-0.071654	-0.589522	99
Es	0.155044	-1.713408	0.006121	99
Es	1.681727	0.206417	-0.010011	99
Es	1.068999	-0.842847	-0.010464	99
Es	2.074818	1.181933	-0.006437	99
Es	1.015546	1.017209	-0.003777	99
Es	0.727453	-0.726098	0.014385	99
Es	0.272054	1.626557	-0.004136	99
34
Properties=species:S:1:pos:R:3:Z:I:1 energy=-263.92860406228743 field_type=dipole dipole="0.000000 0.000000 0.000000" charge=0
C	-1.883202	0.246511	0.001351	6
C	-0.403622	0.153251	0.000141	6
N	0.351897	1.258191	-0.005179	7
N	1.611038	0.792971	-0.004889	7
C	1.686237	-0.568149	0.000141	6
C	0.388638	-1.018179	0.003461	6
H	-2.222142	1.287601	0.015341	1
H	-2.295362	-0.255569	0.882311	1
H	-2.294922	-0.231989	-0.892839	1
H	2.370968	1.464471	-0.008379	1
H	2.635877	-1.083049	0.000861	1
H	0.054598	-2.046059	0.007681	1
Es	0.038502	0.761657	0.216260	99
Es	0.352129	1.257601	-0.005175	99
Es	-2.154617	-0.083686	-0.591794	99
Es	0.388631	-1.018215	0.003461	99
Es	1.068971	-0.842645	0.016132	99
Es	0.272077	1.626440	-0.007084	99
Es	0.726870	-0.726190	-0.010367	99
Es	-2.149208	-0.091952	0.585585	99
Es	1.681802	0.206506	0.004665	99
Es	1.015558	1.017175	-0.006428	99
Es	-0.403647	0.153309	0.000143	99
Es	1.566265	0.604708	-0.010768	99
Es	-1.137250	0.194086	0.000533	99
Es	2.074799	1.181955	-0.005441	99
Es	-0.046176	-0.463938	0.000483	99
Es	2.329544	-0.909038	0.001418	99
Es	1.686346	-0.567959	0.000142	99
Es	0.155006	-1.713416	0.005659	99
Es	-1.883153	0.246488	0.001353	99
Es	1.610971	0.792988	-0.004934	99
Es	0.116461	0.757274	-0.222040	99
Es	-2.114628	0.944023	0.010474	99
34
Properties=species:S:1:pos:R:3:Z:I:1 energy=-263.92860406228743 field_type=dipole dipole="0.000000 0.000000 0.000000" charge=0
C	-1.883202	0.246511	0.001351	6
C	-0.403622	0.153251	0.000141	6
N	0.351897	1.258191	-0.005179	7
N	1.611038	0.792971	-0.004889	7
C	1.686237	-0.568149	0.000141	6
C	0.388638	-1.018179	0.003461	6
H	-2.222142	1.287601	0.015341	1
H	-2.295362	-0.255569	0.882311	1
H	-2.294922	-0.231989	-0.892839	1
H	2.370968	1.464471	-0.008379	1
H	2.635877	-1.083049	0.000861	1
H	0.054598	-2.046059	0.007681	1
Es	0.038819	0.760136	-0.227372	99
Es	0.272121	1.626176	-0.002814	99
Es	1.681811	0.206489	-0.010094	99
Es	0.388632	-1.018213	0.003459	99
Es	0.726807	-0.725938	0.013902	99
Es	-1.883151	0.246488	0.001351	99
Es	0.352136	1.257594	-0.005178	99
Es	1.610918	0.792790	-0.004253	99
Es	1.015576	1.017312	-0.003824	99
Es	-2.160218	-0.105388	0.583126	99
Es	1.566402	0.604890	0.000931	99
Es	2.329563	-0.909010	-0.000067	99
Es	-2.143627	-0.070228	-0.588673	99
Es	1.686346	-0.567961	0.000138	99
Es	-2.114643	0.943956	0.010463	99
Es	0.154981	-1.713379	0.005970	99
Es	-1.137221	0.194129	0.000759	99
Es	2.074790	1.181984	-0.006801	99
Es	0.116039	0.758774	0.220034	99
Es	-0.403647	0.153309	0.000140	99
Es	1.069046	-0.842845	-0.009575	99
Es	-0.046229	-0.463896	0.000654	99
34
Properties=species:S:1:pos:R:3:Z:I:1 energy=-263.92860406228743 field_type=dipole dipole="0.000000 0.000000 0.000000" charge=0
C	-1.883202	0.246511	0.001351	6
C	-0.403622	0.153251	0.000141	6
N	0.351897	1.258191	-0.005179	7
N	1.611038	0.792971	-0.004889	7
C	1.686237	-0.568149	0.000141	6
C	0.388638	-1.018179	0.003461	6
H	-2.222142	1.287601	0.015341	1
H	-2.295362	-0.255569	0.882311	1
H	-2.294922	-0.231989	-0.892839	1
H	2.370968	1.464471	-0.008379	1
H	2.635877	-1.083049	0.000861	1
H	0.054598	-2.046059	0.007681	1
Es	1.686346	-0.567961	0.000136	99
Es	0.388631	-1.018215	0.003461	99
Es	-2.114523	0.943893	0.010319	99
Es	1.015614	1.017402	-0.003125	99
Es	1.566542	0.604470	0.001669	99
Es	-2.143508	-0.070141	-0.588675	99
Es	2.074826	1.181932	-0.006420	99
Es	0.117545	0.758932	0.216634	99
Es	2.329576	-0.909030	-0.000130	99
Es	1.069017	-0.842737	-0.008786	99
Es	1.681779	0.206448	-0.010813	99
Es	-0.046163	-0.463856	0.001044	99
Es	0.272228	1.626090	-0.003604	99
Es	-1.137252	0.194108	0.000829	99
Es	0.037374	0.760158	-0.223320	99
Es	1.610964	0.792955	-0.005140	99
Es	-2.160447	-0.105462	0.583187	99
Es	0.352131	1.257592	-0.005178	99
Es	-0.403647	0.153309	0.000142	99
Es	0.726417	-0.725822	0.012895	99
Es	-1.883152	0.246488	0.001350	99
Es	0.154955	-1.713383	0.005802	99
34
Properties=species:S:1:pos:R:3:Z:I:1 energy=-263.92860406228743 field_type=dipole dipole="0.000000 0.000000 0.000000" charge=0
C	-1.883202	0.246511	0.001351	6
C	-0.403622	0.153251	0.000141	6
N	0.351897	1.258191	-0.005179	7
N	1.611038	0.792971	-0.004889	7
C	1.686237	-0.568149	0.000141	6
C	0.388638	-1.018179	0.003461	6
H	-2.222142	1.287601	0.015341	1
H	-2.295362	-0.255569	0.882311	1
H	-2.294922	-0.231989	-0.892839	1
H	2.370968	1.464471	-0.008379	1
H	2.635877	-1.083049	0.000861	1
H	0.054598	-2.046059	0.007681	1
Es	0.035597	0.760365	-0.218343	99
Es	0.352133	1.257585	-0.005182	99
Es	-2.144924	-0.071811	-0.589510	99
Es	2.329613	-0.908956	-0.000140	99
Es	-0.403647	0.153309	0.000141	99
Es	-0.046145	-0.463896	0.001710	99
Es	0.272215	1.625987	-0.003567	99
Es	1.686346	-0.567961	0.000138	99
Es	0.388631	-1.018214	0.003468	99
Es	0.725999	-0.725825	0.014031	99
Es	0.119584	0.758920	0.211489	99
Es	1.610965	0.792964	-0.004663	99
Es	1.681657	0.206462	-0.009583	99
Es	2.074900	1.181873	-0.007160	99
Es	-2.114511	0.943877	0.010183	99
Es	0.154940	-1.713353	0.006218	99
Es	-1.137235	0.194046	0.000799	99
Es	-2.159068	-0.103732	0.584298	99
Es	-1.883151	0.246488	0.001351	99
Es	1.015663	1.017455	-0.003607	99
Es	1.069022	-0.842753	-0.010648	99
Es	1.566663	0.604341	0.000855	99
34
Properties=species:S:1:pos:R:3:Z:I:1 energy=-263.92860406228743 field_type=dipole dipole="0.000000 0.000000 0.000000" charge=0
C	-1.883202	0.246511	0.001351	6
C	-0.403622	0.153251	0.000141	6
N	0.351897	1.258191	-0.005179	7
N	1.611038	0.792971	-0.004889	7
C	1.686237	-0.568149	0.000141	6
C	0.388638	-1.018179	0.003461	6
H	-2.222142	1.287601	0.015341	1
H	-2.295362	-0.255569	0.882311	1
H	-2.294922	-0.231989	-0.892839	1
H	2.370968	1.464471	-0.008379	1
H	2.635877	-1.083049	0.000861	1
H	0.054598	-2.046059	0.007681	1
Es	-2.114536	0.943717	0.010706	99
Es	-0.403647	0.153309	0.000139	99
Es	2.074875	1.181904	-0.004997	99
Es	1.610969	0.792977	-0.005035	99
Es	0.725731	-0.726051	-0.013762	99
Es	1.681766	0.206497	0.001238	99
Es	0.272438	1.625893	-0.006673	99
Es	-2.150460	-0.093469	0.585841	99
Es	0.352134	1.257588	-0.005167	99
Es	2.329594	-0.908951	0.001564	99
Es	1.686346	-0.567958	0.000142	99
Es	0.388630	-1.018216	0.003472	99
Es	0.154862	-1.713342	0.005531	99
Es	1.068897	-0.842566	0.020139	99
Es	-1.137240	0.194333	0.000566	99
Es	-0.046058	-0.463912	-0.000085	99
Es	-1.883151	0.246488	0.001351	99
Es	0.121984	0.757435	-0.208010	99
Es	0.033280	0.762115	0.201711	99
Es	1.566729	0.604251	-0.007737	99
Es	1.015616	1.017295	-0.006238	99
Es	-2.153510	-0.082170	-0.592419	99
34
Properties=species:S:1:pos:R:3:Z:I:1 energy=-263.92860406228743 field_type=dipole dipole="0.000000 0.000000 0.000000" charge=0
C	-1.883202	0.246511	0.001351	6
C	-0.403622	0.153251	0.000141	6
N	0.351897	1.258191	-0.005179	7
N	1.611038	0.792971	-0.004889	7
C	1.686237	-0.568149	0.000141	6
C	0.388638	-1.018179	0.003461	6
H	-2.222142	1.287601	0.015341	1
H	-2.295362	-0.255569	0.882311	1
H	-2.294922	-0.231989	-0.892839	1
H	2.370968	1.464471	-0.008379	1
H	2.635877	-1.083049	0.000861	1
H	0.054598	-2.046059	0.007681	1
Es	-2.149616	-0.092361	0.585660	99
Es	-0.046076	-0.463894	-0.000116	99
Es	1.566875	0.604095	-0.008648	99
Es	0.352140	1.257616	-0.005172	99
Es	0.388631	-1.018215	0.003468	99
Es	2.074864	1.181903	-0.005398	99
Es	1.681773	0.206509	0.002896	99
Es	0.272404	1.625865	-0.006983	99
Es	0.725362	-0.725898	-0.011041	99
Es	2.329593	-0.908909	0.001645	99
Es	0.122613	0.757439	-0.206283	99
Es	-2.154384	-0.083207	-0.592125	99
Es	1.610972	0.792988	-0.004891	99
Es	-1.883152	0.246488	0.001351	99
Es	0.154844	-1.713320	0.005577	99
Es	-1.137180	0.194279	0.000544	99
Es	-2.114559	0.943658	0.010625	99
Es	1.068976	-0.842654	0.017353	99
Es	1.686346	-0.567961	0.000144	99
Es	0.032824	0.762150	0.200453	99
Es	1.015645	1.017287	-0.006921	99
Es	-0.403647	0.153309	0.000140	99
34
Properties=species:S:1:pos:R:3:Z:I:1 energy=-263.92860406228743 field_type=dipole dipole="0.000000 0.000000 0.000000" charge=0
C	-1.883202	0.246511	0.001351	6
C	-0.403622	0.153251	0.000141	6
N	0.351897	1.258191	-0.005179	7
N	1.611038	0.792971	-0.004889	7
C	1.686237	-0.568149	0.000141	6
C	0.388638	-1.018179	0.003461	6
H	-2.222142	1.287601	0.015341	1
H	-2.295362	-0.255569	0.882311	1
H	-2.294922	-0.231989	-0.892839	1
H	2.370968	1.464471	-0.008379	1
H	2.635877	-1.083049	0.000861	1
H	0.054598	-2.046059	0.007681	1
Es	1.686346	-0.567961	0.000139	99
Es	1.015685	1.017491	-0.003344	99
Es	0.352121	1.257597	-0.005181	99
Es	-0.046086	-0.463856	0.001713	99
Es	-1.883151	0.246489	0.001351	99
Es	1.610969	0.792982	-0.004772	99
Es	0.388632	-1.018214	0.003434	99
Es	0.725093	-0.725642	0.012997	99
Es	-0.403647	0.153310	0.000138	99
Es	1.069073	-0.842841	-0.009508	99
Es	0.154818	-1.713293	0.006239	99
Es	2.329672	-0.908885	-0.000210	99
Es	1.567062	0.603737	0.003600	99
Es	2.074906	1.181874	-0.006992	99
Es	0.032581	0.760729	-0.209150	99
Es	-2.144874	-0.071617	-0.589582	99
Es	0.272500	1.625656	-0.004497	99
Es	-2.114294	0.943665	0.010125	99
Es	-1.137216	0.194180	0.000770	99
Es	1.681612	0.206508	-0.012664	99
Es	-2.159344	-0.103886	0.584490	99
Es	0.122793	0.759147	0.203181	99
34
Properties=species:S:1:pos:R:3:Z:I:1 energy=-263.92860406228743 field_type=dipole dipole="0.000000 0.000000 0.000000" charge=0
C	-1.883202	0.246511	0.001351	6
C	-0.403622	0.153251	0.000141	6
N	0.351897	1.258191	-0.005179	7
N	1.611038	0.792971	-0.004889	7
C	1.686237	-0.568149	0.000141	6
C	0.388638	-1.018179	0.003461	6
H	-2.222142	1.287601	0.015341	1
H	-2.295362	-0.255569	0.882311	1
H	-2.294922	-0.231989	-0.892839	1
H	2.370968	1.464471	-0.008379	1
H	2.635877	-1.083049	0.000861	1
H	0.054598	-2.046059	0.007681	1
Es	0.121999	0.759088	0.205939	99
Es	1.686347	-0.567961	0.000138	99
Es	-1.883151	0.246488	0.001351	99
Es	0.388631	-1.018215	0.003460	99
Es	-1.137186	0.194302	0.000718	99
Es	-2.114537	0.943604	0.010429	99
Es	-0.046154	-0.463855	0.001658	99
Es	0.352143	1.257584	-0.005177	99
Es	2.329651	-0.908890	-0.000088	99
Es	-0.403647	0.153309	0.000140	99
Es	1.069075	-0.842784	-0.008190	99
Es	1.567172	0.603659	0.004269	99
Es	1.681616	0.206581	-0.013381	99
Es	-2.142990	-0.069361	-0.588243	99
Es	0.272355	1.625611	-0.003183	99
Es	1.610969	0.792976	-0.005042	99
Es	0.033571	0.760669	-0.213087	99
Es	0.724894	-0.725539	0.011945	99
Es	-2.161044	-0.106207	0.582735	99
Es	2.074944	1.181841	-0.006371	99
Es	0.154882	-1.713300	0.005774	99
Es	1.015711	1.017570	-0.003517	99
34
Properties=species:S:1:pos:R:3:Z:I:1 energy=-263.92860406228743 field_type=dipole dipole="0.000000 0.000000 0.000000" charge=0
C	-1.883202	0.246511	0.001351	6
C	-0.403622	0.153251	0.000141	6
N	0.351897	1.258191	-0.005179	7
N	1.611038	0.792971	-0.004889	7
C	1.686237	-0.568149	0.000141	6
C	0.388638	-1.018179	0.003461	6
H	-2.222142	1.287601	0.015341	1
H	-2.295362	-0.255569	0.882311	1
H	-2.294922	-0.231989	-0.892839	1
H	2.370968	1.464471	-0.008379	1
H	2.635877	-1.083049	0.000861	1
H	0.054598	-2.046059	0.007681	1
Es	-1.883152	0.246486	0.001353	99
Es	-1.137212	0.194220	0.000843	99
Es	-0.403647	0.153310	0.000138	99
Es	-2.159761	-0.104269	0.584261	99
Es	0.352131	1.257591	-0.005176	99
Es	1.069027	-0.842774	-0.007543	99
Es	-2.114216	0.943598	0.010127	99
Es	2.329674	-0.908875	-0.000335	99
Es	1.015704	1.017508	-0.003008	99
Es	-2.144557	-0.071166	-0.589386	99
Es	1.681637	0.206479	-0.012438	99
Es	0.154765	-1.713286	0.006179	99
Es	0.388631	-1.018215	0.003461	99
Es	0.123919	0.758877	0.199982	99
Es	0.031525	0.760886	-0.206319	99
Es	1.567153	0.603808	0.003515	99
Es	1.686346	-0.567961	0.000138	99
Es	0.724814	-0.725555	0.011089	99
Es	-0.046005	-0.463871	0.001528	99
Es	0.272540	1.625563	-0.003949	99
Es	1.610972	0.792988	-0.004874	99
Es	2.074961	1.181826	-0.007310	99
34
Properties=species:S:1:pos:R:3:Z:I:1 energy=-263.92860406228743 field_type=dipole dipole="0.000000 0.000000 0.000000" charge=0
C	-1.883202	0.246511	0.001351	6
C	-0.403622	0.153251	0.000141	6
N	0.351897	1.258191	-0.005179	7
N	1.611038	0.792971	-0.004889	7
C	1.686237	-0.568149	0.000141	6
C	0.388638	-1.018179	0.003461	6
H	-2.222142	1.287601	0.015341	1
H	-2.295362	-0.255569	0.882311	1
H	-2.294922	-0.231989	-0.892839	1
H	2.370968	1.464471	-0.008379	1
H	2.635877	-1.083049	0.000861	1
H	0.054598	-2.046059	0.007681	1
Es	-0.045990	-0.463820	0.001229	99
Es	-0.403647	0.153309	0.000138	99
Es	0.154722	-1.713272	0.006308	99
Es	0.030896	0.760833	-0.203749	99
Es	0.724615	-0.725555	0.018141	99
Es	0.388631	-1.018215	0.003460	99
Es	2.074987	1.181808	-0.006990	99
Es	0.352132	1.257592	-0.005178	99
Es	1.686346	-0.567961	0.000138	99
Es	1.681686	0.206633	-0.011601	99
Es	-2.114454	0.943505	0.010077	99
Es	-1.883151	0.246488	0.001351	99
Es	-2.159173	-0.103759	0.584555	99
Es	1.610973	0.792977	-0.004786	99
Es	2.329649	-0.908885	-0.000060	99
Es	1.015660	1.017526	-0.004193	99
Es	0.272411	1.625548	-0.004147	99
Es	-2.144969	-0.071745	-0.589476	99
Es	1.567283	0.603549	0.003431	99
Es	0.124883	0.759083	0.197541	99
Es	1.068919	-0.842744	-0.014507	99
Es	-1.137158	0.194275	0.000594	99
34
Properties=species:S:1:pos:R:3:Z:I:1 energy=-263.92860406228743 field_type=dipole dipole="0.000000 0.000000 0.000000" charge=0
C	-1.883202	0.246511	0.001351	6
C	-0.403622	0.153251	0.000141	6
N	0.351897	1.258191	-0.005179	7
N	1.611038	0.792971	-0.004889	7
C	1.686237	-0.568149	0.000141	6
C	0.388638	-1.018179	0.003461	6
H	-2.222142	1.287601	0.015341	1
H	-2.295362	-0.255569	0.882311	1
H	-2.294922	-0.231989	-0.892839	1
H	2.370968	1.464471	-0.008379	1
H	2.635877	-1.083049	0.000861	1
H	0.054598	-2.046059	0.007681	1
Es	0.388631	-1.018215	0.003460	99
Es	0.154731	-1.713267	0.005662	99
Es	0.029390	0.762487	0.189352	99
Es	-1.883152	0.246488	0.001351	99
Es	1.015721	1.017531	-0.006743	99
Es	-0.403647	0.153309	0.000139	99
Es	-2.154507	-0.082988	-0.592311	99
Es	0.352130	1.257596	-0.005175	99
Es	-1.137170	0.194245	0.000494	99
Es	0.272479	1.625429	-0.007401	99
Es	1.610968	0.792980	-0.004742	99
Es	2.329639	-0.908921	0.001622	99
Es	1.068902	-0.842542	0.020077	99
Es	0.724246	-0.725777	-0.013754	99
Es	2.075009	1.181774	-0.004866	99
Es	1.567304	0.603626	-0.007156	99
Es	0.126573	0.757585	-0.195109	99
Es	-2.149798	-0.092422	0.585851	99
Es	1.686346	-0.567960	0.000143	99
Es	1.681690	0.206594	0.000597	99
Es	-2.114289	0.943468	0.010712	99
Es	-0.045948	-0.463848	0.000071	99
