34
Properties=species:S:1:pos:R:3:Z:I:1 energy=-263.9009788822856 field_type=dipole dipole="0.000000 0.000000 0.000000" charge=0
C	-1.506626	-0.327971	0.398046	6
C	-0.019146	-0.307241	0.471306	6
N	0.769574	-0.999951	-0.538864	7
C	0.795804	0.472919	-0.535894	6
C	1.961824	1.180409	-0.076654	6
N	2.882994	1.780969	0.290796	7
H	-1.923676	0.455329	1.038756	1
H	-1.889696	-1.291941	0.747626	1
H	-1.875066	-0.163271	-0.620094	1
H	0.344114	-0.395591	1.489756	1
H	0.185914	-1.345591	-1.301904	1
H	0.273984	0.941929	-1.362874	1
Es	0.769090	-0.999555	-0.538980	99
Es	-0.758504	-0.312165	0.414123	99
Es	2.421041	1.703602	-0.111263	99
Es	0.369538	-0.827422	-0.066854	99
Es	-1.754935	-0.980879	0.633627	99
Es	1.422543	0.830055	-0.303822	99
Es	-1.744926	-0.217753	-0.300290	99
Es	3.174289	1.971700	0.407741	99
Es	2.882623	1.780732	0.290654	99
Es	0.795933	0.472732	-0.535806	99
Es	0.233044	-0.361272	1.154023	99
Es	0.363484	0.308112	0.041277	99
Es	0.404746	-1.179684	-0.993678	99
Es	2.324918	1.561656	0.394752	99
Es	1.961533	1.180222	-0.076761	99
Es	2.632092	1.254623	0.088036	99
Es	0.454673	0.796060	-1.082636	99
Es	-0.019018	-0.307261	0.471074	99
Es	1.060992	-1.173770	-0.445031	99
Es	-1.506590	-0.327969	0.398039	99
Es	0.871731	-0.325187	-0.647452	99
Es	-1.780866	0.201117	0.831005	99
34
Properties=species:S:1:pos:R:3:Z:I:1 energy=-263.9009788822856 field_type=dipole dipole="0.000000 0.000000 0.000000" charge=0
C	-1.506626	-0.327971	0.398046	6
C	-0.019146	-0.307241	0.471306	6
N	0.769574	-0.999951	-0.538864	7
C	0.795804	0.472919	-0.535894	6
C	1.961824	1.180409	-0.076654	6
N	2.882994	1.780969	0.290796	7
H	-1.923676	0.455329	1.038756	1
H	-1.889696	-1.291941	0.747626	1
H	-1.875066	-0.163271	-0.620094	1
H	0.344114	-0.395591	1.489756	1
H	0.185914	-1.345591	-1.301904	1
H	0.273984	0.941929	-1.362874	1
Es	1.049522	-1.167558	-0.445075	99
Es	-1.780572	0.200801	0.829046	99
Es	0.878324	-0.322428	-0.647751	99
Es	-1.756780	-0.982538	0.633921	99
Es	1.424568	0.829237	-0.302254	99
Es	1.961529	1.180219	-0.076768	99
Es	2.634735	1.384716	-0.093930	99
Es	0.232827	-0.361700	1.152679	99
Es	-1.744262	-0.216970	-0.298343	99
Es	0.363001	0.309433	0.039239	99
Es	2.882632	1.780736	0.290654	99
Es	2.307552	1.754899	0.065189	99
Es	0.455717	0.793816	-1.081141	99
Es	-1.506590	-0.327969	0.398040	99
Es	-0.019016	-0.307261	0.471072	99
Es	2.435460	1.374947	0.401020	99
Es	-0.758240	-0.312447	0.414228	99
Es	0.372149	-0.829885	-0.063356	99
Es	0.405701	-1.185436	-0.995528	99
Es	0.795934	0.472735	-0.535804	99
Es	3.174188	1.979876	0.405631	99
Es	0.769051	-0.999530	-0.538991	99
34
Properties=species:S:1:pos:R:3:Z:I:1 energy=-263.9009788822856 field_type=dipole dipole="0.000000 0.000000 0.000000" charge=0
C	-1.506626	-0.327971	0.398046	6
C	-0.019146	-0.307241	0.471306	6
N	0.769574	-0.999951	-0.538864	7
C	0.795804	0.472919	-0.535894	6
C	1.961824	1.180409	-0.076654	6
N	2.882994	1.780969	0.290796	7
H	-1.923676	0.455329	1.038756	1
H	-1.889696	-1.291941	0.747626	1
H	-1.875066	-0.163271	-0.620094	1
H	0.344114	-0.395591	1.489756	1
H	0.185914	-1.345591	-1.301904	1
H	0.273984	0.941929	-1.362874	1
Es	0.374512	-0.830979	-0.061098	99
Es	0.769065	-0.999532	-0.538975	99
Es	2.290126	1.742522	0.135150	99
Es	0.362787	0.310191	0.037954	99
Es	-1.780472	0.200249	0.827787	99
Es	1.425332	0.829507	-0.301435	99
Es	-1.758171	-0.983475	0.633690	99
Es	0.405753	-1.188729	-0.996426	99
Es	1.040697	-1.163018	-0.445858	99
Es	2.474842	1.327489	0.368266	99
Es	3.174401	1.982587	0.405864	99
Es	0.795939	0.472744	-0.535809	99
Es	2.882645	1.780745	0.290660	99
Es	0.883940	-0.321873	-0.647641	99
Es	-0.019017	-0.307265	0.471071	99
Es	2.612572	1.442921	-0.132156	99
Es	0.232714	-0.361964	1.151700	99
Es	0.456596	0.792210	-1.079797	99
Es	-1.743798	-0.216315	-0.296725	99
Es	-0.757967	-0.312560	0.414276	99
Es	-1.506590	-0.327969	0.398040	99
Es	1.961525	1.180208	-0.076760	99
34
Properties=species:S:1:pos:R:3:Z:I:1 energy=-263.9009788822856 field_type=dipole dipole="0.000000 0.000000 0.000000" charge=0
C	-1.506626	-0.327971	0.398046	6
C	-0.019146	-0.307241	0.471306	6
N	0.769574	-0.999951	-0.538864	7
C	0.795804	0.472919	-0.535894	6
C	1.961824	1.180409	-0.076654	6
N	2.882994	1.780969	0.290796	7
H	-1.923676	0.455329	1.038756	1
H	-1.889696	-1.291941	0.747626	1
H	-1.875066	-0.163271	-0.620094	1
H	0.344114	-0.395591	1.489756	1
H	0.185914	-1.345591	-1.301904	1
H	0.273984	0.941929	-1.362874	1
Es	1.033164	-1.159165	-0.446433	99
Es	2.304592	1.742749	0.093711	99
Es	1.961526	1.180214	-0.076767	99
Es	2.882633	1.780737	0.290655	99
Es	0.769147	-0.999632	-0.538966	99
Es	0.405701	-1.191166	-0.996809	99
Es	-0.757667	-0.312528	0.414381	99
Es	0.232513	-0.362129	1.150801	99
Es	2.448498	1.358533	0.389346	99
Es	3.174194	1.985052	0.404718	99
Es	0.362755	0.311221	0.036970	99
Es	0.795940	0.472741	-0.535809	99
Es	-1.780638	0.199774	0.826679	99
Es	-1.759268	-0.984127	0.633312	99
Es	0.888729	-0.322251	-0.647184	99
Es	-1.743262	-0.215992	-0.295257	99
Es	2.624621	1.409812	-0.110985	99
Es	0.376581	-0.831670	-0.059920	99
Es	-0.019020	-0.307264	0.471073	99
Es	-1.506590	-0.327970	0.398040	99
Es	1.425830	0.829731	-0.301058	99
Es	0.457452	0.791024	-1.078721	99
34
Properties=species:S:1:pos:R:3:Z:I:1 energy=-263.9009788822856 field_type=dipole dipole="0.000000 0.000000 0.000000" charge=0
C	-1.506626	-0.327971	0.398046	6
C	-0.019146	-0.307241	0.471306	6
N	0.769574	-0.999951	-0.538864	7
C	0.795804	0.472919	-0.535894	6
C	1.961824	1.180409	-0.076654	6
N	2.882994	1.780969	0.290796	7
H	-1.923676	0.455329	1.038756	1
H	-1.889696	-1.291941	0.747626	1
H	-1.875066	-0.163271	-0.620094	1
H	0.344114	-0.395591	1.489756	1
H	0.185914	-1.345591	-1.301904	1
H	0.273984	0.941929	-1.362874	1
Es	2.544480	1.271613	0.269995	99
Es	1.961514	1.180201	-0.076750	99
Es	0.769068	-0.999555	-0.538983	99
Es	-1.743251	-0.215717	-0.294537	99
Es	-1.506589	-0.327968	0.398038	99
Es	1.426244	0.829761	-0.300852	99
Es	-0.019016	-0.307264	0.471072	99
Es	0.893269	-0.322855	-0.646830	99
Es	1.026852	-1.155851	-0.447232	99
Es	2.882631	1.780736	0.290654	99
Es	0.405661	-1.192806	-0.997026	99
Es	-0.757455	-0.312536	0.414368	99
Es	-1.759914	-0.984343	0.633278	99
Es	0.377964	-0.831753	-0.058684	99
Es	0.232513	-0.362405	1.150424	99
Es	2.551735	1.547639	-0.160722	99
Es	2.279717	1.693680	0.262029	99
Es	3.175853	1.983752	0.405277	99
Es	0.795936	0.472746	-0.535803	99
Es	0.362832	0.311386	0.036299	99
Es	-1.780584	0.199021	0.825855	99
Es	0.457970	0.790213	-1.078090	99
34
Properties=species:S:1:pos:R:3:Z:I:1 energy=-263.9009788822856 field_type=dipole dipole="0.000000 0.000000 0.000000" charge=0
C	-1.506626	-0.327971	0.398046	6
C	-0.019146	-0.307241	0.471306	6
N	0.769574	-0.999951	-0.538864	7
C	0.795804	0.472919	-0.535894	6
C	1.961824	1.180409	-0.076654	6
N	2.882994	1.780969	0.290796	7
H	-1.923676	0.455329	1.038756	1
H	-1.889696	-1.291941	0.747626	1
H	-1.875066	-0.163271	-0.620094	1
H	0.344114	-0.395591	1.489756	1
H	0.185914	-1.345591	-1.301904	1
H	0.273984	0.941929	-1.362874	1
Es	2.317177	1.736336	0.072095	99
Es	0.895484	-0.323775	-0.646166	99
Es	0.379626	-0.832259	-0.059135	99
Es	2.431268	1.380882	0.398534	99
Es	1.426256	0.830329	-0.300851	99
Es	0.363341	0.312595	0.035488	99
Es	-1.780829	0.198831	0.825145	99
Es	-1.760741	-0.984913	0.632626	99
Es	0.795946	0.472731	-0.535813	99
Es	-1.506591	-0.327968	0.398041	99
Es	0.232281	-0.362467	1.149539	99
Es	0.769043	-0.999524	-0.538993	99
Es	0.458359	0.789703	-1.076965	99
Es	3.174240	1.987227	0.403694	99
Es	2.629169	1.392249	-0.097618	99
Es	1.022886	-1.153796	-0.447328	99
Es	-0.019017	-0.307261	0.471071	99
Es	2.882631	1.780735	0.290654	99
Es	-0.757294	-0.312429	0.414557	99
Es	0.405235	-1.194199	-0.996873	99
Es	1.961519	1.180200	-0.076751	99
Es	-1.742557	-0.215532	-0.293171	99
34
Properties=species:S:1:pos:R:3:Z:I:1 energy=-263.9009788822856 field_type=dipole dipole="0.000000 0.000000 0.000000" charge=0
C	-1.506626	-0.327971	0.398046	6
C	-0.019146	-0.307241	0.471306	6
N	0.769574	-0.999951	-0.538864	7
C	0.795804	0.472919	-0.535894	6
C	1.961824	1.180409	-0.076654	6
N	2.882994	1.780969	0.290796	7
H	-1.923676	0.455329	1.038756	1
H	-1.889696	-1.291941	0.747626	1
H	-1.875066	-0.163271	-0.620094	1
H	0.344114	-0.395591	1.489756	1
H	0.185914	-1.345591	-1.301904	1
H	0.273984	0.941929	-1.362874	1
Es	-1.780516	0.197967	0.824404	99
Es	2.882632	1.780736	0.290654	99
Es	1.426653	0.830102	-0.300708	99
Es	2.572391	1.264244	0.210822	99
Es	0.232284	-0.362626	1.149364	99
Es	-0.757091	-0.312521	0.414582	99
Es	3.176706	1.984368	0.404075	99
Es	0.795944	0.472734	-0.535811	99
Es	-0.019024	-0.307261	0.471080	99
Es	0.380674	-0.831875	-0.058436	99
Es	2.515602	1.594405	-0.155005	99
Es	2.286908	1.654126	0.316772	99
Es	0.458754	0.789235	-1.076638	99
Es	0.363219	0.312383	0.035211	99
Es	-1.761402	-0.984975	0.632684	99
Es	0.769057	-0.999537	-0.538992	99
Es	-1.742629	-0.215135	-0.292753	99
Es	1.961527	1.180196	-0.076767	99
Es	1.018443	-1.151545	-0.447996	99
Es	-1.506590	-0.327970	0.398039	99
Es	0.899129	-0.324423	-0.646166	99
Es	0.404760	-1.194935	-0.996634	99
34
Properties=species:S:1:pos:R:3:Z:I:1 energy=-263.9009788822856 field_type=dipole dipole="0.000000 0.000000 0.000000" charge=0
C	-1.506626	-0.327971	0.398046	6
C	-0.019146	-0.307241	0.471306	6
N	0.769574	-0.999951	-0.538864	7
C	0.795804	0.472919	-0.535894	6
C	1.961824	1.180409	-0.076654	6
N	2.882994	1.780969	0.290796	7
H	-1.923676	0.455329	1.038756	1
H	-1.889696	-1.291941	0.747626	1
H	-1.875066	-0.163271	-0.620094	1
H	0.344114	-0.395591	1.489756	1
H	0.185914	-1.345591	-1.301904	1
H	0.273984	0.941929	-1.362874	1
Es	1.015923	-1.150054	-0.448176	99
Es	0.364128	0.313538	0.034474	99
Es	-1.742162	-0.214881	-0.291858	99
Es	-0.757040	-0.312349	0.414712	99
Es	2.637097	1.356676	-0.065595	99
Es	-1.506590	-0.327970	0.398040	99
Es	2.339463	1.728132	0.029788	99
Es	0.404244	-1.195831	-0.996337	99
Es	1.426555	0.830571	-0.300772	99
Es	-1.780489	0.197608	0.823782	99
Es	2.400511	1.424157	0.410140	99
Es	0.232024	-0.362869	1.148694	99
Es	0.458874	0.788969	-1.076167	99
Es	0.900232	-0.325289	-0.644959	99
Es	-1.762055	-0.985414	0.632298	99
Es	0.769049	-0.999529	-0.538992	99
Es	3.174614	1.988080	0.402520	99
Es	-0.019018	-0.307257	0.471074	99
Es	2.882633	1.780738	0.290654	99
Es	0.795938	0.472744	-0.535805	99
Es	0.381980	-0.832274	-0.058976	99
Es	1.961521	1.180196	-0.076761	99
34
Properties=species:S:1:pos:R:3:Z:I:1 energy=-263.9009788822856 field_type=dipole dipole="0.000000 0.000000 0.000000" charge=0
C	-1.506626	-0.327971	0.398046	6
C	-0.019146	-0.307241	0.471306	6
N	0.769574	-0.999951	-0.538864	7
C	0.795804	0.472919	-0.535894	6
C	1.961824	1.180409	-0.076654	6
N	2.882994	1.780969	0.290796	7
H	-1.923676	0.455329	1.038756	1
H	-1.889696	-1.291941	0.747626	1
H	-1.875066	-0.163271	-0.620094	1
H	0.344114	-0.395591	1.489756	1
H	0.185914	-1.345591	-1.301904	1
H	0.273984	0.941929	-1.362874	1
Es	-1.506591	-0.327970	0.398040	99
Es	-1.780616	0.197082	0.823574	99
Es	-1.742205	-0.214761	-0.291859	99
Es	-1.762140	-0.985310	0.632121	99
Es	0.382353	-0.831871	-0.058179	99
Es	2.281042	1.689038	0.265662	99
Es	-0.019017	-0.307259	0.471072	99
Es	2.543414	1.276529	0.263970	99
Es	0.459427	0.788487	-1.075623	99
Es	2.882634	1.780738	0.290655	99
Es	0.363430	0.312859	0.034352	99
Es	1.961519	1.180198	-0.076760	99
Es	0.404583	-1.196896	-0.996529	99
Es	0.769062	-0.999560	-0.538988	99
Es	1.426715	0.830461	-0.300462	99
Es	1.010841	-1.146956	-0.448713	99
Es	-0.756925	-0.312219	0.414978	99
Es	3.176042	1.985314	0.405493	99
Es	0.795934	0.472748	-0.535804	99
Es	2.551118	1.546460	-0.158602	99
Es	0.232164	-0.362728	1.148836	99
Es	0.904647	-0.326691	-0.645456	99
34
Properties=species:S:1:pos:R:3:Z:I:1 energy=-263.9009788822856 field_type=dipole dipole="0.000000 0.000000 0.000000" charge=0
C	-1.506626	-0.327971	0.398046	6
C	-0.019146	-0.307241	0.471306	6
N	0.769574	-0.999951	-0.538864	7
C	0.795804	0.472919	-0.535894	6
C	1.961824	1.180409	-0.076654	6
N	2.882994	1.780969	0.290796	7
H	-1.923676	0.455329	1.038756	1
H	-1.889696	-1.291941	0.747626	1
H	-1.875066	-0.163271	-0.620094	1
H	0.344114	-0.395591	1.489756	1
H	0.185914	-1.345591	-1.301904	1
H	0.273984	0.941929	-1.362874	1
Es	0.769064	-0.999525	-0.538989	99
Es	2.288941	1.646104	0.324458	99
Es	2.573253	1.268866	0.201624	99
Es	0.459497	0.788355	-1.075187	99
Es	-1.741971	-0.214610	-0.291161	99
Es	1.010208	-1.147000	-0.448334	99
Es	-0.019018	-0.307266	0.471073	99
Es	3.176816	1.985178	0.403985	99
Es	0.383050	-0.831508	-0.059169	99
Es	2.512505	1.597267	-0.153295	99
Es	-1.762616	-0.985499	0.631804	99
Es	-1.506590	-0.327970	0.398040	99
Es	0.904853	-0.327083	-0.644786	99
Es	0.364026	0.313655	0.034095	99
Es	2.882632	1.780736	0.290654	99
Es	-1.780616	0.196695	0.823101	99
Es	0.795946	0.472734	-0.535812	99
Es	1.426852	0.830555	-0.300651	99
Es	0.403943	-1.197079	-0.996196	99
Es	-0.756797	-0.312164	0.414953	99
Es	0.231931	-0.362942	1.148331	99
Es	1.961519	1.180195	-0.076759	99
34
Properties=species:S:1:pos:R:3:Z:I:1 energy=-263.9009788822856 field_type=dipole dipole="0.000000 0.000000 0.000000" charge=0
C	-1.506626	-0.327971	0.398046	6
C	-0.019146	-0.307241	0.471306	6
N	0.769574	-0.999951	-0.538864	7
C	0.795804	0.472919	-0.535894	6
C	1.961824	1.180409	-0.076654	6
N	2.882994	1.780969	0.290796	7
H	-1.923676	0.455329	1.038756	1
H	-1.889696	-1.291941	0.747626	1
H	-1.875066	-0.163271	-0.620094	1
H	0.344114	-0.395591	1.489756	1
H	0.185914	-1.345591	-1.301904	1
H	0.273984	0.941929	-1.362874	1
Es	2.501578	1.609841	-0.148264	99
Es	-0.019018	-0.307262	0.471073	99
Es	1.007449	-1.145343	-0.448740	99
Es	0.231889	-0.362855	1.148062	99
Es	-1.780650	0.196656	0.822927	99
Es	0.459744	0.788146	-1.074822	99
Es	0.769101	-0.999542	-0.538973	99
Es	0.403801	-1.197529	-0.996101	99
Es	0.364055	0.313751	0.033880	99
Es	-1.741707	-0.214540	-0.290647	99
Es	-1.762973	-0.985598	0.631459	99
Es	2.292364	1.635283	0.334828	99
Es	0.906929	-0.327983	-0.644554	99
Es	1.426964	0.830558	-0.300700	99
Es	-0.756795	-0.312321	0.414950	99
Es	-1.506589	-0.327970	0.398040	99
Es	3.176853	1.985379	0.403950	99
Es	0.795946	0.472733	-0.535813	99
Es	2.882632	1.780736	0.290654	99
Es	1.961523	1.180190	-0.076758	99
Es	2.580674	1.266988	0.186327	99
Es	0.383661	-0.831625	-0.059000	99
34
Properties=species:S:1:pos:R:3:Z:I:1 energy=-263.9009788822856 field_type=dipole dipole="0.000000 0.000000 0.000000" charge=0
C	-1.506626	-0.327971	0.398046	6
C	-0.019146	-0.307241	0.471306	6
N	0.769574	-0.999951	-0.538864	7
C	0.795804	0.472919	-0.535894	6
C	1.961824	1.180409	-0.076654	6
N	2.882994	1.780969	0.290796	7
H	-1.923676	0.455329	1.038756	1
H	-1.889696	-1.291941	0.747626	1
H	-1.875066	-0.163271	-0.620094	1
H	0.344114	-0.395591	1.489756	1
H	0.185914	-1.345591	-1.301904	1
H	0.273984	0.941929	-1.362874	1
Es	0.795945	0.472735	-0.535812	99
Es	0.365015	0.314764	0.033049	99
Es	-0.019016	-0.307263	0.471072	99
Es	1.961517	1.180200	-0.076763	99
Es	2.635636	1.360618	-0.068192	99
Es	0.231683	-0.363085	1.147589	99
Es	3.174492	1.988664	0.403364	99
Es	-1.741193	-0.214384	-0.289872	99
Es	0.769079	-0.999580	-0.538985	99
Es	1.006295	-1.144209	-0.449210	99
Es	0.403423	-1.198127	-0.995696	99
Es	1.426521	0.831281	-0.300469	99
Es	0.906820	-0.328615	-0.643621	99
Es	2.340097	1.725499	0.033361	99
Es	-1.763491	-0.985940	0.630963	99
Es	2.882635	1.780739	0.290655	99
Es	-0.756728	-0.312171	0.415149	99
Es	-1.506592	-0.327969	0.398040	99
Es	0.384771	-0.832323	-0.059362	99
Es	0.459719	0.788062	-1.074334	99
Es	2.401502	1.422371	0.408384	99
Es	-1.780699	0.196430	0.822468	99
34
Properties=species:S:1:pos:R:3:Z:I:1 energy=-263.9009788822856 field_type=dipole dipole="0.000000 0.000000 0.000000" charge=0
C	-1.506626	-0.327971	0.398046	6
C	-0.019146	-0.307241	0.471306	6
N	0.769574	-0.999951	-0.538864	7
C	0.795804	0.472919	-0.535894	6
C	1.961824	1.180409	-0.076654	6
N	2.882994	1.780969	0.290796	7
H	-1.923676	0.455329	1.038756	1
H	-1.889696	-1.291941	0.747626	1
H	-1.875066	-0.163271	-0.620094	1
H	0.344114	-0.395591	1.489756	1
H	0.185914	-1.345591	-1.301904	1
H	0.273984	0.941929	-1.362874	1
Es	1.961522	1.180191	-0.076763	99
Es	-0.019017	-0.307261	0.471072	99
Es	2.882632	1.780736	0.290654	99
Es	0.403395	-1.198545	-0.995730	99
Es	-1.740817	-0.214388	-0.289042	99
Es	-1.506589	-0.327970	0.398040	99
Es	1.426456	0.831481	-0.300481	99
Es	2.318797	1.728111	0.084469	99
Es	0.231563	-0.363065	1.147198	99
Es	2.434439	1.376851	0.393082	99
Es	0.769075	-0.999572	-0.538982	99
Es	-1.781024	0.196602	0.822599	99
Es	0.364585	0.315211	0.033296	99
Es	0.795938	0.472746	-0.535804	99
Es	2.624229	1.403998	-0.105974	99
Es	3.174284	1.988228	0.405293	99
Es	0.460266	0.787630	-1.073472	99
Es	-1.763700	-0.986106	0.630168	99
Es	-0.756716	-0.312206	0.415023	99
Es	1.004813	-1.143660	-0.448684	99
Es	0.385065	-0.831675	-0.060293	99
Es	0.908234	-0.329643	-0.643891	99
34
Properties=species:S:1:pos:R:3:Z:I:1 energy=-263.9009788822856 field_type=dipole dipole="0.000000 0.000000 0.000000" charge=0
C	-1.506626	-0.327971	0.398046	6
C	-0.019146	-0.307241	0.471306	6
N	0.769574	-0.999951	-0.538864	7
C	0.795804	0.472919	-0.535894	6
C	1.961824	1.180409	-0.076654	6
N	2.882994	1.780969	0.290796	7
H	-1.923676	0.455329	1.038756	1
H	-1.889696	-1.291941	0.747626	1
H	-1.875066	-0.163271	-0.620094	1
H	0.344114	-0.395591	1.489756	1
H	0.185914	-1.345591	-1.301904	1
H	0.273984	0.941929	-1.362874	1
Es	2.486725	1.320198	0.344400	99
Es	1.961519	1.180193	-0.076757	99
Es	0.403753	-1.199038	-0.995887	99
Es	-0.019016	-0.307263	0.471071	99
Es	3.174688	1.987255	0.406683	99
Es	0.363824	0.314772	0.033118	99
Es	-1.740927	-0.214300	-0.289079	99
Es	1.426550	0.831415	-0.300458	99
Es	2.292657	1.722736	0.167443	99
Es	-1.781003	0.196370	0.822592	99
Es	0.912048	-0.331324	-0.644177	99
Es	-0.756639	-0.312176	0.415007	99
Es	0.231764	-0.362934	1.147581	99
Es	2.597628	1.467093	-0.141675	99
Es	-1.763743	-0.985984	0.630109	99
Es	-1.506589	-0.327970	0.398040	99
Es	0.795945	0.472743	-0.535816	99
Es	0.460843	0.787223	-1.073202	99
Es	0.385279	-0.831908	-0.059124	99
Es	2.882632	1.780736	0.290654	99
Es	1.000453	-1.140609	-0.449749	99
Es	0.769042	-0.999533	-0.538997	99
34
Properties=species:S:1:pos:R:3:Z:I:1 energy=-263.9009788822856 field_type=dipole dipole="0.000000 0.000000 0.000000" charge=0
C	-1.506626	-0.327971	0.398046	6
C	-0.019146	-0.307241	0.471306	6
N	0.769574	-0.999951	-0.538864	7
C	0.795804	0.472919	-0.535894	6
C	1.961824	1.180409	-0.076654	6
N	2.882994	1.780969	0.290796	7
H	-1.923676	0.455329	1.038756	1
H	-1.889696	-1.291941	0.747626	1
H	-1.875066	-0.163271	-0.620094	1
H	0.344114	-0.395591	1.489756	1
H	0.185914	-1.345591	-1.301904	1
H	0.273984	0.941929	-1.362874	1
Es	2.418834	1.685298	-0.083227	99
Es	-1.741127	-0.214072	-0.289313	99
Es	1.961520	1.180196	-0.076763	99
Es	0.769041	-0.999540	-0.539001	99
Es	-1.780560	0.195449	0.821774	99
Es	0.460439	0.787432	-1.073825	99
Es	0.912635	-0.331115	-0.643306	99
Es	-0.756587	-0.311966	0.415314	99
Es	0.795956	0.472724	-0.535822	99
Es	-0.019017	-0.307262	0.471072	99
Es	2.330573	1.542482	0.395372	99
Es	-1.763978	-0.986056	0.630704	99
Es	1.426946	0.831130	-0.301058	99
Es	0.403475	-1.199222	-0.995569	99
Es	3.176379	1.987108	0.402223	99
Es	2.625696	1.282485	0.062953	99
Es	-1.506590	-0.327970	0.398040	99
Es	0.231743	-0.363202	1.147473	99
Es	0.999047	-1.139257	-0.450664	99
Es	0.385863	-0.832366	-0.058306	99
Es	0.364513	0.314683	0.033051	99
Es	2.882631	1.780735	0.290654	99
34
Properties=species:S:1:pos:R:3:Z:I:1 energy=-263.9009788822856 field_type=dipole dipole="0.000000 0.000000 0.000000" charge=0
C	-1.506626	-0.327971	0.398046	6
C	-0.019146	-0.307241	0.471306	6
N	0.769574	-0.999951	-0.538864	7
C	0.795804	0.472919	-0.535894	6
C	1.961824	1.180409	-0.076654	6
N	2.882994	1.780969	0.290796	7
H	-1.923676	0.455329	1.038756	1
H	-1.889696	-1.291941	0.747626	1
H	-1.875066	-0.163271	-0.620094	1
H	0.344114	-0.395591	1.489756	1
H	0.185914	-1.345591	-1.301904	1
H	0.273984	0.941929	-1.362874	1
Es	0.769229	-0.999681	-0.538928	99
Es	0.386314	-0.832094	-0.058754	99
Es	0.231724	-0.363154	1.147518	99
Es	2.281625	1.683808	0.272603	99
Es	0.364884	0.314627	0.032612	99
Es	-0.756527	-0.311996	0.415348	99
Es	-0.019016	-0.307262	0.471072	99
Es	0.795945	0.472730	-0.535820	99
Es	0.402971	-1.199174	-0.995401	99
Es	-1.780634	0.195236	0.821653	99
Es	-1.764006	-0.986011	0.630613	99
Es	-1.741110	-0.214058	-0.289324	99
Es	-1.506591	-0.327970	0.398040	99
Es	0.998718	-1.139197	-0.450649	99
Es	1.426807	0.831171	-0.300361	99
Es	2.550136	1.546898	-0.157848	99
Es	2.543824	1.280780	0.255971	99
Es	2.882632	1.780736	0.290654	99
Es	3.175915	1.986053	0.406166	99
Es	1.961522	1.180188	-0.076757	99
Es	0.460330	0.787484	-1.073610	99
Es	0.912739	-0.331420	-0.643017	99
34
Properties=species:S:1:pos:R:3:Z:I:1 energy=-263.9009788822856 field_type=dipole dipole="0.000000 0.000000 0.000000" charge=0
C	-1.506626	-0.327971	0.398046	6
C	-0.019146	-0.307241	0.471306	6
N	0.769574	-0.999951	-0.538864	7
C	0.795804	0.472919	-0.535894	6
C	1.961824	1.180409	-0.076654	6
N	2.882994	1.780969	0.290796	7
H	-1.923676	0.455329	1.038756	1
H	-1.889696	-1.291941	0.747626	1
H	-1.875066	-0.163271	-0.620094	1
H	0.344114	-0.395591	1.489756	1
H	0.185914	-1.345591	-1.301904	1
H	0.273984	0.941929	-1.362874	1
Es	0.386724	-0.832049	-0.059129	99
Es	2.368341	1.474186	0.410568	99
Es	0.231510	-0.363415	1.147141	99
Es	0.460150	0.787542	-1.073615	99
Es	0.769135	-0.999623	-0.538965	99
Es	0.402697	-1.199498	-0.994975	99
Es	1.426766	0.831406	-0.300610	99
Es	0.998566	-1.139041	-0.450581	99
Es	2.882631	1.780736	0.290654	99
Es	0.912441	-0.331554	-0.642410	99
Es	-1.764431	-0.986241	0.630521	99
Es	0.365622	0.315307	0.032277	99
Es	-1.740886	-0.213865	-0.288879	99
Es	3.175094	1.988683	0.402511	99
Es	-1.780406	0.194870	0.821174	99
Es	2.638393	1.321710	-0.019709	99
Es	2.369678	1.712827	-0.016130	99
Es	1.961522	1.180190	-0.076761	99
Es	-1.506590	-0.327971	0.398040	99
Es	0.795954	0.472727	-0.535821	99
Es	-0.019016	-0.307261	0.471071	99
Es	-0.756465	-0.311972	0.415405	99
34
Properties=species:S:1:pos:R:3:Z:I:1 energy=-263.9009788822856 field_type=dipole dipole="0.000000 0.000000 0.000000" charge=0
C	-1.506626	-0.327971	0.398046	6
C	-0.019146	-0.307241	0.471306	6
N	0.769574	-0.999951	-0.538864	7
C	0.795804	0.472919	-0.535894	6
C	1.961824	1.180409	-0.076654	6
N	2.882994	1.780969	0.290796	7
H	-1.923676	0.455329	1.038756	1
H	-1.889696	-1.291941	0.747626	1
H	-1.875066	-0.163271	-0.620094	1
H	0.344114	-0.395591	1.489756	1
H	0.185914	-1.345591	-1.301904	1
H	0.273984	0.941929	-1.362874	1
Es	-0.019014	-0.307258	0.471069	99
Es	-1.740627	-0.214031	-0.288494	99
Es	-1.780762	0.195168	0.821331	99
Es	-1.764517	-0.986156	0.630002	99
Es	0.913674	-0.332260	-0.642564	99
Es	1.961523	1.180188	-0.076759	99
Es	0.231548	-0.363231	1.147037	99
Es	0.386539	-0.831555	-0.059989	99
Es	0.460542	0.787292	-1.073146	99
Es	0.402571	-1.199309	-0.995214	99
Es	0.795949	0.472735	-0.535815	99
Es	2.882633	1.780737	0.290655	99
Es	0.997915	-1.139185	-0.450011	99
Es	1.426816	0.831330	-0.300425	99
Es	0.365149	0.315130	0.032401	99
Es	3.176711	1.985712	0.404922	99
Es	2.572971	1.271522	0.197603	99
Es	2.289952	1.642975	0.325873	99
Es	2.511796	1.597342	-0.151269	99
Es	-0.756469	-0.311869	0.415496	99
Es	-1.506589	-0.327972	0.398040	99
Es	0.769120	-0.999609	-0.538967	99
34
Properties=species:S:1:pos:R:3:Z:I:1 energy=-263.9009788822856 field_type=dipole dipole="0.000000 0.000000 0.000000" charge=0
C	-1.506626	-0.327971	0.398046	6
C	-0.019146	-0.307241	0.471306	6
N	0.769574	-0.999951	-0.538864	7
C	0.795804	0.472919	-0.535894	6
C	1.961824	1.180409	-0.076654	6
N	2.882994	1.780969	0.290796	7
H	-1.923676	0.455329	1.038756	1
H	-1.889696	-1.291941	0.747626	1
H	-1.875066	-0.163271	-0.620094	1
H	0.344114	-0.395591	1.489756	1
H	0.185914	-1.345591	-1.301904	1
H	0.273984	0.941929	-1.362874	1
Es	1.961524	1.180186	-0.076758	99
Es	2.343468	1.518129	0.402538	99
Es	0.231510	-0.363387	1.147013	99
Es	1.426842	0.831547	-0.301014	99
Es	-1.506589	-0.327970	0.398040	99
Es	0.795947	0.472738	-0.535812	99
Es	0.402954	-1.199904	-0.995119	99
Es	0.994642	-1.136404	-0.451216	99
Es	0.365057	0.315560	0.032378	99
Es	-0.019015	-0.307259	0.471069	99
Es	-0.756427	-0.311978	0.415379	99
Es	-1.740625	-0.213887	-0.288338	99
Es	0.769062	-0.999523	-0.538986	99
Es	0.460848	0.786985	-1.072971	99
Es	0.386991	-0.832156	-0.058725	99
Es	0.915866	-0.333631	-0.642430	99
Es	-1.764656	-0.986252	0.629986	99
Es	2.400861	1.697567	-0.062973	99
Es	3.175862	1.987841	0.402590	99
Es	2.631286	1.293835	0.035293	99
Es	-1.780610	0.194922	0.821180	99
Es	2.882632	1.780737	0.290654	99
34
Properties=species:S:1:pos:R:3:Z:I:1 energy=-263.9009788822856 field_type=dipole dipole="0.000000 0.000000 0.000000" charge=0
C	-1.506626	-0.327971	0.398046	6
C	-0.019146	-0.307241	0.471306	6
N	0.769574	-0.999951	-0.538864	7
C	0.795804	0.472919	-0.535894	6
C	1.961824	1.180409	-0.076654	6
N	2.882994	1.780969	0.290796	7
H	-1.923676	0.455329	1.038756	1
H	-1.889696	-1.291941	0.747626	1
H	-1.875066	-0.163271	-0.620094	1
H	0.344114	-0.395591	1.489756	1
H	0.185914	-1.345591	-1.301904	1
H	0.273984	0.941929	-1.362874	1
Es	-1.764551	-0.986215	0.629780	99
Es	0.916859	-0.334357	-0.642594	99
Es	0.769049	-0.999530	-0.538989	99
Es	-1.780769	0.194917	0.821331	99
Es	-0.756392	-0.311973	0.415341	99
Es	2.570012	1.516288	-0.155055	99
Es	0.364680	0.315407	0.032144	99
Es	0.231601	-0.363185	1.147144	99
Es	2.882632	1.780736	0.290654	99
Es	3.175347	1.986445	0.407308	99
Es	-1.506590	-0.327970	0.398040	99
Es	0.993661	-1.135865	-0.451004	99
Es	0.387050	-0.831821	-0.059149	99
Es	0.795943	0.472743	-0.535808	99
Es	-1.740655	-0.213908	-0.288280	99
Es	2.522995	1.292094	0.291813	99
Es	-0.019015	-0.307260	0.471070	99
Es	2.283128	1.702741	0.232955	99
Es	1.961520	1.180188	-0.076755	99
Es	0.402996	-1.200071	-0.995339	99
Es	0.461142	0.786908	-1.072464	99
Es	1.426788	0.831381	-0.300367	99
34
Properties=species:S:1:pos:R:3:Z:I:1 energy=-263.9009788822856 field_type=dipole dipole="0.000000 0.000000 0.000000" charge=0
C	-1.506626	-0.327971	0.398046	6
C	-0.019146	-0.307241	0.471306	6
N	0.769574	-0.999951	-0.538864	7
C	0.795804	0.472919	-0.535894	6
C	1.961824	1.180409	-0.076654	6
N	2.882994	1.780969	0.290796	7
H	-1.923676	0.455329	1.038756	1
H	-1.889696	-1.291941	0.747626	1
H	-1.875066	-0.163271	-0.620094	1
H	0.344114	-0.395591	1.489756	1
H	0.185914	-1.345591	-1.301904	1
H	0.273984	0.941929	-1.362874	1
Es	0.402145	-1.199698	-0.994817	99
Es	2.284965	1.663478	0.301257	99
Es	2.882632	1.780736	0.290654	99
Es	-0.756355	-0.311738	0.415692	99
Es	0.994777	-1.136816	-0.451051	99
Es	0.795940	0.472741	-0.535807	99
Es	-1.506590	-0.327971	0.398040	99
Es	1.961520	1.180192	-0.076759	99
Es	-1.780707	0.194539	0.820848	99
Es	-1.740458	-0.213851	-0.288119	99
Es	3.176227	1.985993	0.406033	99
Es	-1.764866	-0.986230	0.629720	99
Es	0.460737	0.787088	-1.072765	99
Es	0.231483	-0.363290	1.146928	99
Es	0.915709	-0.333632	-0.642059	99
Es	0.769131	-0.999550	-0.538963	99
Es	2.559329	1.274925	0.225472	99
Es	1.426787	0.831485	-0.300407	99
Es	2.530941	1.573132	-0.155598	99
Es	-0.019019	-0.307265	0.471074	99
Es	0.365347	0.315484	0.032134	99
Es	0.387756	-0.832060	-0.059727	99
34
Properties=species:S:1:pos:R:3:Z:I:1 energy=-263.9009788822856 field_type=dipole dipole="0.000000 0.000000 0.000000" charge=0
C	-1.506626	-0.327971	0.398046	6
C	-0.019146	-0.307241	0.471306	6
N	0.769574	-0.999951	-0.538864	7
C	0.795804	0.472919	-0.535894	6
C	1.961824	1.180409	-0.076654	6
N	2.882994	1.780969	0.290796	7
H	-1.923676	0.455329	1.038756	1
H	-1.889696	-1.291941	0.747626	1
H	-1.875066	-0.163271	-0.620094	1
H	0.344114	-0.395591	1.489756	1
H	0.185914	-1.345591	-1.301904	1
H	0.273984	0.941929	-1.362874	1
Es	0.387429	-0.831337	-0.060137	99
Es	-1.740441	-0.213779	-0.287982	99
Es	0.769043	-0.999536	-0.538992	99
Es	0.795952	0.472725	-0.535819	99
Es	2.536983	1.565042	-0.157418	99
Es	0.994277	-1.136558	-0.450548	99
Es	3.176262	1.985922	0.406120	99
Es	1.426786	0.831500	-0.300358	99
Es	2.284498	1.668971	0.293087	99
Es	-1.780708	0.194524	0.820917	99
Es	0.460878	0.786989	-1.072616	99
Es	0.231522	-0.363292	1.146852	99
Es	1.961522	1.180187	-0.076756	99
Es	2.882632	1.780736	0.290654	99
Es	-0.019015	-0.307261	0.471069	99
Es	-1.506589	-0.327971	0.398039	99
Es	0.916057	-0.334156	-0.641784	99
Es	-0.756387	-0.311948	0.415593	99
Es	2.553708	1.277621	0.235375	99
Es	0.365462	0.315783	0.031755	99
Es	-1.764870	-0.986317	0.629576	99
Es	0.402429	-1.200152	-0.994849	99
34
Properties=species:S:1:pos:R:3:Z:I:1 energy=-263.9009788822856 field_type=dipole dipole="0.000000 0.000000 0.000000" charge=0
C	-1.506626	-0.327971	0.398046	6
C	-0.019146	-0.307241	0.471306	6
N	0.769574	-0.999951	-0.538864	7
C	0.795804	0.472919	-0.535894	6
C	1.961824	1.180409	-0.076654	6
N	2.882994	1.780969	0.290796	7
H	-1.923676	0.455329	1.038756	1
H	-1.889696	-1.291941	0.747626	1
H	-1.875066	-0.163271	-0.620094	1
H	0.344114	-0.395591	1.489756	1
H	0.185914	-1.345591	-1.301904	1
H	0.273984	0.941929	-1.362874	1
Es	-1.506590	-0.327970	0.398040	99
Es	0.402015	-1.199900	-0.994743	99
Es	-1.740234	-0.213742	-0.287525	99
Es	2.512897	1.595887	-0.151062	99
Es	2.882632	1.780736	0.290654	99
Es	0.795946	0.472739	-0.535812	99
Es	2.289773	1.643771	0.324418	99
Es	0.994004	-1.136512	-0.450646	99
Es	-1.780766	0.194500	0.820860	99
Es	2.572050	1.272268	0.198332	99
Es	-0.019014	-0.307260	0.471069	99
Es	1.426879	0.831429	-0.300441	99
Es	0.916419	-0.334420	-0.641824	99
Es	1.961522	1.180186	-0.076758	99
Es	3.176650	1.985700	0.405577	99
Es	0.387746	-0.831459	-0.060254	99
Es	0.365610	0.315844	0.031888	99
Es	0.769084	-0.999581	-0.538983	99
Es	-0.756351	-0.311831	0.415522	99
Es	-1.765078	-0.986404	0.629213	99
Es	0.231362	-0.363302	1.146649	99
Es	0.460873	0.787013	-1.072396	99
34
Properties=species:S:1:pos:R:3:Z:I:1 energy=-263.9009788822856 field_type=dipole dipole="0.000000 0.000000 0.000000" charge=0
C	-1.506626	-0.327971	0.398046	6
C	-0.019146	-0.307241	0.471306	6
N	0.769574	-0.999951	-0.538864	7
C	0.795804	0.472919	-0.535894	6
C	1.961824	1.180409	-0.076654	6
N	2.882994	1.780969	0.290796	7
H	-1.923676	0.455329	1.038756	1
H	-1.889696	-1.291941	0.747626	1
H	-1.875066	-0.163271	-0.620094	1
H	0.344114	-0.395591	1.489756	1
H	0.185914	-1.345591	-1.301904	1
H	0.273984	0.941929	-1.362874	1
Es	2.882632	1.780736	0.290654	99
Es	0.917341	-0.335100	-0.641468	99
Es	1.961522	1.180188	-0.076758	99
Es	0.365740	0.315895	0.031675	99
Es	0.992493	-1.135219	-0.451186	99
Es	2.282900	1.682414	0.272212	99
Es	0.231414	-0.363354	1.146785	99
Es	-1.740392	-0.213628	-0.287752	99
Es	3.175864	1.986293	0.406582	99
Es	0.460891	0.787012	-1.072381	99
Es	1.426832	0.831457	-0.300333	99
Es	-0.756321	-0.311646	0.415647	99
Es	0.795948	0.472734	-0.535814	99
Es	2.541837	1.283495	0.256551	99
Es	-1.506590	-0.327970	0.398040	99
Es	-0.019011	-0.307261	0.471069	99
Es	-1.765005	-0.986385	0.629323	99
Es	0.402061	-1.200139	-0.994717	99
Es	-1.780679	0.194175	0.820792	99
Es	0.769083	-0.999582	-0.538985	99
Es	2.550819	1.545402	-0.158175	99
Es	0.388050	-0.831823	-0.059982	99
