35
Properties=species:S:1:pos:R:3:Z:I:1 energy=-247.83628899377248 field_type=dipole dipole="0.000000 0.000000 0.000000" charge=0
C	-2.803754	-0.194459	-0.528135	6
C	-1.604674	-0.130469	-0.551815	6
C	-0.165284	-0.051959	-0.586995	6
C	0.497126	0.994761	0.334405	6
C	1.495636	-0.131449	0.651965	6
N	0.434836	-1.094869	0.282345	7
H	-3.866964	-0.256159	-0.500305	1
H	0.248996	-0.052019	-1.603935	1
H	-0.102344	1.312811	1.196555	1
H	0.914516	1.876881	-0.158085	1
H	2.368576	-0.159459	-0.010765	1
H	1.830736	-0.190939	1.690624	1
H	0.752596	-1.922669	-0.215855	1
Es	1.733323	-0.174914	1.363966	99
Es	0.435211	-1.094694	0.281867	99
Es	2.092631	-0.147430	0.186308	99
Es	-2.211824	-0.114221	-0.184473	99
Es	-2.195827	-0.492898	-0.681586	99
Es	0.224762	-1.159265	0.555672	99
Es	-3.498215	-0.234296	-0.509976	99
Es	-0.165334	-0.052045	-0.586896	99
Es	0.780476	1.599552	-0.005764	99
Es	0.105972	-0.049433	-1.277530	99
Es	0.089011	1.198089	0.914053	99
Es	0.945367	-0.731248	0.443443	99
Es	-2.804005	-0.194472	-0.528131	99
Es	0.497132	0.994693	0.334360	99
Es	-0.919229	-0.086986	-0.585931	99
Es	-1.604448	-0.130454	-0.551824	99
Es	0.089885	0.533800	-0.171844	99
Es	1.052730	0.495366	0.529608	99
Es	0.146110	-0.683852	-0.149313	99
Es	1.495513	-0.131523	0.651913	99
Es	0.639926	-1.586230	-0.036189	99
Es	-2.233349	0.125566	-0.760783	99
35
Properties=species:S:1:pos:R:3:Z:I:1 energy=-247.83628899377248 field_type=dipole dipole="0.000000 0.000000 0.000000" charge=0
C	-2.803754	-0.194459	-0.528135	6
C	-1.604674	-0.130469	-0.551815	6
C	-0.165284	-0.051959	-0.586995	6
C	0.497126	0.994761	0.334405	6
C	1.495636	-0.131449	0.651965	6
N	0.434836	-1.094869	0.282345	7
H	-3.866964	-0.256159	-0.500305	1
H	0.248996	-0.052019	-1.603935	1
H	-0.102344	1.312811	1.196555	1
H	0.914516	1.876881	-0.158085	1
H	2.368576	-0.159459	-0.010765	1
H	1.830736	-0.190939	1.690624	1
H	0.752596	-1.922669	-0.215855	1
Es	0.143425	-0.683848	-0.148375	99
Es	-1.604439	-0.130451	-0.551822	99
Es	-3.500128	-0.233945	-0.510633	99
Es	0.948140	-0.730123	0.443180	99
Es	0.497133	0.994694	0.334361	99
Es	1.054390	0.494491	0.531381	99
Es	1.731878	-0.174674	1.362513	99
Es	0.226369	-1.162984	0.555366	99
Es	0.088995	1.198989	0.913282	99
Es	-0.165335	-0.052046	-0.586898	99
Es	2.094705	-0.147256	0.185870	99
Es	0.435207	-1.094695	0.281893	99
Es	0.091033	0.533048	-0.173527	99
Es	1.495514	-0.131522	0.651909	99
Es	0.106863	-0.049509	-1.275121	99
Es	-2.804008	-0.194472	-0.528125	99
Es	-2.207395	-0.184847	-0.187995	99
Es	-2.202286	-0.455626	-0.742450	99
Es	0.779399	1.598344	-0.005002	99
Es	-0.921022	-0.086878	-0.585939	99
Es	0.638385	-1.582229	-0.036891	99
Es	-2.231005	0.158643	-0.696030	99
35
Properties=species:S:1:pos:R:3:Z:I:1 energy=-247.83628899377248 field_type=dipole dipole="0.000000 0.000000 0.000000" charge=0
C	-2.803754	-0.194459	-0.528135	6
C	-1.604674	-0.130469	-0.551815	6
C	-0.165284	-0.051959	-0.586995	6
C	0.497126	0.994761	0.334405	6
C	1.495636	-0.131449	0.651965	6
N	0.434836	-1.094869	0.282345	7
H	-3.866964	-0.256159	-0.500305	1
H	0.248996	-0.052019	-1.603935	1
H	-0.102344	1.312811	1.196555	1
H	0.914516	1.876881	-0.158085	1
H	2.368576	-0.159459	-0.010765	1
H	1.830736	-0.190939	1.690624	1
H	0.752596	-1.922669	-0.215855	1
Es	1.730221	-0.174394	1.360765	99
Es	0.107225	-0.049575	-1.273286	99
Es	1.056428	0.494284	0.532520	99
Es	0.089200	1.199613	0.912808	99
Es	-0.165336	-0.052044	-0.586899	99
Es	-0.922065	-0.086515	-0.586145	99
Es	-2.233236	0.097950	-0.777875	99
Es	0.778092	1.597194	-0.004309	99
Es	0.091413	0.532506	-0.174812	99
Es	0.950151	-0.729703	0.442190	99
Es	2.096766	-0.147329	0.186150	99
Es	-2.193480	-0.497552	-0.650928	99
Es	0.435164	-1.094710	0.281932	99
Es	-2.804013	-0.194471	-0.528122	99
Es	0.139642	-0.683771	-0.146776	99
Es	-3.500920	-0.234124	-0.511097	99
Es	-2.213872	-0.082322	-0.197305	99
Es	0.497132	0.994693	0.334360	99
Es	0.229059	-1.167193	0.555160	99
Es	1.495515	-0.131520	0.651909	99
Es	-1.604434	-0.130451	-0.551822	99
Es	0.637165	-1.577462	-0.037474	99
35
Properties=species:S:1:pos:R:3:Z:I:1 energy=-247.83628899377248 field_type=dipole dipole="0.000000 0.000000 0.000000" charge=0
C	-2.803754	-0.194459	-0.528135	6
C	-1.604674	-0.130469	-0.551815	6
C	-0.165284	-0.051959	-0.586995	6
C	0.497126	0.994761	0.334405	6
C	1.495636	-0.131449	0.651965	6
N	0.434836	-1.094869	0.282345	7
H	-3.866964	-0.256159	-0.500305	1
H	0.248996	-0.052019	-1.603935	1
H	-0.102344	1.312811	1.196555	1
H	0.914516	1.876881	-0.158085	1
H	2.368576	-0.159459	-0.010765	1
H	1.830736	-0.190939	1.690624	1
H	0.752596	-1.922669	-0.215855	1
Es	0.231414	-1.170871	0.554485	99
Es	-2.193212	-0.497553	-0.647153	99
Es	1.728459	-0.174026	1.358826	99
Es	0.089262	1.200149	0.912397	99
Es	1.058482	0.494202	0.533312	99
Es	0.635882	-1.572820	-0.037461	99
Es	0.107468	-0.049725	-1.272095	99
Es	2.098804	-0.147349	0.186910	99
Es	-2.214120	-0.076558	-0.199920	99
Es	1.495516	-0.131521	0.651910	99
Es	-2.233190	0.092162	-0.778969	99
Es	-2.804016	-0.194472	-0.528123	99
Es	-1.604429	-0.130447	-0.551819	99
Es	-0.165337	-0.052044	-0.586899	99
Es	0.776620	1.595896	-0.003594	99
Es	0.435213	-1.094703	0.281878	99
Es	0.951995	-0.730031	0.441413	99
Es	0.497134	0.994691	0.334360	99
Es	-0.922775	-0.086319	-0.586073	99
Es	-3.501315	-0.234153	-0.511262	99
Es	0.091808	0.532075	-0.175641	99
Es	0.136155	-0.683479	-0.145535	99
35
Properties=species:S:1:pos:R:3:Z:I:1 energy=-247.83628899377248 field_type=dipole dipole="0.000000 0.000000 0.000000" charge=0
C	-2.803754	-0.194459	-0.528135	6
C	-1.604674	-0.130469	-0.551815	6
C	-0.165284	-0.051959	-0.586995	6
C	0.497126	0.994761	0.334405	6
C	1.495636	-0.131449	0.651965	6
N	0.434836	-1.094869	0.282345	7
H	-3.866964	-0.256159	-0.500305	1
H	0.248996	-0.052019	-1.603935	1
H	-0.102344	1.312811	1.196555	1
H	0.914516	1.876881	-0.158085	1
H	2.368576	-0.159459	-0.010765	1
H	1.830736	-0.190939	1.690624	1
H	0.752596	-1.922669	-0.215855	1
Es	0.089280	1.200739	0.912383	99
Es	-1.604428	-0.130448	-0.551822	99
Es	1.726847	-0.173884	1.356722	99
Es	0.953641	-0.730516	0.439035	99
Es	2.100630	-0.147527	0.187980	99
Es	-0.165337	-0.052046	-0.586898	99
Es	-0.923143	-0.086693	-0.586553	99
Es	-2.225278	0.179178	-0.462003	99
Es	1.060570	0.494690	0.533649	99
Es	0.132250	-0.683312	-0.143441	99
Es	0.091861	0.531507	-0.176073	99
Es	-2.191532	-0.390776	-0.292220	99
Es	0.775017	1.594370	-0.003107	99
Es	0.234431	-1.174410	0.554609	99
Es	0.107776	-0.049718	-1.271349	99
Es	0.497132	0.994690	0.334361	99
Es	-2.804017	-0.194475	-0.528122	99
Es	0.634629	-1.567992	-0.037425	99
Es	0.435229	-1.094699	0.281867	99
Es	-3.501539	-0.233969	-0.510703	99
Es	-2.223715	-0.270080	-0.871851	99
Es	1.495515	-0.131523	0.651909	99
35
Properties=species:S:1:pos:R:3:Z:I:1 energy=-247.83628899377248 field_type=dipole dipole="0.000000 0.000000 0.000000" charge=0
C	-2.803754	-0.194459	-0.528135	6
C	-1.604674	-0.130469	-0.551815	6
C	-0.165284	-0.051959	-0.586995	6
C	0.497126	0.994761	0.334405	6
C	1.495636	-0.131449	0.651965	6
N	0.434836	-1.094869	0.282345	7
H	-3.866964	-0.256159	-0.500305	1
H	0.248996	-0.052019	-1.603935	1
H	-0.102344	1.312811	1.196555	1
H	0.914516	1.876881	-0.158085	1
H	2.368576	-0.159459	-0.010765	1
H	1.830736	-0.190939	1.690624	1
H	0.752596	-1.922669	-0.215855	1
Es	0.089733	1.200811	0.912021	99
Es	1.495515	-0.131524	0.651913	99
Es	0.107487	-0.050159	-1.270305	99
Es	0.092069	0.531627	-0.176610	99
Es	1.062723	0.495009	0.534047	99
Es	-1.604429	-0.130440	-0.551834	99
Es	1.725294	-0.173476	1.354294	99
Es	2.102343	-0.147620	0.189476	99
Es	-2.215196	-0.052315	-0.207505	99
Es	0.955294	-0.731893	0.437866	99
Es	-2.804018	-0.194471	-0.528122	99
Es	-0.923480	-0.086064	-0.586419	99
Es	-2.233517	0.071770	-0.791331	99
Es	-2.191769	-0.501453	-0.627034	99
Es	-3.501655	-0.234313	-0.511182	99
Es	0.435190	-1.094710	0.281905	99
Es	0.633101	-1.561982	-0.036446	99
Es	0.497133	0.994693	0.334360	99
Es	0.238464	-1.178296	0.552420	99
Es	0.773636	1.593332	-0.002338	99
Es	0.127237	-0.683374	-0.141332	99
Es	-0.165338	-0.052047	-0.586898	99
35
Properties=species:S:1:pos:R:3:Z:I:1 energy=-247.83628899377248 field_type=dipole dipole="0.000000 0.000000 0.000000" charge=0
C	-2.803754	-0.194459	-0.528135	6
C	-1.604674	-0.130469	-0.551815	6
C	-0.165284	-0.051959	-0.586995	6
C	0.497126	0.994761	0.334405	6
C	1.495636	-0.131449	0.651965	6
N	0.434836	-1.094869	0.282345	7
H	-3.866964	-0.256159	-0.500305	1
H	0.248996	-0.052019	-1.603935	1
H	-0.102344	1.312811	1.196555	1
H	0.914516	1.876881	-0.158085	1
H	2.368576	-0.159459	-0.010765	1
H	1.830736	-0.190939	1.690624	1
H	0.752596	-1.922669	-0.215855	1
Es	0.124069	-0.683098	-0.139544	99
Es	0.956191	-0.732711	0.435760	99
Es	-1.604427	-0.130450	-0.551824	99
Es	1.723840	-0.173144	1.351867	99
Es	0.240823	-1.179987	0.551969	99
Es	0.772148	1.591815	-0.001670	99
Es	0.092393	0.531231	-0.176591	99
Es	-0.923623	-0.086188	-0.586797	99
Es	0.089508	1.201075	0.912146	99
Es	0.435240	-1.094695	0.281864	99
Es	0.497134	0.994691	0.334360	99
Es	-2.804018	-0.194474	-0.528118	99
Es	-0.165338	-0.052047	-0.586899	99
Es	0.107944	-0.050368	-1.270300	99
Es	2.103911	-0.147824	0.191152	99
Es	-2.186057	-0.468724	-0.399384	99
Es	1.495516	-0.131523	0.651909	99
Es	1.064844	0.495638	0.533874	99
Es	-2.231737	-0.140539	-0.882853	99
Es	-2.222704	0.127658	-0.343479	99
Es	0.631876	-1.558645	-0.035819	99
Es	-3.501715	-0.234587	-0.510677	99
35
Properties=species:S:1:pos:R:3:Z:I:1 energy=-247.83628899377248 field_type=dipole dipole="0.000000 0.000000 0.000000" charge=0
C	-2.803754	-0.194459	-0.528135	6
C	-1.604674	-0.130469	-0.551815	6
C	-0.165284	-0.051959	-0.586995	6
C	0.497126	0.994761	0.334405	6
C	1.495636	-0.131449	0.651965	6
N	0.434836	-1.094869	0.282345	7
H	-3.866964	-0.256159	-0.500305	1
H	0.248996	-0.052019	-1.603935	1
H	-0.102344	1.312811	1.196555	1
H	0.914516	1.876881	-0.158085	1
H	2.368576	-0.159459	-0.010765	1
H	1.830736	-0.190939	1.690624	1
H	0.752596	-1.922669	-0.215855	1
Es	-3.501746	-0.234770	-0.510595	99
Es	0.092300	0.530970	-0.176651	99
Es	-2.221429	0.096567	-0.302683	99
Es	2.105122	-0.147882	0.192737	99
Es	0.957262	-0.733990	0.433823	99
Es	0.630697	-1.553774	-0.034588	99
Es	0.119373	-0.683415	-0.136887	99
Es	-0.923780	-0.085878	-0.586794	99
Es	0.435235	-1.094713	0.281867	99
Es	-1.604426	-0.130451	-0.551820	99
Es	0.497134	0.994691	0.334360	99
Es	-2.233487	-0.090114	-0.874034	99
Es	1.495516	-0.131524	0.651910	99
Es	1.722704	-0.172826	1.349708	99
Es	0.771054	1.590764	-0.001123	99
Es	0.089711	1.201155	0.912008	99
Es	0.108151	-0.050565	-1.270053	99
Es	-0.165339	-0.052047	-0.586898	99
Es	-2.804018	-0.194473	-0.528121	99
Es	1.066551	0.495987	0.533876	99
Es	0.244807	-1.182397	0.549911	99
Es	-2.185574	-0.488207	-0.449004	99
35
Properties=species:S:1:pos:R:3:Z:I:1 energy=-247.83628899377248 field_type=dipole dipole="0.000000 0.000000 0.000000" charge=0
C	-2.803754	-0.194459	-0.528135	6
C	-1.604674	-0.130469	-0.551815	6
C	-0.165284	-0.051959	-0.586995	6
C	0.497126	0.994761	0.334405	6
C	1.495636	-0.131449	0.651965	6
N	0.434836	-1.094869	0.282345	7
H	-3.866964	-0.256159	-0.500305	1
H	0.248996	-0.052019	-1.603935	1
H	-0.102344	1.312811	1.196555	1
H	0.914516	1.876881	-0.158085	1
H	2.368576	-0.159459	-0.010765	1
H	1.830736	-0.190939	1.690624	1
H	0.752596	-1.922669	-0.215855	1
Es	1.495516	-0.131521	0.651909	99
Es	0.250287	-1.183745	0.546645	99
Es	0.090190	1.201108	0.911815	99
Es	-0.165339	-0.052047	-0.586898	99
Es	0.958096	-0.735359	0.431525	99
Es	2.106084	-0.147921	0.194194	99
Es	0.497134	0.994691	0.334361	99
Es	-2.233806	0.056717	-0.801092	99
Es	0.092016	0.530873	-0.176687	99
Es	-0.923875	-0.085662	-0.586652	99
Es	-2.190672	-0.503546	-0.609923	99
Es	-2.804019	-0.194474	-0.528122	99
Es	-1.604425	-0.130452	-0.551820	99
Es	0.629461	-1.549265	-0.032937	99
Es	0.769973	1.589784	-0.000514	99
Es	-3.501780	-0.234869	-0.510746	99
Es	1.721776	-0.172541	1.347910	99
Es	0.435228	-1.094717	0.281875	99
Es	0.113334	-0.684345	-0.133089	99
Es	0.108237	-0.050825	-1.269759	99
Es	1.068395	0.496276	0.533715	99
Es	-2.215995	-0.035053	-0.214761	99
35
Properties=species:S:1:pos:R:3:Z:I:1 energy=-247.83628899377248 field_type=dipole dipole="0.000000 0.000000 0.000000" charge=0
C	-2.803754	-0.194459	-0.528135	6
C	-1.604674	-0.130469	-0.551815	6
C	-0.165284	-0.051959	-0.586995	6
C	0.497126	0.994761	0.334405	6
C	1.495636	-0.131449	0.651965	6
N	0.434836	-1.094869	0.282345	7
H	-3.866964	-0.256159	-0.500305	1
H	0.248996	-0.052019	-1.603935	1
H	-0.102344	1.312811	1.196555	1
H	0.914516	1.876881	-0.158085	1
H	2.368576	-0.159459	-0.010765	1
H	1.830736	-0.190939	1.690624	1
H	0.752596	-1.922669	-0.215855	1
Es	0.255867	-1.184497	0.542373	99
Es	0.628715	-1.545637	-0.032146	99
Es	-1.604426	-0.130450	-0.551821	99
Es	1.069559	0.496886	0.533645	99
Es	0.107199	-0.685423	-0.128099	99
Es	1.721044	-0.172422	1.346168	99
Es	0.090094	1.201206	0.911770	99
Es	-2.804019	-0.194474	-0.528123	99
Es	0.108527	-0.051129	-1.269753	99
Es	-2.198299	-0.472622	-0.703304	99
Es	0.092140	0.530653	-0.176714	99
Es	0.497135	0.994691	0.334360	99
Es	-0.923945	-0.085509	-0.586635	99
Es	0.958768	-0.736381	0.430048	99
Es	0.435244	-1.094705	0.281859	99
Es	0.769133	1.588783	-0.000076	99
Es	-0.165340	-0.052045	-0.586896	99
Es	-3.501801	-0.234823	-0.510436	99
Es	1.495516	-0.131522	0.651910	99
Es	-2.210626	-0.134604	-0.195336	99
Es	2.106870	-0.148080	0.195515	99
Es	-2.231537	0.125211	-0.727362	99
35
Properties=species:S:1:pos:R:3:Z:I:1 energy=-247.83628899377248 field_type=dipole dipole="0.000000 0.000000 0.000000" charge=0
C	-2.803754	-0.194459	-0.528135	6
C	-1.604674	-0.130469	-0.551815	6
C	-0.165284	-0.051959	-0.586995	6
C	0.497126	0.994761	0.334405	6
C	1.495636	-0.131449	0.651965	6
N	0.434836	-1.094869	0.282345	7
H	-3.866964	-0.256159	-0.500305	1
H	0.248996	-0.052019	-1.603935	1
H	-0.102344	1.312811	1.196555	1
H	0.914516	1.876881	-0.158085	1
H	2.368576	-0.159459	-0.010765	1
H	1.830736	-0.190939	1.690624	1
H	0.752596	-1.922669	-0.215855	1
Es	2.107481	-0.148156	0.196564	99
Es	-2.187592	-0.442124	-0.359422	99
Es	-0.923980	-0.085515	-0.586874	99
Es	-2.804019	-0.194475	-0.528119	99
Es	1.720500	-0.172320	1.344416	99
Es	0.089326	1.201201	0.911998	99
Es	0.628185	-1.543078	-0.031735	99
Es	0.497135	0.994688	0.334359	99
Es	-3.501786	-0.235158	-0.509896	99
Es	0.109296	-0.051081	-1.270163	99
Es	1.495520	-0.131517	0.651909	99
Es	-0.165340	-0.052047	-0.586897	99
Es	0.092660	0.530054	-0.176356	99
Es	-2.229314	-0.189035	-0.882954	99
Es	-2.223591	0.149532	-0.383625	99
Es	0.435219	-1.094713	0.281871	99
Es	0.256046	-1.186059	0.543035	99
Es	0.106429	-0.684959	-0.127585	99
Es	0.959058	-0.736935	0.428386	99
Es	0.768650	1.588155	0.000164	99
Es	1.070362	0.497098	0.533693	99
Es	-1.604426	-0.130449	-0.551821	99
35
Properties=species:S:1:pos:R:3:Z:I:1 energy=-247.83628899377248 field_type=dipole dipole="0.000000 0.000000 0.000000" charge=0
C	-2.803754	-0.194459	-0.528135	6
C	-1.604674	-0.130469	-0.551815	6
C	-0.165284	-0.051959	-0.586995	6
C	0.497126	0.994761	0.334405	6
C	1.495636	-0.131449	0.651965	6
N	0.434836	-1.094869	0.282345	7
H	-3.866964	-0.256159	-0.500305	1
H	0.248996	-0.052019	-1.603935	1
H	-0.102344	1.312811	1.196555	1
H	0.914516	1.876881	-0.158085	1
H	2.368576	-0.159459	-0.010765	1
H	1.830736	-0.190939	1.690624	1
H	0.752596	-1.922669	-0.215855	1
Es	-2.804020	-0.194470	-0.528122	99
Es	0.767674	1.586969	0.000688	99
Es	-3.501814	-0.234919	-0.509790	99
Es	-2.214157	-0.365429	-0.823940	99
Es	1.720096	-0.172121	1.343667	99
Es	2.107881	-0.148212	0.197329	99
Es	0.100811	-0.686709	-0.122888	99
Es	-0.924020	-0.085448	-0.586682	99
Es	0.089653	1.201302	0.911927	99
Es	1.495518	-0.131520	0.651908	99
Es	0.261292	-1.185726	0.538102	99
Es	0.627539	-1.540037	-0.030416	99
Es	0.109462	-0.051282	-1.270190	99
Es	0.497135	0.994688	0.334359	99
Es	1.071640	0.497787	0.533076	99
Es	0.092353	0.529831	-0.176278	99
Es	-0.165339	-0.052046	-0.586898	99
Es	-2.227341	0.182151	-0.570614	99
Es	0.959624	-0.738003	0.427314	99
Es	0.435233	-1.094727	0.281859	99
Es	-1.604425	-0.130448	-0.551819	99
Es	-2.198978	-0.298526	-0.231644	99
35
Properties=species:S:1:pos:R:3:Z:I:1 energy=-247.83628899377248 field_type=dipole dipole="0.000000 0.000000 0.000000" charge=0
C	-2.803754	-0.194459	-0.528135	6
C	-1.604674	-0.130469	-0.551815	6
C	-0.165284	-0.051959	-0.586995	6
C	0.497126	0.994761	0.334405	6
C	1.495636	-0.131449	0.651965	6
N	0.434836	-1.094869	0.282345	7
H	-3.866964	-0.256159	-0.500305	1
H	0.248996	-0.052019	-1.603935	1
H	-0.102344	1.312811	1.196555	1
H	0.914516	1.876881	-0.158085	1
H	2.368576	-0.159459	-0.010765	1
H	1.830736	-0.190939	1.690624	1
H	0.752596	-1.922669	-0.215855	1
Es	0.090699	1.201104	0.911698	99
Es	0.109398	-0.051661	-1.269853	99
Es	0.435233	-1.094721	0.281866	99
Es	-0.165340	-0.052048	-0.586898	99
Es	2.108416	-0.148115	0.198455	99
Es	-2.804020	-0.194466	-0.528129	99
Es	0.959604	-0.738455	0.425945	99
Es	-1.604425	-0.130449	-0.551817	99
Es	0.091649	0.529985	-0.176006	99
Es	-2.192918	-0.495151	-0.640132	99
Es	1.719570	-0.171913	1.342334	99
Es	-2.233213	0.083272	-0.779986	99
Es	0.497137	0.994687	0.334358	99
Es	-0.924078	-0.085215	-0.586825	99
Es	0.263540	-1.187210	0.535801	99
Es	0.627048	-1.536188	-0.029363	99
Es	-3.501788	-0.235447	-0.509936	99
Es	1.495517	-0.131522	0.651909	99
Es	0.767402	1.586898	0.000884	99
Es	0.098090	-0.687542	-0.120572	99
Es	-2.214342	-0.069973	-0.205931	99
Es	1.072639	0.497234	0.533149	99
35
Properties=species:S:1:pos:R:3:Z:I:1 energy=-247.83628899377248 field_type=dipole dipole="0.000000 0.000000 0.000000" charge=0
C	-2.803754	-0.194459	-0.528135	6
C	-1.604674	-0.130469	-0.551815	6
C	-0.165284	-0.051959	-0.586995	6
C	0.497126	0.994761	0.334405	6
C	1.495636	-0.131449	0.651965	6
N	0.434836	-1.094869	0.282345	7
H	-3.866964	-0.256159	-0.500305	1
H	0.248996	-0.052019	-1.603935	1
H	-0.102344	1.312811	1.196555	1
H	0.914516	1.876881	-0.158085	1
H	2.368576	-0.159459	-0.010765	1
H	1.830736	-0.190939	1.690624	1
H	0.752596	-1.922669	-0.215855	1
Es	-2.197701	-0.474611	-0.695228	99
Es	1.073302	0.497428	0.532970	99
Es	1.495517	-0.131522	0.651907	99
Es	1.719255	-0.171769	1.341479	99
Es	0.109620	-0.051649	-1.269924	99
Es	-2.210988	-0.129698	-0.196854	99
Es	-2.804019	-0.194475	-0.528120	99
Es	0.095044	-0.688698	-0.117521	99
Es	2.108738	-0.148115	0.199146	99
Es	0.960019	-0.739456	0.424741	99
Es	-2.231787	0.122520	-0.733930	99
Es	-0.165341	-0.052045	-0.586897	99
Es	-3.501795	-0.235425	-0.509942	99
Es	0.497134	0.994690	0.334360	99
Es	0.090360	1.201019	0.911742	99
Es	0.435203	-1.094728	0.281905	99
Es	0.626444	-1.534062	-0.028393	99
Es	0.766980	1.586411	0.001145	99
Es	0.266432	-1.186792	0.532960	99
Es	-1.604425	-0.130449	-0.551817	99
Es	0.091917	0.529761	-0.175963	99
Es	-0.924090	-0.085228	-0.586817	99
35
Properties=species:S:1:pos:R:3:Z:I:1 energy=-247.83628899377248 field_type=dipole dipole="0.000000 0.000000 0.000000" charge=0
C	-2.803754	-0.194459	-0.528135	6
C	-1.604674	-0.130469	-0.551815	6
C	-0.165284	-0.051959	-0.586995	6
C	0.497126	0.994761	0.334405	6
C	1.495636	-0.131449	0.651965	6
N	0.434836	-1.094869	0.282345	7
H	-3.866964	-0.256159	-0.500305	1
H	0.248996	-0.052019	-1.603935	1
H	-0.102344	1.312811	1.196555	1
H	0.914516	1.876881	-0.158085	1
H	2.368576	-0.159459	-0.010765	1
H	1.830736	-0.190939	1.690624	1
H	0.752596	-1.922669	-0.215855	1
Es	0.766853	1.586282	0.001144	99
Es	0.091790	0.529288	-0.175653	99
Es	-2.804020	-0.194475	-0.528120	99
Es	0.090236	1.201004	0.911735	99
Es	0.269745	-1.186450	0.529248	99
Es	1.719169	-0.171728	1.341123	99
Es	-2.231487	0.131699	-0.723202	99
Es	-0.165341	-0.052047	-0.586896	99
Es	0.497135	0.994688	0.334359	99
Es	1.073875	0.497086	0.533056	99
Es	0.626231	-1.532113	-0.027986	99
Es	-2.210014	-0.145894	-0.196644	99
Es	0.110171	-0.051624	-1.270149	99
Es	-0.924120	-0.085028	-0.586835	99
Es	-3.501789	-0.235538	-0.509774	99
Es	1.495517	-0.131522	0.651909	99
Es	0.959846	-0.739412	0.424014	99
Es	-1.604425	-0.130449	-0.551818	99
Es	0.091336	-0.690217	-0.113461	99
Es	2.108837	-0.148105	0.199330	99
Es	-2.198971	-0.467638	-0.706281	99
Es	0.435242	-1.094699	0.281850	99
35
Properties=species:S:1:pos:R:3:Z:I:1 energy=-247.83628899377248 field_type=dipole dipole="0.000000 0.000000 0.000000" charge=0
C	-2.803754	-0.194459	-0.528135	6
C	-1.604674	-0.130469	-0.551815	6
C	-0.165284	-0.051959	-0.586995	6
C	0.497126	0.994761	0.334405	6
C	1.495636	-0.131449	0.651965	6
N	0.434836	-1.094869	0.282345	7
H	-3.866964	-0.256159	-0.500305	1
H	0.248996	-0.052019	-1.603935	1
H	-0.102344	1.312811	1.196555	1
H	0.914516	1.876881	-0.158085	1
H	2.368576	-0.159459	-0.010765	1
H	1.830736	-0.190939	1.690624	1
H	0.752596	-1.922669	-0.215855	1
Es	0.110276	-0.051841	-1.270140	99
Es	0.271185	-1.186207	0.527771	99
Es	0.497135	0.994688	0.334359	99
Es	2.109108	-0.148062	0.199920	99
Es	-3.501769	-0.235831	-0.509661	99
Es	1.718901	-0.171625	1.340352	99
Es	0.435245	-1.094699	0.281841	99
Es	-2.232472	0.110055	-0.754796	99
Es	0.089671	-0.690841	-0.111798	99
Es	0.960030	-0.739942	0.422939	99
Es	-0.924149	-0.084876	-0.586828	99
Es	-2.195689	-0.482901	-0.671486	99
Es	0.766459	1.585840	0.001356	99
Es	1.074511	0.497194	0.532829	99
Es	1.495521	-0.131519	0.651907	99
Es	0.625811	-1.530572	-0.027197	99
Es	-2.212316	-0.108914	-0.199866	99
Es	-1.604425	-0.130448	-0.551819	99
Es	-2.804019	-0.194476	-0.528122	99
Es	0.091582	0.529164	-0.175475	99
Es	0.090563	1.200965	0.911757	99
Es	-0.165340	-0.052048	-0.586897	99
35
Properties=species:S:1:pos:R:3:Z:I:1 energy=-247.83628899377248 field_type=dipole dipole="0.000000 0.000000 0.000000" charge=0
C	-2.803754	-0.194459	-0.528135	6
C	-1.604674	-0.130469	-0.551815	6
C	-0.165284	-0.051959	-0.586995	6
C	0.497126	0.994761	0.334405	6
C	1.495636	-0.131449	0.651965	6
N	0.434836	-1.094869	0.282345	7
H	-3.866964	-0.256159	-0.500305	1
H	0.248996	-0.052019	-1.603935	1
H	-0.102344	1.312811	1.196555	1
H	0.914516	1.876881	-0.158085	1
H	2.368576	-0.159459	-0.010765	1
H	1.830736	-0.190939	1.690624	1
H	0.752596	-1.922669	-0.215855	1
Es	0.092331	0.528720	-0.175640	99
Es	1.718633	-0.171589	1.339501	99
Es	0.091023	-0.689883	-0.113098	99
Es	0.960605	-0.740990	0.421588	99
Es	0.625344	-1.529279	-0.026555	99
Es	0.497136	0.994687	0.334359	99
Es	-2.225648	0.180409	-0.487250	99
Es	-0.165342	-0.052047	-0.586897	99
Es	-0.924153	-0.084997	-0.586950	99
Es	-2.221961	-0.290541	-0.860160	99
Es	0.435203	-1.094736	0.281889	99
Es	-1.604425	-0.130451	-0.551816	99
Es	-2.804019	-0.194477	-0.528120	99
Es	0.269908	-1.187321	0.529937	99
Es	-3.501777	-0.235549	-0.509240	99
Es	1.074757	0.497774	0.532574	99
Es	2.109400	-0.148206	0.200595	99
Es	0.089248	1.201020	0.912010	99
Es	-2.192884	-0.371598	-0.278755	99
Es	1.495518	-0.131520	0.651907	99
Es	0.766099	1.585154	0.001556	99
Es	0.110825	-0.051474	-1.270488	99
35
Properties=species:S:1:pos:R:3:Z:I:1 energy=-247.83628899377248 field_type=dipole dipole="0.000000 0.000000 0.000000" charge=0
C	-2.803754	-0.194459	-0.528135	6
C	-1.604674	-0.130469	-0.551815	6
C	-0.165284	-0.051959	-0.586995	6
C	0.497126	0.994761	0.334405	6
C	1.495636	-0.131449	0.651965	6
N	0.434836	-1.094869	0.282345	7
H	-3.866964	-0.256159	-0.500305	1
H	0.248996	-0.052019	-1.603935	1
H	-0.102344	1.312811	1.196555	1
H	0.914516	1.876881	-0.158085	1
H	2.368576	-0.159459	-0.010765	1
H	1.830736	-0.190939	1.690624	1
H	0.752596	-1.922669	-0.215855	1
Es	0.090382	1.201010	0.911780	99
Es	0.435262	-1.094644	0.281835	99
Es	-1.604425	-0.130449	-0.551820	99
Es	-2.804019	-0.194474	-0.528123	99
Es	1.075111	0.497025	0.532762	99
Es	-0.924162	-0.084929	-0.586905	99
Es	-2.206986	-0.189993	-0.198341	99
Es	1.718620	-0.171528	1.339451	99
Es	0.274984	-1.185491	0.523285	99
Es	1.495516	-0.131525	0.651921	99
Es	0.960333	-0.740851	0.421328	99
Es	2.109407	-0.148137	0.200627	99
Es	0.110827	-0.051493	-1.270432	99
Es	0.091227	0.528647	-0.175304	99
Es	-2.203058	-0.444295	-0.740793	99
Es	-0.165341	-0.052047	-0.586895	99
Es	0.766225	1.585462	0.001451	99
Es	-3.501774	-0.235774	-0.509466	99
Es	0.497135	0.994690	0.334360	99
Es	0.625197	-1.527518	-0.025874	99
Es	-2.230434	0.152564	-0.686998	99
Es	0.085788	-0.693144	-0.106902	99
35
Properties=species:S:1:pos:R:3:Z:I:1 energy=-247.83628899377248 field_type=dipole dipole="0.000000 0.000000 0.000000" charge=0
C	-2.803754	-0.194459	-0.528135	6
C	-1.604674	-0.130469	-0.551815	6
C	-0.165284	-0.051959	-0.586995	6
C	0.497126	0.994761	0.334405	6
C	1.495636	-0.131449	0.651965	6
N	0.434836	-1.094869	0.282345	7
H	-3.866964	-0.256159	-0.500305	1
H	0.248996	-0.052019	-1.603935	1
H	-0.102344	1.312811	1.196555	1
H	0.914516	1.876881	-0.158085	1
H	2.368576	-0.159459	-0.010765	1
H	1.830736	-0.190939	1.690624	1
H	0.752596	-1.922669	-0.215855	1
Es	0.624852	-1.525570	-0.024992	99
Es	-0.165342	-0.052046	-0.586895	99
Es	-2.210400	-0.139448	-0.196973	99
Es	-1.604425	-0.130448	-0.551822	99
Es	0.275379	-1.185993	0.522772	99
Es	2.109616	-0.148039	0.201156	99
Es	0.960659	-0.741750	0.420501	99
Es	0.110550	-0.051969	-1.270179	99
Es	0.765943	1.585136	0.001660	99
Es	-3.501756	-0.235987	-0.509439	99
Es	-2.198311	-0.470107	-0.697770	99
Es	1.075495	0.497226	0.532789	99
Es	0.091622	0.528867	-0.175259	99
Es	-2.804020	-0.194476	-0.528119	99
Es	0.085113	-0.693264	-0.106728	99
Es	-0.924187	-0.084795	-0.586853	99
Es	0.435223	-1.094732	0.281871	99
Es	1.718418	-0.171460	1.338693	99
Es	1.495517	-0.131521	0.651910	99
Es	-2.231774	0.127846	-0.731432	99
Es	0.090510	1.200949	0.911700	99
Es	0.497136	0.994685	0.334358	99
35
Properties=species:S:1:pos:R:3:Z:I:1 energy=-247.83628899377248 field_type=dipole dipole="0.000000 0.000000 0.000000" charge=0
C	-2.803754	-0.194459	-0.528135	6
C	-1.604674	-0.130469	-0.551815	6
C	-0.165284	-0.051959	-0.586995	6
C	0.497126	0.994761	0.334405	6
C	1.495636	-0.131449	0.651965	6
N	0.434836	-1.094869	0.282345	7
H	-3.866964	-0.256159	-0.500305	1
H	0.248996	-0.052019	-1.603935	1
H	-0.102344	1.312811	1.196555	1
H	0.914516	1.876881	-0.158085	1
H	2.368576	-0.159459	-0.010765	1
H	1.830736	-0.190939	1.690624	1
H	0.752596	-1.922669	-0.215855	1
Es	0.091421	0.528242	-0.175234	99
Es	0.765865	1.585117	0.001627	99
Es	-0.165342	-0.052047	-0.586894	99
Es	0.111208	-0.051703	-1.270476	99
Es	0.960868	-0.742231	0.419550	99
Es	1.718447	-0.171474	1.338838	99
Es	0.083315	-0.694257	-0.103961	99
Es	1.075624	0.497221	0.532654	99
Es	0.435243	-1.094714	0.281840	99
Es	0.277152	-1.184745	0.520806	99
Es	2.109589	-0.148088	0.201034	99
Es	-0.924199	-0.084724	-0.586952	99
Es	-3.501764	-0.235843	-0.509295	99
Es	-2.804020	-0.194475	-0.528119	99
Es	0.497136	0.994688	0.334359	99
Es	0.624516	-1.525089	-0.024571	99
Es	-2.207918	-0.413084	-0.777450	99
Es	0.090155	1.200876	0.911810	99
Es	-2.229169	0.169854	-0.641648	99
Es	-2.203401	-0.238445	-0.207060	99
Es	-1.604425	-0.130449	-0.551819	99
Es	1.495517	-0.131522	0.651909	99
35
Properties=species:S:1:pos:R:3:Z:I:1 energy=-247.83628899377248 field_type=dipole dipole="0.000000 0.000000 0.000000" charge=0
C	-2.803754	-0.194459	-0.528135	6
C	-1.604674	-0.130469	-0.551815	6
C	-0.165284	-0.051959	-0.586995	6
C	0.497126	0.994761	0.334405	6
C	1.495636	-0.131449	0.651965	6
N	0.434836	-1.094869	0.282345	7
H	-3.866964	-0.256159	-0.500305	1
H	0.248996	-0.052019	-1.603935	1
H	-0.102344	1.312811	1.196555	1
H	0.914516	1.876881	-0.158085	1
H	2.368576	-0.159459	-0.010765	1
H	1.830736	-0.190939	1.690624	1
H	0.752596	-1.922669	-0.215855	1
Es	0.277829	-1.185530	0.519533	99
Es	-1.604425	-0.130447	-0.551820	99
Es	1.718317	-0.171393	1.338404	99
Es	2.109720	-0.148056	0.201370	99
Es	1.076258	0.497120	0.532535	99
Es	0.435231	-1.094745	0.281863	99
Es	0.090397	1.200784	0.911753	99
Es	0.111164	-0.051495	-1.270457	99
Es	1.495517	-0.131522	0.651909	99
Es	0.082501	-0.694913	-0.103414	99
Es	-2.201664	-0.452176	-0.728566	99
Es	-3.501749	-0.236086	-0.509371	99
Es	-0.165342	-0.052048	-0.586896	99
Es	-2.804020	-0.194475	-0.528120	99
Es	0.497135	0.994686	0.334359	99
Es	0.765583	1.584802	0.001900	99
Es	0.091270	0.528206	-0.174939	99
Es	-2.208002	-0.177338	-0.198433	99
Es	-0.924199	-0.084783	-0.586935	99
Es	0.960674	-0.742199	0.419403	99
Es	0.624451	-1.523223	-0.024006	99
Es	-2.230828	0.147933	-0.699122	99
35
Properties=species:S:1:pos:R:3:Z:I:1 energy=-247.83628899377248 field_type=dipole dipole="0.000000 0.000000 0.000000" charge=0
C	-2.803754	-0.194459	-0.528135	6
C	-1.604674	-0.130469	-0.551815	6
C	-0.165284	-0.051959	-0.586995	6
C	0.497126	0.994761	0.334405	6
C	1.495636	-0.131449	0.651965	6
N	0.434836	-1.094869	0.282345	7
H	-3.866964	-0.256159	-0.500305	1
H	0.248996	-0.052019	-1.603935	1
H	-0.102344	1.312811	1.196555	1
H	0.914516	1.876881	-0.158085	1
H	2.368576	-0.159459	-0.010765	1
H	1.830736	-0.190939	1.690624	1
H	0.752596	-1.922669	-0.215855	1
Es	0.960805	-0.742336	0.418937	99
Es	1.718300	-0.171399	1.338279	99
Es	0.765731	1.584883	0.001700	99
Es	0.091404	0.527976	-0.175198	99
Es	2.109745	-0.148069	0.201379	99
Es	-3.501751	-0.235939	-0.509009	99
Es	-2.199180	-0.290754	-0.224172	99
Es	0.080919	-0.695542	-0.100508	99
Es	1.495517	-0.131522	0.651908	99
Es	1.076029	0.496984	0.532595	99
Es	-1.604425	-0.130449	-0.551821	99
Es	0.497135	0.994686	0.334358	99
Es	-2.227878	0.181067	-0.590574	99
Es	-2.213430	-0.372039	-0.811517	99
Es	0.111763	-0.051597	-1.270703	99
Es	0.279401	-1.184505	0.517757	99
Es	-0.924209	-0.084713	-0.587035	99
Es	-2.804019	-0.194477	-0.528114	99
Es	0.435231	-1.094731	0.281862	99
Es	-0.165341	-0.052047	-0.586896	99
Es	0.624356	-1.523215	-0.024212	99
Es	0.089716	1.200842	0.911930	99
35
Properties=species:S:1:pos:R:3:Z:I:1 energy=-247.83628899377248 field_type=dipole dipole="0.000000 0.000000 0.000000" charge=0
C	-2.803754	-0.194459	-0.528135	6
C	-1.604674	-0.130469	-0.551815	6
C	-0.165284	-0.051959	-0.586995	6
C	0.497126	0.994761	0.334405	6
C	1.495636	-0.131449	0.651965	6
N	0.434836	-1.094869	0.282345	7
H	-3.866964	-0.256159	-0.500305	1
H	0.248996	-0.052019	-1.603935	1
H	-0.102344	1.312811	1.196555	1
H	0.914516	1.876881	-0.158085	1
H	2.368576	-0.159459	-0.010765	1
H	1.830736	-0.190939	1.690624	1
H	0.752596	-1.922669	-0.215855	1
Es	-0.924227	-0.084571	-0.586973	99
Es	0.090859	1.200836	0.911692	99
Es	1.495517	-0.131521	0.651906	99
Es	-2.804020	-0.194476	-0.528121	99
Es	0.111617	-0.051732	-1.270562	99
Es	1.718222	-0.171309	1.338033	99
Es	-0.165341	-0.052047	-0.586896	99
Es	2.109814	-0.148023	0.201611	99
Es	-3.501730	-0.236314	-0.509211	99
Es	-2.231388	0.139010	-0.717249	99
Es	0.435234	-1.094741	0.281852	99
Es	0.079229	-0.696941	-0.098656	99
Es	-2.209083	-0.160182	-0.197177	99
Es	0.624238	-1.521161	-0.023455	99
Es	0.960657	-0.742384	0.418601	99
Es	-2.200028	-0.460363	-0.711757	99
Es	0.497136	0.994687	0.334359	99
Es	0.280881	-1.184671	0.515288	99
Es	0.090548	0.527968	-0.174843	99
Es	-1.604425	-0.130449	-0.551820	99
Es	1.076295	0.496374	0.532685	99
Es	0.765813	1.585115	0.001641	99
35
Properties=species:S:1:pos:R:3:Z:I:1 energy=-247.83628899377248 field_type=dipole dipole="0.000000 0.000000 0.000000" charge=0
C	-2.803754	-0.194459	-0.528135	6
C	-1.604674	-0.130469	-0.551815	6
C	-0.165284	-0.051959	-0.586995	6
C	0.497126	0.994761	0.334405	6
C	1.495636	-0.131449	0.651965	6
N	0.434836	-1.094869	0.282345	7
H	-3.866964	-0.256159	-0.500305	1
H	0.248996	-0.052019	-1.603935	1
H	-0.102344	1.312811	1.196555	1
H	0.914516	1.876881	-0.158085	1
H	2.368576	-0.159459	-0.010765	1
H	1.830736	-0.190939	1.690624	1
H	0.752596	-1.922669	-0.215855	1
Es	-3.501730	-0.236273	-0.509156	99
Es	0.624068	-1.521206	-0.023278	99
Es	-2.203408	-0.440929	-0.739004	99
Es	0.090897	0.527959	-0.174862	99
Es	0.497135	0.994687	0.334359	99
Es	-0.924221	-0.084621	-0.586953	99
Es	-0.165342	-0.052047	-0.586895	99
Es	0.077894	-0.698171	-0.096402	99
Es	0.282347	-1.183293	0.513507	99
Es	2.109943	-0.148043	0.201931	99
Es	0.960669	-0.742484	0.418006	99
Es	1.076296	0.496123	0.532784	99
Es	-2.206515	-0.193807	-0.197448	99
Es	0.435241	-1.094711	0.281837	99
Es	-2.230576	0.153194	-0.689739	99
Es	0.090518	1.200728	0.911787	99
Es	0.111540	-0.051616	-1.270598	99
Es	-2.804020	-0.194478	-0.528119	99
Es	1.718101	-0.171259	1.337566	99
Es	-1.604425	-0.130447	-0.551825	99
Es	0.765892	1.585320	0.001540	99
Es	1.495516	-0.131522	0.651911	99
35
Properties=species:S:1:pos:R:3:Z:I:1 energy=-247.83628899377248 field_type=dipole dipole="0.000000 0.000000 0.000000" charge=0
C	-2.803754	-0.194459	-0.528135	6
C	-1.604674	-0.130469	-0.551815	6
C	-0.165284	-0.051959	-0.586995	6
C	0.497126	0.994761	0.334405	6
C	1.495636	-0.131449	0.651965	6
N	0.434836	-1.094869	0.282345	7
H	-3.866964	-0.256159	-0.500305	1
H	0.248996	-0.052019	-1.603935	1
H	-0.102344	1.312811	1.196555	1
H	0.914516	1.876881	-0.158085	1
H	2.368576	-0.159459	-0.010765	1
H	1.830736	-0.190939	1.690624	1
H	0.752596	-1.922669	-0.215855	1
Es	1.075946	0.495263	0.533370	99
Es	0.766290	1.586157	0.001113	99
Es	0.280942	-1.185725	0.515641	99
Es	0.497136	0.994686	0.334358	99
Es	-2.804019	-0.194477	-0.528117	99
Es	0.111785	-0.052262	-1.270594	99
Es	-2.233737	-0.070059	-0.873792	99
Es	-3.501668	-0.236775	-0.508663	99
Es	-1.604426	-0.130450	-0.551826	99
Es	0.435234	-1.094724	0.281855	99
Es	0.091592	0.527932	-0.174445	99
Es	0.960589	-0.742377	0.417511	99
Es	-0.924274	-0.084393	-0.587236	99
Es	0.624023	-1.519780	-0.023375	99
Es	-2.185347	-0.490828	-0.453143	99
Es	2.110206	-0.147790	0.202618	99
Es	-0.165341	-0.052047	-0.586896	99
Es	1.717847	-0.171203	1.336317	99
Es	0.078682	-0.696324	-0.098324	99
Es	1.495519	-0.131519	0.651906	99
Es	-2.221415	0.079286	-0.299289	99
Es	0.090255	1.200515	0.911959	99
