35
Properties=species:S:1:pos:R:3:Z:I:1 energy=-247.83234818478323 field_type=dipole dipole="0.000000 0.000000 0.000000" charge=0
C	-2.697310	-0.013152	-0.536477	6
C	-1.497831	0.000768	-0.538277	6
C	-0.049941	0.017878	-0.545807	6
C	0.634299	1.028908	0.400353	6
N	1.651659	-0.005142	0.719383	7
C	0.658509	-1.038702	0.330173	6
H	-3.763641	-0.025542	-0.533087	1
H	0.364059	0.057248	-1.563427	1
H	0.045019	1.334558	1.273883	1
H	1.035339	1.927348	-0.078757	1
H	2.462500	0.025378	0.099963	1
H	1.080090	-1.892962	-0.208427	1
H	0.077250	-1.416592	1.180503	1
Es	0.221730	0.044209	-1.227602	99
Es	0.206077	0.582667	-0.116988	99
Es	0.658585	-1.038569	0.330164	99
Es	0.257426	-1.282010	0.906812	99
Es	-2.697561	-0.013153	-0.536461	99
Es	-1.497596	0.000788	-0.538275	99
Es	0.948382	-1.624548	-0.041219	99
Es	-3.393313	-0.021224	-0.533638	99
Es	0.228059	1.223167	0.991871	99
Es	1.260668	-0.496096	0.551506	99
Es	-0.050049	0.017875	-0.545775	99
Es	2.111156	0.014033	0.310143	99
Es	1.651449	-0.005124	0.718800	99
Es	0.219497	-0.568587	-0.156167	99
Es	-2.106735	-0.301359	-0.741459	99
Es	0.634377	1.028778	0.400335	99
Es	1.249110	0.486751	0.584580	99
Es	0.910111	1.645155	0.069669	99
Es	-0.809110	0.009308	-0.553426	99
Es	-2.113189	0.318788	-0.688577	99
Es	1.769324	-0.015230	1.060789	99
Es	-2.106034	-0.036695	-0.175681	99
35
Properties=species:S:1:pos:R:3:Z:I:1 energy=-247.83234818478323 field_type=dipole dipole="0.000000 0.000000 0.000000" charge=0
C	-2.697310	-0.013152	-0.536477	6
C	-1.497831	0.000768	-0.538277	6
C	-0.049941	0.017878	-0.545807	6
C	0.634299	1.028908	0.400353	6
N	1.651659	-0.005142	0.719383	7
C	0.658509	-1.038702	0.330173	6
H	-3.763641	-0.025542	-0.533087	1
H	0.364059	0.057248	-1.563427	1
H	0.045019	1.334558	1.273883	1
H	1.035339	1.927348	-0.078757	1
H	2.462500	0.025378	0.099963	1
H	1.080090	-1.892962	-0.208427	1
H	0.077250	-1.416592	1.180503	1
Es	0.909266	1.644475	0.070021	99
Es	2.123715	0.014129	0.316491	99
Es	0.220690	-0.566782	-0.157426	99
Es	-1.497580	0.000771	-0.538277	99
Es	-3.395284	-0.021322	-0.532949	99
Es	-0.811361	0.009415	-0.554210	99
Es	1.651429	-0.005126	0.718790	99
Es	0.634377	1.028775	0.400336	99
Es	1.757773	-0.015445	1.049679	99
Es	1.249734	0.487657	0.587522	99
Es	-2.115185	0.019788	-0.885769	99
Es	0.227937	1.223571	0.991552	99
Es	0.207424	0.580928	-0.118395	99
Es	0.947480	-1.623895	-0.040970	99
Es	0.257305	-1.282412	0.906532	99
Es	0.658587	-1.038566	0.330163	99
Es	-0.050049	0.017875	-0.545776	99
Es	-2.697567	-0.013159	-0.536458	99
Es	-2.101747	-0.324441	-0.382541	99
Es	-2.108798	0.285420	-0.337172	99
Es	0.222967	0.044133	-1.225198	99
Es	1.261253	-0.496858	0.553457	99
35
Properties=species:S:1:pos:R:3:Z:I:1 energy=-247.83234818478323 field_type=dipole dipole="0.000000 0.000000 0.000000" charge=0
C	-2.697310	-0.013152	-0.536477	6
C	-1.497831	0.000768	-0.538277	6
C	-0.049941	0.017878	-0.545807	6
C	0.634299	1.028908	0.400353	6
N	1.651659	-0.005142	0.719383	7
C	0.658509	-1.038702	0.330173	6
H	-3.763641	-0.025542	-0.533087	1
H	0.364059	0.057248	-1.563427	1
H	0.045019	1.334558	1.273883	1
H	1.035339	1.927348	-0.078757	1
H	2.462500	0.025378	0.099963	1
H	1.080090	-1.892962	-0.208427	1
H	0.077250	-1.416592	1.180503	1
Es	-0.812769	0.009244	-0.553899	99
Es	0.946466	-1.622987	-0.040508	99
Es	1.250634	0.488189	0.588444	99
Es	1.262225	-0.497782	0.555132	99
Es	-0.050049	0.017875	-0.545776	99
Es	0.634376	1.028775	0.400336	99
Es	-2.697573	-0.013155	-0.536464	99
Es	-2.114027	0.275387	-0.746904	99
Es	0.227964	1.223970	0.991418	99
Es	0.223821	0.044123	-1.223757	99
Es	1.746952	-0.014736	1.037289	99
Es	1.651424	-0.005119	0.718741	99
Es	2.135054	0.013877	0.326121	99
Es	-3.396015	-0.021308	-0.532798	99
Es	-2.104764	-0.331859	-0.671976	99
Es	-1.497580	0.000769	-0.538273	99
Es	0.658585	-1.038564	0.330166	99
Es	0.908205	1.643590	0.070432	99
Es	0.221362	-0.565360	-0.158180	99
Es	0.257195	-1.282871	0.906358	99
Es	-2.106799	0.037194	-0.187036	99
Es	0.207679	0.579673	-0.119463	99
35
Properties=species:S:1:pos:R:3:Z:I:1 energy=-247.83234818478323 field_type=dipole dipole="0.000000 0.000000 0.000000" charge=0
C	-2.697310	-0.013152	-0.536477	6
C	-1.497831	0.000768	-0.538277	6
C	-0.049941	0.017878	-0.545807	6
C	0.634299	1.028908	0.400353	6
N	1.651659	-0.005142	0.719383	7
C	0.658509	-1.038702	0.330173	6
H	-3.763641	-0.025542	-0.533087	1
H	0.364059	0.057248	-1.563427	1
H	0.045019	1.334558	1.273883	1
H	1.035339	1.927348	-0.078757	1
H	2.462500	0.025378	0.099963	1
H	1.080090	-1.892962	-0.208427	1
H	0.077250	-1.416592	1.180503	1
Es	-0.813578	0.009299	-0.553895	99
Es	0.634377	1.028775	0.400336	99
Es	-2.114196	0.263989	-0.757721	99
Es	-2.697575	-0.013158	-0.536463	99
Es	1.651419	-0.005124	0.718697	99
Es	0.227918	1.224370	0.991333	99
Es	0.257158	-1.283232	0.906256	99
Es	0.945443	-1.622082	-0.040075	99
Es	1.251603	0.488762	0.589431	99
Es	0.208009	0.578530	-0.119943	99
Es	-3.396393	-0.021261	-0.532784	99
Es	0.224503	0.043996	-1.222828	99
Es	0.221369	-0.564148	-0.158910	99
Es	0.907179	1.642627	0.070691	99
Es	-0.050052	0.017877	-0.545779	99
Es	2.142919	0.013701	0.335218	99
Es	-2.106765	0.050070	-0.188810	99
Es	-1.497575	0.000770	-0.538275	99
Es	-2.104578	-0.333377	-0.659219	99
Es	1.739466	-0.014448	1.025981	99
Es	0.658584	-1.038565	0.330165	99
Es	1.263130	-0.498444	0.555997	99
35
Properties=species:S:1:pos:R:3:Z:I:1 energy=-247.83234818478323 field_type=dipole dipole="0.000000 0.000000 0.000000" charge=0
C	-2.697310	-0.013152	-0.536477	6
C	-1.497831	0.000768	-0.538277	6
C	-0.049941	0.017878	-0.545807	6
C	0.634299	1.028908	0.400353	6
N	1.651659	-0.005142	0.719383	7
C	0.658509	-1.038702	0.330173	6
H	-3.763641	-0.025542	-0.533087	1
H	0.364059	0.057248	-1.563427	1
H	0.045019	1.334558	1.273883	1
H	1.035339	1.927348	-0.078757	1
H	2.462500	0.025378	0.099963	1
H	1.080090	-1.892962	-0.208427	1
H	0.077250	-1.416592	1.180503	1
Es	-1.497573	0.000757	-0.538291	99
Es	0.257096	-1.283516	0.906153	99
Es	1.651414	-0.005117	0.718684	99
Es	0.208024	0.577615	-0.120659	99
Es	0.658585	-1.038562	0.330165	99
Es	0.227765	1.224670	0.991338	99
Es	0.225246	0.043949	-1.222423	99
Es	0.634377	1.028770	0.400336	99
Es	-2.112852	0.311960	-0.675712	99
Es	2.149030	0.013306	0.344423	99
Es	1.733620	-0.014253	1.015142	99
Es	-0.050051	0.017875	-0.545779	99
Es	-2.697577	-0.013156	-0.536462	99
Es	0.944375	-1.621040	-0.039393	99
Es	0.221290	-0.563088	-0.159468	99
Es	-2.105560	-0.046417	-0.185999	99
Es	1.264095	-0.499033	0.556485	99
Es	1.252653	0.489603	0.589993	99
Es	-3.396609	-0.021289	-0.532708	99
Es	0.906162	1.641472	0.071319	99
Es	-0.814032	0.009165	-0.553753	99
Es	-2.107110	-0.284745	-0.743989	99
35
Properties=species:S:1:pos:R:3:Z:I:1 energy=-247.83234818478323 field_type=dipole dipole="0.000000 0.000000 0.000000" charge=0
C	-2.697310	-0.013152	-0.536477	6
C	-1.497831	0.000768	-0.538277	6
C	-0.049941	0.017878	-0.545807	6
C	0.634299	1.028908	0.400353	6
N	1.651659	-0.005142	0.719383	7
C	0.658509	-1.038702	0.330173	6
H	-3.763641	-0.025542	-0.533087	1
H	0.364059	0.057248	-1.563427	1
H	0.045019	1.334558	1.273883	1
H	1.035339	1.927348	-0.078757	1
H	2.462500	0.025378	0.099963	1
H	1.080090	-1.892962	-0.208427	1
H	0.077250	-1.416592	1.180503	1
Es	1.729407	-0.013722	1.005493	99
Es	-2.113382	0.295962	-0.701269	99
Es	-0.050052	0.017876	-0.545779	99
Es	0.221325	-0.562241	-0.159647	99
Es	-3.396746	-0.021408	-0.532664	99
Es	0.225943	0.044033	-1.222159	99
Es	1.253374	0.490168	0.590077	99
Es	0.905232	1.640399	0.071717	99
Es	2.153444	0.013117	0.352578	99
Es	0.943317	-1.619770	-0.038752	99
Es	0.207890	0.576625	-0.121284	99
Es	0.227575	1.224900	0.991377	99
Es	0.658584	-1.038565	0.330164	99
Es	-2.106363	-0.299259	-0.721451	99
Es	-0.814382	0.009239	-0.553546	99
Es	0.634380	1.028769	0.400333	99
Es	-2.697579	-0.013157	-0.536462	99
Es	-1.497573	0.000771	-0.538274	99
Es	1.265262	-0.499993	0.556933	99
Es	1.651423	-0.005124	0.718736	99
Es	0.257041	-1.283891	0.906223	99
Es	-2.105756	-0.015804	-0.182942	99
35
Properties=species:S:1:pos:R:3:Z:I:1 energy=-247.83234818478323 field_type=dipole dipole="0.000000 0.000000 0.000000" charge=0
C	-2.697310	-0.013152	-0.536477	6
C	-1.497831	0.000768	-0.538277	6
C	-0.049941	0.017878	-0.545807	6
C	0.634299	1.028908	0.400353	6
N	1.651659	-0.005142	0.719383	7
C	0.658509	-1.038702	0.330173	6
H	-3.763641	-0.025542	-0.533087	1
H	0.364059	0.057248	-1.563427	1
H	0.045019	1.334558	1.273883	1
H	1.035339	1.927348	-0.078757	1
H	2.462500	0.025378	0.099963	1
H	1.080090	-1.892962	-0.208427	1
H	0.077250	-1.416592	1.180503	1
Es	-0.814620	0.009197	-0.553365	99
Es	-1.497572	0.000772	-0.538270	99
Es	0.904208	1.639034	0.072390	99
Es	0.227421	1.225145	0.991387	99
Es	-2.105199	-0.320893	-0.670774	99
Es	0.207962	0.575843	-0.121530	99
Es	-0.050052	0.017876	-0.545779	99
Es	1.726341	-0.013645	0.996846	99
Es	0.942333	-1.618678	-0.038221	99
Es	1.254648	0.491266	0.590641	99
Es	-2.697578	-0.013165	-0.536457	99
Es	-2.106204	0.036315	-0.185094	99
Es	0.634377	1.028772	0.400335	99
Es	1.265909	-0.500825	0.556913	99
Es	-3.396829	-0.021419	-0.532559	99
Es	-2.114093	0.265474	-0.749762	99
Es	0.226598	0.044026	-1.222025	99
Es	2.156706	0.012946	0.359775	99
Es	0.221210	-0.561385	-0.160134	99
Es	0.658585	-1.038562	0.330167	99
Es	1.651415	-0.005126	0.718697	99
Es	0.256797	-1.284041	0.906220	99
35
Properties=species:S:1:pos:R:3:Z:I:1 energy=-247.83234818478323 field_type=dipole dipole="0.000000 0.000000 0.000000" charge=0
C	-2.697310	-0.013152	-0.536477	6
C	-1.497831	0.000768	-0.538277	6
C	-0.049941	0.017878	-0.545807	6
C	0.634299	1.028908	0.400353	6
N	1.651659	-0.005142	0.719383	7
C	0.658509	-1.038702	0.330173	6
H	-3.763641	-0.025542	-0.533087	1
H	0.364059	0.057248	-1.563427	1
H	0.045019	1.334558	1.273883	1
H	1.035339	1.927348	-0.078757	1
H	2.462500	0.025378	0.099963	1
H	1.080090	-1.892962	-0.208427	1
H	0.077250	-1.416592	1.180503	1
Es	-2.103770	-0.159799	-0.219774	99
Es	-2.110476	-0.190673	-0.830944	99
Es	-0.814766	0.009317	-0.553274	99
Es	1.267052	-0.501997	0.557215	99
Es	0.227359	0.044110	-1.221972	99
Es	1.724044	-0.013458	0.988781	99
Es	0.256595	-1.284120	0.906238	99
Es	0.941335	-1.617468	-0.037468	99
Es	-2.697579	-0.013153	-0.536458	99
Es	1.255430	0.492560	0.590896	99
Es	0.207919	0.575079	-0.121773	99
Es	-1.497572	0.000769	-0.538274	99
Es	0.658585	-1.038564	0.330165	99
Es	-2.111247	0.331073	-0.555092	99
Es	0.903162	1.637630	0.073029	99
Es	0.634378	1.028770	0.400336	99
Es	1.651445	-0.005120	0.718757	99
Es	2.159164	0.012712	0.366022	99
Es	0.221108	-0.560713	-0.160389	99
Es	-3.396878	-0.021154	-0.532293	99
Es	-0.050052	0.017876	-0.545780	99
Es	0.227132	1.225249	0.991452	99
35
Properties=species:S:1:pos:R:3:Z:I:1 energy=-247.83234818478323 field_type=dipole dipole="0.000000 0.000000 0.000000" charge=0
C	-2.697310	-0.013152	-0.536477	6
C	-1.497831	0.000768	-0.538277	6
C	-0.049941	0.017878	-0.545807	6
C	0.634299	1.028908	0.400353	6
N	1.651659	-0.005142	0.719383	7
C	0.658509	-1.038702	0.330173	6
H	-3.763641	-0.025542	-0.533087	1
H	0.364059	0.057248	-1.563427	1
H	0.045019	1.334558	1.273883	1
H	1.035339	1.927348	-0.078757	1
H	2.462500	0.025378	0.099963	1
H	1.080090	-1.892962	-0.208427	1
H	0.077250	-1.416592	1.180503	1
Es	0.228164	0.044210	-1.221976	99
Es	-2.114230	0.008370	-0.887025	99
Es	0.226913	1.225210	0.991478	99
Es	0.221103	-0.559964	-0.160447	99
Es	2.160838	0.012676	0.370777	99
Es	0.658585	-1.038557	0.330167	99
Es	1.256225	0.493528	0.590995	99
Es	0.207681	0.574363	-0.122026	99
Es	1.651417	-0.005123	0.718702	99
Es	-0.814879	0.009194	-0.553134	99
Es	-2.102311	-0.303540	-0.372695	99
Es	-3.396910	-0.021421	-0.532030	99
Es	-2.697580	-0.013159	-0.536462	99
Es	1.722517	-0.013277	0.982903	99
Es	1.267845	-0.503108	0.557140	99
Es	0.634378	1.028768	0.400334	99
Es	-2.108961	0.276031	-0.346297	99
Es	-1.497572	0.000771	-0.538274	99
Es	0.256366	-1.284245	0.906286	99
Es	0.940464	-1.616235	-0.036810	99
Es	-0.050052	0.017877	-0.545779	99
Es	0.902363	1.636557	0.073575	99
35
Properties=species:S:1:pos:R:3:Z:I:1 energy=-247.83234818478323 field_type=dipole dipole="0.000000 0.000000 0.000000" charge=0
C	-2.697310	-0.013152	-0.536477	6
C	-1.497831	0.000768	-0.538277	6
C	-0.049941	0.017878	-0.545807	6
C	0.634299	1.028908	0.400353	6
N	1.651659	-0.005142	0.719383	7
C	0.658509	-1.038702	0.330173	6
H	-3.763641	-0.025542	-0.533087	1
H	0.364059	0.057248	-1.563427	1
H	0.045019	1.334558	1.273883	1
H	1.035339	1.927348	-0.078757	1
H	2.462500	0.025378	0.099963	1
H	1.080090	-1.892962	-0.208427	1
H	0.077250	-1.416592	1.180503	1
Es	0.634378	1.028772	0.400335	99
Es	1.651414	-0.005121	0.718675	99
Es	0.901517	1.635016	0.074264	99
Es	0.228811	0.043797	-1.222020	99
Es	0.256144	-1.284200	0.906291	99
Es	0.939643	-1.615108	-0.036146	99
Es	0.207725	0.573881	-0.122074	99
Es	2.162261	0.012507	0.375231	99
Es	0.226891	1.225446	0.991475	99
Es	1.721207	-0.013015	0.977332	99
Es	-0.814967	0.009221	-0.552978	99
Es	-2.114140	0.000697	-0.886952	99
Es	-2.102268	-0.299660	-0.363590	99
Es	1.268774	-0.504258	0.557214	99
Es	-2.697580	-0.013155	-0.536461	99
Es	-0.050053	0.017875	-0.545781	99
Es	1.256907	0.494751	0.590852	99
Es	-1.497572	0.000767	-0.538276	99
Es	-3.396934	-0.021383	-0.531863	99
Es	0.658583	-1.038562	0.330164	99
Es	-2.109094	0.279815	-0.355548	99
Es	0.220717	-0.559155	-0.160742	99
35
Properties=species:S:1:pos:R:3:Z:I:1 energy=-247.83234818478323 field_type=dipole dipole="0.000000 0.000000 0.000000" charge=0
C	-2.697310	-0.013152	-0.536477	6
C	-1.497831	0.000768	-0.538277	6
C	-0.049941	0.017878	-0.545807	6
C	0.634299	1.028908	0.400353	6
N	1.651659	-0.005142	0.719383	7
C	0.658509	-1.038702	0.330173	6
H	-3.763641	-0.025542	-0.533087	1
H	0.364059	0.057248	-1.563427	1
H	0.045019	1.334558	1.273883	1
H	1.035339	1.927348	-0.078757	1
H	2.462500	0.025378	0.099963	1
H	1.080090	-1.892962	-0.208427	1
H	0.077250	-1.416592	1.180503	1
Es	-2.114669	0.218323	-0.801111	99
Es	2.163812	0.012367	0.380831	99
Es	0.207511	0.573540	-0.122271	99
Es	0.658585	-1.038559	0.330167	99
Es	0.226837	1.225571	0.991497	99
Es	1.258058	0.496454	0.591404	99
Es	-0.815040	0.008986	-0.553175	99
Es	1.269097	-0.505491	0.557056	99
Es	0.938915	-1.613808	-0.035532	99
Es	-2.697581	-0.013153	-0.536463	99
Es	0.220596	-0.558671	-0.160765	99
Es	0.229259	0.043833	-1.221850	99
Es	0.900690	1.633480	0.074994	99
Es	1.651421	-0.005122	0.718710	99
Es	1.719776	-0.013028	0.970038	99
Es	-3.396960	-0.021519	-0.531981	99
Es	0.256125	-1.284420	0.906251	99
Es	-0.050053	0.017876	-0.545780	99
Es	0.634378	1.028771	0.400335	99
Es	-1.497571	0.000771	-0.538274	99
Es	-2.106604	0.094796	-0.197994	99
Es	-2.104216	-0.332069	-0.606685	99
35
Properties=species:S:1:pos:R:3:Z:I:1 energy=-247.83234818478323 field_type=dipole dipole="0.000000 0.000000 0.000000" charge=0
C	-2.697310	-0.013152	-0.536477	6
C	-1.497831	0.000768	-0.538277	6
C	-0.049941	0.017878	-0.545807	6
C	0.634299	1.028908	0.400353	6
N	1.651659	-0.005142	0.719383	7
C	0.658509	-1.038702	0.330173	6
H	-3.763641	-0.025542	-0.533087	1
H	0.364059	0.057248	-1.563427	1
H	0.045019	1.334558	1.273883	1
H	1.035339	1.927348	-0.078757	1
H	2.462500	0.025378	0.099963	1
H	1.080090	-1.892962	-0.208427	1
H	0.077250	-1.416592	1.180503	1
Es	0.658585	-1.038561	0.330164	99
Es	0.207133	0.572673	-0.122665	99
Es	1.258413	0.497416	0.591159	99
Es	-1.497571	0.000771	-0.538274	99
Es	1.270241	-0.507315	0.557294	99
Es	2.164724	0.012192	0.384274	99
Es	-2.104644	-0.065337	-0.185663	99
Es	-0.815092	0.009306	-0.553130	99
Es	-2.697580	-0.013155	-0.536457	99
Es	1.718968	-0.012553	0.965291	99
Es	-2.112824	0.307751	-0.654028	99
Es	0.220824	-0.558664	-0.160700	99
Es	0.229744	0.044485	-1.221839	99
Es	0.937946	-1.611954	-0.034456	99
Es	0.226592	1.225516	0.991422	99
Es	0.634378	1.028770	0.400337	99
Es	-0.050053	0.017873	-0.545779	99
Es	0.256057	-1.284592	0.906264	99
Es	-3.396982	-0.021286	-0.532043	99
Es	-2.108008	-0.261685	-0.765932	99
Es	0.900104	1.632393	0.075493	99
Es	1.651412	-0.005115	0.718667	99
35
Properties=species:S:1:pos:R:3:Z:I:1 energy=-247.83234818478323 field_type=dipole dipole="0.000000 0.000000 0.000000" charge=0
C	-2.697310	-0.013152	-0.536477	6
C	-1.497831	0.000768	-0.538277	6
C	-0.049941	0.017878	-0.545807	6
C	0.634299	1.028908	0.400353	6
N	1.651659	-0.005142	0.719383	7
C	0.658509	-1.038702	0.330173	6
H	-3.763641	-0.025542	-0.533087	1
H	0.364059	0.057248	-1.563427	1
H	0.045019	1.334558	1.273883	1
H	1.035339	1.927348	-0.078757	1
H	2.462500	0.025378	0.099963	1
H	1.080090	-1.892962	-0.208427	1
H	0.077250	-1.416592	1.180503	1
Es	1.718116	-0.012245	0.960093	99
Es	2.165579	0.012172	0.387907	99
Es	-0.815141	0.009289	-0.553209	99
Es	-1.497571	0.000771	-0.538277	99
Es	-2.112656	0.310591	-0.639774	99
Es	0.899646	1.631520	0.075864	99
Es	-3.396990	-0.021369	-0.531936	99
Es	0.230257	0.044375	-1.221711	99
Es	1.271746	-0.508715	0.557590	99
Es	0.255899	-1.284504	0.906272	99
Es	-2.108406	-0.251125	-0.777937	99
Es	0.658585	-1.038560	0.330164	99
Es	0.207142	0.572322	-0.122407	99
Es	0.634378	1.028770	0.400335	99
Es	-2.104416	-0.078711	-0.188004	99
Es	-0.050053	0.017878	-0.545779	99
Es	0.220573	-0.558184	-0.160947	99
Es	1.257932	0.498286	0.590997	99
Es	0.226529	1.225502	0.991437	99
Es	0.937316	-1.610844	-0.033796	99
Es	1.651481	-0.005130	0.718971	99
Es	-2.697580	-0.013162	-0.536453	99
35
Properties=species:S:1:pos:R:3:Z:I:1 energy=-247.83234818478323 field_type=dipole dipole="0.000000 0.000000 0.000000" charge=0
C	-2.697310	-0.013152	-0.536477	6
C	-1.497831	0.000768	-0.538277	6
C	-0.049941	0.017878	-0.545807	6
C	0.634299	1.028908	0.400353	6
N	1.651659	-0.005142	0.719383	7
C	0.658509	-1.038702	0.330173	6
H	-3.763641	-0.025542	-0.533087	1
H	0.364059	0.057248	-1.563427	1
H	0.045019	1.334558	1.273883	1
H	1.035339	1.927348	-0.078757	1
H	2.462500	0.025378	0.099963	1
H	1.080090	-1.892962	-0.208427	1
H	0.077250	-1.416592	1.180503	1
Es	-0.815167	0.009232	-0.553124	99
Es	1.259477	0.499937	0.591047	99
Es	-2.697581	-0.013149	-0.536458	99
Es	1.717372	-0.012427	0.956620	99
Es	-0.050052	0.017875	-0.545780	99
Es	0.255776	-1.284530	0.906244	99
Es	1.271361	-0.509385	0.556803	99
Es	0.220348	-0.557496	-0.160788	99
Es	-1.497571	0.000771	-0.538276	99
Es	-3.396999	-0.021346	-0.531956	99
Es	0.658585	-1.038558	0.330165	99
Es	0.634378	1.028765	0.400335	99
Es	-2.107081	-0.284361	-0.730696	99
Es	2.166177	0.012003	0.390603	99
Es	1.651658	-0.005132	0.719310	99
Es	-2.104989	-0.027146	-0.180504	99
Es	0.898939	1.629807	0.076703	99
Es	0.207077	0.572112	-0.122784	99
Es	-2.113404	0.292255	-0.694425	99
Es	0.936865	-1.609879	-0.033273	99
Es	0.230836	0.043978	-1.221796	99
Es	0.226359	1.225598	0.991430	99
35
Properties=species:S:1:pos:R:3:Z:I:1 energy=-247.83234818478323 field_type=dipole dipole="0.000000 0.000000 0.000000" charge=0
C	-2.697310	-0.013152	-0.536477	6
C	-1.497831	0.000768	-0.538277	6
C	-0.049941	0.017878	-0.545807	6
C	0.634299	1.028908	0.400353	6
N	1.651659	-0.005142	0.719383	7
C	0.658509	-1.038702	0.330173	6
H	-3.763641	-0.025542	-0.533087	1
H	0.364059	0.057248	-1.563427	1
H	0.045019	1.334558	1.273883	1
H	1.035339	1.927348	-0.078757	1
H	2.462500	0.025378	0.099963	1
H	1.080090	-1.892962	-0.208427	1
H	0.077250	-1.416592	1.180503	1
Es	-2.108299	-0.253836	-0.774384	99
Es	1.259133	0.500681	0.590609	99
Es	0.255519	-1.284561	0.906305	99
Es	2.166743	0.011989	0.393353	99
Es	-0.050054	0.017877	-0.545780	99
Es	0.207035	0.571633	-0.122630	99
Es	-2.104520	-0.076072	-0.188243	99
Es	-1.497572	0.000760	-0.538278	99
Es	1.272646	-0.510942	0.556911	99
Es	1.651426	-0.005118	0.718680	99
Es	-2.112653	0.310561	-0.643006	99
Es	0.898569	1.629011	0.077026	99
Es	1.717079	-0.012088	0.953675	99
Es	0.634378	1.028767	0.400335	99
Es	0.220469	-0.557349	-0.161052	99
Es	-2.697581	-0.013155	-0.536456	99
Es	0.936261	-1.608481	-0.032506	99
Es	0.226187	1.225545	0.991419	99
Es	0.658585	-1.038558	0.330165	99
Es	-0.815198	0.009274	-0.553138	99
Es	-3.397005	-0.021303	-0.531916	99
Es	0.231217	0.044292	-1.221687	99
35
Properties=species:S:1:pos:R:3:Z:I:1 energy=-247.83234818478323 field_type=dipole dipole="0.000000 0.000000 0.000000" charge=0
C	-2.697310	-0.013152	-0.536477	6
C	-1.497831	0.000768	-0.538277	6
C	-0.049941	0.017878	-0.545807	6
C	0.634299	1.028908	0.400353	6
N	1.651659	-0.005142	0.719383	7
C	0.658509	-1.038702	0.330173	6
H	-3.763641	-0.025542	-0.533087	1
H	0.364059	0.057248	-1.563427	1
H	0.045019	1.334558	1.273883	1
H	1.035339	1.927348	-0.078757	1
H	2.462500	0.025378	0.099963	1
H	1.080090	-1.892962	-0.208427	1
H	0.077250	-1.416592	1.180503	1
Es	-2.697581	-0.013156	-0.536458	99
Es	0.898304	1.628426	0.077294	99
Es	-2.102501	-0.322300	-0.432650	99
Es	-2.114650	0.066082	-0.879011	99
Es	0.255556	-1.284656	0.906268	99
Es	2.167003	0.011982	0.394629	99
Es	1.716873	-0.012094	0.951453	99
Es	1.259491	0.501415	0.590891	99
Es	-0.815206	0.009232	-0.552991	99
Es	1.651417	-0.005121	0.718698	99
Es	-1.497571	0.000771	-0.538274	99
Es	0.935977	-1.607715	-0.032086	99
Es	0.231815	0.044354	-1.221695	99
Es	0.226042	1.225447	0.991431	99
Es	1.272807	-0.511622	0.556854	99
Es	0.220229	-0.556941	-0.160926	99
Es	0.634378	1.028767	0.400334	99
Es	-0.050052	0.017886	-0.545776	99
Es	0.206786	0.571159	-0.122767	99
Es	0.658585	-1.038559	0.330164	99
Es	-3.396996	-0.021587	-0.531557	99
Es	-2.108341	0.237155	-0.294424	99
35
Properties=species:S:1:pos:R:3:Z:I:1 energy=-247.83234818478323 field_type=dipole dipole="0.000000 0.000000 0.000000" charge=0
C	-2.697310	-0.013152	-0.536477	6
C	-1.497831	0.000768	-0.538277	6
C	-0.049941	0.017878	-0.545807	6
C	0.634299	1.028908	0.400353	6
N	1.651659	-0.005142	0.719383	7
C	0.658509	-1.038702	0.330173	6
H	-3.763641	-0.025542	-0.533087	1
H	0.364059	0.057248	-1.563427	1
H	0.045019	1.334558	1.273883	1
H	1.035339	1.927348	-0.078757	1
H	2.462500	0.025378	0.099963	1
H	1.080090	-1.892962	-0.208427	1
H	0.077250	-1.416592	1.180503	1
Es	0.220138	-0.556645	-0.161210	99
Es	0.634377	1.028773	0.400335	99
Es	0.897798	1.626872	0.078041	99
Es	1.260531	0.503062	0.591242	99
Es	2.167485	0.011777	0.397221	99
Es	-3.397009	-0.021248	-0.531546	99
Es	1.651566	-0.005139	0.719275	99
Es	-0.050055	0.017878	-0.545779	99
Es	-0.815227	0.009191	-0.553018	99
Es	0.207175	0.571245	-0.122672	99
Es	-2.113030	-0.063010	-0.882759	99
Es	0.658586	-1.038556	0.330164	99
Es	-2.109789	0.303513	-0.417130	99
Es	1.716281	-0.012233	0.947299	99
Es	1.272413	-0.512012	0.556671	99
Es	0.225902	1.225585	0.991471	99
Es	0.935813	-1.607489	-0.031956	99
Es	-2.697580	-0.013155	-0.536457	99
Es	0.255286	-1.284449	0.906261	99
Es	-1.497571	0.000771	-0.538275	99
Es	-2.102665	-0.259803	-0.306152	99
Es	0.231940	0.043998	-1.221625	99
35
Properties=species:S:1:pos:R:3:Z:I:1 energy=-247.83234818478323 field_type=dipole dipole="0.000000 0.000000 0.000000" charge=0
C	-2.697310	-0.013152	-0.536477	6
C	-1.497831	0.000768	-0.538277	6
C	-0.049941	0.017878	-0.545807	6
C	0.634299	1.028908	0.400353	6
N	1.651659	-0.005142	0.719383	7
C	0.658509	-1.038702	0.330173	6
H	-3.763641	-0.025542	-0.533087	1
H	0.364059	0.057248	-1.563427	1
H	0.045019	1.334558	1.273883	1
H	1.035339	1.927348	-0.078757	1
H	2.462500	0.025378	0.099963	1
H	1.080090	-1.892962	-0.208427	1
H	0.077250	-1.416592	1.180503	1
Es	0.232243	0.044063	-1.221531	99
Es	0.935266	-1.606094	-0.031149	99
Es	1.715997	-0.011921	0.944184	99
Es	-2.111491	0.323949	-0.563392	99
Es	0.658585	-1.038559	0.330163	99
Es	0.255185	-1.284481	0.906219	99
Es	-0.815253	0.009303	-0.553082	99
Es	1.273466	-0.513596	0.556906	99
Es	-3.397019	-0.021226	-0.531774	99
Es	0.225747	1.225602	0.991403	99
Es	0.220067	-0.556449	-0.161350	99
Es	1.260209	0.503593	0.591177	99
Es	1.651412	-0.005116	0.718627	99
Es	-2.110232	-0.194273	-0.827517	99
Es	-2.697581	-0.013156	-0.536460	99
Es	-0.050054	0.017875	-0.545779	99
Es	-1.497571	0.000771	-0.538274	99
Es	0.897595	1.626281	0.078254	99
Es	2.167958	0.011727	0.399912	99
Es	-2.103750	-0.149058	-0.214836	99
Es	0.207208	0.570926	-0.122636	99
Es	0.634380	1.028764	0.400335	99
35
Properties=species:S:1:pos:R:3:Z:I:1 energy=-247.83234818478323 field_type=dipole dipole="0.000000 0.000000 0.000000" charge=0
C	-2.697310	-0.013152	-0.536477	6
C	-1.497831	0.000768	-0.538277	6
C	-0.049941	0.017878	-0.545807	6
C	0.634299	1.028908	0.400353	6
N	1.651659	-0.005142	0.719383	7
C	0.658509	-1.038702	0.330173	6
H	-3.763641	-0.025542	-0.533087	1
H	0.364059	0.057248	-1.563427	1
H	0.045019	1.334558	1.273883	1
H	1.035339	1.927348	-0.078757	1
H	2.462500	0.025378	0.099963	1
H	1.080090	-1.892962	-0.208427	1
H	0.077250	-1.416592	1.180503	1
Es	1.651435	-0.005125	0.718662	99
Es	0.935078	-1.605529	-0.030988	99
Es	0.658585	-1.038556	0.330165	99
Es	-2.107114	0.141133	-0.218553	99
Es	0.897214	1.625340	0.078728	99
Es	-2.114907	0.176100	-0.832164	99
Es	-3.397011	-0.021485	-0.531589	99
Es	-0.050053	0.017880	-0.545777	99
Es	1.261180	0.504749	0.591279	99
Es	-0.815254	0.009099	-0.553077	99
Es	0.255177	-1.284607	0.906237	99
Es	-1.497571	0.000773	-0.538274	99
Es	0.232649	0.044123	-1.221501	99
Es	-2.103467	-0.336320	-0.555239	99
Es	1.273040	-0.514072	0.556555	99
Es	2.168278	0.011735	0.401854	99
Es	-2.697581	-0.013156	-0.536461	99
Es	0.206648	0.570629	-0.122796	99
Es	1.715671	-0.011972	0.941564	99
Es	0.225935	1.225550	0.991431	99
Es	0.220053	-0.556128	-0.160991	99
Es	0.634379	1.028766	0.400334	99
35
Properties=species:S:1:pos:R:3:Z:I:1 energy=-247.83234818478323 field_type=dipole dipole="0.000000 0.000000 0.000000" charge=0
C	-2.697310	-0.013152	-0.536477	6
C	-1.497831	0.000768	-0.538277	6
C	-0.049941	0.017878	-0.545807	6
C	0.634299	1.028908	0.400353	6
N	1.651659	-0.005142	0.719383	7
C	0.658509	-1.038702	0.330173	6
H	-3.763641	-0.025542	-0.533087	1
H	0.364059	0.057248	-1.563427	1
H	0.045019	1.334558	1.273883	1
H	1.035339	1.927348	-0.078757	1
H	2.462500	0.025378	0.099963	1
H	1.080090	-1.892962	-0.208427	1
H	0.077250	-1.416592	1.180503	1
Es	-2.102430	-0.298190	-0.368212	99
Es	1.273352	-0.514781	0.555886	99
Es	0.934731	-1.604600	-0.030420	99
Es	1.651422	-0.005121	0.718714	99
Es	0.634379	1.028766	0.400333	99
Es	0.255212	-1.284600	0.906262	99
Es	0.206257	0.570267	-0.123348	99
Es	0.896969	1.624503	0.079134	99
Es	2.168294	0.011687	0.401806	99
Es	1.261473	0.505256	0.590601	99
Es	1.715668	-0.011935	0.941982	99
Es	0.225824	1.225576	0.991423	99
Es	0.233279	0.043972	-1.221528	99
Es	0.219888	-0.555607	-0.160539	99
Es	-0.050054	0.017873	-0.545778	99
Es	-2.109020	0.276342	-0.351490	99
Es	-3.397013	-0.021366	-0.531489	99
Es	-2.114039	0.002643	-0.886314	99
Es	-1.497571	0.000768	-0.538273	99
Es	-2.697581	-0.013154	-0.536463	99
Es	0.658586	-1.038556	0.330164	99
Es	-0.815260	0.009183	-0.553050	99
35
Properties=species:S:1:pos:R:3:Z:I:1 energy=-247.83234818478323 field_type=dipole dipole="0.000000 0.000000 0.000000" charge=0
C	-2.697310	-0.013152	-0.536477	6
C	-1.497831	0.000768	-0.538277	6
C	-0.049941	0.017878	-0.545807	6
C	0.634299	1.028908	0.400353	6
N	1.651659	-0.005142	0.719383	7
C	0.658509	-1.038702	0.330173	6
H	-3.763641	-0.025542	-0.533087	1
H	0.364059	0.057248	-1.563427	1
H	0.045019	1.334558	1.273883	1
H	1.035339	1.927348	-0.078757	1
H	2.462500	0.025378	0.099963	1
H	1.080090	-1.892962	-0.208427	1
H	0.077250	-1.416592	1.180503	1
Es	1.651411	-0.005115	0.718648	99
Es	2.168546	0.011625	0.403466	99
Es	-2.113667	-0.025324	-0.885996	99
Es	0.934480	-1.604024	-0.029981	99
Es	0.219976	-0.555599	-0.161054	99
Es	1.273942	-0.515708	0.556092	99
Es	-3.397017	-0.021351	-0.531496	99
Es	0.225878	1.225686	0.991428	99
Es	-1.497571	0.000772	-0.538275	99
Es	0.254894	-1.284362	0.906224	99
Es	-2.697581	-0.013155	-0.536458	99
Es	-0.815275	0.009190	-0.553046	99
Es	0.634379	1.028764	0.400335	99
Es	0.233548	0.044316	-1.221419	99
Es	-0.050054	0.017874	-0.545777	99
Es	0.896730	1.623710	0.079405	99
Es	-2.102524	-0.283767	-0.342393	99
Es	0.658585	-1.038556	0.330165	99
Es	0.206168	0.569838	-0.122909	99
Es	-2.109294	0.289845	-0.377668	99
Es	1.715441	-0.011806	0.939623	99
Es	1.261371	0.506074	0.590488	99
35
Properties=species:S:1:pos:R:3:Z:I:1 energy=-247.83234818478323 field_type=dipole dipole="0.000000 0.000000 0.000000" charge=0
C	-2.697310	-0.013152	-0.536477	6
C	-1.497831	0.000768	-0.538277	6
C	-0.049941	0.017878	-0.545807	6
C	0.634299	1.028908	0.400353	6
N	1.651659	-0.005142	0.719383	7
C	0.658509	-1.038702	0.330173	6
H	-3.763641	-0.025542	-0.533087	1
H	0.364059	0.057248	-1.563427	1
H	0.045019	1.334558	1.273883	1
H	1.035339	1.927348	-0.078757	1
H	2.462500	0.025378	0.099963	1
H	1.080090	-1.892962	-0.208427	1
H	0.077250	-1.416592	1.180503	1
Es	-2.103458	-0.177868	-0.231744	99
Es	0.896491	1.622891	0.079828	99
Es	0.233769	0.043890	-1.221349	99
Es	1.715144	-0.011727	0.936689	99
Es	-1.497571	0.000765	-0.538280	99
Es	0.219377	-0.555188	-0.161168	99
Es	1.261590	0.507004	0.590592	99
Es	-0.050054	0.017876	-0.545779	99
Es	2.168859	0.011452	0.405541	99
Es	0.634379	1.028764	0.400334	99
Es	-2.111016	-0.167293	-0.843209	99
Es	0.934267	-1.603395	-0.029703	99
Es	0.206354	0.569802	-0.122827	99
Es	0.225856	1.225691	0.991381	99
Es	-2.111010	0.325910	-0.531025	99
Es	-0.815289	0.009238	-0.553060	99
Es	1.274170	-0.516350	0.556168	99
Es	-2.697581	-0.013158	-0.536455	99
Es	-3.397022	-0.021251	-0.531524	99
Es	1.651414	-0.005119	0.718675	99
Es	0.658588	-1.038551	0.330164	99
Es	0.255106	-1.284457	0.906154	99
