41
Properties=species:S:1:pos:R:3:Z:I:1 energy=-250.2297163944218 field_type=dipole dipole="0.000000 0.000000 0.000000" charge=0
C	-2.337223	-0.804657	-0.574419	6
C	-0.826343	-0.764177	-0.747729	6
C	-0.222303	0.479863	-0.091189	6
N	1.228067	0.501123	-0.307319	7
C	1.939307	1.341103	0.649961	6
C	1.990267	-0.162267	0.746081	6
H	-2.747303	-1.705497	-1.040379	1
H	-2.808163	0.065433	-1.042759	1
H	-2.610263	-0.815307	0.485001	1
H	-0.588013	-0.779197	-1.817940	1
H	-0.394413	-1.670857	-0.306329	1
H	-0.499803	0.506553	0.971131	1
H	-0.653623	1.377033	-0.552549	1
H	1.368187	1.889673	1.389101	1
H	2.812997	1.855953	0.267311	1
H	2.895697	-0.662367	0.424531	1
H	1.452936	-0.652407	1.547501	1
Es	-0.518507	1.095470	-0.406318	99
Es	1.348684	0.483111	-0.640464	99
Es	0.609433	0.493538	-0.173451	99
Es	1.939211	1.340907	0.649850	99
Es	-2.521065	-0.809995	0.152373	99
Es	1.616586	-0.495364	1.289326	99
Es	2.531946	1.695850	0.391900	99
Es	-0.665663	-0.770129	-1.477499	99
Es	-2.337203	-0.804656	-0.574419	99
Es	1.542573	1.713299	1.150146	99
Es	-0.523551	-0.142365	-0.415024	99
Es	-2.616833	-1.419382	-0.892092	99
Es	-2.656373	-0.207072	-0.893773	99
Es	1.990160	-0.162092	0.745952	99
Es	2.604631	-0.506534	0.530132	99
Es	1.502998	0.077896	0.119193	99
Es	-1.587776	-0.779503	-0.655414	99
Es	-0.405481	0.494416	0.650880	99
Es	1.227918	0.501162	-0.306671	99
Es	-0.529148	-1.383016	-0.438736	99
Es	-0.222180	0.479843	-0.091213	99
Es	2.100100	0.605524	0.877439	99
Es	1.477351	0.990676	0.060679	99
Es	-0.826380	-0.764151	-0.747696	99
41
Properties=species:S:1:pos:R:3:Z:I:1 energy=-250.2297163944218 field_type=dipole dipole="0.000000 0.000000 0.000000" charge=0
C	-2.337223	-0.804657	-0.574419	6
C	-0.826343	-0.764177	-0.747729	6
C	-0.222303	0.479863	-0.091189	6
N	1.228067	0.501123	-0.307319	7
C	1.939307	1.341103	0.649961	6
C	1.990267	-0.162267	0.746081	6
H	-2.747303	-1.705497	-1.040379	1
H	-2.808163	0.065433	-1.042759	1
H	-2.610263	-0.815307	0.485001	1
H	-0.588013	-0.779197	-1.817940	1
H	-0.394413	-1.670857	-0.306329	1
H	-0.499803	0.506553	0.971131	1
H	-0.653623	1.377033	-0.552549	1
H	1.368187	1.889673	1.389101	1
H	2.812997	1.855953	0.267311	1
H	2.895697	-0.662367	0.424531	1
H	1.452936	-0.652407	1.547501	1
Es	1.503341	0.074994	0.118877	99
Es	1.616867	-0.495386	1.288496	99
Es	-0.523818	-0.142117	-0.414836	99
Es	2.101851	0.605017	0.879412	99
Es	-0.666630	-0.769868	-1.476848	99
Es	1.346614	0.483254	-0.637930	99
Es	-0.404722	0.494239	0.650164	99
Es	-0.529145	-1.384671	-0.438397	99
Es	-0.826380	-0.764153	-0.747697	99
Es	1.990152	-0.162095	0.745945	99
Es	-2.656501	-0.205518	-0.893974	99
Es	-2.616525	-1.420682	-0.891921	99
Es	1.939213	1.340909	0.649851	99
Es	2.530695	1.695673	0.391977	99
Es	1.477532	0.993633	0.059121	99
Es	0.609934	0.493747	-0.174141	99
Es	-2.519775	-0.810102	0.151708	99
Es	-0.222170	0.479841	-0.091213	99
Es	1.227925	0.501162	-0.306665	99
Es	1.542846	1.713771	1.149356	99
Es	-1.587851	-0.779340	-0.655656	99
Es	2.603846	-0.506864	0.530287	99
Es	-0.518664	1.096643	-0.406397	99
Es	-2.337206	-0.804655	-0.574420	99
41
Properties=species:S:1:pos:R:3:Z:I:1 energy=-250.2297163944218 field_type=dipole dipole="0.000000 0.000000 0.000000" charge=0
C	-2.337223	-0.804657	-0.574419	6
C	-0.826343	-0.764177	-0.747729	6
C	-0.222303	0.479863	-0.091189	6
N	1.228067	0.501123	-0.307319	7
C	1.939307	1.341103	0.649961	6
C	1.990267	-0.162267	0.746081	6
H	-2.747303	-1.705497	-1.040379	1
H	-2.808163	0.065433	-1.042759	1
H	-2.610263	-0.815307	0.485001	1
H	-0.588013	-0.779197	-1.817940	1
H	-0.394413	-1.670857	-0.306329	1
H	-0.499803	0.506553	0.971131	1
H	-0.653623	1.377033	-0.552549	1
H	1.368187	1.889673	1.389101	1
H	2.812997	1.855953	0.267311	1
H	2.895697	-0.662367	0.424531	1
H	1.452936	-0.652407	1.547501	1
Es	2.529749	1.695553	0.392123	99
Es	1.939211	1.340906	0.649851	99
Es	2.102996	0.604979	0.880605	99
Es	1.227963	0.501169	-0.306772	99
Es	1.617098	-0.495256	1.287935	99
Es	-0.529149	-1.385630	-0.438327	99
Es	-2.519124	-0.810210	0.151265	99
Es	1.543046	1.713978	1.148883	99
Es	-0.404187	0.494021	0.649661	99
Es	-2.656441	-0.204565	-0.894095	99
Es	-0.523918	-0.141910	-0.414735	99
Es	0.610378	0.493401	-0.175090	99
Es	-0.518777	1.097440	-0.406357	99
Es	1.477060	0.995350	0.058895	99
Es	1.990162	-0.162096	0.745952	99
Es	1.503356	0.072869	0.118295	99
Es	-2.337203	-0.804655	-0.574419	99
Es	-0.222170	0.479842	-0.091215	99
Es	-2.616158	-1.421517	-0.891969	99
Es	-1.587892	-0.779243	-0.655432	99
Es	2.603414	-0.507070	0.530490	99
Es	-0.667416	-0.769720	-1.476507	99
Es	-0.826380	-0.764154	-0.747697	99
Es	1.345812	0.483949	-0.636242	99
41
Properties=species:S:1:pos:R:3:Z:I:1 energy=-250.2297163944218 field_type=dipole dipole="0.000000 0.000000 0.000000" charge=0
C	-2.337223	-0.804657	-0.574419	6
C	-0.826343	-0.764177	-0.747729	6
C	-0.222303	0.479863	-0.091189	6
N	1.228067	0.501123	-0.307319	7
C	1.939307	1.341103	0.649961	6
C	1.990267	-0.162267	0.746081	6
H	-2.747303	-1.705497	-1.040379	1
H	-2.808163	0.065433	-1.042759	1
H	-2.610263	-0.815307	0.485001	1
H	-0.588013	-0.779197	-1.817940	1
H	-0.394413	-1.670857	-0.306329	1
H	-0.499803	0.506553	0.971131	1
H	-0.653623	1.377033	-0.552549	1
H	1.368187	1.889673	1.389101	1
H	2.812997	1.855953	0.267311	1
H	2.895697	-0.662367	0.424531	1
H	1.452936	-0.652407	1.547501	1
Es	1.617323	-0.495111	1.287455	99
Es	-1.587948	-0.779199	-0.655432	99
Es	1.939213	1.340904	0.649853	99
Es	2.529001	1.695394	0.392225	99
Es	-0.403873	0.493951	0.649338	99
Es	-0.529235	-1.386318	-0.438332	99
Es	-2.337203	-0.804655	-0.574418	99
Es	-0.667973	-0.769571	-1.476304	99
Es	2.103940	0.604906	0.881676	99
Es	1.990156	-0.162098	0.745944	99
Es	1.227925	0.501162	-0.306663	99
Es	-2.518509	-0.810240	0.151025	99
Es	-2.656373	-0.203910	-0.894143	99
Es	1.543211	1.714161	1.148570	99
Es	-0.524027	-0.141791	-0.414612	99
Es	1.503266	0.071602	0.117946	99
Es	0.610635	0.493373	-0.175640	99
Es	1.345291	0.484396	-0.635234	99
Es	-2.615932	-1.422126	-0.891959	99
Es	1.476699	0.996251	0.058465	99
Es	-0.826380	-0.764153	-0.747697	99
Es	-0.518749	1.097916	-0.406352	99
Es	2.603146	-0.507255	0.530606	99
Es	-0.222174	0.479842	-0.091214	99
41
Properties=species:S:1:pos:R:3:Z:I:1 energy=-250.2297163944218 field_type=dipole dipole="0.000000 0.000000 0.000000" charge=0
C	-2.337223	-0.804657	-0.574419	6
C	-0.826343	-0.764177	-0.747729	6
C	-0.222303	0.479863	-0.091189	6
N	1.228067	0.501123	-0.307319	7
C	1.939307	1.341103	0.649961	6
C	1.990267	-0.162267	0.746081	6
H	-2.747303	-1.705497	-1.040379	1
H	-2.808163	0.065433	-1.042759	1
H	-2.610263	-0.815307	0.485001	1
H	-0.588013	-0.779197	-1.817940	1
H	-0.394413	-1.670857	-0.306329	1
H	-0.499803	0.506553	0.971131	1
H	-0.653623	1.377033	-0.552549	1
H	1.368187	1.889673	1.389101	1
H	2.812997	1.855953	0.267311	1
H	2.895697	-0.662367	0.424531	1
H	1.452936	-0.652407	1.547501	1
Es	1.476652	0.997248	0.057725	99
Es	1.617566	-0.494976	1.287045	99
Es	-0.222171	0.479842	-0.091215	99
Es	-2.337203	-0.804655	-0.574419	99
Es	1.503384	0.070550	0.117433	99
Es	-0.524124	-0.141742	-0.414541	99
Es	-0.529319	-1.386774	-0.438237	99
Es	2.602900	-0.507358	0.530731	99
Es	-0.668382	-0.769495	-1.476268	99
Es	-0.403611	0.493868	0.649082	99
Es	1.344400	0.484613	-0.634291	99
Es	2.528467	1.695073	0.392396	99
Es	-2.518043	-0.810313	0.150825	99
Es	-0.518775	1.098278	-0.406342	99
Es	1.227905	0.501162	-0.306656	99
Es	-2.615719	-1.422531	-0.891911	99
Es	-0.826380	-0.764153	-0.747696	99
Es	1.990157	-0.162102	0.745944	99
Es	-1.587896	-0.779135	-0.655401	99
Es	2.104562	0.604799	0.882559	99
Es	1.543398	1.714407	1.148299	99
Es	1.939215	1.340906	0.649850	99
Es	0.610847	0.493347	-0.175644	99
Es	-2.656401	-0.203430	-0.894167	99
41
Properties=species:S:1:pos:R:3:Z:I:1 energy=-250.2297163944218 field_type=dipole dipole="0.000000 0.000000 0.000000" charge=0
C	-2.337223	-0.804657	-0.574419	6
C	-0.826343	-0.764177	-0.747729	6
C	-0.222303	0.479863	-0.091189	6
N	1.228067	0.501123	-0.307319	7
C	1.939307	1.341103	0.649961	6
C	1.990267	-0.162267	0.746081	6
H	-2.747303	-1.705497	-1.040379	1
H	-2.808163	0.065433	-1.042759	1
H	-2.610263	-0.815307	0.485001	1
H	-0.588013	-0.779197	-1.817940	1
H	-0.394413	-1.670857	-0.306329	1
H	-0.499803	0.506553	0.971131	1
H	-0.653623	1.377033	-0.552549	1
H	1.368187	1.889673	1.389101	1
H	2.812997	1.855953	0.267311	1
H	2.895697	-0.662367	0.424531	1
H	1.452936	-0.652407	1.547501	1
Es	-2.517703	-0.810310	0.150747	99
Es	1.939211	1.340909	0.649853	99
Es	-0.524233	-0.141621	-0.414470	99
Es	-0.668767	-0.769430	-1.476183	99
Es	2.105181	0.604704	0.883191	99
Es	1.503233	0.069873	0.117134	99
Es	-2.656268	-0.203081	-0.894182	99
Es	-1.587855	-0.779129	-0.655401	99
Es	1.617680	-0.494831	1.286782	99
Es	1.543580	1.714563	1.148121	99
Es	2.602748	-0.507488	0.530834	99
Es	-0.222171	0.479843	-0.091215	99
Es	-0.826380	-0.764152	-0.747695	99
Es	1.344439	0.485001	-0.633232	99
Es	2.527961	1.694858	0.392466	99
Es	1.990148	-0.162107	0.745948	99
Es	0.610765	0.493210	-0.176465	99
Es	-2.615592	-1.422862	-0.891959	99
Es	-0.403427	0.493836	0.648901	99
Es	-0.529418	-1.387181	-0.438235	99
Es	-0.518703	1.098570	-0.406344	99
Es	1.227953	0.501157	-0.306703	99
Es	-2.337203	-0.804655	-0.574419	99
Es	1.476252	0.997754	0.057626	99
41
Properties=species:S:1:pos:R:3:Z:I:1 energy=-250.2297163944218 field_type=dipole dipole="0.000000 0.000000 0.000000" charge=0
C	-2.337223	-0.804657	-0.574419	6
C	-0.826343	-0.764177	-0.747729	6
C	-0.222303	0.479863	-0.091189	6
N	1.228067	0.501123	-0.307319	7
C	1.939307	1.341103	0.649961	6
C	1.990267	-0.162267	0.746081	6
H	-2.747303	-1.705497	-1.040379	1
H	-2.808163	0.065433	-1.042759	1
H	-2.610263	-0.815307	0.485001	1
H	-0.588013	-0.779197	-1.817940	1
H	-0.394413	-1.670857	-0.306329	1
H	-0.499803	0.506553	0.971131	1
H	-0.653623	1.377033	-0.552549	1
H	1.368187	1.889673	1.389101	1
H	2.812997	1.855953	0.267311	1
H	2.895697	-0.662367	0.424531	1
H	1.452936	-0.652407	1.547501	1
Es	1.990157	-0.162102	0.745948	99
Es	0.610641	0.493242	-0.177293	99
Es	-0.826380	-0.764153	-0.747695	99
Es	2.105645	0.604920	0.883683	99
Es	-0.524277	-0.141567	-0.414435	99
Es	-0.518703	1.098749	-0.406307	99
Es	1.476009	0.997979	0.057225	99
Es	-2.615396	-1.423131	-0.891947	99
Es	-0.222170	0.479842	-0.091215	99
Es	2.602622	-0.507486	0.531001	99
Es	1.939212	1.340906	0.649851	99
Es	-1.588011	-0.779102	-0.655450	99
Es	1.344635	0.484977	-0.632407	99
Es	-2.517409	-0.810373	0.150614	99
Es	1.543645	1.714708	1.147919	99
Es	1.227939	0.501161	-0.306674	99
Es	-2.337203	-0.804655	-0.574419	99
Es	-2.656242	-0.202739	-0.894223	99
Es	1.503022	0.069273	0.117256	99
Es	-0.529492	-1.387481	-0.438236	99
Es	2.527541	1.694722	0.392512	99
Es	-0.403263	0.493797	0.648768	99
Es	1.617852	-0.494679	1.286631	99
Es	-0.668942	-0.769378	-1.476006	99
41
Properties=species:S:1:pos:R:3:Z:I:1 energy=-250.2297163944218 field_type=dipole dipole="0.000000 0.000000 0.000000" charge=0
C	-2.337223	-0.804657	-0.574419	6
C	-0.826343	-0.764177	-0.747729	6
C	-0.222303	0.479863	-0.091189	6
N	1.228067	0.501123	-0.307319	7
C	1.939307	1.341103	0.649961	6
C	1.990267	-0.162267	0.746081	6
H	-2.747303	-1.705497	-1.040379	1
H	-2.808163	0.065433	-1.042759	1
H	-2.610263	-0.815307	0.485001	1
H	-0.588013	-0.779197	-1.817940	1
H	-0.394413	-1.670857	-0.306329	1
H	-0.499803	0.506553	0.971131	1
H	-0.653623	1.377033	-0.552549	1
H	1.368187	1.889673	1.389101	1
H	2.812997	1.855953	0.267311	1
H	2.895697	-0.662367	0.424531	1
H	1.452936	-0.652407	1.547501	1
Es	-0.518699	1.098892	-0.406376	99
Es	-0.826379	-0.764153	-0.747696	99
Es	-2.615296	-1.423371	-0.891922	99
Es	-0.529471	-1.387629	-0.438153	99
Es	1.502861	0.069034	0.117049	99
Es	-0.403118	0.493813	0.648691	99
Es	-1.587970	-0.779113	-0.655214	99
Es	1.344475	0.484907	-0.631819	99
Es	2.602584	-0.507552	0.531080	99
Es	-0.222171	0.479842	-0.091214	99
Es	2.105906	0.604734	0.884168	99
Es	-2.337203	-0.804655	-0.574419	99
Es	2.527253	1.694473	0.392709	99
Es	-2.517253	-0.810312	0.150507	99
Es	1.939211	1.340906	0.649850	99
Es	1.990165	-0.162097	0.745952	99
Es	0.610733	0.493136	-0.177602	99
Es	-2.656137	-0.202544	-0.894298	99
Es	1.227904	0.501160	-0.306703	99
Es	1.543868	1.714759	1.147837	99
Es	-0.524301	-0.141517	-0.414458	99
Es	1.475839	0.998769	0.056839	99
Es	-0.669271	-0.769419	-1.476061	99
Es	1.617900	-0.494632	1.286352	99
41
Properties=species:S:1:pos:R:3:Z:I:1 energy=-250.2297163944218 field_type=dipole dipole="0.000000 0.000000 0.000000" charge=0
C	-2.337223	-0.804657	-0.574419	6
C	-0.826343	-0.764177	-0.747729	6
C	-0.222303	0.479863	-0.091189	6
N	1.228067	0.501123	-0.307319	7
C	1.939307	1.341103	0.649961	6
C	1.990267	-0.162267	0.746081	6
H	-2.747303	-1.705497	-1.040379	1
H	-2.808163	0.065433	-1.042759	1
H	-2.610263	-0.815307	0.485001	1
H	-0.588013	-0.779197	-1.817940	1
H	-0.394413	-1.670857	-0.306329	1
H	-0.499803	0.506553	0.971131	1
H	-0.653623	1.377033	-0.552549	1
H	1.368187	1.889673	1.389101	1
H	2.812997	1.855953	0.267311	1
H	2.895697	-0.662367	0.424531	1
H	1.452936	-0.652407	1.547501	1
Es	-2.615208	-1.423591	-0.891917	99
Es	1.475941	0.998793	0.056269	99
Es	-0.529645	-1.387856	-0.438094	99
Es	-0.222173	0.479843	-0.091214	99
Es	-0.826380	-0.764151	-0.747695	99
Es	-2.517079	-0.810281	0.150402	99
Es	1.227922	0.501161	-0.306685	99
Es	2.106387	0.604861	0.884618	99
Es	-0.669317	-0.769415	-1.475949	99
Es	-2.337203	-0.804655	-0.574420	99
Es	1.543920	1.714883	1.147665	99
Es	0.610708	0.493363	-0.177415	99
Es	1.990158	-0.162095	0.745948	99
Es	-0.518660	1.099073	-0.406407	99
Es	-0.403093	0.493752	0.648522	99
Es	-2.656067	-0.202364	-0.894315	99
Es	1.502718	0.068566	0.116967	99
Es	1.618066	-0.494446	1.286239	99
Es	-0.524240	-0.141494	-0.414436	99
Es	1.344158	0.484769	-0.631524	99
Es	2.526856	1.694371	0.392708	99
Es	-1.588029	-0.779008	-0.655304	99
Es	2.602476	-0.507547	0.531281	99
Es	1.939215	1.340898	0.649854	99
41
Properties=species:S:1:pos:R:3:Z:I:1 energy=-250.2297163944218 field_type=dipole dipole="0.000000 0.000000 0.000000" charge=0
C	-2.337223	-0.804657	-0.574419	6
C	-0.826343	-0.764177	-0.747729	6
C	-0.222303	0.479863	-0.091189	6
N	1.228067	0.501123	-0.307319	7
C	1.939307	1.341103	0.649961	6
C	1.990267	-0.162267	0.746081	6
H	-2.747303	-1.705497	-1.040379	1
H	-2.808163	0.065433	-1.042759	1
H	-2.610263	-0.815307	0.485001	1
H	-0.588013	-0.779197	-1.817940	1
H	-0.394413	-1.670857	-0.306329	1
H	-0.499803	0.506553	0.971131	1
H	-0.653623	1.377033	-0.552549	1
H	1.368187	1.889673	1.389101	1
H	2.812997	1.855953	0.267311	1
H	2.895697	-0.662367	0.424531	1
H	1.452936	-0.652407	1.547501	1
Es	-0.529569	-1.387983	-0.438192	99
Es	1.502751	0.068363	0.116934	99
Es	-1.588013	-0.779070	-0.655247	99
Es	0.610866	0.493219	-0.177853	99
Es	2.106711	0.604692	0.885006	99
Es	1.544067	1.714904	1.147678	99
Es	-0.826380	-0.764152	-0.747695	99
Es	2.526583	1.694216	0.392800	99
Es	1.344132	0.485073	-0.630991	99
Es	-0.518655	1.099163	-0.406385	99
Es	1.990157	-0.162098	0.745945	99
Es	-0.524330	-0.141477	-0.414363	99
Es	-0.669572	-0.769338	-1.475933	99
Es	-2.656101	-0.202242	-0.894340	99
Es	1.475429	0.999190	0.056258	99
Es	-0.402970	0.493775	0.648442	99
Es	-2.516848	-0.810224	0.150313	99
Es	1.618099	-0.494473	1.285929	99
Es	1.939214	1.340908	0.649853	99
Es	-0.222171	0.479842	-0.091215	99
Es	1.228057	0.501149	-0.306959	99
Es	-2.337203	-0.804655	-0.574420	99
Es	2.602343	-0.507579	0.531338	99
Es	-2.615167	-1.423773	-0.891804	99
41
Properties=species:S:1:pos:R:3:Z:I:1 energy=-250.2297163944218 field_type=dipole dipole="0.000000 0.000000 0.000000" charge=0
C	-2.337223	-0.804657	-0.574419	6
C	-0.826343	-0.764177	-0.747729	6
C	-0.222303	0.479863	-0.091189	6
N	1.228067	0.501123	-0.307319	7
C	1.939307	1.341103	0.649961	6
C	1.990267	-0.162267	0.746081	6
H	-2.747303	-1.705497	-1.040379	1
H	-2.808163	0.065433	-1.042759	1
H	-2.610263	-0.815307	0.485001	1
H	-0.588013	-0.779197	-1.817940	1
H	-0.394413	-1.670857	-0.306329	1
H	-0.499803	0.506553	0.971131	1
H	-0.653623	1.377033	-0.552549	1
H	1.368187	1.889673	1.389101	1
H	2.812997	1.855953	0.267311	1
H	2.895697	-0.662367	0.424531	1
H	1.452936	-0.652407	1.547501	1
Es	1.544140	1.715022	1.147446	99
Es	-2.337203	-0.804655	-0.574419	99
Es	2.526479	1.694036	0.392919	99
Es	-0.402861	0.493645	0.648427	99
Es	-1.587957	-0.779066	-0.655378	99
Es	2.106946	0.604586	0.885552	99
Es	0.610557	0.492955	-0.178583	99
Es	1.227983	0.501153	-0.306759	99
Es	-0.222171	0.479842	-0.091215	99
Es	-0.529665	-1.388168	-0.438194	99
Es	1.502700	0.068460	0.116706	99
Es	1.939211	1.340905	0.649850	99
Es	1.618174	-0.494380	1.285755	99
Es	1.475269	0.999434	0.056221	99
Es	2.602218	-0.507736	0.531295	99
Es	1.990157	-0.162097	0.745945	99
Es	1.344414	0.485237	-0.630398	99
Es	-0.524389	-0.141399	-0.414313	99
Es	-2.615087	-1.423892	-0.891762	99
Es	-0.826380	-0.764152	-0.747696	99
Es	-0.669750	-0.769254	-1.475997	99
Es	-0.518676	1.099299	-0.406322	99
Es	-2.516538	-0.810259	0.150345	99
Es	-2.656140	-0.202083	-0.894326	99
41
Properties=species:S:1:pos:R:3:Z:I:1 energy=-250.2297163944218 field_type=dipole dipole="0.000000 0.000000 0.000000" charge=0
C	-2.337223	-0.804657	-0.574419	6
C	-0.826343	-0.764177	-0.747729	6
C	-0.222303	0.479863	-0.091189	6
N	1.228067	0.501123	-0.307319	7
C	1.939307	1.341103	0.649961	6
C	1.990267	-0.162267	0.746081	6
H	-2.747303	-1.705497	-1.040379	1
H	-2.808163	0.065433	-1.042759	1
H	-2.610263	-0.815307	0.485001	1
H	-0.588013	-0.779197	-1.817940	1
H	-0.394413	-1.670857	-0.306329	1
H	-0.499803	0.506553	0.971131	1
H	-0.653623	1.377033	-0.552549	1
H	1.368187	1.889673	1.389101	1
H	2.812997	1.855953	0.267311	1
H	2.895697	-0.662367	0.424531	1
H	1.452936	-0.652407	1.547501	1
Es	-1.587885	-0.779043	-0.655178	99
Es	1.474884	0.999778	0.055805	99
Es	0.610638	0.492903	-0.178883	99
Es	-0.222172	0.479842	-0.091214	99
Es	-2.614946	-1.423959	-0.891905	99
Es	-0.529681	-1.388297	-0.438163	99
Es	-2.656042	-0.201919	-0.894305	99
Es	2.526301	1.693892	0.393025	99
Es	-0.669800	-0.769238	-1.475893	99
Es	-0.518666	1.099388	-0.406375	99
Es	1.344589	0.485121	-0.630256	99
Es	1.502649	0.068262	0.117055	99
Es	-2.516701	-0.810370	0.150150	99
Es	-0.826380	-0.764152	-0.747695	99
Es	1.990157	-0.162097	0.745945	99
Es	1.939211	1.340907	0.649850	99
Es	1.544268	1.715022	1.147512	99
Es	2.107167	0.604674	0.885577	99
Es	-2.337202	-0.804655	-0.574418	99
Es	1.618226	-0.494174	1.285661	99
Es	2.602134	-0.507892	0.531387	99
Es	-0.524406	-0.141362	-0.414294	99
Es	1.227915	0.501164	-0.306624	99
Es	-0.402829	0.493635	0.648338	99
