35
Properties=species:S:1:pos:R:3:Z:I:1 energy=-247.82623106150626 field_type=dipole dipole="0.000000 0.000000 0.000000" charge=0
C	0.757612	-2.856606	-0.376904	6
C	0.200172	-1.869096	0.022116	6
C	-0.484827	-0.662396	0.510696	6
N	0.423722	0.489174	0.476066	7
C	0.372722	1.245904	-0.772194	6
C	-0.266838	1.774884	0.486546	6
H	1.260672	-3.726986	-0.728084	1
H	-0.798298	-0.824736	1.548776	1
H	-1.402457	-0.505256	-0.071834	1
H	-0.263547	0.888724	-1.572504	1
H	1.310723	1.683934	-1.091274	1
H	0.237943	2.574914	1.014546	1
H	-1.347597	1.787544	0.554046	1
Es	1.007467	1.541806	-0.991795	99
Es	-0.266724	1.774665	0.486478	99
Es	-0.063737	0.996386	-1.310503	99
Es	0.002905	-0.006031	0.463478	99
Es	0.065650	1.022023	0.616202	99
Es	-0.011743	1.694466	-0.250359	99
Es	0.576934	-2.195469	-0.481532	99
Es	0.423139	0.489291	0.475726	99
Es	0.200040	-1.868878	0.022202	99
Es	0.164372	-2.546185	-0.169843	99
Es	0.757719	-2.856807	-0.376977	99
Es	1.084486	-3.425282	-0.606580	99
Es	-1.099505	-0.557296	0.103996	99
Es	0.729829	0.461226	0.646359	99
Es	-0.690107	-0.781425	1.202978	99
Es	0.454321	0.702651	-0.143518	99
Es	-1.003614	1.773438	0.534142	99
Es	0.696438	-2.372770	0.105196	99
Es	0.071075	2.317006	0.848391	99
Es	-0.484672	-0.662409	0.510633	99
Es	0.372683	1.245832	-0.771958	99
Es	-0.126735	-1.289314	0.251777	99
35
Properties=species:S:1:pos:R:3:Z:I:1 energy=-247.82623106150626 field_type=dipole dipole="0.000000 0.000000 0.000000" charge=0
C	0.757612	-2.856606	-0.376904	6
C	0.200172	-1.869096	0.022116	6
C	-0.484827	-0.662396	0.510696	6
N	0.423722	0.489174	0.476066	7
C	0.372722	1.245904	-0.772194	6
C	-0.266838	1.774884	0.486546	6
H	1.260672	-3.726986	-0.728084	1
H	-0.798298	-0.824736	1.548776	1
H	-1.402457	-0.505256	-0.071834	1
H	-0.263547	0.888724	-1.572504	1
H	1.310723	1.683934	-1.091274	1
H	0.237943	2.574914	1.014546	1
H	-1.347597	1.787544	0.554046	1
Es	0.372680	1.245826	-0.771949	99
Es	0.723326	0.460325	0.638737	99
Es	-0.266725	1.774675	0.486473	99
Es	0.248429	-2.404810	-0.441908	99
Es	-0.691542	-0.779008	1.202294	99
Es	0.200024	-1.868872	0.022209	99
Es	0.458942	0.696534	-0.144217	99
Es	-1.097118	-0.556164	0.106464	99
Es	0.423148	0.489302	0.475729	99
Es	-0.484673	-0.662410	0.510633	99
Es	0.427373	-2.531648	0.134209	99
Es	1.005684	1.538368	-0.992084	99
Es	0.762008	-2.177875	-0.237700	99
Es	0.070712	2.317129	0.848021	99
Es	-1.003350	1.773661	0.533982	99
Es	0.065026	1.027997	0.620618	99
Es	0.757724	-2.856808	-0.376998	99
Es	-0.059872	0.995375	-1.308696	99
Es	-0.016219	1.701107	-0.247861	99
Es	-0.127074	-1.291607	0.250475	99
Es	1.086141	-3.426204	-0.607946	99
Es	0.005578	-0.007966	0.464008	99
35
Properties=species:S:1:pos:R:3:Z:I:1 energy=-247.82623106150626 field_type=dipole dipole="0.000000 0.000000 0.000000" charge=0
C	0.757612	-2.856606	-0.376904	6
C	0.200172	-1.869096	0.022116	6
C	-0.484827	-0.662396	0.510696	6
N	0.423722	0.489174	0.476066	7
C	0.372722	1.245904	-0.772194	6
C	-0.266838	1.774884	0.486546	6
H	1.260672	-3.726986	-0.728084	1
H	-0.798298	-0.824736	1.548776	1
H	-1.402457	-0.505256	-0.071834	1
H	-0.263547	0.888724	-1.572504	1
H	1.310723	1.683934	-1.091274	1
H	0.237943	2.574914	1.014546	1
H	-1.347597	1.787544	0.554046	1
Es	0.462589	0.692423	-0.144679	99
Es	0.423127	0.489308	0.475713	99
Es	-1.003012	1.773553	0.533564	99
Es	-0.484673	-0.662410	0.510635	99
Es	0.008633	-0.010634	0.465543	99
Es	0.065007	1.030393	0.621656	99
Es	0.372679	1.245830	-0.771952	99
Es	0.702757	-2.361267	0.087195	99
Es	0.547288	-2.206355	-0.497963	99
Es	1.003751	1.536063	-0.991594	99
Es	1.085852	-3.427343	-0.607697	99
Es	0.200031	-1.868864	0.022211	99
Es	-1.095213	-0.555725	0.107966	99
Es	-0.057291	0.995180	-1.307388	99
Es	-0.126967	-1.293159	0.250691	99
Es	0.757725	-2.856815	-0.376993	99
Es	-0.018716	1.705247	-0.246538	99
Es	0.070340	2.317469	0.848106	99
Es	-0.692491	-0.777407	1.201818	99
Es	0.188408	-2.545605	-0.136052	99
Es	-0.266728	1.774679	0.486478	99
Es	0.717123	0.462360	0.633775	99
35
Properties=species:S:1:pos:R:3:Z:I:1 energy=-247.82623106150626 field_type=dipole dipole="0.000000 0.000000 0.000000" charge=0
C	0.757612	-2.856606	-0.376904	6
C	0.200172	-1.869096	0.022116	6
C	-0.484827	-0.662396	0.510696	6
N	0.423722	0.489174	0.476066	7
C	0.372722	1.245904	-0.772194	6
C	-0.266838	1.774884	0.486546	6
H	1.260672	-3.726986	-0.728084	1
H	-0.798298	-0.824736	1.548776	1
H	-1.402457	-0.505256	-0.071834	1
H	-0.263547	0.888724	-1.572504	1
H	1.310723	1.683934	-1.091274	1
H	0.237943	2.574914	1.014546	1
H	-1.347597	1.787544	0.554046	1
Es	1.086436	-3.427389	-0.607819	99
Es	0.070272	2.317613	0.847955	99
Es	0.512107	-2.221939	-0.512666	99
Es	-1.093591	-0.555444	0.108867	99
Es	-0.266728	1.774689	0.486470	99
Es	0.423107	0.489320	0.475697	99
Es	-0.020687	1.708281	-0.245632	99
Es	-0.126979	-1.293826	0.250252	99
Es	0.205480	-2.552921	-0.093204	99
Es	0.720686	-2.338339	0.058892	99
Es	0.065455	1.031232	0.621616	99
Es	0.372673	1.245830	-0.771938	99
Es	1.001867	1.534528	-0.991042	99
Es	0.464584	0.689471	-0.144664	99
Es	0.757728	-2.856818	-0.376988	99
Es	0.011663	-0.013478	0.467311	99
Es	-0.693235	-0.776185	1.201787	99
Es	-0.055344	0.995248	-1.306143	99
Es	0.200033	-1.868864	0.022215	99
Es	-0.484670	-0.662409	0.510632	99
Es	-1.002958	1.773631	0.533407	99
Es	0.712326	0.464689	0.629489	99
35
Properties=species:S:1:pos:R:3:Z:I:1 energy=-247.82623106150626 field_type=dipole dipole="0.000000 0.000000 0.000000" charge=0
C	0.757612	-2.856606	-0.376904	6
C	0.200172	-1.869096	0.022116	6
C	-0.484827	-0.662396	0.510696	6
N	0.423722	0.489174	0.476066	7
C	0.372722	1.245904	-0.772194	6
C	-0.266838	1.774884	0.486546	6
H	1.260672	-3.726986	-0.728084	1
H	-0.798298	-0.824736	1.548776	1
H	-1.402457	-0.505256	-0.071834	1
H	-0.263547	0.888724	-1.572504	1
H	1.310723	1.683934	-1.091274	1
H	0.237943	2.574914	1.014546	1
H	-1.347597	1.787544	0.554046	1
Es	-0.022127	1.710349	-0.244461	99
Es	-0.266728	1.774679	0.486482	99
Es	1.087643	-3.426272	-0.609317	99
Es	0.259134	-2.400148	-0.439786	99
Es	-0.053935	0.995482	-1.304376	99
Es	-1.092497	-0.554891	0.109196	99
Es	0.707141	0.467443	0.626732	99
Es	0.070345	2.317221	0.847605	99
Es	-1.003601	1.773988	0.533337	99
Es	-0.484670	-0.662406	0.510630	99
Es	0.372681	1.245828	-0.771939	99
Es	0.437153	-2.528428	0.141745	99
Es	0.200027	-1.868860	0.022205	99
Es	1.000914	1.533478	-0.991149	99
Es	-0.127394	-1.294173	0.249208	99
Es	0.757736	-2.856812	-0.376995	99
Es	0.741620	-2.185772	-0.246717	99
Es	0.065495	1.031519	0.620190	99
Es	0.467068	0.687077	-0.144950	99
Es	0.014829	-0.016675	0.469364	99
Es	0.423078	0.489307	0.475688	99
Es	-0.693691	-0.775013	1.201801	99
35
Properties=species:S:1:pos:R:3:Z:I:1 energy=-247.82623106150626 field_type=dipole dipole="0.000000 0.000000 0.000000" charge=0
C	0.757612	-2.856606	-0.376904	6
C	0.200172	-1.869096	0.022116	6
C	-0.484827	-0.662396	0.510696	6
N	0.423722	0.489174	0.476066	7
C	0.372722	1.245904	-0.772194	6
C	-0.266838	1.774884	0.486546	6
H	1.260672	-3.726986	-0.728084	1
H	-0.798298	-0.824736	1.548776	1
H	-1.402457	-0.505256	-0.071834	1
H	-0.263547	0.888724	-1.572504	1
H	1.310723	1.683934	-1.091274	1
H	0.237943	2.574914	1.014546	1
H	-1.347597	1.787544	0.554046	1
Es	0.704133	0.468410	0.624322	99
Es	1.086960	-3.426711	-0.609600	99
Es	-1.003916	1.773672	0.532607	99
Es	-0.023622	1.711552	-0.241126	99
Es	0.070565	2.318010	0.847892	99
Es	0.200017	-1.868864	0.022207	99
Es	-0.052902	0.995042	-1.304305	99
Es	0.066833	1.031998	0.617648	99
Es	0.016469	-0.018374	0.469486	99
Es	0.613252	-2.435829	0.145018	99
Es	-0.266728	1.774680	0.486482	99
Es	0.468284	0.686661	-0.143851	99
Es	0.617731	-2.178844	-0.454313	99
Es	0.423115	0.489307	0.475710	99
Es	-0.693845	-0.774380	1.201276	99
Es	0.207934	-2.498729	-0.236192	99
Es	0.757734	-2.856817	-0.376990	99
Es	-1.091863	-0.554693	0.109829	99
Es	0.372670	1.245827	-0.771937	99
Es	-0.127744	-1.295152	0.249967	99
Es	0.999814	1.532567	-0.990272	99
Es	-0.484671	-0.662410	0.510635	99
35
Properties=species:S:1:pos:R:3:Z:I:1 energy=-247.82623106150626 field_type=dipole dipole="0.000000 0.000000 0.000000" charge=0
C	0.757612	-2.856606	-0.376904	6
C	0.200172	-1.869096	0.022116	6
C	-0.484827	-0.662396	0.510696	6
N	0.423722	0.489174	0.476066	7
C	0.372722	1.245904	-0.772194	6
C	-0.266838	1.774884	0.486546	6
H	1.260672	-3.726986	-0.728084	1
H	-0.798298	-0.824736	1.548776	1
H	-1.402457	-0.505256	-0.071834	1
H	-0.263547	0.888724	-1.572504	1
H	1.310723	1.683934	-1.091274	1
H	0.237943	2.574914	1.014546	1
H	-1.347597	1.787544	0.554046	1
Es	0.372673	1.245831	-0.771933	99
Es	0.471154	0.684918	-0.144007	99
Es	-0.484671	-0.662408	0.510631	99
Es	0.574774	-2.193886	-0.483755	99
Es	0.067276	1.031952	0.616053	99
Es	0.654979	-2.404490	0.125788	99
Es	0.070856	2.317651	0.847461	99
Es	0.695524	0.472580	0.619992	99
Es	0.999094	1.531922	-0.990394	99
Es	-0.694848	-0.773412	1.201476	99
Es	0.200017	-1.868860	0.022201	99
Es	0.757734	-2.856815	-0.376992	99
Es	0.209146	-2.514754	-0.188085	99
Es	-0.051967	0.995696	-1.302673	99
Es	-0.266728	1.774679	0.486483	99
Es	0.423100	0.489320	0.475699	99
Es	0.022277	-0.022741	0.472875	99
Es	-0.024930	1.712795	-0.240076	99
Es	-1.090200	-0.554786	0.110154	99
Es	-0.127947	-1.295631	0.250179	99
Es	-1.004313	1.774074	0.532895	99
Es	1.087224	-3.426712	-0.609479	99
35
Properties=species:S:1:pos:R:3:Z:I:1 energy=-247.82623106150626 field_type=dipole dipole="0.000000 0.000000 0.000000" charge=0
C	0.757612	-2.856606	-0.376904	6
C	0.200172	-1.869096	0.022116	6
C	-0.484827	-0.662396	0.510696	6
N	0.423722	0.489174	0.476066	7
C	0.372722	1.245904	-0.772194	6
C	-0.266838	1.774884	0.486546	6
H	1.260672	-3.726986	-0.728084	1
H	-0.798298	-0.824736	1.548776	1
H	-1.402457	-0.505256	-0.071834	1
H	-0.263547	0.888724	-1.572504	1
H	1.310723	1.683934	-1.091274	1
H	0.237943	2.574914	1.014546	1
H	-1.347597	1.787544	0.554046	1
Es	0.310987	-2.562912	0.067024	99
Es	-0.484671	-0.662410	0.510634	99
Es	-1.091021	-0.553594	0.109786	99
Es	0.070845	2.318034	0.847565	99
Es	-0.266736	1.774686	0.486472	99
Es	0.699337	0.471489	0.620289	99
Es	-0.693723	-0.772546	1.201420	99
Es	-1.004541	1.774036	0.532124	99
Es	-0.025742	1.714075	-0.236861	99
Es	0.372674	1.245831	-0.771925	99
Es	0.423230	0.489316	0.475765	99
Es	-0.127333	-1.295529	0.250420	99
Es	0.021273	-0.023476	0.471490	99
Es	0.067734	1.031412	0.612702	99
Es	0.469506	0.684558	-0.142667	99
Es	0.200019	-1.868867	0.022218	99
Es	0.392722	-2.289357	-0.523395	99
Es	0.757733	-2.856817	-0.376993	99
Es	-0.051196	0.995359	-1.303826	99
Es	1.088197	-3.426243	-0.609325	99
Es	0.734064	-2.261485	-0.089842	99
Es	0.996864	1.531362	-0.988584	99
35
Properties=species:S:1:pos:R:3:Z:I:1 energy=-247.82623106150626 field_type=dipole dipole="0.000000 0.000000 0.000000" charge=0
C	0.757612	-2.856606	-0.376904	6
C	0.200172	-1.869096	0.022116	6
C	-0.484827	-0.662396	0.510696	6
N	0.423722	0.489174	0.476066	7
C	0.372722	1.245904	-0.772194	6
C	-0.266838	1.774884	0.486546	6
H	1.260672	-3.726986	-0.728084	1
H	-0.798298	-0.824736	1.548776	1
H	-1.402457	-0.505256	-0.071834	1
H	-0.263547	0.888724	-1.572504	1
H	1.310723	1.683934	-1.091274	1
H	0.237943	2.574914	1.014546	1
H	-1.347597	1.787544	0.554046	1
Es	0.068646	1.031389	0.610600	99
Es	-0.027103	1.714387	-0.234393	99
Es	-0.128096	-1.296134	0.250340	99
Es	0.606574	-2.183270	-0.460693	99
Es	0.688900	0.475253	0.616135	99
Es	-0.484671	-0.662410	0.510634	99
Es	0.027580	-0.027727	0.474520	99
Es	-0.050753	0.995367	-1.302769	99
Es	0.997276	1.530923	-0.988993	99
Es	0.218718	-2.494719	-0.230872	99
Es	0.423204	0.489300	0.475754	99
Es	-0.266728	1.774685	0.486478	99
Es	0.757731	-2.856817	-0.376996	99
Es	1.087772	-3.426029	-0.610467	99
Es	-1.005213	1.774463	0.532638	99
Es	0.613549	-2.435456	0.146154	99
Es	0.200020	-1.868865	0.022216	99
Es	0.472906	0.684591	-0.142613	99
Es	-0.695157	-0.771736	1.201669	99
Es	0.071416	2.317593	0.847090	99
Es	-1.089023	-0.553699	0.109995	99
Es	0.372676	1.245836	-0.771933	99
35
Properties=species:S:1:pos:R:3:Z:I:1 energy=-247.82623106150626 field_type=dipole dipole="0.000000 0.000000 0.000000" charge=0
C	0.757612	-2.856606	-0.376904	6
C	0.200172	-1.869096	0.022116	6
C	-0.484827	-0.662396	0.510696	6
N	0.423722	0.489174	0.476066	7
C	0.372722	1.245904	-0.772194	6
C	-0.266838	1.774884	0.486546	6
H	1.260672	-3.726986	-0.728084	1
H	-0.798298	-0.824736	1.548776	1
H	-1.402457	-0.505256	-0.071834	1
H	-0.263547	0.888724	-1.572504	1
H	1.310723	1.683934	-1.091274	1
H	0.237943	2.574914	1.014546	1
H	-1.347597	1.787544	0.554046	1
Es	-0.695080	-0.771028	1.201772	99
Es	0.757734	-2.856816	-0.376995	99
Es	0.589257	-2.189103	-0.473048	99
Es	-0.028363	1.714770	-0.231839	99
Es	1.087927	-3.425897	-0.610611	99
Es	-1.005516	1.774613	0.532677	99
Es	0.372666	1.245831	-0.771910	99
Es	0.628870	-2.424553	0.140341	99
Es	0.031853	-0.030252	0.476643	99
Es	-0.050488	0.995575	-1.301735	99
Es	-0.484671	-0.662410	0.510633	99
Es	0.475902	0.683799	-0.142467	99
Es	0.220651	-2.499787	-0.212776	99
Es	0.200017	-1.868867	0.022217	99
Es	0.069618	1.031410	0.607832	99
Es	0.997141	1.530715	-0.989355	99
Es	0.681559	0.477295	0.613457	99
Es	-0.266731	1.774683	0.486478	99
Es	-1.088641	-0.553534	0.110097	99
Es	0.071596	2.317493	0.846895	99
Es	0.423048	0.489313	0.475681	99
Es	-0.128128	-1.296329	0.250507	99
35
Properties=species:S:1:pos:R:3:Z:I:1 energy=-247.82623106150626 field_type=dipole dipole="0.000000 0.000000 0.000000" charge=0
C	0.757612	-2.856606	-0.376904	6
C	0.200172	-1.869096	0.022116	6
C	-0.484827	-0.662396	0.510696	6
N	0.423722	0.489174	0.476066	7
C	0.372722	1.245904	-0.772194	6
C	-0.266838	1.774884	0.486546	6
H	1.260672	-3.726986	-0.728084	1
H	-0.798298	-0.824736	1.548776	1
H	-1.402457	-0.505256	-0.071834	1
H	-0.263547	0.888724	-1.572504	1
H	1.310723	1.683934	-1.091274	1
H	0.237943	2.574914	1.014546	1
H	-1.347597	1.787544	0.554046	1
Es	-0.484673	-0.662411	0.510636	99
Es	0.649731	-2.408872	0.130867	99
Es	0.570584	-2.196598	-0.483694	99
Es	0.423061	0.489320	0.475676	99
Es	0.479001	0.683327	-0.142078	99
Es	-1.087691	-0.553177	0.109891	99
Es	-0.029181	1.715064	-0.229952	99
Es	0.757736	-2.856813	-0.377000	99
Es	0.996761	1.530620	-0.989394	99
Es	0.070204	1.031211	0.606012	99
Es	0.218446	-2.507920	-0.192779	99
Es	0.071890	2.317000	0.846485	99
Es	-0.128256	-1.296495	0.250592	99
Es	-0.050199	0.995859	-1.301115	99
Es	-1.005966	1.775104	0.532947	99
Es	-0.266736	1.774680	0.486476	99
Es	1.088092	-3.425788	-0.610654	99
Es	0.200020	-1.868867	0.022219	99
Es	0.372672	1.245828	-0.771925	99
Es	0.671040	0.479964	0.608965	99
Es	0.039309	-0.033833	0.480265	99
Es	-0.695624	-0.770278	1.202050	99
35
Properties=species:S:1:pos:R:3:Z:I:1 energy=-247.82623106150626 field_type=dipole dipole="0.000000 0.000000 0.000000" charge=0
C	0.757612	-2.856606	-0.376904	6
C	0.200172	-1.869096	0.022116	6
C	-0.484827	-0.662396	0.510696	6
N	0.423722	0.489174	0.476066	7
C	0.372722	1.245904	-0.772194	6
C	-0.266838	1.774884	0.486546	6
H	1.260672	-3.726986	-0.728084	1
H	-0.798298	-0.824736	1.548776	1
H	-1.402457	-0.505256	-0.071834	1
H	-0.263547	0.888724	-1.572504	1
H	1.310723	1.683934	-1.091274	1
H	0.237943	2.574914	1.014546	1
H	-1.347597	1.787544	0.554046	1
Es	0.068941	1.030499	0.607363	99
Es	0.423112	0.489294	0.475723	99
Es	-1.087846	-0.551125	0.109142	99
Es	-0.049353	0.995772	-1.303273	99
Es	0.657769	0.482297	0.601155	99
Es	0.468217	-2.244216	-0.521837	99
Es	-0.028383	1.715680	-0.231420	99
Es	-1.005824	1.775179	0.533013	99
Es	0.757735	-2.856815	-0.376996	99
Es	0.372672	1.245831	-0.771930	99
Es	0.732980	-2.317279	0.028630	99
Es	0.994176	1.530577	-0.986890	99
Es	-0.266724	1.774684	0.486483	99
Es	-0.693989	-0.768806	1.202887	99
Es	1.088488	-3.425810	-0.610096	99
Es	0.237147	-2.551807	-0.053133	99
Es	0.200021	-1.868865	0.022217	99
Es	0.071689	2.316738	0.846589	99
Es	-0.484670	-0.662409	0.510635	99
Es	0.478940	0.683322	-0.142361	99
Es	-0.127950	-1.296333	0.250644	99
Es	0.053073	-0.039485	0.487948	99
35
Properties=species:S:1:pos:R:3:Z:I:1 energy=-247.82623106150626 field_type=dipole dipole="0.000000 0.000000 0.000000" charge=0
C	0.757612	-2.856606	-0.376904	6
C	0.200172	-1.869096	0.022116	6
C	-0.484827	-0.662396	0.510696	6
N	0.423722	0.489174	0.476066	7
C	0.372722	1.245904	-0.772194	6
C	-0.266838	1.774884	0.486546	6
H	1.260672	-3.726986	-0.728084	1
H	-0.798298	-0.824736	1.548776	1
H	-1.402457	-0.505256	-0.071834	1
H	-0.263547	0.888724	-1.572504	1
H	1.310723	1.683934	-1.091274	1
H	0.237943	2.574914	1.014546	1
H	-1.347597	1.787544	0.554046	1
Es	0.070666	1.030585	0.601222	99
Es	-0.127767	-1.296506	0.251084	99
Es	-0.030121	1.715694	-0.225119	99
Es	0.757735	-2.856815	-0.376997	99
Es	0.423031	0.489331	0.475649	99
Es	0.372670	1.245834	-0.771921	99
Es	0.200023	-1.868866	0.022222	99
Es	0.735446	-2.263222	-0.084470	99
Es	-0.692994	-0.767789	1.202786	99
Es	-0.049169	0.995163	-1.303895	99
Es	-0.484671	-0.662409	0.510632	99
Es	-1.006427	1.775587	0.532864	99
Es	0.042633	-0.039780	0.480988	99
Es	0.475668	0.684552	-0.140430	99
Es	0.671420	0.480497	0.606530	99
Es	0.072125	2.316597	0.846235	99
Es	0.993575	1.530336	-0.986320	99
Es	0.309050	-2.561499	0.061065	99
Es	-0.266731	1.774686	0.486476	99
Es	-1.088334	-0.550741	0.109043	99
Es	1.088910	-3.425367	-0.610475	99
Es	0.393483	-2.288945	-0.522676	99
35
Properties=species:S:1:pos:R:3:Z:I:1 energy=-247.82623106150626 field_type=dipole dipole="0.000000 0.000000 0.000000" charge=0
C	0.757612	-2.856606	-0.376904	6
C	0.200172	-1.869096	0.022116	6
C	-0.484827	-0.662396	0.510696	6
N	0.423722	0.489174	0.476066	7
C	0.372722	1.245904	-0.772194	6
C	-0.266838	1.774884	0.486546	6
H	1.260672	-3.726986	-0.728084	1
H	-0.798298	-0.824736	1.548776	1
H	-1.402457	-0.505256	-0.071834	1
H	-0.263547	0.888724	-1.572504	1
H	1.310723	1.683934	-1.091274	1
H	0.237943	2.574914	1.014546	1
H	-1.347597	1.787544	0.554046	1
Es	-0.031268	1.715433	-0.221988	99
Es	-0.693284	-0.767203	1.202928	99
Es	-0.484671	-0.662409	0.510636	99
Es	0.669532	0.480708	0.606082	99
Es	0.325539	-2.559279	0.076502	99
Es	0.757737	-2.856815	-0.376995	99
Es	-1.006762	1.775873	0.533023	99
Es	-0.266731	1.774686	0.486477	99
Es	-0.049268	0.995296	-1.303045	99
Es	0.381336	-2.297020	-0.520518	99
Es	0.731120	-2.257427	-0.101923	99
Es	0.072380	2.316378	0.845916	99
Es	0.071595	1.030703	0.598329	99
Es	0.993980	1.530343	-0.986923	99
Es	-1.087748	-0.551039	0.109180	99
Es	1.089000	-3.425212	-0.610685	99
Es	0.423030	0.489313	0.475662	99
Es	0.200021	-1.868866	0.022219	99
Es	0.043442	-0.040641	0.479897	99
Es	-0.127858	-1.296580	0.251049	99
Es	0.372662	1.245828	-0.771899	99
Es	0.476436	0.684853	-0.139430	99
35
Properties=species:S:1:pos:R:3:Z:I:1 energy=-247.82623106150626 field_type=dipole dipole="0.000000 0.000000 0.000000" charge=0
C	0.757612	-2.856606	-0.376904	6
C	0.200172	-1.869096	0.022116	6
C	-0.484827	-0.662396	0.510696	6
N	0.423722	0.489174	0.476066	7
C	0.372722	1.245904	-0.772194	6
C	-0.266838	1.774884	0.486546	6
H	1.260672	-3.726986	-0.728084	1
H	-0.798298	-0.824736	1.548776	1
H	-1.402457	-0.505256	-0.071834	1
H	-0.263547	0.888724	-1.572504	1
H	1.310723	1.683934	-1.091274	1
H	0.237943	2.574914	1.014546	1
H	-1.347597	1.787544	0.554046	1
Es	0.727739	-2.248450	-0.124694	99
Es	1.089081	-3.425074	-0.610872	99
Es	-0.693945	-0.767129	1.202833	99
Es	0.423006	0.489303	0.475664	99
Es	-0.032241	1.715177	-0.219587	99
Es	0.072768	2.315649	0.845209	99
Es	-0.049369	0.995514	-1.301791	99
Es	-0.127986	-1.296679	0.251034	99
Es	-1.007220	1.776620	0.533648	99
Es	0.072312	1.031027	0.595704	99
Es	0.372667	1.245830	-0.771895	99
Es	0.360929	-2.310966	-0.515643	99
Es	0.994898	1.530202	-0.987870	99
Es	0.045636	-0.041185	0.479878	99
Es	0.349348	-2.554389	0.094595	99
Es	0.664675	0.481373	0.605232	99
Es	-0.266731	1.774692	0.486466	99
Es	-1.087182	-0.551333	0.109254	99
Es	-0.484667	-0.662406	0.510631	99
Es	0.757729	-2.856815	-0.377005	99
Es	0.200021	-1.868868	0.022225	99
Es	0.478752	0.684831	-0.138522	99
35
Properties=species:S:1:pos:R:3:Z:I:1 energy=-247.82623106150626 field_type=dipole dipole="0.000000 0.000000 0.000000" charge=0
C	0.757612	-2.856606	-0.376904	6
C	0.200172	-1.869096	0.022116	6
C	-0.484827	-0.662396	0.510696	6
N	0.423722	0.489174	0.476066	7
C	0.372722	1.245904	-0.772194	6
C	-0.266838	1.774884	0.486546	6
H	1.260672	-3.726986	-0.728084	1
H	-0.798298	-0.824736	1.548776	1
H	-1.402457	-0.505256	-0.071834	1
H	-0.263547	0.888724	-1.572504	1
H	1.310723	1.683934	-1.091274	1
H	0.237943	2.574914	1.014546	1
H	-1.347597	1.787544	0.554046	1
Es	0.643826	0.483746	0.598097	99
Es	-0.032537	1.715159	-0.220120	99
Es	0.995535	1.530214	-0.988756	99
Es	-0.266731	1.774687	0.486474	99
Es	0.487047	0.683307	-0.138389	99
Es	-1.007140	1.776628	0.533911	99
Es	0.072809	2.315593	0.845156	99
Es	0.200019	-1.868867	0.022219	99
Es	0.545613	-2.207502	-0.495525	99
Es	0.671429	-2.391138	0.118463	99
Es	-1.085050	-0.552184	0.109620	99
Es	0.221636	-2.514844	-0.168437	99
Es	-0.128450	-1.296857	0.250747	99
Es	-0.049415	0.995900	-1.300587	99
Es	0.372670	1.245831	-0.771925	99
Es	0.057348	-0.041840	0.486062	99
Es	1.088561	-3.425276	-0.611166	99
Es	0.423180	0.489332	0.475734	99
Es	0.072872	1.031233	0.596405	99
Es	-0.696062	-0.766977	1.202883	99
Es	0.757729	-2.856814	-0.377006	99
Es	-0.484668	-0.662408	0.510633	99
35
Properties=species:S:1:pos:R:3:Z:I:1 energy=-247.82623106150626 field_type=dipole dipole="0.000000 0.000000 0.000000" charge=0
C	0.757612	-2.856606	-0.376904	6
C	0.200172	-1.869096	0.022116	6
C	-0.484827	-0.662396	0.510696	6
N	0.423722	0.489174	0.476066	7
C	0.372722	1.245904	-0.772194	6
C	-0.266838	1.774884	0.486546	6
H	1.260672	-3.726986	-0.728084	1
H	-0.798298	-0.824736	1.548776	1
H	-1.402457	-0.505256	-0.071834	1
H	-0.263547	0.888724	-1.572504	1
H	1.310723	1.683934	-1.091274	1
H	0.237943	2.574914	1.014546	1
H	-1.347597	1.787544	0.554046	1
Es	0.073045	1.031098	0.595677	99
Es	-0.128421	-1.296894	0.250835	99
Es	-1.084500	-0.551580	0.109374	99
Es	0.675743	-2.387280	0.114924	99
Es	-1.007250	1.776813	0.534061	99
Es	0.217511	-2.518226	-0.165492	99
Es	0.545436	-2.207989	-0.494890	99
Es	-0.266730	1.774685	0.486478	99
Es	0.200022	-1.868866	0.022221	99
Es	1.088545	-3.425202	-0.611338	99
Es	0.995563	1.530142	-0.988274	99
Es	0.372666	1.245832	-0.771907	99
Es	-0.696051	-0.766391	1.203009	99
Es	0.757733	-2.856815	-0.377001	99
Es	0.639153	0.483813	0.595358	99
Es	0.072878	2.315342	0.845075	99
Es	-0.032789	1.715112	-0.219050	99
Es	0.422953	0.489297	0.475631	99
Es	0.062866	-0.043461	0.488087	99
Es	0.485712	0.684091	-0.137772	99
Es	-0.484673	-0.662411	0.510633	99
Es	-0.049192	0.995814	-1.301147	99
35
Properties=species:S:1:pos:R:3:Z:I:1 energy=-247.82623106150626 field_type=dipole dipole="0.000000 0.000000 0.000000" charge=0
C	0.757612	-2.856606	-0.376904	6
C	0.200172	-1.869096	0.022116	6
C	-0.484827	-0.662396	0.510696	6
N	0.423722	0.489174	0.476066	7
C	0.372722	1.245904	-0.772194	6
C	-0.266838	1.774884	0.486546	6
H	1.260672	-3.726986	-0.728084	1
H	-0.798298	-0.824736	1.548776	1
H	-1.402457	-0.505256	-0.071834	1
H	-0.263547	0.888724	-1.572504	1
H	1.310723	1.683934	-1.091274	1
H	0.237943	2.574914	1.014546	1
H	-1.347597	1.787544	0.554046	1
Es	0.518162	-2.219941	-0.506860	99
Es	0.073002	1.031192	0.595254	99
Es	-0.484672	-0.662409	0.510632	99
Es	0.488364	0.683211	-0.137713	99
Es	0.422954	0.489287	0.475641	99
Es	-1.084558	-0.551629	0.109379	99
Es	0.200018	-1.868867	0.022217	99
Es	0.995293	1.530101	-0.988419	99
Es	-1.007154	1.776584	0.533894	99
Es	0.631561	0.484171	0.592416	99
Es	0.757734	-2.856816	-0.376996	99
Es	0.698141	-2.365993	0.094881	99
Es	-0.032841	1.715160	-0.218941	99
Es	-0.266730	1.774686	0.486476	99
Es	0.067899	-0.043695	0.490868	99
Es	-0.128374	-1.296907	0.250908	99
Es	-0.695771	-0.765992	1.203108	99
Es	1.088612	-3.425220	-0.611224	99
Es	0.372665	1.245831	-0.771903	99
Es	0.222361	-2.527499	-0.133627	99
Es	-0.049245	0.996062	-1.300700	99
Es	0.072801	2.315607	0.845201	99
35
Properties=species:S:1:pos:R:3:Z:I:1 energy=-247.82623106150626 field_type=dipole dipole="0.000000 0.000000 0.000000" charge=0
C	0.757612	-2.856606	-0.376904	6
C	0.200172	-1.869096	0.022116	6
C	-0.484827	-0.662396	0.510696	6
N	0.423722	0.489174	0.476066	7
C	0.372722	1.245904	-0.772194	6
C	-0.266838	1.774884	0.486546	6
H	1.260672	-3.726986	-0.728084	1
H	-0.798298	-0.824736	1.548776	1
H	-1.402457	-0.505256	-0.071834	1
H	-0.263547	0.888724	-1.572504	1
H	1.310723	1.683934	-1.091274	1
H	0.237943	2.574914	1.014546	1
H	-1.347597	1.787544	0.554046	1
Es	0.378473	-2.299335	-0.519206	99
Es	-0.128013	-1.296846	0.251257	99
Es	0.757736	-2.856815	-0.376995	99
Es	0.072997	2.314798	0.844764	99
Es	-1.085894	-0.549953	0.108753	99
Es	-0.484673	-0.662411	0.510634	99
Es	0.738357	-2.255313	-0.097018	99
Es	-0.692688	-0.764095	1.203598	99
Es	0.423000	0.489310	0.475653	99
Es	-1.007640	1.777316	0.534150	99
Es	0.372661	1.245828	-0.771900	99
Es	-0.048956	0.994787	-1.303161	99
Es	0.648717	0.482865	0.597192	99
Es	0.200021	-1.868867	0.022221	99
Es	0.321271	-2.559041	0.070380	99
Es	0.073177	1.031017	0.591700	99
Es	-0.266733	1.774685	0.486474	99
Es	1.089213	-3.424858	-0.611155	99
Es	-0.033222	1.714990	-0.215004	99
Es	0.993844	1.530033	-0.986673	99
Es	0.478662	0.686626	-0.135267	99
Es	0.059913	-0.047798	0.484093	99
35
Properties=species:S:1:pos:R:3:Z:I:1 energy=-247.82623106150626 field_type=dipole dipole="0.000000 0.000000 0.000000" charge=0
C	0.757612	-2.856606	-0.376904	6
C	0.200172	-1.869096	0.022116	6
C	-0.484827	-0.662396	0.510696	6
N	0.423722	0.489174	0.476066	7
C	0.372722	1.245904	-0.772194	6
C	-0.266838	1.774884	0.486546	6
H	1.260672	-3.726986	-0.728084	1
H	-0.798298	-0.824736	1.548776	1
H	-1.402457	-0.505256	-0.071834	1
H	-0.263547	0.888724	-1.572504	1
H	1.310723	1.683934	-1.091274	1
H	0.237943	2.574914	1.014546	1
H	-1.347597	1.787544	0.554046	1
Es	0.073323	1.031037	0.594287	99
Es	0.623951	0.483513	0.588020	99
Es	0.072951	2.315014	0.844893	99
Es	0.372664	1.245830	-0.771899	99
Es	-0.128471	-1.297002	0.250947	99
Es	0.200018	-1.868869	0.022223	99
Es	-0.695874	-0.765237	1.203279	99
Es	-0.049367	0.995309	-1.301108	99
Es	0.995646	1.530002	-0.988531	99
Es	-0.033182	1.715050	-0.217407	99
Es	-0.266730	1.774688	0.486475	99
Es	0.707587	-2.356073	0.084539	99
Es	0.510297	-2.224256	-0.508660	99
Es	0.485252	0.685553	-0.135336	99
Es	0.757730	-2.856816	-0.377001	99
Es	1.088690	-3.425059	-0.611444	99
Es	0.077787	-0.045076	0.492624	99
Es	-1.083796	-0.551436	0.109340	99
Es	-0.484671	-0.662410	0.510633	99
Es	0.423023	0.489251	0.475710	99
Es	-1.007392	1.777034	0.534347	99
Es	0.220785	-2.533123	-0.121437	99
35
Properties=species:S:1:pos:R:3:Z:I:1 energy=-247.82623106150626 field_type=dipole dipole="0.000000 0.000000 0.000000" charge=0
C	0.757612	-2.856606	-0.376904	6
C	0.200172	-1.869096	0.022116	6
C	-0.484827	-0.662396	0.510696	6
N	0.423722	0.489174	0.476066	7
C	0.372722	1.245904	-0.772194	6
C	-0.266838	1.774884	0.486546	6
H	1.260672	-3.726986	-0.728084	1
H	-0.798298	-0.824736	1.548776	1
H	-1.402457	-0.505256	-0.071834	1
H	-0.263547	0.888724	-1.572504	1
H	1.310723	1.683934	-1.091274	1
H	0.237943	2.574914	1.014546	1
H	-1.347597	1.787544	0.554046	1
Es	0.534326	-2.213442	-0.498881	99
Es	0.073085	2.314877	0.844692	99
Es	0.423105	0.489327	0.475697	99
Es	0.073953	1.031451	0.591748	99
Es	0.757733	-2.856815	-0.377000	99
Es	0.624386	0.484114	0.589182	99
Es	0.686096	-2.378218	0.107996	99
Es	1.088697	-3.424981	-0.611593	99
Es	0.487862	0.684825	-0.134515	99
Es	0.200016	-1.868873	0.022227	99
Es	-1.083620	-0.551572	0.109412	99
Es	-0.128490	-1.297028	0.250939	99
Es	-0.484669	-0.662407	0.510629	99
Es	-1.007564	1.777268	0.534366	99
Es	-0.266731	1.774685	0.486478	99
Es	0.372663	1.245831	-0.771898	99
Es	0.074488	-0.045350	0.490617	99
Es	-0.696052	-0.765061	1.203214	99
Es	0.995767	1.529929	-0.988579	99
Es	0.218305	-2.521848	-0.154492	99
Es	-0.049244	0.995521	-1.300822	99
Es	-0.033889	1.714690	-0.214924	99
