34
Properties=species:S:1:pos:R:3:Z:I:1 energy=-263.8693621586424 field_type=dipole dipole="0.000000 0.000000 0.000000" charge=0
C	-2.313547	-1.452732	-0.024046	6
C	-0.984647	-1.311482	0.019324	6
C	-0.377697	0.033768	-0.016486	6
N	0.904883	0.197848	0.024824	7
N	1.231273	1.550158	-0.021786	7
C	2.511053	1.707948	0.021224	6
H	-2.760547	-2.441652	0.002334	1
H	-2.986417	-0.603142	-0.085896	1
H	-0.310197	-2.157182	0.081144	1
H	-1.074037	0.889608	-0.080026	1
H	2.939273	2.721428	-0.006556	1
H	3.220603	0.865428	0.085944	1
Es	1.068884	0.874910	0.001529	99
Es	2.992933	1.147000	0.064697	99
Es	0.349450	0.155914	0.287486	99
Es	2.511092	1.707985	0.021227	99
Es	-2.768194	-0.879925	-0.065885	99
Es	0.370633	0.131253	-0.274343	99
Es	2.805227	2.389942	0.002860	99
Es	1.791050	1.584947	-0.284638	99
Es	-0.377735	0.033704	-0.016480	99
Es	-0.984545	-1.311409	0.019324	99
Es	-1.636881	-1.341719	0.316321	99
Es	-0.532285	-1.877649	0.060714	99
Es	0.956561	1.812125	-0.044054	99
Es	0.904456	0.198272	0.024790	99
Es	1.768946	1.609723	0.279619	99
Es	-2.313643	-1.452742	-0.024062	99
Es	-0.674836	-0.641956	0.001836	99
Es	-2.623261	-2.116345	-0.006696	99
Es	1.231690	1.549716	-0.021749	99
Es	1.178139	-0.067712	0.046859	99
Es	-0.853234	0.603130	-0.059199	99
Es	-1.613151	-1.369449	-0.321508	99
34
Properties=species:S:1:pos:R:3:Z:I:1 energy=-263.8693621586424 field_type=dipole dipole="0.000000 0.000000 0.000000" charge=0
C	-2.313547	-1.452732	-0.024046	6
C	-0.984647	-1.311482	0.019324	6
C	-0.377697	0.033768	-0.016486	6
N	0.904883	0.197848	0.024824	7
N	1.231273	1.550158	-0.021786	7
C	2.511053	1.707948	0.021224	6
H	-2.760547	-2.441652	0.002334	1
H	-2.986417	-0.603142	-0.085896	1
H	-0.310197	-2.157182	0.081144	1
H	-1.074037	0.889608	-0.080026	1
H	2.939273	2.721428	-0.006556	1
H	3.220603	0.865428	0.085944	1
Es	-0.673459	-0.640963	0.001753	99
Es	1.231714	1.549705	-0.021749	99
Es	0.965695	1.811391	-0.043736	99
Es	0.349288	0.157291	0.288410	99
Es	0.904440	0.198298	0.024788	99
Es	-2.628294	-2.117070	-0.006910	99
Es	-1.636919	-1.342108	0.318355	99
Es	1.791672	1.583802	-0.285381	99
Es	-0.377740	0.033703	-0.016483	99
Es	-0.850413	0.601573	-0.059056	99
Es	2.989678	1.148214	0.064499	99
Es	1.769073	1.608490	0.280872	99
Es	-2.762689	-0.883030	-0.065475	99
Es	-0.536780	-1.874129	0.060413	99
Es	-0.984544	-1.311410	0.019324	99
Es	-2.313654	-1.452743	-0.024050	99
Es	-1.613158	-1.370068	-0.323478	99
Es	2.511094	1.707987	0.021222	99
Es	1.068585	0.874979	0.001341	99
Es	1.169354	-0.067259	0.046339	99
Es	2.808263	2.390494	0.002832	99
Es	0.370089	0.132568	-0.275183	99
34
Properties=species:S:1:pos:R:3:Z:I:1 energy=-263.8693621586424 field_type=dipole dipole="0.000000 0.000000 0.000000" charge=0
C	-2.313547	-1.452732	-0.024046	6
C	-0.984647	-1.311482	0.019324	6
C	-0.377697	0.033768	-0.016486	6
N	0.904883	0.197848	0.024824	7
N	1.231273	1.550158	-0.021786	7
C	2.511053	1.707948	0.021224	6
H	-2.760547	-2.441652	0.002334	1
H	-2.986417	-0.603142	-0.085896	1
H	-0.310197	-2.157182	0.081144	1
H	-1.074037	0.889608	-0.080026	1
H	2.939273	2.721428	-0.006556	1
H	3.220603	0.865428	0.085944	1
Es	-2.635246	-2.114720	-0.007243	99
Es	1.231734	1.549701	-0.021748	99
Es	2.812066	2.389634	0.002989	99
Es	1.159053	-0.065585	0.045709	99
Es	1.770439	1.607148	0.278741	99
Es	-0.542588	-1.871214	0.060077	99
Es	-2.755594	-0.886085	-0.065057	99
Es	1.068314	0.875033	0.001533	99
Es	-2.313652	-1.452744	-0.024050	99
Es	1.791215	1.582035	-0.283373	99
Es	-1.613491	-1.370690	-0.323280	99
Es	-1.636495	-1.342094	0.318117	99
Es	0.369011	0.134186	-0.273200	99
Es	-0.847229	0.600603	-0.058915	99
Es	0.349470	0.158845	0.286377	99
Es	2.511095	1.707984	0.021226	99
Es	-0.984543	-1.311406	0.019328	99
Es	2.985878	1.149137	0.064275	99
Es	-0.671104	-0.641688	0.001903	99
Es	0.976272	1.809651	-0.043063	99
Es	0.904434	0.198282	0.024788	99
Es	-0.377741	0.033702	-0.016487	99
34
Properties=species:S:1:pos:R:3:Z:I:1 energy=-263.8693621586424 field_type=dipole dipole="0.000000 0.000000 0.000000" charge=0
C	-2.313547	-1.452732	-0.024046	6
C	-0.984647	-1.311482	0.019324	6
C	-0.377697	0.033768	-0.016486	6
N	0.904883	0.197848	0.024824	7
N	1.231273	1.550158	-0.021786	7
C	2.511053	1.707948	0.021224	6
H	-2.760547	-2.441652	0.002334	1
H	-2.986417	-0.603142	-0.085896	1
H	-0.310197	-2.157182	0.081144	1
H	-1.074037	0.889608	-0.080026	1
H	2.939273	2.721428	-0.006556	1
H	3.220603	0.865428	0.085944	1
Es	-0.377742	0.033703	-0.016487	99
Es	-2.746766	-0.892831	-0.064569	99
Es	-0.844085	0.598913	-0.058821	99
Es	1.739069	1.582405	0.053224	99
Es	1.822959	1.605391	-0.057240	99
Es	-1.612875	-1.370397	-0.324654	99
Es	2.511098	1.707985	0.021223	99
Es	1.231735	1.549711	-0.021749	99
Es	-0.549139	-1.866214	0.059781	99
Es	0.372002	0.135379	-0.273372	99
Es	-0.667748	-0.644697	0.002272	99
Es	-1.637062	-1.342636	0.319370	99
Es	0.904421	0.198296	0.024786	99
Es	0.346094	0.159119	0.285729	99
Es	-2.313652	-1.452743	-0.024051	99
Es	2.816340	2.387106	0.003435	99
Es	1.068153	0.874956	0.001445	99
Es	-2.644204	-2.107657	-0.008100	99
Es	2.981738	1.151178	0.064128	99
Es	1.145385	-0.056007	0.045555	99
Es	0.990119	1.800160	-0.042578	99
Es	-0.984544	-1.311406	0.019320	99
34
Properties=species:S:1:pos:R:3:Z:I:1 energy=-263.8693621586424 field_type=dipole dipole="0.000000 0.000000 0.000000" charge=0
C	-2.313547	-1.452732	-0.024046	6
C	-0.984647	-1.311482	0.019324	6
C	-0.377697	0.033768	-0.016486	6
N	0.904883	0.197848	0.024824	7
N	1.231273	1.550158	-0.021786	7
C	2.511053	1.707948	0.021224	6
H	-2.760547	-2.441652	0.002334	1
H	-2.986417	-0.603142	-0.085896	1
H	-0.310197	-2.157182	0.081144	1
H	-1.074037	0.889608	-0.080026	1
H	2.939273	2.721428	-0.006556	1
H	3.220603	0.865428	0.085944	1
Es	2.819420	2.384457	0.003818	99
Es	0.904419	0.198290	0.024787	99
Es	-0.843063	0.598409	-0.058623	99
Es	1.231736	1.549691	-0.021747	99
Es	1.134581	-0.044944	0.044432	99
Es	-2.738982	-0.901060	-0.063789	99
Es	1.066132	0.877443	0.001384	99
Es	-0.984544	-1.311405	0.019325	99
Es	-0.554847	-1.860641	0.059191	99
Es	1.003024	1.786166	-0.041384	99
Es	0.404649	0.157792	0.026080	99
Es	-2.313652	-1.452743	-0.024050	99
Es	2.978802	1.153331	0.063831	99
Es	-0.377739	0.033699	-0.016488	99
Es	0.313196	0.137780	-0.013964	99
Es	-0.663058	-0.649848	0.002914	99
Es	-2.652183	-2.098626	-0.008934	99
Es	-1.596646	-1.345935	-0.193721	99
Es	1.772771	1.606801	0.279322	99
Es	1.789441	1.580304	-0.283195	99
Es	-1.653256	-1.367231	0.188235	99
Es	2.511095	1.707983	0.021223	99
34
Properties=species:S:1:pos:R:3:Z:I:1 energy=-263.8693621586424 field_type=dipole dipole="0.000000 0.000000 0.000000" charge=0
C	-2.313547	-1.452732	-0.024046	6
C	-0.984647	-1.311482	0.019324	6
C	-0.377697	0.033768	-0.016486	6
N	0.904883	0.197848	0.024824	7
N	1.231273	1.550158	-0.021786	7
C	2.511053	1.707948	0.021224	6
H	-2.760547	-2.441652	0.002334	1
H	-2.986417	-0.603142	-0.085896	1
H	-0.310197	-2.157182	0.081144	1
H	-1.074037	0.889608	-0.080026	1
H	2.939273	2.721428	-0.006556	1
H	3.220603	0.865428	0.085944	1
Es	-1.619488	-1.331458	0.260674	99
Es	-1.630414	-1.381798	-0.265526	99
Es	-2.732923	-0.909154	-0.063229	99
Es	-0.660230	-0.653365	0.002545	99
Es	1.822842	1.605445	-0.030775	99
Es	1.120702	-0.025639	0.042630	99
Es	2.511095	1.707984	0.021224	99
Es	1.231747	1.549696	-0.021747	99
Es	-0.843003	0.598427	-0.058657	99
Es	-2.313652	-1.452743	-0.024049	99
Es	0.311890	0.139588	0.015405	99
Es	0.904418	0.198295	0.024787	99
Es	-0.984544	-1.311406	0.019324	99
Es	1.077195	0.861467	0.002314	99
Es	0.405788	0.156570	-0.002171	99
Es	1.739547	1.580986	0.025964	99
Es	-2.658393	-2.089948	-0.008844	99
Es	1.005816	1.782970	-0.040625	99
Es	2.978699	1.153253	0.063780	99
Es	-0.557682	-1.857305	0.058906	99
Es	-0.377740	0.033700	-0.016485	99
Es	2.819627	2.384150	0.003203	99
34
Properties=species:S:1:pos:R:3:Z:I:1 energy=-263.8693621586424 field_type=dipole dipole="0.000000 0.000000 0.000000" charge=0
C	-2.313547	-1.452732	-0.024046	6
C	-0.984647	-1.311482	0.019324	6
C	-0.377697	0.033768	-0.016486	6
N	0.904883	0.197848	0.024824	7
N	1.231273	1.550158	-0.021786	7
C	2.511053	1.707948	0.021224	6
H	-2.760547	-2.441652	0.002334	1
H	-2.986417	-0.603142	-0.085896	1
H	-0.310197	-2.157182	0.081144	1
H	-1.074037	0.889608	-0.080026	1
H	2.939273	2.721428	-0.006556	1
H	3.220603	0.865428	0.085944	1
Es	0.904434	0.198320	0.024787	99
Es	-0.657862	-0.656309	0.003407	99
Es	1.821367	1.607098	0.013255	99
Es	-0.984544	-1.311406	0.019320	99
Es	-0.559764	-1.854683	0.058747	99
Es	1.137886	-0.049191	0.044514	99
Es	2.820986	2.382899	0.004061	99
Es	2.511095	1.707983	0.021225	99
Es	1.029087	0.937420	-0.002881	99
Es	1.231747	1.549707	-0.021748	99
Es	1.036622	1.730961	-0.037427	99
Es	-1.653403	-1.367920	0.181721	99
Es	-1.596489	-1.345284	-0.187232	99
Es	2.977337	1.154411	0.063753	99
Es	-0.377739	0.033699	-0.016486	99
Es	-2.659910	-2.087612	-0.009793	99
Es	-2.313652	-1.452743	-0.024051	99
Es	-0.843300	0.598682	-0.058618	99
Es	1.741061	1.579034	-0.017066	99
Es	-2.731407	-0.911379	-0.063049	99
Es	0.313088	0.138250	-0.013800	99
Es	0.404656	0.157778	0.026007	99
34
Properties=species:S:1:pos:R:3:Z:I:1 energy=-263.8693621586424 field_type=dipole dipole="0.000000 0.000000 0.000000" charge=0
C	-2.313547	-1.452732	-0.024046	6
C	-0.984647	-1.311482	0.019324	6
C	-0.377697	0.033768	-0.016486	6
N	0.904883	0.197848	0.024824	7
N	1.231273	1.550158	-0.021786	7
C	2.511053	1.707948	0.021224	6
H	-2.760547	-2.441652	0.002334	1
H	-2.986417	-0.603142	-0.085896	1
H	-0.310197	-2.157182	0.081144	1
H	-1.074037	0.889608	-0.080026	1
H	2.939273	2.721428	-0.006556	1
H	3.220603	0.865428	0.085944	1
Es	-1.596211	-1.338585	-0.101774	99
Es	1.740270	1.579848	0.002035	99
Es	-0.984544	-1.311407	0.019325	99
Es	0.312852	0.138841	-0.011203	99
Es	-2.663876	-2.081204	-0.010159	99
Es	-2.313652	-1.452743	-0.024045	99
Es	-0.562729	-1.850445	0.058397	99
Es	1.114613	0.797831	0.006596	99
Es	2.822007	2.381871	0.004073	99
Es	-0.843586	0.598883	-0.058690	99
Es	-1.653647	-1.374834	0.096347	99
Es	0.404781	0.157677	0.023336	99
Es	2.976338	1.155357	0.063658	99
Es	1.822157	1.606305	-0.006245	99
Es	-0.377740	0.033700	-0.016484	99
Es	1.093676	0.025239	0.039802	99
Es	1.231742	1.549702	-0.021748	99
Es	0.904413	0.198321	0.024784	99
Es	2.511095	1.707983	0.021222	99
Es	-2.727494	-0.917531	-0.062611	99
Es	-0.654615	-0.660702	0.003706	99
Es	0.995447	1.795606	-0.041674	99
34
Properties=species:S:1:pos:R:3:Z:I:1 energy=-263.8693621586424 field_type=dipole dipole="0.000000 0.000000 0.000000" charge=0
C	-2.313547	-1.452732	-0.024046	6
C	-0.984647	-1.311482	0.019324	6
C	-0.377697	0.033768	-0.016486	6
N	0.904883	0.197848	0.024824	7
N	1.231273	1.550158	-0.021786	7
C	2.511053	1.707948	0.021224	6
H	-2.760547	-2.441652	0.002334	1
H	-2.986417	-0.603142	-0.085896	1
H	-0.310197	-2.157182	0.081144	1
H	-1.074037	0.889608	-0.080026	1
H	2.939273	2.721428	-0.006556	1
H	3.220603	0.865428	0.085944	1
Es	-0.655016	-0.660690	0.003381	99
Es	-0.563124	-1.849792	0.058410	99
Es	0.904421	0.198287	0.024787	99
Es	1.231746	1.549698	-0.021747	99
Es	1.740453	1.579639	-0.002814	99
Es	-2.663823	-2.081331	-0.009780	99
Es	0.312315	0.138988	0.003976	99
Es	1.144222	-0.055589	0.045021	99
Es	2.822639	2.381264	0.003791	99
Es	-0.377740	0.033698	-0.016490	99
Es	2.975710	1.155982	0.063595	99
Es	-1.651238	-1.380251	-0.002451	99
Es	-2.727547	-0.917452	-0.062683	99
Es	2.511100	1.707975	0.021223	99
Es	-0.984541	-1.311415	0.019327	99
Es	1.007107	0.978599	-0.005401	99
Es	1.821995	1.606520	-0.001651	99
Es	-0.842793	0.598280	-0.058624	99
Es	0.405409	0.157050	0.008657	99
Es	1.052271	1.696231	-0.035139	99
Es	-2.313652	-1.452743	-0.024048	99
Es	-1.598619	-1.333232	-0.002692	99
34
Properties=species:S:1:pos:R:3:Z:I:1 energy=-263.8693621586424 field_type=dipole dipole="0.000000 0.000000 0.000000" charge=0
C	-2.313547	-1.452732	-0.024046	6
C	-0.984647	-1.311482	0.019324	6
C	-0.377697	0.033768	-0.016486	6
N	0.904883	0.197848	0.024824	7
N	1.231273	1.550158	-0.021786	7
C	2.511053	1.707948	0.021224	6
H	-2.760547	-2.441652	0.002334	1
H	-2.986417	-0.603142	-0.085896	1
H	-0.310197	-2.157182	0.081144	1
H	-1.074037	0.889608	-0.080026	1
H	2.939273	2.721428	-0.006556	1
H	3.220603	0.865428	0.085944	1
Es	-2.313652	-1.452743	-0.024049	99
Es	-1.651227	-1.380234	-0.002876	99
Es	-0.377739	0.033699	-0.016484	99
Es	-1.598634	-1.333213	-0.002281	99
Es	2.822470	2.381394	0.003791	99
Es	1.740453	1.579640	-0.002789	99
Es	1.821972	1.606565	-0.001627	99
Es	1.231748	1.549698	-0.021747	99
Es	0.312172	0.139507	0.004854	99
Es	-2.725692	-0.920577	-0.062470	99
Es	0.994313	1.796634	-0.041805	99
Es	1.084989	0.045235	0.038271	99
Es	-0.843527	0.598853	-0.058665	99
Es	1.124449	0.776789	0.007906	99
Es	-0.563945	-1.848620	0.058325	99
Es	2.511095	1.707984	0.021224	99
Es	-0.653450	-0.662495	0.003506	99
Es	0.904411	0.198303	0.024786	99
Es	-2.665704	-2.078080	-0.010005	99
Es	0.405439	0.157015	0.007876	99
Es	-0.984544	-1.311407	0.019323	99
Es	2.975900	1.155769	0.063585	99
34
Properties=species:S:1:pos:R:3:Z:I:1 energy=-263.8693621586424 field_type=dipole dipole="0.000000 0.000000 0.000000" charge=0
C	-2.313547	-1.452732	-0.024046	6
C	-0.984647	-1.311482	0.019324	6
C	-0.377697	0.033768	-0.016486	6
N	0.904883	0.197848	0.024824	7
N	1.231273	1.550158	-0.021786	7
C	2.511053	1.707948	0.021224	6
H	-2.760547	-2.441652	0.002334	1
H	-2.986417	-0.603142	-0.085896	1
H	-0.310197	-2.157182	0.081144	1
H	-1.074037	0.889608	-0.080026	1
H	2.939273	2.721428	-0.006556	1
H	3.220603	0.865428	0.085944	1
Es	1.231744	1.549681	-0.021746	99
Es	0.405437	0.157018	0.007924	99
Es	2.511095	1.707984	0.021224	99
Es	-0.377740	0.033700	-0.016483	99
Es	2.823408	2.380463	0.003865	99
Es	1.001789	0.989318	-0.006011	99
Es	-1.598637	-1.333210	-0.002199	99
Es	0.904418	0.198281	0.024788	99
Es	2.974943	1.156792	0.063509	99
Es	-0.564610	-1.847510	0.058243	99
Es	-0.984541	-1.311416	0.019325	99
Es	-2.665848	-2.077858	-0.009997	99
Es	-0.843237	0.598603	-0.058662	99
Es	-0.653090	-0.663270	0.003553	99
Es	1.822015	1.606406	-0.001549	99
Es	-2.725520	-0.920948	-0.062454	99
Es	1.056168	1.686822	-0.034646	99
Es	0.312290	0.139006	0.004791	99
Es	-1.651220	-1.380259	-0.002952	99
Es	-2.313652	-1.452744	-0.024049	99
Es	1.740455	1.579637	-0.002854	99
Es	1.145631	-0.056779	0.045031	99
34
Properties=species:S:1:pos:R:3:Z:I:1 energy=-263.8693621586424 field_type=dipole dipole="0.000000 0.000000 0.000000" charge=0
C	-2.313547	-1.452732	-0.024046	6
C	-0.984647	-1.311482	0.019324	6
C	-0.377697	0.033768	-0.016486	6
N	0.904883	0.197848	0.024824	7
N	1.231273	1.550158	-0.021786	7
C	2.511053	1.707948	0.021224	6
H	-2.760547	-2.441652	0.002334	1
H	-2.986417	-0.603142	-0.085896	1
H	-0.310197	-2.157182	0.081144	1
H	-1.074037	0.889608	-0.080026	1
H	2.939273	2.721428	-0.006556	1
H	3.220603	0.865428	0.085944	1
Es	-2.665823	-2.077891	-0.010029	99
Es	-2.313652	-1.452743	-0.024049	99
Es	1.740454	1.579638	-0.002826	99
Es	-0.377740	0.033700	-0.016485	99
Es	-2.725553	-0.920873	-0.062463	99
Es	-1.598625	-1.333224	-0.002517	99
Es	0.312295	0.138963	0.004784	99
Es	-0.564040	-1.848448	0.058311	99
Es	0.904417	0.198300	0.024787	99
Es	1.231751	1.549692	-0.021747	99
Es	2.975317	1.156384	0.063549	99
Es	-1.651241	-1.380198	-0.002591	99
Es	0.405437	0.157018	0.007933	99
Es	1.143935	-0.055078	0.044921	99
Es	-0.984544	-1.311406	0.019324	99
Es	1.822000	1.606499	-0.001627	99
Es	1.001033	0.993701	-0.006364	99
Es	-0.653852	-0.662279	0.003484	99
Es	2.511095	1.707984	0.021224	99
Es	-0.843028	0.598461	-0.058646	99
Es	2.823042	2.380835	0.003838	99
Es	1.058619	1.680679	-0.034162	99
34
Properties=species:S:1:pos:R:3:Z:I:1 energy=-263.8693621586424 field_type=dipole dipole="0.000000 0.000000 0.000000" charge=0
C	-2.313547	-1.452732	-0.024046	6
C	-0.984647	-1.311482	0.019324	6
C	-0.377697	0.033768	-0.016486	6
N	0.904883	0.197848	0.024824	7
N	1.231273	1.550158	-0.021786	7
C	2.511053	1.707948	0.021224	6
H	-2.760547	-2.441652	0.002334	1
H	-2.986417	-0.603142	-0.085896	1
H	-0.310197	-2.157182	0.081144	1
H	-1.074037	0.889608	-0.080026	1
H	2.939273	2.721428	-0.006556	1
H	3.220603	0.865428	0.085944	1
Es	-0.984544	-1.311406	0.019323	99
Es	1.821957	1.606619	-0.001512	99
Es	-2.666930	-2.075921	-0.010148	99
Es	-0.843471	0.598803	-0.058657	99
Es	2.511095	1.707984	0.021224	99
Es	-2.313652	-1.452744	-0.024049	99
Es	-0.377739	0.033699	-0.016485	99
Es	0.312191	0.139431	0.004669	99
Es	-0.565334	-1.846447	0.058198	99
Es	0.405433	0.157022	0.008045	99
Es	0.992593	1.798245	-0.041883	99
Es	-2.724463	-0.922751	-0.062334	99
Es	-0.652118	-0.664614	0.003657	99
Es	2.975057	1.156638	0.063508	99
Es	1.231745	1.549696	-0.021747	99
Es	1.079359	0.059143	0.037522	99
Es	-1.598624	-1.333225	-0.002554	99
Es	-1.651236	-1.380226	-0.002620	99
Es	1.131798	0.761300	0.008803	99
Es	1.740460	1.579631	-0.002978	99
Es	0.904409	0.198312	0.024786	99
Es	2.823313	2.380526	0.003881	99
34
Properties=species:S:1:pos:R:3:Z:I:1 energy=-263.8693621586424 field_type=dipole dipole="0.000000 0.000000 0.000000" charge=0
C	-2.313547	-1.452732	-0.024046	6
C	-0.984647	-1.311482	0.019324	6
C	-0.377697	0.033768	-0.016486	6
N	0.904883	0.197848	0.024824	7
N	1.231273	1.550158	-0.021786	7
C	2.511053	1.707948	0.021224	6
H	-2.760547	-2.441652	0.002334	1
H	-2.986417	-0.603142	-0.085896	1
H	-0.310197	-2.157182	0.081144	1
H	-1.074037	0.889608	-0.080026	1
H	2.939273	2.721428	-0.006556	1
H	3.220603	0.865428	0.085944	1
Es	2.511095	1.707984	0.021223	99
Es	-1.598627	-1.333222	-0.002467	99
Es	1.060890	1.674836	-0.033839	99
Es	-2.313652	-1.452744	-0.024050	99
Es	0.998302	0.999917	-0.006695	99
Es	-0.377739	0.033699	-0.016484	99
Es	1.821982	1.606551	-0.001416	99
Es	-0.652991	-0.663612	0.003570	99
Es	-2.724799	-0.922199	-0.062380	99
Es	2.823483	2.380356	0.003882	99
Es	1.740464	1.579627	-0.003087	99
Es	-2.666574	-2.076574	-0.010119	99
Es	-0.564885	-1.847126	0.058235	99
Es	0.405445	0.157009	0.007719	99
Es	-1.651243	-1.380190	-0.002641	99
Es	-0.984544	-1.311406	0.019325	99
Es	0.904416	0.198297	0.024787	99
Es	2.974877	1.156857	0.063533	99
Es	-0.843044	0.598473	-0.058628	99
Es	1.144409	-0.055501	0.044944	99
Es	1.231750	1.549690	-0.021747	99
Es	0.312283	0.138992	0.004983	99
34
Properties=species:S:1:pos:R:3:Z:I:1 energy=-263.8693621586424 field_type=dipole dipole="0.000000 0.000000 0.000000" charge=0
C	-2.313547	-1.452732	-0.024046	6
C	-0.984647	-1.311482	0.019324	6
C	-0.377697	0.033768	-0.016486	6
N	0.904883	0.197848	0.024824	7
N	1.231273	1.550158	-0.021786	7
C	2.511053	1.707948	0.021224	6
H	-2.760547	-2.441652	0.002334	1
H	-2.986417	-0.603142	-0.085896	1
H	-0.310197	-2.157182	0.081144	1
H	-1.074037	0.889608	-0.080026	1
H	2.939273	2.721428	-0.006556	1
H	3.220603	0.865428	0.085944	1
Es	0.405440	0.157014	0.007838	99
Es	2.511095	1.707983	0.021222	99
Es	-0.377739	0.033700	-0.016485	99
Es	-2.666712	-2.076331	-0.010122	99
Es	1.821990	1.606514	-0.001401	99
Es	2.974402	1.157373	0.063469	99
Es	-2.313652	-1.452743	-0.024049	99
Es	-0.653133	-0.663531	0.003552	99
Es	0.904417	0.198283	0.024787	99
Es	1.740463	1.579629	-0.003047	99
Es	-2.724656	-0.922478	-0.062350	99
Es	-1.651244	-1.380206	-0.002482	99
Es	2.823953	2.379868	0.003911	99
Es	1.231749	1.549699	-0.021747	99
Es	0.312284	0.139006	0.004908	99
Es	0.996213	1.004099	-0.006964	99
Es	1.062243	1.671305	-0.033648	99
Es	1.145142	-0.056143	0.045014	99
Es	-0.984544	-1.311407	0.019326	99
Es	-0.564942	-1.847007	0.058216	99
Es	-1.598620	-1.333230	-0.002659	99
Es	-0.842853	0.598319	-0.058641	99
34
Properties=species:S:1:pos:R:3:Z:I:1 energy=-263.8693621586424 field_type=dipole dipole="0.000000 0.000000 0.000000" charge=0
C	-2.313547	-1.452732	-0.024046	6
C	-0.984647	-1.311482	0.019324	6
C	-0.377697	0.033768	-0.016486	6
N	0.904883	0.197848	0.024824	7
N	1.231273	1.550158	-0.021786	7
C	2.511053	1.707948	0.021224	6
H	-2.760547	-2.441652	0.002334	1
H	-2.986417	-0.603142	-0.085896	1
H	-0.310197	-2.157182	0.081144	1
H	-1.074037	0.889608	-0.080026	1
H	2.939273	2.721428	-0.006556	1
H	3.220603	0.865428	0.085944	1
Es	-1.651241	-1.380185	-0.002727	99
Es	-2.667733	-2.074498	-0.010246	99
Es	1.137705	0.749547	0.009534	99
Es	1.075445	0.069331	0.036927	99
Es	-0.652200	-0.664865	0.003634	99
Es	-0.377739	0.033700	-0.016483	99
Es	2.824044	2.379752	0.003921	99
Es	-2.313653	-1.452741	-0.024049	99
Es	-2.723643	-0.924267	-0.062245	99
Es	2.511095	1.707984	0.021224	99
Es	-0.843029	0.598469	-0.058632	99
Es	-0.984544	-1.311405	0.019324	99
Es	0.904412	0.198304	0.024786	99
Es	1.231750	1.549686	-0.021747	99
Es	0.405457	0.156994	0.007387	99
Es	-1.598629	-1.333220	-0.002418	99
Es	1.821941	1.606717	-0.001581	99
Es	0.312207	0.139252	0.005313	99
Es	2.974319	1.157454	0.063443	99
Es	0.990573	1.799917	-0.041988	99
Es	1.740456	1.579636	-0.002884	99
Es	-0.565696	-1.845846	0.058154	99
34
Properties=species:S:1:pos:R:3:Z:I:1 energy=-263.8693621586424 field_type=dipole dipole="0.000000 0.000000 0.000000" charge=0
C	-2.313547	-1.452732	-0.024046	6
C	-0.984647	-1.311482	0.019324	6
C	-0.377697	0.033768	-0.016486	6
N	0.904883	0.197848	0.024824	7
N	1.231273	1.550158	-0.021786	7
C	2.511053	1.707948	0.021224	6
H	-2.760547	-2.441652	0.002334	1
H	-2.986417	-0.603142	-0.085896	1
H	-0.310197	-2.157182	0.081144	1
H	-1.074037	0.889608	-0.080026	1
H	2.939273	2.721428	-0.006556	1
H	3.220603	0.865428	0.085944	1
Es	1.145717	-0.056583	0.045027	99
Es	-2.313652	-1.452745	-0.024049	99
Es	0.904411	0.198312	0.024786	99
Es	-0.377740	0.033700	-0.016484	99
Es	2.511095	1.707984	0.021224	99
Es	0.312291	0.138951	0.005019	99
Es	-0.842527	0.598077	-0.058638	99
Es	2.974158	1.157630	0.063433	99
Es	1.231753	1.549687	-0.021747	99
Es	0.994188	1.008373	-0.007190	99
Es	-2.667205	-2.075452	-0.010192	99
Es	1.740468	1.579622	-0.003184	99
Es	-2.724158	-0.923380	-0.062314	99
Es	-1.651256	-1.380186	-0.002229	99
Es	2.824199	2.379595	0.003959	99
Es	1.063690	1.667477	-0.033373	99
Es	-0.565385	-1.846279	0.058144	99
Es	-0.653019	-0.663987	0.003583	99
Es	-0.984545	-1.311405	0.019325	99
Es	0.405443	0.157011	0.007780	99
Es	1.821982	1.606552	-0.001377	99
Es	-1.598613	-1.333239	-0.002856	99
34
Properties=species:S:1:pos:R:3:Z:I:1 energy=-263.8693621586424 field_type=dipole dipole="0.000000 0.000000 0.000000" charge=0
C	-2.313547	-1.452732	-0.024046	6
C	-0.984647	-1.311482	0.019324	6
C	-0.377697	0.033768	-0.016486	6
N	0.904883	0.197848	0.024824	7
N	1.231273	1.550158	-0.021786	7
C	2.511053	1.707948	0.021224	6
H	-2.760547	-2.441652	0.002334	1
H	-2.986417	-0.603142	-0.085896	1
H	-0.310197	-2.157182	0.081144	1
H	-1.074037	0.889608	-0.080026	1
H	2.939273	2.721428	-0.006556	1
H	3.220603	0.865428	0.085944	1
Es	2.511095	1.707984	0.021224	99
Es	-0.377739	0.033700	-0.016485	99
Es	-2.723980	-0.923667	-0.062280	99
Es	2.823988	2.379820	0.003904	99
Es	-0.842864	0.598337	-0.058635	99
Es	-0.652473	-0.664571	0.003624	99
Es	-2.313652	-1.452743	-0.024049	99
Es	1.821991	1.606510	-0.001398	99
Es	0.994824	1.008492	-0.007208	99
Es	1.144676	-0.055703	0.044979	99
Es	-0.984544	-1.311406	0.019325	99
Es	0.904416	0.198293	0.024787	99
Es	1.064102	1.666439	-0.033326	99
Es	2.974374	1.157390	0.063468	99
Es	-2.667395	-2.075106	-0.010189	99
Es	-0.565590	-1.845991	0.058154	99
Es	-1.598624	-1.333225	-0.002554	99
Es	0.312275	0.139045	0.004909	99
Es	-1.651240	-1.380211	-0.002608	99
Es	1.740464	1.579627	-0.003079	99
Es	0.405441	0.157013	0.007829	99
Es	1.231752	1.549689	-0.021747	99
34
Properties=species:S:1:pos:R:3:Z:I:1 energy=-263.8693621586424 field_type=dipole dipole="0.000000 0.000000 0.000000" charge=0
C	-2.313547	-1.452732	-0.024046	6
C	-0.984647	-1.311482	0.019324	6
C	-0.377697	0.033768	-0.016486	6
N	0.904883	0.197848	0.024824	7
N	1.231273	1.550158	-0.021786	7
C	2.511053	1.707948	0.021224	6
H	-2.760547	-2.441652	0.002334	1
H	-2.986417	-0.603142	-0.085896	1
H	-0.310197	-2.157182	0.081144	1
H	-1.074037	0.889608	-0.080026	1
H	2.939273	2.721428	-0.006556	1
H	3.220603	0.865428	0.085944	1
Es	1.231739	1.549692	-0.021747	99
Es	0.312203	0.139312	0.005031	99
Es	-0.984544	-1.311405	0.019325	99
Es	0.990820	1.799638	-0.042040	99
Es	-0.565822	-1.845626	0.058112	99
Es	0.904414	0.198300	0.024787	99
Es	-1.598613	-1.333238	-0.002853	99
Es	-0.842947	0.598403	-0.058626	99
Es	1.740471	1.579619	-0.003272	99
Es	1.073450	0.074537	0.036663	99
Es	-2.313652	-1.452742	-0.024049	99
Es	2.511095	1.707984	0.021224	99
Es	1.821919	1.606756	-0.001163	99
Es	-2.668511	-2.073069	-0.010367	99
Es	-0.652156	-0.665014	0.003635	99
Es	1.139481	0.744531	0.009835	99
Es	-0.377739	0.033699	-0.016485	99
Es	-1.651252	-1.380202	-0.002213	99
Es	2.974281	1.157498	0.063440	99
Es	-2.722867	-0.925684	-0.062158	99
Es	0.405447	0.157005	0.007658	99
Es	2.824079	2.379720	0.003913	99
34
Properties=species:S:1:pos:R:3:Z:I:1 energy=-263.8693621586424 field_type=dipole dipole="0.000000 0.000000 0.000000" charge=0
C	-2.313547	-1.452732	-0.024046	6
C	-0.984647	-1.311482	0.019324	6
C	-0.377697	0.033768	-0.016486	6
N	0.904883	0.197848	0.024824	7
N	1.231273	1.550158	-0.021786	7
C	2.511053	1.707948	0.021224	6
H	-2.760547	-2.441652	0.002334	1
H	-2.986417	-0.603142	-0.085896	1
H	-0.310197	-2.157182	0.081144	1
H	-1.074037	0.889608	-0.080026	1
H	2.939273	2.721428	-0.006556	1
H	3.220603	0.865428	0.085944	1
Es	-0.566271	-1.844898	0.058088	99
Es	-0.984544	-1.311407	0.019326	99
Es	1.139549	0.743819	0.009885	99
Es	-2.723158	-0.925125	-0.062202	99
Es	1.821943	1.606696	-0.001522	99
Es	-0.842888	0.598364	-0.058626	99
Es	0.405460	0.156991	0.007322	99
Es	-1.651242	-1.380233	-0.002415	99
Es	1.740458	1.579633	-0.002942	99
Es	-1.598618	-1.333233	-0.002724	99
Es	1.073057	0.075545	0.036525	99
Es	-2.313652	-1.452744	-0.024048	99
Es	-2.668227	-2.073589	-0.010307	99
Es	0.312180	0.139378	0.005413	99
Es	2.824114	2.379671	0.003926	99
Es	0.991136	1.799340	-0.041990	99
Es	-0.377739	0.033700	-0.016485	99
Es	-0.651768	-0.665694	0.003710	99
Es	1.231747	1.549703	-0.021747	99
Es	2.511095	1.707983	0.021223	99
Es	0.904411	0.198305	0.024786	99
Es	2.974253	1.157511	0.063451	99
34
Properties=species:S:1:pos:R:3:Z:I:1 energy=-263.8693621586424 field_type=dipole dipole="0.000000 0.000000 0.000000" charge=0
C	-2.313547	-1.452732	-0.024046	6
C	-0.984647	-1.311482	0.019324	6
C	-0.377697	0.033768	-0.016486	6
N	0.904883	0.197848	0.024824	7
N	1.231273	1.550158	-0.021786	7
C	2.511053	1.707948	0.021224	6
H	-2.760547	-2.441652	0.002334	1
H	-2.986417	-0.603142	-0.085896	1
H	-0.310197	-2.157182	0.081144	1
H	-1.074037	0.889608	-0.080026	1
H	2.939273	2.721428	-0.006556	1
H	3.220603	0.865428	0.085944	1
Es	-0.984544	-1.311406	0.019324	99
Es	-2.723760	-0.924071	-0.062277	99
Es	-2.313652	-1.452745	-0.024050	99
Es	0.312305	0.138893	0.004953	99
Es	-2.667609	-2.074730	-0.010214	99
Es	0.991155	1.015594	-0.007637	99
Es	2.973556	1.158321	0.063388	99
Es	1.740455	1.579637	-0.002853	99
Es	-1.598630	-1.333219	-0.002402	99
Es	0.904416	0.198296	0.024787	99
Es	-0.377740	0.033700	-0.016484	99
Es	0.405442	0.157012	0.007807	99
Es	-0.565814	-1.845622	0.058153	99
Es	-0.842424	0.597994	-0.058605	99
Es	2.511095	1.707984	0.021223	99
Es	1.231753	1.549687	-0.021747	99
Es	1.066241	1.660637	-0.032995	99
Es	-0.652689	-0.664602	0.003628	99
Es	2.824797	2.378933	0.003976	99
Es	1.821995	1.606522	-0.001637	99
Es	1.146182	-0.056887	0.045077	99
Es	-1.651235	-1.380213	-0.002768	99
34
Properties=species:S:1:pos:R:3:Z:I:1 energy=-263.8693621586424 field_type=dipole dipole="0.000000 0.000000 0.000000" charge=0
C	-2.313547	-1.452732	-0.024046	6
C	-0.984647	-1.311482	0.019324	6
C	-0.377697	0.033768	-0.016486	6
N	0.904883	0.197848	0.024824	7
N	1.231273	1.550158	-0.021786	7
C	2.511053	1.707948	0.021224	6
H	-2.760547	-2.441652	0.002334	1
H	-2.986417	-0.603142	-0.085896	1
H	-0.310197	-2.157182	0.081144	1
H	-1.074037	0.889608	-0.080026	1
H	2.939273	2.721428	-0.006556	1
H	3.220603	0.865428	0.085944	1
Es	0.405441	0.157013	0.007828	99
Es	0.990837	1.799606	-0.042000	99
Es	1.140274	0.742382	0.009989	99
Es	2.511096	1.707981	0.021225	99
Es	-0.651295	-0.666304	0.003768	99
Es	-0.377740	0.033701	-0.016485	99
Es	-0.843057	0.598496	-0.058660	99
Es	-1.651228	-1.380249	-0.002754	99
Es	-0.566579	-1.844400	0.058050	99
Es	-2.313652	-1.452744	-0.024049	99
Es	-2.722453	-0.926434	-0.062098	99
Es	1.821939	1.606722	-0.001587	99
Es	-1.598630	-1.333219	-0.002403	99
Es	2.974071	1.157714	0.063448	99
Es	0.312199	0.139349	0.004929	99
Es	-0.984544	-1.311408	0.019323	99
Es	1.072644	0.076662	0.036457	99
Es	1.740457	1.579635	-0.002899	99
Es	1.231743	1.549708	-0.021748	99
Es	0.904410	0.198310	0.024786	99
Es	2.824296	2.379471	0.003917	99
Es	-2.668934	-2.072280	-0.010389	99
34
Properties=species:S:1:pos:R:3:Z:I:1 energy=-263.8693621586424 field_type=dipole dipole="0.000000 0.000000 0.000000" charge=0
C	-2.313547	-1.452732	-0.024046	6
C	-0.984647	-1.311482	0.019324	6
C	-0.377697	0.033768	-0.016486	6
N	0.904883	0.197848	0.024824	7
N	1.231273	1.550158	-0.021786	7
C	2.511053	1.707948	0.021224	6
H	-2.760547	-2.441652	0.002334	1
H	-2.986417	-0.603142	-0.085896	1
H	-0.310197	-2.157182	0.081144	1
H	-1.074037	0.889608	-0.080026	1
H	2.939273	2.721428	-0.006556	1
H	3.220603	0.865428	0.085944	1
Es	0.990451	1.799882	-0.042004	99
Es	0.904412	0.198311	0.024785	99
Es	-2.313652	-1.452744	-0.024050	99
Es	2.511095	1.707982	0.021224	99
Es	2.824345	2.379414	0.003949	99
Es	0.312200	0.139325	0.005050	99
Es	-1.598618	-1.333232	-0.002708	99
Es	-0.842626	0.598167	-0.058614	99
Es	1.071722	0.079168	0.036307	99
Es	1.231748	1.549696	-0.021747	99
Es	-2.668610	-2.072883	-0.010333	99
Es	0.405446	0.157007	0.007687	99
Es	-0.377740	0.033700	-0.016485	99
Es	1.141571	0.739624	0.010226	99
Es	-1.651244	-1.380211	-0.002450	99
Es	-0.984544	-1.311406	0.019325	99
Es	1.821925	1.606770	-0.001400	99
Es	-2.722769	-0.925871	-0.062161	99
Es	-0.651713	-0.666006	0.003721	99
Es	1.740466	1.579624	-0.003146	99
Es	-0.566590	-1.844375	0.058053	99
Es	2.974021	1.157774	0.063418	99
34
Properties=species:S:1:pos:R:3:Z:I:1 energy=-263.8693621586424 field_type=dipole dipole="0.000000 0.000000 0.000000" charge=0
C	-2.313547	-1.452732	-0.024046	6
C	-0.984647	-1.311482	0.019324	6
C	-0.377697	0.033768	-0.016486	6
N	0.904883	0.197848	0.024824	7
N	1.231273	1.550158	-0.021786	7
C	2.511053	1.707948	0.021224	6
H	-2.760547	-2.441652	0.002334	1
H	-2.986417	-0.603142	-0.085896	1
H	-0.310197	-2.157182	0.081144	1
H	-1.074037	0.889608	-0.080026	1
H	2.939273	2.721428	-0.006556	1
H	3.220603	0.865428	0.085944	1
Es	2.824538	2.379198	0.003960	99
Es	1.071600	0.079466	0.036315	99
Es	0.990905	1.799464	-0.041977	99
Es	0.312202	0.139334	0.004926	99
Es	-0.842839	0.598338	-0.058629	99
Es	1.141244	0.739737	0.010132	99
Es	-1.598618	-1.333232	-0.002710	99
Es	-1.651241	-1.380229	-0.002425	99
Es	0.904411	0.198303	0.024786	99
Es	-0.651531	-0.666119	0.003735	99
Es	2.973830	1.157985	0.063407	99
Es	-2.313652	-1.452744	-0.024049	99
Es	1.740465	1.579626	-0.003103	99
Es	-2.722622	-0.926114	-0.062130	99
Es	-0.566559	-1.844439	0.058051	99
Es	1.231747	1.549699	-0.021747	99
Es	0.405442	0.157011	0.007792	99
Es	-2.668765	-2.072592	-0.010369	99
Es	2.511095	1.707984	0.021224	99
Es	-0.984544	-1.311406	0.019324	99
Es	1.821929	1.606746	-0.001379	99
Es	-0.377739	0.033699	-0.016485	99
34
Properties=species:S:1:pos:R:3:Z:I:1 energy=-263.8693621586424 field_type=dipole dipole="0.000000 0.000000 0.000000" charge=0
C	-2.313547	-1.452732	-0.024046	6
C	-0.984647	-1.311482	0.019324	6
C	-0.377697	0.033768	-0.016486	6
N	0.904883	0.197848	0.024824	7
N	1.231273	1.550158	-0.021786	7
C	2.511053	1.707948	0.021224	6
H	-2.760547	-2.441652	0.002334	1
H	-2.986417	-0.603142	-0.085896	1
H	-0.310197	-2.157182	0.081144	1
H	-1.074037	0.889608	-0.080026	1
H	2.939273	2.721428	-0.006556	1
H	3.220603	0.865428	0.085944	1
Es	1.146051	-0.056738	0.045032	99
Es	-0.984544	-1.311408	0.019324	99
Es	-0.377739	0.033699	-0.016485	99
Es	0.312296	0.138946	0.004922	99
Es	1.231750	1.549690	-0.021747	99
Es	1.740465	1.579626	-0.003114	99
Es	1.821978	1.606570	-0.001373	99
Es	0.405439	0.157015	0.007879	99
Es	-2.723148	-0.925236	-0.062194	99
Es	1.067592	1.656984	-0.032758	99
Es	0.904417	0.198284	0.024787	99
Es	2.824902	2.378811	0.003983	99
Es	-2.668210	-2.073635	-0.010277	99
Es	2.511095	1.707984	0.021222	99
Es	-2.313652	-1.452743	-0.024050	99
Es	0.989954	1.019018	-0.007862	99
Es	-1.651241	-1.380209	-0.002552	99
Es	2.973454	1.158430	0.063379	99
Es	-0.566010	-1.845262	0.058142	99
Es	-0.842488	0.598037	-0.058613	99
Es	-1.598621	-1.333229	-0.002637	99
Es	-0.652445	-0.664920	0.003641	99
34
Properties=species:S:1:pos:R:3:Z:I:1 energy=-263.8693621586424 field_type=dipole dipole="0.000000 0.000000 0.000000" charge=0
C	-2.313547	-1.452732	-0.024046	6
C	-0.984647	-1.311482	0.019324	6
C	-0.377697	0.033768	-0.016486	6
N	0.904883	0.197848	0.024824	7
N	1.231273	1.550158	-0.021786	7
C	2.511053	1.707948	0.021224	6
H	-2.760547	-2.441652	0.002334	1
H	-2.986417	-0.603142	-0.085896	1
H	-0.310197	-2.157182	0.081144	1
H	-1.074037	0.889608	-0.080026	1
H	2.939273	2.721428	-0.006556	1
H	3.220603	0.865428	0.085944	1
Es	0.990648	1.799765	-0.041925	99
Es	-0.842881	0.598352	-0.058647	99
Es	1.821959	1.606617	-0.001577	99
Es	1.142167	0.737679	0.010223	99
Es	-0.377739	0.033700	-0.016484	99
Es	1.231746	1.549697	-0.021747	99
Es	0.405438	0.157016	0.007896	99
Es	-2.722287	-0.926762	-0.062080	99
Es	2.511095	1.707983	0.021223	99
Es	-1.598632	-1.333215	-0.002335	99
Es	0.904414	0.198301	0.024787	99
Es	-2.669091	-2.071995	-0.010413	99
Es	-0.984544	-1.311407	0.019324	99
Es	2.824772	2.378942	0.003981	99
Es	-0.566491	-1.844549	0.058072	99
Es	0.312210	0.139303	0.004832	99
Es	-1.651234	-1.380206	-0.002826	99
Es	2.973592	1.158265	0.063377	99
Es	-0.651552	-0.666048	0.003736	99
Es	1.070900	0.081392	0.036250	99
Es	1.740459	1.579632	-0.002969	99
Es	-2.313652	-1.452744	-0.024050	99
34
Properties=species:S:1:pos:R:3:Z:I:1 energy=-263.8693621586424 field_type=dipole dipole="0.000000 0.000000 0.000000" charge=0
C	-2.313547	-1.452732	-0.024046	6
C	-0.984647	-1.311482	0.019324	6
C	-0.377697	0.033768	-0.016486	6
N	0.904883	0.197848	0.024824	7
N	1.231273	1.550158	-0.021786	7
C	2.511053	1.707948	0.021224	6
H	-2.760547	-2.441652	0.002334	1
H	-2.986417	-0.603142	-0.085896	1
H	-0.310197	-2.157182	0.081144	1
H	-1.074037	0.889608	-0.080026	1
H	2.939273	2.721428	-0.006556	1
H	3.220603	0.865428	0.085944	1
Es	0.904411	0.198305	0.024786	99
Es	0.990676	1.799687	-0.042044	99
Es	-0.377739	0.033699	-0.016484	99
Es	1.821926	1.606687	-0.000899	99
Es	-0.566798	-1.844040	0.057997	99
Es	-1.651236	-1.380235	-0.002578	99
Es	1.142241	0.737471	0.010309	99
Es	1.070823	0.081560	0.036204	99
Es	2.973709	1.158128	0.063379	99
Es	1.740481	1.579608	-0.003516	99
Es	-0.984544	-1.311408	0.019320	99
Es	-2.669117	-2.071947	-0.010402	99
Es	-2.313652	-1.452744	-0.024049	99
Es	0.405445	0.157008	0.007726	99
Es	-0.651356	-0.666460	0.003786	99
Es	2.824658	2.379065	0.003958	99
Es	0.312199	0.139348	0.004937	99
Es	-0.842778	0.598293	-0.058617	99
Es	-1.598623	-1.333226	-0.002568	99
Es	1.231744	1.549703	-0.021747	99
Es	-2.722269	-0.926772	-0.062074	99
Es	2.511095	1.707983	0.021224	99
34
Properties=species:S:1:pos:R:3:Z:I:1 energy=-263.8693621586424 field_type=dipole dipole="0.000000 0.000000 0.000000" charge=0
C	-2.313547	-1.452732	-0.024046	6
C	-0.984647	-1.311482	0.019324	6
C	-0.377697	0.033768	-0.016486	6
N	0.904883	0.197848	0.024824	7
N	1.231273	1.550158	-0.021786	7
C	2.511053	1.707948	0.021224	6
H	-2.760547	-2.441652	0.002334	1
H	-2.986417	-0.603142	-0.085896	1
H	-0.310197	-2.157182	0.081144	1
H	-1.074037	0.889608	-0.080026	1
H	2.939273	2.721428	-0.006556	1
H	3.220603	0.865428	0.085944	1
Es	0.405439	0.157015	0.007872	99
Es	0.904411	0.198301	0.024786	99
Es	1.231747	1.549704	-0.021748	99
Es	-0.842866	0.598364	-0.058622	99
Es	1.141989	0.737825	0.010271	99
Es	-0.650992	-0.666983	0.003799	99
Es	-2.313652	-1.452744	-0.024049	99
Es	2.511095	1.707984	0.021224	99
Es	-2.722042	-0.927197	-0.062034	99
Es	1.821934	1.606716	-0.001329	99
Es	-2.669348	-2.071506	-0.010446	99
Es	0.312198	0.139372	0.004813	99
Es	2.824486	2.379258	0.003936	99
Es	0.990850	1.799505	-0.041994	99
Es	1.740465	1.579625	-0.003119	99
Es	-0.984545	-1.311404	0.019326	99
Es	-0.377739	0.033700	-0.016485	99
Es	1.070916	0.081303	0.036217	99
Es	-0.567069	-1.843618	0.058030	99
Es	-1.651240	-1.380207	-0.002591	99
Es	-1.598622	-1.333228	-0.002604	99
Es	2.973882	1.157932	0.063395	99
34
Properties=species:S:1:pos:R:3:Z:I:1 energy=-263.8693621586424 field_type=dipole dipole="0.000000 0.000000 0.000000" charge=0
C	-2.313547	-1.452732	-0.024046	6
C	-0.984647	-1.311482	0.019324	6
C	-0.377697	0.033768	-0.016486	6
N	0.904883	0.197848	0.024824	7
N	1.231273	1.550158	-0.021786	7
C	2.511053	1.707948	0.021224	6
H	-2.760547	-2.441652	0.002334	1
H	-2.986417	-0.603142	-0.085896	1
H	-0.310197	-2.157182	0.081144	1
H	-1.074037	0.889608	-0.080026	1
H	2.939273	2.721428	-0.006556	1
H	3.220603	0.865428	0.085944	1
Es	-2.722841	-0.925773	-0.062150	99
Es	-2.313652	-1.452744	-0.024049	99
Es	0.312286	0.138992	0.004949	99
Es	2.973379	1.158506	0.063368	99
Es	-0.377739	0.033698	-0.016484	99
Es	-2.668525	-2.073054	-0.010327	99
Es	1.146234	-0.056885	0.045106	99
Es	-0.842272	0.597871	-0.058593	99
Es	-0.566463	-1.844540	0.058074	99
Es	1.231753	1.549687	-0.021746	99
Es	1.740465	1.579625	-0.003119	99
Es	-0.984544	-1.311407	0.019322	99
Es	0.405443	0.157011	0.007767	99
Es	-0.652200	-0.665511	0.003676	99
Es	0.988992	1.021276	-0.008028	99
Es	2.824980	2.378721	0.003987	99
Es	1.821980	1.606557	-0.001331	99
Es	-1.651237	-1.380224	-0.002601	99
Es	0.904417	0.198290	0.024787	99
Es	1.068370	1.654860	-0.032635	99
Es	-1.598624	-1.333226	-0.002549	99
Es	2.511095	1.707984	0.021224	99
34
Properties=species:S:1:pos:R:3:Z:I:1 energy=-263.8693621586424 field_type=dipole dipole="0.000000 0.000000 0.000000" charge=0
C	-2.313547	-1.452732	-0.024046	6
C	-0.984647	-1.311482	0.019324	6
C	-0.377697	0.033768	-0.016486	6
N	0.904883	0.197848	0.024824	7
N	1.231273	1.550158	-0.021786	7
C	2.511053	1.707948	0.021224	6
H	-2.760547	-2.441652	0.002334	1
H	-2.986417	-0.603142	-0.085896	1
H	-0.310197	-2.157182	0.081144	1
H	-1.074037	0.889608	-0.080026	1
H	2.939273	2.721428	-0.006556	1
H	3.220603	0.865428	0.085944	1
Es	0.988886	1.022347	-0.008024	99
Es	-1.651240	-1.380221	-0.002523	99
Es	1.740459	1.579632	-0.002959	99
Es	1.145786	-0.056439	0.045006	99
Es	2.973301	1.158605	0.063361	99
Es	-0.566354	-1.844729	0.058098	99
Es	-0.652189	-0.665427	0.003670	99
Es	-0.984544	-1.311406	0.019325	99
Es	0.405450	0.157003	0.007590	99
Es	0.312278	0.138986	0.005189	99
Es	2.511095	1.707984	0.021223	99
Es	1.231751	1.549686	-0.021747	99
Es	-0.377739	0.033699	-0.016484	99
Es	-1.598621	-1.333229	-0.002623	99
Es	-2.723096	-0.925299	-0.062190	99
Es	2.825055	2.378636	0.004015	99
Es	0.904417	0.198286	0.024787	99
Es	-0.842392	0.597968	-0.058606	99
Es	-2.668270	-2.073521	-0.010309	99
Es	1.068932	1.653323	-0.032544	99
Es	-2.313652	-1.452743	-0.024050	99
Es	1.821983	1.606572	-0.001557	99
