34
Properties=species:S:1:pos:R:3:Z:I:1 energy=-263.93116923044835 field_type=dipole dipole="0.000000 0.000000 0.000000" charge=0
N	-1.976724	-0.024790	-0.029131	7
C	-0.639774	0.063300	-0.012881	6
C	0.194736	1.155880	-0.004131	6
C	1.526906	0.671820	0.009839	6
C	1.463066	-0.704160	0.008959	6
N	0.138896	-1.062160	-0.005031	7
H	-2.559534	0.807560	0.003349	1
H	-2.491474	-0.897990	0.014969	1
H	-0.115634	2.191540	-0.008421	1
H	2.432526	1.263750	0.018379	1
H	2.239626	-1.456900	0.015809	1
H	-0.212614	-2.007850	-0.011711	1
Es	1.526931	0.671848	0.009844	99
Es	-1.412988	0.004771	0.071344	99
Es	1.509540	-0.028110	-0.307421	99
Es	0.194695	1.155886	-0.004098	99
Es	-2.266160	-0.549936	0.032590	99
Es	-0.639922	0.063029	-0.012887	99
Es	-0.075059	-1.625622	-0.025882	99
Es	1.462894	-0.704323	0.008958	99
Es	1.499835	-0.026386	0.330776	99
Es	-0.124440	0.682616	-0.312428	99
Es	-1.897309	-0.024042	-0.215209	99
Es	-0.117730	0.684925	0.302036	99
Es	-0.223017	-0.613958	-0.102220	99
Es	-2.312570	0.469787	0.024011	99
Es	0.147276	-0.916105	0.161170	99
Es	-1.976409	-0.024777	-0.028064	99
Es	1.981868	-1.222107	0.013297	99
Es	2.137703	1.078371	0.015610	99
Es	-0.020360	1.861665	-0.007015	99
Es	0.702632	-0.950820	-0.057348	99
Es	0.878291	0.966665	-0.000015	99
Es	0.138913	-1.061808	-0.005798	99
34
Properties=species:S:1:pos:R:3:Z:I:1 energy=-263.93116923044835 field_type=dipole dipole="0.000000 0.000000 0.000000" charge=0
N	-1.976724	-0.024790	-0.029131	7
C	-0.639774	0.063300	-0.012881	6
C	0.194736	1.155880	-0.004131	6
C	1.526906	0.671820	0.009839	6
C	1.463066	-0.704160	0.008959	6
N	0.138896	-1.062160	-0.005031	7
H	-2.559534	0.807560	0.003349	1
H	-2.491474	-0.897990	0.014969	1
H	-0.115634	2.191540	-0.008421	1
H	2.432526	1.263750	0.018379	1
H	2.239626	-1.456900	0.015809	1
H	-0.212614	-2.007850	-0.011711	1
Es	-0.077279	-1.628463	-0.011714	99
Es	0.138881	-1.062115	-0.005359	99
Es	-0.639925	0.063029	-0.012883	99
Es	0.878694	0.964776	0.001522	99
Es	0.711138	-0.947639	-0.010964	99
Es	-1.972426	-0.024694	-0.026080	99
Es	1.526933	0.671855	0.009841	99
Es	1.982270	-1.221880	0.013321	99
Es	1.462896	-0.704321	0.008968	99
Es	-0.237232	-0.599542	-0.027025	99
Es	0.154142	-0.933637	0.028660	99
Es	-2.269368	-0.556240	0.010866	99
Es	0.194702	1.155893	-0.004123	99
Es	1.507359	-0.024408	-0.306681	99
Es	2.139112	1.079088	0.015800	99
Es	-0.119755	0.682408	-0.312082	99
Es	1.500618	-0.024249	0.326956	99
Es	-1.394140	0.006006	0.018834	99
Es	-2.314242	0.474219	0.005735	99
Es	-0.020847	1.862331	-0.006665	99
Es	-1.915257	-0.023892	-0.124816	99
Es	-0.121659	0.683043	0.299138	99
34
Properties=species:S:1:pos:R:3:Z:I:1 energy=-263.93116923044835 field_type=dipole dipole="0.000000 0.000000 0.000000" charge=0
N	-1.976724	-0.024790	-0.029131	7
C	-0.639774	0.063300	-0.012881	6
C	0.194736	1.155880	-0.004131	6
C	1.526906	0.671820	0.009839	6
C	1.463066	-0.704160	0.008959	6
N	0.138896	-1.062160	-0.005031	7
H	-2.559534	0.807560	0.003349	1
H	-2.491474	-0.897990	0.014969	1
H	-0.115634	2.191540	-0.008421	1
H	2.432526	1.263750	0.018379	1
H	2.239626	-1.456900	0.015809	1
H	-0.212614	-2.007850	-0.011711	1
Es	-1.976354	-0.024778	-0.027717	99
Es	-0.237258	-0.599221	-0.011341	99
Es	0.153444	-0.935802	0.000877	99
Es	-1.913091	-0.023979	-0.093194	99
Es	2.139907	1.079432	0.015840	99
Es	1.982611	-1.221683	0.013613	99
Es	1.526930	0.671849	0.009840	99
Es	-0.077771	-1.628776	-0.008911	99
Es	-1.391558	0.006336	0.002371	99
Es	1.506330	-0.022851	-0.305509	99
Es	-0.021177	1.862823	-0.006822	99
Es	0.194703	1.155894	-0.004134	99
Es	1.462895	-0.704326	0.008953	99
Es	-2.314302	0.475081	-0.000794	99
Es	-0.639925	0.063028	-0.012877	99
Es	-0.119311	0.681625	-0.310871	99
Es	0.138915	-1.061898	-0.005855	99
Es	-2.270126	-0.557459	0.003764	99
Es	1.500637	-0.023267	0.324931	99
Es	0.878776	0.963561	0.002085	99
Es	0.710987	-0.947158	-0.000391	99
Es	-0.120649	0.683137	0.297392	99
34
Properties=species:S:1:pos:R:3:Z:I:1 energy=-263.93116923044835 field_type=dipole dipole="0.000000 0.000000 0.000000" charge=0
N	-1.976724	-0.024790	-0.029131	7
C	-0.639774	0.063300	-0.012881	6
C	0.194736	1.155880	-0.004131	6
C	1.526906	0.671820	0.009839	6
C	1.463066	-0.704160	0.008959	6
N	0.138896	-1.062160	-0.005031	7
H	-2.559534	0.807560	0.003349	1
H	-2.491474	-0.897990	0.014969	1
H	-0.115634	2.191540	-0.008421	1
H	2.432526	1.263750	0.018379	1
H	2.239626	-1.456900	0.015809	1
H	-0.212614	-2.007850	-0.011711	1
Es	1.462892	-0.704325	0.008968	99
Es	-1.390989	0.006717	-0.003464	99
Es	-0.078151	-1.628965	-0.008205	99
Es	-0.021374	1.863345	-0.006467	99
Es	0.878799	0.962290	0.002603	99
Es	1.499785	-0.022498	0.323603	99
Es	0.152762	-0.936377	-0.007909	99
Es	1.982961	-1.221515	0.013730	99
Es	1.506392	-0.022141	-0.304208	99
Es	-2.270707	-0.557936	-0.001103	99
Es	-0.123879	0.681744	0.295259	99
Es	-0.236611	-0.599210	-0.008108	99
Es	2.140449	1.079698	0.015805	99
Es	0.194706	1.155900	-0.004128	99
Es	-0.115102	0.682856	-0.309838	99
Es	0.138872	-1.062148	-0.004937	99
Es	-1.915060	-0.024098	-0.080123	99
Es	1.526933	0.671857	0.009838	99
Es	-2.314128	0.475154	-0.004801	99
Es	-1.974537	-0.024738	-0.026070	99
Es	0.710523	-0.947072	0.003697	99
Es	-0.639923	0.063031	-0.012891	99
34
Properties=species:S:1:pos:R:3:Z:I:1 energy=-263.93116923044835 field_type=dipole dipole="0.000000 0.000000 0.000000" charge=0
N	-1.976724	-0.024790	-0.029131	7
C	-0.639774	0.063300	-0.012881	6
C	0.194736	1.155880	-0.004131	6
C	1.526906	0.671820	0.009839	6
C	1.463066	-0.704160	0.008959	6
N	0.138896	-1.062160	-0.005031	7
H	-2.559534	0.807560	0.003349	1
H	-2.491474	-0.897990	0.014969	1
H	-0.115634	2.191540	-0.008421	1
H	2.432526	1.263750	0.018379	1
H	2.239626	-1.456900	0.015809	1
H	-0.212614	-2.007850	-0.011711	1
Es	-0.021616	1.863730	-0.006701	99
Es	1.462893	-0.704326	0.008955	99
Es	-1.913578	-0.024186	-0.066923	99
Es	-0.118586	0.681254	-0.308326	99
Es	0.194706	1.155898	-0.004140	99
Es	2.140889	1.079839	0.015797	99
Es	1.505699	-0.021481	-0.302902	99
Es	-0.236379	-0.599616	-0.009574	99
Es	1.983339	-1.221403	0.013690	99
Es	0.710320	-0.946521	-0.000340	99
Es	-0.078212	-1.629151	-0.008806	99
Es	-2.270860	-0.558242	-0.003634	99
Es	0.138898	-1.061848	-0.004127	99
Es	1.526934	0.671856	0.009835	99
Es	-1.976217	-0.024774	-0.027458	99
Es	0.878760	0.961320	0.002448	99
Es	-0.639923	0.063030	-0.012885	99
Es	-0.119504	0.683172	0.294311	99
Es	-2.314025	0.475348	-0.008343	99
Es	-1.390722	0.006899	-0.009247	99
Es	0.152094	-0.937453	-0.002755	99
Es	1.499705	-0.021776	0.322375	99
34
Properties=species:S:1:pos:R:3:Z:I:1 energy=-263.93116923044835 field_type=dipole dipole="0.000000 0.000000 0.000000" charge=0
N	-1.976724	-0.024790	-0.029131	7
C	-0.639774	0.063300	-0.012881	6
C	0.194736	1.155880	-0.004131	6
C	1.526906	0.671820	0.009839	6
C	1.463066	-0.704160	0.008959	6
N	0.138896	-1.062160	-0.005031	7
H	-2.559534	0.807560	0.003349	1
H	-2.491474	-0.897990	0.014969	1
H	-0.115634	2.191540	-0.008421	1
H	2.432526	1.263750	0.018379	1
H	2.239626	-1.456900	0.015809	1
H	-0.212614	-2.007850	-0.011711	1
Es	-2.270954	-0.558456	-0.004685	99
Es	-0.078415	-1.629240	-0.008242	99
Es	0.194707	1.155900	-0.004135	99
Es	-1.913298	-0.024225	-0.057145	99
Es	-1.976675	-0.024789	-0.028715	99
Es	2.141231	1.079996	0.015582	99
Es	1.526933	0.671857	0.009843	99
Es	0.151539	-0.937877	-0.000522	99
Es	1.499029	-0.021516	0.321570	99
Es	-0.127643	0.677878	-0.305869	99
Es	-1.390602	0.007207	-0.015053	99
Es	0.878641	0.960430	0.000889	99
Es	-0.236006	-0.599642	-0.009358	99
Es	-0.109553	0.686651	0.293517	99
Es	1.505782	-0.020983	-0.301535	99
Es	-0.021821	1.864055	-0.007110	99
Es	-2.313881	0.475295	-0.009935	99
Es	1.983636	-1.221262	0.013530	99
Es	1.462894	-0.704329	0.008957	99
Es	-0.639924	0.063030	-0.012891	99
Es	0.138908	-1.061925	-0.005843	99
Es	0.710087	-0.946484	-0.001601	99
34
Properties=species:S:1:pos:R:3:Z:I:1 energy=-263.93116923044835 field_type=dipole dipole="0.000000 0.000000 0.000000" charge=0
N	-1.976724	-0.024790	-0.029131	7
C	-0.639774	0.063300	-0.012881	6
C	0.194736	1.155880	-0.004131	6
C	1.526906	0.671820	0.009839	6
C	1.463066	-0.704160	0.008959	6
N	0.138896	-1.062160	-0.005031	7
H	-2.559534	0.807560	0.003349	1
H	-2.491474	-0.897990	0.014969	1
H	-0.115634	2.191540	-0.008421	1
H	2.432526	1.263750	0.018379	1
H	2.239626	-1.456900	0.015809	1
H	-0.212614	-2.007850	-0.011711	1
Es	-0.022098	1.864348	-0.007500	99
Es	-0.143260	0.672388	-0.300473	99
Es	1.497793	-0.021045	0.320777	99
Es	1.983937	-1.221160	0.013481	99
Es	1.505357	-0.020063	-0.300225	99
Es	-2.313710	0.475287	-0.010576	99
Es	-2.271023	-0.558616	-0.005421	99
Es	0.878573	0.959643	-0.001482	99
Es	-1.930336	-0.024272	-0.032829	99
Es	1.526934	0.671858	0.009839	99
Es	-0.078443	-1.629387	-0.007002	99
Es	-0.092575	0.692660	0.290532	99
Es	-1.959670	-0.024706	-0.044406	99
Es	0.194707	1.155900	-0.004144	99
Es	-0.235717	-0.599783	-0.007439	99
Es	0.709829	-0.946284	-0.003476	99
Es	1.462890	-0.704330	0.008953	99
Es	-0.639925	0.063030	-0.012882	99
Es	0.144770	-1.004565	0.006749	99
Es	0.145632	-0.996729	-0.014195	99
Es	-1.390616	0.007357	-0.022189	99
Es	2.141563	1.080038	0.015163	99
34
Properties=species:S:1:pos:R:3:Z:I:1 energy=-263.93116923044835 field_type=dipole dipole="0.000000 0.000000 0.000000" charge=0
N	-1.976724	-0.024790	-0.029131	7
C	-0.639774	0.063300	-0.012881	6
C	0.194736	1.155880	-0.004131	6
C	1.526906	0.671820	0.009839	6
C	1.463066	-0.704160	0.008959	6
N	0.138896	-1.062160	-0.005031	7
H	-2.559534	0.807560	0.003349	1
H	-2.491474	-0.897990	0.014969	1
H	-0.115634	2.191540	-0.008421	1
H	2.432526	1.263750	0.018379	1
H	2.239626	-1.456900	0.015809	1
H	-0.212614	-2.007850	-0.011711	1
Es	1.462892	-0.704328	0.008958	99
Es	1.504201	-0.021357	-0.301437	99
Es	-0.022082	1.864446	-0.005640	99
Es	-2.313700	0.475223	-0.013387	99
Es	-1.915515	-0.024375	-0.061632	99
Es	-2.271122	-0.558663	-0.010414	99
Es	1.526934	0.671858	0.009845	99
Es	-0.235271	-0.599808	-0.012603	99
Es	-0.074369	0.696934	-0.299692	99
Es	-1.391296	0.007515	-0.004923	99
Es	2.141595	1.080233	0.016774	99
Es	0.709511	-0.946203	0.008428	99
Es	0.150565	-0.938348	-0.005898	99
Es	0.194707	1.155898	-0.004167	99
Es	0.138878	-1.062122	-0.005288	99
Es	-0.160983	0.668465	0.279539	99
Es	1.983934	-1.221130	0.013794	99
Es	0.878468	0.959055	0.008920	99
Es	-0.078659	-1.629421	-0.010623	99
Es	-1.973748	-0.024736	-0.025603	99
Es	1.499598	-0.020595	0.319182	99
Es	-0.639925	0.063029	-0.012884	99
34
Properties=species:S:1:pos:R:3:Z:I:1 energy=-263.93116923044835 field_type=dipole dipole="0.000000 0.000000 0.000000" charge=0
N	-1.976724	-0.024790	-0.029131	7
C	-0.639774	0.063300	-0.012881	6
C	0.194736	1.155880	-0.004131	6
C	1.526906	0.671820	0.009839	6
C	1.463066	-0.704160	0.008959	6
N	0.138896	-1.062160	-0.005031	7
H	-2.559534	0.807560	0.003349	1
H	-2.491474	-0.897990	0.014969	1
H	-0.115634	2.191540	-0.008421	1
H	2.432526	1.263750	0.018379	1
H	2.239626	-1.456900	0.015809	1
H	-0.212614	-2.007850	-0.011711	1
Es	1.497186	-0.023024	0.322372	99
Es	0.138873	-1.062135	-0.004812	99
Es	-1.913818	-0.024311	-0.051642	99
Es	-0.185662	0.657842	-0.275565	99
Es	1.526934	0.671858	0.009837	99
Es	-0.639925	0.063030	-0.012885	99
Es	-0.047968	0.709246	0.272076	99
Es	-0.078668	-1.629413	-0.004676	99
Es	1.983571	-1.221085	0.013405	99
Es	-2.271115	-0.558565	-0.000927	99
Es	1.505878	-0.020733	-0.300108	99
Es	1.462892	-0.704328	0.008952	99
Es	-0.235206	-0.599806	-0.002330	99
Es	0.709619	-0.946326	-0.009312	99
Es	0.149583	-0.938311	-0.003752	99
Es	0.194707	1.155900	-0.004136	99
Es	0.878636	0.959112	-0.008216	99
Es	-1.976383	-0.024779	-0.027694	99
Es	-1.390797	0.007237	-0.027617	99
Es	2.141414	1.080389	0.014158	99
Es	-0.021924	1.864461	-0.008650	99
Es	-2.313214	0.475312	-0.007226	99
34
Properties=species:S:1:pos:R:3:Z:I:1 energy=-263.93116923044835 field_type=dipole dipole="0.000000 0.000000 0.000000" charge=0
N	-1.976724	-0.024790	-0.029131	7
C	-0.639774	0.063300	-0.012881	6
C	0.194736	1.155880	-0.004131	6
C	1.526906	0.671820	0.009839	6
C	1.463066	-0.704160	0.008959	6
N	0.138896	-1.062160	-0.005031	7
H	-2.559534	0.807560	0.003349	1
H	-2.491474	-0.897990	0.014969	1
H	-0.115634	2.191540	-0.008421	1
H	2.432526	1.263750	0.018379	1
H	2.239626	-1.456900	0.015809	1
H	-0.212614	-2.007850	-0.011711	1
Es	0.194707	1.155900	-0.004156	99
Es	-0.235142	-0.599976	-0.000971	99
Es	-1.390966	0.007442	-0.030345	99
Es	0.149225	-0.938546	-0.002548	99
Es	1.496897	-0.023201	0.322222	99
Es	-2.271057	-0.558691	-0.000456	99
Es	-0.078611	-1.629502	-0.004634	99
Es	0.138893	-1.062046	-0.005538	99
Es	-0.191257	0.655825	-0.270396	99
Es	1.505785	-0.020773	-0.299897	99
Es	2.141400	1.080547	0.014010	99
Es	0.709459	-0.946122	-0.011109	99
Es	-2.313264	0.475231	-0.009144	99
Es	-0.639923	0.063032	-0.012882	99
Es	1.526934	0.671858	0.009838	99
Es	1.462893	-0.704328	0.008950	99
Es	-0.021927	1.864522	-0.008783	99
Es	0.878650	0.958787	-0.008159	99
Es	-1.974568	-0.024812	-0.033646	99
Es	1.983640	-1.221017	0.013303	99
Es	-1.915462	-0.024332	-0.041455	99
Es	-0.041691	0.711771	0.267046	99
34
Properties=species:S:1:pos:R:3:Z:I:1 energy=-263.93116923044835 field_type=dipole dipole="0.000000 0.000000 0.000000" charge=0
N	-1.976724	-0.024790	-0.029131	7
C	-0.639774	0.063300	-0.012881	6
C	0.194736	1.155880	-0.004131	6
C	1.526906	0.671820	0.009839	6
C	1.463066	-0.704160	0.008959	6
N	0.138896	-1.062160	-0.005031	7
H	-2.559534	0.807560	0.003349	1
H	-2.491474	-0.897990	0.014969	1
H	-0.115634	2.191540	-0.008421	1
H	2.432526	1.263750	0.018379	1
H	2.239626	-1.456900	0.015809	1
H	-0.212614	-2.007850	-0.011711	1
Es	-0.028732	0.714501	-0.272319	99
Es	-0.078639	-1.629442	-0.013112	99
Es	-1.391954	0.007470	0.002091	99
Es	1.502641	-0.023233	-0.303278	99
Es	1.462892	-0.704328	0.008959	99
Es	0.709126	-0.946115	0.015081	99
Es	2.141370	1.080558	0.017856	99
Es	-2.313372	0.475189	-0.015077	99
Es	-0.639925	0.063029	-0.012888	99
Es	0.138880	-1.062056	-0.004522	99
Es	0.194707	1.155900	-0.004111	99
Es	-0.021864	1.864625	-0.004539	99
Es	-1.976693	-0.024797	-0.029486	99
Es	-0.203165	0.653841	0.246127	99
Es	1.526934	0.671856	0.009841	99
Es	1.983492	-1.220965	0.014127	99
Es	0.148903	-0.938639	-0.007597	99
Es	-1.911928	-0.024382	-0.059974	99
Es	1.499740	-0.021252	0.319242	99
Es	-0.234879	-0.600082	-0.016301	99
Es	-2.271313	-0.558685	-0.013856	99
Es	0.878391	0.958576	0.014987	99
34
Properties=species:S:1:pos:R:3:Z:I:1 energy=-263.93116923044835 field_type=dipole dipole="0.000000 0.000000 0.000000" charge=0
N	-1.976724	-0.024790	-0.029131	7
C	-0.639774	0.063300	-0.012881	6
C	0.194736	1.155880	-0.004131	6
C	1.526906	0.671820	0.009839	6
C	1.463066	-0.704160	0.008959	6
N	0.138896	-1.062160	-0.005031	7
H	-2.559534	0.807560	0.003349	1
H	-2.491474	-0.897990	0.014969	1
H	-0.115634	2.191540	-0.008421	1
H	2.432526	1.263750	0.018379	1
H	2.239626	-1.456900	0.015809	1
H	-0.212614	-2.007850	-0.011711	1
Es	-0.639924	0.063029	-0.012882	99
Es	0.148415	-0.938714	-0.001452	99
Es	-0.234822	-0.600084	-0.001754	99
Es	-2.271142	-0.558740	0.000156	99
Es	1.983386	-1.220968	0.013435	99
Es	-2.312966	0.475162	-0.007109	99
Es	1.462892	-0.704328	0.008959	99
Es	2.141300	1.080707	0.013760	99
Es	0.194707	1.155899	-0.004163	99
Es	-1.913368	-0.024342	-0.046313	99
Es	-1.976642	-0.024786	-0.028505	99
Es	1.496566	-0.024118	0.322907	99
Es	-0.021729	1.864623	-0.009109	99
Es	-0.206214	0.650897	-0.254538	99
Es	-0.025231	0.718292	0.253381	99
Es	0.709301	-0.946015	-0.013073	99
Es	1.526934	0.671858	0.009838	99
Es	-0.078749	-1.629559	-0.004086	99
Es	0.138880	-1.061981	-0.004353	99
Es	-1.391126	0.007461	-0.033178	99
Es	0.878699	0.958450	-0.010380	99
Es	1.505447	-0.021172	-0.300292	99
34
Properties=species:S:1:pos:R:3:Z:I:1 energy=-263.93116923044835 field_type=dipole dipole="0.000000 0.000000 0.000000" charge=0
N	-1.976724	-0.024790	-0.029131	7
C	-0.639774	0.063300	-0.012881	6
C	0.194736	1.155880	-0.004131	6
C	1.526906	0.671820	0.009839	6
C	1.463066	-0.704160	0.008959	6
N	0.138896	-1.062160	-0.005031	7
H	-2.559534	0.807560	0.003349	1
H	-2.491474	-0.897990	0.014969	1
H	-0.115634	2.191540	-0.008421	1
H	2.432526	1.263750	0.018379	1
H	2.239626	-1.456900	0.015809	1
H	-0.212614	-2.007850	-0.011711	1
Es	1.502062	-0.023763	-0.303713	99
Es	2.141257	1.080753	0.018121	99
Es	0.878418	0.958323	0.016278	99
Es	-0.639925	0.063030	-0.012887	99
Es	-0.016748	0.719377	-0.260719	99
Es	-1.953889	-0.024755	-0.050252	99
Es	-1.934925	-0.024490	-0.035002	99
Es	0.148116	-0.938514	-0.005051	99
Es	-1.391864	0.007495	0.000884	99
Es	1.499931	-0.021541	0.319414	99
Es	-2.271380	-0.558696	-0.015562	99
Es	-0.214093	0.649920	0.233105	99
Es	-0.021713	1.864643	-0.004110	99
Es	0.138872	-1.062151	-0.004969	99
Es	1.526934	0.671858	0.009842	99
Es	1.462893	-0.704327	0.008952	99
Es	0.709017	-0.946095	0.015443	99
Es	-2.313169	0.475172	-0.016414	99
Es	-0.234545	-0.600108	-0.018570	99
Es	0.194706	1.155899	-0.004098	99
Es	1.983310	-1.220936	0.014047	99
Es	-0.078653	-1.629523	-0.013489	99
34
Properties=species:S:1:pos:R:3:Z:I:1 energy=-263.93116923044835 field_type=dipole dipole="0.000000 0.000000 0.000000" charge=0
N	-1.976724	-0.024790	-0.029131	7
C	-0.639774	0.063300	-0.012881	6
C	0.194736	1.155880	-0.004131	6
C	1.526906	0.671820	0.009839	6
C	1.463066	-0.704160	0.008959	6
N	0.138896	-1.062160	-0.005031	7
H	-2.559534	0.807560	0.003349	1
H	-2.491474	-0.897990	0.014969	1
H	-0.115634	2.191540	-0.008421	1
H	2.432526	1.263750	0.018379	1
H	2.239626	-1.456900	0.015809	1
H	-0.212614	-2.007850	-0.011711	1
Es	-0.015900	0.722102	0.243979	99
Es	1.495131	-0.024629	0.323134	99
Es	0.194707	1.155900	-0.004154	99
Es	-2.271183	-0.558724	0.000213	99
Es	-0.639925	0.063030	-0.012883	99
Es	0.709353	-0.945982	-0.013685	99
Es	-1.931474	-0.024408	-0.027173	99
Es	0.878742	0.958337	-0.011232	99
Es	-2.313027	0.475229	-0.009218	99
Es	-1.391239	0.007336	-0.035403	99
Es	-0.021656	1.864636	-0.009157	99
Es	1.462892	-0.704328	0.008957	99
Es	1.506429	-0.021637	-0.300057	99
Es	0.147499	-0.938390	-0.004113	99
Es	-0.214306	0.648002	-0.244508	99
Es	0.138872	-1.062143	-0.004871	99
Es	2.141293	1.080845	0.013497	99
Es	-0.234584	-0.600267	0.001516	99
Es	-0.078887	-1.629523	-0.003523	99
Es	1.526934	0.671858	0.009837	99
Es	1.983236	-1.220915	0.013401	99
Es	-1.958294	-0.024760	-0.043308	99
34
Properties=species:S:1:pos:R:3:Z:I:1 energy=-263.93116923044835 field_type=dipole dipole="0.000000 0.000000 0.000000" charge=0
N	-1.976724	-0.024790	-0.029131	7
C	-0.639774	0.063300	-0.012881	6
C	0.194736	1.155880	-0.004131	6
C	1.526906	0.671820	0.009839	6
C	1.463066	-0.704160	0.008959	6
N	0.138896	-1.062160	-0.005031	7
H	-2.559534	0.807560	0.003349	1
H	-2.491474	-0.897990	0.014969	1
H	-0.115634	2.191540	-0.008421	1
H	2.432526	1.263750	0.018379	1
H	2.239626	-1.456900	0.015809	1
H	-0.212614	-2.007850	-0.011711	1
Es	0.138894	-1.061935	-0.004313	99
Es	0.147795	-0.938832	-0.009563	99
Es	-2.313094	0.475178	-0.014377	99
Es	2.141154	1.080920	0.018167	99
Es	-1.912134	-0.024440	-0.065915	99
Es	-0.007969	0.723102	-0.251169	99
Es	-0.234469	-0.600187	-0.017588	99
Es	1.499905	-0.021963	0.319556	99
Es	-0.639925	0.063029	-0.012890	99
Es	-0.221611	0.647285	0.222653	99
Es	1.526934	0.671858	0.009843	99
Es	-1.976037	-0.024773	-0.027264	99
Es	-2.271435	-0.558782	-0.014502	99
Es	-0.078731	-1.629562	-0.013601	99
Es	1.462891	-0.704329	0.008960	99
Es	-0.021605	1.864709	-0.004111	99
Es	-1.392486	0.007483	0.005653	99
Es	0.708732	-0.945995	0.018549	99
Es	0.878460	0.958140	0.017377	99
Es	1.501450	-0.024335	-0.304222	99
Es	1.983187	-1.220903	0.014121	99
Es	0.194707	1.155900	-0.004114	99
34
Properties=species:S:1:pos:R:3:Z:I:1 energy=-263.93116923044835 field_type=dipole dipole="0.000000 0.000000 0.000000" charge=0
N	-1.976724	-0.024790	-0.029131	7
C	-0.639774	0.063300	-0.012881	6
C	0.194736	1.155880	-0.004131	6
C	1.526906	0.671820	0.009839	6
C	1.463066	-0.704160	0.008959	6
N	0.138896	-1.062160	-0.005031	7
H	-2.559534	0.807560	0.003349	1
H	-2.491474	-0.897990	0.014969	1
H	-0.115634	2.191540	-0.008421	1
H	2.432526	1.263750	0.018379	1
H	2.239626	-1.456900	0.015809	1
H	-0.212614	-2.007850	-0.011711	1
Es	-1.911916	-0.024449	-0.065371	99
Es	1.499493	-0.021982	0.319797	99
Es	-2.271416	-0.558815	-0.014906	99
Es	1.462894	-0.704327	0.008959	99
Es	0.708784	-0.945909	0.017811	99
Es	2.141127	1.080981	0.018258	99
Es	0.194704	1.155891	-0.004065	99
Es	0.147361	-0.938784	-0.006322	99
Es	-0.005107	0.724363	-0.247714	99
Es	-0.234386	-0.600323	-0.020159	99
Es	-1.392554	0.007569	0.006167	99
Es	-2.313072	0.475154	-0.014777	99
Es	1.983123	-1.220885	0.013912	99
Es	0.138885	-1.061967	-0.004337	99
Es	-1.976204	-0.024776	-0.027466	99
Es	1.526934	0.671858	0.009844	99
Es	1.501643	-0.024626	-0.304424	99
Es	-0.224080	0.646375	0.218927	99
Es	-0.021581	1.864681	-0.003963	99
Es	-0.078641	-1.629609	-0.013656	99
Es	0.878546	0.958119	0.017631	99
Es	-0.639924	0.063030	-0.012895	99
34
Properties=species:S:1:pos:R:3:Z:I:1 energy=-263.93116923044835 field_type=dipole dipole="0.000000 0.000000 0.000000" charge=0
N	-1.976724	-0.024790	-0.029131	7
C	-0.639774	0.063300	-0.012881	6
C	0.194736	1.155880	-0.004131	6
C	1.526906	0.671820	0.009839	6
C	1.463066	-0.704160	0.008959	6
N	0.138896	-1.062160	-0.005031	7
H	-2.559534	0.807560	0.003349	1
H	-2.491474	-0.897990	0.014969	1
H	-0.115634	2.191540	-0.008421	1
H	2.432526	1.263750	0.018379	1
H	2.239626	-1.456900	0.015809	1
H	-0.212614	-2.007850	-0.011711	1
Es	0.138890	-1.062015	-0.005641	99
Es	-2.313059	0.475122	-0.014829	99
Es	1.498731	-0.022047	0.320282	99
Es	-0.639925	0.063030	-0.012889	99
Es	-1.973526	-0.024820	-0.035269	99
Es	1.462892	-0.704328	0.008956	99
Es	0.708735	-0.946143	0.017719	99
Es	0.194706	1.155899	-0.004092	99
Es	-0.234115	-0.600134	-0.020541	99
Es	2.141088	1.081032	0.018207	99
Es	-1.914666	-0.024419	-0.056784	99
Es	-0.226216	0.645561	0.215343	99
Es	0.878546	0.957984	0.017431	99
Es	-2.271437	-0.558801	-0.015168	99
Es	1.526933	0.671857	0.009840	99
Es	1.983038	-1.220851	0.013903	99
Es	-0.021520	1.864765	-0.003745	99
Es	-0.002657	0.725426	-0.244343	99
Es	0.147101	-0.938724	-0.004622	99
Es	1.502350	-0.024809	-0.304471	99
Es	-0.078806	-1.629578	-0.013699	99
Es	-1.392472	0.007564	0.005663	99
34
Properties=species:S:1:pos:R:3:Z:I:1 energy=-263.93116923044835 field_type=dipole dipole="0.000000 0.000000 0.000000" charge=0
N	-1.976724	-0.024790	-0.029131	7
C	-0.639774	0.063300	-0.012881	6
C	0.194736	1.155880	-0.004131	6
C	1.526906	0.671820	0.009839	6
C	1.463066	-0.704160	0.008959	6
N	0.138896	-1.062160	-0.005031	7
H	-2.559534	0.807560	0.003349	1
H	-2.491474	-0.897990	0.014969	1
H	-0.115634	2.191540	-0.008421	1
H	2.432526	1.263750	0.018379	1
H	2.239626	-1.456900	0.015809	1
H	-0.212614	-2.007850	-0.011711	1
Es	-0.639925	0.063030	-0.012881	99
Es	0.878693	0.958039	-0.012646	99
Es	2.141060	1.081106	0.013360	99
Es	-0.003588	0.727080	0.229735	99
Es	1.495475	-0.025303	0.324132	99
Es	-1.969855	-0.024700	-0.023716	99
Es	0.709144	-0.946009	-0.015838	99
Es	-0.021408	1.864768	-0.009588	99
Es	0.138887	-1.062032	-0.005603	99
Es	0.194708	1.155901	-0.004149	99
Es	0.146937	-0.938699	-0.000317	99
Es	1.982936	-1.220820	0.013461	99
Es	-0.225092	0.644209	-0.228636	99
Es	-2.270986	-0.558829	0.001967	99
Es	-0.234558	-0.600235	0.000669	99
Es	-1.920251	-0.024546	-0.053326	99
Es	1.526932	0.671856	0.009837	99
Es	1.462893	-0.704328	0.008955	99
Es	-1.391251	0.007449	-0.033160	99
Es	1.505487	-0.021958	-0.300843	99
Es	-2.312805	0.475225	-0.006615	99
Es	-0.078820	-1.629637	-0.003547	99
34
Properties=species:S:1:pos:R:3:Z:I:1 energy=-263.93116923044835 field_type=dipole dipole="0.000000 0.000000 0.000000" charge=0
N	-1.976724	-0.024790	-0.029131	7
C	-0.639774	0.063300	-0.012881	6
C	0.194736	1.155880	-0.004131	6
C	1.526906	0.671820	0.009839	6
C	1.463066	-0.704160	0.008959	6
N	0.138896	-1.062160	-0.005031	7
H	-2.559534	0.807560	0.003349	1
H	-2.491474	-0.897990	0.014969	1
H	-0.115634	2.191540	-0.008421	1
H	2.432526	1.263750	0.018379	1
H	2.239626	-1.456900	0.015809	1
H	-0.212614	-2.007850	-0.011711	1
Es	-2.312964	0.475122	-0.017514	99
Es	2.141091	1.081074	0.018300	99
Es	0.194707	1.155900	-0.004106	99
Es	-0.021453	1.864780	-0.003876	99
Es	1.501351	-0.024774	-0.304654	99
Es	-0.229095	0.644641	0.210795	99
Es	1.526934	0.671858	0.009841	99
Es	-0.639925	0.063030	-0.012886	99
Es	1.462892	-0.704328	0.008960	99
Es	0.878452	0.957865	0.018200	99
Es	-0.078741	-1.629635	-0.013610	99
Es	1.982946	-1.220793	0.014193	99
Es	-1.950145	-0.024767	-0.051588	99
Es	-1.938569	-0.024553	-0.032780	99
Es	1.499662	-0.022170	0.319846	99
Es	0.147271	-0.938750	-0.010496	99
Es	0.708566	-0.946018	0.019127	99
Es	0.000625	0.726575	-0.240322	99
Es	-2.271358	-0.558832	-0.016721	99
Es	0.138880	-1.062095	-0.005433	99
Es	-0.234401	-0.600164	-0.016178	99
Es	-1.392113	0.007605	0.002154	99
34
Properties=species:S:1:pos:R:3:Z:I:1 energy=-263.93116923044835 field_type=dipole dipole="0.000000 0.000000 0.000000" charge=0
N	-1.976724	-0.024790	-0.029131	7
C	-0.639774	0.063300	-0.012881	6
C	0.194736	1.155880	-0.004131	6
C	1.526906	0.671820	0.009839	6
C	1.463066	-0.704160	0.008959	6
N	0.138896	-1.062160	-0.005031	7
H	-2.559534	0.807560	0.003349	1
H	-2.491474	-0.897990	0.014969	1
H	-0.115634	2.191540	-0.008421	1
H	2.432526	1.263750	0.018379	1
H	2.239626	-1.456900	0.015809	1
H	-0.212614	-2.007850	-0.011711	1
Es	-1.392276	0.007527	0.003542	99
Es	-0.021430	1.864819	-0.003832	99
Es	1.462893	-0.704328	0.008955	99
Es	-2.312940	0.475195	-0.015799	99
Es	0.002666	0.727617	-0.237610	99
Es	0.708735	-0.945926	0.018154	99
Es	-0.078799	-1.629593	-0.014669	99
Es	1.982895	-1.220821	0.013913	99
Es	-1.968731	-0.024820	-0.039921	99
Es	-2.271433	-0.558858	-0.015453	99
Es	0.138873	-1.062151	-0.004962	99
Es	0.194707	1.155899	-0.004103	99
Es	-0.639925	0.063030	-0.012885	99
Es	-1.919739	-0.024466	-0.048774	99
Es	-0.230659	0.644054	0.207992	99
Es	-0.234035	-0.600363	-0.020983	99
Es	0.878529	0.957829	0.018576	99
Es	0.146567	-0.938601	-0.004256	99
Es	1.501263	-0.025159	-0.304925	99
Es	1.499524	-0.022341	0.320205	99
Es	2.140994	1.081170	0.018244	99
Es	1.526934	0.671857	0.009843	99
34
Properties=species:S:1:pos:R:3:Z:I:1 energy=-263.93116923044835 field_type=dipole dipole="0.000000 0.000000 0.000000" charge=0
N	-1.976724	-0.024790	-0.029131	7
C	-0.639774	0.063300	-0.012881	6
C	0.194736	1.155880	-0.004131	6
C	1.526906	0.671820	0.009839	6
C	1.463066	-0.704160	0.008959	6
N	0.138896	-1.062160	-0.005031	7
H	-2.559534	0.807560	0.003349	1
H	-2.491474	-0.897990	0.014969	1
H	-0.115634	2.191540	-0.008421	1
H	2.432526	1.263750	0.018379	1
H	2.239626	-1.456900	0.015809	1
H	-0.212614	-2.007850	-0.011711	1
Es	-0.021466	1.864835	-0.003747	99
Es	-0.234137	-0.600296	-0.019620	99
Es	1.462892	-0.704328	0.008960	99
Es	1.501442	-0.025181	-0.304909	99
Es	0.878591	0.957843	0.018041	99
Es	-0.639925	0.063030	-0.012888	99
Es	-0.078778	-1.629639	-0.014173	99
Es	-1.911543	-0.024446	-0.063354	99
Es	0.194705	1.155900	-0.004088	99
Es	-1.392717	0.007514	0.007249	99
Es	-0.231649	0.643537	0.206240	99
Es	0.138905	-1.061838	-0.005971	99
Es	-2.312880	0.475153	-0.014951	99
Es	2.141021	1.081185	0.018404	99
Es	-2.271561	-0.558841	-0.014607	99
Es	0.708692	-0.945950	0.017908	99
Es	1.499099	-0.022272	0.320222	99
Es	-1.976397	-0.024806	-0.030792	99
Es	0.003825	0.728168	-0.235669	99
Es	0.146666	-0.939052	-0.004960	99
Es	1.526933	0.671857	0.009839	99
Es	1.982891	-1.220802	0.014119	99
34
Properties=species:S:1:pos:R:3:Z:I:1 energy=-263.93116923044835 field_type=dipole dipole="0.000000 0.000000 0.000000" charge=0
N	-1.976724	-0.024790	-0.029131	7
C	-0.639774	0.063300	-0.012881	6
C	0.194736	1.155880	-0.004131	6
C	1.526906	0.671820	0.009839	6
C	1.463066	-0.704160	0.008959	6
N	0.138896	-1.062160	-0.005031	7
H	-2.559534	0.807560	0.003349	1
H	-2.491474	-0.897990	0.014969	1
H	-0.115634	2.191540	-0.008421	1
H	2.432526	1.263750	0.018379	1
H	2.239626	-1.456900	0.015809	1
H	-0.212614	-2.007850	-0.011711	1
Es	0.709065	-0.945919	-0.016706	99
Es	-0.230190	0.642554	-0.220095	99
Es	1.462894	-0.704327	0.008957	99
Es	2.141053	1.081176	0.013373	99
Es	1.982830	-1.220787	0.013270	99
Es	-0.078887	-1.629668	-0.003669	99
Es	0.194707	1.155899	-0.004170	99
Es	0.146576	-0.938630	0.000620	99
Es	-1.937290	-0.024681	-0.050118	99
Es	-1.391221	0.007532	-0.035362	99
Es	-0.234524	-0.600322	0.000018	99
Es	1.526934	0.671857	0.009836	99
Es	-2.271413	-0.558764	0.001110	99
Es	0.878818	0.957839	-0.013607	99
Es	-0.639925	0.063030	-0.012883	99
Es	0.002388	0.729512	0.221872	99
Es	1.505916	-0.022230	-0.300749	99
Es	1.494507	-0.025643	0.324456	99
Es	-0.021307	1.864829	-0.009504	99
Es	-2.312636	0.475026	-0.008044	99
Es	0.138872	-1.062149	-0.004941	99
Es	-1.952555	-0.024563	-0.022412	99
34
Properties=species:S:1:pos:R:3:Z:I:1 energy=-263.93116923044835 field_type=dipole dipole="0.000000 0.000000 0.000000" charge=0
N	-1.976724	-0.024790	-0.029131	7
C	-0.639774	0.063300	-0.012881	6
C	0.194736	1.155880	-0.004131	6
C	1.526906	0.671820	0.009839	6
C	1.463066	-0.704160	0.008959	6
N	0.138896	-1.062160	-0.005031	7
H	-2.559534	0.807560	0.003349	1
H	-2.491474	-0.897990	0.014969	1
H	-0.115634	2.191540	-0.008421	1
H	2.432526	1.263750	0.018379	1
H	2.239626	-1.456900	0.015809	1
H	-0.212614	-2.007850	-0.011711	1
Es	0.194707	1.155897	-0.004092	99
Es	1.462893	-0.704327	0.008953	99
Es	-0.233904	-0.600289	-0.020700	99
Es	1.501288	-0.025547	-0.305462	99
Es	-2.271468	-0.558892	-0.015194	99
Es	0.138907	-1.061436	-0.003634	99
Es	-0.234634	0.642586	0.201023	99
Es	1.526934	0.671858	0.009843	99
Es	0.146352	-0.939367	-0.006877	99
Es	2.140856	1.081360	0.018256	99
Es	-1.912430	-0.024447	-0.060828	99
Es	0.878607	0.957674	0.019246	99
Es	-0.639924	0.063031	-0.012887	99
Es	-0.078870	-1.629674	-0.014010	99
Es	-1.392666	0.007650	0.006800	99
Es	1.982765	-1.220787	0.013998	99
Es	1.499147	-0.022475	0.320493	99
Es	-0.021308	1.864852	-0.003749	99
Es	-1.975594	-0.024814	-0.032424	99
Es	0.007268	0.729635	-0.231259	99
Es	0.708630	-0.945993	0.018480	99
Es	-2.312942	0.475076	-0.014725	99
34
Properties=species:S:1:pos:R:3:Z:I:1 energy=-263.93116923044835 field_type=dipole dipole="0.000000 0.000000 0.000000" charge=0
N	-1.976724	-0.024790	-0.029131	7
C	-0.639774	0.063300	-0.012881	6
C	0.194736	1.155880	-0.004131	6
C	1.526906	0.671820	0.009839	6
C	1.463066	-0.704160	0.008959	6
N	0.138896	-1.062160	-0.005031	7
H	-2.559534	0.807560	0.003349	1
H	-2.491474	-0.897990	0.014969	1
H	-0.115634	2.191540	-0.008421	1
H	2.432526	1.263750	0.018379	1
H	2.239626	-1.456900	0.015809	1
H	-0.212614	-2.007850	-0.011711	1
Es	0.003618	0.730375	0.218987	99
Es	1.505512	-0.022298	-0.301165	99
Es	-0.078893	-1.629708	-0.003397	99
Es	-1.391299	0.007477	-0.033606	99
Es	1.982759	-1.220749	0.013415	99
Es	1.526934	0.671858	0.009836	99
Es	0.878992	0.957662	-0.012250	99
Es	-0.234370	-0.600388	0.000781	99
Es	-2.312591	0.475213	-0.007141	99
Es	0.194707	1.155900	-0.004160	99
Es	-0.021201	1.864915	-0.009798	99
Es	-0.639925	0.063030	-0.012883	99
Es	1.494641	-0.025719	0.324490	99
Es	-0.231296	0.641981	-0.218064	99
Es	0.138947	-1.061360	-0.006537	99
Es	0.146539	-0.939589	0.002952	99
Es	-1.913407	-0.024512	-0.047243	99
Es	0.708853	-0.945855	-0.018453	99
Es	2.140984	1.081306	0.013395	99
Es	-1.976678	-0.024798	-0.029629	99
Es	1.462893	-0.704328	0.008957	99
Es	-2.271105	-0.558844	0.002763	99
34
Properties=species:S:1:pos:R:3:Z:I:1 energy=-263.93116923044835 field_type=dipole dipole="0.000000 0.000000 0.000000" charge=0
N	-1.976724	-0.024790	-0.029131	7
C	-0.639774	0.063300	-0.012881	6
C	0.194736	1.155880	-0.004131	6
C	1.526906	0.671820	0.009839	6
C	1.463066	-0.704160	0.008959	6
N	0.138896	-1.062160	-0.005031	7
H	-2.559534	0.807560	0.003349	1
H	-2.491474	-0.897990	0.014969	1
H	-0.115634	2.191540	-0.008421	1
H	2.432526	1.263750	0.018379	1
H	2.239626	-1.456900	0.015809	1
H	-0.212614	-2.007850	-0.011711	1
Es	-0.078973	-1.629627	-0.003268	99
Es	0.194707	1.155899	-0.004168	99
Es	2.140919	1.081346	0.013513	99
Es	1.462893	-0.704327	0.008956	99
Es	0.138872	-1.062150	-0.004949	99
Es	1.494702	-0.025982	0.325061	99
Es	-1.976332	-0.024805	-0.030906	99
Es	-2.271158	-0.558878	0.001991	99
Es	0.146124	-0.938665	-0.002173	99
Es	0.709133	-0.946196	-0.016044	99
Es	-0.232820	0.641674	-0.215479	99
Es	-0.234279	-0.600238	0.001838	99
Es	1.982670	-1.220677	0.013217	99
Es	-0.021094	1.864924	-0.009667	99
Es	1.526934	0.671858	0.009837	99
Es	0.005530	0.730895	0.217651	99
Es	1.505413	-0.022373	-0.301206	99
Es	0.878889	0.957672	-0.014128	99
Es	-2.312601	0.475200	-0.007324	99
Es	-1.913637	-0.024469	-0.043956	99
Es	-0.639924	0.063030	-0.012881	99
Es	-1.391353	0.007459	-0.034666	99
34
Properties=species:S:1:pos:R:3:Z:I:1 energy=-263.93116923044835 field_type=dipole dipole="0.000000 0.000000 0.000000" charge=0
N	-1.976724	-0.024790	-0.029131	7
C	-0.639774	0.063300	-0.012881	6
C	0.194736	1.155880	-0.004131	6
C	1.526906	0.671820	0.009839	6
C	1.463066	-0.704160	0.008959	6
N	0.138896	-1.062160	-0.005031	7
H	-2.559534	0.807560	0.003349	1
H	-2.491474	-0.897990	0.014969	1
H	-0.115634	2.191540	-0.008421	1
H	2.432526	1.263750	0.018379	1
H	2.239626	-1.456900	0.015809	1
H	-0.212614	-2.007850	-0.011711	1
Es	1.505576	-0.022386	-0.301285	99
Es	0.194707	1.155898	-0.004174	99
Es	-0.079092	-1.629645	-0.003194	99
Es	-2.271284	-0.558877	0.001189	99
Es	1.526934	0.671858	0.009834	99
Es	-2.312561	0.475152	-0.007342	99
Es	0.006174	0.731190	0.216065	99
Es	-1.966154	-0.024801	-0.039599	99
Es	1.494590	-0.025938	0.324877	99
Es	2.140927	1.081357	0.013427	99
Es	-0.234224	-0.600309	-0.000238	99
Es	0.879014	0.957688	-0.013380	99
Es	-0.021208	1.864887	-0.009739	99
Es	-1.391525	0.007473	-0.037766	99
Es	-0.639925	0.063030	-0.012884	99
Es	1.462893	-0.704328	0.008951	99
Es	0.138900	-1.061888	-0.005901	99
Es	1.982661	-1.220725	0.013301	99
Es	-0.233455	0.641313	-0.214207	99
Es	0.146122	-0.938929	0.000808	99
Es	-1.923565	-0.024416	-0.031314	99
Es	0.709109	-0.946035	-0.016179	99
34
Properties=species:S:1:pos:R:3:Z:I:1 energy=-263.93116923044835 field_type=dipole dipole="0.000000 0.000000 0.000000" charge=0
N	-1.976724	-0.024790	-0.029131	7
C	-0.639774	0.063300	-0.012881	6
C	0.194736	1.155880	-0.004131	6
C	1.526906	0.671820	0.009839	6
C	1.463066	-0.704160	0.008959	6
N	0.138896	-1.062160	-0.005031	7
H	-2.559534	0.807560	0.003349	1
H	-2.491474	-0.897990	0.014969	1
H	-0.115634	2.191540	-0.008421	1
H	2.432526	1.263750	0.018379	1
H	2.239626	-1.456900	0.015809	1
H	-0.212614	-2.007850	-0.011711	1
Es	0.194707	1.155899	-0.004169	99
Es	-1.391308	0.007543	-0.035445	99
Es	1.526934	0.671859	0.009837	99
Es	-0.234220	-0.600423	0.001031	99
Es	-0.639925	0.063029	-0.012882	99
Es	-1.974989	-0.024813	-0.033101	99
Es	-1.914934	-0.024439	-0.041070	99
Es	-0.021315	1.864870	-0.009732	99
Es	0.146222	-0.938806	-0.001052	99
Es	1.494826	-0.026050	0.324930	99
Es	-2.312584	0.475108	-0.006797	99
Es	0.006421	0.731389	0.215510	99
Es	1.462892	-0.704328	0.008959	99
Es	0.138873	-1.062152	-0.005000	99
Es	-2.271203	-0.558890	0.001611	99
Es	-0.078963	-1.629692	-0.003229	99
Es	0.879236	0.957776	-0.013299	99
Es	1.982620	-1.220738	0.013291	99
Es	2.141026	1.081299	0.013288	99
Es	0.709008	-0.945901	-0.016219	99
Es	1.504951	-0.022267	-0.301397	99
Es	-0.233666	0.641297	-0.213815	99
34
Properties=species:S:1:pos:R:3:Z:I:1 energy=-263.93116923044835 field_type=dipole dipole="0.000000 0.000000 0.000000" charge=0
N	-1.976724	-0.024790	-0.029131	7
C	-0.639774	0.063300	-0.012881	6
C	0.194736	1.155880	-0.004131	6
C	1.526906	0.671820	0.009839	6
C	1.463066	-0.704160	0.008959	6
N	0.138896	-1.062160	-0.005031	7
H	-2.559534	0.807560	0.003349	1
H	-2.491474	-0.897990	0.014969	1
H	-0.115634	2.191540	-0.008421	1
H	2.432526	1.263750	0.018379	1
H	2.239626	-1.456900	0.015809	1
H	-0.212614	-2.007850	-0.011711	1
Es	1.462893	-0.704327	0.008961	99
Es	-0.234756	0.640842	-0.211763	99
Es	2.140895	1.081389	0.013391	99
Es	-1.914419	-0.024425	-0.040212	99
Es	-2.312509	0.475171	-0.007216	99
Es	-0.078980	-1.629720	-0.003597	99
Es	-0.021194	1.864877	-0.009875	99
Es	1.982586	-1.220713	0.013424	99
Es	1.495167	-0.026159	0.325039	99
Es	1.504760	-0.022452	-0.301722	99
Es	-1.391442	0.007462	-0.036368	99
Es	-1.975413	-0.024811	-0.032475	99
Es	-2.271274	-0.558896	0.001425	99
Es	1.526934	0.671858	0.009837	99
Es	-0.234273	-0.600370	0.000379	99
Es	0.146142	-0.938719	0.000683	99
Es	0.194707	1.155899	-0.004167	99
Es	0.138872	-1.062151	-0.004974	99
Es	-0.639925	0.063030	-0.012882	99
Es	0.708975	-0.945918	-0.017069	99
Es	0.007779	0.731977	0.213899	99
Es	0.879089	0.957724	-0.013468	99
34
Properties=species:S:1:pos:R:3:Z:I:1 energy=-263.93116923044835 field_type=dipole dipole="0.000000 0.000000 0.000000" charge=0
N	-1.976724	-0.024790	-0.029131	7
C	-0.639774	0.063300	-0.012881	6
C	0.194736	1.155880	-0.004131	6
C	1.526906	0.671820	0.009839	6
C	1.463066	-0.704160	0.008959	6
N	0.138896	-1.062160	-0.005031	7
H	-2.559534	0.807560	0.003349	1
H	-2.491474	-0.897990	0.014969	1
H	-0.115634	2.191540	-0.008421	1
H	2.432526	1.263750	0.018379	1
H	2.239626	-1.456900	0.015809	1
H	-0.212614	-2.007850	-0.011711	1
Es	1.499279	-0.022683	0.320487	99
Es	-0.078939	-1.629692	-0.013949	99
Es	0.011702	0.731587	-0.224184	99
Es	-1.910994	-0.024465	-0.067174	99
Es	-0.021152	1.864972	-0.003767	99
Es	0.194706	1.155899	-0.004094	99
Es	0.708654	-0.945943	0.018310	99
Es	0.145995	-0.939337	-0.004595	99
Es	0.878528	0.957362	0.019365	99
Es	-0.233874	-0.600382	-0.020228	99
Es	1.462893	-0.704328	0.008958	99
Es	0.138918	-1.061577	-0.006305	99
Es	2.140851	1.081493	0.018296	99
Es	1.526934	0.671858	0.009843	99
Es	-0.639925	0.063030	-0.012887	99
Es	1.500783	-0.025718	-0.305457	99
Es	-2.312822	0.475099	-0.014576	99
Es	-2.271498	-0.558988	-0.014568	99
Es	-0.238340	0.641234	0.193922	99
Es	-1.976699	-0.024793	-0.028983	99
Es	-1.393049	0.007652	0.008875	99
Es	1.982661	-1.220711	0.013962	99
34
Properties=species:S:1:pos:R:3:Z:I:1 energy=-263.93116923044835 field_type=dipole dipole="0.000000 0.000000 0.000000" charge=0
N	-1.976724	-0.024790	-0.029131	7
C	-0.639774	0.063300	-0.012881	6
C	0.194736	1.155880	-0.004131	6
C	1.526906	0.671820	0.009839	6
C	1.463066	-0.704160	0.008959	6
N	0.138896	-1.062160	-0.005031	7
H	-2.559534	0.807560	0.003349	1
H	-2.491474	-0.897990	0.014969	1
H	-0.115634	2.191540	-0.008421	1
H	2.432526	1.263750	0.018379	1
H	2.239626	-1.456900	0.015809	1
H	-0.212614	-2.007850	-0.011711	1
Es	-0.239452	0.640822	0.191746	99
Es	-0.233919	-0.600443	-0.019273	99
Es	-0.078942	-1.629667	-0.014196	99
Es	1.982598	-1.220705	0.013995	99
Es	1.500831	-0.025852	-0.305729	99
Es	2.140829	1.081432	0.018334	99
Es	-0.639925	0.063030	-0.012887	99
Es	0.878675	0.957515	0.019315	99
Es	1.499119	-0.022820	0.320771	99
Es	0.194706	1.155899	-0.004093	99
Es	0.146110	-0.938760	-0.008685	99
Es	-1.914043	-0.024523	-0.068672	99
Es	1.526934	0.671858	0.009843	99
Es	-1.392783	0.007692	0.007508	99
Es	-2.312855	0.475037	-0.014828	99
Es	-1.973848	-0.024746	-0.025919	99
Es	0.013015	0.732179	-0.222242	99
Es	0.138872	-1.062132	-0.004788	99
Es	0.708497	-0.945898	0.020272	99
Es	1.462892	-0.704327	0.008949	99
Es	-0.021171	1.864935	-0.003655	99
Es	-2.271527	-0.558953	-0.014514	99
