35
Properties=species:S:1:pos:R:3:Z:I:1 energy=-304.7519356424962 field_type=dipole dipole="0.000000 0.000000 0.000000" charge=0
C	-1.373682	-0.000998	0.966272	6
C	0.117058	-0.007938	0.668172	6
O	0.449808	-1.203828	-0.079618	8
C	1.039528	-0.652618	-1.190789	6
C	1.048218	0.663822	-1.176978	6
O	0.465888	1.198932	-0.054228	8
H	-1.652572	0.887362	1.541192	1
H	-1.665662	-0.899358	1.518692	1
H	-1.953142	0.014932	0.036412	1
H	0.689648	-0.021588	1.604012	1
H	1.408398	-1.339438	-1.930658	1
H	1.426508	1.360722	-1.902478	1
Es	0.765990	0.009550	-1.383451	99
Es	0.512517	-0.017333	1.310525	99
Es	-1.756120	0.009713	0.333729	99
Es	1.039424	-0.652842	-1.190599	99
Es	1.302425	1.131588	-1.663752	99
Es	-1.373653	-0.000998	0.966274	99
Es	1.371647	0.002181	-1.068257	99
Es	1.048122	0.664039	-1.176782	99
Es	0.666807	-1.340534	0.066266	99
Es	0.449867	-1.203473	-0.079709	99
Es	-1.551764	0.599619	1.360282	99
Es	0.340398	0.731970	0.201846	99
Es	1.287535	-1.113564	-1.687357	99
Es	0.678294	-0.986662	-0.503455	99
Es	0.117154	-0.007936	0.667851	99
Es	-1.560519	-0.608646	1.345111	99
Es	0.465948	1.198616	-0.054332	99
Es	0.691130	0.987387	-0.482348	99
Es	0.212303	1.321289	-0.150833	99
Es	0.331324	-0.740548	0.186344	99
Es	0.685321	1.329677	0.094603	99
Es	-0.635316	-0.004409	0.816218	99
Es	0.194175	-1.320524	-0.178354	99
35
Properties=species:S:1:pos:R:3:Z:I:1 energy=-304.7519356424962 field_type=dipole dipole="0.000000 0.000000 0.000000" charge=0
C	-1.373682	-0.000998	0.966272	6
C	0.117058	-0.007938	0.668172	6
O	0.449808	-1.203828	-0.079618	8
C	1.039528	-0.652618	-1.190789	6
C	1.048218	0.663822	-1.176978	6
O	0.465888	1.198932	-0.054228	8
H	-1.652572	0.887362	1.541192	1
H	-1.665662	-0.899358	1.518692	1
H	-1.953142	0.014932	0.036412	1
H	0.689648	-0.021588	1.604012	1
H	1.408398	-1.339438	-1.930658	1
H	1.426508	1.360722	-1.902478	1
Es	0.342141	0.730901	0.205242	99
Es	0.767211	0.009511	-1.381082	99
Es	0.216320	1.312494	-0.150724	99
Es	0.678653	-0.988331	-0.504311	99
Es	0.465974	1.198556	-0.054327	99
Es	1.287944	-1.113728	-1.688349	99
Es	0.199406	-1.314741	-0.179763	99
Es	0.663462	-1.346491	0.066323	99
Es	-1.560744	-0.611723	1.344780	99
Es	1.048120	0.664044	-1.176781	99
Es	-0.637376	-0.004362	0.815616	99
Es	-1.551993	0.602746	1.359982	99
Es	0.681174	1.338201	0.093396	99
Es	0.689741	0.989768	-0.484909	99
Es	-1.752719	0.009625	0.335340	99
Es	0.329346	-0.739770	0.188317	99
Es	0.449765	-1.203417	-0.079796	99
Es	-1.373655	-0.000998	0.966274	99
Es	0.511717	-0.017335	1.310202	99
Es	1.039427	-0.652845	-1.190596	99
Es	1.369060	0.002205	-1.068063	99
Es	1.302874	1.131788	-1.664802	99
Es	0.117159	-0.007935	0.667852	99
35
Properties=species:S:1:pos:R:3:Z:I:1 energy=-304.7519356424962 field_type=dipole dipole="0.000000 0.000000 0.000000" charge=0
C	-1.373682	-0.000998	0.966272	6
C	0.117058	-0.007938	0.668172	6
O	0.449808	-1.203828	-0.079618	8
C	1.039528	-0.652618	-1.190789	6
C	1.048218	0.663822	-1.176978	6
O	0.465888	1.198932	-0.054228	8
H	-1.652572	0.887362	1.541192	1
H	-1.665662	-0.899358	1.518692	1
H	-1.953142	0.014932	0.036412	1
H	0.689648	-0.021588	1.604012	1
H	1.408398	-1.339438	-1.930658	1
H	1.426508	1.360722	-1.902478	1
Es	0.767414	0.009509	-1.380367	99
Es	1.367979	0.002198	-1.067959	99
Es	0.511244	-0.017324	1.309702	99
Es	-1.373654	-0.000998	0.966274	99
Es	0.214701	-1.269046	-0.194222	99
Es	1.039428	-0.652848	-1.190593	99
Es	1.303220	1.131882	-1.664977	99
Es	0.332631	-0.739042	0.191126	99
Es	1.288352	-1.113824	-1.688468	99
Es	0.652200	1.384785	0.103569	99
Es	-0.638400	-0.004398	0.815071	99
Es	0.636806	-1.391050	0.074077	99
Es	0.233085	1.265236	-0.168467	99
Es	0.343635	0.730241	0.207112	99
Es	0.450009	-1.203461	-0.079711	99
Es	1.048122	0.664050	-1.176776	99
Es	-1.561126	-0.613412	1.344240	99
Es	0.466141	1.198524	-0.054282	99
Es	0.686618	-0.990702	-0.500683	99
Es	-1.552228	0.604441	1.359549	99
Es	-1.750722	0.009656	0.337205	99
Es	0.117151	-0.007935	0.667855	99
Es	0.700404	0.991680	-0.479456	99
35
Properties=species:S:1:pos:R:3:Z:I:1 energy=-304.7519356424962 field_type=dipole dipole="0.000000 0.000000 0.000000" charge=0
C	-1.373682	-0.000998	0.966272	6
C	0.117058	-0.007938	0.668172	6
O	0.449808	-1.203828	-0.079618	8
C	1.039528	-0.652618	-1.190789	6
C	1.048218	0.663822	-1.176978	6
O	0.465888	1.198932	-0.054228	8
H	-1.652572	0.887362	1.541192	1
H	-1.665662	-0.899358	1.518692	1
H	-1.953142	0.014932	0.036412	1
H	0.689648	-0.021588	1.604012	1
H	1.408398	-1.339438	-1.930658	1
H	1.426508	1.360722	-1.902478	1
Es	0.768145	0.009522	-1.379045	99
Es	1.048117	0.664051	-1.176778	99
Es	0.449795	-1.203456	-0.079803	99
Es	0.672632	-1.252694	0.021253	99
Es	0.655591	-0.991857	-0.515437	99
Es	1.367682	0.002215	-1.067671	99
Es	0.339053	0.729919	0.205647	99
Es	0.321640	-0.738239	0.186736	99
Es	0.218413	1.358145	-0.127507	99
Es	-1.373652	-0.000998	0.966274	99
Es	1.288524	-1.113944	-1.688828	99
Es	-1.559634	-0.614873	1.344230	99
Es	0.690232	1.292738	0.073218	99
Es	0.117153	-0.007935	0.667850	99
Es	0.681442	0.991618	-0.488830	99
Es	1.039427	-0.652847	-1.190594	99
Es	0.221440	-1.407497	-0.122308	99
Es	0.466030	1.198562	-0.054300	99
Es	1.301560	1.131905	-1.666112	99
Es	-1.551340	0.605960	1.359691	99
Es	-0.640805	-0.004292	0.815199	99
Es	0.510790	-0.017273	1.310588	99
Es	-1.749225	0.009433	0.336348	99
35
Properties=species:S:1:pos:R:3:Z:I:1 energy=-304.7519356424962 field_type=dipole dipole="0.000000 0.000000 0.000000" charge=0
C	-1.373682	-0.000998	0.966272	6
C	0.117058	-0.007938	0.668172	6
O	0.449808	-1.203828	-0.079618	8
C	1.039528	-0.652618	-1.190789	6
C	1.048218	0.663822	-1.176978	6
O	0.465888	1.198932	-0.054228	8
H	-1.652572	0.887362	1.541192	1
H	-1.665662	-0.899358	1.518692	1
H	-1.953142	0.014932	0.036412	1
H	0.689648	-0.021588	1.604012	1
H	1.408398	-1.339438	-1.930658	1
H	1.426508	1.360722	-1.902478	1
Es	1.039432	-0.652844	-1.190598	99
Es	1.288562	-1.113895	-1.688275	99
Es	0.466074	1.198563	-0.054312	99
Es	-0.639074	-0.004433	0.814805	99
Es	1.303408	1.132001	-1.664820	99
Es	-1.373651	-0.000998	0.966274	99
Es	0.510972	-0.017302	1.309152	99
Es	0.450040	-1.203433	-0.079677	99
Es	0.335890	-0.738366	0.192625	99
Es	1.048120	0.664048	-1.176778	99
Es	0.239284	-1.230818	-0.200443	99
Es	0.345911	0.729454	0.208515	99
Es	-1.748876	0.009619	0.339089	99
Es	1.367888	0.002195	-1.067530	99
Es	0.619880	1.421519	0.103891	99
Es	0.691640	-0.992334	-0.496576	99
Es	0.117151	-0.007936	0.667846	99
Es	0.604125	-1.428790	0.074304	99
Es	0.705215	0.993194	-0.475586	99
Es	0.766931	0.009498	-1.380192	99
Es	-1.552747	0.605713	1.358890	99
Es	-1.561719	-0.614651	1.343610	99
Es	0.258552	1.228157	-0.174393	99
35
Properties=species:S:1:pos:R:3:Z:I:1 energy=-304.7519356424962 field_type=dipole dipole="0.000000 0.000000 0.000000" charge=0
C	-1.373682	-0.000998	0.966272	6
C	0.117058	-0.007938	0.668172	6
O	0.449808	-1.203828	-0.079618	8
C	1.039528	-0.652618	-1.190789	6
C	1.048218	0.663822	-1.176978	6
O	0.465888	1.198932	-0.054228	8
H	-1.652572	0.887362	1.541192	1
H	-1.665662	-0.899358	1.518692	1
H	-1.953142	0.014932	0.036412	1
H	0.689648	-0.021588	1.604012	1
H	1.408398	-1.339438	-1.930658	1
H	1.426508	1.360722	-1.902478	1
Es	1.288487	-1.113984	-1.688253	99
Es	0.695779	-0.993104	-0.493181	99
Es	1.048116	0.664050	-1.176779	99
Es	0.117153	-0.007935	0.667848	99
Es	0.253317	-1.215574	-0.202270	99
Es	0.585561	-1.443727	0.072083	99
Es	1.367964	0.002196	-1.067331	99
Es	1.039424	-0.652847	-1.190596	99
Es	-1.552732	0.605893	1.358907	99
Es	0.336161	-0.738088	0.193188	99
Es	0.465934	1.198688	-0.054298	99
Es	0.510928	-0.017310	1.309204	99
Es	-1.373653	-0.000998	0.966274	99
Es	1.303509	1.131965	-1.664636	99
Es	0.707543	0.993720	-0.473048	99
Es	-1.748806	0.009532	0.339156	99
Es	0.262402	1.223105	-0.176609	99
Es	0.345783	0.728987	0.207866	99
Es	-1.561551	-0.614748	1.343585	99
Es	0.450257	-1.203298	-0.079745	99
Es	0.766596	0.009510	-1.380299	99
Es	-0.639271	-0.004415	0.814659	99
Es	0.614106	1.426543	0.104096	99
35
Properties=species:S:1:pos:R:3:Z:I:1 energy=-304.7519356424962 field_type=dipole dipole="0.000000 0.000000 0.000000" charge=0
C	-1.373682	-0.000998	0.966272	6
C	0.117058	-0.007938	0.668172	6
O	0.449808	-1.203828	-0.079618	8
C	1.039528	-0.652618	-1.190789	6
C	1.048218	0.663822	-1.176978	6
O	0.465888	1.198932	-0.054228	8
H	-1.652572	0.887362	1.541192	1
H	-1.665662	-0.899358	1.518692	1
H	-1.953142	0.014932	0.036412	1
H	0.689648	-0.021588	1.604012	1
H	1.408398	-1.339438	-1.930658	1
H	1.426508	1.360722	-1.902478	1
Es	-1.552895	0.605993	1.358866	99
Es	-0.639295	-0.004398	0.814920	99
Es	0.465970	1.198555	-0.054346	99
Es	0.695872	-0.993509	-0.493237	99
Es	0.260817	-1.209769	-0.201238	99
Es	0.266554	1.218443	-0.176164	99
Es	0.335780	-0.737733	0.192876	99
Es	1.368165	0.002200	-1.067128	99
Es	0.117152	-0.007935	0.667847	99
Es	0.510976	-0.017313	1.308988	99
Es	-1.373653	-0.000998	0.966273	99
Es	0.347029	0.728403	0.207904	99
Es	-1.561725	-0.614878	1.343377	99
Es	1.048122	0.664047	-1.176779	99
Es	1.288463	-1.114037	-1.688120	99
Es	0.706661	0.994080	-0.472520	99
Es	0.609593	1.431632	0.103061	99
Es	1.303574	1.131982	-1.664422	99
Es	0.450155	-1.203403	-0.079643	99
Es	1.039428	-0.652845	-1.190596	99
Es	-1.748484	0.009574	0.339334	99
Es	0.578427	-1.449449	0.071115	99
Es	0.766321	0.009520	-1.380548	99
35
Properties=species:S:1:pos:R:3:Z:I:1 energy=-304.7519356424962 field_type=dipole dipole="0.000000 0.000000 0.000000" charge=0
C	-1.373682	-0.000998	0.966272	6
C	0.117058	-0.007938	0.668172	6
O	0.449808	-1.203828	-0.079618	8
C	1.039528	-0.652618	-1.190789	6
C	1.048218	0.663822	-1.176978	6
O	0.465888	1.198932	-0.054228	8
H	-1.652572	0.887362	1.541192	1
H	-1.665662	-0.899358	1.518692	1
H	-1.953142	0.014932	0.036412	1
H	0.689648	-0.021588	1.604012	1
H	1.408398	-1.339438	-1.930658	1
H	1.426508	1.360722	-1.902478	1
Es	1.303437	1.132024	-1.664373	99
Es	-1.552917	0.606038	1.358758	99
Es	0.697098	-0.993844	-0.490593	99
Es	-1.561729	-0.614904	1.343446	99
Es	-0.639323	-0.004399	0.814892	99
Es	0.264319	-1.205037	-0.202545	99
Es	0.117153	-0.007936	0.667849	99
Es	0.272499	1.212772	-0.176676	99
Es	1.288543	-1.114027	-1.687975	99
Es	0.510973	-0.017293	1.309103	99
Es	0.708263	0.994119	-0.471420	99
Es	-1.373652	-0.000998	0.966274	99
Es	0.602215	1.437303	0.102139	99
Es	-1.748404	0.009531	0.339280	99
Es	0.346569	0.728451	0.207982	99
Es	1.039429	-0.652846	-1.190597	99
Es	0.572609	-1.454253	0.069686	99
Es	0.337152	-0.737346	0.192959	99
Es	0.766011	0.009513	-1.380592	99
Es	1.048120	0.664048	-1.176780	99
Es	0.449993	-1.203438	-0.079676	99
Es	0.466251	1.198490	-0.054282	99
Es	1.368399	0.002195	-1.067039	99
35
Properties=species:S:1:pos:R:3:Z:I:1 energy=-304.7519356424962 field_type=dipole dipole="0.000000 0.000000 0.000000" charge=0
C	-1.373682	-0.000998	0.966272	6
C	0.117058	-0.007938	0.668172	6
O	0.449808	-1.203828	-0.079618	8
C	1.039528	-0.652618	-1.190789	6
C	1.048218	0.663822	-1.176978	6
O	0.465888	1.198932	-0.054228	8
H	-1.652572	0.887362	1.541192	1
H	-1.665662	-0.899358	1.518692	1
H	-1.953142	0.014932	0.036412	1
H	0.689648	-0.021588	1.604012	1
H	1.408398	-1.339438	-1.930658	1
H	1.426508	1.360722	-1.902478	1
Es	-1.749324	0.010165	0.335468	99
Es	0.465682	1.198450	-0.054599	99
Es	1.369545	0.002023	-1.066693	99
Es	-0.641588	-0.004167	0.815091	99
Es	0.766438	0.009470	-1.379902	99
Es	-1.549921	0.605638	1.359221	99
Es	-1.373653	-0.000998	0.966274	99
Es	-1.559698	-0.615416	1.345133	99
Es	1.048120	0.664047	-1.176781	99
Es	0.622639	1.170393	-0.023616	99
Es	0.117154	-0.007934	0.667847	99
Es	0.332108	0.727355	0.204365	99
Es	0.681080	-1.275669	0.032984	99
Es	0.449755	-1.203426	-0.079836	99
Es	1.302616	1.132492	-1.665177	99
Es	0.656517	-0.990515	-0.509869	99
Es	0.322184	1.477478	-0.020718	99
Es	0.510722	-0.017434	1.311178	99
Es	0.205006	-1.387326	-0.138708	99
Es	0.653550	0.997353	-0.498227	99
Es	0.328362	-0.737362	0.185447	99
Es	1.286284	-1.113613	-1.688467	99
Es	1.039432	-0.652843	-1.190597	99
35
Properties=species:S:1:pos:R:3:Z:I:1 energy=-304.7519356424962 field_type=dipole dipole="0.000000 0.000000 0.000000" charge=0
C	-1.373682	-0.000998	0.966272	6
C	0.117058	-0.007938	0.668172	6
O	0.449808	-1.203828	-0.079618	8
C	1.039528	-0.652618	-1.190789	6
C	1.048218	0.663822	-1.176978	6
O	0.465888	1.198932	-0.054228	8
H	-1.652572	0.887362	1.541192	1
H	-1.665662	-0.899358	1.518692	1
H	-1.953142	0.014932	0.036412	1
H	0.689648	-0.021588	1.604012	1
H	1.408398	-1.339438	-1.930658	1
H	1.426508	1.360722	-1.902478	1
Es	0.707817	0.994387	-0.471215	99
Es	0.336480	-0.737073	0.192289	99
Es	0.574483	-1.454062	0.070010	99
Es	1.303514	1.132131	-1.664334	99
Es	0.280096	1.205963	-0.175394	99
Es	-1.561931	-0.615406	1.343271	99
Es	0.347698	0.728190	0.208198	99
Es	-1.747731	0.009580	0.339943	99
Es	-1.373653	-0.000998	0.966275	99
Es	1.288516	-1.113970	-1.687919	99
Es	1.368389	0.002192	-1.066827	99
Es	0.765859	0.009511	-1.380536	99
Es	0.510851	-0.017303	1.308881	99
Es	0.263662	-1.205901	-0.203293	99
Es	0.117154	-0.007935	0.667847	99
Es	0.450076	-1.203423	-0.079673	99
Es	1.039429	-0.652846	-1.190597	99
Es	-0.639784	-0.004454	0.814815	99
Es	0.466192	1.198504	-0.054296	99
Es	0.696539	-0.993698	-0.489625	99
Es	0.594111	1.444190	0.100313	99
Es	-1.552877	0.606536	1.358465	99
Es	1.048120	0.664048	-1.176779	99
35
Properties=species:S:1:pos:R:3:Z:I:1 energy=-304.7519356424962 field_type=dipole dipole="0.000000 0.000000 0.000000" charge=0
C	-1.373682	-0.000998	0.966272	6
C	0.117058	-0.007938	0.668172	6
O	0.449808	-1.203828	-0.079618	8
C	1.039528	-0.652618	-1.190789	6
C	1.048218	0.663822	-1.176978	6
O	0.465888	1.198932	-0.054228	8
H	-1.652572	0.887362	1.541192	1
H	-1.665662	-0.899358	1.518692	1
H	-1.953142	0.014932	0.036412	1
H	0.689648	-0.021588	1.604012	1
H	1.408398	-1.339438	-1.930658	1
H	1.426508	1.360722	-1.902478	1
Es	-1.560463	-0.613717	1.343172	99
Es	0.346748	0.728603	0.201440	99
Es	0.434437	-1.176789	-0.112420	99
Es	1.370445	0.002326	-1.066444	99
Es	0.465999	1.198585	-0.054299	99
Es	0.217854	1.283629	-0.168207	99
Es	1.302170	1.131444	-1.663574	99
Es	0.423637	-1.183617	-0.111503	99
Es	-0.639555	-0.004864	0.815062	99
Es	1.288057	-1.114745	-1.688006	99
Es	0.671184	1.369330	0.102914	99
Es	0.679759	-0.995841	-0.506108	99
Es	1.039425	-0.652844	-1.190599	99
Es	0.511196	-0.017217	1.309932	99
Es	0.329758	-0.735031	0.193223	99
Es	-1.373654	-0.000998	0.966274	99
Es	-1.552451	0.605937	1.360251	99
Es	0.693859	0.991382	-0.473963	99
Es	0.454074	-1.502201	0.025528	99
Es	0.117152	-0.007935	0.667848	99
Es	0.764851	0.009637	-1.381168	99
Es	-1.749592	0.009037	0.337250	99
Es	1.048118	0.664047	-1.176781	99
35
Properties=species:S:1:pos:R:3:Z:I:1 energy=-304.7519356424962 field_type=dipole dipole="0.000000 0.000000 0.000000" charge=0
C	-1.373682	-0.000998	0.966272	6
C	0.117058	-0.007938	0.668172	6
O	0.449808	-1.203828	-0.079618	8
C	1.039528	-0.652618	-1.190789	6
C	1.048218	0.663822	-1.176978	6
O	0.465888	1.198932	-0.054228	8
H	-1.652572	0.887362	1.541192	1
H	-1.665662	-0.899358	1.518692	1
H	-1.953142	0.014932	0.036412	1
H	0.689648	-0.021588	1.604012	1
H	1.408398	-1.339438	-1.930658	1
H	1.426508	1.360722	-1.902478	1
Es	0.117152	-0.007935	0.667844	99
Es	0.510812	-0.017295	1.309023	99
Es	0.765511	0.009509	-1.380514	99
Es	-1.373654	-0.000998	0.966274	99
Es	1.368680	0.002182	-1.066695	99
Es	0.282842	1.203926	-0.177271	99
Es	1.048125	0.664049	-1.176776	99
Es	0.450041	-1.203430	-0.079672	99
Es	0.269580	-1.201010	-0.202523	99
Es	1.288514	-1.114074	-1.687783	99
Es	0.346316	0.727749	0.207639	99
Es	1.303331	1.132066	-1.664322	99
Es	0.590558	1.446470	0.099951	99
Es	0.337134	-0.736577	0.192287	99
Es	-1.561831	-0.615545	1.343120	99
Es	0.709977	0.994770	-0.468619	99
Es	-0.639848	-0.004395	0.814813	99
Es	0.696873	-0.994274	-0.488929	99
Es	1.039426	-0.652849	-1.190594	99
Es	0.466303	1.198494	-0.054244	99
Es	0.567667	-1.458874	0.068372	99
Es	-1.552885	0.606557	1.358593	99
Es	-1.747614	0.009645	0.339845	99
35
Properties=species:S:1:pos:R:3:Z:I:1 energy=-304.7519356424962 field_type=dipole dipole="0.000000 0.000000 0.000000" charge=0
C	-1.373682	-0.000998	0.966272	6
C	0.117058	-0.007938	0.668172	6
O	0.449808	-1.203828	-0.079618	8
C	1.039528	-0.652618	-1.190789	6
C	1.048218	0.663822	-1.176978	6
O	0.465888	1.198932	-0.054228	8
H	-1.652572	0.887362	1.541192	1
H	-1.665662	-0.899358	1.518692	1
H	-1.953142	0.014932	0.036412	1
H	0.689648	-0.021588	1.604012	1
H	1.408398	-1.339438	-1.930658	1
H	1.426508	1.360722	-1.902478	1
Es	0.701143	1.277550	0.067972	99
Es	0.765796	0.009577	-1.380114	99
Es	0.219128	1.375442	-0.119071	99
Es	-1.558643	-0.614754	1.343592	99
Es	1.287509	-1.114786	-1.688717	99
Es	0.334333	-1.494321	-0.034601	99
Es	0.117154	-0.007935	0.667850	99
Es	0.337535	0.728584	0.199528	99
Es	-1.551005	0.606955	1.360477	99
Es	0.324604	-0.734803	0.190193	99
Es	1.039429	-0.652846	-1.190595	99
Es	0.569054	-1.165594	-0.069390	99
Es	0.671781	0.991760	-0.486184	99
Es	-1.748894	0.008829	0.335857	99
Es	-0.642034	-0.004688	0.815166	99
Es	1.048122	0.664050	-1.176777	99
Es	0.510762	-0.017196	1.310904	99
Es	0.465891	1.198556	-0.054390	99
Es	0.644344	-0.995797	-0.517299	99
Es	1.369951	0.002363	-1.066285	99
Es	0.449387	-1.203232	-0.080169	99
Es	-1.373654	-0.000998	0.966274	99
Es	1.301315	1.131446	-1.664401	99
35
Properties=species:S:1:pos:R:3:Z:I:1 energy=-304.7519356424962 field_type=dipole dipole="0.000000 0.000000 0.000000" charge=0
C	-1.373682	-0.000998	0.966272	6
C	0.117058	-0.007938	0.668172	6
O	0.449808	-1.203828	-0.079618	8
C	1.039528	-0.652618	-1.190789	6
C	1.048218	0.663822	-1.176978	6
O	0.465888	1.198932	-0.054228	8
H	-1.652572	0.887362	1.541192	1
H	-1.665662	-0.899358	1.518692	1
H	-1.953142	0.014932	0.036412	1
H	0.689648	-0.021588	1.604012	1
H	1.408398	-1.339438	-1.930658	1
H	1.426508	1.360722	-1.902478	1
Es	0.709348	0.995319	-0.467837	99
Es	0.449981	-1.203466	-0.079688	99
Es	0.587907	1.449008	0.099062	99
Es	1.303435	1.132118	-1.664218	99
Es	1.368725	0.002192	-1.066533	99
Es	0.347981	0.727108	0.207542	99
Es	0.566606	-1.459997	0.067803	99
Es	0.337319	-0.736488	0.192332	99
Es	-1.552901	0.606759	1.358428	99
Es	-1.373653	-0.000998	0.966273	99
Es	-1.747419	0.009629	0.340328	99
Es	-1.561941	-0.615711	1.343067	99
Es	0.510788	-0.017294	1.308835	99
Es	0.765473	0.009510	-1.380575	99
Es	0.284781	1.201442	-0.177024	99
Es	-0.639946	-0.004392	0.814665	99
Es	1.048121	0.664048	-1.176779	99
Es	0.117150	-0.007934	0.667849	99
Es	1.039430	-0.652847	-1.190593	99
Es	0.466042	1.198546	-0.054326	99
Es	0.271321	-1.200010	-0.201665	99
Es	1.288390	-1.114207	-1.687771	99
Es	0.696068	-0.994171	-0.489353	99
35
Properties=species:S:1:pos:R:3:Z:I:1 energy=-304.7519356424962 field_type=dipole dipole="0.000000 0.000000 0.000000" charge=0
C	-1.373682	-0.000998	0.966272	6
C	0.117058	-0.007938	0.668172	6
O	0.449808	-1.203828	-0.079618	8
C	1.039528	-0.652618	-1.190789	6
C	1.048218	0.663822	-1.176978	6
O	0.465888	1.198932	-0.054228	8
H	-1.652572	0.887362	1.541192	1
H	-1.665662	-0.899358	1.518692	1
H	-1.953142	0.014932	0.036412	1
H	0.689648	-0.021588	1.604012	1
H	1.408398	-1.339438	-1.930658	1
H	1.426508	1.360722	-1.902478	1
Es	0.573453	1.458215	0.095427	99
Es	-1.747321	0.009658	0.340478	99
Es	0.765517	0.009486	-1.380444	99
Es	0.694172	-0.993815	-0.489608	99
Es	-0.640131	-0.004325	0.814492	99
Es	1.288353	-1.114060	-1.687717	99
Es	1.368744	0.002165	-1.066526	99
Es	0.299706	1.192172	-0.174200	99
Es	1.039426	-0.652848	-1.190595	99
Es	-1.561935	-0.615915	1.343268	99
Es	0.710317	0.995496	-0.467425	99
Es	0.580141	-1.451550	0.070540	99
Es	0.510772	-0.017302	1.308908	99
Es	1.048124	0.664048	-1.176778	99
Es	0.466067	1.198536	-0.054304	99
Es	-1.552793	0.606815	1.358168	99
Es	-1.373653	-0.000998	0.966274	99
Es	0.258428	-1.208932	-0.203542	99
Es	0.338554	-0.736505	0.191851	99
Es	0.117152	-0.007935	0.667852	99
Es	0.346491	0.726846	0.207699	99
Es	0.449986	-1.203441	-0.079682	99
Es	1.303438	1.132351	-1.664318	99
35
Properties=species:S:1:pos:R:3:Z:I:1 energy=-304.7519356424962 field_type=dipole dipole="0.000000 0.000000 0.000000" charge=0
C	-1.373682	-0.000998	0.966272	6
C	0.117058	-0.007938	0.668172	6
O	0.449808	-1.203828	-0.079618	8
C	1.039528	-0.652618	-1.190789	6
C	1.048218	0.663822	-1.176978	6
O	0.465888	1.198932	-0.054228	8
H	-1.652572	0.887362	1.541192	1
H	-1.665662	-0.899358	1.518692	1
H	-1.953142	0.014932	0.036412	1
H	0.689648	-0.021588	1.604012	1
H	1.408398	-1.339438	-1.930658	1
H	1.426508	1.360722	-1.902478	1
Es	-1.561966	-0.615884	1.343265	99
Es	0.449992	-1.203435	-0.079687	99
Es	1.368803	0.002175	-1.066480	99
Es	0.337571	-0.736139	0.191404	99
Es	0.578907	-1.452687	0.070419	99
Es	1.048120	0.664048	-1.176779	99
Es	0.572134	1.459108	0.094968	99
Es	0.466081	1.198541	-0.054317	99
Es	0.260822	-1.208022	-0.203173	99
Es	0.346405	0.726835	0.207781	99
Es	0.765266	0.009480	-1.380549	99
Es	1.039430	-0.652846	-1.190597	99
Es	0.300576	1.191327	-0.174715	99
Es	0.117154	-0.007935	0.667847	99
Es	1.303592	1.132262	-1.664207	99
Es	-1.747452	0.009798	0.340219	99
Es	0.510768	-0.017329	1.308817	99
Es	-1.373654	-0.000998	0.966275	99
Es	0.711028	0.995589	-0.466475	99
Es	0.693982	-0.994056	-0.489492	99
Es	-0.640172	-0.004365	0.814678	99
Es	1.288210	-1.114006	-1.687699	99
Es	-1.552590	0.606701	1.358315	99
35
Properties=species:S:1:pos:R:3:Z:I:1 energy=-304.7519356424962 field_type=dipole dipole="0.000000 0.000000 0.000000" charge=0
C	-1.373682	-0.000998	0.966272	6
C	0.117058	-0.007938	0.668172	6
O	0.449808	-1.203828	-0.079618	8
C	1.039528	-0.652618	-1.190789	6
C	1.048218	0.663822	-1.176978	6
O	0.465888	1.198932	-0.054228	8
H	-1.652572	0.887362	1.541192	1
H	-1.665662	-0.899358	1.518692	1
H	-1.953142	0.014932	0.036412	1
H	0.689648	-0.021588	1.604012	1
H	1.408398	-1.339438	-1.930658	1
H	1.426508	1.360722	-1.902478	1
Es	0.701634	1.275391	0.067322	99
Es	0.340296	-1.496613	-0.031803	99
Es	0.465723	1.198473	-0.054582	99
Es	-1.551034	0.607381	1.360502	99
Es	0.671119	0.992130	-0.485910	99
Es	0.449644	-1.203299	-0.080037	99
Es	0.337292	0.728356	0.198701	99
Es	-1.748201	0.008995	0.336471	99
Es	0.641605	-0.995853	-0.516616	99
Es	1.048127	0.664046	-1.176781	99
Es	-1.558763	-0.615297	1.343090	99
Es	0.510620	-0.017214	1.310837	99
Es	0.765785	0.009583	-1.379981	99
Es	0.117154	-0.007936	0.667848	99
Es	1.287282	-1.114888	-1.688934	99
Es	0.326249	-0.734319	0.190599	99
Es	-0.642395	-0.004695	0.815042	99
Es	1.039432	-0.652848	-1.190591	99
Es	-1.373655	-0.000998	0.966274	99
Es	0.219850	1.377725	-0.117657	99
Es	1.369723	0.002373	-1.066121	99
Es	0.563829	-1.163752	-0.073683	99
Es	1.301692	1.131421	-1.664168	99
35
Properties=species:S:1:pos:R:3:Z:I:1 energy=-304.7519356424962 field_type=dipole dipole="0.000000 0.000000 0.000000" charge=0
C	-1.373682	-0.000998	0.966272	6
C	0.117058	-0.007938	0.668172	6
O	0.449808	-1.203828	-0.079618	8
C	1.039528	-0.652618	-1.190789	6
C	1.048218	0.663822	-1.176978	6
O	0.465888	1.198932	-0.054228	8
H	-1.652572	0.887362	1.541192	1
H	-1.665662	-0.899358	1.518692	1
H	-1.953142	0.014932	0.036412	1
H	0.689648	-0.021588	1.604012	1
H	1.408398	-1.339438	-1.930658	1
H	1.426508	1.360722	-1.902478	1
Es	1.369035	0.002185	-1.066404	99
Es	0.337231	-0.735986	0.191781	99
Es	-1.552832	0.606982	1.358262	99
Es	-0.640232	-0.004420	0.814582	99
Es	1.303281	1.132202	-1.664150	99
Es	-1.561733	-0.615769	1.343252	99
Es	0.765188	0.009515	-1.380589	99
Es	0.696309	-0.994284	-0.487287	99
Es	0.117153	-0.007935	0.667848	99
Es	0.564690	-1.462120	0.067119	99
Es	0.291302	1.197961	-0.176345	99
Es	1.048121	0.664049	-1.176779	99
Es	0.449835	-1.203434	-0.079748	99
Es	-1.747340	0.009447	0.340298	99
Es	0.582704	1.452885	0.097855	99
Es	0.273329	-1.198386	-0.202537	99
Es	0.346592	0.726896	0.207169	99
Es	0.510748	-0.017305	1.308904	99
Es	1.039426	-0.652847	-1.190596	99
Es	-1.373653	-0.000998	0.966274	99
Es	0.465638	1.198472	-0.054574	99
Es	1.288348	-1.114200	-1.687649	99
Es	0.709868	0.995250	-0.466868	99
35
Properties=species:S:1:pos:R:3:Z:I:1 energy=-304.7519356424962 field_type=dipole dipole="0.000000 0.000000 0.000000" charge=0
C	-1.373682	-0.000998	0.966272	6
C	0.117058	-0.007938	0.668172	6
O	0.449808	-1.203828	-0.079618	8
C	1.039528	-0.652618	-1.190789	6
C	1.048218	0.663822	-1.176978	6
O	0.465888	1.198932	-0.054228	8
H	-1.652572	0.887362	1.541192	1
H	-1.665662	-0.899358	1.518692	1
H	-1.953142	0.014932	0.036412	1
H	0.689648	-0.021588	1.604012	1
H	1.408398	-1.339438	-1.930658	1
H	1.426508	1.360722	-1.902478	1
Es	0.284521	1.201346	-0.177374	99
Es	0.510796	-0.017331	1.308832	99
Es	-1.373653	-0.000998	0.966274	99
Es	0.117154	-0.007935	0.667845	99
Es	0.708586	0.995487	-0.467083	99
Es	0.280823	-1.193512	-0.200098	99
Es	-1.553133	0.606993	1.358288	99
Es	1.048123	0.664050	-1.176776	99
Es	1.288485	-1.114250	-1.687587	99
Es	1.039431	-0.652847	-1.190593	99
Es	-0.640086	-0.004371	0.814759	99
Es	0.348338	0.726648	0.206819	99
Es	0.450076	-1.203425	-0.079695	99
Es	0.696234	-0.994697	-0.488041	99
Es	0.765034	0.009532	-1.380604	99
Es	0.337511	-0.735818	0.192314	99
Es	0.556758	-1.466731	0.064721	99
Es	-1.561866	-0.615777	1.342998	99
Es	0.466180	1.198520	-0.054319	99
Es	1.369094	0.002183	-1.066405	99
Es	-1.747115	0.009445	0.340420	99
Es	0.588454	1.449548	0.099205	99
Es	1.303264	1.132103	-1.664081	99
35
Properties=species:S:1:pos:R:3:Z:I:1 energy=-304.7519356424962 field_type=dipole dipole="0.000000 0.000000 0.000000" charge=0
C	-1.373682	-0.000998	0.966272	6
C	0.117058	-0.007938	0.668172	6
O	0.449808	-1.203828	-0.079618	8
C	1.039528	-0.652618	-1.190789	6
C	1.048218	0.663822	-1.176978	6
O	0.465888	1.198932	-0.054228	8
H	-1.652572	0.887362	1.541192	1
H	-1.665662	-0.899358	1.518692	1
H	-1.953142	0.014932	0.036412	1
H	0.689648	-0.021588	1.604012	1
H	1.408398	-1.339438	-1.930658	1
H	1.426508	1.360722	-1.902478	1
Es	0.326564	-0.735125	0.189967	99
Es	0.333884	0.727790	0.199063	99
Es	0.117152	-0.007935	0.667851	99
Es	0.632309	-0.994857	-0.516976	99
Es	1.048119	0.664048	-1.176780	99
Es	0.692219	1.228457	0.035786	99
Es	-0.643071	-0.004591	0.814866	99
Es	0.658548	0.993807	-0.490655	99
Es	-1.748835	0.009309	0.335325	99
Es	0.465766	1.198504	-0.054525	99
Es	0.612736	-1.178863	-0.050553	99
Es	1.370232	0.002279	-1.066049	99
Es	1.301852	1.131756	-1.664293	99
Es	1.286260	-1.114586	-1.689002	99
Es	-1.549807	0.607015	1.360464	99
Es	0.449628	-1.203363	-0.079943	99
Es	-1.558256	-0.615392	1.343942	99
Es	0.765714	0.009543	-1.379918	99
Es	1.039426	-0.652847	-1.190592	99
Es	0.510476	-0.017297	1.311463	99
Es	-1.373654	-0.000998	0.966274	99
Es	0.245577	1.423311	-0.082073	99
Es	0.300170	-1.481803	-0.053821	99
35
Properties=species:S:1:pos:R:3:Z:I:1 energy=-304.7519356424962 field_type=dipole dipole="0.000000 0.000000 0.000000" charge=0
C	-1.373682	-0.000998	0.966272	6
C	0.117058	-0.007938	0.668172	6
O	0.449808	-1.203828	-0.079618	8
C	1.039528	-0.652618	-1.190789	6
C	1.048218	0.663822	-1.176978	6
O	0.465888	1.198932	-0.054228	8
H	-1.652572	0.887362	1.541192	1
H	-1.665662	-0.899358	1.518692	1
H	-1.953142	0.014932	0.036412	1
H	0.689648	-0.021588	1.604012	1
H	1.408398	-1.339438	-1.930658	1
H	1.426508	1.360722	-1.902478	1
Es	0.349058	0.726643	0.206872	99
Es	1.288426	-1.114226	-1.687560	99
Es	-1.747407	0.009494	0.340100	99
Es	0.286499	1.198468	-0.178510	99
Es	-1.552955	0.606839	1.358463	99
Es	0.697385	-0.995327	-0.486859	99
Es	0.510798	-0.017286	1.308955	99
Es	0.450152	-1.203248	-0.079821	99
Es	0.553741	-1.468088	0.064469	99
Es	1.039422	-0.652847	-1.190598	99
Es	0.583925	1.452163	0.098555	99
Es	-1.373653	-0.000998	0.966275	99
Es	1.303240	1.132182	-1.663994	99
Es	1.369213	0.002179	-1.066333	99
Es	1.048124	0.664048	-1.176778	99
Es	-0.640114	-0.004377	0.814688	99
Es	0.281720	-1.192005	-0.200650	99
Es	0.466232	1.198495	-0.054279	99
Es	-1.561718	-0.615681	1.343095	99
Es	0.764899	0.009535	-1.380723	99
Es	0.710352	0.995682	-0.465487	99
Es	0.338519	-0.735549	0.192093	99
Es	0.117154	-0.007935	0.667848	99
35
Properties=species:S:1:pos:R:3:Z:I:1 energy=-304.7519356424962 field_type=dipole dipole="0.000000 0.000000 0.000000" charge=0
C	-1.373682	-0.000998	0.966272	6
C	0.117058	-0.007938	0.668172	6
O	0.449808	-1.203828	-0.079618	8
C	1.039528	-0.652618	-1.190789	6
C	1.048218	0.663822	-1.176978	6
O	0.465888	1.198932	-0.054228	8
H	-1.652572	0.887362	1.541192	1
H	-1.665662	-0.899358	1.518692	1
H	-1.953142	0.014932	0.036412	1
H	0.689648	-0.021588	1.604012	1
H	1.408398	-1.339438	-1.930658	1
H	1.426508	1.360722	-1.902478	1
Es	0.336751	-0.735534	0.191078	99
Es	1.303277	1.132217	-1.664145	99
Es	1.369057	0.002173	-1.066349	99
Es	1.039428	-0.652847	-1.190595	99
Es	0.510756	-0.017314	1.308898	99
Es	-1.561856	-0.615903	1.343150	99
Es	-1.747164	0.009570	0.340340	99
Es	-1.552814	0.606991	1.358244	99
Es	0.295602	1.194303	-0.174489	99
Es	0.764968	0.009503	-1.380616	99
Es	0.563208	-1.462404	0.067605	99
Es	0.450158	-1.203395	-0.079625	99
Es	-1.373657	-0.000998	0.966273	99
Es	0.466119	1.198533	-0.054303	99
Es	0.117154	-0.007935	0.667849	99
Es	0.272952	-1.197949	-0.204685	99
Es	1.288452	-1.114161	-1.687500	99
Es	0.578379	1.456712	0.095952	99
Es	0.698360	-0.995023	-0.485084	99
Es	-0.640270	-0.004399	0.814662	99
Es	0.708000	0.995585	-0.467341	99
Es	1.048119	0.664049	-1.176779	99
Es	0.348030	0.726391	0.207280	99
35
Properties=species:S:1:pos:R:3:Z:I:1 energy=-304.7519356424962 field_type=dipole dipole="0.000000 0.000000 0.000000" charge=0
C	-1.373682	-0.000998	0.966272	6
C	0.117058	-0.007938	0.668172	6
O	0.449808	-1.203828	-0.079618	8
C	1.039528	-0.652618	-1.190789	6
C	1.048218	0.663822	-1.176978	6
O	0.465888	1.198932	-0.054228	8
H	-1.652572	0.887362	1.541192	1
H	-1.665662	-0.899358	1.518692	1
H	-1.953142	0.014932	0.036412	1
H	0.689648	-0.021588	1.604012	1
H	1.408398	-1.339438	-1.930658	1
H	1.426508	1.360722	-1.902478	1
Es	0.565409	-1.461967	0.067375	99
Es	1.369129	0.002167	-1.066342	99
Es	0.510726	-0.017313	1.308869	99
Es	1.303516	1.132329	-1.664006	99
Es	-1.552794	0.606906	1.358333	99
Es	1.048122	0.664048	-1.176777	99
Es	-1.561954	-0.615895	1.343065	99
Es	0.709802	0.995520	-0.465966	99
Es	0.450069	-1.203427	-0.079682	99
Es	0.271757	-1.198635	-0.203315	99
Es	-0.640138	-0.004437	0.814601	99
Es	-1.373654	-0.000998	0.966275	99
Es	0.117155	-0.007935	0.667846	99
Es	1.039426	-0.652847	-1.190596	99
Es	0.466140	1.198514	-0.054266	99
Es	0.764943	0.009515	-1.380571	99
Es	0.574716	1.458501	0.095037	99
Es	1.288162	-1.114140	-1.687613	99
Es	0.696057	-0.994890	-0.486407	99
Es	0.347911	0.726589	0.207714	99
Es	0.338141	-0.735413	0.191295	99
Es	-1.747229	0.009661	0.340404	99
Es	0.297597	1.192307	-0.175452	99
35
Properties=species:S:1:pos:R:3:Z:I:1 energy=-304.7519356424962 field_type=dipole dipole="0.000000 0.000000 0.000000" charge=0
C	-1.373682	-0.000998	0.966272	6
C	0.117058	-0.007938	0.668172	6
O	0.449808	-1.203828	-0.079618	8
C	1.039528	-0.652618	-1.190789	6
C	1.048218	0.663822	-1.176978	6
O	0.465888	1.198932	-0.054228	8
H	-1.652572	0.887362	1.541192	1
H	-1.665662	-0.899358	1.518692	1
H	-1.953142	0.014932	0.036412	1
H	0.689648	-0.021588	1.604012	1
H	1.408398	-1.339438	-1.930658	1
H	1.426508	1.360722	-1.902478	1
Es	0.466037	1.198547	-0.054316	99
Es	0.348263	0.726323	0.207030	99
Es	0.290446	1.197021	-0.176972	99
Es	0.764999	0.009521	-1.380555	99
Es	0.337464	-0.735076	0.191326	99
Es	0.510690	-0.017286	1.308778	99
Es	0.450247	-1.203381	-0.079621	99
Es	1.288403	-1.114206	-1.687609	99
Es	0.558909	-1.465135	0.066038	99
Es	-1.373654	-0.000998	0.966274	99
Es	-1.746892	0.009597	0.340568	99
Es	1.303285	1.132193	-1.664067	99
Es	0.117155	-0.007935	0.667848	99
Es	1.048122	0.664048	-1.176778	99
Es	-1.561807	-0.616150	1.342974	99
Es	0.697097	-0.995552	-0.486372	99
Es	-0.640538	-0.004328	0.814685	99
Es	1.369076	0.002185	-1.066284	99
Es	0.582233	1.453908	0.097325	99
Es	0.277747	-1.195205	-0.202171	99
Es	0.709175	0.995765	-0.465915	99
Es	1.039423	-0.652847	-1.190596	99
Es	-1.552868	0.607151	1.358231	99
35
Properties=species:S:1:pos:R:3:Z:I:1 energy=-304.7519356424962 field_type=dipole dipole="0.000000 0.000000 0.000000" charge=0
C	-1.373682	-0.000998	0.966272	6
C	0.117058	-0.007938	0.668172	6
O	0.449808	-1.203828	-0.079618	8
C	1.039528	-0.652618	-1.190789	6
C	1.048218	0.663822	-1.176978	6
O	0.465888	1.198932	-0.054228	8
H	-1.652572	0.887362	1.541192	1
H	-1.665662	-0.899358	1.518692	1
H	-1.953142	0.014932	0.036412	1
H	0.689648	-0.021588	1.604012	1
H	1.408398	-1.339438	-1.930658	1
H	1.426508	1.360722	-1.902478	1
Es	0.296709	1.192417	-0.175916	99
Es	-1.561751	-0.615889	1.343169	99
Es	0.764876	0.009507	-1.380603	99
Es	0.338991	-0.735345	0.191518	99
Es	0.348681	0.726345	0.207529	99
Es	0.574235	1.458492	0.095214	99
Es	0.450129	-1.203403	-0.079663	99
Es	0.510748	-0.017320	1.308964	99
Es	1.288299	-1.114160	-1.687530	99
Es	-1.552810	0.606851	1.358344	99
Es	1.369310	0.002181	-1.066344	99
Es	0.466400	1.198228	-0.054412	99
Es	0.117154	-0.007935	0.667849	99
Es	0.698088	-0.995435	-0.484672	99
Es	1.039426	-0.652847	-1.190595	99
Es	-1.373656	-0.000999	0.966275	99
Es	1.048117	0.664048	-1.176780	99
Es	-0.640277	-0.004316	0.814622	99
Es	0.560023	-1.464657	0.066397	99
Es	0.710199	0.996062	-0.465284	99
Es	1.303219	1.132185	-1.664069	99
Es	0.274210	-1.195461	-0.204357	99
Es	-1.747312	0.009614	0.340167	99
35
Properties=species:S:1:pos:R:3:Z:I:1 energy=-304.7519356424962 field_type=dipole dipole="0.000000 0.000000 0.000000" charge=0
C	-1.373682	-0.000998	0.966272	6
C	0.117058	-0.007938	0.668172	6
O	0.449808	-1.203828	-0.079618	8
C	1.039528	-0.652618	-1.190789	6
C	1.048218	0.663822	-1.176978	6
O	0.465888	1.198932	-0.054228	8
H	-1.652572	0.887362	1.541192	1
H	-1.665662	-0.899358	1.518692	1
H	-1.953142	0.014932	0.036412	1
H	0.689648	-0.021588	1.604012	1
H	1.408398	-1.339438	-1.930658	1
H	1.426508	1.360722	-1.902478	1
Es	0.696865	-0.995269	-0.486009	99
Es	-1.561643	-0.616085	1.342999	99
Es	0.276159	-1.195299	-0.202650	99
Es	0.510726	-0.017319	1.308932	99
Es	0.466434	1.198365	-0.054294	99
Es	1.288346	-1.114229	-1.687523	99
Es	0.710047	0.995969	-0.464928	99
Es	-1.373654	-0.000998	0.966274	99
Es	0.449871	-1.203429	-0.079741	99
Es	0.348176	0.726172	0.206985	99
Es	1.048119	0.664048	-1.176781	99
Es	-1.747170	0.009602	0.340530	99
Es	0.294689	1.193865	-0.176736	99
Es	1.369155	0.002172	-1.066240	99
Es	1.303302	1.132230	-1.664047	99
Es	0.338571	-0.735277	0.191492	99
Es	0.576867	1.457163	0.096069	99
Es	0.764897	0.009505	-1.380663	99
Es	0.117152	-0.007935	0.667851	99
Es	-1.552940	0.606964	1.358369	99
Es	1.039428	-0.652847	-1.190595	99
Es	0.559946	-1.465004	0.066094	99
Es	-0.640334	-0.004202	0.814433	99
35
Properties=species:S:1:pos:R:3:Z:I:1 energy=-304.7519356424962 field_type=dipole dipole="0.000000 0.000000 0.000000" charge=0
C	-1.373682	-0.000998	0.966272	6
C	0.117058	-0.007938	0.668172	6
O	0.449808	-1.203828	-0.079618	8
C	1.039528	-0.652618	-1.190789	6
C	1.048218	0.663822	-1.176978	6
O	0.465888	1.198932	-0.054228	8
H	-1.652572	0.887362	1.541192	1
H	-1.665662	-0.899358	1.518692	1
H	-1.953142	0.014932	0.036412	1
H	0.689648	-0.021588	1.604012	1
H	1.408398	-1.339438	-1.930658	1
H	1.426508	1.360722	-1.902478	1
Es	1.303536	1.132413	-1.664031	99
Es	0.566238	1.463458	0.093028	99
Es	0.466366	1.198387	-0.054343	99
Es	-0.640439	-0.004318	0.814600	99
Es	0.264788	-1.203545	-0.204304	99
Es	0.306338	1.187592	-0.173757	99
Es	0.572731	-1.457212	0.069255	99
Es	0.710370	0.996368	-0.464747	99
Es	-1.561959	-0.616251	1.343036	99
Es	-1.746827	0.009697	0.340641	99
Es	-1.552808	0.607100	1.358099	99
Es	-1.373653	-0.000998	0.966274	99
Es	1.288112	-1.114079	-1.687608	99
Es	0.338409	-0.735550	0.190989	99
Es	0.346985	0.725629	0.206767	99
Es	1.048121	0.664048	-1.176780	99
Es	0.695253	-0.994717	-0.487005	99
Es	1.369088	0.002158	-1.066216	99
Es	1.039427	-0.652847	-1.190596	99
Es	0.764919	0.009486	-1.380557	99
Es	0.117152	-0.007935	0.667843	99
Es	0.510718	-0.017330	1.308903	99
Es	0.450143	-1.203395	-0.079669	99
35
Properties=species:S:1:pos:R:3:Z:I:1 energy=-304.7519356424962 field_type=dipole dipole="0.000000 0.000000 0.000000" charge=0
C	-1.373682	-0.000998	0.966272	6
C	0.117058	-0.007938	0.668172	6
O	0.449808	-1.203828	-0.079618	8
C	1.039528	-0.652618	-1.190789	6
C	1.048218	0.663822	-1.176978	6
O	0.465888	1.198932	-0.054228	8
H	-1.652572	0.887362	1.541192	1
H	-1.665662	-0.899358	1.518692	1
H	-1.953142	0.014932	0.036412	1
H	0.689648	-0.021588	1.604012	1
H	1.408398	-1.339438	-1.930658	1
H	1.426508	1.360722	-1.902478	1
Es	1.303408	1.132371	-1.664012	99
Es	0.117155	-0.007935	0.667849	99
Es	0.450053	-1.203424	-0.079683	99
Es	0.510765	-0.017321	1.308939	99
Es	-0.640422	-0.004305	0.814691	99
Es	0.466317	1.198478	-0.054259	99
Es	-1.561840	-0.616096	1.343089	99
Es	-1.373653	-0.000998	0.966274	99
Es	-1.552798	0.606981	1.358234	99
Es	1.288133	-1.114153	-1.687547	99
Es	1.048124	0.664049	-1.176782	99
Es	0.347884	0.726167	0.207346	99
Es	0.339274	-0.735739	0.191887	99
Es	0.565737	-1.461777	0.067053	99
Es	1.369288	0.002155	-1.066258	99
Es	1.039428	-0.652845	-1.190596	99
Es	0.764821	0.009501	-1.380539	99
Es	0.269971	-1.198682	-0.204062	99
Es	-1.747029	0.009667	0.340341	99
Es	0.568732	1.462049	0.093586	99
Es	0.302146	1.188842	-0.175803	99
Es	0.696336	-0.994716	-0.486020	99
Es	0.711181	0.995893	-0.463908	99
35
Properties=species:S:1:pos:R:3:Z:I:1 energy=-304.7519356424962 field_type=dipole dipole="0.000000 0.000000 0.000000" charge=0
C	-1.373682	-0.000998	0.966272	6
C	0.117058	-0.007938	0.668172	6
O	0.449808	-1.203828	-0.079618	8
C	1.039528	-0.652618	-1.190789	6
C	1.048218	0.663822	-1.176978	6
O	0.465888	1.198932	-0.054228	8
H	-1.652572	0.887362	1.541192	1
H	-1.665662	-0.899358	1.518692	1
H	-1.953142	0.014932	0.036412	1
H	0.689648	-0.021588	1.604012	1
H	1.408398	-1.339438	-1.930658	1
H	1.426508	1.360722	-1.902478	1
Es	1.301778	1.131414	-1.663554	99
Es	-1.552982	0.607153	1.359614	99
Es	0.465877	1.198571	-0.054409	99
Es	1.039430	-0.652847	-1.190595	99
Es	0.425128	-1.182312	-0.113650	99
Es	0.472912	-1.500962	0.031681	99
Es	1.048124	0.664048	-1.176778	99
Es	0.700683	0.993427	-0.467240	99
Es	0.647756	1.400313	0.106194	99
Es	-0.640450	-0.004675	0.814712	99
Es	0.510952	-0.017183	1.309509	99
Es	0.416135	-1.181524	-0.118519	99
Es	-1.373654	-0.000998	0.966274	99
Es	0.680039	-0.996165	-0.500743	99
Es	0.349847	0.727264	0.202673	99
Es	1.370446	0.002364	-1.065773	99
Es	-1.748033	0.008793	0.338907	99
Es	0.231534	1.252428	-0.179854	99
Es	0.117156	-0.007935	0.667846	99
Es	-1.560451	-0.614857	1.342694	99
Es	0.327944	-0.732751	0.189402	99
Es	0.764147	0.009638	-1.381036	99
Es	1.288690	-1.115043	-1.687535	99
35
Properties=species:S:1:pos:R:3:Z:I:1 energy=-304.7519356424962 field_type=dipole dipole="0.000000 0.000000 0.000000" charge=0
C	-1.373682	-0.000998	0.966272	6
C	0.117058	-0.007938	0.668172	6
O	0.449808	-1.203828	-0.079618	8
C	1.039528	-0.652618	-1.190789	6
C	1.048218	0.663822	-1.176978	6
O	0.465888	1.198932	-0.054228	8
H	-1.652572	0.887362	1.541192	1
H	-1.665662	-0.899358	1.518692	1
H	-1.953142	0.014932	0.036412	1
H	0.689648	-0.021588	1.604012	1
H	1.408398	-1.339438	-1.930658	1
H	1.426508	1.360722	-1.902478	1
Es	0.510760	-0.017299	1.309100	99
Es	1.048120	0.664048	-1.176780	99
Es	0.466291	1.198323	-0.054457	99
Es	1.303031	1.132143	-1.664074	99
Es	0.117154	-0.007935	0.667847	99
Es	0.338891	-0.735139	0.191965	99
Es	0.712664	0.995902	-0.462282	99
Es	0.348345	0.726535	0.206811	99
Es	0.449940	-1.203436	-0.079712	99
Es	0.285581	-1.188657	-0.201374	99
Es	1.369336	0.002192	-1.066323	99
Es	1.288359	-1.114329	-1.687570	99
Es	-1.552776	0.607087	1.358495	99
Es	-1.373653	-0.000998	0.966274	99
Es	0.287900	1.196969	-0.180793	99
Es	-0.640559	-0.004368	0.814709	99
Es	0.698263	-0.995598	-0.484533	99
Es	-1.747183	0.009482	0.339981	99
Es	0.580911	1.453885	0.097847	99
Es	0.548854	-1.471388	0.062728	99
Es	0.764809	0.009523	-1.380502	99
Es	1.039428	-0.652847	-1.190595	99
Es	-1.561456	-0.615934	1.343058	99
