40
Properties=species:S:1:pos:R:3:Z:I:1 energy=-270.0820224725894 field_type=dipole dipole="0.000000 0.000000 0.000000" charge=0
C	-0.025391	-2.415202	-0.635473	6
C	-0.737621	-1.170662	-0.131493	6
C	0.226068	-0.062322	0.144977	6
O	0.596469	0.709128	-1.006573	8
C	-0.188971	1.378328	-0.010103	6
C	0.526369	2.465648	0.706927	6
H	-0.745201	-3.217912	-0.821893	1
H	0.705109	-2.773022	0.097367	1
H	0.509449	-2.209672	-1.568433	1
H	-1.276151	-1.410462	0.792577	1
H	-1.487921	-0.861012	-0.868853	1
H	0.994299	-0.317422	0.863167	1
H	-1.215151	1.620808	-0.247273	1
H	1.576319	2.215378	0.894147	1
H	0.045829	2.659238	1.671247	1
H	0.496499	3.389158	0.119687	1
Es	0.416556	0.617406	-1.242945	99
Es	-0.375405	-1.789253	-0.380751	99
Es	-1.245783	-0.952874	-0.632275	99
Es	1.233821	2.288609	0.833992	99
Es	-0.891133	1.541107	-0.180277	99
Es	0.174976	1.920042	0.353943	99
Es	0.336002	-2.273604	-1.267437	99
Es	0.472841	-2.655490	-0.129541	99
Es	-0.256431	-0.612215	0.004733	99
Es	-1.098485	-1.331809	0.505788	99
Es	0.888713	0.810297	-0.980230	99
Es	0.226138	-0.062137	0.144723	99
Es	0.501059	3.088075	0.305731	99
Es	0.596337	0.709110	-1.006300	99
Es	0.526346	2.465640	0.706929	99
Es	0.759438	-0.236097	0.630371	99
Es	0.521360	0.335593	-0.608338	99
Es	-0.099755	0.649470	0.287624	99
Es	-0.737585	-1.170674	-0.131483	99
Es	-0.025408	-2.415179	-0.635453	99
Es	0.292013	1.047362	-0.697073	99
Es	0.192187	2.593133	1.358859	99
Es	-0.518561	-2.961523	-0.760466	99
Es	-0.188788	1.378184	-0.010305	99
40
Properties=species:S:1:pos:R:3:Z:I:1 energy=-270.0820224725894 field_type=dipole dipole="0.000000 0.000000 0.000000" charge=0
C	-0.025391	-2.415202	-0.635473	6
C	-0.737621	-1.170662	-0.131493	6
C	0.226068	-0.062322	0.144977	6
O	0.596469	0.709128	-1.006573	8
C	-0.188971	1.378328	-0.010103	6
C	0.526369	2.465648	0.706927	6
H	-0.745201	-3.217912	-0.821893	1
H	0.705109	-2.773022	0.097367	1
H	0.509449	-2.209672	-1.568433	1
H	-1.276151	-1.410462	0.792577	1
H	-1.487921	-0.861012	-0.868853	1
H	0.994299	-0.317422	0.863167	1
H	-1.215151	1.620808	-0.247273	1
H	1.576319	2.215378	0.894147	1
H	0.045829	2.659238	1.671247	1
H	0.496499	3.389158	0.119687	1
Es	0.523565	0.331480	-0.607337	99
Es	-0.737584	-1.170674	-0.131484	99
Es	-0.100801	0.649144	0.290186	99
Es	-0.025407	-2.415179	-0.635453	99
Es	-1.244980	-0.952318	-0.631779	99
Es	0.596324	0.709135	-1.006346	99
Es	0.421508	0.618022	-1.240074	99
Es	-1.098946	-1.330843	0.506437	99
Es	-0.375446	-1.789414	-0.380780	99
Es	0.289543	1.051480	-0.699979	99
Es	0.336515	-2.274493	-1.268222	99
Es	1.232709	2.287993	0.833705	99
Es	0.175833	1.920470	0.353699	99
Es	0.192032	2.591911	1.359507	99
Es	0.759322	-0.236768	0.629602	99
Es	-0.256817	-0.612588	0.003975	99
Es	0.226135	-0.062144	0.144733	99
Es	0.472001	-2.656448	-0.129632	99
Es	0.883983	0.809856	-0.981256	99
Es	-0.188786	1.378183	-0.010303	99
Es	-0.890432	1.541785	-0.180541	99
Es	-0.517121	-2.960364	-0.760114	99
Es	0.500961	3.089308	0.304348	99
Es	0.526346	2.465640	0.706929	99
40
Properties=species:S:1:pos:R:3:Z:I:1 energy=-270.0820224725894 field_type=dipole dipole="0.000000 0.000000 0.000000" charge=0
C	-0.025391	-2.415202	-0.635473	6
C	-0.737621	-1.170662	-0.131493	6
C	0.226068	-0.062322	0.144977	6
O	0.596469	0.709128	-1.006573	8
C	-0.188971	1.378328	-0.010103	6
C	0.526369	2.465648	0.706927	6
H	-0.745201	-3.217912	-0.821893	1
H	0.705109	-2.773022	0.097367	1
H	0.509449	-2.209672	-1.568433	1
H	-1.276151	-1.410462	0.792577	1
H	-1.487921	-0.861012	-0.868853	1
H	0.994299	-0.317422	0.863167	1
H	-1.215151	1.620808	-0.247273	1
H	1.576319	2.215378	0.894147	1
H	0.045829	2.659238	1.671247	1
H	0.496499	3.389158	0.119687	1
Es	-0.737584	-1.170675	-0.131484	99
Es	0.289310	1.054788	-0.700758	99
Es	-0.025409	-2.415179	-0.635451	99
Es	0.596298	0.709105	-1.006305	99
Es	0.501143	3.090053	0.303431	99
Es	0.423952	0.620041	-1.237417	99
Es	-0.889808	1.542195	-0.180799	99
Es	0.226135	-0.062144	0.144731	99
Es	-0.375802	-1.789305	-0.381105	99
Es	-1.244452	-0.951728	-0.631394	99
Es	-0.101571	0.648830	0.291755	99
Es	-1.099178	-1.330385	0.506964	99
Es	-0.188794	1.378185	-0.010284	99
Es	0.191953	2.591235	1.359800	99
Es	0.336670	-2.275245	-1.268767	99
Es	0.880794	0.808372	-0.982457	99
Es	0.759270	-0.237071	0.629171	99
Es	-0.256852	-0.613129	0.003573	99
Es	0.471572	-2.656986	-0.129705	99
Es	-0.516058	-2.959529	-0.759726	99
Es	0.176084	1.920998	0.353602	99
Es	0.526346	2.465639	0.706928	99
Es	0.524514	0.327842	-0.608066	99
Es	1.231921	2.287265	0.833581	99
40
Properties=species:S:1:pos:R:3:Z:I:1 energy=-270.0820224725894 field_type=dipole dipole="0.000000 0.000000 0.000000" charge=0
C	-0.025391	-2.415202	-0.635473	6
C	-0.737621	-1.170662	-0.131493	6
C	0.226068	-0.062322	0.144977	6
O	0.596469	0.709128	-1.006573	8
C	-0.188971	1.378328	-0.010103	6
C	0.526369	2.465648	0.706927	6
H	-0.745201	-3.217912	-0.821893	1
H	0.705109	-2.773022	0.097367	1
H	0.509449	-2.209672	-1.568433	1
H	-1.276151	-1.410462	0.792577	1
H	-1.487921	-0.861012	-0.868853	1
H	0.994299	-0.317422	0.863167	1
H	-1.215151	1.620808	-0.247273	1
H	1.576319	2.215378	0.894147	1
H	0.045829	2.659238	1.671247	1
H	0.496499	3.389158	0.119687	1
Es	-1.099408	-1.329874	0.507243	99
Es	0.336675	-2.275738	-1.269265	99
Es	0.288414	1.057152	-0.702906	99
Es	-1.243997	-0.951438	-0.631126	99
Es	-0.515284	-2.958906	-0.759341	99
Es	-0.737585	-1.170675	-0.131483	99
Es	0.501219	3.090666	0.302816	99
Es	-0.188787	1.378186	-0.010301	99
Es	-0.102122	0.648699	0.292848	99
Es	0.759111	-0.237311	0.628832	99
Es	0.176509	1.921337	0.353569	99
Es	0.878592	0.807669	-0.983751	99
Es	0.526346	2.465639	0.706928	99
Es	0.226139	-0.062142	0.144727	99
Es	-0.257025	-0.613410	0.003236	99
Es	0.525529	0.325975	-0.607610	99
Es	0.191990	2.590537	1.360174	99
Es	0.596360	0.709114	-1.006384	99
Es	0.425987	0.620269	-1.234349	99
Es	1.231182	2.286856	0.833312	99
Es	-0.889462	1.542527	-0.180927	99
Es	-0.025408	-2.415179	-0.635452	99
Es	-0.375805	-1.789384	-0.380965	99
Es	0.471281	-2.657397	-0.130001	99
40
Properties=species:S:1:pos:R:3:Z:I:1 energy=-270.0820224725894 field_type=dipole dipole="0.000000 0.000000 0.000000" charge=0
C	-0.025391	-2.415202	-0.635473	6
C	-0.737621	-1.170662	-0.131493	6
C	0.226068	-0.062322	0.144977	6
O	0.596469	0.709128	-1.006573	8
C	-0.188971	1.378328	-0.010103	6
C	0.526369	2.465648	0.706927	6
H	-0.745201	-3.217912	-0.821893	1
H	0.705109	-2.773022	0.097367	1
H	0.509449	-2.209672	-1.568433	1
H	-1.276151	-1.410462	0.792577	1
H	-1.487921	-0.861012	-0.868853	1
H	0.994299	-0.317422	0.863167	1
H	-1.215151	1.620808	-0.247273	1
H	1.576319	2.215378	0.894147	1
H	0.045829	2.659238	1.671247	1
H	0.496499	3.389158	0.119687	1
Es	-0.257116	-0.613739	0.003013	99
Es	0.226129	-0.062148	0.144722	99
Es	0.759095	-0.237429	0.628591	99
Es	0.526346	2.465640	0.706928	99
Es	-0.514702	-2.958192	-0.759155	99
Es	0.176774	1.921654	0.353524	99
Es	0.425893	0.621634	-1.230639	99
Es	-0.025408	-2.415178	-0.635452	99
Es	-0.889088	1.542612	-0.181032	99
Es	0.596370	0.709135	-1.006245	99
Es	1.230625	2.286603	0.833264	99
Es	-0.188782	1.378184	-0.010303	99
Es	-1.243733	-0.951220	-0.631055	99
Es	-0.102612	0.648495	0.293711	99
Es	0.470875	-2.657874	-0.130027	99
Es	-0.737584	-1.170675	-0.131483	99
Es	-1.099515	-1.329510	0.507449	99
Es	-0.375760	-1.789336	-0.380874	99
Es	0.191917	2.589948	1.360315	99
Es	0.289317	1.059444	-0.703315	99
Es	0.501287	3.091147	0.302369	99
Es	0.525949	0.323968	-0.608276	99
Es	0.877331	0.806220	-0.986609	99
Es	0.336845	-2.276207	-1.269602	99
40
Properties=species:S:1:pos:R:3:Z:I:1 energy=-270.0820224725894 field_type=dipole dipole="0.000000 0.000000 0.000000" charge=0
C	-0.025391	-2.415202	-0.635473	6
C	-0.737621	-1.170662	-0.131493	6
C	0.226068	-0.062322	0.144977	6
O	0.596469	0.709128	-1.006573	8
C	-0.188971	1.378328	-0.010103	6
C	0.526369	2.465648	0.706927	6
H	-0.745201	-3.217912	-0.821893	1
H	0.705109	-2.773022	0.097367	1
H	0.509449	-2.209672	-1.568433	1
H	-1.276151	-1.410462	0.792577	1
H	-1.487921	-0.861012	-0.868853	1
H	0.994299	-0.317422	0.863167	1
H	-1.215151	1.620808	-0.247273	1
H	1.576319	2.215378	0.894147	1
H	0.045829	2.659238	1.671247	1
H	0.496499	3.389158	0.119687	1
Es	0.596321	0.709119	-1.006256	99
Es	-0.102879	0.648387	0.294359	99
Es	-0.888750	1.542774	-0.181132	99
Es	0.526346	2.465640	0.706928	99
Es	-0.188787	1.378182	-0.010302	99
Es	0.875050	0.805530	-0.986250	99
Es	0.226136	-0.062143	0.144728	99
Es	-0.737585	-1.170674	-0.131483	99
Es	0.501307	3.091416	0.302023	99
Es	0.336859	-2.276490	-1.269717	99
Es	0.470705	-2.658200	-0.130130	99
Es	-0.375874	-1.789294	-0.380903	99
Es	-1.243352	-0.950974	-0.630909	99
Es	-0.514257	-2.957773	-0.759103	99
Es	0.288826	1.061113	-0.704330	99
Es	0.758980	-0.237626	0.628362	99
Es	1.230177	2.286427	0.833047	99
Es	-0.025408	-2.415178	-0.635452	99
Es	0.428050	0.622716	-1.229217	99
Es	-0.257225	-0.613927	0.002878	99
Es	0.191939	2.589547	1.360577	99
Es	0.526584	0.321946	-0.608992	99
Es	0.177039	1.921925	0.353481	99
Es	-1.099749	-1.329270	0.507611	99
40
Properties=species:S:1:pos:R:3:Z:I:1 energy=-270.0820224725894 field_type=dipole dipole="0.000000 0.000000 0.000000" charge=0
C	-0.025391	-2.415202	-0.635473	6
C	-0.737621	-1.170662	-0.131493	6
C	0.226068	-0.062322	0.144977	6
O	0.596469	0.709128	-1.006573	8
C	-0.188971	1.378328	-0.010103	6
C	0.526369	2.465648	0.706927	6
H	-0.745201	-3.217912	-0.821893	1
H	0.705109	-2.773022	0.097367	1
H	0.509449	-2.209672	-1.568433	1
H	-1.276151	-1.410462	0.792577	1
H	-1.487921	-0.861012	-0.868853	1
H	0.994299	-0.317422	0.863167	1
H	-1.215151	1.620808	-0.247273	1
H	1.576319	2.215378	0.894147	1
H	0.045829	2.659238	1.671247	1
H	0.496499	3.389158	0.119687	1
Es	-1.243053	-0.950725	-0.630743	99
Es	0.758903	-0.237556	0.628168	99
Es	1.229666	2.286245	0.833018	99
Es	0.526346	2.465640	0.706927	99
Es	0.192077	2.589180	1.360614	99
Es	0.470301	-2.658800	-0.130019	99
Es	-0.103085	0.648256	0.294879	99
Es	-0.188787	1.378182	-0.010302	99
Es	0.226139	-0.062145	0.144727	99
Es	0.426739	0.622922	-1.225863	99
Es	0.595926	0.708971	-1.006363	99
Es	-1.099883	-1.328950	0.507718	99
Es	-0.375909	-1.789381	-0.380954	99
Es	-0.257339	-0.614378	0.002790	99
Es	-0.737584	-1.170674	-0.131485	99
Es	0.501399	3.091807	0.301697	99
Es	-0.888548	1.542950	-0.181216	99
Es	0.337083	-2.276760	-1.269839	99
Es	0.289147	1.061709	-0.703894	99
Es	0.874777	0.805561	-0.989837	99
Es	-0.025408	-2.415179	-0.635452	99
Es	0.528204	0.321376	-0.609038	99
Es	-0.513841	-2.957041	-0.759197	99
Es	0.177181	1.921963	0.353484	99
40
Properties=species:S:1:pos:R:3:Z:I:1 energy=-270.0820224725894 field_type=dipole dipole="0.000000 0.000000 0.000000" charge=0
C	-0.025391	-2.415202	-0.635473	6
C	-0.737621	-1.170662	-0.131493	6
C	0.226068	-0.062322	0.144977	6
O	0.596469	0.709128	-1.006573	8
C	-0.188971	1.378328	-0.010103	6
C	0.526369	2.465648	0.706927	6
H	-0.745201	-3.217912	-0.821893	1
H	0.705109	-2.773022	0.097367	1
H	0.509449	-2.209672	-1.568433	1
H	-1.276151	-1.410462	0.792577	1
H	-1.487921	-0.861012	-0.868853	1
H	0.994299	-0.317422	0.863167	1
H	-1.215151	1.620808	-0.247273	1
H	1.576319	2.215378	0.894147	1
H	0.045829	2.659238	1.671247	1
H	0.496499	3.389158	0.119687	1
Es	-1.099932	-1.328816	0.507826	99
Es	-0.375928	-1.789293	-0.380992	99
Es	-1.242906	-0.950658	-0.630598	99
Es	0.758874	-0.237677	0.627961	99
Es	0.191914	2.588855	1.360753	99
Es	0.287573	1.062891	-0.706377	99
Es	-0.257363	-0.614427	0.002668	99
Es	-0.513607	-2.956756	-0.759007	99
Es	0.872985	0.805037	-0.986409	99
Es	0.526346	2.465640	0.706928	99
Es	0.527496	0.320739	-0.609007	99
Es	0.226136	-0.062146	0.144728	99
Es	0.501473	3.091958	0.301390	99
Es	0.430350	0.622765	-1.226898	99
Es	-0.737584	-1.170675	-0.131484	99
Es	0.177588	1.922117	0.353361	99
Es	-0.888277	1.543103	-0.181289	99
Es	-0.103305	0.648179	0.295404	99
Es	1.229281	2.286230	0.833011	99
Es	0.470122	-2.658946	-0.130126	99
Es	-0.188786	1.378183	-0.010306	99
Es	-0.025408	-2.415179	-0.635453	99
Es	0.596300	0.709114	-1.006253	99
Es	0.337109	-2.277063	-1.270011	99
40
Properties=species:S:1:pos:R:3:Z:I:1 energy=-270.0820224725894 field_type=dipole dipole="0.000000 0.000000 0.000000" charge=0
C	-0.025391	-2.415202	-0.635473	6
C	-0.737621	-1.170662	-0.131493	6
C	0.226068	-0.062322	0.144977	6
O	0.596469	0.709128	-1.006573	8
C	-0.188971	1.378328	-0.010103	6
C	0.526369	2.465648	0.706927	6
H	-0.745201	-3.217912	-0.821893	1
H	0.705109	-2.773022	0.097367	1
H	0.509449	-2.209672	-1.568433	1
H	-1.276151	-1.410462	0.792577	1
H	-1.487921	-0.861012	-0.868853	1
H	0.994299	-0.317422	0.863167	1
H	-1.215151	1.620808	-0.247273	1
H	1.576319	2.215378	0.894147	1
H	0.045829	2.659238	1.671247	1
H	0.496499	3.389158	0.119687	1
Es	-0.513378	-2.956734	-0.758858	99
Es	0.469933	-2.658875	-0.130289	99
Es	-0.103414	0.648210	0.295721	99
Es	0.337228	-2.277220	-1.270113	99
Es	-1.100124	-1.328601	0.507879	99
Es	0.288220	1.063425	-0.705963	99
Es	0.501449	3.092200	0.301260	99
Es	-0.737583	-1.170675	-0.131483	99
Es	-0.025409	-2.415178	-0.635452	99
Es	0.177490	1.922412	0.353423	99
Es	-0.888130	1.543171	-0.181302	99
Es	0.871049	0.804642	-0.986864	99
Es	0.528115	0.319124	-0.609699	99
Es	0.526346	2.465641	0.706929	99
Es	-0.257389	-0.614440	0.002493	99
Es	1.229110	2.285868	0.832790	99
Es	0.430597	0.624086	-1.226499	99
Es	-0.375988	-1.789372	-0.380955	99
Es	-0.188784	1.378185	-0.010303	99
Es	0.596732	0.709310	-1.005847	99
Es	0.192063	2.588571	1.360832	99
Es	0.226141	-0.062145	0.144726	99
Es	-1.242614	-0.950605	-0.630468	99
Es	0.758792	-0.237824	0.627861	99
40
Properties=species:S:1:pos:R:3:Z:I:1 energy=-270.0820224725894 field_type=dipole dipole="0.000000 0.000000 0.000000" charge=0
C	-0.025391	-2.415202	-0.635473	6
C	-0.737621	-1.170662	-0.131493	6
C	0.226068	-0.062322	0.144977	6
O	0.596469	0.709128	-1.006573	8
C	-0.188971	1.378328	-0.010103	6
C	0.526369	2.465648	0.706927	6
H	-0.745201	-3.217912	-0.821893	1
H	0.705109	-2.773022	0.097367	1
H	0.509449	-2.209672	-1.568433	1
H	-1.276151	-1.410462	0.792577	1
H	-1.487921	-0.861012	-0.868853	1
H	0.994299	-0.317422	0.863167	1
H	-1.215151	1.620808	-0.247273	1
H	1.576319	2.215378	0.894147	1
H	0.045829	2.659238	1.671247	1
H	0.496499	3.389158	0.119687	1
Es	0.429611	0.624497	-1.223304	99
Es	-0.375995	-1.789374	-0.380983	99
Es	-1.100143	-1.328402	0.507923	99
Es	0.337255	-2.277471	-1.270208	99
Es	0.177538	1.922637	0.353434	99
Es	0.528357	0.318437	-0.609811	99
Es	0.526347	2.465641	0.706929	99
Es	0.758770	-0.237837	0.627813	99
Es	1.228726	2.285618	0.832640	99
Es	-0.737583	-1.170674	-0.131484	99
Es	0.871351	0.803974	-0.989255	99
Es	-0.188787	1.378184	-0.010305	99
Es	-0.513129	-2.956350	-0.758803	99
Es	0.501630	3.092458	0.301171	99
Es	-0.257337	-0.614558	0.002404	99
Es	-0.025408	-2.415179	-0.635452	99
Es	0.289124	1.064556	-0.706300	99
Es	-0.887871	1.543280	-0.181345	99
Es	0.226135	-0.062144	0.144728	99
Es	0.469789	-2.659118	-0.130220	99
Es	0.596243	0.709093	-1.006250	99
Es	-0.103846	0.648105	0.295983	99
Es	-1.242511	-0.950525	-0.630431	99
Es	0.192189	2.588326	1.360946	99
40
Properties=species:S:1:pos:R:3:Z:I:1 energy=-270.0820224725894 field_type=dipole dipole="0.000000 0.000000 0.000000" charge=0
C	-0.025391	-2.415202	-0.635473	6
C	-0.737621	-1.170662	-0.131493	6
C	0.226068	-0.062322	0.144977	6
O	0.596469	0.709128	-1.006573	8
C	-0.188971	1.378328	-0.010103	6
C	0.526369	2.465648	0.706927	6
H	-0.745201	-3.217912	-0.821893	1
H	0.705109	-2.773022	0.097367	1
H	0.509449	-2.209672	-1.568433	1
H	-1.276151	-1.410462	0.792577	1
H	-1.487921	-0.861012	-0.868853	1
H	0.994299	-0.317422	0.863167	1
H	-1.215151	1.620808	-0.247273	1
H	1.576319	2.215378	0.894147	1
H	0.045829	2.659238	1.671247	1
H	0.496499	3.389158	0.119687	1
Es	1.228422	2.285744	0.832695	99
Es	-0.887726	1.543325	-0.181371	99
Es	-0.025407	-2.415180	-0.635453	99
Es	0.192132	2.588090	1.360986	99
Es	-0.103860	0.648043	0.296400	99
Es	-0.257380	-0.615045	0.002430	99
Es	0.870298	0.803740	-0.987981	99
Es	0.337294	-2.277540	-1.270281	99
Es	0.596360	0.709124	-1.006377	99
Es	0.177734	1.922559	0.353240	99
Es	0.288167	1.065245	-0.707525	99
Es	-0.376080	-1.789419	-0.381013	99
Es	-1.100285	-1.328298	0.508003	99
Es	0.758664	-0.237731	0.627618	99
Es	-0.737585	-1.170674	-0.131484	99
Es	0.528379	0.317955	-0.610140	99
Es	-1.242268	-0.950245	-0.630384	99
Es	0.226133	-0.062147	0.144726	99
Es	-0.188785	1.378185	-0.010306	99
Es	-0.512927	-2.955969	-0.758861	99
Es	0.469645	-2.659450	-0.130194	99
Es	0.431500	0.624622	-1.222883	99
Es	0.526347	2.465641	0.706928	99
Es	0.501682	3.092598	0.301047	99
40
Properties=species:S:1:pos:R:3:Z:I:1 energy=-270.0820224725894 field_type=dipole dipole="0.000000 0.000000 0.000000" charge=0
C	-0.025391	-2.415202	-0.635473	6
C	-0.737621	-1.170662	-0.131493	6
C	0.226068	-0.062322	0.144977	6
O	0.596469	0.709128	-1.006573	8
C	-0.188971	1.378328	-0.010103	6
C	0.526369	2.465648	0.706927	6
H	-0.745201	-3.217912	-0.821893	1
H	0.705109	-2.773022	0.097367	1
H	0.509449	-2.209672	-1.568433	1
H	-1.276151	-1.410462	0.792577	1
H	-1.487921	-0.861012	-0.868853	1
H	0.994299	-0.317422	0.863167	1
H	-1.215151	1.620808	-0.247273	1
H	1.576319	2.215378	0.894147	1
H	0.045829	2.659238	1.671247	1
H	0.496499	3.389158	0.119687	1
Es	-1.100276	-1.328188	0.508033	99
Es	1.228162	2.285577	0.832566	99
Es	-0.887551	1.543312	-0.181441	99
Es	-0.103966	0.647975	0.296767	99
Es	-0.188786	1.378185	-0.010305	99
Es	-0.512719	-2.955490	-0.758989	99
Es	0.526346	2.465641	0.706928	99
Es	0.501734	3.092769	0.300909	99
Es	0.869884	0.803529	-0.988566	99
Es	-0.737583	-1.170674	-0.131484	99
Es	-0.376107	-1.789412	-0.381043	99
Es	0.469387	-2.659885	-0.130118	99
Es	0.177682	1.922751	0.353333	99
Es	-1.242207	-0.950284	-0.630222	99
Es	0.758666	-0.237862	0.627430	99
Es	0.226136	-0.062144	0.144728	99
Es	0.596320	0.709129	-1.006215	99
Es	0.528561	0.317715	-0.610102	99
Es	0.431686	0.624670	-1.221984	99
Es	-0.025408	-2.415179	-0.635452	99
Es	0.337428	-2.277673	-1.270286	99
Es	-0.257437	-0.614954	0.002330	99
Es	0.192308	2.587948	1.361050	99
Es	0.288194	1.065719	-0.708049	99
40
Properties=species:S:1:pos:R:3:Z:I:1 energy=-270.0820224725894 field_type=dipole dipole="0.000000 0.000000 0.000000" charge=0
C	-0.025391	-2.415202	-0.635473	6
C	-0.737621	-1.170662	-0.131493	6
C	0.226068	-0.062322	0.144977	6
O	0.596469	0.709128	-1.006573	8
C	-0.188971	1.378328	-0.010103	6
C	0.526369	2.465648	0.706927	6
H	-0.745201	-3.217912	-0.821893	1
H	0.705109	-2.773022	0.097367	1
H	0.509449	-2.209672	-1.568433	1
H	-1.276151	-1.410462	0.792577	1
H	-1.487921	-0.861012	-0.868853	1
H	0.994299	-0.317422	0.863167	1
H	-1.215151	1.620808	-0.247273	1
H	1.576319	2.215378	0.894147	1
H	0.045829	2.659238	1.671247	1
H	0.496499	3.389158	0.119687	1
Es	0.526346	2.465640	0.706928	99
Es	0.425413	0.623881	-1.212606	99
Es	0.758679	-0.237882	0.627513	99
Es	-0.188786	1.378185	-0.010305	99
Es	-0.104278	0.647845	0.296632	99
Es	-0.737584	-1.170674	-0.131484	99
Es	0.226136	-0.062146	0.144729	99
Es	-1.242269	-0.949869	-0.630386	99
Es	1.227662	2.286076	0.832545	99
Es	-0.512497	-2.955018	-0.758942	99
Es	-0.887245	1.543160	-0.181493	99
Es	0.192463	2.587855	1.361257	99
Es	0.871418	0.802654	-1.000047	99
Es	0.177909	1.922513	0.353312	99
Es	0.337169	-2.277854	-1.270405	99
Es	0.290201	1.066954	-0.707029	99
Es	0.596427	0.709171	-1.006141	99
Es	-1.100116	-1.328024	0.508094	99
Es	-0.025408	-2.415179	-0.635452	99
Es	-0.376083	-1.789406	-0.380977	99
Es	0.469490	-2.660258	-0.130065	99
Es	0.501821	3.092846	0.300844	99
Es	0.531023	0.318104	-0.609027	99
Es	-0.257435	-0.615400	0.002325	99
40
Properties=species:S:1:pos:R:3:Z:I:1 energy=-270.0820224725894 field_type=dipole dipole="0.000000 0.000000 0.000000" charge=0
C	-0.025391	-2.415202	-0.635473	6
C	-0.737621	-1.170662	-0.131493	6
C	0.226068	-0.062322	0.144977	6
O	0.596469	0.709128	-1.006573	8
C	-0.188971	1.378328	-0.010103	6
C	0.526369	2.465648	0.706927	6
H	-0.745201	-3.217912	-0.821893	1
H	0.705109	-2.773022	0.097367	1
H	0.509449	-2.209672	-1.568433	1
H	-1.276151	-1.410462	0.792577	1
H	-1.487921	-0.861012	-0.868853	1
H	0.994299	-0.317422	0.863167	1
H	-1.215151	1.620808	-0.247273	1
H	1.576319	2.215378	0.894147	1
H	0.045829	2.659238	1.671247	1
H	0.496499	3.389158	0.119687	1
Es	0.469291	-2.660330	-0.130084	99
Es	0.337338	-2.277869	-1.270408	99
Es	-1.242135	-0.949891	-0.630287	99
Es	0.289514	1.067360	-0.708089	99
Es	0.596057	0.709027	-1.006309	99
Es	0.758582	-0.237822	0.627409	99
Es	-0.188778	1.378188	-0.010300	99
Es	-0.887190	1.543174	-0.181501	99
Es	0.177896	1.922742	0.353302	99
Es	-0.025408	-2.415181	-0.635452	99
Es	0.428327	0.624509	-1.214385	99
Es	-1.100180	-1.327885	0.508180	99
Es	1.227526	2.285864	0.832427	99
Es	0.526346	2.465641	0.706928	99
Es	0.501860	3.092998	0.300805	99
Es	0.530664	0.317333	-0.609517	99
Es	0.192489	2.587634	1.361303	99
Es	-0.737584	-1.170675	-0.131484	99
Es	-0.376147	-1.789475	-0.380968	99
Es	0.226135	-0.062144	0.144731	99
Es	-0.512393	-2.954925	-0.758981	99
Es	-0.257478	-0.615520	0.002229	99
Es	0.870009	0.802559	-0.996568	99
Es	-0.104288	0.647860	0.296839	99
40
Properties=species:S:1:pos:R:3:Z:I:1 energy=-270.0820224725894 field_type=dipole dipole="0.000000 0.000000 0.000000" charge=0
C	-0.025391	-2.415202	-0.635473	6
C	-0.737621	-1.170662	-0.131493	6
C	0.226068	-0.062322	0.144977	6
O	0.596469	0.709128	-1.006573	8
C	-0.188971	1.378328	-0.010103	6
C	0.526369	2.465648	0.706927	6
H	-0.745201	-3.217912	-0.821893	1
H	0.705109	-2.773022	0.097367	1
H	0.509449	-2.209672	-1.568433	1
H	-1.276151	-1.410462	0.792577	1
H	-1.487921	-0.861012	-0.868853	1
H	0.994299	-0.317422	0.863167	1
H	-1.215151	1.620808	-0.247273	1
H	1.576319	2.215378	0.894147	1
H	0.045829	2.659238	1.671247	1
H	0.496499	3.389158	0.119687	1
Es	-1.100393	-1.327847	0.508175	99
Es	-0.376313	-1.789481	-0.381045	99
Es	-0.512168	-2.954599	-0.758966	99
Es	0.226136	-0.062145	0.144728	99
Es	0.289677	1.067857	-0.708241	99
Es	0.869374	0.802118	-0.994421	99
Es	-0.025407	-2.415180	-0.635453	99
Es	-0.737585	-1.170675	-0.131483	99
Es	0.758556	-0.237885	0.627306	99
Es	0.469133	-2.660551	-0.130045	99
Es	-0.257415	-0.615585	0.002244	99
Es	1.227486	2.285605	0.832441	99
Es	-0.887049	1.543209	-0.181520	99
Es	0.529791	0.316540	-0.610373	99
Es	-0.104357	0.647775	0.297130	99
Es	0.501930	3.093125	0.300779	99
Es	0.596261	0.709096	-1.006300	99
Es	0.429407	0.625264	-1.215521	99
Es	0.192381	2.587444	1.361239	99
Es	0.177927	1.923065	0.353218	99
Es	0.337392	-2.278020	-1.270481	99
Es	-1.241870	-0.949779	-0.630215	99
Es	-0.188785	1.378183	-0.010305	99
Es	0.526346	2.465640	0.706928	99
40
Properties=species:S:1:pos:R:3:Z:I:1 energy=-270.0820224725894 field_type=dipole dipole="0.000000 0.000000 0.000000" charge=0
C	-0.025391	-2.415202	-0.635473	6
C	-0.737621	-1.170662	-0.131493	6
C	0.226068	-0.062322	0.144977	6
O	0.596469	0.709128	-1.006573	8
C	-0.188971	1.378328	-0.010103	6
C	0.526369	2.465648	0.706927	6
H	-0.745201	-3.217912	-0.821893	1
H	0.705109	-2.773022	0.097367	1
H	0.509449	-2.209672	-1.568433	1
H	-1.276151	-1.410462	0.792577	1
H	-1.487921	-0.861012	-0.868853	1
H	0.994299	-0.317422	0.863167	1
H	-1.215151	1.620808	-0.247273	1
H	1.576319	2.215378	0.894147	1
H	0.045829	2.659238	1.671247	1
H	0.496499	3.389158	0.119687	1
Es	-1.242206	-0.949494	-0.630317	99
Es	-1.099986	-1.327737	0.508183	99
Es	0.192851	2.587582	1.361496	99
Es	-0.104672	0.647726	0.296974	99
Es	-0.737584	-1.170675	-0.131484	99
Es	0.502051	3.093170	0.300683	99
Es	0.177869	1.922564	0.353352	99
Es	0.532084	0.317567	-0.608621	99
Es	-0.512085	-2.954218	-0.758846	99
Es	-0.257498	-0.615905	0.002230	99
Es	0.596445	0.709179	-1.006129	99
Es	0.469405	-2.660870	-0.130057	99
Es	0.526348	2.465641	0.706929	99
Es	0.291733	1.068831	-0.707667	99
Es	0.226137	-0.062145	0.144728	99
Es	0.336945	-2.278216	-1.270604	99
Es	0.870886	0.801094	-1.006952	99
Es	0.423271	0.624169	-1.205418	99
Es	0.758642	-0.237879	0.627375	99
Es	-0.886825	1.543070	-0.181630	99
Es	1.226888	2.286123	0.832324	99
Es	-0.376055	-1.789408	-0.380978	99
Es	-0.188786	1.378184	-0.010305	99
Es	-0.025405	-2.415180	-0.635447	99
40
Properties=species:S:1:pos:R:3:Z:I:1 energy=-270.0820224725894 field_type=dipole dipole="0.000000 0.000000 0.000000" charge=0
C	-0.025391	-2.415202	-0.635473	6
C	-0.737621	-1.170662	-0.131493	6
C	0.226068	-0.062322	0.144977	6
O	0.596469	0.709128	-1.006573	8
C	-0.188971	1.378328	-0.010103	6
C	0.526369	2.465648	0.706927	6
H	-0.745201	-3.217912	-0.821893	1
H	0.705109	-2.773022	0.097367	1
H	0.509449	-2.209672	-1.568433	1
H	-1.276151	-1.410462	0.792577	1
H	-1.487921	-0.861012	-0.868853	1
H	0.994299	-0.317422	0.863167	1
H	-1.215151	1.620808	-0.247273	1
H	1.576319	2.215378	0.894147	1
H	0.045829	2.659238	1.671247	1
H	0.496499	3.389158	0.119687	1
Es	0.531924	0.316833	-0.609632	99
Es	-0.886735	1.543222	-0.181643	99
Es	0.425986	0.624519	-1.208213	99
Es	0.290512	1.069033	-0.708212	99
Es	0.526346	2.465641	0.706928	99
Es	-0.188785	1.378184	-0.010305	99
Es	-0.257543	-0.615970	0.002235	99
Es	0.337236	-2.278223	-1.270604	99
Es	-0.104673	0.647737	0.297286	99
Es	0.192717	2.587349	1.361447	99
Es	0.178058	1.922649	0.353144	99
Es	-0.737584	-1.170675	-0.131484	99
Es	-1.241934	-0.949594	-0.630282	99
Es	0.869649	0.801277	-1.002541	99
Es	-1.100252	-1.327729	0.508246	99
Es	0.596364	0.709146	-1.006165	99
Es	-0.025408	-2.415179	-0.635453	99
Es	0.502076	3.093291	0.300638	99
Es	1.226802	2.286035	0.832374	99
Es	-0.376094	-1.789397	-0.381029	99
Es	-0.511988	-2.954020	-0.758947	99
Es	0.469096	-2.661023	-0.129931	99
Es	0.226142	-0.062146	0.144732	99
Es	0.758542	-0.237785	0.627228	99
