37
Properties=species:S:1:pos:R:3:Z:I:1 energy=-268.94413260707654 field_type=dipole dipole="0.000000 0.000000 0.000000" charge=0
C	-2.351849	-0.135140	0.268962	6
C	-0.867169	-0.239440	0.123372	6
C	-0.073449	0.819960	-0.090748	6
C	1.406891	0.758730	-0.241408	6
C	2.112341	-0.568840	-0.159818	6
O	2.023001	1.806730	-0.430528	8
H	-2.844439	-0.733920	-0.503358	1
H	-2.706469	0.896400	0.179072	1
H	-2.657579	-0.517140	1.247832	1
H	-0.459378	-1.243250	0.202772	1
H	-0.481789	1.823820	-0.169438	1
H	1.756052	-1.234310	-0.950418	1
H	1.957091	-1.018010	0.824452	1
H	3.186741	-0.415590	-0.300748	1
Es	1.832183	2.059761	-0.439103	99
Es	-0.073364	0.819988	-0.090760	99
Es	1.858614	-1.008260	-0.686214	99
Es	-0.351832	1.492517	-0.143025	99
Es	1.823952	1.455018	-0.114571	99
Es	0.657418	0.764695	-0.162166	99
Es	1.992800	-0.863546	0.498167	99
Es	2.828976	-0.467457	-0.253625	99
Es	-2.544063	-0.395687	0.926601	99
Es	1.771131	1.397722	-0.610102	99
Es	-0.867260	-0.239534	0.123392	99
Es	2.022838	1.806496	-0.430477	99
Es	-1.604253	-0.182298	0.195076	99
Es	2.337052	1.766126	-0.458924	99
Es	-2.584586	0.563987	0.207331	99
Es	2.112289	-0.568818	-0.159815	99
Es	-2.669745	-0.541476	-0.251925	99
Es	-0.593198	-0.919326	0.177418	99
Es	-2.351792	-0.135154	0.268958	99
Es	1.750959	0.080462	-0.198039	99
Es	-0.382397	0.352522	0.326474	99
Es	1.406865	0.758701	-0.241404	99
Es	-0.450347	0.274665	-0.311180	99
37
Properties=species:S:1:pos:R:3:Z:I:1 energy=-268.94413260707654 field_type=dipole dipole="0.000000 0.000000 0.000000" charge=0
C	-2.351849	-0.135140	0.268962	6
C	-0.867169	-0.239440	0.123372	6
C	-0.073449	0.819960	-0.090748	6
C	1.406891	0.758730	-0.241408	6
C	2.112341	-0.568840	-0.159818	6
O	2.023001	1.806730	-0.430528	8
H	-2.844439	-0.733920	-0.503358	1
H	-2.706469	0.896400	0.179072	1
H	-2.657579	-0.517140	1.247832	1
H	-0.459378	-1.243250	0.202772	1
H	-0.481789	1.823820	-0.169438	1
H	1.756052	-1.234310	-0.950418	1
H	1.957091	-1.018010	0.824452	1
H	3.186741	-0.415590	-0.300748	1
Es	2.347275	1.787941	-0.462862	99
Es	-0.073363	0.819992	-0.090760	99
Es	-0.450843	0.275004	-0.313110	99
Es	-2.584627	0.563904	0.207229	99
Es	-0.593638	-0.918796	0.177343	99
Es	1.823776	2.036691	-0.436922	99
Es	1.991595	-0.862788	0.497700	99
Es	1.770511	1.397149	-0.609793	99
Es	-2.351791	-0.135155	0.268957	99
Es	-2.669842	-0.541660	-0.251488	99
Es	-0.382717	0.353054	0.328141	99
Es	1.406864	0.758697	-0.241399	99
Es	2.112289	-0.568817	-0.159815	99
Es	1.750594	0.078637	-0.197895	99
Es	2.022877	1.806490	-0.430481	99
Es	2.831098	-0.466287	-0.253996	99
Es	-0.867263	-0.239533	0.123390	99
Es	-1.603597	-0.183332	0.195089	99
Es	-0.351157	1.491874	-0.142901	99
Es	-2.543988	-0.395654	0.926416	99
Es	1.857494	-1.007809	-0.685521	99
Es	1.823433	1.456894	-0.113221	99
Es	0.657261	0.764609	-0.162018	99
37
Properties=species:S:1:pos:R:3:Z:I:1 energy=-268.94413260707654 field_type=dipole dipole="0.000000 0.000000 0.000000" charge=0
C	-2.351849	-0.135140	0.268962	6
C	-0.867169	-0.239440	0.123372	6
C	-0.073449	0.819960	-0.090748	6
C	1.406891	0.758730	-0.241408	6
C	2.112341	-0.568840	-0.159818	6
O	2.023001	1.806730	-0.430528	8
H	-2.844439	-0.733920	-0.503358	1
H	-2.706469	0.896400	0.179072	1
H	-2.657579	-0.517140	1.247832	1
H	-0.459378	-1.243250	0.202772	1
H	-0.481789	1.823820	-0.169438	1
H	1.756052	-1.234310	-0.950418	1
H	1.957091	-1.018010	0.824452	1
H	3.186741	-0.415590	-0.300748	1
Es	0.657043	0.764147	-0.162013	99
Es	1.816074	1.963103	-0.427188	99
Es	-0.593657	-0.919465	0.177342	99
Es	-2.543643	-0.395991	0.925354	99
Es	1.406863	0.758695	-0.241403	99
Es	2.344288	1.867754	-0.471660	99
Es	2.832301	-0.465427	-0.254277	99
Es	-0.867262	-0.239531	0.123395	99
Es	-0.382683	0.353431	0.327731	99
Es	1.857482	-1.007448	-0.684458	99
Es	1.828252	1.452554	-0.113571	99
Es	1.776576	1.395457	-0.610397	99
Es	-2.669515	-0.541938	-0.250506	99
Es	-0.073359	0.819992	-0.090769	99
Es	-0.351228	1.492409	-0.142986	99
Es	-2.351792	-0.135156	0.268957	99
Es	-1.603180	-0.184248	0.195114	99
Es	-2.584962	0.565315	0.207159	99
Es	1.749473	0.077744	-0.197600	99
Es	2.022875	1.806391	-0.430470	99
Es	-0.451311	0.275150	-0.312460	99
Es	1.991316	-0.863013	0.496609	99
Es	2.112290	-0.568819	-0.159817	99
37
Properties=species:S:1:pos:R:3:Z:I:1 energy=-268.94413260707654 field_type=dipole dipole="0.000000 0.000000 0.000000" charge=0
C	-2.351849	-0.135140	0.268962	6
C	-0.867169	-0.239440	0.123372	6
C	-0.073449	0.819960	-0.090748	6
C	1.406891	0.758730	-0.241408	6
C	2.112341	-0.568840	-0.159818	6
O	2.023001	1.806730	-0.430528	8
H	-2.844439	-0.733920	-0.503358	1
H	-2.706469	0.896400	0.179072	1
H	-2.657579	-0.517140	1.247832	1
H	-0.459378	-1.243250	0.202772	1
H	-0.481789	1.823820	-0.169438	1
H	1.756052	-1.234310	-0.950418	1
H	1.957091	-1.018010	0.824452	1
H	3.186741	-0.415590	-0.300748	1
Es	-2.351795	-0.135156	0.268957	99
Es	-2.669404	-0.541975	-0.248979	99
Es	1.991126	-0.862638	0.494847	99
Es	0.657291	0.763672	-0.161986	99
Es	-0.351684	1.492765	-0.143025	99
Es	-0.867263	-0.239531	0.123394	99
Es	-2.543504	-0.396046	0.923708	99
Es	1.844264	1.895980	-0.422851	99
Es	1.828014	1.451807	-0.113487	99
Es	-0.450926	0.275689	-0.310872	99
Es	-0.383336	0.353137	0.326117	99
Es	1.406863	0.758696	-0.241405	99
Es	1.748330	0.077351	-0.197375	99
Es	2.023028	1.806223	-0.430471	99
Es	2.833776	-0.465229	-0.254352	99
Es	2.314571	1.935677	-0.476398	99
Es	-0.593222	-0.919777	0.177371	99
Es	-1.602576	-0.185003	0.195209	99
Es	-2.585912	0.566257	0.207223	99
Es	-0.073358	0.819993	-0.090762	99
Es	2.112291	-0.568819	-0.159815	99
Es	1.778298	1.395552	-0.610124	99
Es	1.857368	-1.007522	-0.682837	99
37
Properties=species:S:1:pos:R:3:Z:I:1 energy=-268.94413260707654 field_type=dipole dipole="0.000000 0.000000 0.000000" charge=0
C	-2.351849	-0.135140	0.268962	6
C	-0.867169	-0.239440	0.123372	6
C	-0.073449	0.819960	-0.090748	6
C	1.406891	0.758730	-0.241408	6
C	2.112341	-0.568840	-0.159818	6
O	2.023001	1.806730	-0.430528	8
H	-2.844439	-0.733920	-0.503358	1
H	-2.706469	0.896400	0.179072	1
H	-2.657579	-0.517140	1.247832	1
H	-0.459378	-1.243250	0.202772	1
H	-0.481789	1.823820	-0.169438	1
H	1.756052	-1.234310	-0.950418	1
H	1.957091	-1.018010	0.824452	1
H	3.186741	-0.415590	-0.300748	1
Es	-0.352110	1.492715	-0.142955	99
Es	1.857165	-1.007664	-0.681302	99
Es	-2.351791	-0.135156	0.268958	99
Es	-0.592817	-0.919713	0.177334	99
Es	-2.668829	-0.541268	-0.247777	99
Es	-2.544057	-0.396533	0.922367	99
Es	2.023157	1.806117	-0.430471	99
Es	1.747351	0.076700	-0.197067	99
Es	2.112290	-0.568818	-0.159815	99
Es	2.835042	-0.464752	-0.254492	99
Es	-2.586945	0.566526	0.207293	99
Es	1.406864	0.758696	-0.241401	99
Es	1.775776	1.397823	-0.609634	99
Es	-0.073358	0.819993	-0.090763	99
Es	-0.383224	0.353331	0.324604	99
Es	0.657751	0.763267	-0.162015	99
Es	2.285620	1.975289	-0.478316	99
Es	1.991103	-0.862075	0.493130	99
Es	-1.601942	-0.185541	0.195296	99
Es	-0.867263	-0.239531	0.123396	99
Es	1.824741	1.452632	-0.113674	99
Es	-0.451284	0.275730	-0.309352	99
Es	1.879001	1.853336	-0.421258	99
37
Properties=species:S:1:pos:R:3:Z:I:1 energy=-268.94413260707654 field_type=dipole dipole="0.000000 0.000000 0.000000" charge=0
C	-2.351849	-0.135140	0.268962	6
C	-0.867169	-0.239440	0.123372	6
C	-0.073449	0.819960	-0.090748	6
C	1.406891	0.758730	-0.241408	6
C	2.112341	-0.568840	-0.159818	6
O	2.023001	1.806730	-0.430528	8
H	-2.844439	-0.733920	-0.503358	1
H	-2.706469	0.896400	0.179072	1
H	-2.657579	-0.517140	1.247832	1
H	-0.459378	-1.243250	0.202772	1
H	-0.481789	1.823820	-0.169438	1
H	1.756052	-1.234310	-0.950418	1
H	1.957091	-1.018010	0.824452	1
H	3.186741	-0.415590	-0.300748	1
Es	2.265663	1.995774	-0.483333	99
Es	1.754579	1.362713	-0.547232	99
Es	2.835098	-0.462909	-0.255051	99
Es	-0.351983	1.492229	-0.143445	99
Es	1.840858	1.491438	-0.172061	99
Es	0.657573	0.763277	-0.162415	99
Es	-2.351795	-0.135154	0.268958	99
Es	-2.586535	0.566202	0.207022	99
Es	-2.547032	-0.399817	0.923406	99
Es	1.988534	-0.867023	0.494361	99
Es	1.904480	1.828851	-0.420165	99
Es	1.406864	0.758696	-0.241402	99
Es	-0.867263	-0.239531	0.123394	99
Es	-2.666058	-0.537844	-0.248258	99
Es	1.859121	-1.002318	-0.681957	99
Es	-0.073358	0.819993	-0.090761	99
Es	2.112290	-0.568818	-0.159814	99
Es	2.022870	1.806383	-0.430474	99
Es	-0.451459	0.275495	-0.309977	99
Es	-0.383014	0.353629	0.325663	99
Es	1.747896	0.074864	-0.197136	99
Es	-0.592922	-0.919155	0.177515	99
Es	-1.602166	-0.185871	0.195247	99
37
Properties=species:S:1:pos:R:3:Z:I:1 energy=-268.94413260707654 field_type=dipole dipole="0.000000 0.000000 0.000000" charge=0
C	-2.351849	-0.135140	0.268962	6
C	-0.867169	-0.239440	0.123372	6
C	-0.073449	0.819960	-0.090748	6
C	1.406891	0.758730	-0.241408	6
C	2.112341	-0.568840	-0.159818	6
O	2.023001	1.806730	-0.430528	8
H	-2.844439	-0.733920	-0.503358	1
H	-2.706469	0.896400	0.179072	1
H	-2.657579	-0.517140	1.247832	1
H	-0.459378	-1.243250	0.202772	1
H	-0.481789	1.823820	-0.169438	1
H	1.756052	-1.234310	-0.950418	1
H	1.957091	-1.018010	0.824452	1
H	3.186741	-0.415590	-0.300748	1
Es	-0.351697	1.491725	-0.143518	99
Es	-0.449832	0.276449	-0.311338	99
Es	0.657422	0.763458	-0.162380	99
Es	1.747924	1.358162	-0.469658	99
Es	-2.586017	0.565741	0.206929	99
Es	2.022996	1.806282	-0.430470	99
Es	2.834709	-0.460317	-0.255309	99
Es	-0.073356	0.819994	-0.090748	99
Es	1.748751	0.072399	-0.197034	99
Es	1.857782	-1.004715	-0.682535	99
Es	1.406863	0.758697	-0.241401	99
Es	1.928081	1.808628	-0.420546	99
Es	2.248768	2.011776	-0.483390	99
Es	-2.666808	-0.538696	-0.248885	99
Es	-0.384733	0.352691	0.326925	99
Es	2.112285	-0.568816	-0.159817	99
Es	1.840764	1.500280	-0.249314	99
Es	-0.593036	-0.918596	0.177638	99
Es	-1.602524	-0.185937	0.195308	99
Es	-2.546427	-0.398991	0.924176	99
Es	-2.351792	-0.135157	0.268958	99
Es	1.989380	-0.864422	0.495103	99
Es	-0.867264	-0.239530	0.123394	99
37
Properties=species:S:1:pos:R:3:Z:I:1 energy=-268.94413260707654 field_type=dipole dipole="0.000000 0.000000 0.000000" charge=0
C	-2.351849	-0.135140	0.268962	6
C	-0.867169	-0.239440	0.123372	6
C	-0.073449	0.819960	-0.090748	6
C	1.406891	0.758730	-0.241408	6
C	2.112341	-0.568840	-0.159818	6
O	2.023001	1.806730	-0.430528	8
H	-2.844439	-0.733920	-0.503358	1
H	-2.706469	0.896400	0.179072	1
H	-2.657579	-0.517140	1.247832	1
H	-0.459378	-1.243250	0.202772	1
H	-0.481789	1.823820	-0.169438	1
H	1.756052	-1.234310	-0.950418	1
H	1.957091	-1.018010	0.824452	1
H	3.186741	-0.415590	-0.300748	1
Es	2.241605	2.019211	-0.478200	99
Es	2.022461	1.806566	-0.430460	99
Es	1.990961	-0.860352	0.494546	99
Es	-2.670281	-0.542595	-0.248831	99
Es	-0.453052	0.274596	-0.311643	99
Es	1.406863	0.758697	-0.241400	99
Es	2.834331	-0.457692	-0.255381	99
Es	1.827052	1.487950	-0.415425	99
Es	-0.351468	1.491431	-0.142901	99
Es	-0.867266	-0.239530	0.123390	99
Es	2.112289	-0.568818	-0.159815	99
Es	0.657340	0.763540	-0.162004	99
Es	1.855583	-1.008548	-0.682524	99
Es	-0.381623	0.354586	0.327090	99
Es	-0.593315	-0.918515	0.177171	99
Es	-2.585521	0.565673	0.207182	99
Es	1.759577	1.370855	-0.308664	99
Es	1.937968	1.800498	-0.420715	99
Es	-2.543130	-0.395132	0.923643	99
Es	1.749641	0.069942	-0.196499	99
Es	-1.602623	-0.186096	0.195329	99
Es	-2.351793	-0.135156	0.268959	99
Es	-0.073358	0.819993	-0.090763	99
37
Properties=species:S:1:pos:R:3:Z:I:1 energy=-268.94413260707654 field_type=dipole dipole="0.000000 0.000000 0.000000" charge=0
C	-2.351849	-0.135140	0.268962	6
C	-0.867169	-0.239440	0.123372	6
C	-0.073449	0.819960	-0.090748	6
C	1.406891	0.758730	-0.241408	6
C	2.112341	-0.568840	-0.159818	6
O	2.023001	1.806730	-0.430528	8
H	-2.844439	-0.733920	-0.503358	1
H	-2.706469	0.896400	0.179072	1
H	-2.657579	-0.517140	1.247832	1
H	-0.459378	-1.243250	0.202772	1
H	-0.481789	1.823820	-0.169438	1
H	1.756052	-1.234310	-0.950418	1
H	1.957091	-1.018010	0.824452	1
H	3.186741	-0.415590	-0.300748	1
Es	-2.351793	-0.135157	0.268958	99
Es	-1.602801	-0.186854	0.195566	99
Es	1.947010	1.793408	-0.420901	99
Es	-0.382326	0.354289	0.327029	99
Es	-0.592969	-0.918130	0.177238	99
Es	-0.867264	-0.239529	0.123393	99
Es	1.749901	0.067539	-0.196368	99
Es	-0.452520	0.275011	-0.311616	99
Es	1.754710	1.367879	-0.335775	99
Es	2.023178	1.805778	-0.430437	99
Es	2.112290	-0.568819	-0.159815	99
Es	1.830578	1.492077	-0.387248	99
Es	-2.667816	-0.539935	-0.248978	99
Es	1.854877	-1.010329	-0.681474	99
Es	2.834029	-0.454963	-0.255614	99
Es	-0.073360	0.819991	-0.090773	99
Es	1.991615	-0.858424	0.493627	99
Es	0.657474	0.763236	-0.162075	99
Es	1.406866	0.758692	-0.241399	99
Es	2.233279	2.025922	-0.479135	99
Es	-0.351590	1.491271	-0.142964	99
Es	-2.585665	0.565993	0.207064	99
Es	-2.545464	-0.397841	0.923784	99
37
Properties=species:S:1:pos:R:3:Z:I:1 energy=-268.94413260707654 field_type=dipole dipole="0.000000 0.000000 0.000000" charge=0
C	-2.351849	-0.135140	0.268962	6
C	-0.867169	-0.239440	0.123372	6
C	-0.073449	0.819960	-0.090748	6
C	1.406891	0.758730	-0.241408	6
C	2.112341	-0.568840	-0.159818	6
O	2.023001	1.806730	-0.430528	8
H	-2.844439	-0.733920	-0.503358	1
H	-2.706469	0.896400	0.179072	1
H	-2.657579	-0.517140	1.247832	1
H	-0.459378	-1.243250	0.202772	1
H	-0.481789	1.823820	-0.169438	1
H	1.756052	-1.234310	-0.950418	1
H	1.957091	-1.018010	0.824452	1
H	3.186741	-0.415590	-0.300748	1
Es	2.023033	1.805845	-0.430428	99
Es	-0.351438	1.491165	-0.142785	99
Es	-0.386838	0.351086	0.327521	99
Es	-1.603239	-0.187231	0.195499	99
Es	2.833058	-0.451764	-0.255965	99
Es	-2.351794	-0.135156	0.268959	99
Es	-0.073359	0.819993	-0.090768	99
Es	-0.448025	0.278214	-0.312088	99
Es	-0.867265	-0.239529	0.123395	99
Es	-0.593224	-0.918155	0.177187	99
Es	-2.584967	0.566337	0.206905	99
Es	1.861716	-0.994744	-0.682176	99
Es	-2.533335	-0.383907	0.915893	99
Es	-2.679920	-0.553838	-0.240584	99
Es	1.984371	-0.873784	0.494201	99
Es	1.832106	1.493807	-0.373513	99
Es	2.229241	2.028981	-0.479946	99
Es	1.752031	1.367123	-0.348762	99
Es	1.406864	0.758697	-0.241401	99
Es	1.751147	0.064530	-0.196157	99
Es	1.952421	1.789293	-0.420860	99
Es	0.657366	0.762962	-0.162225	99
Es	2.112291	-0.568820	-0.159815	99
37
Properties=species:S:1:pos:R:3:Z:I:1 energy=-268.94413260707654 field_type=dipole dipole="0.000000 0.000000 0.000000" charge=0
C	-2.351849	-0.135140	0.268962	6
C	-0.867169	-0.239440	0.123372	6
C	-0.073449	0.819960	-0.090748	6
C	1.406891	0.758730	-0.241408	6
C	2.112341	-0.568840	-0.159818	6
O	2.023001	1.806730	-0.430528	8
H	-2.844439	-0.733920	-0.503358	1
H	-2.706469	0.896400	0.179072	1
H	-2.657579	-0.517140	1.247832	1
H	-0.459378	-1.243250	0.202772	1
H	-0.481789	1.823820	-0.169438	1
H	1.756052	-1.234310	-0.950418	1
H	1.957091	-1.018010	0.824452	1
H	3.186741	-0.415590	-0.300748	1
Es	1.751177	1.367121	-0.352007	99
Es	2.112290	-0.568817	-0.159816	99
Es	-0.867264	-0.239529	0.123392	99
Es	2.226371	2.031146	-0.480315	99
Es	-0.351256	1.491123	-0.142750	99
Es	-0.443589	0.281278	-0.310343	99
Es	-0.593261	-0.918053	0.177268	99
Es	-2.529592	-0.379636	0.910462	99
Es	1.982679	-0.877028	0.493466	99
Es	1.863136	-0.991341	-0.681381	99
Es	1.406867	0.758697	-0.241402	99
Es	-2.584795	0.566245	0.206810	99
Es	-2.683501	-0.558247	-0.235012	99
Es	1.955837	1.786227	-0.420948	99
Es	-2.351791	-0.135158	0.268959	99
Es	2.831640	-0.448244	-0.256304	99
Es	1.832511	1.494246	-0.369761	99
Es	-1.603377	-0.187228	0.195539	99
Es	2.022984	1.806304	-0.430477	99
Es	0.657203	0.762950	-0.162262	99
Es	1.752724	0.060992	-0.195914	99
Es	-0.073358	0.819993	-0.090760	99
Es	-0.391394	0.348063	0.325646	99
37
Properties=species:S:1:pos:R:3:Z:I:1 energy=-268.94413260707654 field_type=dipole dipole="0.000000 0.000000 0.000000" charge=0
C	-2.351849	-0.135140	0.268962	6
C	-0.867169	-0.239440	0.123372	6
C	-0.073449	0.819960	-0.090748	6
C	1.406891	0.758730	-0.241408	6
C	2.112341	-0.568840	-0.159818	6
O	2.023001	1.806730	-0.430528	8
H	-2.844439	-0.733920	-0.503358	1
H	-2.706469	0.896400	0.179072	1
H	-2.657579	-0.517140	1.247832	1
H	-0.459378	-1.243250	0.202772	1
H	-0.481789	1.823820	-0.169438	1
H	1.756052	-1.234310	-0.950418	1
H	1.957091	-1.018010	0.824452	1
H	3.186741	-0.415590	-0.300748	1
Es	2.022906	1.806355	-0.430475	99
Es	2.224055	2.033024	-0.479941	99
Es	1.980537	-0.880762	0.491816	99
Es	-0.392208	0.347459	0.325449	99
Es	0.657129	0.762716	-0.162315	99
Es	-0.073358	0.819993	-0.090762	99
Es	1.832521	1.494276	-0.369564	99
Es	1.958729	1.783996	-0.421086	99
Es	-0.442832	0.281929	-0.309993	99
Es	-0.867263	-0.239527	0.123399	99
Es	-1.604736	-0.188716	0.195800	99
Es	2.830547	-0.445768	-0.256331	99
Es	2.112290	-0.568818	-0.159814	99
Es	1.750720	1.367380	-0.352439	99
Es	-2.527290	-0.377015	0.906272	99
Es	-2.583567	0.567067	0.206595	99
Es	-2.685812	-0.560883	-0.230749	99
Es	1.864942	-0.987415	-0.679881	99
Es	1.406862	0.758699	-0.241401	99
Es	1.754089	0.058884	-0.195891	99
Es	-2.351794	-0.135156	0.268958	99
Es	-0.593046	-0.917473	0.177078	99
Es	-0.351182	1.490858	-0.142639	99
37
Properties=species:S:1:pos:R:3:Z:I:1 energy=-268.94413260707654 field_type=dipole dipole="0.000000 0.000000 0.000000" charge=0
C	-2.351849	-0.135140	0.268962	6
C	-0.867169	-0.239440	0.123372	6
C	-0.073449	0.819960	-0.090748	6
C	1.406891	0.758730	-0.241408	6
C	2.112341	-0.568840	-0.159818	6
O	2.023001	1.806730	-0.430528	8
H	-2.844439	-0.733920	-0.503358	1
H	-2.706469	0.896400	0.179072	1
H	-2.657579	-0.517140	1.247832	1
H	-0.459378	-1.243250	0.202772	1
H	-0.481789	1.823820	-0.169438	1
H	1.756052	-1.234310	-0.950418	1
H	1.957091	-1.018010	0.824452	1
H	3.186741	-0.415590	-0.300748	1
Es	-0.867267	-0.239526	0.123393	99
Es	-2.565592	-0.421613	0.912273	99
Es	-0.379772	0.356831	0.327060	99
Es	2.828844	-0.442245	-0.256525	99
Es	-2.647455	-0.516622	-0.238147	99
Es	1.756082	0.055559	-0.195155	99
Es	2.112290	-0.568819	-0.159816	99
Es	1.406864	0.758698	-0.241401	99
Es	1.999710	1.790621	-0.426152	99
Es	1.748649	1.367236	-0.361340	99
Es	-0.073358	0.819993	-0.090761	99
Es	-0.593305	-0.917738	0.177506	99
Es	1.998916	-0.839521	0.479374	99
Es	1.846307	-1.028435	-0.667171	99
Es	-0.455300	0.272520	-0.311894	99
Es	-1.604385	-0.188053	0.195923	99
Es	1.833341	1.495154	-0.361440	99
Es	0.657121	0.762554	-0.161281	99
Es	-2.351793	-0.135157	0.268958	99
Es	-0.351184	1.490766	-0.143634	99
Es	-2.583734	0.566902	0.206919	99
Es	2.221430	2.035172	-0.479190	99
Es	1.985831	1.796828	-0.425414	99
37
Properties=species:S:1:pos:R:3:Z:I:1 energy=-268.94413260707654 field_type=dipole dipole="0.000000 0.000000 0.000000" charge=0
C	-2.351849	-0.135140	0.268962	6
C	-0.867169	-0.239440	0.123372	6
C	-0.073449	0.819960	-0.090748	6
C	1.406891	0.758730	-0.241408	6
C	2.112341	-0.568840	-0.159818	6
O	2.023001	1.806730	-0.430528	8
H	-2.844439	-0.733920	-0.503358	1
H	-2.706469	0.896400	0.179072	1
H	-2.657579	-0.517140	1.247832	1
H	-0.459378	-1.243250	0.202772	1
H	-0.481789	1.823820	-0.169438	1
H	1.756052	-1.234310	-0.950418	1
H	1.957091	-1.018010	0.824452	1
H	3.186741	-0.415590	-0.300748	1
Es	1.753698	1.370603	-0.326994	99
Es	0.657004	0.762156	-0.161335	99
Es	-0.867264	-0.239528	0.123394	99
Es	-0.593269	-0.917671	0.177425	99
Es	-0.376050	0.359027	0.323641	99
Es	1.829505	1.490864	-0.396156	99
Es	-0.351064	1.490791	-0.143761	99
Es	1.757454	0.053388	-0.195085	99
Es	-2.582659	0.567596	0.206666	99
Es	-2.647572	-0.516592	-0.238138	99
Es	2.222449	2.034440	-0.479009	99
Es	1.999837	-0.837128	0.476173	99
Es	-0.073357	0.819993	-0.090758	99
Es	1.960542	1.782656	-0.420980	99
Es	1.406865	0.758698	-0.241399	99
Es	-0.459069	0.270393	-0.308198	99
Es	1.845357	-1.030750	-0.663754	99
Es	2.827455	-0.439767	-0.256838	99
Es	-1.605360	-0.188969	0.195971	99
Es	-2.351793	-0.135159	0.268957	99
Es	-2.565540	-0.421552	0.912545	99
Es	2.112287	-0.568817	-0.159811	99
Es	2.022784	1.806436	-0.430468	99
37
Properties=species:S:1:pos:R:3:Z:I:1 energy=-268.94413260707654 field_type=dipole dipole="0.000000 0.000000 0.000000" charge=0
C	-2.351849	-0.135140	0.268962	6
C	-0.867169	-0.239440	0.123372	6
C	-0.073449	0.819960	-0.090748	6
C	1.406891	0.758730	-0.241408	6
C	2.112341	-0.568840	-0.159818	6
O	2.023001	1.806730	-0.430528	8
H	-2.844439	-0.733920	-0.503358	1
H	-2.706469	0.896400	0.179072	1
H	-2.657579	-0.517140	1.247832	1
H	-0.459378	-1.243250	0.202772	1
H	-0.481789	1.823820	-0.169438	1
H	1.756052	-1.234310	-0.950418	1
H	1.957091	-1.018010	0.824452	1
H	3.186741	-0.415590	-0.300748	1
Es	2.112290	-0.568818	-0.159814	99
Es	-0.593166	-0.917375	0.177130	99
Es	-0.441260	0.283248	-0.308895	99
Es	1.753907	1.371820	-0.321151	99
Es	-1.606266	-0.189769	0.195996	99
Es	-0.073357	0.819992	-0.090762	99
Es	-0.867262	-0.239530	0.123392	99
Es	2.221675	2.034782	-0.480206	99
Es	-0.393886	0.346180	0.324360	99
Es	2.023203	1.805896	-0.430449	99
Es	-2.521712	-0.370714	0.892537	99
Es	-2.581942	0.568010	0.206188	99
Es	1.961244	1.782346	-0.421111	99
Es	1.406865	0.758698	-0.241401	99
Es	0.656751	0.761783	-0.162382	99
Es	-2.351792	-0.135158	0.268958	99
Es	2.825944	-0.437244	-0.257191	99
Es	1.828958	1.490150	-0.400725	99
Es	-0.350747	1.491058	-0.142566	99
Es	1.758890	0.050837	-0.195626	99
Es	1.979047	-0.883166	0.490867	99
Es	1.866079	-0.984675	-0.678503	99
Es	-2.691221	-0.567250	-0.216561	99
37
Properties=species:S:1:pos:R:3:Z:I:1 energy=-268.94413260707654 field_type=dipole dipole="0.000000 0.000000 0.000000" charge=0
C	-2.351849	-0.135140	0.268962	6
C	-0.867169	-0.239440	0.123372	6
C	-0.073449	0.819960	-0.090748	6
C	1.406891	0.758730	-0.241408	6
C	2.112341	-0.568840	-0.159818	6
O	2.023001	1.806730	-0.430528	8
H	-2.844439	-0.733920	-0.503358	1
H	-2.706469	0.896400	0.179072	1
H	-2.657579	-0.517140	1.247832	1
H	-0.459378	-1.243250	0.202772	1
H	-0.481789	1.823820	-0.169438	1
H	1.756052	-1.234310	-0.950418	1
H	1.957091	-1.018010	0.824452	1
H	3.186741	-0.415590	-0.300748	1
Es	1.406864	0.758698	-0.241402	99
Es	-0.396988	0.344003	0.320911	99
Es	2.220686	2.035591	-0.479911	99
Es	-0.438208	0.285395	-0.305674	99
Es	2.112290	-0.568819	-0.159815	99
Es	-0.867265	-0.239527	0.123394	99
Es	-2.581719	0.568202	0.206191	99
Es	0.656803	0.761870	-0.162265	99
Es	-0.592956	-0.917064	0.176946	99
Es	2.824702	-0.435184	-0.257178	99
Es	-2.351793	-0.135156	0.268958	99
Es	-2.522670	-0.371854	0.895428	99
Es	-0.073358	0.819993	-0.090761	99
Es	1.760256	0.048939	-0.195322	99
Es	-2.690198	-0.566193	-0.219604	99
Es	1.749751	1.366544	-0.360932	99
Es	2.022812	1.806416	-0.430470	99
Es	-1.606658	-0.190315	0.196138	99
Es	1.833403	1.495189	-0.361117	99
Es	1.977102	-0.887100	0.488055	99
Es	1.962368	1.781269	-0.421053	99
Es	-0.350826	1.490889	-0.142331	99
Es	1.867841	-0.980682	-0.676099	99
