43
Properties=species:S:1:pos:R:3:Z:I:1 energy=-271.29006081898325 field_type=dipole dipole="0.000000 0.000000 0.000000" charge=0
C	-2.286562	-1.282481	-0.114359	6
C	-0.767452	-1.214251	-0.107909	6
C	-0.272962	0.234769	-0.102809	6
C	1.256758	0.322599	-0.119509	6
C	1.732578	1.768199	-0.169679	6
O	1.795918	-0.295231	1.045841	8
H	-2.619152	-2.325311	-0.118729	1
H	-2.698202	-0.790971	-1.001809	1
H	-2.704792	-0.796461	0.773091	1
H	-0.380613	-1.735061	-0.991249	1
H	-0.391943	-1.745831	0.773511	1
H	-0.660462	0.733569	0.794851	1
H	-0.680052	0.763029	-0.973799	1
H	1.651498	-0.215421	-0.988239	1
H	1.386758	2.327079	0.706941	1
H	1.373898	2.273899	-1.071249	1
H	2.827038	1.809949	-0.157219	1
H	1.437748	0.167919	1.822321	1
Es	-0.548850	0.597473	-0.702468	99
Es	1.256821	0.322544	-0.119302	99
Es	1.732565	1.768209	-0.169681	99
Es	1.587292	-0.029479	1.450826	99
Es	-0.515652	-0.485573	-0.105795	99
Es	-2.569568	-0.946878	0.493924	99
Es	1.576943	-0.048421	0.623309	99
Es	-0.501272	-1.567194	-0.718296	99
Es	0.483467	0.282451	-0.111810	99
Es	1.686871	-0.583101	1.057829	99
Es	1.795680	-0.294937	1.045831	99
Es	1.483038	2.110055	-0.785591	99
Es	2.475154	1.795118	-0.165431	99
Es	-2.286547	-1.282478	-0.114359	99
Es	-2.566236	-0.943179	-0.722598	99
Es	1.524302	-0.046998	-0.715400	99
Es	-0.767488	-1.214207	-0.107920	99
Es	-0.531349	0.580694	0.519863	99
Es	1.487140	2.143164	0.433463	99
Es	-1.534407	-1.242708	-0.112970	99
Es	2.095608	-0.233197	1.043658	99
Es	-0.272955	0.234756	-0.102808	99
Es	-2.514043	-1.994897	-0.117270	99
Es	1.491493	1.063751	-0.148385	99
Es	-0.515909	-1.573028	0.494204	99
43
Properties=species:S:1:pos:R:3:Z:I:1 energy=-271.29006081898325 field_type=dipole dipole="0.000000 0.000000 0.000000" charge=0
C	-2.286562	-1.282481	-0.114359	6
C	-0.767452	-1.214251	-0.107909	6
C	-0.272962	0.234769	-0.102809	6
C	1.256758	0.322599	-0.119509	6
C	1.732578	1.768199	-0.169679	6
O	1.795918	-0.295231	1.045841	8
H	-2.619152	-2.325311	-0.118729	1
H	-2.698202	-0.790971	-1.001809	1
H	-2.704792	-0.796461	0.773091	1
H	-0.380613	-1.735061	-0.991249	1
H	-0.391943	-1.745831	0.773511	1
H	-0.660462	0.733569	0.794851	1
H	-0.680052	0.763029	-0.973799	1
H	1.651498	-0.215421	-0.988239	1
H	1.386758	2.327079	0.706941	1
H	1.373898	2.273899	-1.071249	1
H	2.827038	1.809949	-0.157219	1
H	1.437748	0.167919	1.822321	1
Es	2.095670	-0.245062	1.043440	99
Es	-0.516132	-1.572609	0.494971	99
Es	-0.500991	-1.567538	-0.719563	99
Es	1.580775	-0.045865	0.621997	99
Es	1.679917	-0.575883	1.056212	99
Es	-2.286548	-1.282479	-0.114358	99
Es	1.491700	1.063886	-0.148157	99
Es	1.795790	-0.294813	1.045847	99
Es	-2.513031	-1.994133	-0.117620	99
Es	1.486959	2.143685	0.434858	99
Es	-2.569939	-0.946578	0.495409	99
Es	-0.548540	0.597010	-0.703194	99
Es	-2.565949	-0.943617	-0.723436	99
Es	-0.272956	0.234758	-0.102809	99
Es	1.732566	1.768208	-0.169680	99
Es	1.590113	-0.027321	1.454245	99
Es	1.256822	0.322544	-0.119299	99
Es	-0.767487	-1.214207	-0.107920	99
Es	1.483470	2.109653	-0.786513	99
Es	-1.534467	-1.242847	-0.112977	99
Es	-0.531586	0.581133	0.521173	99
Es	-0.515788	-0.485498	-0.105840	99
Es	0.483200	0.282370	-0.111769	99
Es	2.473993	1.794408	-0.165679	99
Es	1.524539	-0.047263	-0.716514	99
43
Properties=species:S:1:pos:R:3:Z:I:1 energy=-271.29006081898325 field_type=dipole dipole="0.000000 0.000000 0.000000" charge=0
C	-2.286562	-1.282481	-0.114359	6
C	-0.767452	-1.214251	-0.107909	6
C	-0.272962	0.234769	-0.102809	6
C	1.256758	0.322599	-0.119509	6
C	1.732578	1.768199	-0.169679	6
O	1.795918	-0.295231	1.045841	8
H	-2.619152	-2.325311	-0.118729	1
H	-2.698202	-0.790971	-1.001809	1
H	-2.704792	-0.796461	0.773091	1
H	-0.380613	-1.735061	-0.991249	1
H	-0.391943	-1.745831	0.773511	1
H	-0.660462	0.733569	0.794851	1
H	-0.680052	0.763029	-0.973799	1
H	1.651498	-0.215421	-0.988239	1
H	1.386758	2.327079	0.706941	1
H	1.373898	2.273899	-1.071249	1
H	2.827038	1.809949	-0.157219	1
H	1.437748	0.167919	1.822321	1
Es	-2.565780	-0.943908	-0.723831	99
Es	2.090720	-0.237022	1.043163	99
Es	-2.570204	-0.946471	0.496230	99
Es	-0.767487	-1.214207	-0.107921	99
Es	1.483700	2.109423	-0.786958	99
Es	2.473370	1.793970	-0.165867	99
Es	-0.531796	0.581331	0.521863	99
Es	1.795603	-0.294985	1.045850	99
Es	-0.548325	0.596725	-0.703553	99
Es	1.578520	-0.048501	0.620642	99
Es	-0.516305	-1.572392	0.495473	99
Es	1.256820	0.322545	-0.119307	99
Es	-0.500920	-1.567737	-0.720323	99
Es	1.524588	-0.047420	-0.717119	99
Es	1.587508	-0.029361	1.455953	99
Es	1.491869	1.064064	-0.148117	99
Es	-2.286549	-1.282480	-0.114358	99
Es	1.689832	-0.578994	1.056258	99
Es	-1.534372	-1.242736	-0.112984	99
Es	1.486859	2.143901	0.435693	99
Es	1.732565	1.768209	-0.169681	99
Es	0.483109	0.282416	-0.111665	99
Es	-2.512434	-1.993660	-0.117875	99
Es	-0.272955	0.234756	-0.102808	99
Es	-0.515833	-0.485526	-0.105939	99
43
Properties=species:S:1:pos:R:3:Z:I:1 energy=-271.29006081898325 field_type=dipole dipole="0.000000 0.000000 0.000000" charge=0
C	-2.286562	-1.282481	-0.114359	6
C	-0.767452	-1.214251	-0.107909	6
C	-0.272962	0.234769	-0.102809	6
C	1.256758	0.322599	-0.119509	6
C	1.732578	1.768199	-0.169679	6
O	1.795918	-0.295231	1.045841	8
H	-2.619152	-2.325311	-0.118729	1
H	-2.698202	-0.790971	-1.001809	1
H	-2.704792	-0.796461	0.773091	1
H	-0.380613	-1.735061	-0.991249	1
H	-0.391943	-1.745831	0.773511	1
H	-0.660462	0.733569	0.794851	1
H	-0.680052	0.763029	-0.973799	1
H	1.651498	-0.215421	-0.988239	1
H	1.386758	2.327079	0.706941	1
H	1.373898	2.273899	-1.071249	1
H	2.827038	1.809949	-0.157219	1
H	1.437748	0.167919	1.822321	1
Es	-1.534295	-1.242857	-0.112977	99
Es	1.587148	-0.029421	1.456992	99
Es	-2.570335	-0.946315	0.496698	99
Es	-2.286548	-1.282479	-0.114359	99
Es	1.689564	-0.576779	1.055818	99
Es	0.483033	0.282288	-0.111607	99
Es	-0.272956	0.234756	-0.102808	99
Es	2.472904	1.793692	-0.166023	99
Es	-0.500749	-1.567887	-0.720816	99
Es	-2.565644	-0.944143	-0.724084	99
Es	-0.516474	-1.572164	0.495675	99
Es	1.491833	1.064149	-0.147981	99
Es	-2.512146	-1.993328	-0.117966	99
Es	-0.767487	-1.214208	-0.107920	99
Es	1.256822	0.322544	-0.119299	99
Es	1.579852	-0.048348	0.619478	99
Es	-0.531845	0.581464	0.522335	99
Es	-0.548172	0.596577	-0.703910	99
Es	2.089881	-0.239277	1.043888	99
Es	1.486857	2.144131	0.436205	99
Es	1.795698	-0.295004	1.045819	99
Es	1.483862	2.109213	-0.787253	99
Es	-0.515909	-0.485422	-0.105835	99
Es	1.732565	1.768209	-0.169680	99
Es	1.524642	-0.047453	-0.717565	99
43
Properties=species:S:1:pos:R:3:Z:I:1 energy=-271.29006081898325 field_type=dipole dipole="0.000000 0.000000 0.000000" charge=0
C	-2.286562	-1.282481	-0.114359	6
C	-0.767452	-1.214251	-0.107909	6
C	-0.272962	0.234769	-0.102809	6
C	1.256758	0.322599	-0.119509	6
C	1.732578	1.768199	-0.169679	6
O	1.795918	-0.295231	1.045841	8
H	-2.619152	-2.325311	-0.118729	1
H	-2.698202	-0.790971	-1.001809	1
H	-2.704792	-0.796461	0.773091	1
H	-0.380613	-1.735061	-0.991249	1
H	-0.391943	-1.745831	0.773511	1
H	-0.660462	0.733569	0.794851	1
H	-0.680052	0.763029	-0.973799	1
H	1.651498	-0.215421	-0.988239	1
H	1.386758	2.327079	0.706941	1
H	1.373898	2.273899	-1.071249	1
H	2.827038	1.809949	-0.157219	1
H	1.437748	0.167919	1.822321	1
Es	1.589461	-0.027534	1.457866	99
Es	1.685893	-0.573948	1.056109	99
Es	-1.534285	-1.242728	-0.113003	99
Es	1.580555	-0.048073	0.619345	99
Es	-0.515828	-0.485609	-0.105916	99
Es	1.795718	-0.295012	1.045853	99
Es	-0.516642	-1.572039	0.495997	99
Es	-2.565540	-0.944265	-0.724341	99
Es	1.486815	2.144240	0.436580	99
Es	0.482900	0.282364	-0.111570	99
Es	-0.767488	-1.214207	-0.107921	99
Es	-0.500769	-1.568055	-0.721223	99
Es	1.492099	1.064058	-0.147890	99
Es	1.732565	1.768209	-0.169681	99
Es	1.484022	2.109081	-0.787609	99
Es	-2.286548	-1.282479	-0.114359	99
Es	-2.570373	-0.946246	0.497148	99
Es	-2.511868	-1.993039	-0.118060	99
Es	1.256822	0.322544	-0.119303	99
Es	2.472361	1.793636	-0.166018	99
Es	-0.548057	0.596454	-0.704075	99
Es	-0.531891	0.581560	0.522687	99
Es	1.524684	-0.047561	-0.717864	99
Es	-0.272956	0.234756	-0.102809	99
Es	2.090450	-0.244167	1.042881	99
43
Properties=species:S:1:pos:R:3:Z:I:1 energy=-271.29006081898325 field_type=dipole dipole="0.000000 0.000000 0.000000" charge=0
C	-2.286562	-1.282481	-0.114359	6
C	-0.767452	-1.214251	-0.107909	6
C	-0.272962	0.234769	-0.102809	6
C	1.256758	0.322599	-0.119509	6
C	1.732578	1.768199	-0.169679	6
O	1.795918	-0.295231	1.045841	8
H	-2.619152	-2.325311	-0.118729	1
H	-2.698202	-0.790971	-1.001809	1
H	-2.704792	-0.796461	0.773091	1
H	-0.380613	-1.735061	-0.991249	1
H	-0.391943	-1.745831	0.773511	1
H	-0.660462	0.733569	0.794851	1
H	-0.680052	0.763029	-0.973799	1
H	1.651498	-0.215421	-0.988239	1
H	1.386758	2.327079	0.706941	1
H	1.373898	2.273899	-1.071249	1
H	2.827038	1.809949	-0.157219	1
H	1.437748	0.167919	1.822321	1
Es	1.691433	-0.576700	1.056432	99
Es	-2.570463	-0.946210	0.497375	99
Es	1.795696	-0.294934	1.045862	99
Es	2.472305	1.793309	-0.166055	99
Es	0.482934	0.282413	-0.111387	99
Es	-2.286548	-1.282479	-0.114358	99
Es	-2.565471	-0.944387	-0.724565	99
Es	1.588472	-0.028368	1.458374	99
Es	-0.767487	-1.214208	-0.107921	99
Es	-0.272956	0.234756	-0.102808	99
Es	-0.515803	-0.485475	-0.105953	99
Es	-0.516623	-1.571908	0.496082	99
Es	-0.547909	0.596218	-0.704274	99
Es	-1.534291	-1.242915	-0.112908	99
Es	2.087335	-0.239142	1.042535	99
Es	-0.532214	0.581592	0.522920	99
Es	1.524740	-0.047531	-0.718154	99
Es	-2.511705	-1.992759	-0.118069	99
Es	1.491935	1.064267	-0.147794	99
Es	1.579142	-0.049578	0.618868	99
Es	1.484127	2.108946	-0.787760	99
Es	1.256823	0.322542	-0.119299	99
Es	1.732566	1.768208	-0.169681	99
Es	-0.500674	-1.568046	-0.721470	99
Es	1.486736	2.144330	0.436833	99
43
Properties=species:S:1:pos:R:3:Z:I:1 energy=-271.29006081898325 field_type=dipole dipole="0.000000 0.000000 0.000000" charge=0
C	-2.286562	-1.282481	-0.114359	6
C	-0.767452	-1.214251	-0.107909	6
C	-0.272962	0.234769	-0.102809	6
C	1.256758	0.322599	-0.119509	6
C	1.732578	1.768199	-0.169679	6
O	1.795918	-0.295231	1.045841	8
H	-2.619152	-2.325311	-0.118729	1
H	-2.698202	-0.790971	-1.001809	1
H	-2.704792	-0.796461	0.773091	1
H	-0.380613	-1.735061	-0.991249	1
H	-0.391943	-1.745831	0.773511	1
H	-0.660462	0.733569	0.794851	1
H	-0.680052	0.763029	-0.973799	1
H	1.651498	-0.215421	-0.988239	1
H	1.386758	2.327079	0.706941	1
H	1.373898	2.273899	-1.071249	1
H	2.827038	1.809949	-0.157219	1
H	1.437748	0.167919	1.822321	1
Es	-0.500601	-1.568079	-0.721705	99
Es	1.589220	-0.027945	1.458707	99
Es	-0.272956	0.234756	-0.102808	99
Es	2.472081	1.793211	-0.166246	99
Es	-0.547851	0.596217	-0.704367	99
Es	2.087348	-0.241149	1.042589	99
Es	-0.516765	-1.571874	0.496165	99
Es	-0.532106	0.581677	0.523091	99
Es	1.689845	-0.575639	1.056272	99
Es	-1.534383	-1.242808	-0.112951	99
Es	-2.570528	-0.946197	0.497665	99
Es	1.256824	0.322543	-0.119301	99
Es	-2.565393	-0.944471	-0.724688	99
Es	-2.286548	-1.282479	-0.114359	99
Es	1.486809	2.144364	0.437140	99
Es	1.732564	1.768208	-0.169680	99
Es	-0.767488	-1.214207	-0.107920	99
Es	0.482923	0.282246	-0.111411	99
Es	-2.511473	-1.992626	-0.118177	99
Es	1.795755	-0.295005	1.045862	99
Es	-0.515919	-0.485496	-0.105820	99
Es	1.484103	2.108877	-0.787813	99
Es	1.524763	-0.047516	-0.718330	99
Es	1.579908	-0.048970	0.618689	99
Es	1.491969	1.064303	-0.147781	99
43
Properties=species:S:1:pos:R:3:Z:I:1 energy=-271.29006081898325 field_type=dipole dipole="0.000000 0.000000 0.000000" charge=0
C	-2.286562	-1.282481	-0.114359	6
C	-0.767452	-1.214251	-0.107909	6
C	-0.272962	0.234769	-0.102809	6
C	1.256758	0.322599	-0.119509	6
C	1.732578	1.768199	-0.169679	6
O	1.795918	-0.295231	1.045841	8
H	-2.619152	-2.325311	-0.118729	1
H	-2.698202	-0.790971	-1.001809	1
H	-2.704792	-0.796461	0.773091	1
H	-0.380613	-1.735061	-0.991249	1
H	-0.391943	-1.745831	0.773511	1
H	-0.660462	0.733569	0.794851	1
H	-0.680052	0.763029	-0.973799	1
H	1.651498	-0.215421	-0.988239	1
H	1.386758	2.327079	0.706941	1
H	1.373898	2.273899	-1.071249	1
H	2.827038	1.809949	-0.157219	1
H	1.437748	0.167919	1.822321	1
Es	-0.515800	-0.485516	-0.105942	99
Es	1.690591	-0.574799	1.056207	99
Es	-1.534454	-1.242901	-0.112839	99
Es	1.589237	-0.028176	1.459342	99
Es	-2.511402	-1.992533	-0.118162	99
Es	1.256824	0.322543	-0.119302	99
Es	-2.286548	-1.282479	-0.114358	99
Es	-0.272956	0.234757	-0.102808	99
Es	-2.570556	-0.946117	0.497766	99
Es	-0.547843	0.596179	-0.704402	99
Es	1.795706	-0.294971	1.045872	99
Es	-0.500600	-1.568219	-0.721761	99
Es	1.579449	-0.049359	0.618418	99
Es	-0.532057	0.581704	0.523309	99
Es	-0.767487	-1.214208	-0.107921	99
Es	-0.516759	-1.571707	0.496160	99
Es	1.524784	-0.047616	-0.718445	99
Es	1.492119	1.064412	-0.147792	99
Es	0.482748	0.282378	-0.111454	99
Es	1.484333	2.108814	-0.788074	99
Es	1.486772	2.144466	0.437413	99
Es	2.087025	-0.241353	1.042263	99
Es	2.471729	1.792990	-0.166189	99
Es	-2.565321	-0.944555	-0.724797	99
Es	1.732565	1.768208	-0.169681	99
43
Properties=species:S:1:pos:R:3:Z:I:1 energy=-271.29006081898325 field_type=dipole dipole="0.000000 0.000000 0.000000" charge=0
C	-2.286562	-1.282481	-0.114359	6
C	-0.767452	-1.214251	-0.107909	6
C	-0.272962	0.234769	-0.102809	6
C	1.256758	0.322599	-0.119509	6
C	1.732578	1.768199	-0.169679	6
O	1.795918	-0.295231	1.045841	8
H	-2.619152	-2.325311	-0.118729	1
H	-2.698202	-0.790971	-1.001809	1
H	-2.704792	-0.796461	0.773091	1
H	-0.380613	-1.735061	-0.991249	1
H	-0.391943	-1.745831	0.773511	1
H	-0.660462	0.733569	0.794851	1
H	-0.680052	0.763029	-0.973799	1
H	1.651498	-0.215421	-0.988239	1
H	1.386758	2.327079	0.706941	1
H	1.373898	2.273899	-1.071249	1
H	2.827038	1.809949	-0.157219	1
H	1.437748	0.167919	1.822321	1
Es	-2.511315	-1.992392	-0.118223	99
Es	-2.570600	-0.946054	0.497951	99
Es	1.692421	-0.575816	1.055648	99
Es	-0.532099	0.581730	0.523412	99
Es	1.486741	2.144555	0.437416	99
Es	-1.534344	-1.242861	-0.112924	99
Es	1.524750	-0.047634	-0.718585	99
Es	1.579824	-0.049450	0.618436	99
Es	1.492002	1.064408	-0.147720	99
Es	1.588034	-0.028889	1.459557	99
Es	-0.272956	0.234756	-0.102808	99
Es	-0.547853	0.596058	-0.704605	99
Es	1.795730	-0.294906	1.045828	99
Es	-2.286548	-1.282479	-0.114359	99
Es	-2.565257	-0.944651	-0.724851	99
Es	-0.500571	-1.568248	-0.721973	99
Es	2.471833	1.792981	-0.166303	99
Es	0.482809	0.282344	-0.111391	99
Es	2.085998	-0.239585	1.042691	99
Es	-0.516845	-1.571642	0.496368	99
Es	1.484273	2.108667	-0.788000	99
Es	-0.767486	-1.214210	-0.107920	99
Es	-0.515831	-0.485492	-0.105844	99
Es	1.732566	1.768210	-0.169681	99
Es	1.256823	0.322542	-0.119299	99
43
Properties=species:S:1:pos:R:3:Z:I:1 energy=-271.29006081898325 field_type=dipole dipole="0.000000 0.000000 0.000000" charge=0
C	-2.286562	-1.282481	-0.114359	6
C	-0.767452	-1.214251	-0.107909	6
C	-0.272962	0.234769	-0.102809	6
C	1.256758	0.322599	-0.119509	6
C	1.732578	1.768199	-0.169679	6
O	1.795918	-0.295231	1.045841	8
H	-2.619152	-2.325311	-0.118729	1
H	-2.698202	-0.790971	-1.001809	1
H	-2.704792	-0.796461	0.773091	1
H	-0.380613	-1.735061	-0.991249	1
H	-0.391943	-1.745831	0.773511	1
H	-0.660462	0.733569	0.794851	1
H	-0.680052	0.763029	-0.973799	1
H	1.651498	-0.215421	-0.988239	1
H	1.386758	2.327079	0.706941	1
H	1.373898	2.273899	-1.071249	1
H	2.827038	1.809949	-0.157219	1
H	1.437748	0.167919	1.822321	1
Es	1.524788	-0.047618	-0.718708	99
Es	-2.565228	-0.944721	-0.724884	99
Es	-0.516856	-1.571584	0.496372	99
Es	-0.767487	-1.214208	-0.107920	99
Es	1.691897	-0.575160	1.055816	99
Es	-0.547790	0.596020	-0.704567	99
Es	-2.570666	-0.946058	0.498089	99
Es	1.491994	1.064338	-0.147705	99
Es	1.588547	-0.028509	1.459688	99
Es	-0.532155	0.581753	0.523537	99
Es	2.471673	1.792958	-0.166276	99
Es	1.580153	-0.049316	0.618150	99
Es	-1.534400	-1.242869	-0.112932	99
Es	1.484368	2.108619	-0.788093	99
Es	1.732565	1.768209	-0.169681	99
Es	-0.272956	0.234757	-0.102808	99
Es	1.795560	-0.295022	1.045834	99
Es	-0.515862	-0.485554	-0.105886	99
Es	-2.286548	-1.282479	-0.114358	99
Es	-2.511190	-1.992310	-0.118288	99
Es	1.256823	0.322544	-0.119301	99
Es	0.482768	0.282370	-0.111380	99
Es	2.085892	-0.240590	1.042686	99
Es	1.486696	2.144601	0.437514	99
Es	-0.500486	-1.568233	-0.722077	99
43
Properties=species:S:1:pos:R:3:Z:I:1 energy=-271.29006081898325 field_type=dipole dipole="0.000000 0.000000 0.000000" charge=0
C	-2.286562	-1.282481	-0.114359	6
C	-0.767452	-1.214251	-0.107909	6
C	-0.272962	0.234769	-0.102809	6
C	1.256758	0.322599	-0.119509	6
C	1.732578	1.768199	-0.169679	6
O	1.795918	-0.295231	1.045841	8
H	-2.619152	-2.325311	-0.118729	1
H	-2.698202	-0.790971	-1.001809	1
H	-2.704792	-0.796461	0.773091	1
H	-0.380613	-1.735061	-0.991249	1
H	-0.391943	-1.745831	0.773511	1
H	-0.660462	0.733569	0.794851	1
H	-0.680052	0.763029	-0.973799	1
H	1.651498	-0.215421	-0.988239	1
H	1.386758	2.327079	0.706941	1
H	1.373898	2.273899	-1.071249	1
H	2.827038	1.809949	-0.157219	1
H	1.437748	0.167919	1.822321	1
Es	1.732566	1.768208	-0.169681	99
Es	-0.532173	0.581789	0.523580	99
Es	1.693319	-0.575782	1.055807	99
Es	0.482783	0.282387	-0.111330	99
Es	1.256823	0.322543	-0.119301	99
Es	1.486626	2.144572	0.437605	99
Es	-0.767487	-1.214208	-0.107921	99
Es	-2.565274	-0.944822	-0.724942	99
Es	1.484333	2.108544	-0.788121	99
Es	2.471689	1.792937	-0.166308	99
Es	1.524776	-0.047629	-0.718803	99
Es	2.084642	-0.239461	1.042586	99
Es	-0.547751	0.595979	-0.704609	99
Es	-2.511018	-1.992230	-0.118296	99
Es	-0.516896	-1.571520	0.496426	99
Es	-2.570751	-0.946093	0.498178	99
Es	-1.534390	-1.242730	-0.112929	99
Es	1.579968	-0.049682	0.617871	99
Es	-0.272956	0.234756	-0.102809	99
Es	1.795704	-0.294983	1.045865	99
Es	-2.286544	-1.282478	-0.114359	99
Es	1.492071	1.064407	-0.147679	99
Es	-0.515887	-0.485579	-0.105873	99
Es	-0.500470	-1.568282	-0.722165	99
Es	1.588397	-0.028705	1.460031	99
