31
Properties=species:S:1:pos:R:3:Z:I:1 energy=-266.5282102605148 field_type=dipole dipole="0.000000 0.000000 0.000000" charge=0
C	-0.987833	-1.326803	-0.118433	6
C	0.336597	-1.173323	-0.241673	6
C	1.053127	0.122127	-0.097983	6
O	2.272487	0.151077	-0.230953	8
C	0.356717	1.358717	0.195387	6
C	-0.211183	2.389467	0.438507	6
H	-1.436973	-2.308463	-0.237943	1
H	-1.658273	-0.501953	0.100547	1
H	0.978637	-2.020253	-0.461273	1
H	-0.703303	3.309407	0.653817	1
Es	0.376987	2.029103	0.400623	99
Es	-1.294283	-1.983620	-0.197743	99
Es	-1.437088	-0.777734	0.027692	99
Es	-0.987922	-1.326817	-0.118425	99
Es	0.768467	-1.733816	-0.387816	99
Es	2.400489	0.435968	-0.196131	99
Es	-0.318638	-1.160815	-0.491305	99
Es	0.336684	-1.173233	-0.241678	99
Es	0.356829	1.358487	0.195335	99
Es	-0.247828	-1.269334	0.133631	99
Es	0.668202	-0.508148	-0.163595	99
Es	-0.023577	1.838265	-0.023382	99
Es	-0.531955	2.984498	0.577606	99
Es	2.272177	0.151067	-0.230920	99
Es	1.053032	0.122214	-0.097954	99
Es	-0.119150	1.688518	0.559259	99
Es	1.838751	0.104310	0.064361	99
Es	0.666216	0.757312	0.057456	99
Es	-0.211307	2.389659	0.438553	99
Es	1.783799	0.188783	-0.423502	99
Es	2.383248	-0.136349	-0.293206	99
31
Properties=species:S:1:pos:R:3:Z:I:1 energy=-266.5282102605148 field_type=dipole dipole="0.000000 0.000000 0.000000" charge=0
C	-0.987833	-1.326803	-0.118433	6
C	0.336597	-1.173323	-0.241673	6
C	1.053127	0.122127	-0.097983	6
O	2.272487	0.151077	-0.230953	8
C	0.356717	1.358717	0.195387	6
C	-0.211183	2.389467	0.438507	6
H	-1.436973	-2.308463	-0.237943	1
H	-1.658273	-0.501953	0.100547	1
H	0.978637	-2.020253	-0.461273	1
H	-0.703303	3.309407	0.653817	1
Es	-0.987924	-1.326817	-0.118425	99
Es	0.669352	0.758769	0.056858	99
Es	1.838185	0.107294	0.057475	99
Es	2.384522	0.438228	-0.193794	99
Es	1.785421	0.189208	-0.416424	99
Es	2.272167	0.151083	-0.230928	99
Es	0.336685	-1.173242	-0.241639	99
Es	-0.248879	-1.268668	0.128786	99
Es	1.053033	0.122214	-0.097952	99
Es	-1.438832	-0.775480	0.028192	99
Es	0.341653	1.951395	0.533257	99
Es	0.139123	1.911841	0.007331	99
Es	0.667441	-0.507582	-0.163768	99
Es	0.356833	1.358482	0.195336	99
Es	2.398305	-0.142656	-0.295883	99
Es	-0.536386	2.983267	0.576907	99
Es	-0.245989	1.692899	0.397203	99
Es	-1.292274	-1.983392	-0.197506	99
Es	0.769470	-1.736174	-0.388213	99
Es	-0.211301	2.389666	0.438558	99
Es	-0.317478	-1.162019	-0.486511	99
31
Properties=species:S:1:pos:R:3:Z:I:1 energy=-266.5282102605148 field_type=dipole dipole="0.000000 0.000000 0.000000" charge=0
C	-0.987833	-1.326803	-0.118433	6
C	0.336597	-1.173323	-0.241673	6
C	1.053127	0.122127	-0.097983	6
O	2.272487	0.151077	-0.230953	8
C	0.356717	1.358717	0.195387	6
C	-0.211183	2.389467	0.438507	6
H	-1.436973	-2.308463	-0.237943	1
H	-1.658273	-0.501953	0.100547	1
H	0.978637	-2.020253	-0.461273	1
H	-0.703303	3.309407	0.653817	1
Es	0.336687	-1.173235	-0.241673	99
Es	1.053031	0.122216	-0.097959	99
Es	0.671772	0.760277	0.057380	99
Es	-0.317853	-1.163176	-0.485232	99
Es	2.272196	0.151070	-0.230936	99
Es	0.382678	2.016773	0.446325	99
Es	0.770475	-1.736760	-0.388282	99
Es	1.838461	0.108111	0.056213	99
Es	-0.248231	-1.268079	0.127895	99
Es	2.365541	0.434594	-0.192752	99
Es	-0.987925	-1.326818	-0.118425	99
Es	0.096498	1.851242	0.082697	99
Es	0.666685	-0.507657	-0.164252	99
Es	1.785650	0.188745	-0.415269	99
Es	-0.243348	1.688912	0.408814	99
Es	-0.211288	2.389666	0.438549	99
Es	-0.540636	2.980881	0.576332	99
Es	0.356837	1.358481	0.195330	99
Es	2.416957	-0.139666	-0.297040	99
Es	-1.440303	-0.774954	0.028407	99
Es	-1.290757	-1.982308	-0.197261	99
31
Properties=species:S:1:pos:R:3:Z:I:1 energy=-266.5282102605148 field_type=dipole dipole="0.000000 0.000000 0.000000" charge=0
C	-0.987833	-1.326803	-0.118433	6
C	0.336597	-1.173323	-0.241673	6
C	1.053127	0.122127	-0.097983	6
O	2.272487	0.151077	-0.230953	8
C	0.356717	1.358717	0.195387	6
C	-0.211183	2.389467	0.438507	6
H	-1.436973	-2.308463	-0.237943	1
H	-1.658273	-0.501953	0.100547	1
H	0.978637	-2.020253	-0.461273	1
H	-0.703303	3.309407	0.653817	1
Es	2.350340	0.427050	-0.190860	99
Es	2.432281	-0.133514	-0.299042	99
Es	1.053030	0.122216	-0.097957	99
Es	0.336688	-1.173234	-0.241659	99
Es	0.378352	2.066718	0.254397	99
Es	1.784383	0.190800	-0.415218	99
Es	-0.542550	2.978851	0.579531	99
Es	-1.441296	-0.774933	0.028670	99
Es	0.672597	0.761543	0.054996	99
Es	-0.265029	1.708036	0.285617	99
Es	-0.211304	2.389668	0.438558	99
Es	0.123121	1.782759	0.397466	99
Es	0.771155	-1.736780	-0.388809	99
Es	-0.248089	-1.269204	0.127411	99
Es	-0.987925	-1.326817	-0.118426	99
Es	0.666433	-0.508255	-0.163135	99
Es	0.356848	1.358484	0.195330	99
Es	-0.317927	-1.162220	-0.485442	99
Es	-1.289919	-1.980979	-0.198187	99
Es	1.839776	0.107092	0.056544	99
Es	2.272166	0.151035	-0.230926	99
31
Properties=species:S:1:pos:R:3:Z:I:1 energy=-266.5282102605148 field_type=dipole dipole="0.000000 0.000000 0.000000" charge=0
C	-0.987833	-1.326803	-0.118433	6
C	0.336597	-1.173323	-0.241673	6
C	1.053127	0.122127	-0.097983	6
O	2.272487	0.151077	-0.230953	8
C	0.356717	1.358717	0.195387	6
C	-0.211183	2.389467	0.438507	6
H	-1.436973	-2.308463	-0.237943	1
H	-1.658273	-0.501953	0.100547	1
H	0.978637	-2.020253	-0.461273	1
H	-0.703303	3.309407	0.653817	1
Es	-0.248654	-1.268901	0.126612	99
Es	0.673502	0.762150	0.056072	99
Es	-0.211297	2.389667	0.438553	99
Es	-0.317226	-1.162865	-0.484375	99
Es	0.666044	-0.508050	-0.163779	99
Es	0.771577	-1.737027	-0.388743	99
Es	0.356843	1.358482	0.195340	99
Es	1.784898	0.190528	-0.414374	99
Es	0.389227	2.058537	0.321555	99
Es	1.839554	0.108351	0.055853	99
Es	2.439785	-0.130653	-0.298899	99
Es	-1.441955	-0.774818	0.028804	99
Es	2.342570	0.423081	-0.191360	99
Es	-1.289077	-1.980600	-0.197639	99
Es	0.108994	1.799109	0.286931	99
Es	-0.544290	2.977885	0.578034	99
Es	1.053030	0.122216	-0.097958	99
Es	-0.261323	1.700192	0.329253	99
Es	2.272166	0.151081	-0.230922	99
Es	-0.987926	-1.326817	-0.118427	99
Es	0.336689	-1.173234	-0.241671	99
31
Properties=species:S:1:pos:R:3:Z:I:1 energy=-266.5282102605148 field_type=dipole dipole="0.000000 0.000000 0.000000" charge=0
C	-0.987833	-1.326803	-0.118433	6
C	0.336597	-1.173323	-0.241673	6
C	1.053127	0.122127	-0.097983	6
O	2.272487	0.151077	-0.230953	8
C	0.356717	1.358717	0.195387	6
C	-0.211183	2.389467	0.438507	6
H	-1.436973	-2.308463	-0.237943	1
H	-1.658273	-0.501953	0.100547	1
H	0.978637	-2.020253	-0.461273	1
H	-0.703303	3.309407	0.653817	1
Es	-0.211311	2.389666	0.438558	99
Es	2.449083	-0.125879	-0.298409	99
Es	-0.248045	-1.268484	0.125083	99
Es	0.771733	-1.737290	-0.388736	99
Es	-0.317755	-1.163530	-0.482887	99
Es	2.272180	0.151018	-0.230933	99
Es	0.388351	2.059804	0.315055	99
Es	-0.545248	2.976993	0.578245	99
Es	-0.261288	1.701075	0.325075	99
Es	-1.442260	-0.774616	0.028771	99
Es	0.336690	-1.173233	-0.241666	99
Es	-0.987926	-1.326816	-0.118424	99
Es	0.674091	0.762800	0.056205	99
Es	0.665784	-0.507683	-0.163512	99
Es	2.332865	0.419722	-0.191584	99
Es	1.053032	0.122214	-0.097949	99
Es	0.110079	1.797199	0.297332	99
Es	0.356849	1.358489	0.195325	99
Es	1.836988	0.108783	0.054292	99
Es	1.787851	0.188710	-0.413101	99
Es	-1.288615	-1.980628	-0.197881	99
31
Properties=species:S:1:pos:R:3:Z:I:1 energy=-266.5282102605148 field_type=dipole dipole="0.000000 0.000000 0.000000" charge=0
C	-0.987833	-1.326803	-0.118433	6
C	0.336597	-1.173323	-0.241673	6
C	1.053127	0.122127	-0.097983	6
O	2.272487	0.151077	-0.230953	8
C	0.356717	1.358717	0.195387	6
C	-0.211183	2.389467	0.438507	6
H	-1.436973	-2.308463	-0.237943	1
H	-1.658273	-0.501953	0.100547	1
H	0.978637	-2.020253	-0.461273	1
H	-0.703303	3.309407	0.653817	1
Es	0.336688	-1.173232	-0.241677	99
Es	2.327501	0.416327	-0.191279	99
Es	-0.260371	1.700688	0.328506	99
Es	0.771911	-1.737207	-0.389412	99
Es	0.387597	2.060315	0.311642	99
Es	-0.250034	-1.269291	0.124773	99
Es	-0.211309	2.389666	0.438556	99
Es	1.053031	0.122215	-0.097952	99
Es	0.110056	1.797082	0.297737	99
Es	1.763334	0.187507	-0.387131	99
Es	-1.442507	-0.774694	0.029294	99
Es	-0.315701	-1.162731	-0.482267	99
Es	-0.987925	-1.326817	-0.118427	99
Es	-0.546019	2.976238	0.578576	99
Es	0.674567	0.763484	0.055595	99
Es	0.356849	1.358491	0.195311	99
Es	2.272157	0.151046	-0.230927	99
Es	2.454005	-0.122058	-0.301381	99
Es	0.665524	-0.507751	-0.164046	99
Es	1.861964	0.109551	0.030824	99
Es	-1.288186	-1.980512	-0.197453	99
31
Properties=species:S:1:pos:R:3:Z:I:1 energy=-266.5282102605148 field_type=dipole dipole="0.000000 0.000000 0.000000" charge=0
C	-0.987833	-1.326803	-0.118433	6
C	0.336597	-1.173323	-0.241673	6
C	1.053127	0.122127	-0.097983	6
O	2.272487	0.151077	-0.230953	8
C	0.356717	1.358717	0.195387	6
C	-0.211183	2.389467	0.438507	6
H	-1.436973	-2.308463	-0.237943	1
H	-1.658273	-0.501953	0.100547	1
H	0.978637	-2.020253	-0.461273	1
H	-0.703303	3.309407	0.653817	1
Es	0.336688	-1.173232	-0.241671	99
Es	-0.987925	-1.326817	-0.118423	99
Es	1.053031	0.122216	-0.097955	99
Es	-1.287723	-1.979910	-0.197153	99
Es	0.772092	-1.737004	-0.389636	99
Es	2.324947	0.411283	-0.191592	99
Es	1.751905	0.184675	-0.345863	99
Es	0.665563	-0.508050	-0.164221	99
Es	-0.259829	1.700678	0.329607	99
Es	2.272130	0.151004	-0.230925	99
Es	0.110011	1.797056	0.297729	99
Es	0.387301	2.060451	0.310595	99
Es	-0.546573	2.975711	0.578803	99
Es	-0.314862	-1.162283	-0.482736	99
Es	1.873397	0.115381	-0.009069	99
Es	0.674729	0.763821	0.055376	99
Es	2.456592	-0.119978	-0.302517	99
Es	-0.211317	2.389663	0.438556	99
Es	0.356847	1.358485	0.195329	99
Es	-1.443009	-0.775046	0.029480	99
Es	-0.250867	-1.269789	0.125146	99
31
Properties=species:S:1:pos:R:3:Z:I:1 energy=-266.5282102605148 field_type=dipole dipole="0.000000 0.000000 0.000000" charge=0
C	-0.987833	-1.326803	-0.118433	6
C	0.336597	-1.173323	-0.241673	6
C	1.053127	0.122127	-0.097983	6
O	2.272487	0.151077	-0.230953	8
C	0.356717	1.358717	0.195387	6
C	-0.211183	2.389467	0.438507	6
H	-1.436973	-2.308463	-0.237943	1
H	-1.658273	-0.501953	0.100547	1
H	0.978637	-2.020253	-0.461273	1
H	-0.703303	3.309407	0.653817	1
Es	-0.987925	-1.326818	-0.118422	99
Es	0.665406	-0.508372	-0.164272	99
Es	-0.547069	2.975293	0.578737	99
Es	0.772367	-1.736869	-0.389582	99
Es	1.747795	0.180422	-0.313137	99
Es	0.336688	-1.173233	-0.241672	99
Es	-0.211314	2.389665	0.438557	99
Es	2.272134	0.151044	-0.230917	99
Es	1.877573	0.120897	-0.041158	99
Es	0.387295	2.060138	0.312071	99
Es	-1.443208	-0.775156	0.029501	99
Es	0.674934	0.764037	0.055325	99
Es	-0.258999	1.700366	0.332994	99
Es	0.109370	1.797831	0.292984	99
Es	-0.315995	-1.162742	-0.483265	99
Es	1.053031	0.122216	-0.097952	99
Es	2.321885	0.407971	-0.192810	99
Es	0.356850	1.358489	0.195321	99
Es	2.459599	-0.117971	-0.301925	99
Es	-0.249692	-1.269410	0.125709	99
Es	-1.287597	-1.979483	-0.197227	99
31
Properties=species:S:1:pos:R:3:Z:I:1 energy=-266.5282102605148 field_type=dipole dipole="0.000000 0.000000 0.000000" charge=0
C	-0.987833	-1.326803	-0.118433	6
C	0.336597	-1.173323	-0.241673	6
C	1.053127	0.122127	-0.097983	6
O	2.272487	0.151077	-0.230953	8
C	0.356717	1.358717	0.195387	6
C	-0.211183	2.389467	0.438507	6
H	-1.436973	-2.308463	-0.237943	1
H	-1.658273	-0.501953	0.100547	1
H	0.978637	-2.020253	-0.461273	1
H	-0.703303	3.309407	0.653817	1
Es	0.356852	1.358486	0.195331	99
Es	2.272150	0.151011	-0.230925	99
Es	0.772613	-1.737034	-0.388073	99
Es	0.665642	-0.508879	-0.162864	99
Es	-1.287554	-1.978861	-0.198071	99
Es	-0.316805	-1.162605	-0.484349	99
Es	-0.248980	-1.269435	0.125742	99
Es	1.053030	0.122217	-0.097962	99
Es	-1.443574	-0.775128	0.028331	99
Es	0.336689	-1.173235	-0.241659	99
Es	-0.547424	2.975307	0.577561	99
Es	-0.987925	-1.326817	-0.118425	99
Es	-0.211318	2.389659	0.438560	99
Es	0.675297	0.763975	0.056855	99
Es	0.387948	2.058639	0.319848	99
Es	2.463824	-0.116126	-0.295601	99
Es	2.318514	0.403729	-0.192519	99
Es	1.856012	0.162975	-0.289693	99
Es	0.109981	1.797082	0.297574	99
Es	1.768533	0.140627	-0.070707	99
Es	-0.260375	1.702728	0.319908	99
31
Properties=species:S:1:pos:R:3:Z:I:1 energy=-266.5282102605148 field_type=dipole dipole="0.000000 0.000000 0.000000" charge=0
C	-0.987833	-1.326803	-0.118433	6
C	0.336597	-1.173323	-0.241673	6
C	1.053127	0.122127	-0.097983	6
O	2.272487	0.151077	-0.230953	8
C	0.356717	1.358717	0.195387	6
C	-0.211183	2.389467	0.438507	6
H	-1.436973	-2.308463	-0.237943	1
H	-1.658273	-0.501953	0.100547	1
H	0.978637	-2.020253	-0.461273	1
H	-0.703303	3.309407	0.653817	1
Es	0.665362	-0.508801	-0.164147	99
Es	0.386693	2.060344	0.309537	99
Es	0.336687	-1.173234	-0.241673	99
Es	-0.987925	-1.326818	-0.118424	99
Es	2.315743	0.400633	-0.192542	99
Es	1.053031	0.122216	-0.097954	99
Es	0.772665	-1.736773	-0.389286	99
Es	2.466019	-0.112887	-0.300971	99
Es	1.745928	0.171555	-0.243280	99
Es	0.356833	1.358484	0.195330	99
Es	0.110271	1.796556	0.300392	99
Es	1.879167	0.132041	-0.112138	99
Es	-0.249026	-1.269278	0.126194	99
Es	-1.443594	-0.775328	0.029285	99
Es	0.675288	0.764357	0.055619	99
Es	2.272136	0.150979	-0.230931	99
Es	-0.316627	-1.162927	-0.483865	99
Es	-0.259353	1.701433	0.327863	99
Es	-0.547505	2.974943	0.578669	99
Es	-0.211322	2.389661	0.438553	99
Es	-1.287340	-1.978842	-0.197369	99
31
Properties=species:S:1:pos:R:3:Z:I:1 energy=-266.5282102605148 field_type=dipole dipole="0.000000 0.000000 0.000000" charge=0
C	-0.987833	-1.326803	-0.118433	6
C	0.336597	-1.173323	-0.241673	6
C	1.053127	0.122127	-0.097983	6
O	2.272487	0.151077	-0.230953	8
C	0.356717	1.358717	0.195387	6
C	-0.211183	2.389467	0.438507	6
H	-1.436973	-2.308463	-0.237943	1
H	-1.658273	-0.501953	0.100547	1
H	0.978637	-2.020253	-0.461273	1
H	-0.703303	3.309407	0.653817	1
Es	-0.318288	-1.163659	-0.484030	99
Es	0.110240	1.796563	0.300248	99
Es	1.053031	0.122216	-0.097955	99
Es	-0.259636	1.702204	0.324154	99
Es	0.675349	0.764270	0.056328	99
Es	0.336689	-1.173234	-0.241671	99
Es	2.272091	0.151288	-0.230880	99
Es	0.772856	-1.736795	-0.388729	99
Es	-0.547728	2.974909	0.578102	99
Es	-0.211322	2.389664	0.438548	99
Es	0.387013	2.059681	0.313124	99
Es	1.871720	0.147733	-0.203891	99
Es	-1.287280	-1.978598	-0.197695	99
Es	2.469207	-0.110915	-0.297884	99
Es	1.752991	0.156516	-0.154518	99
Es	-0.987925	-1.326818	-0.118423	99
Es	0.356853	1.358490	0.195314	99
Es	2.313000	0.397588	-0.192502	99
Es	-0.247408	-1.268549	0.126093	99
Es	0.665440	-0.508991	-0.163603	99
Es	-1.443761	-0.775250	0.028728	99
31
Properties=species:S:1:pos:R:3:Z:I:1 energy=-266.5282102605148 field_type=dipole dipole="0.000000 0.000000 0.000000" charge=0
C	-0.987833	-1.326803	-0.118433	6
C	0.336597	-1.173323	-0.241673	6
C	1.053127	0.122127	-0.097983	6
O	2.272487	0.151077	-0.230953	8
C	0.356717	1.358717	0.195387	6
C	-0.211183	2.389467	0.438507	6
H	-1.436973	-2.308463	-0.237943	1
H	-1.658273	-0.501953	0.100547	1
H	0.978637	-2.020253	-0.461273	1
H	-0.703303	3.309407	0.653817	1
Es	-0.987925	-1.326818	-0.118424	99
Es	0.387046	2.059556	0.314044	99
Es	2.312211	0.395606	-0.191956	99
Es	-0.211314	2.389664	0.438556	99
Es	2.272146	0.150970	-0.230933	99
Es	-1.443752	-0.775219	0.029019	99
Es	-0.548084	2.974461	0.578464	99
Es	0.356856	1.358494	0.195313	99
Es	0.665329	-0.508783	-0.163411	99
Es	2.469821	-0.109911	-0.299489	99
Es	0.772867	-1.736877	-0.388908	99
Es	-1.287184	-1.978675	-0.197631	99
Es	1.876577	0.139739	-0.158227	99
Es	0.110190	1.796601	0.299936	99
Es	-0.259431	1.702462	0.323585	99
Es	-0.311195	-1.160496	-0.481525	99
Es	0.675472	0.764474	0.055993	99
Es	0.336688	-1.173233	-0.241673	99
Es	-0.254502	-1.271729	0.123133	99
Es	1.748284	0.165813	-0.199050	99
Es	1.053031	0.122216	-0.097957	99
31
Properties=species:S:1:pos:R:3:Z:I:1 energy=-266.5282102605148 field_type=dipole dipole="0.000000 0.000000 0.000000" charge=0
C	-0.987833	-1.326803	-0.118433	6
C	0.336597	-1.173323	-0.241673	6
C	1.053127	0.122127	-0.097983	6
O	2.272487	0.151077	-0.230953	8
C	0.356717	1.358717	0.195387	6
C	-0.211183	2.389467	0.438507	6
H	-1.436973	-2.308463	-0.237943	1
H	-1.658273	-0.501953	0.100547	1
H	0.978637	-2.020253	-0.461273	1
H	-0.703303	3.309407	0.653817	1
Es	-0.254280	-1.271515	0.122553	99
Es	2.310443	0.393572	-0.192915	99
Es	-0.311409	-1.160618	-0.480989	99
Es	2.471692	-0.108624	-0.297965	99
Es	0.675614	0.764589	0.056134	99
Es	-1.286994	-1.978831	-0.197933	99
Es	0.772979	-1.736989	-0.388624	99
Es	-0.211315	2.389664	0.438557	99
Es	-0.987925	-1.326817	-0.118425	99
Es	2.272129	0.151052	-0.230917	99
Es	-0.548316	2.974349	0.578066	99
Es	0.356860	1.358487	0.195336	99
Es	1.752807	0.158806	-0.155843	99
Es	0.110157	1.796615	0.299845	99
Es	0.665186	-0.508663	-0.163082	99
Es	1.871997	0.147381	-0.201818	99
Es	0.336689	-1.173234	-0.241667	99
Es	-0.259609	1.702993	0.320885	99
Es	-1.443899	-0.775141	0.028731	99
Es	0.387293	2.059023	0.316894	99
Es	1.053030	0.122217	-0.097962	99
31
Properties=species:S:1:pos:R:3:Z:I:1 energy=-266.5282102605148 field_type=dipole dipole="0.000000 0.000000 0.000000" charge=0
C	-0.987833	-1.326803	-0.118433	6
C	0.336597	-1.173323	-0.241673	6
C	1.053127	0.122127	-0.097983	6
O	2.272487	0.151077	-0.230953	8
C	0.356717	1.358717	0.195387	6
C	-0.211183	2.389467	0.438507	6
H	-1.436973	-2.308463	-0.237943	1
H	-1.658273	-0.501953	0.100547	1
H	0.978637	-2.020253	-0.461273	1
H	-0.703303	3.309407	0.653817	1
Es	2.309399	0.392337	-0.193749	99
Es	-0.548500	2.974192	0.578008	99
Es	0.675700	0.764596	0.056566	99
Es	-0.211311	2.389664	0.438557	99
Es	2.472478	-0.107554	-0.299107	99
Es	-0.238049	-1.261092	0.116179	99
Es	1.053031	0.122216	-0.097956	99
Es	0.110549	1.796067	0.303100	99
Es	0.356849	1.358485	0.195328	99
Es	-0.258844	1.702074	0.326616	99
Es	-0.987925	-1.326817	-0.118426	99
Es	0.665162	-0.508558	-0.164069	99
Es	-0.327503	-1.171238	-0.473592	99
Es	1.752853	0.159262	-0.155462	99
Es	0.336689	-1.173234	-0.241668	99
Es	1.872126	0.147181	-0.200758	99
Es	-1.444026	-0.775274	0.028917	99
Es	-1.286826	-1.978648	-0.197416	99
Es	0.386124	2.060563	0.307647	99
Es	0.772992	-1.736906	-0.388924	99
Es	2.272163	0.151000	-0.230930	99
31
Properties=species:S:1:pos:R:3:Z:I:1 energy=-266.5282102605148 field_type=dipole dipole="0.000000 0.000000 0.000000" charge=0
C	-0.987833	-1.326803	-0.118433	6
C	0.336597	-1.173323	-0.241673	6
C	1.053127	0.122127	-0.097983	6
O	2.272487	0.151077	-0.230953	8
C	0.356717	1.358717	0.195387	6
C	-0.211183	2.389467	0.438507	6
H	-1.436973	-2.308463	-0.237943	1
H	-1.658273	-0.501953	0.100547	1
H	0.978637	-2.020253	-0.461273	1
H	-0.703303	3.309407	0.653817	1
Es	0.356859	1.358485	0.195350	99
Es	-0.302700	-1.158167	-0.471155	99
Es	2.272133	0.151042	-0.230918	99
Es	-1.444208	-0.775275	0.028652	99
Es	0.665262	-0.508743	-0.162928	99
Es	-0.211327	2.389660	0.438556	99
Es	0.336689	-1.173235	-0.241669	99
Es	2.308347	0.390985	-0.193316	99
Es	1.751567	0.161144	-0.165858	99
Es	1.053030	0.122217	-0.097956	99
Es	0.675681	0.764758	0.056026	99
Es	-1.286738	-1.978367	-0.198200	99
Es	2.473836	-0.106791	-0.297178	99
Es	-0.548627	2.974053	0.578059	99
Es	0.773063	-1.736975	-0.388632	99
Es	-0.987925	-1.326817	-0.118426	99
Es	-0.259317	1.703046	0.321477	99
Es	-0.262965	-1.273981	0.112659	99
Es	0.387705	2.057938	0.322342	99
Es	0.109540	1.797691	0.293959	99
Es	1.873226	0.145647	-0.191984	99
31
Properties=species:S:1:pos:R:3:Z:I:1 energy=-266.5282102605148 field_type=dipole dipole="0.000000 0.000000 0.000000" charge=0
C	-0.987833	-1.326803	-0.118433	6
C	0.336597	-1.173323	-0.241673	6
C	1.053127	0.122127	-0.097983	6
O	2.272487	0.151077	-0.230953	8
C	0.356717	1.358717	0.195387	6
C	-0.211183	2.389467	0.438507	6
H	-1.436973	-2.308463	-0.237943	1
H	-1.658273	-0.501953	0.100547	1
H	0.978637	-2.020253	-0.461273	1
H	-0.703303	3.309407	0.653817	1
Es	-0.258352	1.701827	0.329018	99
Es	0.773114	-1.736748	-0.389114	99
Es	-0.233604	-1.256077	0.104809	99
Es	2.307352	0.389339	-0.194783	99
Es	1.873148	0.145756	-0.192669	99
Es	-1.286660	-1.978246	-0.197222	99
Es	1.751949	0.161690	-0.162856	99
Es	-0.987925	-1.326817	-0.118424	99
Es	-1.444209	-0.775395	0.028993	99
Es	1.053031	0.122216	-0.097954	99
Es	-0.548738	2.973958	0.578124	99
Es	0.665112	-0.508786	-0.164273	99
Es	0.675836	0.764762	0.056559	99
Es	2.272118	0.151089	-0.230908	99
Es	0.356857	1.358487	0.195333	99
Es	0.336688	-1.173233	-0.241673	99
Es	-0.331912	-1.176368	-0.461918	99
Es	-0.211314	2.389664	0.438556	99
Es	0.385414	2.061081	0.303383	99
Es	2.474440	-0.105692	-0.299041	99
Es	0.110785	1.795808	0.304923	99
31
Properties=species:S:1:pos:R:3:Z:I:1 energy=-266.5282102605148 field_type=dipole dipole="0.000000 0.000000 0.000000" charge=0
C	-0.987833	-1.326803	-0.118433	6
C	0.336597	-1.173323	-0.241673	6
C	1.053127	0.122127	-0.097983	6
O	2.272487	0.151077	-0.230953	8
C	0.356717	1.358717	0.195387	6
C	-0.211183	2.389467	0.438507	6
H	-1.436973	-2.308463	-0.237943	1
H	-1.658273	-0.501953	0.100547	1
H	0.978637	-2.020253	-0.461273	1
H	-0.703303	3.309407	0.653817	1
Es	2.476661	-0.103509	-0.298826	99
Es	1.053030	0.122217	-0.097959	99
Es	0.385178	2.061282	0.301901	99
Es	0.675822	0.764725	0.056645	99
Es	2.272178	0.151024	-0.230930	99
Es	1.872204	0.147048	-0.200179	99
Es	-0.232850	-1.254902	0.101359	99
Es	-0.258400	1.701956	0.328424	99
Es	2.305156	0.387143	-0.194514	99
Es	-0.211308	2.389674	0.438555	99
Es	0.336688	-1.173231	-0.241673	99
Es	-1.444318	-0.775438	0.029040	99
Es	-1.286504	-1.978264	-0.197212	99
Es	-0.332697	-1.177473	-0.458772	99
Es	0.356857	1.358490	0.195323	99
Es	0.665106	-0.508729	-0.164104	99
Es	-0.548737	2.973971	0.578092	99
Es	0.773146	-1.736800	-0.389014	99
Es	-0.987926	-1.326817	-0.118427	99
Es	0.111052	1.795495	0.306951	99
Es	1.752791	0.160451	-0.155819	99
31
Properties=species:S:1:pos:R:3:Z:I:1 energy=-266.5282102605148 field_type=dipole dipole="0.000000 0.000000 0.000000" charge=0
C	-0.987833	-1.326803	-0.118433	6
C	0.336597	-1.173323	-0.241673	6
C	1.053127	0.122127	-0.097983	6
O	2.272487	0.151077	-0.230953	8
C	0.356717	1.358717	0.195387	6
C	-0.211183	2.389467	0.438507	6
H	-1.436973	-2.308463	-0.237943	1
H	-1.658273	-0.501953	0.100547	1
H	0.978637	-2.020253	-0.461273	1
H	-0.703303	3.309407	0.653817	1
Es	0.356856	1.358488	0.195329	99
Es	0.665117	-0.509121	-0.162919	99
Es	0.675920	0.765054	0.055785	99
Es	1.748738	0.168005	-0.194468	99
Es	-1.286673	-1.978022	-0.198120	99
Es	2.305636	0.386413	-0.192407	99
Es	0.336691	-1.173235	-0.241665	99
Es	2.272125	0.150937	-0.230936	99
Es	0.387447	2.057585	0.322841	99
Es	2.476465	-0.104000	-0.298104	99
Es	-0.294331	-1.157334	-0.455861	99
Es	-0.271376	-1.274808	0.097099	99
Es	-0.548895	2.973744	0.578369	99
Es	0.773344	-1.736735	-0.388701	99
Es	-0.259166	1.703445	0.320403	99
Es	-1.444299	-0.775355	0.028787	99
Es	0.109581	1.797584	0.294570	99
Es	1.876160	0.140604	-0.163310	99
Es	-0.987926	-1.326817	-0.118428	99
Es	1.053031	0.122216	-0.097959	99
Es	-0.211315	2.389665	0.438557	99
31
Properties=species:S:1:pos:R:3:Z:I:1 energy=-266.5282102605148 field_type=dipole dipole="0.000000 0.000000 0.000000" charge=0
C	-0.987833	-1.326803	-0.118433	6
C	0.336597	-1.173323	-0.241673	6
C	1.053127	0.122127	-0.097983	6
O	2.272487	0.151077	-0.230953	8
C	0.356717	1.358717	0.195387	6
C	-0.211183	2.389467	0.438507	6
H	-1.436973	-2.308463	-0.237943	1
H	-1.658273	-0.501953	0.100547	1
H	0.978637	-2.020253	-0.461273	1
H	-0.703303	3.309407	0.653817	1
Es	0.109446	1.797906	0.293016	99
Es	1.750875	0.164934	-0.172714	99
Es	1.053031	0.122216	-0.097958	99
Es	-0.549189	2.973531	0.578124	99
Es	0.773407	-1.736725	-0.388505	99
Es	0.356870	1.358496	0.195324	99
Es	-0.211315	2.389664	0.438558	99
Es	-1.444535	-0.775508	0.028685	99
Es	0.665162	-0.509192	-0.162694	99
Es	-0.259115	1.703837	0.318936	99
Es	2.475981	-0.104727	-0.297166	99
Es	0.675942	0.765098	0.055867	99
Es	2.272125	0.150943	-0.230936	99
Es	-1.286484	-1.977740	-0.198118	99
Es	0.336689	-1.173234	-0.241666	99
Es	-0.987925	-1.326817	-0.118424	99
Es	0.387715	2.057015	0.325910	99
Es	-0.272676	-1.274838	0.094074	99
Es	-0.293041	-1.157301	-0.453108	99
Es	1.873964	0.144583	-0.185824	99
Es	2.306203	0.386175	-0.192521	99
31
Properties=species:S:1:pos:R:3:Z:I:1 energy=-266.5282102605148 field_type=dipole dipole="0.000000 0.000000 0.000000" charge=0
C	-0.987833	-1.326803	-0.118433	6
C	0.336597	-1.173323	-0.241673	6
C	1.053127	0.122127	-0.097983	6
O	2.272487	0.151077	-0.230953	8
C	0.356717	1.358717	0.195387	6
C	-0.211183	2.389467	0.438507	6
H	-1.436973	-2.308463	-0.237943	1
H	-1.658273	-0.501953	0.100547	1
H	0.978637	-2.020253	-0.461273	1
H	-0.703303	3.309407	0.653817	1
Es	-1.286371	-1.977874	-0.196930	99
Es	0.385139	2.061094	0.302668	99
Es	-0.549098	2.973639	0.578039	99
Es	0.675900	0.764863	0.056664	99
Es	1.872966	0.146006	-0.194237	99
Es	-0.987925	-1.326819	-0.118426	99
Es	-0.257865	1.701810	0.330471	99
Es	0.665030	-0.508855	-0.164458	99
Es	0.773331	-1.736669	-0.389128	99
Es	0.356858	1.358488	0.195332	99
Es	-0.230586	-1.251287	0.091398	99
Es	2.477901	-0.102332	-0.298766	99
Es	2.272118	0.151044	-0.230916	99
Es	0.110669	1.795938	0.304188	99
Es	1.053031	0.122216	-0.097956	99
Es	1.752216	0.162726	-0.160966	99
Es	0.336684	-1.173231	-0.241686	99
Es	-0.334883	-1.181240	-0.448600	99
Es	2.303785	0.384679	-0.195539	99
Es	-1.444457	-0.775546	0.029157	99
Es	-0.211317	2.389666	0.438553	99
31
Properties=species:S:1:pos:R:3:Z:I:1 energy=-266.5282102605148 field_type=dipole dipole="0.000000 0.000000 0.000000" charge=0
C	-0.987833	-1.326803	-0.118433	6
C	0.336597	-1.173323	-0.241673	6
C	1.053127	0.122127	-0.097983	6
O	2.272487	0.151077	-0.230953	8
C	0.356717	1.358717	0.195387	6
C	-0.211183	2.389467	0.438507	6
H	-1.436973	-2.308463	-0.237943	1
H	-1.658273	-0.501953	0.100547	1
H	0.978637	-2.020253	-0.461273	1
H	-0.703303	3.309407	0.653817	1
Es	-1.286226	-1.977819	-0.196924	99
Es	-0.335558	-1.182381	-0.444989	99
Es	2.304025	0.384608	-0.195398	99
Es	-0.229923	-1.250046	0.087821	99
Es	-0.257761	1.701978	0.330113	99
Es	0.336688	-1.173233	-0.241671	99
Es	-1.444612	-0.775607	0.028991	99
Es	0.773408	-1.736637	-0.389035	99
Es	-0.549321	2.973474	0.577876	99
Es	-0.211319	2.389663	0.438556	99
Es	0.385057	2.060977	0.302876	99
Es	2.272121	0.151016	-0.230922	99
Es	0.110673	1.795908	0.304313	99
Es	1.753850	0.160892	-0.148571	99
Es	-0.987925	-1.326817	-0.118424	99
Es	1.871331	0.148163	-0.206835	99
Es	2.477672	-0.102615	-0.298687	99
Es	1.053031	0.122215	-0.097952	99
Es	0.676110	0.765020	0.056776	99
Es	0.664954	-0.508931	-0.164386	99
Es	0.356856	1.358487	0.195333	99
31
Properties=species:S:1:pos:R:3:Z:I:1 energy=-266.5282102605148 field_type=dipole dipole="0.000000 0.000000 0.000000" charge=0
C	-0.987833	-1.326803	-0.118433	6
C	0.336597	-1.173323	-0.241673	6
C	1.053127	0.122127	-0.097983	6
O	2.272487	0.151077	-0.230953	8
C	0.356717	1.358717	0.195387	6
C	-0.211183	2.389467	0.438507	6
H	-1.436973	-2.308463	-0.237943	1
H	-1.658273	-0.501953	0.100547	1
H	0.978637	-2.020253	-0.461273	1
H	-0.703303	3.309407	0.653817	1
Es	-0.289061	-1.157459	-0.443436	99
Es	0.387666	2.056739	0.326731	99
Es	-0.211318	2.389662	0.438558	99
Es	0.356858	1.358490	0.195329	99
Es	2.303396	0.382742	-0.192938	99
Es	2.272134	0.150990	-0.230928	99
Es	-0.258968	1.703893	0.319256	99
Es	0.675952	0.765193	0.055704	99
Es	-1.286422	-1.977481	-0.198106	99
Es	2.478773	-0.101846	-0.297117	99
Es	0.109327	1.798123	0.291898	99
Es	1.749351	0.167996	-0.187276	99
Es	-1.444592	-0.775534	0.028824	99
Es	0.773488	-1.736693	-0.388587	99
Es	0.665167	-0.509325	-0.162797	99
Es	-0.276631	-1.274702	0.084363	99
Es	1.875482	0.141944	-0.170875	99
Es	1.053031	0.122217	-0.097957	99
Es	0.336689	-1.173235	-0.241667	99
Es	-0.987925	-1.326817	-0.118424	99
Es	-0.549265	2.973419	0.578306	99
31
Properties=species:S:1:pos:R:3:Z:I:1 energy=-266.5282102605148 field_type=dipole dipole="0.000000 0.000000 0.000000" charge=0
C	-0.987833	-1.326803	-0.118433	6
C	0.336597	-1.173323	-0.241673	6
C	1.053127	0.122127	-0.097983	6
O	2.272487	0.151077	-0.230953	8
C	0.356717	1.358717	0.195387	6
C	-0.211183	2.389467	0.438507	6
H	-1.436973	-2.308463	-0.237943	1
H	-1.658273	-0.501953	0.100547	1
H	0.978637	-2.020253	-0.461273	1
H	-0.703303	3.309407	0.653817	1
Es	-0.288227	-1.157463	-0.441268	99
Es	0.109379	1.797997	0.292556	99
Es	1.749693	0.167507	-0.184115	99
Es	1.875182	0.142481	-0.174124	99
Es	2.272135	0.151018	-0.230924	99
Es	-0.277453	-1.274678	0.082091	99
Es	-1.444667	-0.775566	0.028732	99
Es	-0.211314	2.389663	0.438557	99
Es	0.356864	1.358491	0.195327	99
Es	0.675974	0.765188	0.055802	99
Es	0.387569	2.056766	0.326295	99
Es	-0.549343	2.973372	0.578232	99
Es	2.479308	-0.101248	-0.297453	99
Es	0.665210	-0.509360	-0.162589	99
Es	1.053031	0.122215	-0.097955	99
Es	-1.286372	-1.977379	-0.198150	99
Es	-0.987926	-1.326817	-0.118426	99
Es	2.302829	0.382047	-0.192488	99
Es	-0.258925	1.704010	0.319012	99
Es	0.336688	-1.173233	-0.241662	99
Es	0.773497	-1.736695	-0.388588	99
31
Properties=species:S:1:pos:R:3:Z:I:1 energy=-266.5282102605148 field_type=dipole dipole="0.000000 0.000000 0.000000" charge=0
C	-0.987833	-1.326803	-0.118433	6
C	0.336597	-1.173323	-0.241673	6
C	1.053127	0.122127	-0.097983	6
O	2.272487	0.151077	-0.230953	8
C	0.356717	1.358717	0.195387	6
C	-0.211183	2.389467	0.438507	6
H	-1.436973	-2.308463	-0.237943	1
H	-1.658273	-0.501953	0.100547	1
H	0.978637	-2.020253	-0.461273	1
H	-0.703303	3.309407	0.653817	1
Es	1.787531	0.193804	-0.416307	99
Es	-0.549639	2.973222	0.577988	99
Es	0.676090	0.765207	0.056174	99
Es	0.109490	1.797632	0.294405	99
Es	1.837243	0.113406	0.058759	99
Es	-0.317239	-1.255994	-0.085842	99
Es	0.773858	-1.736483	-0.388524	99
Es	1.053030	0.122216	-0.097958	99
Es	-0.987925	-1.326818	-0.118426	99
Es	-0.248496	-1.176295	-0.273242	99
Es	0.665029	-0.509334	-0.162726	99
Es	-0.258529	1.704243	0.319526	99
Es	2.482169	-0.098338	-0.296301	99
Es	-1.444904	-0.775526	0.028751	99
Es	2.300067	0.381565	-0.194524	99
Es	2.272141	0.150976	-0.230932	99
Es	0.386994	2.056940	0.323716	99
Es	0.356858	1.358484	0.195358	99
Es	-0.211318	2.389663	0.438557	99
Es	0.336688	-1.173232	-0.241667	99
Es	-1.286008	-1.977025	-0.197925	99
31
Properties=species:S:1:pos:R:3:Z:I:1 energy=-266.5282102605148 field_type=dipole dipole="0.000000 0.000000 0.000000" charge=0
C	-0.987833	-1.326803	-0.118433	6
C	0.336597	-1.173323	-0.241673	6
C	1.053127	0.122127	-0.097983	6
O	2.272487	0.151077	-0.230953	8
C	0.356717	1.358717	0.195387	6
C	-0.211183	2.389467	0.438507	6
H	-1.436973	-2.308463	-0.237943	1
H	-1.658273	-0.501953	0.100547	1
H	0.978637	-2.020253	-0.461273	1
H	-0.703303	3.309407	0.653817	1
Es	-0.286446	-1.157628	-0.436480	99
Es	0.676093	0.765301	0.055780	99
Es	0.109365	1.798024	0.292461	99
Es	-1.444764	-0.775608	0.028714	99
Es	0.336689	-1.173234	-0.241666	99
Es	0.773480	-1.736714	-0.388622	99
Es	0.387500	2.056500	0.327053	99
Es	-1.286282	-1.977192	-0.198128	99
Es	-0.549374	2.973334	0.578247	99
Es	-0.211319	2.389663	0.438557	99
Es	-0.258956	1.704154	0.318365	99
Es	2.301866	0.380570	-0.193249	99
Es	2.480199	-0.100347	-0.297367	99
Es	2.272122	0.151059	-0.230915	99
Es	1.875370	0.142147	-0.172087	99
Es	1.749593	0.168365	-0.185438	99
Es	-0.279231	-1.274473	0.077293	99
Es	0.665246	-0.509509	-0.162589	99
Es	-0.987925	-1.326817	-0.118426	99
Es	0.356875	1.358503	0.195316	99
Es	1.053030	0.122217	-0.097959	99
31
Properties=species:S:1:pos:R:3:Z:I:1 energy=-266.5282102605148 field_type=dipole dipole="0.000000 0.000000 0.000000" charge=0
C	-0.987833	-1.326803	-0.118433	6
C	0.336597	-1.173323	-0.241673	6
C	1.053127	0.122127	-0.097983	6
O	2.272487	0.151077	-0.230953	8
C	0.356717	1.358717	0.195387	6
C	-0.211183	2.389467	0.438507	6
H	-1.436973	-2.308463	-0.237943	1
H	-1.658273	-0.501953	0.100547	1
H	0.978637	-2.020253	-0.461273	1
H	-0.703303	3.309407	0.653817	1
Es	0.336688	-1.173236	-0.241666	99
Es	-0.258944	1.704375	0.317389	99
Es	2.480067	-0.100414	-0.297777	99
Es	-1.444818	-0.775646	0.028625	99
Es	-0.285823	-1.157862	-0.434651	99
Es	1.053031	0.122215	-0.097953	99
Es	0.356858	1.358487	0.195333	99
Es	0.773631	-1.736597	-0.388488	99
Es	-0.211313	2.389666	0.438552	99
Es	-0.279849	-1.274324	0.075624	99
Es	1.749933	0.168757	-0.182878	99
Es	-0.987925	-1.326817	-0.118427	99
Es	-1.286245	-1.977173	-0.198088	99
Es	2.301931	0.379854	-0.192447	99
Es	1.875097	0.142636	-0.175077	99
Es	0.387608	2.056583	0.327238	99
Es	0.665140	-0.509503	-0.162766	99
Es	0.109447	1.797867	0.293355	99
Es	2.272124	0.150959	-0.230933	99
Es	0.676030	0.765300	0.055704	99
Es	-0.549538	2.973187	0.578191	99
31
Properties=species:S:1:pos:R:3:Z:I:1 energy=-266.5282102605148 field_type=dipole dipole="0.000000 0.000000 0.000000" charge=0
C	-0.987833	-1.326803	-0.118433	6
C	0.336597	-1.173323	-0.241673	6
C	1.053127	0.122127	-0.097983	6
O	2.272487	0.151077	-0.230953	8
C	0.356717	1.358717	0.195387	6
C	-0.211183	2.389467	0.438507	6
H	-1.436973	-2.308463	-0.237943	1
H	-1.658273	-0.501953	0.100547	1
H	0.978637	-2.020253	-0.461273	1
H	-0.703303	3.309407	0.653817	1
Es	1.875318	0.142246	-0.172860	99
Es	0.665156	-0.509488	-0.162631	99
Es	-0.549624	2.973099	0.578203	99
Es	-1.444832	-0.775684	0.028668	99
Es	-0.258730	1.704134	0.319009	99
Es	2.302007	0.379592	-0.192559	99
Es	0.773641	-1.736603	-0.388518	99
Es	-0.211320	2.389662	0.438558	99
Es	1.749720	0.169473	-0.185102	99
Es	0.109250	1.798232	0.291294	99
Es	-0.285206	-1.157836	-0.432915	99
Es	0.387562	2.056453	0.327558	99
Es	0.336689	-1.173234	-0.241662	99
Es	-1.286239	-1.977178	-0.198170	99
Es	1.053030	0.122216	-0.097959	99
Es	0.356855	1.358484	0.195354	99
Es	-0.280460	-1.274243	0.073769	99
Es	0.676119	0.765366	0.055801	99
Es	2.272139	0.150997	-0.230922	99
Es	2.479981	-0.100557	-0.297624	99
Es	-0.987926	-1.326816	-0.118430	99
31
Properties=species:S:1:pos:R:3:Z:I:1 energy=-266.5282102605148 field_type=dipole dipole="0.000000 0.000000 0.000000" charge=0
C	-0.987833	-1.326803	-0.118433	6
C	0.336597	-1.173323	-0.241673	6
C	1.053127	0.122127	-0.097983	6
O	2.272487	0.151077	-0.230953	8
C	0.356717	1.358717	0.195387	6
C	-0.211183	2.389467	0.438507	6
H	-1.436973	-2.308463	-0.237943	1
H	-1.658273	-0.501953	0.100547	1
H	0.978637	-2.020253	-0.461273	1
H	-0.703303	3.309407	0.653817	1
Es	0.109194	1.798450	0.290429	99
Es	-1.444898	-0.775696	0.028635	99
Es	1.053030	0.122217	-0.097959	99
Es	0.336689	-1.173234	-0.241666	99
Es	-0.284735	-1.157989	-0.431297	99
Es	-1.286170	-1.977112	-0.198273	99
Es	-0.549493	2.973287	0.578105	99
Es	-0.211317	2.389664	0.438557	99
Es	-0.280878	-1.274162	0.072457	99
Es	1.750411	0.167693	-0.177537	99
Es	0.356856	1.358488	0.195327	99
Es	-0.987925	-1.326816	-0.118427	99
Es	-0.258867	1.704287	0.318138	99
Es	0.773622	-1.736666	-0.388539	99
Es	2.300094	0.378025	-0.193360	99
Es	0.665166	-0.509396	-0.162846	99
Es	2.481969	-0.098545	-0.296993	99
Es	1.874558	0.143559	-0.180199	99
Es	0.675987	0.765204	0.055943	99
Es	2.272119	0.151004	-0.230922	99
Es	0.387717	2.056052	0.329289	99
31
Properties=species:S:1:pos:R:3:Z:I:1 energy=-266.5282102605148 field_type=dipole dipole="0.000000 0.000000 0.000000" charge=0
C	-0.987833	-1.326803	-0.118433	6
C	0.336597	-1.173323	-0.241673	6
C	1.053127	0.122127	-0.097983	6
O	2.272487	0.151077	-0.230953	8
C	0.356717	1.358717	0.195387	6
C	-0.211183	2.389467	0.438507	6
H	-1.436973	-2.308463	-0.237943	1
H	-1.658273	-0.501953	0.100547	1
H	0.978637	-2.020253	-0.461273	1
H	-0.703303	3.309407	0.653817	1
Es	0.387389	2.056611	0.326276	99
Es	0.665140	-0.509570	-0.162553	99
Es	2.300173	0.377682	-0.192856	99
Es	1.875896	0.141104	-0.166434	99
Es	-0.281851	-1.274149	0.069650	99
Es	-0.211317	2.389664	0.438556	99
Es	-0.549577	2.973149	0.578355	99
Es	-1.286172	-1.977005	-0.198210	99
Es	0.773641	-1.736607	-0.388617	99
Es	0.109491	1.797745	0.293944	99
Es	-0.987925	-1.326817	-0.118426	99
Es	0.336690	-1.173235	-0.241666	99
Es	1.053030	0.122217	-0.097959	99
Es	-0.283817	-1.158000	-0.428866	99
Es	-0.258781	1.704479	0.317645	99
Es	-1.444873	-0.775694	0.028821	99
Es	2.272127	0.151039	-0.230919	99
Es	0.676050	0.765305	0.055708	99
Es	2.481839	-0.098544	-0.297586	99
Es	0.356858	1.358485	0.195336	99
Es	1.749119	0.170456	-0.191336	99
