37
Properties=species:S:1:pos:R:3:Z:I:1 energy=-268.8807872660419 field_type=dipole dipole="0.000000 0.000000 0.000000" charge=0
C	-2.686553	-0.653159	-0.557703	6
C	-1.494143	-0.573689	0.035267	6
O	-0.667393	0.503471	-0.150414	8
C	0.560037	0.385781	0.596357	6
C	1.706437	-0.298589	-0.097733	6
C	1.709076	1.193971	0.057186	6
H	-3.329073	-1.512869	-0.406294	1
H	-3.037643	0.142101	-1.206743	1
H	-1.111213	-1.348839	0.684757	1
H	0.493967	0.312801	1.678476	1
H	1.533057	-0.705139	-1.087233	1
H	2.391916	-0.876129	0.509916	1
H	2.397237	1.632161	0.769646	1
H	1.534297	1.798131	-0.825483	1
Es	1.706363	-0.298437	-0.097662	99
Es	-0.667354	0.503157	-0.150164	99
Es	-2.265176	-0.479538	-0.011918	99
Es	-0.827270	0.723839	-0.038483	99
Es	1.873365	0.455478	-0.104907	99
Es	2.173664	1.485040	0.544840	99
Es	-0.959794	0.073895	-0.057796	99
Es	-1.225519	-1.095377	0.480635	99
Es	-2.926943	-0.120470	-0.995440	99
Es	1.583805	-0.568715	-0.761133	99
Es	-1.987414	-0.779339	-0.529740	99
Es	-1.493874	-0.573493	0.035303	99
Es	0.503702	0.325417	1.329481	99
Es	2.170761	-0.686339	0.319009	99
Es	-3.119691	-1.232919	-0.455183	99
Es	-2.686611	-0.653171	-0.557727	99
Es	1.050967	-0.140389	0.283647	99
Es	1.053999	0.950168	0.390473	99
Es	1.588166	1.594415	-0.535581	99
Es	1.709008	1.193801	0.057222	99
Es	0.559975	0.385814	0.596117	99
Es	-0.598008	0.481616	-0.434066	99
Es	-0.215277	0.428796	0.146744	99
37
Properties=species:S:1:pos:R:3:Z:I:1 energy=-268.8807872660419 field_type=dipole dipole="0.000000 0.000000 0.000000" charge=0
C	-2.686553	-0.653159	-0.557703	6
C	-1.494143	-0.573689	0.035267	6
O	-0.667393	0.503471	-0.150414	8
C	0.560037	0.385781	0.596357	6
C	1.706437	-0.298589	-0.097733	6
C	1.709076	1.193971	0.057186	6
H	-3.329073	-1.512869	-0.406294	1
H	-3.037643	0.142101	-1.206743	1
H	-1.111213	-1.348839	0.684757	1
H	0.493967	0.312801	1.678476	1
H	1.533057	-0.705139	-1.087233	1
H	2.391916	-0.876129	0.509916	1
H	2.397237	1.632161	0.769646	1
H	1.534297	1.798131	-0.825483	1
Es	-0.963659	0.072967	-0.059133	99
Es	1.049207	-0.140772	0.285261	99
Es	0.503875	0.324914	1.328330	99
Es	-1.225345	-1.095420	0.479466	99
Es	1.588329	1.592778	-0.534688	99
Es	-1.493870	-0.573497	0.035295	99
Es	-2.686612	-0.653167	-0.557730	99
Es	1.583676	-0.568597	-0.759852	99
Es	-0.601638	0.479146	-0.423893	99
Es	-3.121088	-1.233267	-0.454694	99
Es	-0.667305	0.503129	-0.150168	99
Es	-1.987010	-0.778789	-0.530614	99
Es	1.706362	-0.298436	-0.097662	99
Es	-0.824658	0.725576	-0.045503	99
Es	1.053794	0.949928	0.390474	99
Es	-2.265224	-0.479475	-0.012253	99
Es	0.559985	0.385823	0.596115	99
Es	1.872883	0.457851	-0.106797	99
Es	1.709000	1.193800	0.057226	99
Es	-2.926586	-0.120565	-0.993715	99
Es	2.175906	1.485536	0.544829	99
Es	-0.210522	0.430036	0.144936	99
Es	2.171344	-0.686251	0.318441	99
37
Properties=species:S:1:pos:R:3:Z:I:1 energy=-268.8807872660419 field_type=dipole dipole="0.000000 0.000000 0.000000" charge=0
C	-2.686553	-0.653159	-0.557703	6
C	-1.494143	-0.573689	0.035267	6
O	-0.667393	0.503471	-0.150414	8
C	0.560037	0.385781	0.596357	6
C	1.706437	-0.298589	-0.097733	6
C	1.709076	1.193971	0.057186	6
H	-3.329073	-1.512869	-0.406294	1
H	-3.037643	0.142101	-1.206743	1
H	-1.111213	-1.348839	0.684757	1
H	0.493967	0.312801	1.678476	1
H	1.533057	-0.705139	-1.087233	1
H	2.391916	-0.876129	0.509916	1
H	2.397237	1.632161	0.769646	1
H	1.534297	1.798131	-0.825483	1
Es	-3.121872	-1.233404	-0.454580	99
Es	1.706364	-0.298436	-0.097663	99
Es	-0.822199	0.728191	-0.053178	99
Es	1.872424	0.459620	-0.107901	99
Es	2.171775	-0.686384	0.318056	99
Es	-1.225290	-1.095454	0.478825	99
Es	-0.667258	0.503085	-0.150262	99
Es	1.709004	1.193799	0.057223	99
Es	1.053570	0.949669	0.390415	99
Es	1.047984	-0.140901	0.286255	99
Es	-1.493867	-0.573492	0.035299	99
Es	2.177470	1.485771	0.544789	99
Es	-0.967167	0.072973	-0.059692	99
Es	-2.686619	-0.653169	-0.557730	99
Es	-0.207584	0.431288	0.143795	99
Es	1.583609	-0.568243	-0.759045	99
Es	1.588566	1.591585	-0.533933	99
Es	-2.926325	-0.120704	-0.992645	99
Es	-0.603687	0.475016	-0.414278	99
Es	-1.986692	-0.778359	-0.531213	99
Es	0.504014	0.324498	1.327435	99
Es	-2.265337	-0.479516	-0.012417	99
Es	0.559960	0.385811	0.596118	99
37
Properties=species:S:1:pos:R:3:Z:I:1 energy=-268.8807872660419 field_type=dipole dipole="0.000000 0.000000 0.000000" charge=0
C	-2.686553	-0.653159	-0.557703	6
C	-1.494143	-0.573689	0.035267	6
O	-0.667393	0.503471	-0.150414	8
C	0.560037	0.385781	0.596357	6
C	1.706437	-0.298589	-0.097733	6
C	1.709076	1.193971	0.057186	6
H	-3.329073	-1.512869	-0.406294	1
H	-3.037643	0.142101	-1.206743	1
H	-1.111213	-1.348839	0.684757	1
H	0.493967	0.312801	1.678476	1
H	1.533057	-0.705139	-1.087233	1
H	2.391916	-0.876129	0.509916	1
H	2.397237	1.632161	0.769646	1
H	1.534297	1.798131	-0.825483	1
Es	-1.986369	-0.778011	-0.531502	99
Es	-2.686617	-0.653169	-0.557732	99
Es	-2.926095	-0.120834	-0.991995	99
Es	2.178537	1.486087	0.544763	99
Es	0.504101	0.324264	1.326811	99
Es	1.046999	-0.140806	0.286967	99
Es	-1.225343	-1.095425	0.478502	99
Es	2.172219	-0.686304	0.317934	99
Es	1.709004	1.193805	0.057225	99
Es	1.706364	-0.298435	-0.097663	99
Es	1.583613	-0.568133	-0.758391	99
Es	1.053258	0.948988	0.390234	99
Es	-0.604691	0.471122	-0.406636	99
Es	-0.820136	0.729810	-0.059940	99
Es	-0.205756	0.432928	0.143425	99
Es	-2.265631	-0.479543	-0.012447	99
Es	1.872159	0.461123	-0.108810	99
Es	1.588754	1.590546	-0.533389	99
Es	-0.969956	0.073227	-0.060216	99
Es	-3.122321	-1.233477	-0.454719	99
Es	-0.667338	0.503171	-0.150162	99
Es	-1.493871	-0.573495	0.035298	99
Es	0.559958	0.385810	0.596118	99
37
Properties=species:S:1:pos:R:3:Z:I:1 energy=-268.8807872660419 field_type=dipole dipole="0.000000 0.000000 0.000000" charge=0
C	-2.686553	-0.653159	-0.557703	6
C	-1.494143	-0.573689	0.035267	6
O	-0.667393	0.503471	-0.150414	8
C	0.560037	0.385781	0.596357	6
C	1.706437	-0.298589	-0.097733	6
C	1.709076	1.193971	0.057186	6
H	-3.329073	-1.512869	-0.406294	1
H	-3.037643	0.142101	-1.206743	1
H	-1.111213	-1.348839	0.684757	1
H	0.493967	0.312801	1.678476	1
H	1.533057	-0.705139	-1.087233	1
H	2.391916	-0.876129	0.509916	1
H	2.397237	1.632161	0.769646	1
H	1.534297	1.798131	-0.825483	1
Es	-2.686623	-0.653168	-0.557727	99
Es	2.172754	-0.686068	0.317833	99
Es	-0.605452	0.466350	-0.399019	99
Es	-0.667313	0.503164	-0.150238	99
Es	-1.493868	-0.573492	0.035298	99
Es	1.588798	1.589863	-0.532860	99
Es	1.706357	-0.298431	-0.097659	99
Es	-1.986302	-0.778016	-0.531867	99
Es	2.179560	1.486117	0.544684	99
Es	0.504194	0.324184	1.326368	99
Es	1.709003	1.193804	0.057226	99
Es	-2.265654	-0.479325	-0.012373	99
Es	-1.225356	-1.095334	0.478225	99
Es	-2.925734	-0.121077	-0.991547	99
Es	1.871403	0.462170	-0.109439	99
Es	-0.818655	0.733000	-0.066579	99
Es	-0.204511	0.433697	0.142895	99
Es	0.559963	0.385810	0.596117	99
Es	-0.971998	0.073830	-0.060497	99
Es	1.045997	-0.140894	0.287709	99
Es	-3.122860	-1.233424	-0.454750	99
Es	1.583731	-0.567979	-0.758030	99
Es	1.053408	0.948466	0.389905	99
37
Properties=species:S:1:pos:R:3:Z:I:1 energy=-268.8807872660419 field_type=dipole dipole="0.000000 0.000000 0.000000" charge=0
C	-2.686553	-0.653159	-0.557703	6
C	-1.494143	-0.573689	0.035267	6
O	-0.667393	0.503471	-0.150414	8
C	0.560037	0.385781	0.596357	6
C	1.706437	-0.298589	-0.097733	6
C	1.709076	1.193971	0.057186	6
H	-3.329073	-1.512869	-0.406294	1
H	-3.037643	0.142101	-1.206743	1
H	-1.111213	-1.348839	0.684757	1
H	0.493967	0.312801	1.678476	1
H	1.533057	-0.705139	-1.087233	1
H	2.391916	-0.876129	0.509916	1
H	2.397237	1.632161	0.769646	1
H	1.534297	1.798131	-0.825483	1
Es	-0.667372	0.503171	-0.150039	99
Es	1.709004	1.193797	0.057225	99
Es	1.583605	-0.567850	-0.757732	99
Es	-3.123207	-1.233378	-0.454823	99
Es	2.180357	1.486143	0.544637	99
Es	1.588973	1.589201	-0.532433	99
Es	1.053419	0.948347	0.389690	99
Es	-1.986302	-0.777989	-0.532244	99
Es	1.706358	-0.298428	-0.097659	99
Es	-0.817561	0.732291	-0.068103	99
Es	-0.203302	0.433990	0.141875	99
Es	-2.265553	-0.479233	-0.012390	99
Es	-0.606602	0.466636	-0.395392	99
Es	0.559945	0.385808	0.596118	99
Es	-0.973105	0.073744	-0.061689	99
Es	-1.225405	-1.095306	0.478061	99
Es	0.504258	0.324086	1.325889	99
Es	1.045484	-0.140737	0.288180	99
Es	-2.686623	-0.653168	-0.557730	99
Es	-1.493870	-0.573494	0.035298	99
Es	1.870780	0.462870	-0.109850	99
Es	-2.925575	-0.121139	-0.991048	99
Es	2.173137	-0.686114	0.317831	99
37
Properties=species:S:1:pos:R:3:Z:I:1 energy=-268.8807872660419 field_type=dipole dipole="0.000000 0.000000 0.000000" charge=0
C	-2.686553	-0.653159	-0.557703	6
C	-1.494143	-0.573689	0.035267	6
O	-0.667393	0.503471	-0.150414	8
C	0.560037	0.385781	0.596357	6
C	1.706437	-0.298589	-0.097733	6
C	1.709076	1.193971	0.057186	6
H	-3.329073	-1.512869	-0.406294	1
H	-3.037643	0.142101	-1.206743	1
H	-1.111213	-1.348839	0.684757	1
H	0.493967	0.312801	1.678476	1
H	1.533057	-0.705139	-1.087233	1
H	2.391916	-0.876129	0.509916	1
H	2.397237	1.632161	0.769646	1
H	1.534297	1.798131	-0.825483	1
Es	1.706360	-0.298431	-0.097660	99
Es	-1.225409	-1.095384	0.477882	99
Es	1.589038	1.588743	-0.531927	99
Es	2.180982	1.486121	0.544600	99
Es	-1.986042	-0.777589	-0.532188	99
Es	1.053340	0.948023	0.389550	99
Es	-0.667300	0.503144	-0.150187	99
Es	-2.265901	-0.479319	-0.012387	99
Es	-0.974509	0.073678	-0.063387	99
Es	2.173474	-0.686009	0.317921	99
Es	-0.607803	0.468372	-0.392412	99
Es	1.045053	-0.140677	0.288607	99
Es	-2.925456	-0.121233	-0.990872	99
Es	1.583564	-0.567853	-0.757536	99
Es	-3.123318	-1.233451	-0.454988	99
Es	-1.493871	-0.573500	0.035297	99
Es	1.870350	0.463556	-0.110386	99
Es	1.709014	1.193799	0.057221	99
Es	-0.816205	0.730531	-0.067883	99
Es	0.504293	0.324085	1.325425	99
Es	-2.686622	-0.653169	-0.557731	99
Es	0.559955	0.385810	0.596118	99
Es	-0.202143	0.433999	0.140597	99
37
Properties=species:S:1:pos:R:3:Z:I:1 energy=-268.8807872660419 field_type=dipole dipole="0.000000 0.000000 0.000000" charge=0
C	-2.686553	-0.653159	-0.557703	6
C	-1.494143	-0.573689	0.035267	6
O	-0.667393	0.503471	-0.150414	8
C	0.560037	0.385781	0.596357	6
C	1.706437	-0.298589	-0.097733	6
C	1.709076	1.193971	0.057186	6
H	-3.329073	-1.512869	-0.406294	1
H	-3.037643	0.142101	-1.206743	1
H	-1.111213	-1.348839	0.684757	1
H	0.493967	0.312801	1.678476	1
H	1.533057	-0.705139	-1.087233	1
H	2.391916	-0.876129	0.509916	1
H	2.397237	1.632161	0.769646	1
H	1.534297	1.798131	-0.825483	1
Es	1.869980	0.464314	-0.110682	99
Es	1.583600	-0.567715	-0.757424	99
Es	-0.667353	0.503241	-0.150254	99
Es	-2.686624	-0.653168	-0.557727	99
Es	-2.925041	-0.121507	-0.990749	99
Es	2.173892	-0.685863	0.317872	99
Es	2.181538	1.486052	0.544496	99
Es	-0.975545	0.074523	-0.062322	99
Es	0.559953	0.385812	0.596118	99
Es	-0.815531	0.735631	-0.076682	99
Es	1.589119	1.588348	-0.531631	99
Es	1.053239	0.947250	0.389323	99
Es	1.044481	-0.140316	0.288975	99
Es	-1.493868	-0.573495	0.035295	99
Es	-0.607510	0.460801	-0.385167	99
Es	-0.201981	0.435388	0.141189	99
Es	0.504316	0.323957	1.325389	99
Es	1.709002	1.193799	0.057226	99
Es	-2.265909	-0.479024	-0.012140	99
Es	-3.123702	-1.233339	-0.455187	99
Es	-1.986094	-0.777791	-0.532393	99
Es	-1.225479	-1.095218	0.477810	99
Es	1.706359	-0.298435	-0.097661	99
37
Properties=species:S:1:pos:R:3:Z:I:1 energy=-268.8807872660419 field_type=dipole dipole="0.000000 0.000000 0.000000" charge=0
C	-2.686553	-0.653159	-0.557703	6
C	-1.494143	-0.573689	0.035267	6
O	-0.667393	0.503471	-0.150414	8
C	0.560037	0.385781	0.596357	6
C	1.706437	-0.298589	-0.097733	6
C	1.709076	1.193971	0.057186	6
H	-3.329073	-1.512869	-0.406294	1
H	-3.037643	0.142101	-1.206743	1
H	-1.111213	-1.348839	0.684757	1
H	0.493967	0.312801	1.678476	1
H	1.533057	-0.705139	-1.087233	1
H	2.391916	-0.876129	0.509916	1
H	2.397237	1.632161	0.769646	1
H	1.534297	1.798131	-0.825483	1
Es	1.583672	-0.567582	-0.757206	99
Es	1.706360	-0.298428	-0.097661	99
Es	-1.225496	-1.095211	0.477690	99
Es	1.044220	-0.140349	0.289091	99
Es	-2.925002	-0.121555	-0.990470	99
Es	-2.266095	-0.479069	-0.012135	99
Es	0.559960	0.385816	0.596118	99
Es	-0.814391	0.735687	-0.079890	99
Es	1.589480	1.587758	-0.531462	99
Es	-0.667313	0.503089	-0.150272	99
Es	-0.607384	0.459834	-0.381581	99
Es	-1.493868	-0.573494	0.035296	99
Es	-0.202214	0.436214	0.142328	99
Es	1.709006	1.193801	0.057223	99
Es	-1.985904	-0.777611	-0.532502	99
Es	1.052867	0.947420	0.389190	99
Es	-2.686624	-0.653168	-0.557729	99
Es	0.504375	0.323905	1.325186	99
Es	2.174211	-0.685760	0.317807	99
Es	-3.123815	-1.233348	-0.455288	99
Es	1.869416	0.464615	-0.110696	99
Es	2.181997	1.486050	0.544395	99
Es	-0.976613	0.074632	-0.063759	99
37
Properties=species:S:1:pos:R:3:Z:I:1 energy=-268.8807872660419 field_type=dipole dipole="0.000000 0.000000 0.000000" charge=0
C	-2.686553	-0.653159	-0.557703	6
C	-1.494143	-0.573689	0.035267	6
O	-0.667393	0.503471	-0.150414	8
C	0.560037	0.385781	0.596357	6
C	1.706437	-0.298589	-0.097733	6
C	1.709076	1.193971	0.057186	6
H	-3.329073	-1.512869	-0.406294	1
H	-3.037643	0.142101	-1.206743	1
H	-1.111213	-1.348839	0.684757	1
H	0.493967	0.312801	1.678476	1
H	1.533057	-0.705139	-1.087233	1
H	2.391916	-0.876129	0.509916	1
H	2.397237	1.632161	0.769646	1
H	1.534297	1.798131	-0.825483	1
Es	1.583597	-0.567567	-0.757043	99
Es	-0.814193	0.734807	-0.079175	99
Es	-0.608231	0.461026	-0.379711	99
Es	1.706360	-0.298425	-0.097660	99
Es	1.868873	0.465134	-0.111013	99
Es	-0.201359	0.436089	0.141128	99
Es	-1.985828	-0.777613	-0.532538	99
Es	-2.924842	-0.121616	-0.990441	99
Es	2.174566	-0.685686	0.317919	99
Es	0.504404	0.323711	1.324864	99
Es	1.052790	0.947307	0.389151	99
Es	-1.225536	-1.095165	0.477668	99
Es	-3.123962	-1.233292	-0.455358	99
Es	-0.976842	0.074268	-0.065163	99
Es	1.709009	1.193800	0.057221	99
Es	0.559943	0.385807	0.596121	99
Es	-2.266191	-0.479045	-0.012124	99
Es	-0.667317	0.503139	-0.150189	99
Es	1.589597	1.587521	-0.531163	99
Es	2.182450	1.485845	0.544392	99
Es	-1.493866	-0.573491	0.035298	99
Es	-2.686619	-0.653173	-0.557737	99
Es	1.044038	-0.140132	0.289225	99
37
Properties=species:S:1:pos:R:3:Z:I:1 energy=-268.8807872660419 field_type=dipole dipole="0.000000 0.000000 0.000000" charge=0
C	-2.686553	-0.653159	-0.557703	6
C	-1.494143	-0.573689	0.035267	6
O	-0.667393	0.503471	-0.150414	8
C	0.560037	0.385781	0.596357	6
C	1.706437	-0.298589	-0.097733	6
C	1.709076	1.193971	0.057186	6
H	-3.329073	-1.512869	-0.406294	1
H	-3.037643	0.142101	-1.206743	1
H	-1.111213	-1.348839	0.684757	1
H	0.493967	0.312801	1.678476	1
H	1.533057	-0.705139	-1.087233	1
H	2.391916	-0.876129	0.509916	1
H	2.397237	1.632161	0.769646	1
H	1.534297	1.798131	-0.825483	1
Es	-0.813792	0.735141	-0.081026	99
Es	1.583627	-0.567520	-0.757053	99
Es	-2.924736	-0.121696	-0.990329	99
Es	1.868364	0.465389	-0.110990	99
Es	-1.493866	-0.573493	0.035294	99
Es	0.559948	0.385810	0.596119	99
Es	1.043780	-0.139947	0.289443	99
Es	0.504410	0.323591	1.324657	99
Es	1.589604	1.587233	-0.531090	99
Es	-0.608703	0.460054	-0.376819	99
Es	-0.977159	0.074262	-0.065719	99
Es	-0.200876	0.436548	0.140729	99
Es	-2.266121	-0.478943	-0.012158	99
Es	-2.686628	-0.653165	-0.557724	99
Es	-3.124120	-1.233197	-0.455368	99
Es	2.182852	1.485808	0.544325	99
Es	2.174878	-0.685524	0.317946	99
Es	-0.667349	0.503201	-0.150191	99
Es	1.706360	-0.298428	-0.097661	99
Es	-1.225611	-1.095181	0.477606	99
Es	1.709006	1.193799	0.057222	99
Es	1.052834	0.947148	0.389128	99
Es	-1.985857	-0.777643	-0.532666	99
37
Properties=species:S:1:pos:R:3:Z:I:1 energy=-268.8807872660419 field_type=dipole dipole="0.000000 0.000000 0.000000" charge=0
C	-2.686553	-0.653159	-0.557703	6
C	-1.494143	-0.573689	0.035267	6
O	-0.667393	0.503471	-0.150414	8
C	0.560037	0.385781	0.596357	6
C	1.706437	-0.298589	-0.097733	6
C	1.709076	1.193971	0.057186	6
H	-3.329073	-1.512869	-0.406294	1
H	-3.037643	0.142101	-1.206743	1
H	-1.111213	-1.348839	0.684757	1
H	0.493967	0.312801	1.678476	1
H	1.533057	-0.705139	-1.087233	1
H	2.391916	-0.876129	0.509916	1
H	2.397237	1.632161	0.769646	1
H	1.534297	1.798131	-0.825483	1
Es	-0.978543	0.075034	-0.065979	99
Es	-1.493869	-0.573492	0.035298	99
Es	1.709000	1.193801	0.057226	99
Es	0.559951	0.385811	0.596118	99
Es	1.706362	-0.298427	-0.097660	99
Es	-0.200831	0.436578	0.140869	99
Es	0.504437	0.323772	1.324482	99
Es	-3.124186	-1.233251	-0.455559	99
Es	-1.985493	-0.777399	-0.532638	99
Es	-0.667336	0.503220	-0.150235	99
Es	2.175044	-0.685492	0.318078	99
Es	1.589670	1.586962	-0.530817	99
Es	1.043420	-0.139896	0.289740	99
Es	-2.266545	-0.479022	-0.012116	99
Es	-0.608765	0.458807	-0.374418	99
Es	-2.686625	-0.653169	-0.557729	99
Es	-0.812462	0.735556	-0.083220	99
Es	-1.225600	-1.095109	0.477587	99
Es	1.868197	0.465613	-0.111247	99
Es	1.052970	0.946910	0.388845	99
Es	-2.924613	-0.121840	-0.990242	99
Es	1.583574	-0.567554	-0.756949	99
Es	2.183085	1.485835	0.544239	99
37
Properties=species:S:1:pos:R:3:Z:I:1 energy=-268.8807872660419 field_type=dipole dipole="0.000000 0.000000 0.000000" charge=0
C	-2.686553	-0.653159	-0.557703	6
C	-1.494143	-0.573689	0.035267	6
O	-0.667393	0.503471	-0.150414	8
C	0.560037	0.385781	0.596357	6
C	1.706437	-0.298589	-0.097733	6
C	1.709076	1.193971	0.057186	6
H	-3.329073	-1.512869	-0.406294	1
H	-3.037643	0.142101	-1.206743	1
H	-1.111213	-1.348839	0.684757	1
H	0.493967	0.312801	1.678476	1
H	1.533057	-0.705139	-1.087233	1
H	2.391916	-0.876129	0.509916	1
H	2.397237	1.632161	0.769646	1
H	1.534297	1.798131	-0.825483	1
Es	-2.924638	-0.121674	-0.990047	99
Es	2.175297	-0.685424	0.318064	99
Es	-1.225599	-1.095160	0.477516	99
Es	-0.811833	0.733762	-0.081962	99
Es	1.706360	-0.298431	-0.097660	99
Es	-0.667215	0.503011	-0.150362	99
Es	1.589677	1.586759	-0.530588	99
Es	-1.493869	-0.573493	0.035297	99
Es	-1.985842	-0.777526	-0.532793	99
Es	1.043357	-0.140093	0.289703	99
Es	-2.686622	-0.653170	-0.557733	99
Es	1.709001	1.193797	0.057226	99
Es	-2.266126	-0.478993	-0.012163	99
Es	-0.979037	0.074955	-0.067627	99
Es	1.052770	0.946834	0.388930	99
Es	-0.609342	0.461020	-0.373563	99
Es	1.867780	0.465982	-0.111301	99
Es	2.183381	1.485780	0.544210	99
Es	1.583714	-0.567365	-0.756881	99
Es	0.559951	0.385818	0.596119	99
Es	-0.200509	0.436353	0.140545	99
Es	0.504461	0.323740	1.324250	99
Es	-3.124274	-1.233236	-0.455506	99
37
Properties=species:S:1:pos:R:3:Z:I:1 energy=-268.8807872660419 field_type=dipole dipole="0.000000 0.000000 0.000000" charge=0
C	-2.686553	-0.653159	-0.557703	6
C	-1.494143	-0.573689	0.035267	6
O	-0.667393	0.503471	-0.150414	8
C	0.560037	0.385781	0.596357	6
C	1.706437	-0.298589	-0.097733	6
C	1.709076	1.193971	0.057186	6
H	-3.329073	-1.512869	-0.406294	1
H	-3.037643	0.142101	-1.206743	1
H	-1.111213	-1.348839	0.684757	1
H	0.493967	0.312801	1.678476	1
H	1.533057	-0.705139	-1.087233	1
H	2.391916	-0.876129	0.509916	1
H	2.397237	1.632161	0.769646	1
H	1.534297	1.798131	-0.825483	1
Es	1.043115	-0.139916	0.289963	99
Es	-3.124420	-1.233148	-0.455678	99
Es	1.706358	-0.298420	-0.097657	99
Es	-0.667450	0.503203	-0.149892	99
Es	-1.493868	-0.573493	0.035297	99
Es	-2.924488	-0.121803	-0.989907	99
Es	1.867451	0.466226	-0.111432	99
Es	1.589870	1.586522	-0.530438	99
Es	-0.811441	0.735463	-0.085761	99
Es	0.504465	0.323726	1.324153	99
Es	0.559953	0.385809	0.596118	99
Es	-0.979315	0.075173	-0.067155	99
Es	1.052680	0.946674	0.388774	99
Es	-1.985975	-0.777726	-0.533030	99
Es	-0.200450	0.437136	0.140678	99
Es	2.183661	1.485629	0.544131	99
Es	1.709002	1.193803	0.057225	99
Es	-0.609257	0.458085	-0.370820	99
Es	-1.225675	-1.095091	0.477590	99
Es	1.583630	-0.567369	-0.756799	99
Es	-2.265966	-0.478758	-0.012019	99
Es	-2.686624	-0.653169	-0.557731	99
Es	2.175587	-0.685308	0.318059	99
37
Properties=species:S:1:pos:R:3:Z:I:1 energy=-268.8807872660419 field_type=dipole dipole="0.000000 0.000000 0.000000" charge=0
C	-2.686553	-0.653159	-0.557703	6
C	-1.494143	-0.573689	0.035267	6
O	-0.667393	0.503471	-0.150414	8
C	0.560037	0.385781	0.596357	6
C	1.706437	-0.298589	-0.097733	6
C	1.709076	1.193971	0.057186	6
H	-3.329073	-1.512869	-0.406294	1
H	-3.037643	0.142101	-1.206743	1
H	-1.111213	-1.348839	0.684757	1
H	0.493967	0.312801	1.678476	1
H	1.533057	-0.705139	-1.087233	1
H	2.391916	-0.876129	0.509916	1
H	2.397237	1.632161	0.769646	1
H	1.534297	1.798131	-0.825483	1
Es	-0.200229	0.437161	0.140398	99
Es	-0.811204	0.734606	-0.084915	99
Es	-1.493871	-0.573493	0.035300	99
Es	1.867065	0.466295	-0.111587	99
Es	2.175876	-0.685181	0.318063	99
Es	-0.979512	0.075025	-0.068162	99
Es	-2.924424	-0.121870	-0.989985	99
Es	-0.609812	0.459433	-0.369648	99
Es	1.589896	1.586455	-0.530237	99
Es	2.183829	1.485519	0.544197	99
Es	-1.985656	-0.777410	-0.532802	99
Es	0.559954	0.385825	0.596119	99
Es	0.504473	0.323516	1.323924	99
Es	-2.686623	-0.653169	-0.557732	99
Es	1.052784	0.946741	0.388751	99
Es	-0.667103	0.502810	-0.150540	99
Es	-1.225724	-1.095128	0.477515	99
Es	1.709012	1.193806	0.057221	99
Es	1.042924	-0.139898	0.290059	99
Es	1.706357	-0.298430	-0.097659	99
Es	-3.124417	-1.233187	-0.455734	99
Es	1.583627	-0.567311	-0.756753	99
Es	-2.266379	-0.478868	-0.012120	99
37
Properties=species:S:1:pos:R:3:Z:I:1 energy=-268.8807872660419 field_type=dipole dipole="0.000000 0.000000 0.000000" charge=0
C	-2.686553	-0.653159	-0.557703	6
C	-1.494143	-0.573689	0.035267	6
O	-0.667393	0.503471	-0.150414	8
C	0.560037	0.385781	0.596357	6
C	1.706437	-0.298589	-0.097733	6
C	1.709076	1.193971	0.057186	6
H	-3.329073	-1.512869	-0.406294	1
H	-3.037643	0.142101	-1.206743	1
H	-1.111213	-1.348839	0.684757	1
H	0.493967	0.312801	1.678476	1
H	1.533057	-0.705139	-1.087233	1
H	2.391916	-0.876129	0.509916	1
H	2.397237	1.632161	0.769646	1
H	1.534297	1.798131	-0.825483	1
Es	1.706360	-0.298431	-0.097660	99
Es	2.175953	-0.685123	0.318174	99
Es	-1.225713	-1.095043	0.477562	99
Es	-1.985799	-0.777647	-0.532981	99
Es	-0.199878	0.437197	0.139995	99
Es	1.043016	-0.139728	0.290072	99
Es	-2.266194	-0.478763	-0.012032	99
Es	1.583627	-0.567337	-0.756861	99
Es	-0.981147	0.076236	-0.067647	99
Es	1.589960	1.586339	-0.530250	99
Es	-0.809610	0.735665	-0.088433	99
Es	-2.686624	-0.653167	-0.557731	99
Es	-2.924216	-0.121913	-0.989843	99
Es	1.866923	0.466285	-0.111482	99
Es	-1.493868	-0.573493	0.035297	99
Es	-0.609931	0.456678	-0.366705	99
Es	-0.667344	0.503157	-0.150089	99
Es	2.183892	1.485540	0.544200	99
Es	0.504491	0.323661	1.323939	99
Es	0.559948	0.385818	0.596119	99
Es	1.709000	1.193805	0.057227	99
Es	1.052646	0.946601	0.388649	99
Es	-3.124649	-1.233089	-0.455845	99
37
Properties=species:S:1:pos:R:3:Z:I:1 energy=-268.8807872660419 field_type=dipole dipole="0.000000 0.000000 0.000000" charge=0
C	-2.686553	-0.653159	-0.557703	6
C	-1.494143	-0.573689	0.035267	6
O	-0.667393	0.503471	-0.150414	8
C	0.560037	0.385781	0.596357	6
C	1.706437	-0.298589	-0.097733	6
C	1.709076	1.193971	0.057186	6
H	-3.329073	-1.512869	-0.406294	1
H	-3.037643	0.142101	-1.206743	1
H	-1.111213	-1.348839	0.684757	1
H	0.493967	0.312801	1.678476	1
H	1.533057	-0.705139	-1.087233	1
H	2.391916	-0.876129	0.509916	1
H	2.397237	1.632161	0.769646	1
H	1.534297	1.798131	-0.825483	1
Es	2.176253	-0.685022	0.318140	99
Es	-0.667362	0.503214	-0.150228	99
Es	-2.924196	-0.121971	-0.989801	99
Es	-0.199864	0.437507	0.140041	99
Es	-3.124637	-1.233139	-0.455936	99
Es	1.042682	-0.139677	0.290253	99
Es	-0.610012	0.457347	-0.366324	99
Es	0.559946	0.385811	0.596120	99
Es	-1.985613	-0.777444	-0.532922	99
Es	0.504524	0.323511	1.323763	99
Es	1.589961	1.586108	-0.530064	99
Es	1.866520	0.466714	-0.111603	99
Es	1.709003	1.193803	0.057225	99
Es	-1.225735	-1.095036	0.477540	99
Es	1.583611	-0.567249	-0.756721	99
Es	-2.266426	-0.478815	-0.012046	99
Es	-2.686623	-0.653169	-0.557731	99
Es	1.706359	-0.298428	-0.097660	99
Es	-0.810549	0.735487	-0.087615	99
Es	1.052766	0.946355	0.388570	99
Es	2.184240	1.485461	0.544083	99
Es	-1.493866	-0.573494	0.035293	99
Es	-0.980137	0.075375	-0.068704	99
37
Properties=species:S:1:pos:R:3:Z:I:1 energy=-268.8807872660419 field_type=dipole dipole="0.000000 0.000000 0.000000" charge=0
C	-2.686553	-0.653159	-0.557703	6
C	-1.494143	-0.573689	0.035267	6
O	-0.667393	0.503471	-0.150414	8
C	0.560037	0.385781	0.596357	6
C	1.706437	-0.298589	-0.097733	6
C	1.709076	1.193971	0.057186	6
H	-3.329073	-1.512869	-0.406294	1
H	-3.037643	0.142101	-1.206743	1
H	-1.111213	-1.348839	0.684757	1
H	0.493967	0.312801	1.678476	1
H	1.533057	-0.705139	-1.087233	1
H	2.391916	-0.876129	0.509916	1
H	2.397237	1.632161	0.769646	1
H	1.534297	1.798131	-0.825483	1
Es	1.706360	-0.298425	-0.097660	99
Es	-0.980777	0.075751	-0.068941	99
Es	-0.809750	0.736014	-0.089554	99
Es	0.559949	0.385811	0.596118	99
Es	-2.924147	-0.122037	-0.989748	99
Es	-2.266091	-0.478530	-0.011860	99
Es	-3.124715	-1.233064	-0.455940	99
Es	1.042571	-0.139837	0.290340	99
Es	0.504525	0.323661	1.323753	99
Es	-0.610047	0.456402	-0.364519	99
Es	-2.686623	-0.653166	-0.557731	99
Es	-0.199890	0.437537	0.140215	99
Es	-1.493868	-0.573494	0.035295	99
Es	2.176362	-0.684982	0.318105	99
Es	1.866421	0.467092	-0.111658	99
Es	-1.225742	-1.095045	0.477470	99
Es	1.709007	1.193801	0.057224	99
Es	2.184346	1.485383	0.544082	99
Es	-1.985948	-0.777679	-0.533147	99
Es	-0.667430	0.503153	-0.149998	99
Es	1.052617	0.946053	0.388405	99
Es	1.583675	-0.567175	-0.756640	99
Es	1.590039	1.586024	-0.529939	99
37
Properties=species:S:1:pos:R:3:Z:I:1 energy=-268.8807872660419 field_type=dipole dipole="0.000000 0.000000 0.000000" charge=0
C	-2.686553	-0.653159	-0.557703	6
C	-1.494143	-0.573689	0.035267	6
O	-0.667393	0.503471	-0.150414	8
C	0.560037	0.385781	0.596357	6
C	1.706437	-0.298589	-0.097733	6
C	1.709076	1.193971	0.057186	6
H	-3.329073	-1.512869	-0.406294	1
H	-3.037643	0.142101	-1.206743	1
H	-1.111213	-1.348839	0.684757	1
H	0.493967	0.312801	1.678476	1
H	1.533057	-0.705139	-1.087233	1
H	2.391916	-0.876129	0.509916	1
H	2.397237	1.632161	0.769646	1
H	1.534297	1.798131	-0.825483	1
Es	-0.982498	0.077323	-0.067210	99
Es	-2.924095	-0.122063	-0.989605	99
Es	-1.225798	-1.094913	0.477568	99
Es	0.504519	0.323722	1.323697	99
Es	0.559950	0.385816	0.596119	99
Es	1.590202	1.585749	-0.529793	99
Es	-1.493869	-0.573494	0.035298	99
Es	-2.686624	-0.653168	-0.557731	99
Es	-0.667331	0.503246	-0.150250	99
Es	1.042612	-0.139568	0.290455	99
Es	2.176432	-0.684828	0.318212	99
Es	-3.124791	-1.233067	-0.456020	99
Es	-0.808050	0.738254	-0.095037	99
Es	-0.609845	0.451969	-0.361178	99
Es	1.709000	1.193802	0.057225	99
Es	1.052402	0.946294	0.388423	99
Es	-0.200164	0.438035	0.140850	99
Es	-2.265993	-0.478502	-0.011857	99
Es	1.706358	-0.298430	-0.097660	99
Es	2.184547	1.485346	0.543948	99
Es	-1.985970	-0.777789	-0.533329	99
Es	1.866210	0.466819	-0.111645	99
Es	1.583638	-0.567304	-0.756807	99
37
Properties=species:S:1:pos:R:3:Z:I:1 energy=-268.8807872660419 field_type=dipole dipole="0.000000 0.000000 0.000000" charge=0
C	-2.686553	-0.653159	-0.557703	6
C	-1.494143	-0.573689	0.035267	6
O	-0.667393	0.503471	-0.150414	8
C	0.560037	0.385781	0.596357	6
C	1.706437	-0.298589	-0.097733	6
C	1.709076	1.193971	0.057186	6
H	-3.329073	-1.512869	-0.406294	1
H	-3.037643	0.142101	-1.206743	1
H	-1.111213	-1.348839	0.684757	1
H	0.493967	0.312801	1.678476	1
H	1.533057	-0.705139	-1.087233	1
H	2.391916	-0.876129	0.509916	1
H	2.397237	1.632161	0.769646	1
H	1.534297	1.798131	-0.825483	1
Es	-0.610279	0.453744	-0.359879	99
Es	-2.924025	-0.122092	-0.989629	99
Es	0.559948	0.385812	0.596120	99
Es	-0.808022	0.737369	-0.093790	99
Es	-1.225807	-1.094918	0.477548	99
Es	1.583657	-0.567210	-0.756731	99
Es	1.590136	1.585756	-0.529825	99
Es	2.176566	-0.684823	0.318220	99
Es	2.184665	1.485271	0.543949	99
Es	1.866053	0.466983	-0.111677	99
Es	1.706360	-0.298429	-0.097660	99
Es	-2.266229	-0.478593	-0.011845	99
Es	-0.667383	0.503188	-0.150151	99
Es	0.504558	0.323622	1.323711	99
Es	-2.686623	-0.653170	-0.557733	99
Es	1.052416	0.946073	0.388436	99
Es	-0.982389	0.076748	-0.069298	99
Es	1.709007	1.193802	0.057223	99
Es	1.042542	-0.139427	0.290359	99
Es	-3.124835	-1.232995	-0.456084	99
Es	-1.985758	-0.777741	-0.533257	99
Es	-1.493870	-0.573492	0.035300	99
Es	-0.199848	0.437769	0.140367	99
