34
Properties=species:S:1:pos:R:3:Z:I:1 energy=-267.7253157491752 field_type=dipole dipole="0.000000 0.000000 0.000000" charge=0
C	-1.417097	-0.698716	-0.325993	6
C	0.019183	-0.809746	-0.772173	6
O	0.428623	-1.827106	-1.335223	8
C	0.916283	0.392874	-0.565213	6
C	0.935033	0.853124	0.830187	6
C	0.953883	1.236374	1.968357	6
H	-1.855997	0.221284	-0.720313	1
H	-1.472657	-0.709226	0.764887	1
H	-1.986707	-1.547666	-0.715073	1
H	0.570813	1.189854	-1.231773	1
H	1.931323	0.121954	-0.876443	1
H	0.977313	1.576994	2.978776	1
Es	0.621266	1.201712	1.363230	99
Es	0.472139	-0.189216	-0.636976	99
Es	0.346917	-1.555668	-0.907486	99
Es	0.428484	-1.826861	-1.335077	99
Es	-1.795660	-1.264818	-0.586985	99
Es	0.968274	1.457516	2.625685	99
Es	-0.699943	-0.739770	-0.540699	99
Es	-1.417039	-0.698690	-0.326004	99
Es	0.671930	0.915596	-0.991308	99
Es	-1.437670	-0.700419	0.394568	99
Es	1.241993	1.229452	1.332240	99
Es	0.019202	-0.809700	-0.772151	99
Es	1.585272	0.220455	-0.754459	99
Es	-1.695355	-0.074455	-0.590970	99
Es	0.935021	0.853032	0.829901	99
Es	0.220370	-1.358895	-1.355286	99
Es	0.953886	1.236443	1.968576	99
Es	0.910608	0.625392	0.155568	99
Es	0.734890	-1.810715	-1.414799	99
Es	0.963222	0.703570	1.517990	99
Es	0.203344	-2.043873	-1.366962	99
Es	0.916222	0.392909	-0.565076	99
34
Properties=species:S:1:pos:R:3:Z:I:1 energy=-267.7253157491752 field_type=dipole dipole="0.000000 0.000000 0.000000" charge=0
C	-1.417097	-0.698716	-0.325993	6
C	0.019183	-0.809746	-0.772173	6
O	0.428623	-1.827106	-1.335223	8
C	0.916283	0.392874	-0.565213	6
C	0.935033	0.853124	0.830187	6
C	0.953883	1.236374	1.968357	6
H	-1.855997	0.221284	-0.720313	1
H	-1.472657	-0.709226	0.764887	1
H	-1.986707	-1.547666	-0.715073	1
H	0.570813	1.189854	-1.231773	1
H	1.931323	0.121954	-0.876443	1
H	0.977313	1.576994	2.978776	1
Es	0.473505	-0.188459	-0.636838	99
Es	0.726212	-1.803314	-1.419844	99
Es	0.019203	-0.809700	-0.772150	99
Es	0.935027	0.853019	0.829890	99
Es	0.912607	0.625039	0.159193	99
Es	0.632453	1.215723	1.357510	99
Es	1.235874	1.214383	1.337650	99
Es	0.957981	0.703597	1.518476	99
Es	-1.437740	-0.699227	0.399051	99
Es	-1.417039	-0.698687	-0.326002	99
Es	1.582990	0.220371	-0.756469	99
Es	0.953881	1.236450	1.968585	99
Es	0.221236	-1.362399	-1.354590	99
Es	0.428467	-1.826814	-1.335054	99
Es	0.350226	-1.558170	-0.897092	99
Es	-0.701922	-0.739318	-0.539542	99
Es	0.966346	1.461456	2.626219	99
Es	-1.794999	-1.264389	-0.589647	99
Es	0.916226	0.392903	-0.565075	99
Es	0.672852	0.911367	-0.991534	99
Es	0.206620	-2.043700	-1.377178	99
Es	-1.692633	-0.077134	-0.592040	99
34
Properties=species:S:1:pos:R:3:Z:I:1 energy=-267.7253157491752 field_type=dipole dipole="0.000000 0.000000 0.000000" charge=0
C	-1.417097	-0.698716	-0.325993	6
C	0.019183	-0.809746	-0.772173	6
O	0.428623	-1.827106	-1.335223	8
C	0.916283	0.392874	-0.565213	6
C	0.935033	0.853124	0.830187	6
C	0.953883	1.236374	1.968357	6
H	-1.855997	0.221284	-0.720313	1
H	-1.472657	-0.709226	0.764887	1
H	-1.986707	-1.547666	-0.715073	1
H	0.570813	1.189854	-1.231773	1
H	1.931323	0.121954	-0.876443	1
H	0.977313	1.576994	2.978776	1
Es	0.717525	-1.787654	-1.413423	99
Es	-1.794320	-1.264389	-0.591358	99
Es	-0.703242	-0.738670	-0.538597	99
Es	0.964702	1.463750	2.625993	99
Es	-1.690570	-0.080016	-0.592726	99
Es	0.673456	0.908138	-0.991107	99
Es	1.582214	0.219822	-0.757733	99
Es	-1.438346	-0.697324	0.401558	99
Es	0.474421	-0.187394	-0.636478	99
Es	0.019208	-0.809706	-0.772132	99
Es	0.935036	0.853027	0.829886	99
Es	1.230634	1.193401	1.345273	99
Es	-1.417038	-0.698690	-0.326003	99
Es	0.953878	1.236452	1.968590	99
Es	0.348614	-1.560187	-0.892912	99
Es	0.645410	1.237345	1.349712	99
Es	0.916225	0.392905	-0.565075	99
Es	0.913342	0.625151	0.161108	99
Es	0.221789	-1.365551	-1.353215	99
Es	0.428539	-1.826789	-1.335069	99
Es	0.215511	-2.052976	-1.391538	99
Es	0.950384	0.702353	1.518766	99
34
Properties=species:S:1:pos:R:3:Z:I:1 energy=-267.7253157491752 field_type=dipole dipole="0.000000 0.000000 0.000000" charge=0
C	-1.417097	-0.698716	-0.325993	6
C	0.019183	-0.809746	-0.772173	6
O	0.428623	-1.827106	-1.335223	8
C	0.916283	0.392874	-0.565213	6
C	0.935033	0.853124	0.830187	6
C	0.953883	1.236374	1.968357	6
H	-1.855997	0.221284	-0.720313	1
H	-1.472657	-0.709226	0.764887	1
H	-1.986707	-1.547666	-0.715073	1
H	0.570813	1.189854	-1.231773	1
H	1.931323	0.121954	-0.876443	1
H	0.977313	1.576994	2.978776	1
Es	0.913432	0.625985	0.161516	99
Es	0.216608	-1.371624	-1.350062	99
Es	-1.794667	-1.263483	-0.591896	99
Es	0.019207	-0.809706	-0.772138	99
Es	0.988147	0.706317	1.517751	99
Es	0.953886	1.236456	1.968589	99
Es	0.428722	-1.826702	-1.335051	99
Es	0.338168	-1.566988	-0.890163	99
Es	0.298007	-2.092915	-1.447374	99
Es	1.211642	1.218251	1.336990	99
Es	-1.689134	-0.083293	-0.592313	99
Es	-0.702503	-0.738394	-0.538729	99
Es	0.962919	1.464131	2.625951	99
Es	0.474681	-0.186053	-0.636035	99
Es	-1.440145	-0.695403	0.402675	99
Es	0.673331	0.905538	-0.989288	99
Es	0.916227	0.392903	-0.565075	99
Es	0.650313	-1.733797	-1.364987	99
Es	0.935035	0.853017	0.829888	99
Es	-1.417038	-0.698689	-0.326002	99
Es	0.627142	1.208443	1.359067	99
Es	1.583392	0.219003	-0.759791	99
34
Properties=species:S:1:pos:R:3:Z:I:1 energy=-267.7253157491752 field_type=dipole dipole="0.000000 0.000000 0.000000" charge=0
C	-1.417097	-0.698716	-0.325993	6
C	0.019183	-0.809746	-0.772173	6
O	0.428623	-1.827106	-1.335223	8
C	0.916283	0.392874	-0.565213	6
C	0.935033	0.853124	0.830187	6
C	0.953883	1.236374	1.968357	6
H	-1.855997	0.221284	-0.720313	1
H	-1.472657	-0.709226	0.764887	1
H	-1.986707	-1.547666	-0.715073	1
H	0.570813	1.189854	-1.231773	1
H	1.931323	0.121954	-0.876443	1
H	0.977313	1.576994	2.978776	1
Es	0.912143	0.626389	0.161736	99
Es	-1.417037	-0.698690	-0.326002	99
Es	0.916226	0.392904	-0.565078	99
Es	0.236946	-1.365239	-1.352296	99
Es	-1.795347	-1.266052	-0.594676	99
Es	0.625830	-1.989376	-1.503991	99
Es	0.939345	0.704946	1.518009	99
Es	0.965930	1.465776	2.625411	99
Es	1.238739	1.198812	1.342753	99
Es	0.676437	0.904766	-0.987653	99
Es	0.019209	-0.809710	-0.772130	99
Es	0.648954	1.229162	1.353069	99
Es	-1.686600	-0.084950	-0.591269	99
Es	0.472927	-0.190133	-0.638269	99
Es	0.935025	0.853007	0.829887	99
Es	1.580461	0.222813	-0.758154	99
Es	0.428617	-1.826738	-1.335061	99
Es	0.266891	-1.857041	-1.305212	99
Es	0.953885	1.236457	1.968590	99
Es	-0.704605	-0.737773	-0.536981	99
Es	0.372194	-1.553289	-0.891925	99
Es	-1.438797	-0.693042	0.402762	99
34
Properties=species:S:1:pos:R:3:Z:I:1 energy=-267.7253157491752 field_type=dipole dipole="0.000000 0.000000 0.000000" charge=0
C	-1.417097	-0.698716	-0.325993	6
C	0.019183	-0.809746	-0.772173	6
O	0.428623	-1.827106	-1.335223	8
C	0.916283	0.392874	-0.565213	6
C	0.935033	0.853124	0.830187	6
C	0.953883	1.236374	1.968357	6
H	-1.855997	0.221284	-0.720313	1
H	-1.472657	-0.709226	0.764887	1
H	-1.986707	-1.547666	-0.715073	1
H	0.570813	1.189854	-1.231773	1
H	1.931323	0.121954	-0.876443	1
H	0.977313	1.576994	2.978776	1
Es	0.515451	-1.739383	-1.324222	99
Es	0.974759	0.711500	1.516246	99
Es	1.225467	1.218368	1.336520	99
Es	0.912751	0.627005	0.161651	99
Es	-1.796241	-1.263539	-0.593436	99
Es	-1.686372	-0.087462	-0.590757	99
Es	0.963067	1.464808	2.625817	99
Es	0.626973	1.203338	1.360934	99
Es	0.953874	1.236448	1.968594	99
Es	0.674976	0.902843	-0.986093	99
Es	0.424683	-2.084413	-1.494451	99
Es	1.583539	0.220805	-0.761008	99
Es	-0.702080	-0.738056	-0.538620	99
Es	-1.441369	-0.692257	0.403228	99
Es	0.344076	-1.565677	-0.887546	99
Es	0.019210	-0.809709	-0.772129	99
Es	0.473540	-0.187398	-0.637093	99
Es	0.218060	-1.374835	-1.347857	99
Es	0.428777	-1.826624	-1.335062	99
Es	-1.417039	-0.698690	-0.326003	99
Es	0.916226	0.392905	-0.565074	99
Es	0.935045	0.853019	0.829883	99
34
Properties=species:S:1:pos:R:3:Z:I:1 energy=-267.7253157491752 field_type=dipole dipole="0.000000 0.000000 0.000000" charge=0
C	-1.417097	-0.698716	-0.325993	6
C	0.019183	-0.809746	-0.772173	6
O	0.428623	-1.827106	-1.335223	8
C	0.916283	0.392874	-0.565213	6
C	0.935033	0.853124	0.830187	6
C	0.953883	1.236374	1.968357	6
H	-1.855997	0.221284	-0.720313	1
H	-1.472657	-0.709226	0.764887	1
H	-1.986707	-1.547666	-0.715073	1
H	0.570813	1.189854	-1.231773	1
H	1.931323	0.121954	-0.876443	1
H	0.977313	1.576994	2.978776	1
Es	1.583255	0.221379	-0.761466	99
Es	0.221738	-1.374981	-1.347112	99
Es	0.426702	-1.825455	-1.333956	99
Es	1.001864	0.713234	1.515827	99
Es	1.207985	1.239620	1.329385	99
Es	-1.417038	-0.698690	-0.326002	99
Es	0.963172	1.465412	2.625612	99
Es	0.953892	1.236460	1.968590	99
Es	0.916226	0.392902	-0.565073	99
Es	-1.796133	-1.263958	-0.594301	99
Es	0.473196	-0.187725	-0.637278	99
Es	0.675572	0.901596	-0.985058	99
Es	-0.702534	-0.737672	-0.538189	99
Es	-1.685373	-0.089117	-0.590436	99
Es	0.912638	0.627452	0.161785	99
Es	0.617431	1.180267	1.368529	99
Es	0.019210	-0.809710	-0.772129	99
Es	0.453584	-2.075050	-1.502535	99
Es	-1.441730	-0.690928	0.403548	99
Es	0.347975	-1.562928	-0.887551	99
Es	0.480712	-1.752117	-1.318556	99
Es	0.935029	0.853007	0.829887	99
34
Properties=species:S:1:pos:R:3:Z:I:1 energy=-267.7253157491752 field_type=dipole dipole="0.000000 0.000000 0.000000" charge=0
C	-1.417097	-0.698716	-0.325993	6
C	0.019183	-0.809746	-0.772173	6
O	0.428623	-1.827106	-1.335223	8
C	0.916283	0.392874	-0.565213	6
C	0.935033	0.853124	0.830187	6
C	0.953883	1.236374	1.968357	6
H	-1.855997	0.221284	-0.720313	1
H	-1.472657	-0.709226	0.764887	1
H	-1.986707	-1.547666	-0.715073	1
H	0.570813	1.189854	-1.231773	1
H	1.931323	0.121954	-0.876443	1
H	0.977313	1.576994	2.978776	1
Es	0.473203	-0.187601	-0.637469	99
Es	0.648841	1.236615	1.350030	99
Es	0.466590	-2.069722	-1.506397	99
Es	0.429426	-1.825977	-1.334992	99
Es	0.935035	0.853005	0.829887	99
Es	1.582923	0.221365	-0.761624	99
Es	-1.417036	-0.698690	-0.326003	99
Es	-0.703151	-0.737252	-0.537662	99
Es	0.019207	-0.809707	-0.772138	99
Es	-1.442031	-0.689977	0.403851	99
Es	0.912557	0.627596	0.161983	99
Es	1.244362	1.185140	1.347860	99
Es	0.675968	0.900942	-0.984676	99
Es	0.462377	-1.756505	-1.315170	99
Es	-1.795805	-1.264236	-0.595088	99
Es	-1.684566	-0.090285	-0.590303	99
Es	0.222052	-1.377163	-1.345791	99
Es	0.953879	1.236459	1.968591	99
Es	0.934141	0.711433	1.515821	99
Es	0.350035	-1.560950	-0.887705	99
Es	0.916227	0.392903	-0.565074	99
Es	0.963139	1.465604	2.625587	99
34
Properties=species:S:1:pos:R:3:Z:I:1 energy=-267.7253157491752 field_type=dipole dipole="0.000000 0.000000 0.000000" charge=0
C	-1.417097	-0.698716	-0.325993	6
C	0.019183	-0.809746	-0.772173	6
O	0.428623	-1.827106	-1.335223	8
C	0.916283	0.392874	-0.565213	6
C	0.935033	0.853124	0.830187	6
C	0.953883	1.236374	1.968357	6
H	-1.855997	0.221284	-0.720313	1
H	-1.472657	-0.709226	0.764887	1
H	-1.986707	-1.547666	-0.715073	1
H	0.570813	1.189854	-1.231773	1
H	1.931323	0.121954	-0.876443	1
H	0.977313	1.576994	2.978776	1
Es	-1.441914	-0.689152	0.404062	99
Es	0.644857	1.230556	1.352080	99
Es	0.351548	-1.559968	-0.887955	99
Es	0.472759	-0.187840	-0.637869	99
Es	0.224008	-1.377647	-1.344575	99
Es	-1.683763	-0.091340	-0.589892	99
Es	-1.795751	-1.264540	-0.595927	99
Es	0.428406	-1.826831	-1.335037	99
Es	-1.417039	-0.698690	-0.326002	99
Es	0.963256	1.466020	2.625446	99
Es	1.582670	0.221882	-0.761818	99
Es	0.953881	1.236465	1.968590	99
Es	0.443397	-1.763293	-1.312087	99
Es	0.916227	0.392904	-0.565076	99
Es	0.019211	-0.809711	-0.772127	99
Es	1.236293	1.192921	1.345210	99
Es	0.946221	0.709631	1.516449	99
Es	0.912382	0.627851	0.162083	99
Es	0.935032	0.853008	0.829886	99
Es	0.482846	-2.062213	-1.510889	99
Es	-0.703806	-0.737069	-0.537314	99
Es	0.676652	0.900055	-0.983715	99
34
Properties=species:S:1:pos:R:3:Z:I:1 energy=-267.7253157491752 field_type=dipole dipole="0.000000 0.000000 0.000000" charge=0
C	-1.417097	-0.698716	-0.325993	6
C	0.019183	-0.809746	-0.772173	6
O	0.428623	-1.827106	-1.335223	8
C	0.916283	0.392874	-0.565213	6
C	0.935033	0.853124	0.830187	6
C	0.953883	1.236374	1.968357	6
H	-1.855997	0.221284	-0.720313	1
H	-1.472657	-0.709226	0.764887	1
H	-1.986707	-1.547666	-0.715073	1
H	0.570813	1.189854	-1.231773	1
H	1.931323	0.121954	-0.876443	1
H	0.977313	1.576994	2.978776	1
Es	0.648451	1.235437	1.350461	99
Es	0.432711	-1.787840	-1.319323	99
Es	1.236297	1.188418	1.346812	99
Es	0.494199	-2.056969	-1.513315	99
Es	-1.795426	-1.264774	-0.596652	99
Es	0.227111	-1.377827	-1.344165	99
Es	-1.442274	-0.688099	0.404240	99
Es	0.935035	0.852982	0.829895	99
Es	0.942641	0.709220	1.516486	99
Es	0.421459	-1.809679	-1.325562	99
Es	0.472701	-0.187699	-0.637978	99
Es	0.676934	0.899410	-0.983171	99
Es	0.019212	-0.809713	-0.772124	99
Es	0.963182	1.466425	2.625295	99
Es	0.953882	1.236462	1.968591	99
Es	0.354502	-1.557438	-0.888489	99
Es	-1.417038	-0.698690	-0.326002	99
Es	-1.682892	-0.092476	-0.589805	99
Es	-0.704446	-0.736804	-0.536716	99
Es	1.582464	0.221893	-0.762158	99
Es	0.916224	0.392903	-0.565072	99
Es	0.912445	0.627855	0.162274	99
34
Properties=species:S:1:pos:R:3:Z:I:1 energy=-267.7253157491752 field_type=dipole dipole="0.000000 0.000000 0.000000" charge=0
C	-1.417097	-0.698716	-0.325993	6
C	0.019183	-0.809746	-0.772173	6
O	0.428623	-1.827106	-1.335223	8
C	0.916283	0.392874	-0.565213	6
C	0.935033	0.853124	0.830187	6
C	0.953883	1.236374	1.968357	6
H	-1.855997	0.221284	-0.720313	1
H	-1.472657	-0.709226	0.764887	1
H	-1.986707	-1.547666	-0.715073	1
H	0.570813	1.189854	-1.231773	1
H	1.931323	0.121954	-0.876443	1
H	0.977313	1.576994	2.978776	1
Es	0.423485	-1.820335	-1.330794	99
Es	0.677201	0.899006	-0.983048	99
Es	0.916225	0.392903	-0.565073	99
Es	-1.417038	-0.698690	-0.326002	99
Es	0.228700	-1.379259	-1.343114	99
Es	-1.795090	-1.264828	-0.597196	99
Es	0.019212	-0.809713	-0.772123	99
Es	1.582424	0.221270	-0.762302	99
Es	0.963136	1.466581	2.625254	99
Es	0.953880	1.236460	1.968591	99
Es	-1.682375	-0.093377	-0.589610	99
Es	-0.704911	-0.736559	-0.536521	99
Es	0.655163	1.245463	1.347033	99
Es	0.935040	0.853000	0.829887	99
Es	0.472569	-0.187090	-0.637770	99
Es	1.239288	1.178117	1.350456	99
Es	-1.442577	-0.687481	0.404410	99
Es	0.912423	0.627979	0.162366	99
Es	0.431223	-1.777047	-1.314107	99
Es	0.932820	0.709491	1.516254	99
Es	0.353249	-1.556866	-0.888505	99
Es	0.493322	-2.056029	-1.514567	99
34
Properties=species:S:1:pos:R:3:Z:I:1 energy=-267.7253157491752 field_type=dipole dipole="0.000000 0.000000 0.000000" charge=0
C	-1.417097	-0.698716	-0.325993	6
C	0.019183	-0.809746	-0.772173	6
O	0.428623	-1.827106	-1.335223	8
C	0.916283	0.392874	-0.565213	6
C	0.935033	0.853124	0.830187	6
C	0.953883	1.236374	1.968357	6
H	-1.855997	0.221284	-0.720313	1
H	-1.472657	-0.709226	0.764887	1
H	-1.986707	-1.547666	-0.715073	1
H	0.570813	1.189854	-1.231773	1
H	1.931323	0.121954	-0.876443	1
H	0.977313	1.576994	2.978776	1
Es	0.019213	-0.809714	-0.772123	99
Es	1.582296	0.222266	-0.762619	99
Es	0.630198	1.205816	1.360273	99
Es	0.352229	-1.556268	-0.888809	99
Es	0.472797	-0.187752	-0.637966	99
Es	0.487441	-2.057643	-1.514639	99
Es	-1.417037	-0.698690	-0.326003	99
Es	-1.681888	-0.094436	-0.589485	99
Es	0.953878	1.236464	1.968591	99
Es	0.962588	1.466840	2.625118	99
Es	0.987843	0.708835	1.516781	99
Es	0.916227	0.392903	-0.565075	99
Es	0.228775	-1.380590	-1.342331	99
Es	-0.705247	-0.736420	-0.536062	99
Es	0.935033	0.853003	0.829886	99
Es	0.429535	-1.825325	-1.334707	99
Es	0.912614	0.628430	0.162298	99
Es	0.431728	-1.769393	-1.311016	99
Es	0.677168	0.898226	-0.982400	99
Es	-1.794645	-1.265045	-0.597579	99
Es	1.209532	1.218088	1.336869	99
Es	-1.442903	-0.686595	0.404516	99
34
Properties=species:S:1:pos:R:3:Z:I:1 energy=-267.7253157491752 field_type=dipole dipole="0.000000 0.000000 0.000000" charge=0
C	-1.417097	-0.698716	-0.325993	6
C	0.019183	-0.809746	-0.772173	6
O	0.428623	-1.827106	-1.335223	8
C	0.916283	0.392874	-0.565213	6
C	0.935033	0.853124	0.830187	6
C	0.953883	1.236374	1.968357	6
H	-1.855997	0.221284	-0.720313	1
H	-1.472657	-0.709226	0.764887	1
H	-1.986707	-1.547666	-0.715073	1
H	0.570813	1.189854	-1.231773	1
H	1.931323	0.121954	-0.876443	1
H	0.977313	1.576994	2.978776	1
Es	0.953875	1.236463	1.968591	99
Es	-1.417039	-0.698690	-0.326002	99
Es	0.961829	1.466958	2.625024	99
Es	0.935035	0.853004	0.829885	99
Es	0.352152	-1.555154	-0.889146	99
Es	1.582255	0.222011	-0.762614	99
Es	0.420509	-1.774401	-1.309807	99
Es	0.677538	0.897699	-0.982174	99
Es	0.916222	0.392907	-0.565072	99
Es	-1.794335	-1.265230	-0.597906	99
Es	-1.443173	-0.685779	0.404559	99
Es	-0.705644	-0.736221	-0.535732	99
Es	1.238238	0.856541	1.465899	99
Es	0.496976	-2.053500	-1.516218	99
Es	0.929967	1.378249	1.293333	99
Es	0.659729	0.898003	1.454695	99
Es	0.429859	-1.824796	-1.334560	99
Es	-1.681404	-0.095327	-0.589373	99
Es	0.230117	-1.381306	-1.341884	99
Es	0.019212	-0.809713	-0.772125	99
Es	0.912783	0.628740	0.162285	99
Es	0.472672	-0.187461	-0.638140	99
34
Properties=species:S:1:pos:R:3:Z:I:1 energy=-267.7253157491752 field_type=dipole dipole="0.000000 0.000000 0.000000" charge=0
C	-1.417097	-0.698716	-0.325993	6
C	0.019183	-0.809746	-0.772173	6
O	0.428623	-1.827106	-1.335223	8
C	0.916283	0.392874	-0.565213	6
C	0.935033	0.853124	0.830187	6
C	0.953883	1.236374	1.968357	6
H	-1.855997	0.221284	-0.720313	1
H	-1.472657	-0.709226	0.764887	1
H	-1.986707	-1.547666	-0.715073	1
H	0.570813	1.189854	-1.231773	1
H	1.931323	0.121954	-0.876443	1
H	0.977313	1.576994	2.978776	1
Es	0.432478	-1.804987	-1.326651	99
Es	0.912591	0.628687	0.162371	99
Es	1.202234	1.220564	1.336153	99
Es	0.019214	-0.809717	-0.772122	99
Es	-1.443161	-0.685376	0.404648	99
Es	-1.793891	-1.265433	-0.598734	99
Es	-1.680911	-0.095939	-0.589079	99
Es	0.935032	0.853002	0.829887	99
Es	0.953879	1.236468	1.968589	99
Es	0.352692	-1.553356	-0.889571	99
Es	0.916228	0.392901	-0.565076	99
Es	0.994367	0.707535	1.517009	99
Es	-0.706474	-0.735884	-0.535310	99
Es	0.962571	1.467169	2.624996	99
Es	0.472443	-0.187126	-0.638060	99
Es	0.231907	-1.382737	-1.341066	99
Es	0.417291	-1.794506	-1.317675	99
Es	-1.417038	-0.698691	-0.326003	99
Es	0.677746	0.897370	-0.981657	99
Es	1.582220	0.221809	-0.762994	99
Es	0.495105	-2.053368	-1.516901	99
Es	0.630851	1.204611	1.360764	99
34
Properties=species:S:1:pos:R:3:Z:I:1 energy=-267.7253157491752 field_type=dipole dipole="0.000000 0.000000 0.000000" charge=0
C	-1.417097	-0.698716	-0.325993	6
C	0.019183	-0.809746	-0.772173	6
O	0.428623	-1.827106	-1.335223	8
C	0.916283	0.392874	-0.565213	6
C	0.935033	0.853124	0.830187	6
C	0.953883	1.236374	1.968357	6
H	-1.855997	0.221284	-0.720313	1
H	-1.472657	-0.709226	0.764887	1
H	-1.986707	-1.547666	-0.715073	1
H	0.570813	1.189854	-1.231773	1
H	1.931323	0.121954	-0.876443	1
H	0.977313	1.576994	2.978776	1
Es	0.962566	1.467112	2.625043	99
Es	0.677618	0.897084	-0.981519	99
Es	0.953873	1.236466	1.968590	99
Es	-1.793796	-1.265364	-0.599055	99
Es	0.492981	-2.053074	-1.517802	99
Es	-1.417037	-0.698689	-0.326001	99
Es	0.427518	-1.771760	-1.310817	99
Es	0.916226	0.392901	-0.565075	99
Es	0.352376	-1.553591	-0.889464	99
Es	0.230370	-1.384494	-1.339877	99
Es	-1.443401	-0.684927	0.404698	99
Es	0.962218	0.706418	1.517220	99
Es	-1.680508	-0.096578	-0.588892	99
Es	0.019213	-0.809716	-0.772123	99
Es	0.912557	0.628689	0.162434	99
Es	0.646169	1.233354	1.351095	99
Es	0.426228	-1.825909	-1.334025	99
Es	0.472633	-0.186724	-0.637781	99
Es	0.935043	0.852995	0.829889	99
Es	1.582311	0.221462	-0.763377	99
Es	-0.706742	-0.735682	-0.535201	99
Es	1.218958	1.193022	1.345563	99
34
Properties=species:S:1:pos:R:3:Z:I:1 energy=-267.7253157491752 field_type=dipole dipole="0.000000 0.000000 0.000000" charge=0
C	-1.417097	-0.698716	-0.325993	6
C	0.019183	-0.809746	-0.772173	6
O	0.428623	-1.827106	-1.335223	8
C	0.916283	0.392874	-0.565213	6
C	0.935033	0.853124	0.830187	6
C	0.953883	1.236374	1.968357	6
H	-1.855997	0.221284	-0.720313	1
H	-1.472657	-0.709226	0.764887	1
H	-1.986707	-1.547666	-0.715073	1
H	0.570813	1.189854	-1.231773	1
H	1.931323	0.121954	-0.876443	1
H	0.977313	1.576994	2.978776	1
Es	0.916228	0.392901	-0.565076	99
Es	0.427919	-1.826832	-1.334901	99
Es	-1.417039	-0.698691	-0.326003	99
Es	0.493843	-2.051891	-1.518693	99
Es	0.472262	-0.186064	-0.637885	99
Es	0.659255	1.253231	1.344253	99
Es	0.678017	0.896687	-0.980977	99
Es	0.940538	0.707049	1.516850	99
Es	0.353115	-1.554072	-0.889367	99
Es	1.227622	1.172593	1.352735	99
Es	-0.706781	-0.735617	-0.535241	99
Es	-1.443699	-0.684352	0.404700	99
Es	-1.680090	-0.097384	-0.588618	99
Es	0.230403	-1.384356	-1.339451	99
Es	0.953877	1.236461	1.968592	99
Es	0.019215	-0.809719	-0.772119	99
Es	-1.793851	-1.265239	-0.599258	99
Es	0.935029	0.853008	0.829885	99
Es	1.582383	0.220925	-0.763684	99
Es	0.962540	1.467138	2.625043	99
Es	0.424209	-1.771522	-1.309729	99
Es	0.912378	0.628743	0.162466	99
34
Properties=species:S:1:pos:R:3:Z:I:1 energy=-267.7253157491752 field_type=dipole dipole="0.000000 0.000000 0.000000" charge=0
C	-1.417097	-0.698716	-0.325993	6
C	0.019183	-0.809746	-0.772173	6
O	0.428623	-1.827106	-1.335223	8
C	0.916283	0.392874	-0.565213	6
C	0.935033	0.853124	0.830187	6
C	0.953883	1.236374	1.968357	6
H	-1.855997	0.221284	-0.720313	1
H	-1.472657	-0.709226	0.764887	1
H	-1.986707	-1.547666	-0.715073	1
H	0.570813	1.189854	-1.231773	1
H	1.931323	0.121954	-0.876443	1
H	0.977313	1.576994	2.978776	1
Es	0.653792	1.245701	1.346844	99
Es	-1.793193	-1.265503	-0.599737	99
Es	0.912437	0.628964	0.162433	99
Es	0.677922	0.896359	-0.980933	99
Es	0.953876	1.236464	1.968591	99
Es	0.951898	0.706337	1.517130	99
Es	-0.707347	-0.735593	-0.534758	99
Es	0.496077	-2.050541	-1.519380	99
Es	0.427871	-1.826835	-1.334890	99
Es	0.916220	0.392912	-0.565074	99
Es	0.472427	-0.186267	-0.637638	99
Es	0.353209	-1.553003	-0.889707	99
Es	-1.679732	-0.097926	-0.588623	99
Es	0.935036	0.853001	0.829886	99
Es	1.221770	1.180723	1.349919	99
Es	0.231286	-1.385178	-1.339017	99
Es	-1.443973	-0.683802	0.404715	99
Es	-1.417037	-0.698690	-0.326001	99
Es	0.420917	-1.772945	-1.309345	99
Es	1.582291	0.221256	-0.763748	99
Es	0.019213	-0.809716	-0.772121	99
Es	0.962412	1.467279	2.624976	99
34
Properties=species:S:1:pos:R:3:Z:I:1 energy=-267.7253157491752 field_type=dipole dipole="0.000000 0.000000 0.000000" charge=0
C	-1.417097	-0.698716	-0.325993	6
C	0.019183	-0.809746	-0.772173	6
O	0.428623	-1.827106	-1.335223	8
C	0.916283	0.392874	-0.565213	6
C	0.935033	0.853124	0.830187	6
C	0.953883	1.236374	1.968357	6
H	-1.855997	0.221284	-0.720313	1
H	-1.472657	-0.709226	0.764887	1
H	-1.986707	-1.547666	-0.715073	1
H	0.570813	1.189854	-1.231773	1
H	1.931323	0.121954	-0.876443	1
H	0.977313	1.576994	2.978776	1
Es	0.428181	-1.826879	-1.335000	99
Es	0.916225	0.392901	-0.565071	99
Es	-1.792626	-1.265753	-0.600048	99
Es	0.912663	0.629127	0.162434	99
Es	0.351970	-1.552919	-0.889783	99
Es	0.232675	-1.385464	-1.338620	99
Es	1.200385	1.209994	1.339937	99
Es	0.991174	0.706413	1.517187	99
Es	-0.707813	-0.735261	-0.534430	99
Es	0.953879	1.236460	1.968592	99
Es	-1.679636	-0.098404	-0.588489	99
Es	-1.444012	-0.683475	0.404750	99
Es	0.636072	1.216145	1.356889	99
Es	-1.417039	-0.698691	-0.326002	99
Es	0.472436	-0.186643	-0.638097	99
Es	0.961957	1.467420	2.624877	99
Es	0.678064	0.896031	-0.980518	99
Es	0.019212	-0.809715	-0.772123	99
Es	0.425284	-1.771077	-1.309752	99
Es	1.582168	0.221874	-0.763799	99
Es	0.935038	0.853006	0.829887	99
Es	0.491119	-2.052092	-1.519301	99
34
Properties=species:S:1:pos:R:3:Z:I:1 energy=-267.7253157491752 field_type=dipole dipole="0.000000 0.000000 0.000000" charge=0
C	-1.417097	-0.698716	-0.325993	6
C	0.019183	-0.809746	-0.772173	6
O	0.428623	-1.827106	-1.335223	8
C	0.916283	0.392874	-0.565213	6
C	0.935033	0.853124	0.830187	6
C	0.953883	1.236374	1.968357	6
H	-1.855997	0.221284	-0.720313	1
H	-1.472657	-0.709226	0.764887	1
H	-1.986707	-1.547666	-0.715073	1
H	0.570813	1.189854	-1.231773	1
H	1.931323	0.121954	-0.876443	1
H	0.977313	1.576994	2.978776	1
Es	0.352139	-1.553180	-0.889684	99
Es	0.019216	-0.809718	-0.772118	99
Es	0.953877	1.236465	1.968591	99
Es	0.472369	-0.186334	-0.638089	99
Es	1.213283	1.187183	1.347779	99
Es	-1.792704	-1.265649	-0.600208	99
Es	1.582275	0.221706	-0.764193	99
Es	0.916228	0.392902	-0.565075	99
Es	0.427994	-1.826818	-1.334920	99
Es	0.424193	-1.771594	-1.309700	99
Es	0.649453	1.239807	1.348840	99
Es	-1.444175	-0.683022	0.404747	99
Es	0.935038	0.853003	0.829886	99
Es	-1.417038	-0.698690	-0.326002	99
Es	-1.679269	-0.098954	-0.588328	99
Es	0.962138	1.467433	2.624894	99
Es	0.912513	0.629074	0.162480	99
Es	-0.707990	-0.735175	-0.534448	99
Es	0.678149	0.895672	-0.980052	99
Es	0.492770	-2.050644	-1.520200	99
Es	0.964769	0.705662	1.517339	99
Es	0.232145	-1.386133	-1.338018	99
34
Properties=species:S:1:pos:R:3:Z:I:1 energy=-267.7253157491752 field_type=dipole dipole="0.000000 0.000000 0.000000" charge=0
C	-1.417097	-0.698716	-0.325993	6
C	0.019183	-0.809746	-0.772173	6
O	0.428623	-1.827106	-1.335223	8
C	0.916283	0.392874	-0.565213	6
C	0.935033	0.853124	0.830187	6
C	0.953883	1.236374	1.968357	6
H	-1.855997	0.221284	-0.720313	1
H	-1.472657	-0.709226	0.764887	1
H	-1.986707	-1.547666	-0.715073	1
H	0.570813	1.189854	-1.231773	1
H	1.931323	0.121954	-0.876443	1
H	0.977313	1.576994	2.978776	1
Es	-1.417038	-0.698690	-0.326002	99
Es	0.233255	-1.386411	-1.337873	99
Es	0.658936	1.254294	1.343789	99
Es	0.916226	0.392903	-0.565073	99
Es	-1.678905	-0.099550	-0.587987	99
Es	0.352120	-1.552416	-0.889921	99
Es	0.935038	0.853000	0.829887	99
Es	0.430400	-1.802803	-1.325089	99
Es	1.582322	0.221471	-0.764483	99
Es	0.496120	-2.049127	-1.520739	99
Es	0.472134	-0.186116	-0.638102	99
Es	-0.708342	-0.734889	-0.534265	99
Es	-1.444327	-0.682652	0.404711	99
Es	0.949801	0.705920	1.517165	99
Es	1.218659	1.172537	1.352942	99
Es	-1.792585	-1.265658	-0.600666	99
Es	0.962271	1.467496	2.624878	99
Es	0.912453	0.629207	0.162465	99
Es	0.019214	-0.809717	-0.772121	99
Es	0.417348	-1.797493	-1.319009	99
Es	0.678398	0.895227	-0.979578	99
Es	0.953877	1.236464	1.968591	99
34
Properties=species:S:1:pos:R:3:Z:I:1 energy=-267.7253157491752 field_type=dipole dipole="0.000000 0.000000 0.000000" charge=0
C	-1.417097	-0.698716	-0.325993	6
C	0.019183	-0.809746	-0.772173	6
O	0.428623	-1.827106	-1.335223	8
C	0.916283	0.392874	-0.565213	6
C	0.935033	0.853124	0.830187	6
C	0.953883	1.236374	1.968357	6
H	-1.855997	0.221284	-0.720313	1
H	-1.472657	-0.709226	0.764887	1
H	-1.986707	-1.547666	-0.715073	1
H	0.570813	1.189854	-1.231773	1
H	1.931323	0.121954	-0.876443	1
H	0.977313	1.576994	2.978776	1
Es	-1.678830	-0.099744	-0.587992	99
Es	-1.444499	-0.682555	0.404762	99
Es	0.422569	-1.819615	-1.330209	99
Es	-1.417039	-0.698690	-0.326002	99
Es	-1.791735	-1.265878	-0.601144	99
Es	0.967556	0.705248	1.517436	99
Es	-0.708962	-0.734697	-0.533681	99
Es	0.962152	1.467635	2.624807	99
Es	0.427977	-1.779531	-1.314199	99
Es	0.935038	0.852999	0.829887	99
Es	0.493704	-2.049912	-1.520675	99
Es	0.233508	-1.387310	-1.337528	99
Es	0.649424	1.239657	1.348893	99
Es	0.678469	0.895259	-0.979749	99
Es	0.472186	-0.185746	-0.638007	99
Es	0.912570	0.629300	0.162472	99
Es	0.019214	-0.809717	-0.772121	99
Es	1.210378	1.187644	1.347665	99
Es	0.953877	1.236463	1.968592	99
Es	0.916227	0.392902	-0.565073	99
Es	0.351358	-1.551765	-0.890168	99
Es	1.582231	0.221052	-0.764445	99
