40
Properties=species:S:1:pos:R:3:Z:I:1 energy=-270.08744731439276 field_type=dipole dipole="0.000000 0.000000 0.000000" charge=0
C	-2.439431	-1.243653	0.045302	6
C	-0.924341	-1.291323	0.033612	6
O	-0.434891	0.030337	-0.171138	8
C	0.988939	0.065597	-0.189148	6
C	1.398399	1.486097	-0.407768	6
C	2.207859	2.182027	0.401212	6
H	-2.860671	-2.241523	0.198982	1
H	-2.820561	-0.840803	-0.899428	1
H	-2.798651	-0.582203	0.841212	1
H	-0.579221	-1.943803	-0.775308	1
H	-0.558131	-1.679073	0.989992	1
H	1.363120	-0.550113	-1.014248	1
H	1.382949	-0.323993	0.756652	1
H	0.987869	1.971027	-1.291258	1
H	2.632149	1.745317	1.300062	1
H	2.454609	3.216087	0.181272	1
Es	2.071238	1.729909	-0.171063	99
Es	2.499019	1.888418	1.012278	99
Es	-2.718194	-1.927668	0.150429	99
Es	0.110773	0.011058	-0.175400	99
Es	-0.434695	0.030048	-0.171084	99
Es	2.381605	2.882562	0.257790	99
Es	2.207932	2.182074	0.401269	99
Es	-0.680533	-1.745831	-0.524175	99
Es	1.200178	0.779056	-0.294151	99
Es	1.398340	1.486014	-0.407824	99
Es	-1.684380	-1.269559	0.039744	99
Es	-0.525274	0.113113	-0.453365	99
Es	0.988727	0.065632	-0.189159	99
Es	1.118587	1.805008	-1.008888	99
Es	-0.516144	0.186810	0.078872	99
Es	1.557126	1.934780	0.176006	99
Es	-0.665922	-1.562978	0.694067	99
Es	-2.439403	-1.243671	0.045304	99
Es	-0.924295	-1.291112	0.033580	99
Es	-2.694276	-0.976375	-0.599197	99
Es	-2.679311	-0.800086	0.589878	99
Es	1.249537	-0.356751	-0.754874	99
Es	1.264605	-0.203454	0.461649	99
Es	-0.586559	-0.482792	-0.094208	99
40
Properties=species:S:1:pos:R:3:Z:I:1 energy=-270.08744731439276 field_type=dipole dipole="0.000000 0.000000 0.000000" charge=0
C	-2.439431	-1.243653	0.045302	6
C	-0.924341	-1.291323	0.033612	6
O	-0.434891	0.030337	-0.171138	8
C	0.988939	0.065597	-0.189148	6
C	1.398399	1.486097	-0.407768	6
C	2.207859	2.182027	0.401212	6
H	-2.860671	-2.241523	0.198982	1
H	-2.820561	-0.840803	-0.899428	1
H	-2.798651	-0.582203	0.841212	1
H	-0.579221	-1.943803	-0.775308	1
H	-0.558131	-1.679073	0.989992	1
H	1.363120	-0.550113	-1.014248	1
H	1.382949	-0.323993	0.756652	1
H	0.987869	1.971027	-1.291258	1
H	2.632149	1.745317	1.300062	1
H	2.454609	3.216087	0.181272	1
Es	2.207929	2.182074	0.401269	99
Es	-2.718535	-1.928192	0.150221	99
Es	0.111367	0.012532	-0.168460	99
Es	0.988724	0.065635	-0.189159	99
Es	-0.924295	-1.291114	0.033578	99
Es	1.398338	1.486015	-0.407823	99
Es	-0.434692	0.030054	-0.171103	99
Es	-2.693938	-0.976293	-0.598675	99
Es	-0.587504	-0.483626	-0.097130	99
Es	2.071869	1.729861	-0.171590	99
Es	-0.680589	-1.745763	-0.524120	99
Es	-0.520716	0.113171	-0.454036	99
Es	-0.520269	0.185998	0.075486	99
Es	-1.684434	-1.269371	0.039536	99
Es	1.200225	0.779128	-0.294430	99
Es	-2.679280	-0.799915	0.589687	99
Es	1.249715	-0.356920	-0.754662	99
Es	1.264355	-0.203226	0.461468	99
Es	2.499050	1.888653	1.011915	99
Es	1.556445	1.934905	0.176634	99
Es	2.381734	2.882472	0.257990	99
Es	-2.439403	-1.243671	0.045304	99
Es	-0.665950	-1.563080	0.693951	99
Es	1.118532	1.804877	-1.008372	99
40
Properties=species:S:1:pos:R:3:Z:I:1 energy=-270.08744731439276 field_type=dipole dipole="0.000000 0.000000 0.000000" charge=0
C	-2.439431	-1.243653	0.045302	6
C	-0.924341	-1.291323	0.033612	6
O	-0.434891	0.030337	-0.171138	8
C	0.988939	0.065597	-0.189148	6
C	1.398399	1.486097	-0.407768	6
C	2.207859	2.182027	0.401212	6
H	-2.860671	-2.241523	0.198982	1
H	-2.820561	-0.840803	-0.899428	1
H	-2.798651	-0.582203	0.841212	1
H	-0.579221	-1.943803	-0.775308	1
H	-0.558131	-1.679073	0.989992	1
H	1.363120	-0.550113	-1.014248	1
H	1.382949	-0.323993	0.756652	1
H	0.987869	1.971027	-1.291258	1
H	2.632149	1.745317	1.300062	1
H	2.454609	3.216087	0.181272	1
Es	-2.679351	-0.799706	0.589458	99
Es	-0.434677	0.030020	-0.171136	99
Es	0.112110	0.014670	-0.162568	99
Es	0.988727	0.065633	-0.189159	99
Es	1.398337	1.486014	-0.407829	99
Es	-2.718644	-1.928449	0.150263	99
Es	1.556129	1.934959	0.177048	99
Es	-0.680746	-1.745518	-0.524044	99
Es	2.381606	2.882459	0.258153	99
Es	-2.693684	-0.976435	-0.598573	99
Es	2.072157	1.729921	-0.171953	99
Es	-1.684458	-1.269221	0.039337	99
Es	-0.516074	0.114202	-0.451529	99
Es	1.264191	-0.203044	0.461387	99
Es	2.499183	1.888676	1.011780	99
Es	-0.588342	-0.484981	-0.103653	99
Es	2.207935	2.182075	0.401269	99
Es	-0.924295	-1.291113	0.033579	99
Es	1.118576	1.804752	-1.008064	99
Es	-0.524698	0.184072	0.073592	99
Es	-0.665954	-1.563359	0.694019	99
Es	-2.439403	-1.243671	0.045303	99
Es	1.200235	0.779256	-0.294744	99
Es	1.249821	-0.357007	-0.754456	99
40
Properties=species:S:1:pos:R:3:Z:I:1 energy=-270.08744731439276 field_type=dipole dipole="0.000000 0.000000 0.000000" charge=0
C	-2.439431	-1.243653	0.045302	6
C	-0.924341	-1.291323	0.033612	6
O	-0.434891	0.030337	-0.171138	8
C	0.988939	0.065597	-0.189148	6
C	1.398399	1.486097	-0.407768	6
C	2.207859	2.182027	0.401212	6
H	-2.860671	-2.241523	0.198982	1
H	-2.820561	-0.840803	-0.899428	1
H	-2.798651	-0.582203	0.841212	1
H	-0.579221	-1.943803	-0.775308	1
H	-0.558131	-1.679073	0.989992	1
H	1.363120	-0.550113	-1.014248	1
H	1.382949	-0.323993	0.756652	1
H	0.987869	1.971027	-1.291258	1
H	2.632149	1.745317	1.300062	1
H	2.454609	3.216087	0.181272	1
Es	-0.589067	-0.485991	-0.108645	99
Es	1.200155	0.779304	-0.294796	99
Es	0.988731	0.065633	-0.189159	99
Es	2.499061	1.888719	1.011785	99
Es	-2.718769	-1.928686	0.150088	99
Es	1.264063	-0.203034	0.461313	99
Es	-2.693493	-0.976302	-0.598390	99
Es	-0.666002	-1.563574	0.694041	99
Es	1.398341	1.486011	-0.407826	99
Es	1.118760	1.804684	-1.007933	99
Es	2.072491	1.729861	-0.172197	99
Es	-0.512741	0.115191	-0.449337	99
Es	0.112699	0.017250	-0.156911	99
Es	1.249899	-0.356953	-0.754415	99
Es	-1.684360	-1.269040	0.039281	99
Es	-0.434682	0.030057	-0.171089	99
Es	2.381608	2.882341	0.258381	99
Es	-0.924294	-1.291111	0.033577	99
Es	-2.439403	-1.243672	0.045304	99
Es	-0.527798	0.181439	0.070679	99
Es	1.555836	1.935146	0.177203	99
Es	-0.680883	-1.745375	-0.524087	99
Es	-2.679407	-0.799771	0.589343	99
Es	2.207935	2.182076	0.401270	99
40
Properties=species:S:1:pos:R:3:Z:I:1 energy=-270.08744731439276 field_type=dipole dipole="0.000000 0.000000 0.000000" charge=0
C	-2.439431	-1.243653	0.045302	6
C	-0.924341	-1.291323	0.033612	6
O	-0.434891	0.030337	-0.171138	8
C	0.988939	0.065597	-0.189148	6
C	1.398399	1.486097	-0.407768	6
C	2.207859	2.182027	0.401212	6
H	-2.860671	-2.241523	0.198982	1
H	-2.820561	-0.840803	-0.899428	1
H	-2.798651	-0.582203	0.841212	1
H	-0.579221	-1.943803	-0.775308	1
H	-0.558131	-1.679073	0.989992	1
H	1.363120	-0.550113	-1.014248	1
H	1.382949	-0.323993	0.756652	1
H	0.987869	1.971027	-1.291258	1
H	2.632149	1.745317	1.300062	1
H	2.454609	3.216087	0.181272	1
Es	2.207935	2.182076	0.401271	99
Es	1.118846	1.804598	-1.007850	99
Es	-2.439403	-1.243671	0.045304	99
Es	-1.684266	-1.268970	0.039262	99
Es	-0.509680	0.117803	-0.446658	99
Es	-2.679446	-0.799653	0.589273	99
Es	2.072734	1.729780	-0.172402	99
Es	1.263995	-0.202858	0.461325	99
Es	-2.693096	-0.976212	-0.598175	99
Es	-0.681037	-1.745311	-0.524169	99
Es	-2.719037	-1.928919	0.149840	99
Es	-0.529355	0.178000	0.068919	99
Es	1.398336	1.486015	-0.407826	99
Es	-0.590311	-0.486733	-0.114863	99
Es	-0.924295	-1.291108	0.033578	99
Es	0.988727	0.065633	-0.189157	99
Es	1.200070	0.779352	-0.294962	99
Es	1.555655	1.935263	0.177373	99
Es	0.112503	0.018720	-0.151636	99
Es	2.381444	2.882156	0.258404	99
Es	-0.666092	-1.563736	0.694114	99
Es	2.499154	1.888875	1.011895	99
Es	1.249991	-0.356959	-0.754264	99
Es	-0.434691	0.030063	-0.171116	99
40
Properties=species:S:1:pos:R:3:Z:I:1 energy=-270.08744731439276 field_type=dipole dipole="0.000000 0.000000 0.000000" charge=0
C	-2.439431	-1.243653	0.045302	6
C	-0.924341	-1.291323	0.033612	6
O	-0.434891	0.030337	-0.171138	8
C	0.988939	0.065597	-0.189148	6
C	1.398399	1.486097	-0.407768	6
C	2.207859	2.182027	0.401212	6
H	-2.860671	-2.241523	0.198982	1
H	-2.820561	-0.840803	-0.899428	1
H	-2.798651	-0.582203	0.841212	1
H	-0.579221	-1.943803	-0.775308	1
H	-0.558131	-1.679073	0.989992	1
H	1.363120	-0.550113	-1.014248	1
H	1.382949	-0.323993	0.756652	1
H	0.987869	1.971027	-1.291258	1
H	2.632149	1.745317	1.300062	1
H	2.454609	3.216087	0.181272	1
Es	2.073023	1.729655	-0.172602	99
Es	-1.684272	-1.268934	0.039034	99
Es	1.199949	0.779374	-0.295048	99
Es	-0.592452	-0.487199	-0.120734	99
Es	2.207938	2.182077	0.401271	99
Es	-0.434698	0.030092	-0.171074	99
Es	-2.718859	-1.928900	0.149983	99
Es	0.112585	0.020771	-0.145477	99
Es	1.263934	-0.202720	0.461326	99
Es	-0.666108	-1.563889	0.694196	99
Es	0.988730	0.065633	-0.189159	99
Es	1.555502	1.935371	0.177503	99
Es	-2.693218	-0.976323	-0.598311	99
Es	1.250088	-0.356972	-0.754307	99
Es	2.381303	2.882107	0.258612	99
Es	-0.506294	0.119416	-0.443058	99
Es	-0.530632	0.174731	0.065004	99
Es	2.499016	1.888939	1.011969	99
Es	-2.679352	-0.799578	0.589366	99
Es	1.398339	1.486012	-0.407827	99
Es	-0.924296	-1.291111	0.033580	99
Es	1.119018	1.804519	-1.007839	99
Es	-0.681163	-1.745196	-0.524233	99
Es	-2.439402	-1.243672	0.045303	99
40
Properties=species:S:1:pos:R:3:Z:I:1 energy=-270.08744731439276 field_type=dipole dipole="0.000000 0.000000 0.000000" charge=0
C	-2.439431	-1.243653	0.045302	6
C	-0.924341	-1.291323	0.033612	6
O	-0.434891	0.030337	-0.171138	8
C	0.988939	0.065597	-0.189148	6
C	1.398399	1.486097	-0.407768	6
C	2.207859	2.182027	0.401212	6
H	-2.860671	-2.241523	0.198982	1
H	-2.820561	-0.840803	-0.899428	1
H	-2.798651	-0.582203	0.841212	1
H	-0.579221	-1.943803	-0.775308	1
H	-0.558131	-1.679073	0.989992	1
H	1.363120	-0.550113	-1.014248	1
H	1.382949	-0.323993	0.756652	1
H	0.987869	1.971027	-1.291258	1
H	2.632149	1.745317	1.300062	1
H	2.454609	3.216087	0.181272	1
Es	1.119260	1.804449	-1.007822	99
Es	-0.592832	-0.487483	-0.128237	99
Es	0.988729	0.065632	-0.189160	99
Es	-2.679229	-0.799511	0.589610	99
Es	0.112923	0.024241	-0.141027	99
Es	2.381085	2.881942	0.258670	99
Es	-0.434691	0.030080	-0.171095	99
Es	2.207936	2.182077	0.401273	99
Es	2.073242	1.729580	-0.172735	99
Es	-0.529896	0.167164	0.063002	99
Es	-1.684385	-1.268929	0.038956	99
Es	1.555331	1.935482	0.177598	99
Es	-0.924296	-1.291111	0.033580	99
Es	-2.693065	-0.976193	-0.598234	99
Es	1.199887	0.779296	-0.295205	99
Es	1.398338	1.486011	-0.407825	99
Es	2.498934	1.889128	1.012203	99
Es	-2.439403	-1.243671	0.045303	99
Es	-0.681250	-1.745249	-0.524369	99
Es	1.250171	-0.356981	-0.754366	99
Es	-2.718855	-1.929061	0.149774	99
Es	-0.666148	-1.563880	0.694245	99
Es	1.263877	-0.202606	0.461362	99
Es	-0.506984	0.123797	-0.438018	99
40
Properties=species:S:1:pos:R:3:Z:I:1 energy=-270.08744731439276 field_type=dipole dipole="0.000000 0.000000 0.000000" charge=0
C	-2.439431	-1.243653	0.045302	6
C	-0.924341	-1.291323	0.033612	6
O	-0.434891	0.030337	-0.171138	8
C	0.988939	0.065597	-0.189148	6
C	1.398399	1.486097	-0.407768	6
C	2.207859	2.182027	0.401212	6
H	-2.860671	-2.241523	0.198982	1
H	-2.820561	-0.840803	-0.899428	1
H	-2.798651	-0.582203	0.841212	1
H	-0.579221	-1.943803	-0.775308	1
H	-0.558131	-1.679073	0.989992	1
H	1.363120	-0.550113	-1.014248	1
H	1.382949	-0.323993	0.756652	1
H	0.987869	1.971027	-1.291258	1
H	2.632149	1.745317	1.300062	1
H	2.454609	3.216087	0.181272	1
Es	1.119365	1.804389	-1.007874	99
Es	1.555165	1.935569	0.177691	99
Es	1.250278	-0.357033	-0.754268	99
Es	-0.434680	0.030082	-0.171094	99
Es	-0.594696	-0.487328	-0.132785	99
Es	1.263823	-0.202372	0.461441	99
Es	2.498997	1.889290	1.012390	99
Es	-1.684205	-1.268809	0.039020	99
Es	2.207933	2.182077	0.401273	99
Es	-2.718847	-1.929092	0.149683	99
Es	1.398339	1.486010	-0.407826	99
Es	-0.666267	-1.563955	0.694348	99
Es	-0.531251	0.165925	0.058264	99
Es	-2.679266	-0.799438	0.589666	99
Es	1.199843	0.779279	-0.295373	99
Es	-0.502939	0.122904	-0.434942	99
Es	-0.924298	-1.291120	0.033582	99
Es	-2.439403	-1.243671	0.045303	99
Es	2.380950	2.881739	0.258607	99
Es	0.988732	0.065634	-0.189160	99
Es	-2.692921	-0.976211	-0.598260	99
Es	2.073362	1.729511	-0.172771	99
Es	-0.681472	-1.745308	-0.524551	99
Es	0.112137	0.026131	-0.134885	99
40
Properties=species:S:1:pos:R:3:Z:I:1 energy=-270.08744731439276 field_type=dipole dipole="0.000000 0.000000 0.000000" charge=0
C	-2.439431	-1.243653	0.045302	6
C	-0.924341	-1.291323	0.033612	6
O	-0.434891	0.030337	-0.171138	8
C	0.988939	0.065597	-0.189148	6
C	1.398399	1.486097	-0.407768	6
C	2.207859	2.182027	0.401212	6
H	-2.860671	-2.241523	0.198982	1
H	-2.820561	-0.840803	-0.899428	1
H	-2.798651	-0.582203	0.841212	1
H	-0.579221	-1.943803	-0.775308	1
H	-0.558131	-1.679073	0.989992	1
H	1.363120	-0.550113	-1.014248	1
H	1.382949	-0.323993	0.756652	1
H	0.987869	1.971027	-1.291258	1
H	2.632149	1.745317	1.300062	1
H	2.454609	3.216087	0.181272	1
Es	1.199753	0.779219	-0.295335	99
Es	2.207934	2.182078	0.401273	99
Es	-0.500460	0.121981	-0.432081	99
Es	1.398341	1.486014	-0.407828	99
Es	-0.531956	0.163116	0.052817	99
Es	-2.679226	-0.799297	0.589768	99
Es	0.111188	0.029796	-0.128327	99
Es	-2.692860	-0.976278	-0.598257	99
Es	0.988726	0.065634	-0.189160	99
Es	-0.434713	0.030045	-0.171152	99
Es	-1.684154	-1.268820	0.039067	99
Es	-2.439404	-1.243671	0.045302	99
Es	1.119442	1.804262	-1.007896	99
Es	2.498949	1.889483	1.012614	99
Es	-0.595470	-0.487187	-0.136633	99
Es	1.250301	-0.357019	-0.754448	99
Es	2.380773	2.881539	0.258621	99
Es	-0.666218	-1.563997	0.694357	99
Es	-0.681646	-1.745322	-0.524731	99
Es	1.555022	1.935703	0.177702	99
Es	2.073628	1.729425	-0.172925	99
Es	1.263866	-0.202307	0.461499	99
Es	-0.924294	-1.291108	0.033577	99
Es	-2.718843	-1.929086	0.149656	99
40
Properties=species:S:1:pos:R:3:Z:I:1 energy=-270.08744731439276 field_type=dipole dipole="0.000000 0.000000 0.000000" charge=0
C	-2.439431	-1.243653	0.045302	6
C	-0.924341	-1.291323	0.033612	6
O	-0.434891	0.030337	-0.171138	8
C	0.988939	0.065597	-0.189148	6
C	1.398399	1.486097	-0.407768	6
C	2.207859	2.182027	0.401212	6
H	-2.860671	-2.241523	0.198982	1
H	-2.820561	-0.840803	-0.899428	1
H	-2.798651	-0.582203	0.841212	1
H	-0.579221	-1.943803	-0.775308	1
H	-0.558131	-1.679073	0.989992	1
H	1.363120	-0.550113	-1.014248	1
H	1.382949	-0.323993	0.756652	1
H	0.987869	1.971027	-1.291258	1
H	2.632149	1.745317	1.300062	1
H	2.454609	3.216087	0.181272	1
Es	-0.681772	-1.745367	-0.524855	99
Es	1.263857	-0.202212	0.461576	99
Es	1.199596	0.779182	-0.295461	99
Es	1.555009	1.935773	0.177701	99
Es	1.250328	-0.357004	-0.754466	99
Es	2.380628	2.881454	0.258669	99
Es	-2.439403	-1.243673	0.045303	99
Es	2.498896	1.889564	1.012764	99
Es	-2.718783	-1.929084	0.149607	99
Es	-2.692787	-0.976186	-0.598406	99
Es	-0.434672	0.030061	-0.171076	99
Es	0.988727	0.065633	-0.189157	99
Es	-0.924296	-1.291112	0.033580	99
Es	2.207935	2.182078	0.401272	99
Es	-0.499838	0.124124	-0.426977	99
Es	-0.530094	0.159129	0.050973	99
Es	0.110796	0.030847	-0.125577	99
Es	1.119649	1.804256	-1.007944	99
Es	-0.666268	-1.564025	0.694515	99
Es	-2.679168	-0.799320	0.589885	99
Es	1.398339	1.486010	-0.407826	99
Es	2.073709	1.729332	-0.172945	99
Es	-1.684128	-1.268799	0.039119	99
Es	-0.597579	-0.486461	-0.142793	99
40
Properties=species:S:1:pos:R:3:Z:I:1 energy=-270.08744731439276 field_type=dipole dipole="0.000000 0.000000 0.000000" charge=0
C	-2.439431	-1.243653	0.045302	6
C	-0.924341	-1.291323	0.033612	6
O	-0.434891	0.030337	-0.171138	8
C	0.988939	0.065597	-0.189148	6
C	1.398399	1.486097	-0.407768	6
C	2.207859	2.182027	0.401212	6
H	-2.860671	-2.241523	0.198982	1
H	-2.820561	-0.840803	-0.899428	1
H	-2.798651	-0.582203	0.841212	1
H	-0.579221	-1.943803	-0.775308	1
H	-0.558131	-1.679073	0.989992	1
H	1.363120	-0.550113	-1.014248	1
H	1.382949	-0.323993	0.756652	1
H	0.987869	1.971027	-1.291258	1
H	2.632149	1.745317	1.300062	1
H	2.454609	3.216087	0.181272	1
Es	-2.679267	-0.799301	0.589996	99
Es	2.073720	1.729210	-0.172975	99
Es	-0.496747	0.121440	-0.425584	99
Es	1.263959	-0.201970	0.461716	99
Es	-0.531318	0.158709	0.045710	99
Es	2.207935	2.182077	0.401273	99
Es	1.199450	0.779035	-0.295708	99
Es	1.119723	1.804216	-1.007916	99
Es	-0.924296	-1.291112	0.033580	99
Es	-0.681828	-1.745402	-0.524937	99
Es	1.250357	-0.357038	-0.754500	99
Es	-2.718650	-1.929098	0.149515	99
Es	0.988725	0.065636	-0.189158	99
Es	-2.439403	-1.243672	0.045302	99
Es	1.398339	1.486011	-0.407826	99
Es	-0.434699	0.030038	-0.171124	99
Es	-0.666328	-1.564017	0.694516	99
Es	2.498959	1.889719	1.012894	99
Es	2.380635	2.881241	0.258530	99
Es	-0.597779	-0.486376	-0.144695	99
Es	-1.684048	-1.268675	0.039068	99
Es	1.554861	1.935946	0.177836	99
Es	-2.692803	-0.976276	-0.598351	99
Es	0.109183	0.033862	-0.119684	99
40
Properties=species:S:1:pos:R:3:Z:I:1 energy=-270.08744731439276 field_type=dipole dipole="0.000000 0.000000 0.000000" charge=0
C	-2.439431	-1.243653	0.045302	6
C	-0.924341	-1.291323	0.033612	6
O	-0.434891	0.030337	-0.171138	8
C	0.988939	0.065597	-0.189148	6
C	1.398399	1.486097	-0.407768	6
C	2.207859	2.182027	0.401212	6
H	-2.860671	-2.241523	0.198982	1
H	-2.820561	-0.840803	-0.899428	1
H	-2.798651	-0.582203	0.841212	1
H	-0.579221	-1.943803	-0.775308	1
H	-0.558131	-1.679073	0.989992	1
H	1.363120	-0.550113	-1.014248	1
H	1.382949	-0.323993	0.756652	1
H	0.987869	1.971027	-1.291258	1
H	2.632149	1.745317	1.300062	1
H	2.454609	3.216087	0.181272	1
Es	-0.681804	-1.745410	-0.524932	99
Es	2.380610	2.881136	0.258542	99
Es	2.073835	1.729105	-0.172938	99
Es	-0.598582	-0.485583	-0.149728	99
Es	-0.666477	-1.564035	0.694617	99
Es	1.398340	1.486011	-0.407826	99
Es	2.498864	1.889791	1.013030	99
Es	1.250399	-0.356970	-0.754542	99
Es	-1.683987	-1.268690	0.038954	99
Es	-0.434674	0.030051	-0.171089	99
Es	-0.495373	0.121556	-0.421771	99
Es	1.554795	1.936040	0.177768	99
Es	0.988729	0.065634	-0.189159	99
Es	-2.718705	-1.929094	0.149574	99
Es	-2.679233	-0.799218	0.589939	99
Es	-0.530626	0.155839	0.042988	99
Es	1.199315	0.779008	-0.295701	99
Es	2.207935	2.182077	0.401272	99
Es	0.107913	0.035784	-0.115772	99
Es	1.119862	1.804186	-1.008010	99
Es	-0.924296	-1.291111	0.033580	99
Es	1.263985	-0.201911	0.461774	99
Es	-2.439403	-1.243671	0.045299	99
Es	-2.692741	-0.976321	-0.598388	99
40
Properties=species:S:1:pos:R:3:Z:I:1 energy=-270.08744731439276 field_type=dipole dipole="0.000000 0.000000 0.000000" charge=0
C	-2.439431	-1.243653	0.045302	6
C	-0.924341	-1.291323	0.033612	6
O	-0.434891	0.030337	-0.171138	8
C	0.988939	0.065597	-0.189148	6
C	1.398399	1.486097	-0.407768	6
C	2.207859	2.182027	0.401212	6
H	-2.860671	-2.241523	0.198982	1
H	-2.820561	-0.840803	-0.899428	1
H	-2.798651	-0.582203	0.841212	1
H	-0.579221	-1.943803	-0.775308	1
H	-0.558131	-1.679073	0.989992	1
H	1.363120	-0.550113	-1.014248	1
H	1.382949	-0.323993	0.756652	1
H	0.987869	1.971027	-1.291258	1
H	2.632149	1.745317	1.300062	1
H	2.454609	3.216087	0.181272	1
Es	2.073942	1.729058	-0.172988	99
Es	0.988730	0.065633	-0.189160	99
Es	1.250393	-0.357081	-0.754577	99
Es	2.498918	1.889960	1.013160	99
Es	1.554692	1.936117	0.177800	99
Es	-1.684092	-1.268811	0.038825	99
Es	-0.600043	-0.484697	-0.152976	99
Es	1.119895	1.804092	-1.008025	99
Es	2.380495	2.880993	0.258452	99
Es	1.199306	0.778955	-0.295762	99
Es	-2.692801	-0.976340	-0.598404	99
Es	0.106623	0.037436	-0.111515	99
Es	-0.681910	-1.745422	-0.524991	99
Es	1.263976	-0.201780	0.461839	99
Es	-0.529871	0.154376	0.039234	99
Es	-0.666392	-1.564027	0.694648	99
Es	-2.439402	-1.243672	0.045301	99
Es	-2.679053	-0.799100	0.590164	99
Es	-2.718655	-1.929053	0.149578	99
Es	-0.924295	-1.291109	0.033581	99
Es	2.207928	2.182080	0.401277	99
Es	1.398338	1.486011	-0.407825	99
Es	-0.434756	0.030173	-0.171121	99
Es	-0.493288	0.120409	-0.419035	99
40
Properties=species:S:1:pos:R:3:Z:I:1 energy=-270.08744731439276 field_type=dipole dipole="0.000000 0.000000 0.000000" charge=0
C	-2.439431	-1.243653	0.045302	6
C	-0.924341	-1.291323	0.033612	6
O	-0.434891	0.030337	-0.171138	8
C	0.988939	0.065597	-0.189148	6
C	1.398399	1.486097	-0.407768	6
C	2.207859	2.182027	0.401212	6
H	-2.860671	-2.241523	0.198982	1
H	-2.820561	-0.840803	-0.899428	1
H	-2.798651	-0.582203	0.841212	1
H	-0.579221	-1.943803	-0.775308	1
H	-0.558131	-1.679073	0.989992	1
H	1.363120	-0.550113	-1.014248	1
H	1.382949	-0.323993	0.756652	1
H	0.987869	1.971027	-1.291258	1
H	2.632149	1.745317	1.300062	1
H	2.454609	3.216087	0.181272	1
Es	-0.681835	-1.745408	-0.525008	99
Es	1.250423	-0.357127	-0.754671	99
Es	0.988727	0.065633	-0.189158	99
Es	-0.492943	0.119526	-0.417081	99
Es	1.398338	1.486011	-0.407825	99
Es	-2.692730	-0.976303	-0.598345	99
Es	2.380410	2.880848	0.258443	99
Es	-2.439403	-1.243672	0.045302	99
Es	0.105554	0.040103	-0.108612	99
Es	1.199175	0.778886	-0.295872	99
Es	-1.684218	-1.268935	0.038690	99
Es	-2.678991	-0.799030	0.590332	99
Es	1.119962	1.804025	-1.008066	99
Es	-0.528960	0.152503	0.035999	99
Es	1.554574	1.936202	0.177861	99
Es	-0.924295	-1.291110	0.033579	99
Es	2.074088	1.728959	-0.173052	99
Es	1.264047	-0.201590	0.461935	99
Es	-0.434703	0.030064	-0.171133	99
Es	2.498903	1.890099	1.013278	99
Es	-2.718687	-1.929043	0.149442	99
Es	-0.600258	-0.484502	-0.154440	99
Es	-0.666432	-1.564014	0.694607	99
Es	2.207935	2.182077	0.401272	99
40
Properties=species:S:1:pos:R:3:Z:I:1 energy=-270.08744731439276 field_type=dipole dipole="0.000000 0.000000 0.000000" charge=0
C	-2.439431	-1.243653	0.045302	6
C	-0.924341	-1.291323	0.033612	6
O	-0.434891	0.030337	-0.171138	8
C	0.988939	0.065597	-0.189148	6
C	1.398399	1.486097	-0.407768	6
C	2.207859	2.182027	0.401212	6
H	-2.860671	-2.241523	0.198982	1
H	-2.820561	-0.840803	-0.899428	1
H	-2.798651	-0.582203	0.841212	1
H	-0.579221	-1.943803	-0.775308	1
H	-0.558131	-1.679073	0.989992	1
H	1.363120	-0.550113	-1.014248	1
H	1.382949	-0.323993	0.756652	1
H	0.987869	1.971027	-1.291258	1
H	2.632149	1.745317	1.300062	1
H	2.454609	3.216087	0.181272	1
Es	2.380412	2.880757	0.258353	99
Es	-1.683885	-1.268638	0.039080	99
Es	-0.666510	-1.564068	0.694673	99
Es	2.073974	1.728885	-0.172968	99
Es	1.398339	1.486011	-0.407827	99
Es	-0.492842	0.120986	-0.412863	99
Es	-0.434659	0.030056	-0.171066	99
Es	-2.718769	-1.929221	0.149207	99
Es	1.120120	1.804094	-1.008051	99
Es	1.199063	0.778792	-0.295989	99
Es	0.104851	0.040174	-0.106966	99
Es	-0.601391	-0.482956	-0.160030	99
Es	2.498887	1.890137	1.013421	99
Es	1.264078	-0.201620	0.462006	99
Es	-2.678992	-0.799259	0.590343	99
Es	1.554672	1.936303	0.177775	99
Es	-0.527276	0.149369	0.035511	99
Es	0.988730	0.065633	-0.189159	99
Es	-0.924296	-1.291115	0.033582	99
Es	-2.439404	-1.243672	0.045302	99
Es	1.250442	-0.356964	-0.754549	99
Es	-2.692583	-0.975993	-0.598271	99
Es	2.207935	2.182077	0.401273	99
Es	-0.682215	-1.745565	-0.525306	99
