32
Properties=species:S:1:pos:R:3:Z:I:1 energy=-303.5595273487632 field_type=dipole dipole="0.000000 0.000000 0.000000" charge=0
O	1.383970	-0.245737	0.006175	8
C	0.454000	-1.268487	0.003145	6
C	-0.862640	-1.034697	-0.002735	6
O	-1.384270	0.245583	-0.006195	8
C	-0.453840	1.268603	-0.003145	6
C	0.862500	1.034953	0.002735	6
H	0.919430	-2.241847	0.006075	1
H	-1.634510	-1.788817	-0.005315	1
H	-0.919720	2.242103	-0.006065	1
H	1.635080	1.788343	0.005325	1
Es	-0.994804	0.605633	-0.003341	99
Es	-0.763100	1.921808	-0.005109	99
Es	0.210227	1.176333	-0.343940	99
Es	0.763030	-1.921661	0.005097	99
Es	-0.862802	-1.034427	-0.002726	99
Es	1.377723	1.541673	0.004458	99
Es	-1.377535	-1.541829	-0.004397	99
Es	1.142202	0.226294	0.003930	99
Es	-1.383826	0.245479	-0.006320	99
Es	-1.142194	-0.225978	-0.004571	99
Es	1.518320	-0.269797	-0.248736	99
Es	0.862668	1.034679	0.002742	99
Es	0.454244	-1.268289	0.003158	99
Es	-1.521633	0.269296	0.248573	99
Es	-0.210217	-1.176103	0.343955	99
Es	-0.207286	-1.176878	-0.343539	99
Es	1.513310	-0.268456	0.263282	99
Es	-0.454086	1.268406	-0.003158	99
Es	-1.510795	0.268248	-0.263718	99
Es	0.994555	-0.605712	0.004543	99
Es	1.383570	-0.245671	0.006173	99
Es	0.207264	1.177025	0.343573	99
32
Properties=species:S:1:pos:R:3:Z:I:1 energy=-303.5595273487632 field_type=dipole dipole="0.000000 0.000000 0.000000" charge=0
O	1.383970	-0.245737	0.006175	8
C	0.454000	-1.268487	0.003145	6
C	-0.862640	-1.034697	-0.002735	6
O	-1.384270	0.245583	-0.006195	8
C	-0.453840	1.268603	-0.003145	6
C	0.862500	1.034953	0.002735	6
H	0.919430	-2.241847	0.006075	1
H	-1.634510	-1.788817	-0.005315	1
H	-0.919720	2.242103	-0.006065	1
H	1.635080	1.788343	0.005325	1
Es	-1.144185	-0.227901	0.012530	99
Es	1.592136	-0.282706	0.230966	99
Es	0.207044	1.175759	0.342287	99
Es	0.995257	-0.607297	0.016624	99
Es	-0.996455	0.607577	0.014398	99
Es	-1.404373	0.249831	-0.240542	99
Es	-1.383709	0.245504	-0.006250	99
Es	1.438926	-0.255415	-0.241169	99
Es	-0.862809	-1.034426	-0.002732	99
Es	1.143029	0.227586	0.016868	99
Es	-0.207033	-1.175435	-0.342484	99
Es	0.209973	1.174953	-0.342930	99
Es	1.377833	1.542409	0.004728	99
Es	-1.377611	-1.542530	-0.004497	99
Es	-0.210017	-1.174959	0.342757	99
Es	-0.762923	1.922473	-0.005085	99
Es	0.862670	1.034678	0.002729	99
Es	-1.625447	0.287824	0.190435	99
Es	0.454256	-1.268287	0.003147	99
Es	1.383488	-0.245651	0.005951	99
Es	-0.454093	1.268404	-0.003150	99
Es	0.762878	-1.922319	0.005347	99
32
Properties=species:S:1:pos:R:3:Z:I:1 energy=-303.5595273487632 field_type=dipole dipole="0.000000 0.000000 0.000000" charge=0
O	1.383970	-0.245737	0.006175	8
C	0.454000	-1.268487	0.003145	6
C	-0.862640	-1.034697	-0.002735	6
O	-1.384270	0.245583	-0.006195	8
C	-0.453840	1.268603	-0.003145	6
C	0.862500	1.034953	0.002735	6
H	0.919430	-2.241847	0.006075	1
H	-1.634510	-1.788817	-0.005315	1
H	-0.919720	2.242103	-0.006065	1
H	1.635080	1.788343	0.005325	1
Es	-1.380904	0.244623	0.223456	99
Es	-0.862802	-1.034427	-0.002717	99
Es	-0.207145	-1.175667	-0.343804	99
Es	-1.646767	0.292848	-0.178310	99
Es	1.695920	-0.300693	0.081040	99
Es	-0.762972	1.921892	-0.002998	99
Es	-1.145707	-0.225383	-0.033993	99
Es	0.209938	1.175118	-0.344205	99
Es	1.329533	-0.236398	-0.122596	99
Es	0.207108	1.175679	0.343793	99
Es	1.383535	-0.245622	0.006152	99
Es	1.146525	0.229986	0.031322	99
Es	-1.383781	0.245491	-0.006442	99
Es	-0.454089	1.268405	-0.003137	99
Es	-0.209921	-1.174853	0.344224	99
Es	-1.377419	-1.541929	-0.002342	99
Es	1.377616	1.541824	0.002321	99
Es	-0.997442	0.605330	-0.032987	99
Es	0.997801	-0.610835	0.032361	99
Es	0.862667	1.034682	0.002726	99
Es	0.454256	-1.268286	0.003140	99
Es	0.762885	-1.921713	0.002923	99
32
Properties=species:S:1:pos:R:3:Z:I:1 energy=-303.5595273487632 field_type=dipole dipole="0.000000 0.000000 0.000000" charge=0
O	1.383970	-0.245737	0.006175	8
C	0.454000	-1.268487	0.003145	6
C	-0.862640	-1.034697	-0.002735	6
O	-1.384270	0.245583	-0.006195	8
C	-0.453840	1.268603	-0.003145	6
C	0.862500	1.034953	0.002735	6
H	0.919430	-2.241847	0.006075	1
H	-1.634510	-1.788817	-0.005315	1
H	-0.919720	2.242103	-0.006065	1
H	1.635080	1.788343	0.005325	1
Es	-1.145392	-0.226792	0.020767	99
Es	0.454252	-1.268288	0.003153	99
Es	0.996482	-0.607093	0.029499	99
Es	-0.862808	-1.034425	-0.002726	99
Es	0.762897	-1.921538	0.005358	99
Es	1.383486	-0.245649	0.006408	99
Es	1.683596	-0.299445	0.123525	99
Es	-0.454093	1.268405	-0.003149	99
Es	1.344764	-0.238916	-0.159617	99
Es	1.145338	0.227464	0.029374	99
Es	-1.383772	0.245495	-0.005877	99
Es	-0.763033	1.921680	-0.005032	99
Es	1.377608	1.541601	0.004638	99
Es	0.207057	1.175851	0.344419	99
Es	-1.377388	-1.541733	-0.004261	99
Es	-1.345584	0.238759	-0.178319	99
Es	-0.209988	-1.174766	0.344686	99
Es	-0.997330	0.607031	0.020996	99
Es	0.209902	1.174516	-0.345006	99
Es	-1.682835	0.298490	0.113045	99
Es	-0.206993	-1.175249	-0.344690	99
Es	0.862669	1.034679	0.002733	99
32
Properties=species:S:1:pos:R:3:Z:I:1 energy=-303.5595273487632 field_type=dipole dipole="0.000000 0.000000 0.000000" charge=0
O	1.383970	-0.245737	0.006175	8
C	0.454000	-1.268487	0.003145	6
C	-0.862640	-1.034697	-0.002735	6
O	-1.384270	0.245583	-0.006195	8
C	-0.453840	1.268603	-0.003145	6
C	0.862500	1.034953	0.002735	6
H	0.919430	-2.241847	0.006075	1
H	-1.634510	-1.788817	-0.005315	1
H	-0.919720	2.242103	-0.006065	1
H	1.635080	1.788343	0.005325	1
Es	0.454249	-1.268289	0.003160	99
Es	1.377566	1.541313	0.004738	99
Es	-1.383817	0.245474	-0.005968	99
Es	-0.206981	-1.175201	-0.345429	99
Es	0.209948	1.174726	-0.345833	99
Es	-0.454095	1.268403	-0.003151	99
Es	0.762963	-1.921253	0.005396	99
Es	1.337824	-0.237716	-0.146334	99
Es	0.206984	1.175472	0.345050	99
Es	1.144096	0.226127	0.030204	99
Es	-0.997212	0.606519	0.020145	99
Es	-1.692007	0.300303	0.093397	99
Es	0.997476	-0.606983	0.030795	99
Es	-0.862808	-1.034423	-0.002736	99
Es	1.691048	-0.299456	0.107952	99
Es	-1.337080	0.237458	-0.156357	99
Es	0.862669	1.034680	0.002741	99
Es	1.383367	-0.245647	0.006577	99
Es	-1.145004	-0.226757	0.019389	99
Es	-0.763036	1.921384	-0.004961	99
Es	-0.209955	-1.174587	0.345392	99
Es	-1.377363	-1.541473	-0.004238	99
32
Properties=species:S:1:pos:R:3:Z:I:1 energy=-303.5595273487632 field_type=dipole dipole="0.000000 0.000000 0.000000" charge=0
O	1.383970	-0.245737	0.006175	8
C	0.454000	-1.268487	0.003145	6
C	-0.862640	-1.034697	-0.002735	6
O	-1.384270	0.245583	-0.006195	8
C	-0.453840	1.268603	-0.003145	6
C	0.862500	1.034953	0.002735	6
H	0.919430	-2.241847	0.006075	1
H	-1.634510	-1.788817	-0.005315	1
H	-0.919720	2.242103	-0.006065	1
H	1.635080	1.788343	0.005325	1
Es	1.326218	-0.235801	0.143110	99
Es	1.699804	-0.301737	-0.065620	99
Es	-0.862809	-1.034423	-0.002739	99
Es	1.146007	0.225437	-0.026298	99
Es	-1.145990	-0.225918	0.025722	99
Es	0.998499	-0.605925	-0.027011	99
Es	-0.998398	0.606699	0.024669	99
Es	-0.454091	1.268404	-0.003140	99
Es	-1.383656	0.245473	-0.005796	99
Es	1.383505	-0.245659	0.005973	99
Es	-1.325490	0.234820	-0.133439	99
Es	0.762939	-1.920750	0.006856	99
Es	-1.701764	0.302003	0.058595	99
Es	1.377353	1.540878	0.006225	99
Es	-1.377165	-1.540996	-0.006200	99
Es	-0.210133	-1.174683	0.346617	99
Es	0.454255	-1.268286	0.003162	99
Es	-0.206861	-1.175388	-0.346233	99
Es	0.210112	1.174821	-0.346689	99
Es	0.862670	1.034677	0.002738	99
Es	-0.763012	1.920921	-0.006802	99
Es	0.206842	1.175505	0.346227	99
32
Properties=species:S:1:pos:R:3:Z:I:1 energy=-303.5595273487632 field_type=dipole dipole="0.000000 0.000000 0.000000" charge=0
O	1.383970	-0.245737	0.006175	8
C	0.454000	-1.268487	0.003145	6
C	-0.862640	-1.034697	-0.002735	6
O	-1.384270	0.245583	-0.006195	8
C	-0.453840	1.268603	-0.003145	6
C	0.862500	1.034953	0.002735	6
H	0.919430	-2.241847	0.006075	1
H	-1.634510	-1.788817	-0.005315	1
H	-0.919720	2.242103	-0.006065	1
H	1.635080	1.788343	0.005325	1
Es	-0.206988	-1.175240	-0.346290	99
Es	0.206908	1.175048	0.346523	99
Es	0.209937	1.174658	-0.346590	99
Es	-1.331229	0.236119	0.118268	99
Es	-0.209898	-1.174205	0.346999	99
Es	-1.699542	0.301459	-0.085992	99
Es	1.329931	-0.236420	0.139836	99
Es	1.698996	-0.301354	-0.074450	99
Es	-1.377201	-1.540981	-0.004600	99
Es	1.383489	-0.245669	0.005932	99
Es	-0.454097	1.268401	-0.003144	99
Es	1.143970	0.225206	-0.020746	99
Es	-1.383748	0.245489	-0.006515	99
Es	-0.862813	-1.034418	-0.002740	99
Es	0.454254	-1.268287	0.003144	99
Es	0.762978	-1.920740	0.004835	99
Es	0.862668	1.034680	0.002739	99
Es	-1.144494	-0.226187	-0.027407	99
Es	-0.996453	0.606203	-0.027559	99
Es	1.377436	1.540874	0.004212	99
Es	-0.763041	1.920961	-0.005296	99
Es	0.997772	-0.605525	-0.021230	99
32
Properties=species:S:1:pos:R:3:Z:I:1 energy=-303.5595273487632 field_type=dipole dipole="0.000000 0.000000 0.000000" charge=0
O	1.383970	-0.245737	0.006175	8
C	0.454000	-1.268487	0.003145	6
C	-0.862640	-1.034697	-0.002735	6
O	-1.384270	0.245583	-0.006195	8
C	-0.453840	1.268603	-0.003145	6
C	0.862500	1.034953	0.002735	6
H	0.919430	-2.241847	0.006075	1
H	-1.634510	-1.788817	-0.005315	1
H	-0.919720	2.242103	-0.006065	1
H	1.635080	1.788343	0.005325	1
Es	0.209917	1.174527	-0.347529	99
Es	-0.996943	0.605045	0.020188	99
Es	1.383527	-0.245654	0.006322	99
Es	-1.144712	-0.225408	0.018939	99
Es	-1.702000	0.302026	0.065172	99
Es	1.143509	0.225625	0.026380	99
Es	0.206908	1.175069	0.346651	99
Es	0.862669	1.034680	0.002732	99
Es	-1.383661	0.245468	-0.005764	99
Es	1.701592	-0.301576	0.079262	99
Es	-1.328203	0.235951	-0.127936	99
Es	-0.209900	-1.174228	0.347114	99
Es	1.328660	-0.236826	-0.112350	99
Es	0.996981	-0.605317	0.029519	99
Es	0.454252	-1.268289	0.003144	99
Es	-0.206953	-1.175054	-0.347087	99
Es	1.377344	1.540669	0.004737	99
Es	-0.862808	-1.034425	-0.002734	99
Es	-0.454093	1.268405	-0.003147	99
Es	0.763008	-1.920555	0.005299	99
Es	-1.377155	-1.540781	-0.004209	99
Es	-0.763105	1.920721	-0.004774	99
32
Properties=species:S:1:pos:R:3:Z:I:1 energy=-303.5595273487632 field_type=dipole dipole="0.000000 0.000000 0.000000" charge=0
O	1.383970	-0.245737	0.006175	8
C	0.454000	-1.268487	0.003145	6
C	-0.862640	-1.034697	-0.002735	6
O	-1.384270	0.245583	-0.006195	8
C	-0.453840	1.268603	-0.003145	6
C	0.862500	1.034953	0.002735	6
H	0.919430	-2.241847	0.006075	1
H	-1.634510	-1.788817	-0.005315	1
H	-0.919720	2.242103	-0.006065	1
H	1.635080	1.788343	0.005325	1
Es	-1.383835	0.245498	-0.006051	99
Es	-0.763092	1.920373	-0.004020	99
Es	0.997750	-0.603866	0.036397	99
Es	-1.377074	-1.540480	-0.003318	99
Es	-1.707412	0.302960	-0.049579	99
Es	1.704023	-0.302333	0.067341	99
Es	0.862669	1.034680	0.002735	99
Es	1.383424	-0.245641	0.006508	99
Es	0.207067	1.175267	0.347621	99
Es	-0.997189	0.606117	-0.027856	99
Es	-0.862808	-1.034425	-0.002732	99
Es	-0.454092	1.268405	-0.003148	99
Es	0.454252	-1.268288	0.003151	99
Es	1.377186	1.540339	0.003389	99
Es	-0.207067	-1.174975	-0.347621	99
Es	1.324157	-0.236316	-0.114080	99
Es	-1.144061	-0.225559	-0.030522	99
Es	-0.209797	-1.174374	0.347962	99
Es	0.209775	1.174464	-0.348004	99
Es	0.762982	-1.920215	0.003984	99
Es	1.145069	0.224395	0.032350	99
Es	-1.323092	0.234046	0.085423	99
32
Properties=species:S:1:pos:R:3:Z:I:1 energy=-303.5595273487632 field_type=dipole dipole="0.000000 0.000000 0.000000" charge=0
O	1.383970	-0.245737	0.006175	8
C	0.454000	-1.268487	0.003145	6
C	-0.862640	-1.034697	-0.002735	6
O	-1.384270	0.245583	-0.006195	8
C	-0.453840	1.268603	-0.003145	6
C	0.862500	1.034953	0.002735	6
H	0.919430	-2.241847	0.006075	1
H	-1.634510	-1.788817	-0.005315	1
H	-0.919720	2.242103	-0.006065	1
H	1.635080	1.788343	0.005325	1
Es	0.454253	-1.268289	0.003143	99
Es	-1.144406	-0.224791	-0.026526	99
Es	-1.377018	-1.540597	-0.004701	99
Es	-0.995758	0.604519	-0.025251	99
Es	-0.763130	1.920520	-0.005344	99
Es	-1.382337	0.245216	-0.007122	99
Es	-0.206896	-1.174784	-0.347361	99
Es	0.206853	1.174763	0.347572	99
Es	0.209882	1.174301	-0.347779	99
Es	-0.454091	1.268407	-0.003145	99
Es	-1.328746	0.235364	0.099275	99
Es	0.862671	1.034677	0.002727	99
Es	-0.209853	-1.173890	0.348010	99
Es	1.382207	-0.245406	0.005722	99
Es	0.996842	-0.604695	-0.016967	99
Es	1.704223	-0.302613	-0.057206	99
Es	1.327640	-0.235583	0.116000	99
Es	1.377249	1.540423	0.004285	99
Es	0.763030	-1.920342	0.004937	99
Es	-1.704489	0.302803	-0.069545	99
Es	1.143518	0.224499	-0.018055	99
Es	-0.862807	-1.034429	-0.002740	99
32
Properties=species:S:1:pos:R:3:Z:I:1 energy=-303.5595273487632 field_type=dipole dipole="0.000000 0.000000 0.000000" charge=0
O	1.383970	-0.245737	0.006175	8
C	0.454000	-1.268487	0.003145	6
C	-0.862640	-1.034697	-0.002735	6
O	-1.384270	0.245583	-0.006195	8
C	-0.453840	1.268603	-0.003145	6
C	0.862500	1.034953	0.002735	6
H	0.919430	-2.241847	0.006075	1
H	-1.634510	-1.788817	-0.005315	1
H	-0.919720	2.242103	-0.006065	1
H	1.635080	1.788343	0.005325	1
Es	-0.206841	-1.174500	-0.347913	99
Es	-0.996628	0.604721	0.015322	99
Es	0.862669	1.034680	0.002733	99
Es	0.454252	-1.268290	0.003145	99
Es	1.382533	-0.245479	0.006756	99
Es	-0.209878	-1.174033	0.348108	99
Es	0.206836	1.174673	0.347582	99
Es	-1.706230	0.302371	0.050055	99
Es	1.705326	-0.302534	0.065489	99
Es	1.377220	1.540297	0.004898	99
Es	-1.383839	0.245512	-0.006211	99
Es	-0.862809	-1.034425	-0.002736	99
Es	-0.454094	1.268405	-0.003148	99
Es	0.209877	1.174260	-0.348438	99
Es	-0.763142	1.920343	-0.004788	99
Es	-1.143497	-0.224187	0.017143	99
Es	0.763016	-1.920178	0.005344	99
Es	0.996740	-0.604500	0.026709	99
Es	-1.325552	0.234699	-0.105859	99
Es	1.143032	0.224402	0.026555	99
Es	-1.377016	-1.540458	-0.004342	99
Es	1.326860	-0.235704	-0.096474	99
32
Properties=species:S:1:pos:R:3:Z:I:1 energy=-303.5595273487632 field_type=dipole dipole="0.000000 0.000000 0.000000" charge=0
O	1.383970	-0.245737	0.006175	8
C	0.454000	-1.268487	0.003145	6
C	-0.862640	-1.034697	-0.002735	6
O	-1.384270	0.245583	-0.006195	8
C	-0.453840	1.268603	-0.003145	6
C	0.862500	1.034953	0.002735	6
H	0.919430	-2.241847	0.006075	1
H	-1.634510	-1.788817	-0.005315	1
H	-0.919720	2.242103	-0.006065	1
H	1.635080	1.788343	0.005325	1
Es	-0.996370	0.603787	-0.026000	99
Es	1.383511	-0.245670	0.005981	99
Es	-0.209825	-1.173778	0.348544	99
Es	-0.763081	1.920307	-0.005209	99
Es	0.206829	1.174567	0.348099	99
Es	-1.377025	-1.540353	-0.004735	99
Es	1.377190	1.540195	0.004194	99
Es	0.763035	-1.920138	0.004815	99
Es	-0.862809	-1.034424	-0.002732	99
Es	-0.206855	-1.174512	-0.347840	99
Es	0.454252	-1.268290	0.003146	99
Es	0.862671	1.034685	0.002724	99
Es	0.996341	-0.604673	-0.012477	99
Es	1.324737	-0.234620	0.095587	99
Es	-1.705818	0.302807	-0.065269	99
Es	0.209837	1.174099	-0.348261	99
Es	-0.454092	1.268406	-0.003146	99
Es	-1.383687	0.245480	-0.006576	99
Es	-1.326225	0.234624	0.096967	99
Es	-1.143709	-0.223553	-0.028196	99
Es	1.707148	-0.303121	-0.043979	99
Es	1.142779	0.224251	-0.015707	99
32
Properties=species:S:1:pos:R:3:Z:I:1 energy=-303.5595273487632 field_type=dipole dipole="0.000000 0.000000 0.000000" charge=0
O	1.383970	-0.245737	0.006175	8
C	0.454000	-1.268487	0.003145	6
C	-0.862640	-1.034697	-0.002735	6
O	-1.384270	0.245583	-0.006195	8
C	-0.453840	1.268603	-0.003145	6
C	0.862500	1.034953	0.002735	6
H	0.919430	-2.241847	0.006075	1
H	-1.634510	-1.788817	-0.005315	1
H	-0.919720	2.242103	-0.006065	1
H	1.635080	1.788343	0.005325	1
Es	0.454250	-1.268291	0.003143	99
Es	1.707275	-0.302997	0.056473	99
Es	-0.206777	-1.174121	-0.348471	99
Es	1.325155	-0.235371	-0.079170	99
Es	0.996241	-0.604290	0.022943	99
Es	1.377241	1.540006	0.004614	99
Es	0.763012	-1.919907	0.005247	99
Es	-1.376977	-1.540161	-0.004285	99
Es	-0.763131	1.920051	-0.004872	99
Es	0.209797	1.173846	-0.348943	99
Es	-0.454092	1.268407	-0.003145	99
Es	-0.862807	-1.034427	-0.002740	99
Es	-1.707824	0.302807	0.042446	99
Es	-1.324583	0.235014	-0.095063	99
Es	1.383462	-0.245651	0.005891	99
Es	-0.996499	0.603928	0.014656	99
Es	0.862669	1.034678	0.002736	99
Es	-0.209886	-1.174096	0.348866	99
Es	1.142347	0.224527	0.022850	99
Es	0.206852	1.174779	0.348414	99
Es	-1.383803	0.245514	-0.005992	99
Es	-1.143087	-0.224172	0.014330	99
32
Properties=species:S:1:pos:R:3:Z:I:1 energy=-303.5595273487632 field_type=dipole dipole="0.000000 0.000000 0.000000" charge=0
O	1.383970	-0.245737	0.006175	8
C	0.454000	-1.268487	0.003145	6
C	-0.862640	-1.034697	-0.002735	6
O	-1.384270	0.245583	-0.006195	8
C	-0.453840	1.268603	-0.003145	6
C	0.862500	1.034953	0.002735	6
H	0.919430	-2.241847	0.006075	1
H	-1.634510	-1.788817	-0.005315	1
H	-0.919720	2.242103	-0.006065	1
H	1.635080	1.788343	0.005325	1
Es	1.324179	-0.234750	-0.065710	99
Es	-0.996460	0.603205	0.016269	99
Es	0.209787	1.173698	-0.349110	99
Es	1.377170	1.539958	0.004816	99
Es	1.142644	0.224391	0.021908	99
Es	-0.209830	-1.173738	0.348905	99
Es	-1.383677	0.245534	-0.005801	99
Es	0.206824	1.174624	0.348371	99
Es	0.454251	-1.268290	0.003146	99
Es	-0.206793	-1.174245	-0.348563	99
Es	-0.454092	1.268406	-0.003150	99
Es	-1.323794	0.233855	-0.102049	99
Es	-1.376869	-1.540151	-0.004253	99
Es	1.383548	-0.245660	0.006211	99
Es	-1.707847	0.303411	0.041806	99
Es	0.763154	-1.919913	0.005259	99
Es	1.708732	-0.303396	0.046966	99
Es	-0.862809	-1.034426	-0.002736	99
Es	0.862668	1.034684	0.002740	99
Es	-0.763208	1.920083	-0.004764	99
Es	-1.144061	-0.222846	0.020030	99
Es	0.995315	-0.604361	0.019635	99
32
Properties=species:S:1:pos:R:3:Z:I:1 energy=-303.5595273487632 field_type=dipole dipole="0.000000 0.000000 0.000000" charge=0
O	1.383970	-0.245737	0.006175	8
C	0.454000	-1.268487	0.003145	6
C	-0.862640	-1.034697	-0.002735	6
O	-1.384270	0.245583	-0.006195	8
C	-0.453840	1.268603	-0.003145	6
C	0.862500	1.034953	0.002735	6
H	0.919430	-2.241847	0.006075	1
H	-1.634510	-1.788817	-0.005315	1
H	-0.919720	2.242103	-0.006065	1
H	1.635080	1.788343	0.005325	1
Es	-1.143468	-0.225396	0.002883	99
Es	0.206842	1.174590	0.348705	99
Es	0.862669	1.034680	0.002734	99
Es	0.209733	1.173654	-0.349239	99
Es	-0.993795	0.604722	0.001152	99
Es	-0.209791	-1.173723	0.349222	99
Es	-1.383218	0.245416	-0.005474	99
Es	-0.454092	1.268406	-0.003146	99
Es	0.997795	-0.602551	0.028300	99
Es	1.324099	-0.234622	-0.096852	99
Es	-0.763313	1.919937	-0.004746	99
Es	1.706805	-0.303030	0.060439	99
Es	-1.324309	0.234736	-0.043707	99
Es	1.142413	0.221983	0.030745	99
Es	0.454251	-1.268293	0.003151	99
Es	-1.376895	-1.539978	-0.003979	99
Es	-0.206827	-1.174229	-0.349003	99
Es	0.763101	-1.919663	0.005233	99
Es	-1.710897	0.303610	0.015743	99
Es	1.377017	1.539917	0.004513	99
Es	1.383521	-0.245665	0.005989	99
Es	-0.862809	-1.034427	-0.002735	99
32
Properties=species:S:1:pos:R:3:Z:I:1 energy=-303.5595273487632 field_type=dipole dipole="0.000000 0.000000 0.000000" charge=0
O	1.383970	-0.245737	0.006175	8
C	0.454000	-1.268487	0.003145	6
C	-0.862640	-1.034697	-0.002735	6
O	-1.384270	0.245583	-0.006195	8
C	-0.453840	1.268603	-0.003145	6
C	0.862500	1.034953	0.002735	6
H	0.919430	-2.241847	0.006075	1
H	-1.634510	-1.788817	-0.005315	1
H	-0.919720	2.242103	-0.006065	1
H	1.635080	1.788343	0.005325	1
Es	0.862669	1.034670	0.002738	99
Es	-0.209822	-1.173682	0.349180	99
Es	1.377023	1.539864	0.004746	99
Es	1.323389	-0.235335	-0.076465	99
Es	-0.763136	1.919940	-0.004908	99
Es	-1.323369	0.234761	-0.076296	99
Es	-0.995543	0.603134	0.011862	99
Es	0.209718	1.173325	-0.349215	99
Es	-0.862809	-1.034426	-0.002735	99
Es	0.763140	-1.919786	0.005336	99
Es	1.143032	0.223079	0.024351	99
Es	1.383495	-0.245619	0.006402	99
Es	0.454248	-1.268294	0.003146	99
Es	-0.206749	-1.173958	-0.348843	99
Es	-0.454091	1.268407	-0.003148	99
Es	0.206828	1.174653	0.348769	99
Es	-1.376952	-1.539977	-0.004308	99
Es	1.708714	-0.303148	0.048708	99
Es	-1.383850	0.245489	-0.006137	99
Es	0.995959	-0.602814	0.025866	99
Es	-1.143309	-0.223962	0.011736	99
Es	-1.709748	0.303754	0.029141	99
32
Properties=species:S:1:pos:R:3:Z:I:1 energy=-303.5595273487632 field_type=dipole dipole="0.000000 0.000000 0.000000" charge=0
O	1.383970	-0.245737	0.006175	8
C	0.454000	-1.268487	0.003145	6
C	-0.862640	-1.034697	-0.002735	6
O	-1.384270	0.245583	-0.006195	8
C	-0.453840	1.268603	-0.003145	6
C	0.862500	1.034953	0.002735	6
H	0.919430	-2.241847	0.006075	1
H	-1.634510	-1.788817	-0.005315	1
H	-0.919720	2.242103	-0.006065	1
H	1.635080	1.788343	0.005325	1
Es	0.454251	-1.268291	0.003146	99
Es	-1.323652	0.235231	0.078473	99
Es	1.709870	-0.303316	-0.027203	99
Es	-0.862809	-1.034427	-0.002735	99
Es	0.209785	1.173768	-0.349127	99
Es	-0.206784	-1.174107	-0.348625	99
Es	1.377086	1.539909	0.004241	99
Es	-1.383829	0.245504	-0.006334	99
Es	1.322942	-0.235228	0.072829	99
Es	0.995094	-0.603128	-0.011886	99
Es	0.206706	1.173923	0.348787	99
Es	-1.708827	0.303459	-0.049792	99
Es	-0.995972	0.601969	-0.026662	99
Es	-1.376824	-1.540051	-0.004761	99
Es	0.862668	1.034684	0.002735	99
Es	0.763165	-1.919817	0.004758	99
Es	1.143083	0.223479	-0.010379	99
Es	-0.763248	1.919942	-0.005336	99
Es	-0.209724	-1.173203	0.349243	99
Es	1.383546	-0.245671	0.006209	99
Es	-1.143601	-0.222965	-0.024509	99
Es	-0.454091	1.268411	-0.003145	99
32
Properties=species:S:1:pos:R:3:Z:I:1 energy=-303.5595273487632 field_type=dipole dipole="0.000000 0.000000 0.000000" charge=0
O	1.383970	-0.245737	0.006175	8
C	0.454000	-1.268487	0.003145	6
C	-0.862640	-1.034697	-0.002735	6
O	-1.384270	0.245583	-0.006195	8
C	-0.453840	1.268603	-0.003145	6
C	0.862500	1.034953	0.002735	6
H	0.919430	-2.241847	0.006075	1
H	-1.634510	-1.788817	-0.005315	1
H	-0.919720	2.242103	-0.006065	1
H	1.635080	1.788343	0.005325	1
Es	0.454251	-1.268290	0.003145	99
Es	1.383521	-0.245664	0.006363	99
Es	0.763118	-1.919628	0.004624	99
Es	0.862669	1.034681	0.002735	99
Es	-0.454092	1.268407	-0.003145	99
Es	-1.001757	0.601956	-0.029484	99
Es	-1.323230	0.235416	0.088545	99
Es	-0.209700	-1.173286	0.349583	99
Es	1.711493	-0.303884	0.000366	99
Es	1.323070	-0.234985	0.013010	99
Es	-0.862809	-1.034426	-0.002736	99
Es	-1.138710	-0.222365	-0.028127	99
Es	0.209718	1.173612	-0.349448	99
Es	0.206772	1.174128	0.349170	99
Es	0.992314	-0.603776	0.005074	99
Es	-0.206813	-1.174098	-0.348999	99
Es	-0.762736	1.919620	-0.005095	99
Es	-1.708552	0.302661	-0.053001	99
Es	-1.383740	0.245489	-0.006517	99
Es	1.143975	0.224549	0.004289	99
Es	1.377267	1.539734	0.004136	99
Es	-1.377194	-1.539776	-0.004561	99
32
Properties=species:S:1:pos:R:3:Z:I:1 energy=-303.5595273487632 field_type=dipole dipole="0.000000 0.000000 0.000000" charge=0
O	1.383970	-0.245737	0.006175	8
C	0.454000	-1.268487	0.003145	6
C	-0.862640	-1.034697	-0.002735	6
O	-1.384270	0.245583	-0.006195	8
C	-0.453840	1.268603	-0.003145	6
C	0.862500	1.034953	0.002735	6
H	0.919430	-2.241847	0.006075	1
H	-1.634510	-1.788817	-0.005315	1
H	-0.919720	2.242103	-0.006065	1
H	1.635080	1.788343	0.005325	1
Es	-0.454092	1.268408	-0.003146	99
Es	1.323286	-0.235030	0.059505	99
Es	1.377177	1.539675	0.004070	99
Es	-1.377258	-1.539736	-0.004627	99
Es	-1.709909	0.302842	-0.043192	99
Es	-0.999665	0.603002	-0.022728	99
Es	0.862668	1.034682	0.002739	99
Es	0.993743	-0.602651	-0.008730	99
Es	-0.762876	1.919639	-0.005395	99
Es	0.206727	1.174051	0.349266	99
Es	-0.206771	-1.174034	-0.349151	99
Es	0.454253	-1.268287	0.003143	99
Es	0.209726	1.173476	-0.349494	99
Es	-1.383835	0.245539	-0.006101	99
Es	1.143795	0.223433	-0.008270	99
Es	1.710538	-0.303904	-0.019978	99
Es	1.383094	-0.245610	0.007022	99
Es	-0.862809	-1.034427	-0.002729	99
Es	0.763121	-1.919585	0.004838	99
Es	-0.209710	-1.173151	0.349644	99
Es	-1.138884	-0.223081	-0.023185	99
Es	-1.323485	0.234823	0.066426	99
32
Properties=species:S:1:pos:R:3:Z:I:1 energy=-303.5595273487632 field_type=dipole dipole="0.000000 0.000000 0.000000" charge=0
O	1.383970	-0.245737	0.006175	8
C	0.454000	-1.268487	0.003145	6
C	-0.862640	-1.034697	-0.002735	6
O	-1.384270	0.245583	-0.006195	8
C	-0.453840	1.268603	-0.003145	6
C	0.862500	1.034953	0.002735	6
H	0.919430	-2.241847	0.006075	1
H	-1.634510	-1.788817	-0.005315	1
H	-0.919720	2.242103	-0.006065	1
H	1.635080	1.788343	0.005325	1
Es	-0.763791	1.919693	-0.005251	99
Es	-0.454093	1.268405	-0.003151	99
Es	-0.992767	0.602164	0.007372	99
Es	1.710347	-0.304417	-0.021455	99
Es	-0.206681	-1.173847	-0.349244	99
Es	0.862669	1.034686	0.002733	99
Es	-0.862808	-1.034427	-0.002740	99
Es	1.322249	-0.235143	0.073152	99
Es	-1.376432	-1.539861	-0.004566	99
Es	-1.145129	-0.223179	0.009586	99
Es	1.144700	0.222687	-0.012633	99
Es	-1.323305	0.234369	-0.053265	99
Es	1.376764	1.539612	0.004469	99
Es	0.763649	-1.919551	0.005072	99
Es	-1.711275	0.304389	0.011890	99
Es	-1.383201	0.245401	-0.005549	99
Es	0.993899	-0.601320	-0.014629	99
Es	0.454251	-1.268290	0.003147	99
Es	0.209781	1.173441	-0.349757	99
Es	0.206668	1.174022	0.349410	99
Es	-0.209772	-1.173172	0.349735	99
Es	1.383111	-0.245587	0.005603	99
32
Properties=species:S:1:pos:R:3:Z:I:1 energy=-303.5595273487632 field_type=dipole dipole="0.000000 0.000000 0.000000" charge=0
O	1.383970	-0.245737	0.006175	8
C	0.454000	-1.268487	0.003145	6
C	-0.862640	-1.034697	-0.002735	6
O	-1.384270	0.245583	-0.006195	8
C	-0.453840	1.268603	-0.003145	6
C	0.862500	1.034953	0.002735	6
H	0.919430	-2.241847	0.006075	1
H	-1.634510	-1.788817	-0.005315	1
H	-0.919720	2.242103	-0.006065	1
H	1.635080	1.788343	0.005325	1
Es	-1.711523	0.304205	0.008542	99
Es	1.709600	-0.303393	0.043596	99
Es	1.322895	-0.234878	-0.070141	99
Es	-0.862808	-1.034426	-0.002735	99
Es	-0.209716	-1.173230	0.349708	99
Es	-0.206716	-1.173682	-0.349312	99
Es	0.762933	-1.919420	0.005288	99
Es	0.999804	-0.602173	0.023652	99
Es	0.862669	1.034681	0.002735	99
Es	1.383525	-0.245716	0.006268	99
Es	0.209675	1.173222	-0.349711	99
Es	-0.454092	1.268407	-0.003146	99
Es	0.454254	-1.268287	0.003146	99
Es	-1.376654	-1.539817	-0.004152	99
Es	0.206727	1.174004	0.349265	99
Es	-1.323347	0.234576	-0.035897	99
Es	-1.383848	0.245516	-0.006131	99
Es	1.138808	0.222358	0.025092	99
Es	-1.146150	-0.223128	0.002780	99
Es	1.377194	1.539575	0.004732	99
Es	-0.763550	1.919740	-0.004899	99
Es	-0.990844	0.601938	0.001249	99
32
Properties=species:S:1:pos:R:3:Z:I:1 energy=-303.5595273487632 field_type=dipole dipole="0.000000 0.000000 0.000000" charge=0
O	1.383970	-0.245737	0.006175	8
C	0.454000	-1.268487	0.003145	6
C	-0.862640	-1.034697	-0.002735	6
O	-1.384270	0.245583	-0.006195	8
C	-0.453840	1.268603	-0.003145	6
C	0.862500	1.034953	0.002735	6
H	0.919430	-2.241847	0.006075	1
H	-1.634510	-1.788817	-0.005315	1
H	-0.919720	2.242103	-0.006065	1
H	1.635080	1.788343	0.005325	1
Es	-0.763321	1.919637	-0.005159	99
Es	-1.376692	-1.539656	-0.004369	99
Es	1.710995	-0.304538	-0.012951	99
Es	0.454251	-1.268291	0.003146	99
Es	-1.322611	0.234451	-0.057080	99
Es	1.151224	0.220843	-0.006710	99
Es	-0.454092	1.268407	-0.003148	99
Es	-1.138863	-0.223446	0.010641	99
Es	0.862669	1.034682	0.002737	99
Es	0.764203	-1.919531	0.005154	99
Es	-1.711313	0.303749	0.013971	99
Es	0.206656	1.173895	0.349497	99
Es	1.376092	1.539566	0.004431	99
Es	1.322418	-0.235009	0.052863	99
Es	-0.862809	-1.034425	-0.002735	99
Es	0.209762	1.173331	-0.349846	99
Es	-0.209750	-1.173051	0.349782	99
Es	-0.206688	-1.173852	-0.349468	99
Es	-1.383814	0.245431	-0.005980	99
Es	1.383530	-0.245657	0.006310	99
Es	0.986231	-0.599491	-0.009521	99
Es	-0.999242	0.603029	0.008363	99
32
Properties=species:S:1:pos:R:3:Z:I:1 energy=-303.5595273487632 field_type=dipole dipole="0.000000 0.000000 0.000000" charge=0
O	1.383970	-0.245737	0.006175	8
C	0.454000	-1.268487	0.003145	6
C	-0.862640	-1.034697	-0.002735	6
O	-1.384270	0.245583	-0.006195	8
C	-0.453840	1.268603	-0.003145	6
C	0.862500	1.034953	0.002735	6
H	0.919430	-2.241847	0.006075	1
H	-1.634510	-1.788817	-0.005315	1
H	-0.919720	2.242103	-0.006065	1
H	1.635080	1.788343	0.005325	1
Es	-0.862809	-1.034426	-0.002736	99
Es	0.862669	1.034681	0.002736	99
Es	-1.375119	-1.539756	-0.004114	99
Es	0.209710	1.173203	-0.349618	99
Es	0.763860	-1.919738	0.005518	99
Es	1.383553	-0.245668	0.006164	99
Es	0.206687	1.173818	0.349119	99
Es	-0.454092	1.268405	-0.003146	99
Es	1.140212	0.223980	0.014633	99
Es	1.376578	1.539663	0.004678	99
Es	-0.209720	-1.173025	0.349501	99
Es	-1.324944	0.234514	-0.066505	99
Es	-0.982015	0.596571	0.010925	99
Es	0.996392	-0.602891	0.014145	99
Es	-1.710528	0.305344	0.020850	99
Es	-1.381745	0.245205	-0.005463	99
Es	-0.764992	1.919877	-0.004869	99
Es	-0.206695	-1.173624	-0.349249	99
Es	-1.156538	-0.218358	0.010297	99
Es	0.454252	-1.268290	0.003141	99
Es	1.323199	-0.235066	-0.033411	99
Es	1.710918	-0.304346	0.027332	99
32
Properties=species:S:1:pos:R:3:Z:I:1 energy=-303.5595273487632 field_type=dipole dipole="0.000000 0.000000 0.000000" charge=0
O	1.383970	-0.245737	0.006175	8
C	0.454000	-1.268487	0.003145	6
C	-0.862640	-1.034697	-0.002735	6
O	-1.384270	0.245583	-0.006195	8
C	-0.453840	1.268603	-0.003145	6
C	0.862500	1.034953	0.002735	6
H	0.919430	-2.241847	0.006075	1
H	-1.634510	-1.788817	-0.005315	1
H	-0.919720	2.242103	-0.006065	1
H	1.635080	1.788343	0.005325	1
Es	-1.151710	-0.220260	0.006464	99
Es	0.761745	-1.918861	0.005281	99
Es	1.378616	1.539083	0.004484	99
Es	-1.383158	0.245382	-0.005406	99
Es	0.209678	1.173168	-0.350015	99
Es	-1.323730	0.234434	-0.048393	99
Es	-0.209713	-1.173098	0.349963	99
Es	1.012872	-0.603301	0.004675	99
Es	-0.206709	-1.173958	-0.349704	99
Es	0.206732	1.174278	0.349636	99
Es	0.454251	-1.268291	0.003146	99
Es	-1.711442	0.303672	0.011765	99
Es	-1.376627	-1.539763	-0.004261	99
Es	-0.862808	-1.034426	-0.002736	99
Es	1.323163	-0.234958	0.002181	99
Es	-0.763635	1.919487	-0.005008	99
Es	1.122958	0.222461	0.005135	99
Es	0.862670	1.034687	0.002737	99
Es	-0.985609	0.599714	0.005795	99
Es	1.711926	-0.302126	0.010887	99
Es	1.383457	-0.245656	0.006449	99
Es	-0.454092	1.268405	-0.003146	99
32
Properties=species:S:1:pos:R:3:Z:I:1 energy=-303.5595273487632 field_type=dipole dipole="0.000000 0.000000 0.000000" charge=0
O	1.383970	-0.245737	0.006175	8
C	0.454000	-1.268487	0.003145	6
C	-0.862640	-1.034697	-0.002735	6
O	-1.384270	0.245583	-0.006195	8
C	-0.453840	1.268603	-0.003145	6
C	0.862500	1.034953	0.002735	6
H	0.919430	-2.241847	0.006075	1
H	-1.634510	-1.788817	-0.005315	1
H	-0.919720	2.242103	-0.006065	1
H	1.635080	1.788343	0.005325	1
Es	0.761916	-1.919040	0.004986	99
Es	-1.376249	-1.539778	-0.004403	99
Es	-0.982006	0.597610	-0.014761	99
Es	1.378541	1.539093	0.004300	99
Es	-0.206764	-1.173952	-0.349533	99
Es	0.206713	1.173921	0.349588	99
Es	-1.323426	0.234658	0.029894	99
Es	-1.155055	-0.219101	-0.013151	99
Es	1.323058	-0.234939	-0.001191	99
Es	0.209704	1.173480	-0.349906	99
Es	1.122703	0.222347	0.007987	99
Es	0.862670	1.034680	0.002731	99
Es	-0.454092	1.268407	-0.003145	99
Es	-0.862808	-1.034424	-0.002734	99
Es	-1.383854	0.245495	-0.006157	99
Es	1.013073	-0.602973	0.006278	99
Es	0.454252	-1.268291	0.003146	99
Es	1.383539	-0.245671	0.006074	99
Es	-0.764024	1.919559	-0.005159	99
Es	-0.209666	-1.173012	0.349910	99
Es	-1.711291	0.304371	-0.024681	99
Es	1.711901	-0.302369	0.009854	99
32
Properties=species:S:1:pos:R:3:Z:I:1 energy=-303.5595273487632 field_type=dipole dipole="0.000000 0.000000 0.000000" charge=0
O	1.383970	-0.245737	0.006175	8
C	0.454000	-1.268487	0.003145	6
C	-0.862640	-1.034697	-0.002735	6
O	-1.384270	0.245583	-0.006195	8
C	-0.453840	1.268603	-0.003145	6
C	0.862500	1.034953	0.002735	6
H	0.919430	-2.241847	0.006075	1
H	-1.634510	-1.788817	-0.005315	1
H	-0.919720	2.242103	-0.006065	1
H	1.635080	1.788343	0.005325	1
Es	-1.003579	0.604712	-0.008021	99
Es	0.209671	1.173245	-0.350176	99
Es	-1.323420	0.234613	0.001734	99
Es	1.323886	-0.234980	-0.001386	99
Es	-0.206711	-1.173955	-0.349917	99
Es	-0.209659	-1.172960	0.350134	99
Es	1.379516	1.538522	0.004573	99
Es	-1.383822	0.245503	-0.006032	99
Es	1.382775	-0.245472	0.005368	99
Es	-0.454092	1.268406	-0.003147	99
Es	-0.761486	1.918620	-0.005220	99
Es	1.010055	-0.604409	0.006843	99
Es	0.206671	1.173994	0.349920	99
Es	-0.862808	-1.034426	-0.002735	99
Es	1.125610	0.223530	0.006883	99
Es	0.760930	-1.918214	0.005204	99
Es	-1.378893	-1.538917	-0.004452	99
Es	1.712014	-0.301906	0.011360	99
Es	0.862668	1.034682	0.002736	99
Es	-1.712244	0.302087	-0.010255	99
Es	-1.132497	-0.224305	-0.006633	99
Es	0.454250	-1.268294	0.003146	99
32
Properties=species:S:1:pos:R:3:Z:I:1 energy=-303.5595273487632 field_type=dipole dipole="0.000000 0.000000 0.000000" charge=0
O	1.383970	-0.245737	0.006175	8
C	0.454000	-1.268487	0.003145	6
C	-0.862640	-1.034697	-0.002735	6
O	-1.384270	0.245583	-0.006195	8
C	-0.453840	1.268603	-0.003145	6
C	0.862500	1.034953	0.002735	6
H	0.919430	-2.241847	0.006075	1
H	-1.634510	-1.788817	-0.005315	1
H	-0.919720	2.242103	-0.006065	1
H	1.635080	1.788343	0.005325	1
Es	-0.761673	1.919165	-0.005117	99
Es	0.862669	1.034682	0.002736	99
Es	-0.862808	-1.034426	-0.002736	99
Es	-1.712227	0.301712	-0.009504	99
Es	1.325627	-0.235490	0.011429	99
Es	0.209703	1.173296	-0.349748	99
Es	1.158470	0.217092	0.004927	99
Es	0.977779	-0.595191	0.001390	99
Es	-0.209747	-1.173292	0.349777	99
Es	0.454251	-1.268290	0.003146	99
Es	1.380904	-0.245216	0.007979	99
Es	-0.206721	-1.173897	-0.349274	99
Es	1.711451	-0.304837	0.003582	99
Es	-1.378487	-1.539282	-0.004588	99
Es	0.764215	-1.919549	0.005063	99
Es	-1.018195	0.601555	-0.008120	99
Es	-1.383846	0.245493	-0.006092	99
Es	1.376335	1.539774	0.004487	99
Es	-1.118144	-0.220475	-0.003487	99
Es	-0.454092	1.268409	-0.003145	99
Es	0.206716	1.174096	0.349326	99
Es	-1.323345	0.234744	-0.002103	99
32
Properties=species:S:1:pos:R:3:Z:I:1 energy=-303.5595273487632 field_type=dipole dipole="0.000000 0.000000 0.000000" charge=0
O	1.383970	-0.245737	0.006175	8
C	0.454000	-1.268487	0.003145	6
C	-0.862640	-1.034697	-0.002735	6
O	-1.384270	0.245583	-0.006195	8
C	-0.453840	1.268603	-0.003145	6
C	0.862500	1.034953	0.002735	6
H	0.919430	-2.241847	0.006075	1
H	-1.634510	-1.788817	-0.005315	1
H	-0.919720	2.242103	-0.006065	1
H	1.635080	1.788343	0.005325	1
Es	0.976129	-0.593747	0.002289	99
Es	-0.762143	1.919467	-0.005108	99
Es	-0.206747	-1.173879	-0.349149	99
Es	1.383536	-0.245680	0.006293	99
Es	1.160190	0.215544	0.008042	99
Es	1.323025	-0.234968	0.005401	99
Es	-0.862809	-1.034426	-0.002736	99
Es	-0.454093	1.268406	-0.003140	99
Es	1.711480	-0.304922	0.007152	99
Es	1.375947	1.539806	0.004383	99
Es	0.209693	1.173328	-0.349599	99
Es	-1.383478	0.245426	-0.005570	99
Es	-1.015650	0.601317	-0.014130	99
Es	-1.711893	0.302493	-0.018985	99
Es	0.454251	-1.268290	0.003146	99
Es	0.764482	-1.919635	0.004925	99
Es	-1.378251	-1.539427	-0.004391	99
Es	-1.120878	-0.221513	-0.008347	99
Es	-1.323637	0.235306	0.017962	99
Es	0.862669	1.034682	0.002736	99
Es	-0.209683	-1.173034	0.349605	99
Es	0.206694	1.173820	0.349148	99
32
Properties=species:S:1:pos:R:3:Z:I:1 energy=-303.5595273487632 field_type=dipole dipole="0.000000 0.000000 0.000000" charge=0
O	1.383970	-0.245737	0.006175	8
C	0.454000	-1.268487	0.003145	6
C	-0.862640	-1.034697	-0.002735	6
O	-1.384270	0.245583	-0.006195	8
C	-0.453840	1.268603	-0.003145	6
C	0.862500	1.034953	0.002735	6
H	0.919430	-2.241847	0.006075	1
H	-1.634510	-1.788817	-0.005315	1
H	-0.919720	2.242103	-0.006065	1
H	1.635080	1.788343	0.005325	1
Es	-0.454092	1.268406	-0.003146	99
Es	0.206687	1.173857	0.348987	99
Es	-0.974246	0.591626	-0.008996	99
Es	1.015913	-0.601445	-0.000185	99
Es	-0.764522	1.919901	-0.005168	99
Es	-0.206695	-1.173663	-0.348953	99
Es	-1.323772	0.234693	0.011281	99
Es	-1.162869	-0.213698	-0.009385	99
Es	1.377990	1.539575	0.004306	99
Es	0.454251	-1.268292	0.003145	99
Es	-0.862809	-1.034425	-0.002736	99
Es	1.711830	-0.302298	-0.001791	99
Es	0.862669	1.034683	0.002737	99
Es	-0.209704	-1.173071	0.349417	99
Es	-1.711517	0.305031	-0.016669	99
Es	1.323065	-0.235103	0.024967	99
Es	0.762385	-1.919500	0.004932	99
Es	1.120241	0.220715	-0.000118	99
Es	1.383377	-0.245665	0.006602	99
Es	-1.383520	0.245429	-0.005493	99
Es	0.209713	1.173358	-0.349365	99
Es	-1.375540	-1.540040	-0.004444	99
32
Properties=species:S:1:pos:R:3:Z:I:1 energy=-303.5595273487632 field_type=dipole dipole="0.000000 0.000000 0.000000" charge=0
O	1.383970	-0.245737	0.006175	8
C	0.454000	-1.268487	0.003145	6
C	-0.862640	-1.034697	-0.002735	6
O	-1.384270	0.245583	-0.006195	8
C	-0.453840	1.268603	-0.003145	6
C	0.862500	1.034953	0.002735	6
H	0.919430	-2.241847	0.006075	1
H	-1.634510	-1.788817	-0.005315	1
H	-0.919720	2.242103	-0.006065	1
H	1.635080	1.788343	0.005325	1
Es	1.120421	0.221617	0.004779	99
Es	-1.375207	-1.540009	-0.004359	99
Es	0.206725	1.174058	0.348972	99
Es	-0.973748	0.591518	0.000754	99
Es	-1.711604	0.305039	0.001436	99
Es	1.383530	-0.245648	0.006014	99
Es	-0.862808	-1.034428	-0.002738	99
Es	-1.323209	0.234574	-0.026690	99
Es	-0.454092	1.268407	-0.003146	99
Es	1.015510	-0.601730	0.004396	99
Es	-0.206693	-1.173660	-0.348953	99
Es	1.378499	1.539349	0.004405	99
Es	-0.765059	1.919936	-0.005096	99
Es	0.761969	-1.919391	0.005164	99
Es	-0.209690	-1.172954	0.349424	99
Es	-1.163305	-0.213465	0.001017	99
Es	0.209662	1.172967	-0.349265	99
Es	0.862668	1.034683	0.002739	99
Es	-1.383844	0.245507	-0.006107	99
Es	0.454252	-1.268289	0.003145	99
Es	1.711802	-0.303009	0.008553	99
Es	1.323057	-0.234998	0.005483	99
