39
Properties=species:S:1:pos:R:3:Z:I:1 energy=-286.0497014432866 field_type=dipole dipole="0.000000 0.000000 0.000000" charge=0
C	-1.389142	-0.904735	0.129613	6
C	0.107218	-0.629105	0.058013	6
C	0.735178	-1.335565	-1.135957	6
O	0.324628	0.776805	-0.111497	8
N	0.346688	1.395065	1.148263	7
C	0.566238	2.655635	0.981423	6
H	-1.835982	-0.392585	0.988593	1
H	-1.591412	-1.976225	0.223153	1
H	-1.901402	-0.526765	-0.762387	1
H	0.600868	-0.979325	0.973203	1
H	0.294318	-0.987415	-2.076837	1
H	0.608468	-2.420754	-1.068817	1
H	1.806298	-1.112245	-1.189697	1
H	0.623648	3.322915	1.854463	1
H	0.704388	3.114295	-0.011537	1
Es	0.419745	-0.981898	-0.548479	99
Es	0.078262	0.899081	-0.250943	99
Es	0.107225	-0.628888	0.057933	99
Es	0.444025	-0.867552	0.683666	99
Es	-1.389131	-0.904747	0.129615	99
Es	0.242327	0.255955	-0.017351	99
Es	-1.518741	-1.638047	0.192773	99
Es	0.159106	2.011134	1.059636	99
Es	0.735165	-1.335566	-1.135938	99
Es	1.463847	-1.187185	-1.166915	99
Es	0.612975	0.822936	-0.214066	99
Es	0.566228	2.655665	0.981441	99
Es	0.329574	1.042217	0.447592	99
Es	-1.729777	-0.651682	-0.482812	99
Es	0.730463	1.915892	1.093276	99
Es	0.605006	3.102439	1.565661	99
Es	-0.651765	-0.772424	0.094375	99
Es	0.427659	-1.100164	-1.771705	99
Es	-1.688522	-0.559963	0.714546	99
Es	0.346775	1.395380	1.147709	99
Es	0.658813	2.965773	0.318329	99
Es	0.642749	-2.072728	-1.081591	99
Es	0.292998	1.176193	1.451736	99
Es	0.324648	0.776598	-0.111175	99
39
Properties=species:S:1:pos:R:3:Z:I:1 energy=-286.0497014432866 field_type=dipole dipole="0.000000 0.000000 0.000000" charge=0
C	-1.389142	-0.904735	0.129613	6
C	0.107218	-0.629105	0.058013	6
C	0.735178	-1.335565	-1.135957	6
O	0.324628	0.776805	-0.111497	8
N	0.346688	1.395065	1.148263	7
C	0.566238	2.655635	0.981423	6
H	-1.835982	-0.392585	0.988593	1
H	-1.591412	-1.976225	0.223153	1
H	-1.901402	-0.526765	-0.762387	1
H	0.600868	-0.979325	0.973203	1
H	0.294318	-0.987415	-2.076837	1
H	0.608468	-2.420754	-1.068817	1
H	1.806298	-1.112245	-1.189697	1
H	0.623648	3.322915	1.854463	1
H	0.704388	3.114295	-0.011537	1
Es	1.461012	-1.186227	-1.167287	99
Es	0.729459	1.916249	1.091923	99
Es	0.443298	-0.867753	0.683597	99
Es	0.566238	2.655665	0.981442	99
Es	0.420368	-0.981195	-0.549191	99
Es	-1.687621	-0.558307	0.713859	99
Es	0.658176	2.965070	0.318719	99
Es	0.604922	3.103327	1.566210	99
Es	0.242666	0.251337	-0.020091	99
Es	0.429228	-1.098982	-1.770400	99
Es	-0.653127	-0.771591	0.094130	99
Es	-1.727879	-0.650760	-0.481435	99
Es	0.083416	0.899239	-0.247628	99
Es	0.293494	1.177460	1.452571	99
Es	-1.519065	-1.641414	0.192467	99
Es	0.346774	1.395402	1.147737	99
Es	0.160674	2.011176	1.058550	99
Es	0.735166	-1.335566	-1.135938	99
Es	-1.389128	-0.904746	0.129611	99
Es	0.324551	0.776620	-0.111150	99
Es	0.107227	-0.628877	0.057935	99
Es	0.332568	1.043250	0.448196	99
Es	0.643052	-2.076265	-1.081970	99
Es	0.604184	0.825306	-0.214542	99
39
Properties=species:S:1:pos:R:3:Z:I:1 energy=-286.0497014432866 field_type=dipole dipole="0.000000 0.000000 0.000000" charge=0
C	-1.389142	-0.904735	0.129613	6
C	0.107218	-0.629105	0.058013	6
C	0.735178	-1.335565	-1.135957	6
O	0.324628	0.776805	-0.111497	8
N	0.346688	1.395065	1.148263	7
C	0.566238	2.655635	0.981423	6
H	-1.835982	-0.392585	0.988593	1
H	-1.591412	-1.976225	0.223153	1
H	-1.901402	-0.526765	-0.762387	1
H	0.600868	-0.979325	0.973203	1
H	0.294318	-0.987415	-2.076837	1
H	0.608468	-2.420754	-1.068817	1
H	1.806298	-1.112245	-1.189697	1
H	0.623648	3.322915	1.854463	1
H	0.704388	3.114295	-0.011537	1
Es	-1.389131	-0.904747	0.129614	99
Es	0.091592	0.902702	-0.255175	99
Es	0.566235	2.655668	0.981441	99
Es	-1.686967	-0.557123	0.713477	99
Es	0.735166	-1.335567	-1.135939	99
Es	0.107226	-0.628881	0.057933	99
Es	0.331444	1.045491	0.448239	99
Es	0.293701	1.178309	1.452888	99
Es	0.605227	3.103876	1.566416	99
Es	0.598858	0.820774	-0.204757	99
Es	-0.654241	-0.771216	0.093981	99
Es	0.161180	2.011204	1.058018	99
Es	0.240704	0.249551	-0.021760	99
Es	0.430533	-1.098323	-1.769214	99
Es	0.346770	1.395363	1.147708	99
Es	-1.519197	-1.643344	0.192116	99
Es	0.643118	-2.078293	-1.082565	99
Es	0.728952	1.916504	1.091091	99
Es	0.324404	0.776634	-0.111128	99
Es	0.658053	2.964523	0.319079	99
Es	0.420714	-0.980711	-0.549646	99
Es	0.442693	-0.867833	0.683489	99
Es	-1.726465	-0.650282	-0.480449	99
Es	1.459082	-1.185862	-1.167546	99
39
Properties=species:S:1:pos:R:3:Z:I:1 energy=-286.0497014432866 field_type=dipole dipole="0.000000 0.000000 0.000000" charge=0
C	-1.389142	-0.904735	0.129613	6
C	0.107218	-0.629105	0.058013	6
C	0.735178	-1.335565	-1.135957	6
O	0.324628	0.776805	-0.111497	8
N	0.346688	1.395065	1.148263	7
C	0.566238	2.655635	0.981423	6
H	-1.835982	-0.392585	0.988593	1
H	-1.591412	-1.976225	0.223153	1
H	-1.901402	-0.526765	-0.762387	1
H	0.600868	-0.979325	0.973203	1
H	0.294318	-0.987415	-2.076837	1
H	0.608468	-2.420754	-1.068817	1
H	1.806298	-1.112245	-1.189697	1
H	0.623648	3.322915	1.854463	1
H	0.704388	3.114295	-0.011537	1
Es	0.657898	2.964036	0.319384	99
Es	-1.725394	-0.649972	-0.479480	99
Es	-1.519351	-1.644652	0.191709	99
Es	-1.686556	-0.556408	0.713041	99
Es	0.566245	2.655666	0.981441	99
Es	0.442309	-0.868003	0.683543	99
Es	0.107225	-0.628882	0.057934	99
Es	0.643205	-2.079598	-1.082957	99
Es	1.457530	-1.185736	-1.167920	99
Es	-0.654803	-0.770733	0.093915	99
Es	0.605626	3.104337	1.566520	99
Es	0.324636	0.776597	-0.111169	99
Es	0.735166	-1.335566	-1.135942	99
Es	0.346775	1.395393	1.147713	99
Es	0.333067	1.046368	0.448238	99
Es	0.421045	-0.980312	-0.550006	99
Es	0.293917	1.178969	1.453152	99
Es	0.593915	0.820708	-0.203726	99
Es	-1.389128	-0.904747	0.129614	99
Es	0.094286	0.902619	-0.254302	99
Es	0.240840	0.248245	-0.023070	99
Es	0.728408	1.916728	1.090322	99
Es	0.431283	-1.097875	-1.768282	99
Es	0.161511	2.011236	1.057641	99
39
Properties=species:S:1:pos:R:3:Z:I:1 energy=-286.0497014432866 field_type=dipole dipole="0.000000 0.000000 0.000000" charge=0
C	-1.389142	-0.904735	0.129613	6
C	0.107218	-0.629105	0.058013	6
C	0.735178	-1.335565	-1.135957	6
O	0.324628	0.776805	-0.111497	8
N	0.346688	1.395065	1.148263	7
C	0.566238	2.655635	0.981423	6
H	-1.835982	-0.392585	0.988593	1
H	-1.591412	-1.976225	0.223153	1
H	-1.901402	-0.526765	-0.762387	1
H	0.600868	-0.979325	0.973203	1
H	0.294318	-0.987415	-2.076837	1
H	0.608468	-2.420754	-1.068817	1
H	1.806298	-1.112245	-1.189697	1
H	0.623648	3.322915	1.854463	1
H	0.704388	3.114295	-0.011537	1
Es	-1.519576	-1.645496	0.191366	99
Es	0.605882	3.104712	1.566511	99
Es	-1.685950	-0.555715	0.712908	99
Es	0.333769	1.047372	0.448132	99
Es	0.441868	-0.867912	0.683412	99
Es	0.293327	1.179653	1.453251	99
Es	-1.389132	-0.904747	0.129614	99
Es	0.100159	0.906125	-0.260726	99
Es	0.346769	1.395356	1.147706	99
Es	0.728387	1.916836	1.090059	99
Es	0.238404	0.247887	-0.024225	99
Es	-0.655434	-0.770734	0.093767	99
Es	1.456347	-1.185652	-1.168041	99
Es	-1.724608	-0.649733	-0.478707	99
Es	0.589751	0.816052	-0.195536	99
Es	0.566247	2.655666	0.981442	99
Es	0.162032	2.011229	1.057160	99
Es	0.324487	0.776635	-0.111196	99
Es	0.107224	-0.628879	0.057929	99
Es	0.643116	-2.080597	-1.083489	99
Es	0.432175	-1.097555	-1.767363	99
Es	0.657924	2.963620	0.319591	99
Es	0.735165	-1.335566	-1.135938	99
Es	0.421322	-0.980139	-0.550313	99
39
Properties=species:S:1:pos:R:3:Z:I:1 energy=-286.0497014432866 field_type=dipole dipole="0.000000 0.000000 0.000000" charge=0
C	-1.389142	-0.904735	0.129613	6
C	0.107218	-0.629105	0.058013	6
C	0.735178	-1.335565	-1.135957	6
O	0.324628	0.776805	-0.111497	8
N	0.346688	1.395065	1.148263	7
C	0.566238	2.655635	0.981423	6
H	-1.835982	-0.392585	0.988593	1
H	-1.591412	-1.976225	0.223153	1
H	-1.901402	-0.526765	-0.762387	1
H	0.600868	-0.979325	0.973203	1
H	0.294318	-0.987415	-2.076837	1
H	0.608468	-2.420754	-1.068817	1
H	1.806298	-1.112245	-1.189697	1
H	0.623648	3.322915	1.854463	1
H	0.704388	3.114295	-0.011537	1
Es	0.107225	-0.628880	0.057932	99
Es	-1.723769	-0.649683	-0.477988	99
Es	0.104406	0.907588	-0.264402	99
Es	0.728455	1.916884	1.090007	99
Es	-1.685582	-0.555039	0.712653	99
Es	0.441682	-0.868008	0.683304	99
Es	0.658014	2.963325	0.319770	99
Es	-1.519859	-1.646149	0.191067	99
Es	0.566243	2.655667	0.981441	99
Es	0.162569	2.011225	1.056558	99
Es	0.421457	-0.979844	-0.550636	99
Es	0.334120	1.048523	0.447894	99
Es	-0.655901	-0.770683	0.093741	99
Es	0.292595	1.180160	1.453325	99
Es	0.735165	-1.335566	-1.135938	99
Es	0.606112	3.104960	1.566509	99
Es	1.455544	-1.185602	-1.168359	99
Es	-1.389133	-0.904746	0.129614	99
Es	0.346777	1.395391	1.147702	99
Es	0.432614	-1.097478	-1.766617	99
Es	0.643039	-2.081214	-1.083737	99
Es	0.324387	0.776627	-0.111124	99
Es	0.238228	0.247305	-0.025114	99
Es	0.585267	0.813657	-0.190289	99
39
Properties=species:S:1:pos:R:3:Z:I:1 energy=-286.0497014432866 field_type=dipole dipole="0.000000 0.000000 0.000000" charge=0
C	-1.389142	-0.904735	0.129613	6
C	0.107218	-0.629105	0.058013	6
C	0.735178	-1.335565	-1.135957	6
O	0.324628	0.776805	-0.111497	8
N	0.346688	1.395065	1.148263	7
C	0.566238	2.655635	0.981423	6
H	-1.835982	-0.392585	0.988593	1
H	-1.591412	-1.976225	0.223153	1
H	-1.901402	-0.526765	-0.762387	1
H	0.600868	-0.979325	0.973203	1
H	0.294318	-0.987415	-2.076837	1
H	0.608468	-2.420754	-1.068817	1
H	1.806298	-1.112245	-1.189697	1
H	0.623648	3.322915	1.854463	1
H	0.704388	3.114295	-0.011537	1
Es	0.162781	2.011216	1.056269	99
Es	-1.519979	-1.646672	0.190805	99
Es	0.236745	0.247208	-0.025955	99
Es	0.109471	0.910409	-0.270165	99
Es	0.292664	1.180656	1.453572	99
Es	0.324637	0.776600	-0.111155	99
Es	0.606382	3.105313	1.566389	99
Es	0.441376	-0.867907	0.683189	99
Es	0.566240	2.655668	0.981441	99
Es	1.455004	-1.185548	-1.168479	99
Es	0.658146	2.962908	0.319924	99
Es	0.735165	-1.335566	-1.135939	99
Es	-1.685321	-0.554509	0.712426	99
Es	0.421549	-0.979601	-0.550920	99
Es	0.642775	-2.081726	-1.084131	99
Es	0.581123	0.809870	-0.183131	99
Es	-1.723181	-0.649773	-0.477245	99
Es	0.346777	1.395390	1.147719	99
Es	0.107225	-0.628880	0.057933	99
Es	0.727974	1.917064	1.089583	99
Es	0.433328	-1.097525	-1.765794	99
Es	-1.389130	-0.904747	0.129614	99
Es	0.334290	1.049123	0.447796	99
Es	-0.656385	-0.770550	0.093565	99
39
Properties=species:S:1:pos:R:3:Z:I:1 energy=-286.0497014432866 field_type=dipole dipole="0.000000 0.000000 0.000000" charge=0
C	-1.389142	-0.904735	0.129613	6
C	0.107218	-0.629105	0.058013	6
C	0.735178	-1.335565	-1.135957	6
O	0.324628	0.776805	-0.111497	8
N	0.346688	1.395065	1.148263	7
C	0.566238	2.655635	0.981423	6
H	-1.835982	-0.392585	0.988593	1
H	-1.591412	-1.976225	0.223153	1
H	-1.901402	-0.526765	-0.762387	1
H	0.600868	-0.979325	0.973203	1
H	0.294318	-0.987415	-2.076837	1
H	0.608468	-2.420754	-1.068817	1
H	1.806298	-1.112245	-1.189697	1
H	0.623648	3.322915	1.854463	1
H	0.704388	3.114295	-0.011537	1
Es	0.107226	-0.628885	0.057930	99
Es	0.235375	0.247132	-0.026371	99
Es	-1.520174	-1.647061	0.190596	99
Es	0.421752	-0.979654	-0.551113	99
Es	0.292032	1.181037	1.453491	99
Es	0.324531	0.776612	-0.111168	99
Es	0.658256	2.962744	0.320108	99
Es	0.433666	-1.097352	-1.765206	99
Es	0.346776	1.395402	1.147711	99
Es	0.606499	3.105456	1.566331	99
Es	-1.685103	-0.553999	0.712200	99
Es	0.577830	0.807415	-0.178795	99
Es	-1.722643	-0.649921	-0.476562	99
Es	0.566243	2.655667	0.981440	99
Es	0.735158	-1.335561	-1.135942	99
Es	1.454317	-1.185589	-1.168667	99
Es	-0.656457	-0.770354	0.093481	99
Es	0.728255	1.917058	1.089607	99
Es	-1.389130	-0.904747	0.129614	99
Es	0.335407	1.049698	0.447397	99
Es	0.162980	2.011223	1.055880	99
Es	0.441086	-0.867864	0.683141	99
Es	0.642703	-2.082128	-1.084471	99
Es	0.113071	0.912089	-0.273320	99
39
Properties=species:S:1:pos:R:3:Z:I:1 energy=-286.0497014432866 field_type=dipole dipole="0.000000 0.000000 0.000000" charge=0
C	-1.389142	-0.904735	0.129613	6
C	0.107218	-0.629105	0.058013	6
C	0.735178	-1.335565	-1.135957	6
O	0.324628	0.776805	-0.111497	8
N	0.346688	1.395065	1.148263	7
C	0.566238	2.655635	0.981423	6
H	-1.835982	-0.392585	0.988593	1
H	-1.591412	-1.976225	0.223153	1
H	-1.901402	-0.526765	-0.762387	1
H	0.600868	-0.979325	0.973203	1
H	0.294318	-0.987415	-2.076837	1
H	0.608468	-2.420754	-1.068817	1
H	1.806298	-1.112245	-1.189697	1
H	0.623648	3.322915	1.854463	1
H	0.704388	3.114295	-0.011537	1
Es	0.606692	3.105656	1.566262	99
Es	0.735165	-1.335566	-1.135939	99
Es	0.421905	-0.979469	-0.551223	99
Es	0.346774	1.395380	1.147703	99
Es	-1.685012	-0.553602	0.711980	99
Es	0.566244	2.655666	0.981442	99
Es	-0.656725	-0.770479	0.093457	99
Es	0.642316	-2.082398	-1.084900	99
Es	0.121446	0.916452	-0.284044	99
Es	-1.389133	-0.904747	0.129615	99
Es	0.728211	1.917199	1.089246	99
Es	1.454357	-1.185351	-1.169055	99
Es	0.291615	1.181312	1.453591	99
Es	0.434003	-1.097634	-1.764164	99
Es	0.440950	-0.867710	0.682802	99
Es	-1.520635	-1.647307	0.190228	99
Es	0.234568	0.247133	-0.026704	99
Es	0.163028	2.011171	1.055687	99
Es	0.571535	0.801730	-0.166996	99
Es	-1.722070	-0.650054	-0.475804	99
Es	0.658582	2.962467	0.320334	99
Es	0.324430	0.776627	-0.111156	99
Es	0.107225	-0.628878	0.057932	99
Es	0.334186	1.050819	0.447018	99
39
Properties=species:S:1:pos:R:3:Z:I:1 energy=-286.0497014432866 field_type=dipole dipole="0.000000 0.000000 0.000000" charge=0
C	-1.389142	-0.904735	0.129613	6
C	0.107218	-0.629105	0.058013	6
C	0.735178	-1.335565	-1.135957	6
O	0.324628	0.776805	-0.111497	8
N	0.346688	1.395065	1.148263	7
C	0.566238	2.655635	0.981423	6
H	-1.835982	-0.392585	0.988593	1
H	-1.591412	-1.976225	0.223153	1
H	-1.901402	-0.526765	-0.762387	1
H	0.600868	-0.979325	0.973203	1
H	0.294318	-0.987415	-2.076837	1
H	0.608468	-2.420754	-1.068817	1
H	1.806298	-1.112245	-1.189697	1
H	0.623648	3.322915	1.854463	1
H	0.704388	3.114295	-0.011537	1
Es	0.606719	3.105804	1.566140	99
Es	0.642156	-2.082626	-1.085187	99
Es	-1.721697	-0.650243	-0.475205	99
Es	0.334825	1.051228	0.446787	99
Es	0.107224	-0.628882	0.057932	99
Es	0.440875	-0.867687	0.682644	99
Es	0.735165	-1.335566	-1.135938	99
Es	0.728284	1.917122	1.089647	99
Es	1.454145	-1.185230	-1.169297	99
Es	0.163324	2.011253	1.054981	99
Es	0.658705	2.962302	0.320388	99
Es	0.434383	-1.097895	-1.763456	99
Es	0.324469	0.776617	-0.111145	99
Es	-1.684909	-0.553244	0.711794	99
Es	0.291215	1.181864	1.453553	99
Es	0.346772	1.395380	1.147697	99
Es	0.566243	2.655668	0.981441	99
Es	-1.389129	-0.904747	0.129614	99
Es	0.233579	0.247176	-0.026914	99
Es	-0.656905	-0.770416	0.093346	99
Es	0.567046	0.798861	-0.161495	99
Es	-1.520826	-1.647529	0.190036	99
Es	0.126169	0.918398	-0.288641	99
Es	0.421823	-0.979189	-0.551411	99
39
Properties=species:S:1:pos:R:3:Z:I:1 energy=-286.0497014432866 field_type=dipole dipole="0.000000 0.000000 0.000000" charge=0
C	-1.389142	-0.904735	0.129613	6
C	0.107218	-0.629105	0.058013	6
C	0.735178	-1.335565	-1.135957	6
O	0.324628	0.776805	-0.111497	8
N	0.346688	1.395065	1.148263	7
C	0.566238	2.655635	0.981423	6
H	-1.835982	-0.392585	0.988593	1
H	-1.591412	-1.976225	0.223153	1
H	-1.901402	-0.526765	-0.762387	1
H	0.600868	-0.979325	0.973203	1
H	0.294318	-0.987415	-2.076837	1
H	0.608468	-2.420754	-1.068817	1
H	1.806298	-1.112245	-1.189697	1
H	0.623648	3.322915	1.854463	1
H	0.704388	3.114295	-0.011537	1
Es	1.454117	-1.184985	-1.169705	99
Es	0.290841	1.182172	1.453323	99
Es	0.641970	-2.082817	-1.085415	99
Es	-1.684840	-0.552950	0.711589	99
Es	0.232533	0.247250	-0.027443	99
Es	-1.721350	-0.650429	-0.474583	99
Es	0.434494	-1.098147	-1.762641	99
Es	0.422208	-0.979133	-0.551412	99
Es	0.346777	1.395404	1.147712	99
Es	0.133250	0.921511	-0.295814	99
Es	0.735166	-1.335567	-1.135939	99
Es	-0.657241	-0.770441	0.093216	99
Es	0.728553	1.917145	1.089609	99
Es	-1.389129	-0.904747	0.129613	99
Es	0.606739	3.106050	1.566052	99
Es	0.566245	2.655667	0.981442	99
Es	0.334501	1.051603	0.446662	99
Es	0.107226	-0.628879	0.057932	99
Es	0.163295	2.011249	1.054811	99
Es	0.658889	2.962028	0.320575	99
Es	0.324481	0.776647	-0.111219	99
Es	0.561276	0.794976	-0.153305	99
Es	0.440727	-0.867473	0.682431	99
Es	-1.521071	-1.647715	0.189824	99
39
Properties=species:S:1:pos:R:3:Z:I:1 energy=-286.0497014432866 field_type=dipole dipole="0.000000 0.000000 0.000000" charge=0
C	-1.389142	-0.904735	0.129613	6
C	0.107218	-0.629105	0.058013	6
C	0.735178	-1.335565	-1.135957	6
O	0.324628	0.776805	-0.111497	8
N	0.346688	1.395065	1.148263	7
C	0.566238	2.655635	0.981423	6
H	-1.835982	-0.392585	0.988593	1
H	-1.591412	-1.976225	0.223153	1
H	-1.901402	-0.526765	-0.762387	1
H	0.600868	-0.979325	0.973203	1
H	0.294318	-0.987415	-2.076837	1
H	0.608468	-2.420754	-1.068817	1
H	1.806298	-1.112245	-1.189697	1
H	0.623648	3.322915	1.854463	1
H	0.704388	3.114295	-0.011537	1
Es	-1.389131	-0.904747	0.129614	99
Es	0.107225	-0.628877	0.057932	99
Es	0.346775	1.395409	1.147741	99
Es	0.606950	3.106239	1.565949	99
Es	0.658862	2.961811	0.320713	99
Es	0.566243	2.655669	0.981441	99
Es	-0.657235	-0.770363	0.093337	99
Es	0.323779	0.776718	-0.110980	99
Es	0.728372	1.917224	1.089313	99
Es	0.735167	-1.335566	-1.135940	99
Es	0.163310	2.011264	1.054687	99
Es	-1.684512	-0.552763	0.711438	99
Es	0.133624	0.920513	-0.294177	99
Es	0.440659	-0.867566	0.682450	99
Es	1.453764	-1.185067	-1.169633	99
Es	0.641820	-2.082992	-1.085521	99
Es	-1.521192	-1.647892	0.189802	99
Es	0.560541	0.795609	-0.154396	99
Es	-1.721110	-0.650342	-0.474386	99
Es	0.434864	-1.098107	-1.762389	99
Es	0.335233	1.051956	0.446364	99
Es	0.421938	-0.979064	-0.551810	99
Es	0.290936	1.182287	1.453440	99
Es	0.232773	0.247067	-0.027676	99
39
Properties=species:S:1:pos:R:3:Z:I:1 energy=-286.0497014432866 field_type=dipole dipole="0.000000 0.000000 0.000000" charge=0
C	-1.389142	-0.904735	0.129613	6
C	0.107218	-0.629105	0.058013	6
C	0.735178	-1.335565	-1.135957	6
O	0.324628	0.776805	-0.111497	8
N	0.346688	1.395065	1.148263	7
C	0.566238	2.655635	0.981423	6
H	-1.835982	-0.392585	0.988593	1
H	-1.591412	-1.976225	0.223153	1
H	-1.901402	-0.526765	-0.762387	1
H	0.600868	-0.979325	0.973203	1
H	0.294318	-0.987415	-2.076837	1
H	0.608468	-2.420754	-1.068817	1
H	1.806298	-1.112245	-1.189697	1
H	0.623648	3.322915	1.854463	1
H	0.704388	3.114295	-0.011537	1
Es	1.454401	-1.184491	-1.170072	99
Es	0.434993	-1.098674	-1.761246	99
Es	0.606927	3.106374	1.565811	99
Es	-1.720886	-0.650955	-0.473327	99
Es	-1.521506	-1.647941	0.189391	99
Es	-1.389130	-0.904747	0.129613	99
Es	0.440636	-0.867230	0.681850	99
Es	0.334057	1.052393	0.446152	99
Es	0.346776	1.395402	1.147705	99
Es	0.641500	-2.083047	-1.085959	99
Es	0.147547	0.926711	-0.308934	99
Es	-1.685125	-0.552649	0.711113	99
Es	0.548370	0.788483	-0.138747	99
Es	0.422055	-0.979044	-0.551751	99
Es	0.324417	0.776625	-0.111140	99
Es	0.659005	2.961680	0.320959	99
Es	0.566249	2.655667	0.981442	99
Es	0.231631	0.247254	-0.027800	99
Es	0.735166	-1.335566	-1.135939	99
Es	0.729030	1.917092	1.089637	99
Es	0.290667	1.182719	1.452889	99
Es	0.107223	-0.628879	0.057931	99
Es	-0.657175	-0.770129	0.093193	99
Es	0.162828	2.011369	1.054542	99
39
Properties=species:S:1:pos:R:3:Z:I:1 energy=-286.0497014432866 field_type=dipole dipole="0.000000 0.000000 0.000000" charge=0
C	-1.389142	-0.904735	0.129613	6
C	0.107218	-0.629105	0.058013	6
C	0.735178	-1.335565	-1.135957	6
O	0.324628	0.776805	-0.111497	8
N	0.346688	1.395065	1.148263	7
C	0.566238	2.655635	0.981423	6
H	-1.835982	-0.392585	0.988593	1
H	-1.591412	-1.976225	0.223153	1
H	-1.901402	-0.526765	-0.762387	1
H	0.600868	-0.979325	0.973203	1
H	0.294318	-0.987415	-2.076837	1
H	0.608468	-2.420754	-1.068817	1
H	1.806298	-1.112245	-1.189697	1
H	0.623648	3.322915	1.854463	1
H	0.704388	3.114295	-0.011537	1
Es	0.566242	2.655668	0.981441	99
Es	0.148115	0.926392	-0.308266	99
Es	0.107224	-0.628875	0.057931	99
Es	0.606961	3.106618	1.565643	99
Es	0.346775	1.395390	1.147699	99
Es	0.335445	1.052656	0.445893	99
Es	-1.684951	-0.552371	0.710952	99
Es	-1.720683	-0.651058	-0.473194	99
Es	0.324402	0.776623	-0.111129	99
Es	0.641578	-2.083175	-1.085791	99
Es	0.547193	0.788231	-0.138733	99
Es	0.658932	2.961448	0.321001	99
Es	0.728909	1.917067	1.089839	99
Es	0.163307	2.011384	1.054034	99
Es	-1.389131	-0.904747	0.129614	99
Es	1.454076	-1.184467	-1.170327	99
Es	0.422205	-0.978907	-0.551902	99
Es	0.440430	-0.867121	0.681820	99
Es	-0.657310	-0.770121	0.093184	99
Es	0.735164	-1.335566	-1.135939	99
Es	0.230810	0.247356	-0.027998	99
Es	0.435095	-1.098924	-1.761019	99
Es	0.290379	1.182981	1.453055	99
Es	-1.521512	-1.648064	0.189504	99
39
Properties=species:S:1:pos:R:3:Z:I:1 energy=-286.0497014432866 field_type=dipole dipole="0.000000 0.000000 0.000000" charge=0
C	-1.389142	-0.904735	0.129613	6
C	0.107218	-0.629105	0.058013	6
C	0.735178	-1.335565	-1.135957	6
O	0.324628	0.776805	-0.111497	8
N	0.346688	1.395065	1.148263	7
C	0.566238	2.655635	0.981423	6
H	-1.835982	-0.392585	0.988593	1
H	-1.591412	-1.976225	0.223153	1
H	-1.901402	-0.526765	-0.762387	1
H	0.600868	-0.979325	0.973203	1
H	0.294318	-0.987415	-2.076837	1
H	0.608468	-2.420754	-1.068817	1
H	1.806298	-1.112245	-1.189697	1
H	0.623648	3.322915	1.854463	1
H	0.704388	3.114295	-0.011537	1
Es	0.290681	1.183369	1.452185	99
Es	0.324322	0.776668	-0.111092	99
Es	0.162346	2.011514	1.054309	99
Es	0.230424	0.247397	-0.028097	99
Es	0.346776	1.395409	1.147726	99
Es	0.440598	-0.866955	0.681303	99
Es	0.606910	3.106968	1.565436	99
Es	0.334294	1.052667	0.445931	99
Es	0.729745	1.916949	1.089806	99
Es	-0.657124	-0.769938	0.093234	99
Es	-1.521878	-1.648046	0.189207	99
Es	-1.389132	-0.904747	0.129614	99
Es	0.533961	0.782748	-0.125614	99
Es	0.422024	-0.978908	-0.551948	99
Es	0.162987	0.931310	-0.320930	99
Es	0.735167	-1.335566	-1.135939	99
Es	-1.685637	-0.552459	0.710533	99
Es	0.641176	-2.083187	-1.086262	99
Es	1.454852	-1.183879	-1.170472	99
Es	0.435296	-1.099320	-1.760027	99
Es	0.107225	-0.628877	0.057932	99
Es	-1.720477	-0.651512	-0.472417	99
Es	0.658871	2.961147	0.321454	99
Es	0.566246	2.655668	0.981442	99
39
Properties=species:S:1:pos:R:3:Z:I:1 energy=-286.0497014432866 field_type=dipole dipole="0.000000 0.000000 0.000000" charge=0
C	-1.389142	-0.904735	0.129613	6
C	0.107218	-0.629105	0.058013	6
C	0.735178	-1.335565	-1.135957	6
O	0.324628	0.776805	-0.111497	8
N	0.346688	1.395065	1.148263	7
C	0.566238	2.655635	0.981423	6
H	-1.835982	-0.392585	0.988593	1
H	-1.591412	-1.976225	0.223153	1
H	-1.901402	-0.526765	-0.762387	1
H	0.600868	-0.979325	0.973203	1
H	0.294318	-0.987415	-2.076837	1
H	0.608468	-2.420754	-1.068817	1
H	1.806298	-1.112245	-1.189697	1
H	0.623648	3.322915	1.854463	1
H	0.704388	3.114295	-0.011537	1
Es	0.658752	2.960979	0.321694	99
Es	0.440581	-0.866786	0.681015	99
Es	1.455107	-1.183666	-1.170521	99
Es	0.566245	2.655667	0.981442	99
Es	0.324349	0.776633	-0.111112	99
Es	-1.521979	-1.648077	0.189085	99
Es	0.170542	0.933067	-0.325775	99
Es	0.346776	1.395405	1.147707	99
Es	-1.389130	-0.904747	0.129615	99
Es	0.606980	3.107156	1.565343	99
Es	-0.657205	-0.769921	0.093216	99
Es	0.422158	-0.978974	-0.551854	99
Es	0.526768	0.780520	-0.119985	99
Es	0.291151	1.183716	1.451853	99
Es	0.729906	1.916986	1.089418	99
Es	0.107222	-0.628878	0.057931	99
Es	0.161901	2.011566	1.054514	99
Es	0.334269	1.052699	0.445955	99
Es	0.641058	-2.083194	-1.086339	99
Es	-1.720354	-0.651725	-0.472042	99
Es	0.435327	-1.099454	-1.759741	99
Es	0.735166	-1.335567	-1.135938	99
Es	-1.685877	-0.552426	0.710341	99
Es	0.229941	0.247441	-0.028504	99
39
Properties=species:S:1:pos:R:3:Z:I:1 energy=-286.0497014432866 field_type=dipole dipole="0.000000 0.000000 0.000000" charge=0
C	-1.389142	-0.904735	0.129613	6
C	0.107218	-0.629105	0.058013	6
C	0.735178	-1.335565	-1.135957	6
O	0.324628	0.776805	-0.111497	8
N	0.346688	1.395065	1.148263	7
C	0.566238	2.655635	0.981423	6
H	-1.835982	-0.392585	0.988593	1
H	-1.591412	-1.976225	0.223153	1
H	-1.901402	-0.526765	-0.762387	1
H	0.600868	-0.979325	0.973203	1
H	0.294318	-0.987415	-2.076837	1
H	0.608468	-2.420754	-1.068817	1
H	1.806298	-1.112245	-1.189697	1
H	0.623648	3.322915	1.854463	1
H	0.704388	3.114295	-0.011537	1
Es	0.162488	2.011542	1.053985	99
Es	0.324054	0.776687	-0.111091	99
Es	0.167122	0.931760	-0.323031	99
Es	0.230590	0.247255	-0.028228	99
Es	0.335496	1.053087	0.445536	99
Es	0.658804	2.960913	0.321650	99
Es	-1.522034	-1.648213	0.189195	99
Es	1.454741	-1.183775	-1.170736	99
Es	-1.720163	-0.651812	-0.471845	99
Es	0.435468	-1.099479	-1.759430	99
Es	0.422153	-0.978932	-0.552083	99
Es	0.290697	1.183707	1.452255	99
Es	-1.685501	-0.552061	0.710244	99
Es	0.566248	2.655667	0.981442	99
Es	0.607025	3.107204	1.565296	99
Es	0.729725	1.916982	1.089565	99
Es	0.528542	0.781654	-0.122555	99
Es	0.640981	-2.083309	-1.086444	99
Es	-1.389128	-0.904747	0.129615	99
Es	0.735167	-1.335566	-1.135938	99
Es	0.440506	-0.866804	0.681078	99
Es	-0.657330	-0.769869	0.093200	99
Es	0.107227	-0.628874	0.057929	99
Es	0.346775	1.395400	1.147707	99
39
Properties=species:S:1:pos:R:3:Z:I:1 energy=-286.0497014432866 field_type=dipole dipole="0.000000 0.000000 0.000000" charge=0
C	-1.389142	-0.904735	0.129613	6
C	0.107218	-0.629105	0.058013	6
C	0.735178	-1.335565	-1.135957	6
O	0.324628	0.776805	-0.111497	8
N	0.346688	1.395065	1.148263	7
C	0.566238	2.655635	0.981423	6
H	-1.835982	-0.392585	0.988593	1
H	-1.591412	-1.976225	0.223153	1
H	-1.901402	-0.526765	-0.762387	1
H	0.600868	-0.979325	0.973203	1
H	0.294318	-0.987415	-2.076837	1
H	0.608468	-2.420754	-1.068817	1
H	1.806298	-1.112245	-1.189697	1
H	0.623648	3.322915	1.854463	1
H	0.704388	3.114295	-0.011537	1
Es	1.454763	-1.183588	-1.170807	99
Es	0.658794	2.960731	0.321786	99
Es	-1.522111	-1.648244	0.189103	99
Es	0.162061	2.011581	1.054266	99
Es	-1.389129	-0.904747	0.129614	99
Es	0.335312	1.053195	0.445417	99
Es	0.107225	-0.628883	0.057930	99
Es	-1.720025	-0.651935	-0.471606	99
Es	0.346776	1.395406	1.147721	99
Es	0.230387	0.247256	-0.028353	99
Es	0.729821	1.917025	1.089369	99
Es	-0.657426	-0.769885	0.093051	99
Es	0.171522	0.932704	-0.325839	99
Es	0.640978	-2.083375	-1.086370	99
Es	0.435490	-1.099608	-1.759219	99
Es	0.290999	1.183946	1.451904	99
Es	0.607116	3.107375	1.565156	99
Es	0.440431	-0.866751	0.681002	99
Es	0.566245	2.655667	0.981442	99
Es	-1.685610	-0.551992	0.710127	99
Es	0.524250	0.780350	-0.119198	99
Es	0.422315	-0.978884	-0.552120	99
Es	0.735163	-1.335565	-1.135940	99
Es	0.324308	0.776639	-0.111124	99
39
Properties=species:S:1:pos:R:3:Z:I:1 energy=-286.0497014432866 field_type=dipole dipole="0.000000 0.000000 0.000000" charge=0
C	-1.389142	-0.904735	0.129613	6
C	0.107218	-0.629105	0.058013	6
C	0.735178	-1.335565	-1.135957	6
O	0.324628	0.776805	-0.111497	8
N	0.346688	1.395065	1.148263	7
C	0.566238	2.655635	0.981423	6
H	-1.835982	-0.392585	0.988593	1
H	-1.591412	-1.976225	0.223153	1
H	-1.901402	-0.526765	-0.762387	1
H	0.600868	-0.979325	0.973203	1
H	0.294318	-0.987415	-2.076837	1
H	0.608468	-2.420754	-1.068817	1
H	1.806298	-1.112245	-1.189697	1
H	0.623648	3.322915	1.854463	1
H	0.704388	3.114295	-0.011537	1
Es	0.291356	1.184149	1.451623	99
Es	0.161714	2.011611	1.054471	99
Es	0.107221	-0.628875	0.057935	99
Es	0.324156	0.776657	-0.111071	99
Es	0.735166	-1.335567	-1.135939	99
Es	0.440426	-0.866675	0.680828	99
Es	0.658725	2.960618	0.321950	99
Es	-1.389131	-0.904747	0.129614	99
Es	-1.522282	-1.648280	0.189065	99
Es	0.729921	1.917048	1.089112	99
Es	1.454944	-1.183389	-1.170871	99
Es	0.346776	1.395404	1.147724	99
Es	0.422277	-0.978846	-0.552249	99
Es	-1.719890	-0.652074	-0.471312	99
Es	0.607151	3.107503	1.565092	99
Es	-1.685778	-0.552006	0.709853	99
Es	0.176221	0.933757	-0.328863	99
Es	0.230638	0.247191	-0.028609	99
Es	0.435615	-1.099804	-1.758844	99
Es	-0.657348	-0.769800	0.093124	99
Es	0.518972	0.779161	-0.115830	99
Es	0.335733	1.053118	0.445522	99
Es	0.640825	-2.083405	-1.086453	99
Es	0.566245	2.655668	0.981441	99
39
Properties=species:S:1:pos:R:3:Z:I:1 energy=-286.0497014432866 field_type=dipole dipole="0.000000 0.000000 0.000000" charge=0
C	-1.389142	-0.904735	0.129613	6
C	0.107218	-0.629105	0.058013	6
C	0.735178	-1.335565	-1.135957	6
O	0.324628	0.776805	-0.111497	8
N	0.346688	1.395065	1.148263	7
C	0.566238	2.655635	0.981423	6
H	-1.835982	-0.392585	0.988593	1
H	-1.591412	-1.976225	0.223153	1
H	-1.901402	-0.526765	-0.762387	1
H	0.600868	-0.979325	0.973203	1
H	0.294318	-0.987415	-2.076837	1
H	0.608468	-2.420754	-1.068817	1
H	1.806298	-1.112245	-1.189697	1
H	0.623648	3.322915	1.854463	1
H	0.704388	3.114295	-0.011537	1
Es	0.336276	1.053374	0.445183	99
Es	0.730152	1.916963	1.089312	99
Es	1.454846	-1.183410	-1.171002	99
Es	-1.685630	-0.551866	0.709929	99
Es	-1.389131	-0.904747	0.129614	99
Es	0.107226	-0.628879	0.057935	99
Es	-1.522375	-1.648298	0.188942	99
Es	0.346775	1.395403	1.147709	99
Es	0.422439	-0.978668	-0.552095	99
Es	-1.719810	-0.652110	-0.471110	99
Es	0.515641	0.778655	-0.114685	99
Es	0.735165	-1.335567	-1.135938	99
Es	0.658606	2.960417	0.322102	99
Es	0.161809	2.011659	1.054206	99
Es	0.435698	-1.099875	-1.758647	99
Es	0.440405	-0.866672	0.680778	99
Es	0.566245	2.655667	0.981441	99
Es	0.178306	0.934010	-0.329729	99
Es	0.640781	-2.083439	-1.086519	99
Es	-0.657599	-0.769953	0.092877	99
Es	0.607060	3.107749	1.564945	99
Es	0.291289	1.184233	1.451566	99
Es	0.325421	0.776491	-0.110933	99
Es	0.230062	0.247281	-0.028566	99
39
Properties=species:S:1:pos:R:3:Z:I:1 energy=-286.0497014432866 field_type=dipole dipole="0.000000 0.000000 0.000000" charge=0
C	-1.389142	-0.904735	0.129613	6
C	0.107218	-0.629105	0.058013	6
C	0.735178	-1.335565	-1.135957	6
O	0.324628	0.776805	-0.111497	8
N	0.346688	1.395065	1.148263	7
C	0.566238	2.655635	0.981423	6
H	-1.835982	-0.392585	0.988593	1
H	-1.591412	-1.976225	0.223153	1
H	-1.901402	-0.526765	-0.762387	1
H	0.600868	-0.979325	0.973203	1
H	0.294318	-0.987415	-2.076837	1
H	0.608468	-2.420754	-1.068817	1
H	1.806298	-1.112245	-1.189697	1
H	0.623648	3.322915	1.854463	1
H	0.704388	3.114295	-0.011537	1
Es	0.640688	-2.083420	-1.086630	99
Es	0.160790	2.011808	1.054544	99
Es	0.189649	0.936386	-0.336820	99
Es	0.735163	-1.335565	-1.135940	99
Es	0.506023	0.775925	-0.107153	99
Es	0.566246	2.655667	0.981442	99
Es	-1.686065	-0.552274	0.709638	99
Es	-1.522427	-1.648289	0.188842	99
Es	0.324366	0.776672	-0.111076	99
Es	0.440566	-0.866575	0.680485	99
Es	0.291825	1.184791	1.450577	99
Es	1.455365	-1.182965	-1.170936	99
Es	0.230150	0.247236	-0.028722	99
Es	0.335407	1.052958	0.445561	99
Es	0.422233	-0.978827	-0.552196	99
Es	-0.657410	-0.769729	0.093167	99
Es	0.107227	-0.628878	0.057928	99
Es	0.435690	-1.100047	-1.758320	99
Es	0.607129	3.108116	1.564637	99
Es	0.658412	2.960095	0.322585	99
Es	0.730868	1.916836	1.089314	99
Es	-1.389130	-0.904748	0.129614	99
Es	-1.719889	-0.652156	-0.470929	99
Es	0.346778	1.395403	1.147702	99
