39
Properties=species:S:1:pos:R:3:Z:I:1 energy=-286.0629367450184 field_type=dipole dipole="0.000000 0.000000 0.000000" charge=0
C	-0.616235	-2.274364	-0.579593	6
O	-1.007205	-1.027314	-0.021803	8
C	0.109395	-0.143764	0.203117	6
C	0.408025	0.837196	-0.895093	6
C	-0.250645	1.312646	0.365217	6
N	0.497015	2.170536	1.286977	7
H	-1.512525	-2.880604	-0.735483	1
H	0.051975	-2.803124	0.106807	1
H	-0.121455	-2.122334	-1.543623	1
H	0.941755	-0.518094	0.790617	1
H	-0.198675	0.801406	-1.792363	1
H	1.442575	1.102536	-1.073153	1
H	-1.307215	1.562576	0.287717	1
H	1.466625	1.871716	1.377277	1
H	0.096585	2.110986	2.223387	1
Es	0.407975	0.837160	-0.894939	99
Es	-1.006851	-1.027380	-0.021948	99
Es	-0.250455	1.312604	0.365228	99
Es	-0.555245	-0.720636	0.051369	99
Es	0.678301	-0.405705	0.601806	99
Es	-0.961260	1.477564	0.317164	99
Es	-0.138775	0.529768	0.460439	99
Es	0.487554	2.497864	1.175366	99
Es	-1.172946	-0.883539	-0.236097	99
Es	0.085454	1.243737	-0.339103	99
Es	0.186906	1.765335	0.900778	99
Es	-0.002223	0.806749	-1.495565	99
Es	-1.119964	-1.092950	0.256637	99
Es	-1.225843	-2.687319	-0.685563	99
Es	-0.149404	-2.638943	-0.110494	99
Es	-0.822930	-1.490547	-0.236696	99
Es	-0.616289	-2.274171	-0.579504	99
Es	0.347274	0.208919	-0.461116	99
Es	0.109210	-0.143785	0.202976	99
Es	-0.270035	-2.173549	-1.241502	99
Es	1.074939	1.961342	1.339987	99
Es	1.111700	1.018864	-1.005395	99
Es	0.255271	2.108297	1.849397	99
Es	0.497022	2.169992	1.287145	99
39
Properties=species:S:1:pos:R:3:Z:I:1 energy=-286.0629367450184 field_type=dipole dipole="0.000000 0.000000 0.000000" charge=0
C	-0.616235	-2.274364	-0.579593	6
O	-1.007205	-1.027314	-0.021803	8
C	0.109395	-0.143764	0.203117	6
C	0.408025	0.837196	-0.895093	6
C	-0.250645	1.312646	0.365217	6
N	0.497015	2.170536	1.286977	7
H	-1.512525	-2.880604	-0.735483	1
H	0.051975	-2.803124	0.106807	1
H	-0.121455	-2.122334	-1.543623	1
H	0.941755	-0.518094	0.790617	1
H	-0.198675	0.801406	-1.792363	1
H	1.442575	1.102536	-1.073153	1
H	-1.307215	1.562576	0.287717	1
H	1.466625	1.871716	1.377277	1
H	0.096585	2.110986	2.223387	1
Es	-0.149752	-2.638989	-0.110548	99
Es	0.407969	0.837159	-0.894930	99
Es	-0.269939	-2.173766	-1.241945	99
Es	-0.960985	1.477530	0.317215	99
Es	0.487895	2.499263	1.173076	99
Es	-1.225425	-2.687221	-0.685218	99
Es	0.085013	1.244807	-0.338846	99
Es	1.111232	1.018591	-1.005577	99
Es	0.347843	0.207941	-0.461611	99
Es	-0.616291	-2.274166	-0.579502	99
Es	-0.555820	-0.719999	0.050682	99
Es	0.678017	-0.405696	0.601410	99
Es	-1.170013	-0.884558	-0.235124	99
Es	-0.001595	0.806580	-1.495297	99
Es	-0.823000	-1.491685	-0.237271	99
Es	0.109207	-0.143779	0.202984	99
Es	-0.139075	0.530174	0.460969	99
Es	0.497027	2.169960	1.287154	99
Es	1.073656	1.960662	1.340155	99
Es	0.187842	1.764366	0.902322	99
Es	-0.250454	1.312608	0.365227	99
Es	-1.006871	-1.027406	-0.021890	99
Es	-1.122154	-1.091299	0.256957	99
Es	0.255060	2.108591	1.849977	99
39
Properties=species:S:1:pos:R:3:Z:I:1 energy=-286.0629367450184 field_type=dipole dipole="0.000000 0.000000 0.000000" charge=0
C	-0.616235	-2.274364	-0.579593	6
O	-1.007205	-1.027314	-0.021803	8
C	0.109395	-0.143764	0.203117	6
C	0.408025	0.837196	-0.895093	6
C	-0.250645	1.312646	0.365217	6
N	0.497015	2.170536	1.286977	7
H	-1.512525	-2.880604	-0.735483	1
H	0.051975	-2.803124	0.106807	1
H	-0.121455	-2.122334	-1.543623	1
H	0.941755	-0.518094	0.790617	1
H	-0.198675	0.801406	-1.792363	1
H	1.442575	1.102536	-1.073153	1
H	-1.307215	1.562576	0.287717	1
H	1.466625	1.871716	1.377277	1
H	0.096585	2.110986	2.223387	1
Es	-0.556486	-0.719310	0.049258	99
Es	-0.616289	-2.274170	-0.579504	99
Es	-0.001229	0.806573	-1.495127	99
Es	-0.960740	1.477565	0.317215	99
Es	-1.006839	-1.027406	-0.021894	99
Es	0.254956	2.108772	1.850153	99
Es	-1.225096	-2.687060	-0.685110	99
Es	0.488612	2.499937	1.172332	99
Es	1.072840	1.959881	1.340352	99
Es	0.497026	2.169961	1.287158	99
Es	-0.150055	-2.639108	-0.110496	99
Es	-1.123453	-1.090351	0.258146	99
Es	-1.168270	-0.885742	-0.234464	99
Es	0.109210	-0.143778	0.202978	99
Es	0.187949	1.764299	0.902703	99
Es	-0.269813	-2.173923	-1.242181	99
Es	0.407978	0.837164	-0.894945	99
Es	1.110793	1.018426	-1.005702	99
Es	0.084899	1.245375	-0.338824	99
Es	-0.139408	0.530430	0.461655	99
Es	-0.250451	1.312612	0.365217	99
Es	-0.822780	-1.492009	-0.237615	99
Es	0.348167	0.207289	-0.461886	99
Es	0.677865	-0.405758	0.600953	99
39
Properties=species:S:1:pos:R:3:Z:I:1 energy=-286.0629367450184 field_type=dipole dipole="0.000000 0.000000 0.000000" charge=0
C	-0.616235	-2.274364	-0.579593	6
O	-1.007205	-1.027314	-0.021803	8
C	0.109395	-0.143764	0.203117	6
C	0.408025	0.837196	-0.895093	6
C	-0.250645	1.312646	0.365217	6
N	0.497015	2.170536	1.286977	7
H	-1.512525	-2.880604	-0.735483	1
H	0.051975	-2.803124	0.106807	1
H	-0.121455	-2.122334	-1.543623	1
H	0.941755	-0.518094	0.790617	1
H	-0.198675	0.801406	-1.792363	1
H	1.442575	1.102536	-1.073153	1
H	-1.307215	1.562576	0.287717	1
H	1.466625	1.871716	1.377277	1
H	0.096585	2.110986	2.223387	1
Es	1.110582	1.018164	-1.005822	99
Es	-0.269863	-2.174000	-1.242411	99
Es	0.497035	2.169958	1.287156	99
Es	0.254721	2.108794	1.850194	99
Es	-0.139262	0.530516	0.461524	99
Es	0.188037	1.764368	0.902720	99
Es	0.109213	-0.143776	0.202974	99
Es	-1.224887	-2.686939	-0.684953	99
Es	0.407976	0.837166	-0.894939	99
Es	-1.166549	-0.885545	-0.233819	99
Es	-0.556849	-0.719825	0.049053	99
Es	1.072247	1.959408	1.340657	99
Es	0.677765	-0.405723	0.600813	99
Es	-0.150161	-2.639198	-0.110523	99
Es	0.348321	0.206767	-0.461837	99
Es	-0.000946	0.806425	-1.494976	99
Es	-0.250454	1.312603	0.365225	99
Es	-0.822906	-1.492082	-0.238779	99
Es	-0.616292	-2.274164	-0.579504	99
Es	-1.124642	-1.089966	0.258959	99
Es	-1.006830	-1.027406	-0.021899	99
Es	-0.960673	1.477445	0.317221	99
Es	0.489176	2.500373	1.172002	99
Es	0.084630	1.246307	-0.338669	99
39
Properties=species:S:1:pos:R:3:Z:I:1 energy=-286.0629367450184 field_type=dipole dipole="0.000000 0.000000 0.000000" charge=0
C	-0.616235	-2.274364	-0.579593	6
O	-1.007205	-1.027314	-0.021803	8
C	0.109395	-0.143764	0.203117	6
C	0.408025	0.837196	-0.895093	6
C	-0.250645	1.312646	0.365217	6
N	0.497015	2.170536	1.286977	7
H	-1.512525	-2.880604	-0.735483	1
H	0.051975	-2.803124	0.106807	1
H	-0.121455	-2.122334	-1.543623	1
H	0.941755	-0.518094	0.790617	1
H	-0.198675	0.801406	-1.792363	1
H	1.442575	1.102536	-1.073153	1
H	-1.307215	1.562576	0.287717	1
H	1.466625	1.871716	1.377277	1
H	0.096585	2.110986	2.223387	1
Es	-1.125029	-1.089472	0.259118	99
Es	0.677684	-0.405763	0.600640	99
Es	0.489579	2.500721	1.171158	99
Es	-0.000728	0.806414	-1.494933	99
Es	-0.250455	1.312606	0.365227	99
Es	-0.139511	0.530786	0.461864	99
Es	-0.822565	-1.492355	-0.238656	99
Es	-1.224694	-2.686835	-0.684892	99
Es	0.348675	0.206290	-0.462153	99
Es	0.407977	0.837163	-0.894941	99
Es	1.071600	1.959061	1.340699	99
Es	-0.150250	-2.639279	-0.110484	99
Es	0.109211	-0.143769	0.202978	99
Es	-0.269869	-2.174067	-1.242540	99
Es	-1.006836	-1.027413	-0.021930	99
Es	-0.960529	1.477505	0.317235	99
Es	-0.616292	-2.274169	-0.579503	99
Es	0.254693	2.109103	1.850499	99
Es	0.084509	1.246507	-0.338471	99
Es	1.110296	1.018143	-1.005821	99
Es	-0.557246	-0.719010	0.048334	99
Es	0.188218	1.764007	0.903163	99
Es	-1.166081	-0.886498	-0.233352	99
Es	0.497030	2.169994	1.287129	99
39
Properties=species:S:1:pos:R:3:Z:I:1 energy=-286.0629367450184 field_type=dipole dipole="0.000000 0.000000 0.000000" charge=0
C	-0.616235	-2.274364	-0.579593	6
O	-1.007205	-1.027314	-0.021803	8
C	0.109395	-0.143764	0.203117	6
C	0.408025	0.837196	-0.895093	6
C	-0.250645	1.312646	0.365217	6
N	0.497015	2.170536	1.286977	7
H	-1.512525	-2.880604	-0.735483	1
H	0.051975	-2.803124	0.106807	1
H	-0.121455	-2.122334	-1.543623	1
H	0.941755	-0.518094	0.790617	1
H	-0.198675	0.801406	-1.792363	1
H	1.442575	1.102536	-1.073153	1
H	-1.307215	1.562576	0.287717	1
H	1.466625	1.871716	1.377277	1
H	0.096585	2.110986	2.223387	1
Es	-0.557596	-0.719642	0.048525	99
Es	0.497030	2.169943	1.287164	99
Es	1.110158	1.018019	-1.005974	99
Es	0.489323	2.500783	1.171049	99
Es	-1.224601	-2.686770	-0.684760	99
Es	-0.250457	1.312601	0.365229	99
Es	0.188313	1.763798	0.903309	99
Es	-0.616291	-2.274166	-0.579502	99
Es	0.109214	-0.143783	0.202971	99
Es	-1.006909	-1.027399	-0.021870	99
Es	-0.150478	-2.639289	-0.110513	99
Es	0.407977	0.837164	-0.894938	99
Es	-1.125877	-1.088987	0.259464	99
Es	-0.139462	0.530833	0.461795	99
Es	0.677519	-0.405693	0.600562	99
Es	0.084318	1.247173	-0.338486	99
Es	-0.822211	-1.492485	-0.238501	99
Es	0.348859	0.205968	-0.462049	99
Es	1.071644	1.959347	1.340688	99
Es	0.254728	2.109014	1.850496	99
Es	-0.960485	1.477464	0.317221	99
Es	-0.000533	0.806177	-1.494761	99
Es	-0.269762	-2.174200	-1.242685	99
Es	-1.165034	-0.886203	-0.234067	99
39
Properties=species:S:1:pos:R:3:Z:I:1 energy=-286.0629367450184 field_type=dipole dipole="0.000000 0.000000 0.000000" charge=0
C	-0.616235	-2.274364	-0.579593	6
O	-1.007205	-1.027314	-0.021803	8
C	0.109395	-0.143764	0.203117	6
C	0.408025	0.837196	-0.895093	6
C	-0.250645	1.312646	0.365217	6
N	0.497015	2.170536	1.286977	7
H	-1.512525	-2.880604	-0.735483	1
H	0.051975	-2.803124	0.106807	1
H	-0.121455	-2.122334	-1.543623	1
H	0.941755	-0.518094	0.790617	1
H	-0.198675	0.801406	-1.792363	1
H	1.442575	1.102536	-1.073153	1
H	-1.307215	1.562576	0.287717	1
H	1.466625	1.871716	1.377277	1
H	0.096585	2.110986	2.223387	1
Es	1.071266	1.959321	1.340715	99
Es	0.407978	0.837157	-0.894943	99
Es	-0.250455	1.312607	0.365224	99
Es	0.348859	0.205881	-0.462361	99
Es	-1.162638	-0.886903	-0.234532	99
Es	-0.822252	-1.493206	-0.237794	99
Es	0.109212	-0.143779	0.202975	99
Es	-1.128295	-1.087408	0.259137	99
Es	-1.224461	-2.686643	-0.684759	99
Es	0.254810	2.108491	1.850512	99
Es	-0.000417	0.806284	-1.494734	99
Es	-0.557617	-0.719712	0.048692	99
Es	-0.960321	1.477459	0.317188	99
Es	0.497031	2.169957	1.287155	99
Es	0.489238	2.501500	1.170793	99
Es	-0.150435	-2.639419	-0.110466	99
Es	1.109996	1.017892	-1.005969	99
Es	0.084250	1.247136	-0.338296	99
Es	0.677626	-0.405780	0.600409	99
Es	-1.006826	-1.027405	-0.021941	99
Es	-0.616289	-2.274165	-0.579503	99
Es	-0.139688	0.530931	0.462085	99
Es	0.188702	1.763717	0.903523	99
Es	-0.269888	-2.174243	-1.242743	99
39
Properties=species:S:1:pos:R:3:Z:I:1 energy=-286.0629367450184 field_type=dipole dipole="0.000000 0.000000 0.000000" charge=0
C	-0.616235	-2.274364	-0.579593	6
O	-1.007205	-1.027314	-0.021803	8
C	0.109395	-0.143764	0.203117	6
C	0.408025	0.837196	-0.895093	6
C	-0.250645	1.312646	0.365217	6
N	0.497015	2.170536	1.286977	7
H	-1.512525	-2.880604	-0.735483	1
H	0.051975	-2.803124	0.106807	1
H	-0.121455	-2.122334	-1.543623	1
H	0.941755	-0.518094	0.790617	1
H	-0.198675	0.801406	-1.792363	1
H	1.442575	1.102536	-1.073153	1
H	-1.307215	1.562576	0.287717	1
H	1.466625	1.871716	1.377277	1
H	0.096585	2.110986	2.223387	1
Es	-0.269895	-2.174270	-1.242898	99
Es	0.254547	2.109529	1.850745	99
Es	-1.164923	-0.886920	-0.233215	99
Es	-1.006915	-1.027371	-0.021856	99
Es	-0.558100	-0.719196	0.046877	99
Es	1.070568	1.958496	1.341023	99
Es	0.490244	2.501451	1.169852	99
Es	-1.125391	-1.087926	0.260089	99
Es	-0.960455	1.477482	0.317261	99
Es	-1.224375	-2.686541	-0.684661	99
Es	-0.000270	0.806220	-1.494716	99
Es	0.497032	2.169924	1.287168	99
Es	0.348949	0.205801	-0.462378	99
Es	-0.822280	-1.493260	-0.238327	99
Es	-0.616290	-2.274167	-0.579503	99
Es	-0.150525	-2.639475	-0.110459	99
Es	-0.139599	0.531054	0.462235	99
Es	0.407977	0.837163	-0.894937	99
Es	0.677558	-0.405798	0.600212	99
Es	0.109215	-0.143781	0.202969	99
Es	0.188648	1.763488	0.903885	99
Es	1.109880	1.017820	-1.005955	99
Es	0.084247	1.247342	-0.338272	99
Es	-0.250455	1.312607	0.365227	99
39
Properties=species:S:1:pos:R:3:Z:I:1 energy=-286.0629367450184 field_type=dipole dipole="0.000000 0.000000 0.000000" charge=0
C	-0.616235	-2.274364	-0.579593	6
O	-1.007205	-1.027314	-0.021803	8
C	0.109395	-0.143764	0.203117	6
C	0.408025	0.837196	-0.895093	6
C	-0.250645	1.312646	0.365217	6
N	0.497015	2.170536	1.286977	7
H	-1.512525	-2.880604	-0.735483	1
H	0.051975	-2.803124	0.106807	1
H	-0.121455	-2.122334	-1.543623	1
H	0.941755	-0.518094	0.790617	1
H	-0.198675	0.801406	-1.792363	1
H	1.442575	1.102536	-1.073153	1
H	-1.307215	1.562576	0.287717	1
H	1.466625	1.871716	1.377277	1
H	0.096585	2.110986	2.223387	1
Es	-0.557883	-0.719652	0.047860	99
Es	-0.150547	-2.639497	-0.110448	99
Es	-0.139693	0.531103	0.462219	99
Es	-0.250454	1.312604	0.365225	99
Es	1.109667	1.017865	-1.005892	99
Es	0.497026	2.169961	1.287152	99
Es	0.084142	1.247468	-0.338120	99
Es	-1.162474	-0.886925	-0.233651	99
Es	0.490262	2.501569	1.169390	99
Es	0.109212	-0.143772	0.202978	99
Es	0.254528	2.109766	1.850740	99
Es	-0.616290	-2.274167	-0.579503	99
Es	0.407971	0.837165	-0.894930	99
Es	-0.822487	-1.493213	-0.238678	99
Es	-0.269881	-2.174299	-1.242875	99
Es	0.677551	-0.405816	0.600222	99
Es	-1.224286	-2.686537	-0.684696	99
Es	1.070498	1.958264	1.341078	99
Es	0.349118	0.205432	-0.462531	99
Es	-1.127914	-1.087387	0.259920	99
Es	-1.006851	-1.027414	-0.021873	99
Es	-0.960368	1.477485	0.317186	99
Es	0.188672	1.763375	0.904325	99
Es	-0.000133	0.806293	-1.494732	99
39
Properties=species:S:1:pos:R:3:Z:I:1 energy=-286.0629367450184 field_type=dipole dipole="0.000000 0.000000 0.000000" charge=0
C	-0.616235	-2.274364	-0.579593	6
O	-1.007205	-1.027314	-0.021803	8
C	0.109395	-0.143764	0.203117	6
C	0.408025	0.837196	-0.895093	6
C	-0.250645	1.312646	0.365217	6
N	0.497015	2.170536	1.286977	7
H	-1.512525	-2.880604	-0.735483	1
H	0.051975	-2.803124	0.106807	1
H	-0.121455	-2.122334	-1.543623	1
H	0.941755	-0.518094	0.790617	1
H	-0.198675	0.801406	-1.792363	1
H	1.442575	1.102536	-1.073153	1
H	-1.307215	1.562576	0.287717	1
H	1.466625	1.871716	1.377277	1
H	0.096585	2.110986	2.223387	1
Es	-0.960293	1.477468	0.317189	99
Es	0.254491	2.109235	1.850712	99
Es	0.109216	-0.143779	0.202969	99
Es	0.407975	0.837165	-0.894940	99
Es	-0.150688	-2.639532	-0.110451	99
Es	0.188738	1.763545	0.904001	99
Es	-0.269811	-2.174350	-1.242936	99
Es	-1.224199	-2.686483	-0.684673	99
Es	-0.616291	-2.274166	-0.579502	99
Es	-0.250455	1.312606	0.365228	99
Es	0.677452	-0.405777	0.600047	99
Es	-1.006814	-1.027396	-0.021906	99
Es	-1.125463	-1.087775	0.260447	99
Es	0.349096	0.205461	-0.462568	99
Es	-0.139700	0.531095	0.462474	99
Es	-0.000078	0.806241	-1.494581	99
Es	0.490190	2.501742	1.169737	99
Es	0.497015	2.169981	1.287162	99
Es	0.084149	1.247737	-0.338124	99
Es	1.070478	1.958443	1.341057	99
Es	-0.558212	-0.719695	0.046795	99
Es	-0.822585	-1.493281	-0.239066	99
Es	-1.164540	-0.886473	-0.232682	99
Es	1.109717	1.017658	-1.006021	99
39
Properties=species:S:1:pos:R:3:Z:I:1 energy=-286.0629367450184 field_type=dipole dipole="0.000000 0.000000 0.000000" charge=0
C	-0.616235	-2.274364	-0.579593	6
O	-1.007205	-1.027314	-0.021803	8
C	0.109395	-0.143764	0.203117	6
C	0.408025	0.837196	-0.895093	6
C	-0.250645	1.312646	0.365217	6
N	0.497015	2.170536	1.286977	7
H	-1.512525	-2.880604	-0.735483	1
H	0.051975	-2.803124	0.106807	1
H	-0.121455	-2.122334	-1.543623	1
H	0.941755	-0.518094	0.790617	1
H	-0.198675	0.801406	-1.792363	1
H	1.442575	1.102536	-1.073153	1
H	-1.307215	1.562576	0.287717	1
H	1.466625	1.871716	1.377277	1
H	0.096585	2.110986	2.223387	1
Es	0.188763	1.763426	0.904481	99
Es	1.109549	1.017743	-1.006045	99
Es	0.084097	1.247784	-0.338036	99
Es	-0.000058	0.806255	-1.494560	99
Es	-1.006877	-1.027413	-0.021865	99
Es	-0.139799	0.531211	0.462462	99
Es	-1.164021	-0.886561	-0.232538	99
Es	0.349230	0.205128	-0.462632	99
Es	-0.822499	-1.493173	-0.239465	99
Es	0.254618	2.109510	1.850917	99
Es	1.070301	1.958266	1.340893	99
Es	-1.224163	-2.686462	-0.684585	99
Es	-0.616289	-2.274171	-0.579504	99
Es	0.490205	2.501810	1.169261	99
Es	0.109210	-0.143780	0.202977	99
Es	-0.558115	-0.719475	0.047313	99
Es	0.497037	2.169969	1.287143	99
Es	-1.126005	-1.087944	0.260186	99
Es	0.407975	0.837161	-0.894934	99
Es	-0.250455	1.312606	0.365229	99
Es	-0.269798	-2.174383	-1.243028	99
Es	-0.960258	1.477472	0.317149	99
Es	0.677463	-0.405801	0.599977	99
Es	-0.150722	-2.639508	-0.110429	99
39
Properties=species:S:1:pos:R:3:Z:I:1 energy=-286.0629367450184 field_type=dipole dipole="0.000000 0.000000 0.000000" charge=0
C	-0.616235	-2.274364	-0.579593	6
O	-1.007205	-1.027314	-0.021803	8
C	0.109395	-0.143764	0.203117	6
C	0.408025	0.837196	-0.895093	6
C	-0.250645	1.312646	0.365217	6
N	0.497015	2.170536	1.286977	7
H	-1.512525	-2.880604	-0.735483	1
H	0.051975	-2.803124	0.106807	1
H	-0.121455	-2.122334	-1.543623	1
H	0.941755	-0.518094	0.790617	1
H	-0.198675	0.801406	-1.792363	1
H	1.442575	1.102536	-1.073153	1
H	-1.307215	1.562576	0.287717	1
H	1.466625	1.871716	1.377277	1
H	0.096585	2.110986	2.223387	1
Es	-1.162808	-0.887414	-0.233415	99
Es	-0.558488	-0.719284	0.046933	99
Es	-1.127406	-1.086771	0.260067	99
Es	-0.616290	-2.274167	-0.579502	99
Es	-0.139719	0.531132	0.462356	99
Es	0.000040	0.806112	-1.494581	99
Es	1.109488	1.017587	-1.006044	99
Es	0.497018	2.169993	1.287124	99
Es	-0.269797	-2.174398	-1.243036	99
Es	1.069961	1.958115	1.341165	99
Es	0.407976	0.837161	-0.894938	99
Es	-0.150753	-2.639546	-0.110434	99
Es	0.084027	1.248108	-0.338077	99
Es	-0.960293	1.477452	0.317226	99
Es	0.677496	-0.405824	0.600062	99
Es	-1.006797	-1.027435	-0.021744	99
Es	0.349199	0.205265	-0.462482	99
Es	-0.250454	1.312606	0.365229	99
Es	0.490714	2.501744	1.169219	99
Es	0.254405	2.109732	1.850948	99
Es	0.188810	1.763374	0.904189	99
Es	-0.822066	-1.493661	-0.238269	99
Es	-1.224090	-2.686436	-0.684603	99
Es	0.109212	-0.143775	0.202976	99
39
Properties=species:S:1:pos:R:3:Z:I:1 energy=-286.0629367450184 field_type=dipole dipole="0.000000 0.000000 0.000000" charge=0
C	-0.616235	-2.274364	-0.579593	6
O	-1.007205	-1.027314	-0.021803	8
C	0.109395	-0.143764	0.203117	6
C	0.408025	0.837196	-0.895093	6
C	-0.250645	1.312646	0.365217	6
N	0.497015	2.170536	1.286977	7
H	-1.512525	-2.880604	-0.735483	1
H	0.051975	-2.803124	0.106807	1
H	-0.121455	-2.122334	-1.543623	1
H	0.941755	-0.518094	0.790617	1
H	-0.198675	0.801406	-1.792363	1
H	1.442575	1.102536	-1.073153	1
H	-1.307215	1.562576	0.287717	1
H	1.466625	1.871716	1.377277	1
H	0.096585	2.110986	2.223387	1
Es	-1.224039	-2.686379	-0.684576	99
Es	1.109495	1.017513	-1.006221	99
Es	0.109213	-0.143774	0.202975	99
Es	0.497036	2.169958	1.287156	99
Es	-0.822434	-1.493201	-0.239712	99
Es	0.254535	2.109351	1.850926	99
Es	1.069788	1.958188	1.341135	99
Es	0.000096	0.806120	-1.494345	99
Es	-0.269760	-2.174374	-1.243124	99
Es	-1.125880	-1.088066	0.260196	99
Es	-1.006843	-1.027393	-0.021955	99
Es	-0.139850	0.531269	0.462591	99
Es	0.407977	0.837158	-0.894939	99
Es	-0.558323	-0.719744	0.047397	99
Es	-0.960242	1.477515	0.317138	99
Es	0.189018	1.763208	0.904426	99
Es	-0.250455	1.312606	0.365228	99
Es	0.490497	2.502252	1.169016	99
Es	0.349319	0.205121	-0.462668	99
Es	-0.616290	-2.274168	-0.579503	99
Es	0.677374	-0.405753	0.599940	99
Es	-1.164107	-0.886296	-0.232402	99
Es	0.084057	1.248125	-0.337946	99
Es	-0.150792	-2.639566	-0.110365	99
39
Properties=species:S:1:pos:R:3:Z:I:1 energy=-286.0629367450184 field_type=dipole dipole="0.000000 0.000000 0.000000" charge=0
C	-0.616235	-2.274364	-0.579593	6
O	-1.007205	-1.027314	-0.021803	8
C	0.109395	-0.143764	0.203117	6
C	0.408025	0.837196	-0.895093	6
C	-0.250645	1.312646	0.365217	6
N	0.497015	2.170536	1.286977	7
H	-1.512525	-2.880604	-0.735483	1
H	0.051975	-2.803124	0.106807	1
H	-0.121455	-2.122334	-1.543623	1
H	0.941755	-0.518094	0.790617	1
H	-0.198675	0.801406	-1.792363	1
H	1.442575	1.102536	-1.073153	1
H	-1.307215	1.562576	0.287717	1
H	1.466625	1.871716	1.377277	1
H	0.096585	2.110986	2.223387	1
Es	0.084066	1.248031	-0.338035	99
Es	-0.960215	1.477461	0.317164	99
Es	0.254288	2.110225	1.850977	99
Es	-0.269715	-2.174423	-1.243047	99
Es	0.677425	-0.405822	0.599890	99
Es	-1.163055	-0.887410	-0.233212	99
Es	0.407975	0.837160	-0.894936	99
Es	-1.223979	-2.686301	-0.684691	99
Es	-0.558476	-0.719225	0.046664	99
Es	-0.150898	-2.639680	-0.110368	99
Es	0.491206	2.501780	1.168798	99
Es	-1.006859	-1.027405	-0.021899	99
Es	-0.616290	-2.274168	-0.579502	99
Es	-0.822143	-1.493612	-0.238323	99
Es	0.497033	2.169943	1.287160	99
Es	-1.127035	-1.086896	0.260381	99
Es	0.000167	0.806243	-1.494446	99
Es	0.349338	0.204892	-0.462705	99
Es	1.069634	1.957665	1.341359	99
Es	0.109212	-0.143776	0.202976	99
Es	-0.250455	1.312607	0.365230	99
Es	1.109349	1.017596	-1.006082	99
Es	-0.139886	0.531400	0.462654	99
Es	0.188701	1.763384	0.904359	99
39
Properties=species:S:1:pos:R:3:Z:I:1 energy=-286.0629367450184 field_type=dipole dipole="0.000000 0.000000 0.000000" charge=0
C	-0.616235	-2.274364	-0.579593	6
O	-1.007205	-1.027314	-0.021803	8
C	0.109395	-0.143764	0.203117	6
C	0.408025	0.837196	-0.895093	6
C	-0.250645	1.312646	0.365217	6
N	0.497015	2.170536	1.286977	7
H	-1.512525	-2.880604	-0.735483	1
H	0.051975	-2.803124	0.106807	1
H	-0.121455	-2.122334	-1.543623	1
H	0.941755	-0.518094	0.790617	1
H	-0.198675	0.801406	-1.792363	1
H	1.442575	1.102536	-1.073153	1
H	-1.307215	1.562576	0.287717	1
H	1.466625	1.871716	1.377277	1
H	0.096585	2.110986	2.223387	1
Es	-0.269861	-2.174481	-1.243188	99
Es	-0.616289	-2.274171	-0.579504	99
Es	-1.223909	-2.686301	-0.684505	99
Es	0.677374	-0.405816	0.599862	99
Es	0.490824	2.502498	1.168605	99
Es	-0.960228	1.477409	0.317271	99
Es	1.069587	1.957682	1.341470	99
Es	0.349293	0.204899	-0.462659	99
Es	-0.250454	1.312605	0.365225	99
Es	0.189012	1.763122	0.904720	99
Es	0.109212	-0.143776	0.202977	99
Es	-0.139736	0.531261	0.462499	99
Es	-1.129544	-1.087218	0.259493	99
Es	0.083927	1.248450	-0.338030	99
Es	-0.558496	-0.719697	0.048912	99
Es	-0.150814	-2.639634	-0.110397	99
Es	-1.160932	-0.886983	-0.233942	99
Es	0.497041	2.169950	1.287159	99
Es	1.109352	1.017456	-1.006054	99
Es	-1.006878	-1.027453	-0.021887	99
Es	0.254395	2.109697	1.850730	99
Es	-0.821690	-1.493169	-0.238973	99
Es	0.000228	0.806177	-1.494477	99
Es	0.407976	0.837162	-0.894938	99
39
Properties=species:S:1:pos:R:3:Z:I:1 energy=-286.0629367450184 field_type=dipole dipole="0.000000 0.000000 0.000000" charge=0
C	-0.616235	-2.274364	-0.579593	6
O	-1.007205	-1.027314	-0.021803	8
C	0.109395	-0.143764	0.203117	6
C	0.408025	0.837196	-0.895093	6
C	-0.250645	1.312646	0.365217	6
N	0.497015	2.170536	1.286977	7
H	-1.512525	-2.880604	-0.735483	1
H	0.051975	-2.803124	0.106807	1
H	-0.121455	-2.122334	-1.543623	1
H	0.941755	-0.518094	0.790617	1
H	-0.198675	0.801406	-1.792363	1
H	1.442575	1.102536	-1.073153	1
H	-1.307215	1.562576	0.287717	1
H	1.466625	1.871716	1.377277	1
H	0.096585	2.110986	2.223387	1
Es	-0.616291	-2.274167	-0.579503	99
Es	0.407977	0.837158	-0.894942	99
Es	-0.150826	-2.639689	-0.110379	99
Es	-0.822168	-1.493718	-0.238893	99
Es	-0.960196	1.477457	0.317217	99
Es	0.109214	-0.143769	0.202974	99
Es	-0.558715	-0.719103	0.046380	99
Es	-1.126780	-1.086820	0.260562	99
Es	-0.250454	1.312598	0.365220	99
Es	-1.223928	-2.686269	-0.684587	99
Es	0.083927	1.248389	-0.337870	99
Es	1.069631	1.957941	1.341399	99
Es	-1.163020	-0.887415	-0.232503	99
Es	0.189089	1.763160	0.904495	99
Es	0.349381	0.204893	-0.462750	99
Es	0.000184	0.806176	-1.494460	99
Es	1.109272	1.017496	-1.006098	99
Es	0.490922	2.501946	1.168626	99
Es	0.254190	2.109951	1.850992	99
Es	-0.269846	-2.174474	-1.243131	99
Es	-1.006835	-1.027413	-0.021945	99
Es	0.677419	-0.405882	0.599794	99
Es	0.497026	2.169964	1.287150	99
Es	-0.139784	0.531258	0.462621	99
39
Properties=species:S:1:pos:R:3:Z:I:1 energy=-286.0629367450184 field_type=dipole dipole="0.000000 0.000000 0.000000" charge=0
C	-0.616235	-2.274364	-0.579593	6
O	-1.007205	-1.027314	-0.021803	8
C	0.109395	-0.143764	0.203117	6
C	0.408025	0.837196	-0.895093	6
C	-0.250645	1.312646	0.365217	6
N	0.497015	2.170536	1.286977	7
H	-1.512525	-2.880604	-0.735483	1
H	0.051975	-2.803124	0.106807	1
H	-0.121455	-2.122334	-1.543623	1
H	0.941755	-0.518094	0.790617	1
H	-0.198675	0.801406	-1.792363	1
H	1.442575	1.102536	-1.073153	1
H	-1.307215	1.562576	0.287717	1
H	1.466625	1.871716	1.377277	1
H	0.096585	2.110986	2.223387	1
Es	-1.162421	-0.886939	-0.233247	99
Es	0.497028	2.169998	1.287142	99
Es	-1.006814	-1.027379	-0.021879	99
Es	0.407976	0.837159	-0.894938	99
Es	1.109221	1.017605	-1.006099	99
Es	0.000315	0.806004	-1.494412	99
Es	-0.558558	-0.719768	0.047377	99
Es	0.490688	2.502067	1.168533	99
Es	-0.269869	-2.174489	-1.243226	99
Es	-0.960162	1.477337	0.317244	99
Es	-1.127657	-1.086894	0.260189	99
Es	-0.616290	-2.274167	-0.579503	99
Es	-0.139721	0.531367	0.462589	99
Es	0.349580	0.204675	-0.462667	99
Es	-0.250455	1.312609	0.365228	99
Es	-0.822142	-1.493570	-0.238748	99
Es	0.254372	2.109897	1.850941	99
Es	1.069718	1.957978	1.341316	99
Es	-1.223772	-2.686244	-0.684524	99
Es	0.677277	-0.405743	0.599802	99
Es	0.083735	1.248533	-0.338039	99
Es	-0.150859	-2.639703	-0.110406	99
Es	0.188988	1.763111	0.904718	99
Es	0.109211	-0.143774	0.202977	99
39
Properties=species:S:1:pos:R:3:Z:I:1 energy=-286.0629367450184 field_type=dipole dipole="0.000000 0.000000 0.000000" charge=0
C	-0.616235	-2.274364	-0.579593	6
O	-1.007205	-1.027314	-0.021803	8
C	0.109395	-0.143764	0.203117	6
C	0.408025	0.837196	-0.895093	6
C	-0.250645	1.312646	0.365217	6
N	0.497015	2.170536	1.286977	7
H	-1.512525	-2.880604	-0.735483	1
H	0.051975	-2.803124	0.106807	1
H	-0.121455	-2.122334	-1.543623	1
H	0.941755	-0.518094	0.790617	1
H	-0.198675	0.801406	-1.792363	1
H	1.442575	1.102536	-1.073153	1
H	-1.307215	1.562576	0.287717	1
H	1.466625	1.871716	1.377277	1
H	0.096585	2.110986	2.223387	1
Es	0.109211	-0.143777	0.202977	99
Es	0.188962	1.763391	0.904690	99
Es	-0.616290	-2.274168	-0.579503	99
Es	1.069650	1.957907	1.341072	99
Es	-1.006846	-1.027439	-0.021898	99
Es	-0.822012	-1.493699	-0.238915	99
Es	0.349560	0.204620	-0.462791	99
Es	-0.150946	-2.639660	-0.110410	99
Es	-1.163309	-0.887106	-0.232631	99
Es	0.490754	2.502125	1.168681	99
Es	-1.223839	-2.686275	-0.684528	99
Es	-0.960150	1.477391	0.317169	99
Es	-1.126484	-1.086966	0.260398	99
Es	-0.139870	0.531506	0.462661	99
Es	1.109183	1.017555	-1.006117	99
Es	0.407976	0.837154	-0.894938	99
Es	-0.250457	1.312601	0.365233	99
Es	0.000327	0.806116	-1.494374	99
Es	0.083877	1.248412	-0.337931	99
Es	0.677320	-0.405774	0.599768	99
Es	-0.269768	-2.174530	-1.243191	99
Es	0.254386	2.109628	1.851119	99
Es	-0.558870	-0.719305	0.046676	99
Es	0.497024	2.169961	1.287151	99
