39
Properties=species:S:1:pos:R:3:Z:I:1 energy=-286.0578555592229 field_type=dipole dipole="0.000000 0.000000 0.000000" charge=0
C	-0.640772	-1.865687	-1.158042	6
O	-0.411952	-1.321837	0.133218	8
C	0.373028	-0.108257	0.169728	6
C	-0.317392	1.205373	-0.259932	6
N	0.353438	1.900723	0.863548	7
C	0.492628	0.589453	1.542628	6
H	-1.226682	-2.782247	-1.051332	1
H	0.311448	-2.107327	-1.639032	1
H	-1.201482	-1.156417	-1.773422	1
H	1.352738	-0.256957	-0.305142	1
H	-1.410602	1.195303	-0.177562	1
H	-0.044592	1.577533	-1.251792	1
H	1.249728	2.314503	0.605098	1
H	1.444618	0.446663	2.062198	1
H	-0.324152	0.369183	2.239838	1
Es	-0.113030	-0.871315	0.099235	99
Es	-0.476501	-1.496444	-0.376443	99
Es	-0.640731	-1.865594	-1.157846	99
Es	0.372885	-0.108434	0.169734	99
Es	0.066191	1.645562	0.341083	99
Es	-1.038741	-2.487972	-1.086342	99
Es	-0.317303	1.205428	-0.259831	99
Es	-0.687887	-1.238237	0.239147	99
Es	0.904582	2.111524	0.688778	99
Es	0.159848	2.144029	1.033539	99
Es	-0.068064	0.442164	2.005376	99
Es	0.450514	1.353250	1.195723	99
Es	0.492632	0.589566	1.542525	99
Es	-1.058798	1.191296	-0.194776	99
Es	-0.005366	0.505844	-0.135383	99
Es	-0.241404	-1.529813	0.279494	99
Es	1.047353	-0.204117	-0.162441	99
Es	-0.411878	-1.321753	0.133026	99
Es	-1.022547	-1.375971	-1.588100	99
Es	0.015712	-2.027675	-1.496186	99
Es	-0.129484	1.465279	-0.943721	99
Es	0.353779	1.900284	0.863245	99
Es	0.452836	0.147607	0.894473	99
Es	1.148839	0.494028	1.899791	99
39
Properties=species:S:1:pos:R:3:Z:I:1 energy=-286.0578555592229 field_type=dipole dipole="0.000000 0.000000 0.000000" charge=0
C	-0.640772	-1.865687	-1.158042	6
O	-0.411952	-1.321837	0.133218	8
C	0.373028	-0.108257	0.169728	6
C	-0.317392	1.205373	-0.259932	6
N	0.353438	1.900723	0.863548	7
C	0.492628	0.589453	1.542628	6
H	-1.226682	-2.782247	-1.051332	1
H	0.311448	-2.107327	-1.639032	1
H	-1.201482	-1.156417	-1.773422	1
H	1.352738	-0.256957	-0.305142	1
H	-1.410602	1.195303	-0.177562	1
H	-0.044592	1.577533	-1.251792	1
H	1.249728	2.314503	0.605098	1
H	1.444618	0.446663	2.062198	1
H	-0.324152	0.369183	2.239838	1
Es	0.064731	1.645965	0.340963	99
Es	-0.068210	0.442219	2.005340	99
Es	0.015424	-2.027128	-1.496248	99
Es	-0.108697	-0.872498	0.100630	99
Es	-1.058927	1.190914	-0.194704	99
Es	-0.246957	-1.530080	0.280483	99
Es	-0.129452	1.465006	-0.943910	99
Es	-0.317302	1.205427	-0.259829	99
Es	-0.686974	-1.236109	0.236834	99
Es	0.492630	0.589566	1.542524	99
Es	0.452974	0.147797	0.894621	99
Es	0.905507	2.114354	0.689714	99
Es	-1.022024	-1.376050	-1.587813	99
Es	0.161585	2.140201	1.031707	99
Es	-0.640732	-1.865592	-1.157846	99
Es	-0.411820	-1.321593	0.132878	99
Es	1.148989	0.494029	1.899846	99
Es	-0.476239	-1.497264	-0.376524	99
Es	0.353778	1.900282	0.863245	99
Es	0.449614	1.353789	1.196899	99
Es	0.372886	-0.108428	0.169731	99
Es	-1.039171	-2.488573	-1.086512	99
Es	1.047092	-0.204009	-0.162483	99
Es	-0.005269	0.506314	-0.135447	99
39
Properties=species:S:1:pos:R:3:Z:I:1 energy=-286.0578555592229 field_type=dipole dipole="0.000000 0.000000 0.000000" charge=0
C	-0.640772	-1.865687	-1.158042	6
O	-0.411952	-1.321837	0.133218	8
C	0.373028	-0.108257	0.169728	6
C	-0.317392	1.205373	-0.259932	6
N	0.353438	1.900723	0.863548	7
C	0.492628	0.589453	1.542628	6
H	-1.226682	-2.782247	-1.051332	1
H	0.311448	-2.107327	-1.639032	1
H	-1.201482	-1.156417	-1.773422	1
H	1.352738	-0.256957	-0.305142	1
H	-1.410602	1.195303	-0.177562	1
H	-0.044592	1.577533	-1.251792	1
H	1.249728	2.314503	0.605098	1
H	1.444618	0.446663	2.062198	1
H	-0.324152	0.369183	2.239838	1
Es	-1.059130	1.190663	-0.194723	99
Es	-0.685347	-1.237043	0.237853	99
Es	-0.317303	1.205427	-0.259830	99
Es	0.448992	1.354061	1.197663	99
Es	-0.247096	-1.529911	0.279351	99
Es	0.492632	0.589567	1.542523	99
Es	-0.411817	-1.321668	0.132891	99
Es	0.015266	-2.026773	-1.496245	99
Es	0.063751	1.646336	0.340865	99
Es	0.372885	-0.108428	0.169730	99
Es	0.353745	1.900289	0.863263	99
Es	-0.005301	0.506718	-0.135275	99
Es	1.047057	-0.203944	-0.162586	99
Es	-1.021574	-1.376114	-1.587612	99
Es	-0.129234	1.464700	-0.944055	99
Es	-0.640732	-1.865593	-1.157843	99
Es	-0.068276	0.442232	2.005313	99
Es	-0.478073	-1.496929	-0.376863	99
Es	1.149110	0.494045	1.899869	99
Es	0.162892	2.137236	1.030290	99
Es	-1.039541	-2.488967	-1.086658	99
Es	0.905990	2.116616	0.690521	99
Es	-0.108426	-0.871939	0.100995	99
Es	0.452967	0.147954	0.894662	99
39
Properties=species:S:1:pos:R:3:Z:I:1 energy=-286.0578555592229 field_type=dipole dipole="0.000000 0.000000 0.000000" charge=0
C	-0.640772	-1.865687	-1.158042	6
O	-0.411952	-1.321837	0.133218	8
C	0.373028	-0.108257	0.169728	6
C	-0.317392	1.205373	-0.259932	6
N	0.353438	1.900723	0.863548	7
C	0.492628	0.589453	1.542628	6
H	-1.226682	-2.782247	-1.051332	1
H	0.311448	-2.107327	-1.639032	1
H	-1.201482	-1.156417	-1.773422	1
H	1.352738	-0.256957	-0.305142	1
H	-1.410602	1.195303	-0.177562	1
H	-0.044592	1.577533	-1.251792	1
H	1.249728	2.314503	0.605098	1
H	1.444618	0.446663	2.062198	1
H	-0.324152	0.369183	2.239838	1
Es	1.046895	-0.203929	-0.162591	99
Es	0.353734	1.900306	0.863274	99
Es	0.015185	-2.026612	-1.496261	99
Es	-0.684891	-1.237953	0.239052	99
Es	-0.317303	1.205428	-0.259829	99
Es	0.492631	0.589566	1.542524	99
Es	-1.021296	-1.376153	-1.587478	99
Es	-0.129192	1.464572	-0.944108	99
Es	0.063046	1.646504	0.340861	99
Es	0.163891	2.135129	1.029071	99
Es	-0.411836	-1.321732	0.132989	99
Es	0.906373	2.118169	0.691065	99
Es	-0.478946	-1.496518	-0.377040	99
Es	-0.106807	-0.871949	0.102185	99
Es	0.453036	0.148087	0.894760	99
Es	-0.640731	-1.865593	-1.157845	99
Es	0.448493	1.354381	1.198368	99
Es	1.149202	0.493991	1.899906	99
Es	-0.248296	-1.529341	0.277043	99
Es	-1.039783	-2.489124	-1.086774	99
Es	-1.059229	1.190484	-0.194701	99
Es	-0.068368	0.442279	2.005264	99
Es	0.372885	-0.108430	0.169733	99
Es	-0.005253	0.506973	-0.135368	99
39
Properties=species:S:1:pos:R:3:Z:I:1 energy=-286.0578555592229 field_type=dipole dipole="0.000000 0.000000 0.000000" charge=0
C	-0.640772	-1.865687	-1.158042	6
O	-0.411952	-1.321837	0.133218	8
C	0.373028	-0.108257	0.169728	6
C	-0.317392	1.205373	-0.259932	6
N	0.353438	1.900723	0.863548	7
C	0.492628	0.589453	1.542628	6
H	-1.226682	-2.782247	-1.051332	1
H	0.311448	-2.107327	-1.639032	1
H	-1.201482	-1.156417	-1.773422	1
H	1.352738	-0.256957	-0.305142	1
H	-1.410602	1.195303	-0.177562	1
H	-0.044592	1.577533	-1.251792	1
H	1.249728	2.314503	0.605098	1
H	1.444618	0.446663	2.062198	1
H	-0.324152	0.369183	2.239838	1
Es	-1.039966	-2.489355	-1.086837	99
Es	1.046753	-0.203861	-0.162629	99
Es	0.906626	2.119133	0.691388	99
Es	0.492628	0.589567	1.542522	99
Es	0.015126	-2.026359	-1.496300	99
Es	-0.684315	-1.238521	0.239978	99
Es	0.372885	-0.108429	0.169732	99
Es	0.062257	1.646814	0.340947	99
Es	-0.068382	0.442264	2.005282	99
Es	0.453156	0.148144	0.894831	99
Es	-0.106860	-0.871732	0.101976	99
Es	0.448140	1.354568	1.198618	99
Es	-0.247992	-1.529034	0.276335	99
Es	-0.479883	-1.496528	-0.377063	99
Es	0.164714	2.133702	1.028518	99
Es	-0.640732	-1.865591	-1.157847	99
Es	1.149238	0.494038	1.899894	99
Es	-0.411787	-1.321698	0.132913	99
Es	-0.129178	1.464516	-0.944198	99
Es	-0.317302	1.205427	-0.259827	99
Es	-1.059242	1.190273	-0.194677	99
Es	-0.005157	0.507156	-0.135366	99
Es	0.353796	1.900263	0.863229	99
Es	-1.021085	-1.376224	-1.587317	99
39
Properties=species:S:1:pos:R:3:Z:I:1 energy=-286.0578555592229 field_type=dipole dipole="0.000000 0.000000 0.000000" charge=0
C	-0.640772	-1.865687	-1.158042	6
O	-0.411952	-1.321837	0.133218	8
C	0.373028	-0.108257	0.169728	6
C	-0.317392	1.205373	-0.259932	6
N	0.353438	1.900723	0.863548	7
C	0.492628	0.589453	1.542628	6
H	-1.226682	-2.782247	-1.051332	1
H	0.311448	-2.107327	-1.639032	1
H	-1.201482	-1.156417	-1.773422	1
H	1.352738	-0.256957	-0.305142	1
H	-1.410602	1.195303	-0.177562	1
H	-0.044592	1.577533	-1.251792	1
H	1.249728	2.314503	0.605098	1
H	1.444618	0.446663	2.062198	1
H	-0.324152	0.369183	2.239838	1
Es	0.492632	0.589565	1.542524	99
Es	0.453083	0.148237	0.894857	99
Es	-1.059374	1.190136	-0.194696	99
Es	-0.068435	0.442320	2.005251	99
Es	0.165680	2.132274	1.027812	99
Es	-1.020918	-1.376261	-1.587237	99
Es	-0.481508	-1.495845	-0.377093	99
Es	0.906785	2.120025	0.691835	99
Es	0.447812	1.354591	1.198988	99
Es	0.353744	1.900310	0.863269	99
Es	-0.683611	-1.239373	0.241768	99
Es	-0.247677	-1.528835	0.274329	99
Es	-0.317303	1.205427	-0.259830	99
Es	-0.411807	-1.321717	0.132929	99
Es	-0.640731	-1.865595	-1.157848	99
Es	-0.106231	-0.871704	0.102178	99
Es	0.061618	1.647208	0.340854	99
Es	0.372883	-0.108432	0.169732	99
Es	1.149313	0.494028	1.899926	99
Es	1.046733	-0.203862	-0.162606	99
Es	-0.129094	1.464393	-0.944192	99
Es	-0.005116	0.507360	-0.135442	99
Es	0.015065	-2.026252	-1.496302	99
Es	-1.040105	-2.489464	-1.086906	99
39
Properties=species:S:1:pos:R:3:Z:I:1 energy=-286.0578555592229 field_type=dipole dipole="0.000000 0.000000 0.000000" charge=0
C	-0.640772	-1.865687	-1.158042	6
O	-0.411952	-1.321837	0.133218	8
C	0.373028	-0.108257	0.169728	6
C	-0.317392	1.205373	-0.259932	6
N	0.353438	1.900723	0.863548	7
C	0.492628	0.589453	1.542628	6
H	-1.226682	-2.782247	-1.051332	1
H	0.311448	-2.107327	-1.639032	1
H	-1.201482	-1.156417	-1.773422	1
H	1.352738	-0.256957	-0.305142	1
H	-1.410602	1.195303	-0.177562	1
H	-0.044592	1.577533	-1.251792	1
H	1.249728	2.314503	0.605098	1
H	1.444618	0.446663	2.062198	1
H	-0.324152	0.369183	2.239838	1
Es	0.015045	-2.026166	-1.496348	99
Es	0.165838	2.131523	1.026950	99
Es	-1.040170	-2.489533	-1.086924	99
Es	-0.105656	-0.871738	0.102461	99
Es	0.061731	1.647021	0.340886	99
Es	-0.248430	-1.528717	0.274231	99
Es	0.353799	1.900269	0.863234	99
Es	1.046694	-0.203776	-0.162778	99
Es	-0.682693	-1.239461	0.241759	99
Es	0.492631	0.589566	1.542524	99
Es	-0.005155	0.507396	-0.135280	99
Es	-0.482167	-1.495980	-0.377218	99
Es	-0.317304	1.205426	-0.259831	99
Es	-0.068411	0.442268	2.005268	99
Es	0.453160	0.148278	0.894841	99
Es	1.149351	0.494065	1.899899	99
Es	-0.411916	-1.321595	0.132872	99
Es	0.447364	1.354887	1.199611	99
Es	-0.640729	-1.865592	-1.157840	99
Es	-1.020859	-1.376297	-1.587161	99
Es	0.372886	-0.108428	0.169732	99
Es	-1.059503	1.190135	-0.194777	99
Es	0.906922	2.120723	0.692109	99
Es	-0.128992	1.464261	-0.944120	99
39
Properties=species:S:1:pos:R:3:Z:I:1 energy=-286.0578555592229 field_type=dipole dipole="0.000000 0.000000 0.000000" charge=0
C	-0.640772	-1.865687	-1.158042	6
O	-0.411952	-1.321837	0.133218	8
C	0.373028	-0.108257	0.169728	6
C	-0.317392	1.205373	-0.259932	6
N	0.353438	1.900723	0.863548	7
C	0.492628	0.589453	1.542628	6
H	-1.226682	-2.782247	-1.051332	1
H	0.311448	-2.107327	-1.639032	1
H	-1.201482	-1.156417	-1.773422	1
H	1.352738	-0.256957	-0.305142	1
H	-1.410602	1.195303	-0.177562	1
H	-0.044592	1.577533	-1.251792	1
H	1.249728	2.314503	0.605098	1
H	1.444618	0.446663	2.062198	1
H	-0.324152	0.369183	2.239838	1
Es	0.372886	-0.108425	0.169731	99
Es	-1.059508	1.190063	-0.194696	99
Es	-0.411838	-1.321684	0.132899	99
Es	0.492631	0.589567	1.542523	99
Es	0.353747	1.900291	0.863263	99
Es	-0.481651	-1.496135	-0.377319	99
Es	-1.020752	-1.376353	-1.587040	99
Es	0.447474	1.354876	1.199425	99
Es	1.046651	-0.203827	-0.162735	99
Es	-0.249491	-1.528758	0.274701	99
Es	-0.682786	-1.238973	0.240821	99
Es	-0.105106	-0.871899	0.102997	99
Es	0.906981	2.121729	0.692413	99
Es	0.061240	1.647195	0.340856	99
Es	1.149396	0.494067	1.900018	99
Es	0.166279	2.130265	1.026782	99
Es	-0.129000	1.464197	-0.944221	99
Es	-0.068480	0.442336	2.005173	99
Es	-0.640730	-1.865590	-1.157842	99
Es	-0.005101	0.507504	-0.135322	99
Es	-0.317303	1.205427	-0.259829	99
Es	0.015031	-2.026076	-1.496409	99
Es	0.453169	0.148327	0.894870	99
Es	-1.040301	-2.489588	-1.086958	99
39
Properties=species:S:1:pos:R:3:Z:I:1 energy=-286.0578555592229 field_type=dipole dipole="0.000000 0.000000 0.000000" charge=0
C	-0.640772	-1.865687	-1.158042	6
O	-0.411952	-1.321837	0.133218	8
C	0.373028	-0.108257	0.169728	6
C	-0.317392	1.205373	-0.259932	6
N	0.353438	1.900723	0.863548	7
C	0.492628	0.589453	1.542628	6
H	-1.226682	-2.782247	-1.051332	1
H	0.311448	-2.107327	-1.639032	1
H	-1.201482	-1.156417	-1.773422	1
H	1.352738	-0.256957	-0.305142	1
H	-1.410602	1.195303	-0.177562	1
H	-0.044592	1.577533	-1.251792	1
H	1.249728	2.314503	0.605098	1
H	1.444618	0.446663	2.062198	1
H	-0.324152	0.369183	2.239838	1
Es	-0.249494	-1.528582	0.274132	99
Es	-0.481784	-1.496024	-0.377222	99
Es	-0.005125	0.507740	-0.135393	99
Es	-0.682932	-1.239134	0.241324	99
Es	-1.040429	-2.489806	-1.087032	99
Es	0.907047	2.121997	0.692564	99
Es	-0.411817	-1.321678	0.132906	99
Es	-1.020533	-1.376371	-1.586998	99
Es	-0.068530	0.442336	2.005207	99
Es	-1.059559	1.189920	-0.194642	99
Es	1.149399	0.494022	1.899971	99
Es	1.046519	-0.203806	-0.162751	99
Es	-0.317303	1.205427	-0.259830	99
Es	0.166598	2.129800	1.026585	99
Es	0.061015	1.647190	0.340857	99
Es	0.453297	0.148320	0.895010	99
Es	-0.129006	1.464154	-0.944258	99
Es	0.447411	1.355094	1.199481	99
Es	0.014883	-2.025902	-1.496351	99
Es	-0.104790	-0.871981	0.102896	99
Es	0.492630	0.589567	1.542523	99
Es	-0.640733	-1.865595	-1.157843	99
Es	0.372885	-0.108428	0.169731	99
Es	0.353788	1.900276	0.863235	99
39
Properties=species:S:1:pos:R:3:Z:I:1 energy=-286.0578555592229 field_type=dipole dipole="0.000000 0.000000 0.000000" charge=0
C	-0.640772	-1.865687	-1.158042	6
O	-0.411952	-1.321837	0.133218	8
C	0.373028	-0.108257	0.169728	6
C	-0.317392	1.205373	-0.259932	6
N	0.353438	1.900723	0.863548	7
C	0.492628	0.589453	1.542628	6
H	-1.226682	-2.782247	-1.051332	1
H	0.311448	-2.107327	-1.639032	1
H	-1.201482	-1.156417	-1.773422	1
H	1.352738	-0.256957	-0.305142	1
H	-1.410602	1.195303	-0.177562	1
H	-0.044592	1.577533	-1.251792	1
H	1.249728	2.314503	0.605098	1
H	1.444618	0.446663	2.062198	1
H	-0.324152	0.369183	2.239838	1
Es	-0.005075	0.507654	-0.135303	99
Es	-0.640732	-1.865591	-1.157844	99
Es	0.907119	2.122481	0.692718	99
Es	-0.128948	1.464087	-0.944215	99
Es	-1.059591	1.189926	-0.194730	99
Es	0.014922	-2.025871	-1.496388	99
Es	-1.020494	-1.376369	-1.586922	99
Es	-1.040499	-2.489800	-1.087058	99
Es	-0.068511	0.442321	2.005177	99
Es	-0.682633	-1.239709	0.241365	99
Es	0.167261	2.129000	1.026133	99
Es	-0.411850	-1.321651	0.132895	99
Es	0.060496	1.647607	0.340898	99
Es	-0.481707	-1.496621	-0.377285	99
Es	0.447171	1.355076	1.199797	99
Es	1.149465	0.493944	1.899957	99
Es	-0.249655	-1.527933	0.273962	99
Es	0.353779	1.900268	0.863240	99
Es	0.453148	0.148465	0.894979	99
Es	0.492630	0.589566	1.542524	99
Es	-0.317303	1.205427	-0.259830	99
Es	1.046576	-0.203785	-0.162809	99
Es	-0.105018	-0.871527	0.103109	99
Es	0.372885	-0.108429	0.169731	99
39
Properties=species:S:1:pos:R:3:Z:I:1 energy=-286.0578555592229 field_type=dipole dipole="0.000000 0.000000 0.000000" charge=0
C	-0.640772	-1.865687	-1.158042	6
O	-0.411952	-1.321837	0.133218	8
C	0.373028	-0.108257	0.169728	6
C	-0.317392	1.205373	-0.259932	6
N	0.353438	1.900723	0.863548	7
C	0.492628	0.589453	1.542628	6
H	-1.226682	-2.782247	-1.051332	1
H	0.311448	-2.107327	-1.639032	1
H	-1.201482	-1.156417	-1.773422	1
H	1.352738	-0.256957	-0.305142	1
H	-1.410602	1.195303	-0.177562	1
H	-0.044592	1.577533	-1.251792	1
H	1.249728	2.314503	0.605098	1
H	1.444618	0.446663	2.062198	1
H	-0.324152	0.369183	2.239838	1
Es	0.492631	0.589566	1.542525	99
Es	-0.682576	-1.238530	0.240663	99
Es	0.060701	1.647383	0.340989	99
Es	-0.128948	1.464063	-0.944246	99
Es	0.907239	2.122600	0.692754	99
Es	0.167298	2.128869	1.025775	99
Es	-0.481799	-1.496684	-0.377171	99
Es	-1.020378	-1.376330	-1.586944	99
Es	0.372885	-0.108430	0.169731	99
Es	0.446924	1.355195	1.200002	99
Es	1.149442	0.494038	1.900034	99
Es	-0.411815	-1.321688	0.132940	99
Es	-1.040576	-2.489801	-1.087118	99
Es	-0.317303	1.205427	-0.259830	99
Es	-0.250824	-1.528241	0.274464	99
Es	0.014851	-2.025907	-1.496335	99
Es	-0.005110	0.507869	-0.135420	99
Es	-0.103842	-0.872295	0.103143	99
Es	1.046481	-0.203803	-0.162767	99
Es	0.353766	1.900274	0.863238	99
Es	0.453353	0.148394	0.895053	99
Es	-1.059641	1.189847	-0.194663	99
Es	-0.068589	0.442311	2.005129	99
Es	-0.640731	-1.865593	-1.157844	99
39
Properties=species:S:1:pos:R:3:Z:I:1 energy=-286.0578555592229 field_type=dipole dipole="0.000000 0.000000 0.000000" charge=0
C	-0.640772	-1.865687	-1.158042	6
O	-0.411952	-1.321837	0.133218	8
C	0.373028	-0.108257	0.169728	6
C	-0.317392	1.205373	-0.259932	6
N	0.353438	1.900723	0.863548	7
C	0.492628	0.589453	1.542628	6
H	-1.226682	-2.782247	-1.051332	1
H	0.311448	-2.107327	-1.639032	1
H	-1.201482	-1.156417	-1.773422	1
H	1.352738	-0.256957	-0.305142	1
H	-1.410602	1.195303	-0.177562	1
H	-0.044592	1.577533	-1.251792	1
H	1.249728	2.314503	0.605098	1
H	1.444618	0.446663	2.062198	1
H	-0.324152	0.369183	2.239838	1
Es	-1.059708	1.189780	-0.194751	99
Es	-0.068603	0.442252	2.005177	99
Es	-0.682373	-1.240615	0.242609	99
Es	-1.020362	-1.376336	-1.586893	99
Es	-0.640732	-1.865594	-1.157847	99
Es	-1.040613	-2.489802	-1.087125	99
Es	0.353715	1.900326	0.863288	99
Es	-0.005055	0.507891	-0.135302	99
Es	-0.482401	-1.496575	-0.377235	99
Es	0.167922	2.127987	1.025599	99
Es	0.060130	1.647839	0.340861	99
Es	-0.411701	-1.321737	0.132884	99
Es	1.046548	-0.203733	-0.162799	99
Es	0.014871	-2.025883	-1.496371	99
Es	-0.128892	1.464003	-0.944176	99
Es	-0.105214	-0.871227	0.102976	99
Es	1.149494	0.494058	1.899967	99
Es	0.446921	1.355092	1.199981	99
Es	-0.249186	-1.527348	0.272787	99
Es	0.907162	2.123118	0.693050	99
Es	0.372884	-0.108431	0.169730	99
Es	0.453303	0.148479	0.895000	99
Es	0.492631	0.589567	1.542523	99
Es	-0.317303	1.205426	-0.259831	99
39
Properties=species:S:1:pos:R:3:Z:I:1 energy=-286.0578555592229 field_type=dipole dipole="0.000000 0.000000 0.000000" charge=0
C	-0.640772	-1.865687	-1.158042	6
O	-0.411952	-1.321837	0.133218	8
C	0.373028	-0.108257	0.169728	6
C	-0.317392	1.205373	-0.259932	6
N	0.353438	1.900723	0.863548	7
C	0.492628	0.589453	1.542628	6
H	-1.226682	-2.782247	-1.051332	1
H	0.311448	-2.107327	-1.639032	1
H	-1.201482	-1.156417	-1.773422	1
H	1.352738	-0.256957	-0.305142	1
H	-1.410602	1.195303	-0.177562	1
H	-0.044592	1.577533	-1.251792	1
H	1.249728	2.314503	0.605098	1
H	1.444618	0.446663	2.062198	1
H	-0.324152	0.369183	2.239838	1
Es	-0.411855	-1.321711	0.132981	99
Es	0.167772	2.127731	1.024999	99
Es	-1.040619	-2.489846	-1.087135	99
Es	-0.005076	0.507863	-0.135345	99
Es	0.453197	0.148419	0.894963	99
Es	0.492634	0.589565	1.542526	99
Es	0.372885	-0.108429	0.169732	99
Es	-0.068548	0.442360	2.005139	99
Es	1.046530	-0.203730	-0.162751	99
Es	0.014829	-2.025862	-1.496336	99
Es	-1.020315	-1.376380	-1.586926	99
Es	-0.681919	-1.240539	0.243919	99
Es	0.907167	2.123580	0.693037	99
Es	0.353777	1.900267	0.863242	99
Es	-0.317303	1.205427	-0.259830	99
Es	1.149474	0.493957	1.900006	99
Es	0.446822	1.355298	1.200516	99
Es	-0.640731	-1.865591	-1.157840	99
Es	-1.059653	1.189811	-0.194665	99
Es	-0.128991	1.464024	-0.944218	99
Es	0.060437	1.647518	0.340984	99
Es	-0.249131	-1.527137	0.271435	99
Es	-0.483687	-1.496181	-0.377356	99
Es	-0.104258	-0.871879	0.103025	99
39
Properties=species:S:1:pos:R:3:Z:I:1 energy=-286.0578555592229 field_type=dipole dipole="0.000000 0.000000 0.000000" charge=0
C	-0.640772	-1.865687	-1.158042	6
O	-0.411952	-1.321837	0.133218	8
C	0.373028	-0.108257	0.169728	6
C	-0.317392	1.205373	-0.259932	6
N	0.353438	1.900723	0.863548	7
C	0.492628	0.589453	1.542628	6
H	-1.226682	-2.782247	-1.051332	1
H	0.311448	-2.107327	-1.639032	1
H	-1.201482	-1.156417	-1.773422	1
H	1.352738	-0.256957	-0.305142	1
H	-1.410602	1.195303	-0.177562	1
H	-0.044592	1.577533	-1.251792	1
H	1.249728	2.314503	0.605098	1
H	1.444618	0.446663	2.062198	1
H	-0.324152	0.369183	2.239838	1
Es	-1.040735	-2.489909	-1.087170	99
Es	0.353776	1.900266	0.863243	99
Es	1.149481	0.494146	1.899976	99
Es	0.168079	2.127360	1.025076	99
Es	0.060114	1.647808	0.340921	99
Es	-1.020202	-1.376464	-1.586813	99
Es	-0.640731	-1.865592	-1.157844	99
Es	0.492631	0.589565	1.542523	99
Es	0.372885	-0.108429	0.169731	99
Es	-1.059687	1.189737	-0.194687	99
Es	0.014869	-2.025755	-1.496374	99
Es	-0.317302	1.205426	-0.259830	99
Es	-0.482901	-1.496088	-0.377449	99
Es	1.046474	-0.203783	-0.162692	99
Es	-0.411808	-1.321709	0.132925	99
Es	-0.128952	1.463963	-0.944228	99
Es	-0.682128	-1.239695	0.242400	99
Es	0.446628	1.355214	1.200279	99
Es	-0.104000	-0.872137	0.103374	99
Es	0.907279	2.123698	0.693241	99
Es	0.453374	0.148432	0.894953	99
Es	-0.004993	0.507982	-0.135418	99
Es	-0.250128	-1.527782	0.272757	99
Es	-0.068583	0.442282	2.005206	99
39
Properties=species:S:1:pos:R:3:Z:I:1 energy=-286.0578555592229 field_type=dipole dipole="0.000000 0.000000 0.000000" charge=0
C	-0.640772	-1.865687	-1.158042	6
O	-0.411952	-1.321837	0.133218	8
C	0.373028	-0.108257	0.169728	6
C	-0.317392	1.205373	-0.259932	6
N	0.353438	1.900723	0.863548	7
C	0.492628	0.589453	1.542628	6
H	-1.226682	-2.782247	-1.051332	1
H	0.311448	-2.107327	-1.639032	1
H	-1.201482	-1.156417	-1.773422	1
H	1.352738	-0.256957	-0.305142	1
H	-1.410602	1.195303	-0.177562	1
H	-0.044592	1.577533	-1.251792	1
H	1.249728	2.314503	0.605098	1
H	1.444618	0.446663	2.062198	1
H	-0.324152	0.369183	2.239838	1
Es	-0.102318	-0.872930	0.103593	99
Es	0.059902	1.647751	0.340971	99
Es	-0.482740	-1.496695	-0.377276	99
Es	-1.059674	1.189772	-0.194702	99
Es	-1.020278	-1.376445	-1.586771	99
Es	0.453294	0.148480	0.894926	99
Es	-0.005137	0.507940	-0.135203	99
Es	0.907270	2.123638	0.693149	99
Es	-0.411795	-1.321761	0.132906	99
Es	-0.128903	1.463916	-0.944269	99
Es	-0.681478	-1.237806	0.240178	99
Es	0.014880	-2.025707	-1.496424	99
Es	0.168288	2.127334	1.025002	99
Es	0.446700	1.355398	1.200461	99
Es	-0.068600	0.442271	2.005245	99
Es	0.372885	-0.108430	0.169731	99
Es	0.492629	0.589567	1.542523	99
Es	1.046562	-0.203699	-0.162832	99
Es	-0.317304	1.205427	-0.259833	99
Es	1.149459	0.494058	1.899910	99
Es	-0.252586	-1.528283	0.274593	99
Es	0.353801	1.900255	0.863227	99
Es	-1.040690	-2.489925	-1.087163	99
Es	-0.640731	-1.865592	-1.157842	99
39
Properties=species:S:1:pos:R:3:Z:I:1 energy=-286.0578555592229 field_type=dipole dipole="0.000000 0.000000 0.000000" charge=0
C	-0.640772	-1.865687	-1.158042	6
O	-0.411952	-1.321837	0.133218	8
C	0.373028	-0.108257	0.169728	6
C	-0.317392	1.205373	-0.259932	6
N	0.353438	1.900723	0.863548	7
C	0.492628	0.589453	1.542628	6
H	-1.226682	-2.782247	-1.051332	1
H	0.311448	-2.107327	-1.639032	1
H	-1.201482	-1.156417	-1.773422	1
H	1.352738	-0.256957	-0.305142	1
H	-1.410602	1.195303	-0.177562	1
H	-0.044592	1.577533	-1.251792	1
H	1.249728	2.314503	0.605098	1
H	1.444618	0.446663	2.062198	1
H	-0.324152	0.369183	2.239838	1
Es	-1.020137	-1.376522	-1.586642	99
Es	-0.482270	-1.496878	-0.377154	99
Es	0.446636	1.355305	1.200130	99
Es	1.149540	0.494059	1.899922	99
Es	0.372885	-0.108429	0.169731	99
Es	0.059980	1.647805	0.340942	99
Es	0.353794	1.900303	0.863238	99
Es	-0.068681	0.442276	2.005225	99
Es	-0.317303	1.205427	-0.259830	99
Es	0.492631	0.589567	1.542523	99
Es	-1.059726	1.189654	-0.194678	99
Es	-1.040863	-2.489887	-1.087229	99
Es	1.046550	-0.203724	-0.162797	99
Es	-0.681297	-1.237501	0.238931	99
Es	0.907345	2.124091	0.693480	99
Es	-0.128903	1.463938	-0.944260	99
Es	0.453258	0.148589	0.895016	99
Es	-0.102505	-0.872665	0.103607	99
Es	-0.640731	-1.865593	-1.157843	99
Es	0.168213	2.126781	1.025011	99
Es	-0.005018	0.508021	-0.135327	99
Es	0.014890	-2.025695	-1.496513	99
Es	-0.411820	-1.321670	0.132881	99
Es	-0.253030	-1.528715	0.275737	99
39
Properties=species:S:1:pos:R:3:Z:I:1 energy=-286.0578555592229 field_type=dipole dipole="0.000000 0.000000 0.000000" charge=0
C	-0.640772	-1.865687	-1.158042	6
O	-0.411952	-1.321837	0.133218	8
C	0.373028	-0.108257	0.169728	6
C	-0.317392	1.205373	-0.259932	6
N	0.353438	1.900723	0.863548	7
C	0.492628	0.589453	1.542628	6
H	-1.226682	-2.782247	-1.051332	1
H	0.311448	-2.107327	-1.639032	1
H	-1.201482	-1.156417	-1.773422	1
H	1.352738	-0.256957	-0.305142	1
H	-1.410602	1.195303	-0.177562	1
H	-0.044592	1.577533	-1.251792	1
H	1.249728	2.314503	0.605098	1
H	1.444618	0.446663	2.062198	1
H	-0.324152	0.369183	2.239838	1
Es	-0.640732	-1.865590	-1.157842	99
Es	-0.104943	-0.871101	0.103420	99
Es	-1.059736	1.189780	-0.194746	99
Es	1.046433	-0.203730	-0.162763	99
Es	-0.068578	0.442299	2.005102	99
Es	1.149553	0.494012	1.900032	99
Es	0.492631	0.589565	1.542525	99
Es	-0.317303	1.205427	-0.259831	99
Es	-0.411917	-1.321607	0.132880	99
Es	0.059959	1.647705	0.340925	99
Es	0.353799	1.900262	0.863229	99
Es	-0.681417	-1.243036	0.246704	99
Es	0.014774	-2.025639	-1.496419	99
Es	-0.005051	0.507974	-0.135305	99
Es	-1.040711	-2.490005	-1.087196	99
Es	0.446528	1.355451	1.200675	99
Es	0.453329	0.148521	0.894966	99
Es	-0.247482	-1.526803	0.268467	99
Es	0.907238	2.124430	0.693493	99
Es	-1.020213	-1.376494	-1.586758	99
Es	-0.485134	-1.494882	-0.377457	99
Es	0.372886	-0.108428	0.169732	99
Es	0.168377	2.126521	1.024485	99
Es	-0.128851	1.463902	-0.944217	99
39
Properties=species:S:1:pos:R:3:Z:I:1 energy=-286.0578555592229 field_type=dipole dipole="0.000000 0.000000 0.000000" charge=0
C	-0.640772	-1.865687	-1.158042	6
O	-0.411952	-1.321837	0.133218	8
C	0.373028	-0.108257	0.169728	6
C	-0.317392	1.205373	-0.259932	6
N	0.353438	1.900723	0.863548	7
C	0.492628	0.589453	1.542628	6
H	-1.226682	-2.782247	-1.051332	1
H	0.311448	-2.107327	-1.639032	1
H	-1.201482	-1.156417	-1.773422	1
H	1.352738	-0.256957	-0.305142	1
H	-1.410602	1.195303	-0.177562	1
H	-0.044592	1.577533	-1.251792	1
H	1.249728	2.314503	0.605098	1
H	1.444618	0.446663	2.062198	1
H	-0.324152	0.369183	2.239838	1
Es	-0.128788	1.463893	-0.944154	99
Es	-0.251367	-1.527511	0.273786	99
Es	0.907262	2.124654	0.693554	99
Es	-1.040837	-2.489878	-1.087188	99
Es	1.149462	0.494067	1.899987	99
Es	0.014811	-2.025756	-1.496481	99
Es	0.453405	0.148475	0.895000	99
Es	-1.059855	1.189612	-0.194780	99
Es	-0.317305	1.205427	-0.259833	99
Es	0.492632	0.589564	1.542522	99
Es	0.372884	-0.108430	0.169731	99
Es	-0.068642	0.442328	2.005181	99
Es	0.353784	1.900267	0.863236	99
Es	0.059601	1.647681	0.340978	99
Es	-1.020158	-1.376493	-1.586707	99
Es	0.168779	2.126107	1.024302	99
Es	-0.482131	-1.497034	-0.377098	99
Es	-0.682108	-1.239122	0.241072	99
Es	-0.004983	0.508172	-0.135387	99
Es	-0.103472	-0.872061	0.103354	99
Es	-0.411812	-1.321692	0.132910	99
Es	-0.640731	-1.865593	-1.157846	99
Es	1.046431	-0.203746	-0.162775	99
Es	0.446579	1.355604	1.200738	99
39
Properties=species:S:1:pos:R:3:Z:I:1 energy=-286.0578555592229 field_type=dipole dipole="0.000000 0.000000 0.000000" charge=0
C	-0.640772	-1.865687	-1.158042	6
O	-0.411952	-1.321837	0.133218	8
C	0.373028	-0.108257	0.169728	6
C	-0.317392	1.205373	-0.259932	6
N	0.353438	1.900723	0.863548	7
C	0.492628	0.589453	1.542628	6
H	-1.226682	-2.782247	-1.051332	1
H	0.311448	-2.107327	-1.639032	1
H	-1.201482	-1.156417	-1.773422	1
H	1.352738	-0.256957	-0.305142	1
H	-1.410602	1.195303	-0.177562	1
H	-0.044592	1.577533	-1.251792	1
H	1.249728	2.314503	0.605098	1
H	1.444618	0.446663	2.062198	1
H	-0.324152	0.369183	2.239838	1
Es	-1.020090	-1.376428	-1.586753	99
Es	-1.040798	-2.490082	-1.087235	99
Es	-0.411921	-1.321608	0.132874	99
Es	-0.681578	-1.239487	0.242869	99
Es	0.907287	2.124546	0.693580	99
Es	-0.483505	-1.496545	-0.377425	99
Es	-0.102841	-0.872688	0.103461	99
Es	0.168533	2.126352	1.024304	99
Es	0.446406	1.355540	1.200801	99
Es	0.014720	-2.025598	-1.496354	99
Es	0.492632	0.589565	1.542525	99
Es	0.059974	1.647672	0.340900	99
Es	-1.059788	1.189683	-0.194679	99
Es	-0.317303	1.205427	-0.259829	99
Es	1.149539	0.494015	1.900071	99
Es	-0.005043	0.508135	-0.135348	99
Es	-0.068664	0.442271	2.005062	99
Es	1.046435	-0.203702	-0.162714	99
Es	0.353812	1.900223	0.863205	99
Es	-0.640731	-1.865592	-1.157843	99
Es	-0.128874	1.463864	-0.944240	99
Es	0.372885	-0.108431	0.169732	99
Es	0.453396	0.148577	0.894919	99
Es	-0.251045	-1.527175	0.272217	99
39
Properties=species:S:1:pos:R:3:Z:I:1 energy=-286.0578555592229 field_type=dipole dipole="0.000000 0.000000 0.000000" charge=0
C	-0.640772	-1.865687	-1.158042	6
O	-0.411952	-1.321837	0.133218	8
C	0.373028	-0.108257	0.169728	6
C	-0.317392	1.205373	-0.259932	6
N	0.353438	1.900723	0.863548	7
C	0.492628	0.589453	1.542628	6
H	-1.226682	-2.782247	-1.051332	1
H	0.311448	-2.107327	-1.639032	1
H	-1.201482	-1.156417	-1.773422	1
H	1.352738	-0.256957	-0.305142	1
H	-1.410602	1.195303	-0.177562	1
H	-0.044592	1.577533	-1.251792	1
H	1.249728	2.314503	0.605098	1
H	1.444618	0.446663	2.062198	1
H	-0.324152	0.369183	2.239838	1
Es	0.492631	0.589566	1.542524	99
Es	0.060100	1.647616	0.340845	99
Es	-0.102270	-0.872632	0.104489	99
Es	-0.251102	-1.527359	0.270347	99
Es	-1.020122	-1.376429	-1.586787	99
Es	-0.681616	-1.240527	0.243870	99
Es	0.168368	2.125583	1.024202	99
Es	0.453308	0.148465	0.894981	99
Es	-0.317301	1.205427	-0.259828	99
Es	1.149506	0.494028	1.899945	99
Es	-0.484004	-1.495335	-0.377607	99
Es	-0.411909	-1.321612	0.132883	99
Es	-1.059751	1.189731	-0.194690	99
Es	-0.068615	0.442347	2.005219	99
Es	0.014770	-2.025683	-1.496354	99
Es	0.907120	2.125397	0.693903	99
Es	0.353728	1.900309	0.863275	99
Es	-1.040788	-2.489997	-1.087215	99
Es	-0.004997	0.508027	-0.135480	99
Es	-0.640732	-1.865592	-1.157844	99
Es	1.046430	-0.203738	-0.162672	99
Es	0.372888	-0.108425	0.169730	99
Es	-0.128928	1.463985	-0.944180	99
Es	0.446724	1.355383	1.200544	99
39
Properties=species:S:1:pos:R:3:Z:I:1 energy=-286.0578555592229 field_type=dipole dipole="0.000000 0.000000 0.000000" charge=0
C	-0.640772	-1.865687	-1.158042	6
O	-0.411952	-1.321837	0.133218	8
C	0.373028	-0.108257	0.169728	6
C	-0.317392	1.205373	-0.259932	6
N	0.353438	1.900723	0.863548	7
C	0.492628	0.589453	1.542628	6
H	-1.226682	-2.782247	-1.051332	1
H	0.311448	-2.107327	-1.639032	1
H	-1.201482	-1.156417	-1.773422	1
H	1.352738	-0.256957	-0.305142	1
H	-1.410602	1.195303	-0.177562	1
H	-0.044592	1.577533	-1.251792	1
H	1.249728	2.314503	0.605098	1
H	1.444618	0.446663	2.062198	1
H	-0.324152	0.369183	2.239838	1
Es	-1.040830	-2.490071	-1.087218	99
Es	-0.252125	-1.527673	0.272661	99
Es	0.492632	0.589566	1.542523	99
Es	0.168644	2.125724	1.024024	99
Es	0.059973	1.647849	0.340773	99
Es	-0.068623	0.442306	2.005169	99
Es	-0.681331	-1.238585	0.242036	99
Es	0.907381	2.125031	0.693967	99
Es	-0.004940	0.508047	-0.135357	99
Es	0.453309	0.148538	0.894930	99
Es	0.372884	-0.108428	0.169730	99
Es	-0.317304	1.205428	-0.259830	99
Es	1.046488	-0.203697	-0.162788	99
Es	1.149481	0.494062	1.899993	99
Es	-0.101820	-0.873108	0.103618	99
Es	0.014729	-2.025600	-1.496387	99
Es	-1.020072	-1.376477	-1.586726	99
Es	-1.059795	1.189629	-0.194659	99
Es	-0.411820	-1.321705	0.132945	99
Es	0.446234	1.355497	1.200808	99
Es	-0.640731	-1.865593	-1.157844	99
Es	-0.128934	1.463897	-0.944201	99
Es	0.353789	1.900254	0.863227	99
Es	-0.483781	-1.496354	-0.377292	99
39
Properties=species:S:1:pos:R:3:Z:I:1 energy=-286.0578555592229 field_type=dipole dipole="0.000000 0.000000 0.000000" charge=0
C	-0.640772	-1.865687	-1.158042	6
O	-0.411952	-1.321837	0.133218	8
C	0.373028	-0.108257	0.169728	6
C	-0.317392	1.205373	-0.259932	6
N	0.353438	1.900723	0.863548	7
C	0.492628	0.589453	1.542628	6
H	-1.226682	-2.782247	-1.051332	1
H	0.311448	-2.107327	-1.639032	1
H	-1.201482	-1.156417	-1.773422	1
H	1.352738	-0.256957	-0.305142	1
H	-1.410602	1.195303	-0.177562	1
H	-0.044592	1.577533	-1.251792	1
H	1.249728	2.314503	0.605098	1
H	1.444618	0.446663	2.062198	1
H	-0.324152	0.369183	2.239838	1
Es	0.907257	2.125084	0.693587	99
Es	-0.681223	-1.238810	0.241204	99
Es	-0.102248	-0.872655	0.104019	99
Es	0.353774	1.900281	0.863242	99
Es	-0.252088	-1.528515	0.273092	99
Es	0.059320	1.648003	0.341112	99
Es	1.046419	-0.203696	-0.162881	99
Es	-0.128833	1.463855	-0.944331	99
Es	-1.019961	-1.376559	-1.586576	99
Es	0.372886	-0.108428	0.169732	99
Es	-0.411842	-1.321692	0.132948	99
Es	-0.483509	-1.495712	-0.377300	99
Es	0.492632	0.589565	1.542524	99
Es	-0.068665	0.442339	2.005203	99
Es	0.014749	-2.025522	-1.496481	99
Es	0.446907	1.355307	1.200059	99
Es	-0.640732	-1.865593	-1.157845	99
Es	-1.040979	-2.490083	-1.087274	99
Es	1.149514	0.494064	1.899969	99
Es	0.453385	0.148531	0.895013	99
Es	-0.005026	0.508245	-0.135263	99
Es	-1.059785	1.189499	-0.194661	99
Es	-0.317303	1.205427	-0.259830	99
Es	0.168786	2.125600	1.024838	99
