39
Properties=species:S:1:pos:R:3:Z:I:1 energy=-286.07115621872634 field_type=dipole dipole="0.000000 0.000000 0.000000" charge=0
N	-0.046578	-2.175333	-0.474333	7
C	-0.687318	-1.080793	0.238807	6
C	0.254582	0.078157	0.262367	6
C	0.407992	0.968997	-0.944663	6
C	-0.287898	1.482907	0.284577	6
O	0.440592	2.419327	1.088697	8
H	-0.674958	-2.976393	-0.488413	1
H	0.780352	-2.475183	0.039077	1
H	-0.928618	-1.388993	1.262407	1
H	-1.627298	-0.823753	-0.263673	1
H	1.135221	-0.127573	0.858567	1
H	-0.197588	0.754147	-1.818683	1
H	1.399231	1.333207	-1.181833	1
H	-1.363788	1.617077	0.225977	1
H	1.396072	2.394197	0.911117	1
Es	-0.328394	-1.717707	-0.144236	99
Es	0.440769	2.419102	1.088462	99
Es	-0.287663	1.482956	0.284632	99
Es	-0.221973	-0.488708	0.241228	99
Es	0.946899	2.376502	0.969149	99
Es	0.405832	2.325367	1.377368	99
Es	0.254556	0.078281	0.262260	99
Es	0.859566	-0.053436	0.664978	99
Es	0.034327	1.389554	-0.432803	99
Es	-1.013338	1.578362	0.254127	99
Es	0.040556	-2.081760	-0.802938	99
Es	0.419007	0.386766	-0.435552	99
Es	-0.005416	0.821420	-1.531278	99
Es	-0.046727	-2.175494	-0.473794	99
Es	-0.687245	-1.080881	0.238735	99
Es	0.193327	2.055632	0.766542	99
Es	0.351010	2.696286	0.999068	99
Es	0.442809	-2.355559	-0.141507	99
Es	-0.430173	-2.661134	-0.460813	99
Es	1.081022	1.224439	-1.091445	99
Es	-0.854680	-1.286012	0.950545	99
Es	-0.085375	0.735207	0.452171	99
Es	0.407951	0.968960	-0.944511	99
Es	-1.331250	-0.899984	-0.108217	99
39
Properties=species:S:1:pos:R:3:Z:I:1 energy=-286.07115621872634 field_type=dipole dipole="0.000000 0.000000 0.000000" charge=0
N	-0.046578	-2.175333	-0.474333	7
C	-0.687318	-1.080793	0.238807	6
C	0.254582	0.078157	0.262367	6
C	0.407992	0.968997	-0.944663	6
C	-0.287898	1.482907	0.284577	6
O	0.440592	2.419327	1.088697	8
H	-0.674958	-2.976393	-0.488413	1
H	0.780352	-2.475183	0.039077	1
H	-0.928618	-1.388993	1.262407	1
H	-1.627298	-0.823753	-0.263673	1
H	1.135221	-0.127573	0.858567	1
H	-0.197588	0.754147	-1.818683	1
H	1.399231	1.333207	-1.181833	1
H	-1.363788	1.617077	0.225977	1
H	1.396072	2.394197	0.911117	1
Es	-0.085140	0.734995	0.452409	99
Es	0.859647	-0.053601	0.664961	99
Es	-1.331235	-0.899705	-0.108484	99
Es	0.443793	-2.355853	-0.141959	99
Es	0.404858	2.325598	1.377745	99
Es	0.034508	1.389760	-0.433019	99
Es	0.254543	0.078293	0.262286	99
Es	1.081231	1.224461	-1.091927	99
Es	-0.429414	-2.660110	-0.459322	99
Es	0.039037	-2.082192	-0.804374	99
Es	-1.013636	1.578526	0.254138	99
Es	0.947702	2.375835	0.968851	99
Es	0.194597	2.055564	0.768204	99
Es	-0.328394	-1.717880	-0.143845	99
Es	0.440731	2.419145	1.088433	99
Es	0.349779	2.696518	0.997139	99
Es	-0.046726	-2.175498	-0.473787	99
Es	-0.287667	1.482956	0.284631	99
Es	-0.005259	0.821982	-1.530541	99
Es	0.418546	0.386018	-0.436030	99
Es	-0.222146	-0.488749	0.241585	99
Es	-0.854659	-1.285981	0.950844	99
Es	-0.687244	-1.080883	0.238732	99
Es	0.407943	0.968958	-0.944495	99
39
Properties=species:S:1:pos:R:3:Z:I:1 energy=-286.07115621872634 field_type=dipole dipole="0.000000 0.000000 0.000000" charge=0
N	-0.046578	-2.175333	-0.474333	7
C	-0.687318	-1.080793	0.238807	6
C	0.254582	0.078157	0.262367	6
C	0.407992	0.968997	-0.944663	6
C	-0.287898	1.482907	0.284577	6
O	0.440592	2.419327	1.088697	8
H	-0.674958	-2.976393	-0.488413	1
H	0.780352	-2.475183	0.039077	1
H	-0.928618	-1.388993	1.262407	1
H	-1.627298	-0.823753	-0.263673	1
H	1.135221	-0.127573	0.858567	1
H	-0.197588	0.754147	-1.818683	1
H	1.399231	1.333207	-1.181833	1
H	-1.363788	1.617077	0.225977	1
H	1.396072	2.394197	0.911117	1
Es	-1.013891	1.578689	0.254197	99
Es	-1.331370	-0.899720	-0.108616	99
Es	0.195518	2.056195	0.768939	99
Es	-0.287663	1.482956	0.284631	99
Es	-0.085104	0.734855	0.452692	99
Es	1.081526	1.224472	-1.092263	99
Es	0.034332	1.390062	-0.433191	99
Es	0.404178	2.324910	1.377939	99
Es	-0.222124	-0.488537	0.241447	99
Es	-0.687246	-1.080882	0.238733	99
Es	0.254552	0.078289	0.262267	99
Es	0.443752	-2.355899	-0.141658	99
Es	0.348871	2.696964	0.996376	99
Es	0.038759	-2.083093	-0.805654	99
Es	-0.854487	-1.285898	0.951014	99
Es	0.859797	-0.053899	0.664971	99
Es	-0.429262	-2.659448	-0.457806	99
Es	-0.328059	-1.717485	-0.144289	99
Es	0.948220	2.375215	0.968457	99
Es	0.418087	0.385723	-0.436210	99
Es	-0.046727	-2.175504	-0.473781	99
Es	0.440748	2.419135	1.088423	99
Es	0.407946	0.968956	-0.944500	99
Es	-0.004957	0.822102	-1.529944	99
39
Properties=species:S:1:pos:R:3:Z:I:1 energy=-286.07115621872634 field_type=dipole dipole="0.000000 0.000000 0.000000" charge=0
N	-0.046578	-2.175333	-0.474333	7
C	-0.687318	-1.080793	0.238807	6
C	0.254582	0.078157	0.262367	6
C	0.407992	0.968997	-0.944663	6
C	-0.287898	1.482907	0.284577	6
O	0.440592	2.419327	1.088697	8
H	-0.674958	-2.976393	-0.488413	1
H	0.780352	-2.475183	0.039077	1
H	-0.928618	-1.388993	1.262407	1
H	-1.627298	-0.823753	-0.263673	1
H	1.135221	-0.127573	0.858567	1
H	-0.197588	0.754147	-1.818683	1
H	1.399231	1.333207	-1.181833	1
H	-1.363788	1.617077	0.225977	1
H	1.396072	2.394197	0.911117	1
Es	0.034374	1.390157	-0.433212	99
Es	-0.287663	1.482954	0.284630	99
Es	-0.328250	-1.717947	-0.143745	99
Es	0.417665	0.385385	-0.436301	99
Es	0.403114	2.325846	1.378304	99
Es	-0.854524	-1.285857	0.951042	99
Es	0.860020	-0.053993	0.664959	99
Es	0.196455	2.055997	0.770448	99
Es	0.407935	0.968948	-0.944494	99
Es	-0.084909	0.734784	0.452611	99
Es	0.948693	2.374177	0.968699	99
Es	-0.004902	0.822397	-1.529355	99
Es	0.348419	2.697118	0.994102	99
Es	-1.014103	1.578758	0.254243	99
Es	0.037483	-2.083202	-0.806615	99
Es	-1.331389	-0.899484	-0.108795	99
Es	0.444568	-2.355904	-0.142155	99
Es	1.081760	1.224538	-1.092664	99
Es	-0.428504	-2.658876	-0.456836	99
Es	-0.687245	-1.080882	0.238734	99
Es	-0.046728	-2.175499	-0.473793	99
Es	-0.222171	-0.488661	0.241635	99
Es	0.440746	2.419112	1.088458	99
Es	0.254549	0.078292	0.262273	99
39
Properties=species:S:1:pos:R:3:Z:I:1 energy=-286.07115621872634 field_type=dipole dipole="0.000000 0.000000 0.000000" charge=0
N	-0.046578	-2.175333	-0.474333	7
C	-0.687318	-1.080793	0.238807	6
C	0.254582	0.078157	0.262367	6
C	0.407992	0.968997	-0.944663	6
C	-0.287898	1.482907	0.284577	6
O	0.440592	2.419327	1.088697	8
H	-0.674958	-2.976393	-0.488413	1
H	0.780352	-2.475183	0.039077	1
H	-0.928618	-1.388993	1.262407	1
H	-1.627298	-0.823753	-0.263673	1
H	1.135221	-0.127573	0.858567	1
H	-0.197588	0.754147	-1.818683	1
H	1.399231	1.333207	-1.181833	1
H	-1.363788	1.617077	0.225977	1
H	1.396072	2.394197	0.911117	1
Es	0.949308	2.374684	0.968218	99
Es	0.417310	0.385084	-0.436259	99
Es	0.860106	-0.054085	0.664840	99
Es	0.347229	2.697977	0.997308	99
Es	-0.004684	0.822595	-1.528942	99
Es	-0.854450	-1.285815	0.951078	99
Es	0.034327	1.390337	-0.433441	99
Es	0.444733	-2.356211	-0.142231	99
Es	0.037155	-2.083342	-0.806983	99
Es	0.402913	2.321669	1.377220	99
Es	-1.331439	-0.899424	-0.108805	99
Es	0.197111	2.058738	0.768592	99
Es	0.440760	2.419098	1.088481	99
Es	-0.428421	-2.658419	-0.456524	99
Es	-0.287663	1.482946	0.284635	99
Es	-0.328079	-1.717959	-0.143629	99
Es	-0.084819	0.734575	0.452907	99
Es	-1.014234	1.578876	0.254188	99
Es	-0.687245	-1.080882	0.238733	99
Es	1.081835	1.224611	-1.092879	99
Es	0.254550	0.078290	0.262269	99
Es	0.407946	0.968959	-0.944502	99
Es	-0.046726	-2.175494	-0.473791	99
Es	-0.222126	-0.488648	0.241687	99
39
Properties=species:S:1:pos:R:3:Z:I:1 energy=-286.07115621872634 field_type=dipole dipole="0.000000 0.000000 0.000000" charge=0
N	-0.046578	-2.175333	-0.474333	7
C	-0.687318	-1.080793	0.238807	6
C	0.254582	0.078157	0.262367	6
C	0.407992	0.968997	-0.944663	6
C	-0.287898	1.482907	0.284577	6
O	0.440592	2.419327	1.088697	8
H	-0.674958	-2.976393	-0.488413	1
H	0.780352	-2.475183	0.039077	1
H	-0.928618	-1.388993	1.262407	1
H	-1.627298	-0.823753	-0.263673	1
H	1.135221	-0.127573	0.858567	1
H	-0.197588	0.754147	-1.818683	1
H	1.399231	1.333207	-1.181833	1
H	-1.363788	1.617077	0.225977	1
H	1.396072	2.394197	0.911117	1
Es	-0.687244	-1.080883	0.238731	99
Es	0.404046	2.320999	1.376554	99
Es	-1.014371	1.578984	0.254256	99
Es	0.949279	2.374578	0.967272	99
Es	-0.428116	-2.658223	-0.456468	99
Es	0.345468	2.699091	0.997261	99
Es	0.860123	-0.054251	0.664884	99
Es	-0.328302	-1.718311	-0.143542	99
Es	0.197690	2.058168	0.770260	99
Es	-0.084625	0.734713	0.452831	99
Es	0.407946	0.968958	-0.944500	99
Es	-0.222318	-0.488533	0.241892	99
Es	-0.854481	-1.285835	0.951096	99
Es	0.034387	1.390230	-0.433375	99
Es	0.254552	0.078286	0.262261	99
Es	-0.046729	-2.175499	-0.473795	99
Es	-0.287663	1.482955	0.284632	99
Es	1.082104	1.224696	-1.093134	99
Es	-0.004681	0.822742	-1.528548	99
Es	0.417155	0.384876	-0.436578	99
Es	0.444736	-2.356217	-0.141948	99
Es	-1.331431	-0.899317	-0.108889	99
Es	0.037117	-2.083142	-0.807397	99
Es	0.440756	2.419095	1.088415	99
39
Properties=species:S:1:pos:R:3:Z:I:1 energy=-286.07115621872634 field_type=dipole dipole="0.000000 0.000000 0.000000" charge=0
N	-0.046578	-2.175333	-0.474333	7
C	-0.687318	-1.080793	0.238807	6
C	0.254582	0.078157	0.262367	6
C	0.407992	0.968997	-0.944663	6
C	-0.287898	1.482907	0.284577	6
O	0.440592	2.419327	1.088697	8
H	-0.674958	-2.976393	-0.488413	1
H	0.780352	-2.475183	0.039077	1
H	-0.928618	-1.388993	1.262407	1
H	-1.627298	-0.823753	-0.263673	1
H	1.135221	-0.127573	0.858567	1
H	-0.197588	0.754147	-1.818683	1
H	1.399231	1.333207	-1.181833	1
H	-1.363788	1.617077	0.225977	1
H	1.396072	2.394197	0.911117	1
Es	0.034364	1.390360	-0.433593	99
Es	-0.687240	-1.080884	0.238731	99
Es	-0.854448	-1.285817	0.951175	99
Es	0.254552	0.078286	0.262268	99
Es	0.416936	0.384643	-0.436641	99
Es	-0.427856	-2.658009	-0.455029	99
Es	0.402646	2.323371	1.376813	99
Es	-0.084514	0.734719	0.452906	99
Es	-1.014482	1.578956	0.254357	99
Es	-0.004538	0.822842	-1.528277	99
Es	0.036057	-2.083972	-0.808025	99
Es	-0.046725	-2.175496	-0.473807	99
Es	0.198341	2.057329	0.771746	99
Es	-0.287663	1.482953	0.284629	99
Es	-0.328099	-1.718046	-0.143869	99
Es	0.345603	2.698651	0.994392	99
Es	0.440718	2.419057	1.088462	99
Es	1.082183	1.224674	-1.093284	99
Es	0.407948	0.968962	-0.944506	99
Es	-0.222340	-0.488518	0.242003	99
Es	0.445413	-2.355811	-0.142388	99
Es	0.860128	-0.054244	0.664846	99
Es	0.949869	2.373469	0.968223	99
Es	-1.331456	-0.899318	-0.108961	99
39
Properties=species:S:1:pos:R:3:Z:I:1 energy=-286.07115621872634 field_type=dipole dipole="0.000000 0.000000 0.000000" charge=0
N	-0.046578	-2.175333	-0.474333	7
C	-0.687318	-1.080793	0.238807	6
C	0.254582	0.078157	0.262367	6
C	0.407992	0.968997	-0.944663	6
C	-0.287898	1.482907	0.284577	6
O	0.440592	2.419327	1.088697	8
H	-0.674958	-2.976393	-0.488413	1
H	0.780352	-2.475183	0.039077	1
H	-0.928618	-1.388993	1.262407	1
H	-1.627298	-0.823753	-0.263673	1
H	1.135221	-0.127573	0.858567	1
H	-0.197588	0.754147	-1.818683	1
H	1.399231	1.333207	-1.181833	1
H	-1.363788	1.617077	0.225977	1
H	1.396072	2.394197	0.911117	1
Es	-0.287664	1.482953	0.284634	99
Es	-0.427755	-2.657872	-0.455342	99
Es	0.949914	2.373739	0.967422	99
Es	-0.854410	-1.285815	0.951239	99
Es	0.440734	2.419169	1.088462	99
Es	-0.687244	-1.080884	0.238733	99
Es	0.034361	1.390421	-0.433501	99
Es	0.403181	2.321895	1.376453	99
Es	0.445294	-2.356032	-0.142285	99
Es	1.082395	1.224638	-1.093453	99
Es	0.344762	2.699024	0.995524	99
Es	-0.084440	0.734582	0.452869	99
Es	0.860225	-0.054341	0.664911	99
Es	0.407946	0.968962	-0.944505	99
Es	0.416697	0.384606	-0.436678	99
Es	-0.046725	-2.175497	-0.473809	99
Es	-0.004486	0.822953	-1.527984	99
Es	-1.014556	1.579110	0.254269	99
Es	-0.222417	-0.488490	0.241933	99
Es	-0.328172	-1.718378	-0.143484	99
Es	0.254551	0.078287	0.262266	99
Es	-1.331470	-0.899280	-0.108996	99
Es	0.036167	-2.083517	-0.808192	99
Es	0.198509	2.057924	0.771685	99
39
Properties=species:S:1:pos:R:3:Z:I:1 energy=-286.07115621872634 field_type=dipole dipole="0.000000 0.000000 0.000000" charge=0
N	-0.046578	-2.175333	-0.474333	7
C	-0.687318	-1.080793	0.238807	6
C	0.254582	0.078157	0.262367	6
C	0.407992	0.968997	-0.944663	6
C	-0.287898	1.482907	0.284577	6
O	0.440592	2.419327	1.088697	8
H	-0.674958	-2.976393	-0.488413	1
H	0.780352	-2.475183	0.039077	1
H	-0.928618	-1.388993	1.262407	1
H	-1.627298	-0.823753	-0.263673	1
H	1.135221	-0.127573	0.858567	1
H	-0.197588	0.754147	-1.818683	1
H	1.399231	1.333207	-1.181833	1
H	-1.363788	1.617077	0.225977	1
H	1.396072	2.394197	0.911117	1
Es	0.254552	0.078282	0.262265	99
Es	-0.328084	-1.717710	-0.144002	99
Es	0.034383	1.390369	-0.433897	99
Es	0.416608	0.384414	-0.436605	99
Es	-0.854319	-1.285836	0.951201	99
Es	-0.222341	-0.488493	0.241993	99
Es	-0.004363	0.823005	-1.527748	99
Es	0.440776	2.419101	1.088473	99
Es	0.344026	2.699061	0.995479	99
Es	0.860218	-0.054330	0.664901	99
Es	0.407948	0.968956	-0.944503	99
Es	-1.331586	-0.899290	-0.109017	99
Es	1.082402	1.224757	-1.093589	99
Es	0.950198	2.373919	0.967227	99
Es	0.035591	-2.084568	-0.808471	99
Es	-0.084525	0.734739	0.453028	99
Es	-0.687245	-1.080882	0.238733	99
Es	-1.014622	1.579044	0.254456	99
Es	-0.427552	-2.657642	-0.454298	99
Es	0.445640	-2.355807	-0.142504	99
Es	-0.287663	1.482953	0.284630	99
Es	-0.046721	-2.175510	-0.473815	99
Es	0.199115	2.058359	0.771854	99
Es	0.402961	2.321268	1.376381	99
39
Properties=species:S:1:pos:R:3:Z:I:1 energy=-286.07115621872634 field_type=dipole dipole="0.000000 0.000000 0.000000" charge=0
N	-0.046578	-2.175333	-0.474333	7
C	-0.687318	-1.080793	0.238807	6
C	0.254582	0.078157	0.262367	6
C	0.407992	0.968997	-0.944663	6
C	-0.287898	1.482907	0.284577	6
O	0.440592	2.419327	1.088697	8
H	-0.674958	-2.976393	-0.488413	1
H	0.780352	-2.475183	0.039077	1
H	-0.928618	-1.388993	1.262407	1
H	-1.627298	-0.823753	-0.263673	1
H	1.135221	-0.127573	0.858567	1
H	-0.197588	0.754147	-1.818683	1
H	1.399231	1.333207	-1.181833	1
H	-1.363788	1.617077	0.225977	1
H	1.396072	2.394197	0.911117	1
Es	-0.222437	-0.488371	0.241910	99
Es	0.950131	2.374054	0.966652	99
Es	0.416366	0.384501	-0.436756	99
Es	0.445661	-2.355874	-0.142472	99
Es	-0.287661	1.482940	0.284625	99
Es	-0.046724	-2.175497	-0.473814	99
Es	-1.331574	-0.899288	-0.109047	99
Es	-0.687244	-1.080882	0.238733	99
Es	0.403569	2.320600	1.376088	99
Es	0.407946	0.968960	-0.944506	99
Es	0.199558	2.058277	0.772564	99
Es	0.343019	2.699523	0.995544	99
Es	0.860357	-0.054521	0.664861	99
Es	1.082554	1.224709	-1.093712	99
Es	0.440730	2.419151	1.088528	99
Es	0.035631	-2.084158	-0.808413	99
Es	-0.084391	0.734701	0.453082	99
Es	-0.427649	-2.657685	-0.454580	99
Es	-0.004390	0.823084	-1.527572	99
Es	-0.854298	-1.285804	0.951285	99
Es	0.254552	0.078285	0.262268	99
Es	-1.014694	1.579089	0.254467	99
Es	-0.328051	-1.718008	-0.143786	99
Es	0.034434	1.390376	-0.433778	99
39
Properties=species:S:1:pos:R:3:Z:I:1 energy=-286.07115621872634 field_type=dipole dipole="0.000000 0.000000 0.000000" charge=0
N	-0.046578	-2.175333	-0.474333	7
C	-0.687318	-1.080793	0.238807	6
C	0.254582	0.078157	0.262367	6
C	0.407992	0.968997	-0.944663	6
C	-0.287898	1.482907	0.284577	6
O	0.440592	2.419327	1.088697	8
H	-0.674958	-2.976393	-0.488413	1
H	0.780352	-2.475183	0.039077	1
H	-0.928618	-1.388993	1.262407	1
H	-1.627298	-0.823753	-0.263673	1
H	1.135221	-0.127573	0.858567	1
H	-0.197588	0.754147	-1.818683	1
H	1.399231	1.333207	-1.181833	1
H	-1.363788	1.617077	0.225977	1
H	1.396072	2.394197	0.911117	1
Es	0.440801	2.418928	1.088538	99
Es	-0.084234	0.734323	0.453112	99
Es	0.034316	1.390610	-0.434085	99
Es	0.416038	0.384828	-0.436441	99
Es	-0.287663	1.482955	0.284629	99
Es	-0.427571	-2.657375	-0.454480	99
Es	0.950430	2.373597	0.967061	99
Es	-1.014773	1.579126	0.254432	99
Es	-0.687244	-1.080883	0.238733	99
Es	-0.328056	-1.717808	-0.143880	99
Es	0.402254	2.322260	1.377008	99
Es	0.343292	2.698707	0.993352	99
Es	0.860439	-0.054431	0.664837	99
Es	-0.854388	-1.285833	0.951327	99
Es	-0.222464	-0.488550	0.241901	99
Es	0.254553	0.078284	0.262266	99
Es	-0.046740	-2.175508	-0.473815	99
Es	0.200200	2.058078	0.773367	99
Es	0.407946	0.968963	-0.944504	99
Es	1.082660	1.224673	-1.093813	99
Es	0.035210	-2.084450	-0.808265	99
Es	-1.331472	-0.899208	-0.109074	99
Es	0.446047	-2.356079	-0.142673	99
Es	-0.004184	0.822951	-1.527359	99
39
Properties=species:S:1:pos:R:3:Z:I:1 energy=-286.07115621872634 field_type=dipole dipole="0.000000 0.000000 0.000000" charge=0
N	-0.046578	-2.175333	-0.474333	7
C	-0.687318	-1.080793	0.238807	6
C	0.254582	0.078157	0.262367	6
C	0.407992	0.968997	-0.944663	6
C	-0.287898	1.482907	0.284577	6
O	0.440592	2.419327	1.088697	8
H	-0.674958	-2.976393	-0.488413	1
H	0.780352	-2.475183	0.039077	1
H	-0.928618	-1.388993	1.262407	1
H	-1.627298	-0.823753	-0.263673	1
H	1.135221	-0.127573	0.858567	1
H	-0.197588	0.754147	-1.818683	1
H	1.399231	1.333207	-1.181833	1
H	-1.363788	1.617077	0.225977	1
H	1.396072	2.394197	0.911117	1
Es	0.254552	0.078287	0.262268	99
Es	0.445730	-2.356058	-0.142211	99
Es	-0.328051	-1.717786	-0.144228	99
Es	-0.287663	1.482952	0.284631	99
Es	-0.004166	0.823119	-1.527183	99
Es	0.402307	2.321991	1.376739	99
Es	0.343194	2.699131	0.993356	99
Es	0.440740	2.419078	1.088496	99
Es	0.407946	0.968963	-0.944504	99
Es	0.860462	-0.054509	0.664777	99
Es	0.950484	2.373097	0.967092	99
Es	1.082704	1.224750	-1.093909	99
Es	-1.014931	1.579059	0.254487	99
Es	-0.046732	-2.175510	-0.473816	99
Es	-1.331533	-0.899184	-0.109025	99
Es	-0.222476	-0.488431	0.242054	99
Es	-0.084069	0.734555	0.452992	99
Es	0.200270	2.058272	0.773622	99
Es	-0.854328	-1.285873	0.951284	99
Es	0.034297	1.390455	-0.433880	99
Es	0.035406	-2.084735	-0.808953	99
Es	-0.427506	-2.657115	-0.453937	99
Es	-0.687244	-1.080883	0.238733	99
Es	0.416004	0.384533	-0.436714	99
39
Properties=species:S:1:pos:R:3:Z:I:1 energy=-286.07115621872634 field_type=dipole dipole="0.000000 0.000000 0.000000" charge=0
N	-0.046578	-2.175333	-0.474333	7
C	-0.687318	-1.080793	0.238807	6
C	0.254582	0.078157	0.262367	6
C	0.407992	0.968997	-0.944663	6
C	-0.287898	1.482907	0.284577	6
O	0.440592	2.419327	1.088697	8
H	-0.674958	-2.976393	-0.488413	1
H	0.780352	-2.475183	0.039077	1
H	-0.928618	-1.388993	1.262407	1
H	-1.627298	-0.823753	-0.263673	1
H	1.135221	-0.127573	0.858567	1
H	-0.197588	0.754147	-1.818683	1
H	1.399231	1.333207	-1.181833	1
H	-1.363788	1.617077	0.225977	1
H	1.396072	2.394197	0.911117	1
Es	-0.327985	-1.718022	-0.143887	99
Es	0.034358	-2.084618	-0.808615	99
Es	-0.004069	0.823107	-1.527055	99
Es	-0.854346	-1.285831	0.951261	99
Es	0.950505	2.372900	0.967100	99
Es	-0.046724	-2.175490	-0.473801	99
Es	0.446645	-2.355558	-0.143058	99
Es	0.343603	2.698638	0.992642	99
Es	-0.687245	-1.080881	0.238734	99
Es	0.860432	-0.054535	0.664820	99
Es	-0.427356	-2.657492	-0.453663	99
Es	-1.331580	-0.899183	-0.109158	99
Es	0.034170	1.390753	-0.433983	99
Es	0.440746	2.419157	1.088423	99
Es	-0.084047	0.734558	0.452923	99
Es	0.407945	0.968968	-0.944502	99
Es	-0.222511	-0.488462	0.242096	99
Es	0.200491	2.058573	0.773536	99
Es	-1.014843	1.579166	0.254517	99
Es	0.416005	0.384283	-0.436618	99
Es	0.401547	2.322185	1.377525	99
Es	-0.287663	1.482946	0.284634	99
Es	0.254551	0.078287	0.262269	99
Es	1.082769	1.224711	-1.093967	99
39
Properties=species:S:1:pos:R:3:Z:I:1 energy=-286.07115621872634 field_type=dipole dipole="0.000000 0.000000 0.000000" charge=0
N	-0.046578	-2.175333	-0.474333	7
C	-0.687318	-1.080793	0.238807	6
C	0.254582	0.078157	0.262367	6
C	0.407992	0.968997	-0.944663	6
C	-0.287898	1.482907	0.284577	6
O	0.440592	2.419327	1.088697	8
H	-0.674958	-2.976393	-0.488413	1
H	0.780352	-2.475183	0.039077	1
H	-0.928618	-1.388993	1.262407	1
H	-1.627298	-0.823753	-0.263673	1
H	1.135221	-0.127573	0.858567	1
H	-0.197588	0.754147	-1.818683	1
H	1.399231	1.333207	-1.181833	1
H	-1.363788	1.617077	0.225977	1
H	1.396072	2.394197	0.911117	1
Es	0.950508	2.373642	0.965980	99
Es	0.403198	2.320998	1.376449	99
Es	-0.287663	1.482952	0.284629	99
Es	-0.327975	-1.717968	-0.143713	99
Es	0.860509	-0.054678	0.664797	99
Es	-0.046729	-2.175501	-0.473802	99
Es	1.082823	1.224790	-1.094115	99
Es	0.034486	1.390338	-0.433854	99
Es	0.415904	0.384448	-0.436875	99
Es	0.446173	-2.356046	-0.142632	99
Es	-1.014885	1.579207	0.254538	99
Es	-0.004279	0.823362	-1.526930	99
Es	0.440705	2.419126	1.088427	99
Es	-0.084109	0.734519	0.453228	99
Es	0.034880	-2.084512	-0.808841	99
Es	-1.331635	-0.899232	-0.109190	99
Es	-0.427345	-2.657120	-0.453997	99
Es	0.200522	2.058322	0.774120	99
Es	-0.687244	-1.080883	0.238732	99
Es	0.254550	0.078293	0.262272	99
Es	-0.854281	-1.285793	0.951307	99
Es	0.407946	0.968961	-0.944502	99
Es	0.341956	2.699316	0.994176	99
Es	-0.222617	-0.488384	0.241969	99
39
Properties=species:S:1:pos:R:3:Z:I:1 energy=-286.07115621872634 field_type=dipole dipole="0.000000 0.000000 0.000000" charge=0
N	-0.046578	-2.175333	-0.474333	7
C	-0.687318	-1.080793	0.238807	6
C	0.254582	0.078157	0.262367	6
C	0.407992	0.968997	-0.944663	6
C	-0.287898	1.482907	0.284577	6
O	0.440592	2.419327	1.088697	8
H	-0.674958	-2.976393	-0.488413	1
H	0.780352	-2.475183	0.039077	1
H	-0.928618	-1.388993	1.262407	1
H	-1.627298	-0.823753	-0.263673	1
H	1.135221	-0.127573	0.858567	1
H	-0.197588	0.754147	-1.818683	1
H	1.399231	1.333207	-1.181833	1
H	-1.363788	1.617077	0.225977	1
H	1.396072	2.394197	0.911117	1
Es	0.446571	-2.355867	-0.142938	99
Es	0.407946	0.968960	-0.944502	99
Es	1.082833	1.224838	-1.094192	99
Es	-0.222489	-0.488369	0.242125	99
Es	-0.084027	0.734433	0.453046	99
Es	0.860458	-0.054598	0.664857	99
Es	-0.046720	-2.175480	-0.473828	99
Es	-0.687244	-1.080883	0.238733	99
Es	0.402204	2.321176	1.376849	99
Es	-0.003958	0.823298	-1.526669	99
Es	0.415828	0.384118	-0.436730	99
Es	0.034354	-2.084734	-0.808854	99
Es	0.254552	0.078287	0.262268	99
Es	-1.331547	-0.899209	-0.109282	99
Es	0.440711	2.419116	1.088469	99
Es	-1.014950	1.579262	0.254505	99
Es	0.034184	1.390674	-0.434083	99
Es	-0.427192	-2.657109	-0.453636	99
Es	0.200434	2.058833	0.773399	99
Es	-0.854413	-1.285856	0.951306	99
Es	-0.287665	1.482948	0.284636	99
Es	0.342707	2.698633	0.994027	99
Es	-0.327990	-1.717910	-0.143704	99
Es	0.950808	2.373598	0.966369	99
39
Properties=species:S:1:pos:R:3:Z:I:1 energy=-286.07115621872634 field_type=dipole dipole="0.000000 0.000000 0.000000" charge=0
N	-0.046578	-2.175333	-0.474333	7
C	-0.687318	-1.080793	0.238807	6
C	0.254582	0.078157	0.262367	6
C	0.407992	0.968997	-0.944663	6
C	-0.287898	1.482907	0.284577	6
O	0.440592	2.419327	1.088697	8
H	-0.674958	-2.976393	-0.488413	1
H	0.780352	-2.475183	0.039077	1
H	-0.928618	-1.388993	1.262407	1
H	-1.627298	-0.823753	-0.263673	1
H	1.135221	-0.127573	0.858567	1
H	-0.197588	0.754147	-1.818683	1
H	1.399231	1.333207	-1.181833	1
H	-1.363788	1.617077	0.225977	1
H	1.396072	2.394197	0.911117	1
Es	0.401219	2.320049	1.376591	99
Es	0.446366	-2.355956	-0.142739	99
Es	-0.287662	1.482951	0.284624	99
Es	0.034684	-2.084986	-0.808675	99
Es	-0.687244	-1.080883	0.238734	99
Es	0.440750	2.419149	1.088426	99
Es	-1.014921	1.579223	0.254554	99
Es	-0.854284	-1.285904	0.951284	99
Es	-1.331651	-0.899200	-0.109205	99
Es	0.407947	0.968951	-0.944501	99
Es	0.860528	-0.054593	0.664753	99
Es	-0.004018	0.823265	-1.526489	99
Es	-0.222629	-0.488377	0.242266	99
Es	-0.427395	-2.657099	-0.453709	99
Es	0.950940	2.372788	0.967148	99
Es	1.082947	1.224954	-1.094361	99
Es	0.254551	0.078287	0.262268	99
Es	0.201081	2.060050	0.772834	99
Es	0.034214	1.390416	-0.434163	99
Es	0.342874	2.699347	0.994080	99
Es	-0.327882	-1.717503	-0.144100	99
Es	-0.084012	0.734578	0.453149	99
Es	-0.046730	-2.175510	-0.473806	99
Es	0.415725	0.384160	-0.436792	99
39
Properties=species:S:1:pos:R:3:Z:I:1 energy=-286.07115621872634 field_type=dipole dipole="0.000000 0.000000 0.000000" charge=0
N	-0.046578	-2.175333	-0.474333	7
C	-0.687318	-1.080793	0.238807	6
C	0.254582	0.078157	0.262367	6
C	0.407992	0.968997	-0.944663	6
C	-0.287898	1.482907	0.284577	6
O	0.440592	2.419327	1.088697	8
H	-0.674958	-2.976393	-0.488413	1
H	0.780352	-2.475183	0.039077	1
H	-0.928618	-1.388993	1.262407	1
H	-1.627298	-0.823753	-0.263673	1
H	1.135221	-0.127573	0.858567	1
H	-0.197588	0.754147	-1.818683	1
H	1.399231	1.333207	-1.181833	1
H	-1.363788	1.617077	0.225977	1
H	1.396072	2.394197	0.911117	1
Es	0.950966	2.373019	0.966535	99
Es	0.401776	2.322796	1.377252	99
Es	-0.046730	-2.175503	-0.473796	99
Es	0.860490	-0.054650	0.664837	99
Es	-0.328005	-1.717986	-0.143774	99
Es	-1.014965	1.579304	0.254519	99
Es	0.254551	0.078288	0.262269	99
Es	0.201289	2.057933	0.775298	99
Es	0.407947	0.968962	-0.944505	99
Es	-0.222703	-0.488308	0.242196	99
Es	0.033943	-2.084723	-0.808805	99
Es	-0.083873	0.734507	0.453081	99
Es	-0.003996	0.823385	-1.526601	99
Es	-0.687243	-1.080883	0.238731	99
Es	0.440739	2.419095	1.088465	99
Es	-1.331518	-0.899205	-0.109256	99
Es	0.415859	0.384093	-0.437121	99
Es	0.342053	2.698438	0.991485	99
Es	0.034163	1.390456	-0.433799	99
Es	0.446963	-2.355914	-0.143056	99
Es	-0.287663	1.482952	0.284629	99
Es	-0.854392	-1.285876	0.951379	99
Es	1.082914	1.224925	-1.094225	99
Es	-0.427166	-2.656947	-0.453564	99
39
Properties=species:S:1:pos:R:3:Z:I:1 energy=-286.07115621872634 field_type=dipole dipole="0.000000 0.000000 0.000000" charge=0
N	-0.046578	-2.175333	-0.474333	7
C	-0.687318	-1.080793	0.238807	6
C	0.254582	0.078157	0.262367	6
C	0.407992	0.968997	-0.944663	6
C	-0.287898	1.482907	0.284577	6
O	0.440592	2.419327	1.088697	8
H	-0.674958	-2.976393	-0.488413	1
H	0.780352	-2.475183	0.039077	1
H	-0.928618	-1.388993	1.262407	1
H	-1.627298	-0.823753	-0.263673	1
H	1.135221	-0.127573	0.858567	1
H	-0.197588	0.754147	-1.818683	1
H	1.399231	1.333207	-1.181833	1
H	-1.363788	1.617077	0.225977	1
H	1.396072	2.394197	0.911117	1
Es	1.083036	1.224774	-1.094347	99
Es	0.415641	0.384271	-0.436970	99
Es	0.860531	-0.054614	0.664939	99
Es	0.341373	2.700210	0.995569	99
Es	-0.854330	-1.285919	0.951315	99
Es	-0.427246	-2.656963	-0.453108	99
Es	0.446838	-2.355772	-0.143003	99
Es	-0.222573	-0.488389	0.242192	99
Es	0.407947	0.968963	-0.944505	99
Es	-0.046731	-2.175516	-0.473797	99
Es	-1.331623	-0.899138	-0.109288	99
Es	0.254555	0.078280	0.262263	99
Es	-0.287662	1.482952	0.284627	99
Es	-0.687244	-1.080883	0.238733	99
Es	0.034358	1.390561	-0.434034	99
Es	-1.015053	1.579242	0.254619	99
Es	-0.083946	0.734489	0.453016	99
Es	0.033984	-2.085013	-0.809060	99
Es	0.950283	2.373184	0.964572	99
Es	-0.327853	-1.717767	-0.144015	99
Es	0.404048	2.319360	1.376081	99
Es	0.200303	2.059467	0.774315	99
Es	-0.004013	0.823397	-1.526459	99
Es	0.440774	2.418980	1.088519	99
39
Properties=species:S:1:pos:R:3:Z:I:1 energy=-286.07115621872634 field_type=dipole dipole="0.000000 0.000000 0.000000" charge=0
N	-0.046578	-2.175333	-0.474333	7
C	-0.687318	-1.080793	0.238807	6
C	0.254582	0.078157	0.262367	6
C	0.407992	0.968997	-0.944663	6
C	-0.287898	1.482907	0.284577	6
O	0.440592	2.419327	1.088697	8
H	-0.674958	-2.976393	-0.488413	1
H	0.780352	-2.475183	0.039077	1
H	-0.928618	-1.388993	1.262407	1
H	-1.627298	-0.823753	-0.263673	1
H	1.135221	-0.127573	0.858567	1
H	-0.197588	0.754147	-1.818683	1
H	1.399231	1.333207	-1.181833	1
H	-1.363788	1.617077	0.225977	1
H	1.396072	2.394197	0.911117	1
Es	0.440710	2.419155	1.088506	99
Es	0.415504	0.384181	-0.436821	99
Es	0.340912	2.700060	0.995616	99
Es	-0.687244	-1.080883	0.238733	99
Es	0.446833	-2.355996	-0.142939	99
Es	-0.427190	-2.656755	-0.453261	99
Es	-0.287664	1.482960	0.284631	99
Es	-1.331583	-0.899143	-0.109262	99
Es	0.407942	0.968959	-0.944493	99
Es	-0.046729	-2.175502	-0.473786	99
Es	0.254552	0.078291	0.262268	99
Es	0.033986	-2.084966	-0.809102	99
Es	-0.004009	0.823367	-1.526312	99
Es	-1.015049	1.579216	0.254647	99
Es	0.201135	2.059976	0.773821	99
Es	0.950856	2.373541	0.965446	99
Es	0.860533	-0.054527	0.664847	99
Es	-0.222560	-0.488437	0.242261	99
Es	0.403160	2.318503	1.375631	99
Es	1.083109	1.224779	-1.094471	99
Es	-0.854344	-1.285865	0.951344	99
Es	-0.327940	-1.717867	-0.143893	99
Es	0.034356	1.390568	-0.434255	99
Es	-0.083880	0.734544	0.453015	99
