33
Properties=species:S:1:pos:R:3:Z:I:1 energy=-283.7448625598307 field_type=dipole dipole="0.000000 0.000000 0.000000" charge=0
O	-1.939671	-0.230148	0.365575	8
C	-0.514941	-0.232358	0.544865	6
C	0.250199	-0.982358	-0.505215	6
C	0.278999	0.524762	-0.489705	6
C	1.475179	1.201072	-0.079755	6
N	2.440759	1.744982	0.261975	7
H	-2.390841	0.233102	1.093895	1
H	-0.133521	-0.287738	1.560806	1
H	-0.313361	-1.470488	-1.292305	1
H	1.132979	-1.528778	-0.192735	1
H	-0.285781	1.027952	-1.267405	1
Es	-1.939468	-0.229893	0.365810	99
Es	-1.985896	-0.072474	0.110945	99
Es	2.032462	1.282155	0.330666	99
Es	-0.185201	-0.771363	0.087278	99
Es	-0.261995	-0.257421	1.229701	99
Es	1.840994	1.755829	0.161718	99
Es	2.132285	1.451700	-0.168175	99
Es	-2.016107	-0.518720	0.393221	99
Es	0.402028	-0.191474	-0.631587	99
Es	-0.120762	0.346096	0.095198	99
Es	2.746580	1.916334	0.371742	99
Es	-1.396041	-0.205816	0.462426	99
Es	0.910755	0.875781	-0.274922	99
Es	0.845580	-1.336698	-0.291884	99
Es	-0.515085	-0.232301	0.544654	99
Es	-0.082911	0.862422	-0.996353	99
Es	-2.151693	0.027330	0.764127	99
Es	-0.127935	-1.294992	-1.032255	99
Es	2.440399	1.744771	0.261847	99
Es	0.279115	0.524666	-0.489588	99
Es	1.474889	1.200904	-0.079859	99
Es	0.250175	-0.982146	-0.505150	99
33
Properties=species:S:1:pos:R:3:Z:I:1 energy=-283.7448625598307 field_type=dipole dipole="0.000000 0.000000 0.000000" charge=0
O	-1.939671	-0.230148	0.365575	8
C	-0.514941	-0.232358	0.544865	6
C	0.250199	-0.982358	-0.505215	6
C	0.278999	0.524762	-0.489705	6
C	1.475179	1.201072	-0.079755	6
N	2.440759	1.744982	0.261975	7
H	-2.390841	0.233102	1.093895	1
H	-0.133521	-0.287738	1.560806	1
H	-0.313361	-1.470488	-1.292305	1
H	1.132979	-1.528778	-0.192735	1
H	-0.285781	1.027952	-1.267405	1
Es	-0.183192	-0.771840	0.088321	99
Es	0.400810	-0.190289	-0.631878	99
Es	-0.128925	-1.296507	-1.032702	99
Es	-1.939530	-0.230023	0.365810	99
Es	2.140980	1.426945	-0.154961	99
Es	0.844439	-1.335449	-0.292070	99
Es	-0.515087	-0.232297	0.544655	99
Es	2.748835	1.920724	0.370547	99
Es	-0.262271	-0.257027	1.228981	99
Es	2.016924	1.303742	0.342392	99
Es	-0.121790	0.346059	0.093932	99
Es	0.912546	0.876073	-0.273714	99
Es	0.279114	0.524664	-0.489587	99
Es	1.474873	1.200900	-0.079866	99
Es	-2.026026	-0.528681	0.375284	99
Es	0.250175	-0.982152	-0.505151	99
Es	1.846125	1.756086	0.136909	99
Es	-1.392962	-0.200208	0.457820	99
Es	-1.979146	-0.067926	0.134909	99
Es	-2.151986	0.026730	0.762565	99
Es	-0.082120	0.860398	-0.994484	99
Es	2.440384	1.744770	0.261844	99
33
Properties=species:S:1:pos:R:3:Z:I:1 energy=-283.7448625598307 field_type=dipole dipole="0.000000 0.000000 0.000000" charge=0
O	-1.939671	-0.230148	0.365575	8
C	-0.514941	-0.232358	0.544865	6
C	0.250199	-0.982358	-0.505215	6
C	0.278999	0.524762	-0.489705	6
C	1.475179	1.201072	-0.079755	6
N	2.440759	1.744982	0.261975	7
H	-2.390841	0.233102	1.093895	1
H	-0.133521	-0.287738	1.560806	1
H	-0.313361	-1.470488	-1.292305	1
H	1.132979	-1.528778	-0.192735	1
H	-0.285781	1.027952	-1.267405	1
Es	-0.081449	0.859025	-0.993422	99
Es	2.140349	1.424708	-0.153810	99
Es	1.847961	1.752039	0.137576	99
Es	-0.122493	0.345668	0.093112	99
Es	0.913347	0.876595	-0.273269	99
Es	-1.391206	-0.198474	0.456305	99
Es	-2.151461	0.024384	0.762059	99
Es	2.014643	1.308875	0.341254	99
Es	2.440384	1.744770	0.261844	99
Es	2.750266	1.922356	0.369363	99
Es	-1.939488	-0.230023	0.365915	99
Es	-0.262334	-0.257092	1.228703	99
Es	-0.515088	-0.232298	0.544656	99
Es	1.474882	1.200875	-0.079840	99
Es	0.250176	-0.982149	-0.505154	99
Es	-2.034655	-0.531986	0.358858	99
Es	-0.182118	-0.771493	0.089018	99
Es	0.279113	0.524665	-0.489587	99
Es	0.400497	-0.189135	-0.632129	99
Es	-0.129623	-1.297505	-1.032882	99
Es	-1.973112	-0.064420	0.153081	99
Es	0.843581	-1.334695	-0.292093	99
33
Properties=species:S:1:pos:R:3:Z:I:1 energy=-283.7448625598307 field_type=dipole dipole="0.000000 0.000000 0.000000" charge=0
O	-1.939671	-0.230148	0.365575	8
C	-0.514941	-0.232358	0.544865	6
C	0.250199	-0.982358	-0.505215	6
C	0.278999	0.524762	-0.489705	6
C	1.475179	1.201072	-0.079755	6
N	2.440759	1.744982	0.261975	7
H	-2.390841	0.233102	1.093895	1
H	-0.133521	-0.287738	1.560806	1
H	-0.313361	-1.470488	-1.292305	1
H	1.132979	-1.528778	-0.192735	1
H	-0.285781	1.027952	-1.267405	1
Es	-0.262462	-0.257057	1.228237	99
Es	-0.181360	-0.771418	0.089946	99
Es	2.440384	1.744770	0.261844	99
Es	0.400195	-0.187503	-0.632466	99
Es	-1.969565	-0.065234	0.166179	99
Es	-0.515088	-0.232300	0.544656	99
Es	-0.130222	-1.298188	-1.032646	99
Es	-1.939526	-0.230018	0.365831	99
Es	-0.080864	0.857960	-0.992731	99
Es	1.848397	1.648293	0.323520	99
Es	0.250180	-0.982147	-0.505157	99
Es	0.279117	0.524663	-0.489590	99
Es	-2.039520	-0.533249	0.348656	99
Es	-1.390086	-0.195763	0.454122	99
Es	2.752466	1.922215	0.366181	99
Es	0.914162	0.876580	-0.273026	99
Es	2.030636	1.603011	-0.167483	99
Es	-0.122977	0.345112	0.092493	99
Es	1.474870	1.200901	-0.079858	99
Es	2.121838	1.234939	0.171716	99
Es	-2.151481	0.023379	0.761337	99
Es	0.843074	-1.334256	-0.292201	99
33
Properties=species:S:1:pos:R:3:Z:I:1 energy=-283.7448625598307 field_type=dipole dipole="0.000000 0.000000 0.000000" charge=0
O	-1.939671	-0.230148	0.365575	8
C	-0.514941	-0.232358	0.544865	6
C	0.250199	-0.982358	-0.505215	6
C	0.278999	0.524762	-0.489705	6
C	1.475179	1.201072	-0.079755	6
N	2.440759	1.744982	0.261975	7
H	-2.390841	0.233102	1.093895	1
H	-0.133521	-0.287738	1.560806	1
H	-0.313361	-1.470488	-1.292305	1
H	1.132979	-1.528778	-0.192735	1
H	-0.285781	1.027952	-1.267405	1
Es	-2.150916	0.021903	0.760969	99
Es	-0.122775	0.344984	0.091651	99
Es	-0.262543	-0.257054	1.228097	99
Es	2.172483	1.288989	-0.024076	99
Es	0.400138	-0.186622	-0.632314	99
Es	1.474867	1.200896	-0.079858	99
Es	-2.045325	-0.533320	0.336589	99
Es	0.250176	-0.982146	-0.505154	99
Es	-0.130848	-1.298669	-1.032564	99
Es	2.440383	1.744769	0.261844	99
Es	2.751339	1.925187	0.366168	99
Es	-0.180593	-0.771659	0.090275	99
Es	0.842305	-1.334004	-0.292272	99
Es	1.913250	1.470606	0.398122	99
Es	-1.965146	-0.065337	0.179496	99
Es	-0.080710	0.857513	-0.992148	99
Es	-1.389383	-0.194309	0.453104	99
Es	-1.939489	-0.229977	0.365863	99
Es	0.914586	0.876739	-0.273110	99
Es	1.916340	1.723823	-0.046192	99
Es	-0.515083	-0.232282	0.544653	99
Es	0.279113	0.524662	-0.489586	99
33
Properties=species:S:1:pos:R:3:Z:I:1 energy=-283.7448625598307 field_type=dipole dipole="0.000000 0.000000 0.000000" charge=0
O	-1.939671	-0.230148	0.365575	8
C	-0.514941	-0.232358	0.544865	6
C	0.250199	-0.982358	-0.505215	6
C	0.278999	0.524762	-0.489705	6
C	1.475179	1.201072	-0.079755	6
N	2.440759	1.744982	0.261975	7
H	-2.390841	0.233102	1.093895	1
H	-0.133521	-0.287738	1.560806	1
H	-0.313361	-1.470488	-1.292305	1
H	1.132979	-1.528778	-0.192735	1
H	-0.285781	1.027952	-1.267405	1
Es	-0.179982	-0.771248	0.090220	99
Es	-0.131218	-1.299005	-1.032584	99
Es	0.250172	-0.982137	-0.505147	99
Es	-2.150467	0.021010	0.760359	99
Es	0.842164	-1.333721	-0.292283	99
Es	-0.080509	0.857124	-0.991909	99
Es	-1.388886	-0.193984	0.452729	99
Es	1.951934	1.398638	0.388766	99
Es	-1.939512	-0.230070	0.365876	99
Es	0.914660	0.877098	-0.272959	99
Es	0.279116	0.524666	-0.489587	99
Es	-1.960988	-0.066061	0.190797	99
Es	-2.050531	-0.532259	0.326093	99
Es	1.883008	1.745313	0.025841	99
Es	2.751444	1.925301	0.367095	99
Es	2.440384	1.744770	0.261844	99
Es	2.167271	1.339189	-0.087879	99
Es	0.400018	-0.185815	-0.632265	99
Es	-0.123134	0.344573	0.091734	99
Es	1.474868	1.200887	-0.079846	99
Es	-0.262546	-0.257283	1.228002	99
Es	-0.515094	-0.232298	0.544659	99
33
Properties=species:S:1:pos:R:3:Z:I:1 energy=-283.7448625598307 field_type=dipole dipole="0.000000 0.000000 0.000000" charge=0
O	-1.939671	-0.230148	0.365575	8
C	-0.514941	-0.232358	0.544865	6
C	0.250199	-0.982358	-0.505215	6
C	0.278999	0.524762	-0.489705	6
C	1.475179	1.201072	-0.079755	6
N	2.440759	1.744982	0.261975	7
H	-2.390841	0.233102	1.093895	1
H	-0.133521	-0.287738	1.560806	1
H	-0.313361	-1.470488	-1.292305	1
H	1.132979	-1.528778	-0.192735	1
H	-0.285781	1.027952	-1.267405	1
Es	-0.262568	-0.257493	1.227883	99
Es	-1.388373	-0.192794	0.451897	99
Es	0.279116	0.524667	-0.489586	99
Es	0.914826	0.877300	-0.272870	99
Es	2.440376	1.744766	0.261840	99
Es	1.982420	1.351226	0.368614	99
Es	-1.939493	-0.230080	0.365895	99
Es	-2.150365	0.019846	0.760089	99
Es	0.400034	-0.185488	-0.632240	99
Es	2.154373	1.382728	-0.124370	99
Es	0.250175	-0.982143	-0.505151	99
Es	-0.515090	-0.232295	0.544657	99
Es	-0.179689	-0.770709	0.090380	99
Es	-2.053505	-0.531024	0.319087	99
Es	0.841875	-1.333646	-0.292237	99
Es	-0.131608	-1.299218	-1.032514	99
Es	-0.123305	0.344533	0.091555	99
Es	1.864939	1.749797	0.081808	99
Es	-1.958724	-0.067468	0.198818	99
Es	-0.080240	0.856685	-0.991720	99
Es	2.752133	1.924602	0.367568	99
Es	1.474865	1.200896	-0.079846	99
33
Properties=species:S:1:pos:R:3:Z:I:1 energy=-283.7448625598307 field_type=dipole dipole="0.000000 0.000000 0.000000" charge=0
O	-1.939671	-0.230148	0.365575	8
C	-0.514941	-0.232358	0.544865	6
C	0.250199	-0.982358	-0.505215	6
C	0.278999	0.524762	-0.489705	6
C	1.475179	1.201072	-0.079755	6
N	2.440759	1.744982	0.261975	7
H	-2.390841	0.233102	1.093895	1
H	-0.133521	-0.287738	1.560806	1
H	-0.313361	-1.470488	-1.292305	1
H	1.132979	-1.528778	-0.192735	1
H	-0.285781	1.027952	-1.267405	1
Es	-2.055687	-0.530329	0.315191	99
Es	2.440384	1.744769	0.261844	99
Es	-1.939479	-0.230010	0.365893	99
Es	-0.123440	0.343724	0.091188	99
Es	-0.131955	-1.299367	-1.032135	99
Es	2.062973	1.555758	-0.175737	99
Es	2.754305	1.922603	0.365128	99
Es	1.474866	1.200891	-0.079853	99
Es	0.915132	0.877079	-0.272596	99
Es	-1.388142	-0.192119	0.451755	99
Es	0.841668	-1.333634	-0.292372	99
Es	1.842601	1.682514	0.283431	99
Es	-1.957820	-0.067466	0.203155	99
Es	0.279117	0.524665	-0.489589	99
Es	-2.149443	0.018182	0.759722	99
Es	0.400013	-0.183700	-0.632272	99
Es	-0.179494	-0.770783	0.090983	99
Es	-0.080014	0.856325	-0.991710	99
Es	-0.515086	-0.232294	0.544655	99
Es	-0.262590	-0.257591	1.227696	99
Es	2.094089	1.247621	0.220330	99
Es	0.250172	-0.982150	-0.505150	99
33
Properties=species:S:1:pos:R:3:Z:I:1 energy=-283.7448625598307 field_type=dipole dipole="0.000000 0.000000 0.000000" charge=0
O	-1.939671	-0.230148	0.365575	8
C	-0.514941	-0.232358	0.544865	6
C	0.250199	-0.982358	-0.505215	6
C	0.278999	0.524762	-0.489705	6
C	1.475179	1.201072	-0.079755	6
N	2.440759	1.744982	0.261975	7
H	-2.390841	0.233102	1.093895	1
H	-0.133521	-0.287738	1.560806	1
H	-0.313361	-1.470488	-1.292305	1
H	1.132979	-1.528778	-0.192735	1
H	-0.285781	1.027952	-1.267405	1
Es	-2.149039	0.019175	0.758442	99
Es	0.279118	0.524672	-0.489589	99
Es	-0.080007	0.856285	-0.991192	99
Es	2.440383	1.744770	0.261844	99
Es	1.474867	1.200893	-0.079860	99
Es	-1.955930	-0.070527	0.209180	99
Es	0.915073	0.877448	-0.272685	99
Es	0.841344	-1.333509	-0.292283	99
Es	2.165491	1.341068	-0.086895	99
Es	-0.262682	-0.257430	1.227614	99
Es	2.752657	1.925162	0.366202	99
Es	-1.388093	-0.190181	0.450537	99
Es	-0.123207	0.344087	0.090721	99
Es	-1.939501	-0.230106	0.365932	99
Es	-2.057996	-0.530190	0.311559	99
Es	-0.132209	-1.299593	-1.032181	99
Es	0.250177	-0.982149	-0.505154	99
Es	1.885188	1.742071	0.025236	99
Es	-0.515089	-0.232292	0.544656	99
Es	0.399922	-0.183962	-0.632175	99
Es	1.950657	1.400099	0.388912	99
Es	-0.178958	-0.771101	0.090735	99
33
Properties=species:S:1:pos:R:3:Z:I:1 energy=-283.7448625598307 field_type=dipole dipole="0.000000 0.000000 0.000000" charge=0
O	-1.939671	-0.230148	0.365575	8
C	-0.514941	-0.232358	0.544865	6
C	0.250199	-0.982358	-0.505215	6
C	0.278999	0.524762	-0.489705	6
C	1.475179	1.201072	-0.079755	6
N	2.440759	1.744982	0.261975	7
H	-2.390841	0.233102	1.093895	1
H	-0.133521	-0.287738	1.560806	1
H	-0.313361	-1.470488	-1.292305	1
H	1.132979	-1.528778	-0.192735	1
H	-0.285781	1.027952	-1.267405	1
Es	-0.515092	-0.232277	0.544659	99
Es	-1.954962	-0.071673	0.213323	99
Es	2.018647	1.306699	0.331009	99
Es	1.474876	1.200876	-0.079857	99
Es	0.915242	0.877461	-0.272789	99
Es	-0.079889	0.855969	-0.991366	99
Es	0.841318	-1.333388	-0.292262	99
Es	-0.132526	-1.299750	-1.032179	99
Es	-0.123671	0.342950	0.091016	99
Es	-0.178866	-0.770212	0.090928	99
Es	2.753679	1.923506	0.366807	99
Es	0.279119	0.524666	-0.489590	99
Es	-1.939522	-0.230054	0.365892	99
Es	-0.262567	-0.257606	1.227723	99
Es	1.850229	1.741976	0.150334	99
Es	2.131580	1.436124	-0.154871	99
Es	0.400168	-0.182919	-0.632243	99
Es	2.440383	1.744769	0.261844	99
Es	0.250174	-0.982144	-0.505152	99
Es	-2.059582	-0.529008	0.308258	99
Es	-2.148837	0.018384	0.758371	99
Es	-1.387733	-0.189660	0.449705	99
33
Properties=species:S:1:pos:R:3:Z:I:1 energy=-283.7448625598307 field_type=dipole dipole="0.000000 0.000000 0.000000" charge=0
O	-1.939671	-0.230148	0.365575	8
C	-0.514941	-0.232358	0.544865	6
C	0.250199	-0.982358	-0.505215	6
C	0.278999	0.524762	-0.489705	6
C	1.475179	1.201072	-0.079755	6
N	2.440759	1.744982	0.261975	7
H	-2.390841	0.233102	1.093895	1
H	-0.133521	-0.287738	1.560806	1
H	-0.313361	-1.470488	-1.292305	1
H	1.132979	-1.528778	-0.192735	1
H	-0.285781	1.027952	-1.267405	1
Es	0.279118	0.524673	-0.489591	99
Es	-0.178622	-0.770415	0.090984	99
Es	2.440383	1.744769	0.261843	99
Es	0.915240	0.877607	-0.272607	99
Es	-0.515089	-0.232294	0.544656	99
Es	-0.132661	-1.299749	-1.032120	99
Es	-0.079556	0.855817	-0.990878	99
Es	1.855503	1.743996	0.128805	99
Es	2.007165	1.318668	0.344602	99
Es	-2.061819	-0.527925	0.304676	99
Es	-1.953423	-0.072897	0.217646	99
Es	0.400043	-0.182923	-0.632485	99
Es	2.137887	1.421790	-0.147092	99
Es	0.841234	-1.333395	-0.292323	99
Es	0.250175	-0.982147	-0.505153	99
Es	1.474865	1.200889	-0.079851	99
Es	-0.123820	0.343272	0.090906	99
Es	-1.939519	-0.230067	0.365872	99
Es	2.753667	1.923805	0.366853	99
Es	-2.148318	0.018444	0.757904	99
Es	-1.387616	-0.189599	0.449469	99
Es	-0.262668	-0.257630	1.227441	99
33
Properties=species:S:1:pos:R:3:Z:I:1 energy=-283.7448625598307 field_type=dipole dipole="0.000000 0.000000 0.000000" charge=0
O	-1.939671	-0.230148	0.365575	8
C	-0.514941	-0.232358	0.544865	6
C	0.250199	-0.982358	-0.505215	6
C	0.278999	0.524762	-0.489705	6
C	1.475179	1.201072	-0.079755	6
N	2.440759	1.744982	0.261975	7
H	-2.390841	0.233102	1.093895	1
H	-0.133521	-0.287738	1.560806	1
H	-0.313361	-1.470488	-1.292305	1
H	1.132979	-1.528778	-0.192735	1
H	-0.285781	1.027952	-1.267405	1
Es	-2.062338	-0.528130	0.304438	99
Es	-0.123605	0.343218	0.090650	99
Es	1.859651	1.608526	0.350658	99
Es	0.400370	-0.181938	-0.632382	99
Es	-2.147856	0.017908	0.757084	99
Es	1.474863	1.200895	-0.079854	99
Es	2.440384	1.744770	0.261844	99
Es	-0.178570	-0.770156	0.091289	99
Es	2.003159	1.633676	-0.147020	99
Es	-0.079496	0.855388	-0.991044	99
Es	-1.939495	-0.230079	0.365914	99
Es	2.754973	1.923519	0.362876	99
Es	-0.515089	-0.232290	0.544658	99
Es	2.136306	1.242962	0.126313	99
Es	-1.953470	-0.074109	0.219429	99
Es	-0.262770	-0.257973	1.227192	99
Es	-1.387559	-0.187815	0.448649	99
Es	0.279116	0.524664	-0.489588	99
Es	0.840832	-1.333521	-0.292191	99
Es	0.250176	-0.982146	-0.505153	99
Es	0.915571	0.877270	-0.272545	99
Es	-0.132982	-1.299950	-1.031658	99
33
Properties=species:S:1:pos:R:3:Z:I:1 energy=-283.7448625598307 field_type=dipole dipole="0.000000 0.000000 0.000000" charge=0
O	-1.939671	-0.230148	0.365575	8
C	-0.514941	-0.232358	0.544865	6
C	0.250199	-0.982358	-0.505215	6
C	0.278999	0.524762	-0.489705	6
C	1.475179	1.201072	-0.079755	6
N	2.440759	1.744982	0.261975	7
H	-2.390841	0.233102	1.093895	1
H	-0.133521	-0.287738	1.560806	1
H	-0.313361	-1.470488	-1.292305	1
H	1.132979	-1.528778	-0.192735	1
H	-0.285781	1.027952	-1.267405	1
Es	-2.063584	-0.527639	0.302794	99
Es	-1.387493	-0.187491	0.448421	99
Es	1.998041	1.639574	-0.142967	99
Es	0.840662	-1.333420	-0.292242	99
Es	-1.939482	-0.229951	0.365860	99
Es	-0.133097	-1.300068	-1.031582	99
Es	1.861927	1.600810	0.355264	99
Es	0.400352	-0.181280	-0.632359	99
Es	-2.147515	0.018152	0.756517	99
Es	0.279116	0.524673	-0.489586	99
Es	-0.262863	-0.258031	1.227016	99
Es	0.915695	0.877193	-0.272496	99
Es	2.139091	1.244685	0.117578	99
Es	1.474865	1.200888	-0.079853	99
Es	-0.178288	-0.770397	0.091283	99
Es	2.440382	1.744769	0.261844	99
Es	-0.123715	0.343057	0.090731	99
Es	-0.079398	0.855300	-0.990941	99
Es	-1.952658	-0.075366	0.221890	99
Es	-0.515090	-0.232288	0.544656	99
Es	2.755047	1.923665	0.362881	99
Es	0.250176	-0.982145	-0.505153	99
33
Properties=species:S:1:pos:R:3:Z:I:1 energy=-283.7448625598307 field_type=dipole dipole="0.000000 0.000000 0.000000" charge=0
O	-1.939671	-0.230148	0.365575	8
C	-0.514941	-0.232358	0.544865	6
C	0.250199	-0.982358	-0.505215	6
C	0.278999	0.524762	-0.489705	6
C	1.475179	1.201072	-0.079755	6
N	2.440759	1.744982	0.261975	7
H	-2.390841	0.233102	1.093895	1
H	-0.133521	-0.287738	1.560806	1
H	-0.313361	-1.470488	-1.292305	1
H	1.132979	-1.528778	-0.192735	1
H	-0.285781	1.027952	-1.267405	1
Es	-2.147317	0.017145	0.756888	99
Es	-1.950693	-0.076276	0.227611	99
Es	-0.515084	-0.232285	0.544654	99
Es	0.840805	-1.333427	-0.292203	99
Es	1.474864	1.200887	-0.079848	99
Es	-1.939506	-0.230078	0.365915	99
Es	0.250175	-0.982150	-0.505152	99
Es	-0.123833	0.342975	0.090595	99
Es	2.754403	1.923435	0.365939	99
Es	-2.065938	-0.525334	0.296686	99
Es	1.852567	1.740737	0.146005	99
Es	-0.079367	0.855357	-0.990859	99
Es	-0.133309	-1.300024	-1.031752	99
Es	-0.178104	-0.770004	0.091012	99
Es	-1.387296	-0.187773	0.448306	99
Es	0.915500	0.877670	-0.272580	99
Es	2.015769	1.309442	0.334250	99
Es	0.279103	0.524671	-0.489571	99
Es	2.440384	1.744769	0.261844	99
Es	-0.262731	-0.257920	1.227278	99
Es	0.400169	-0.181737	-0.632218	99
Es	2.131609	1.434611	-0.153244	99
33
Properties=species:S:1:pos:R:3:Z:I:1 energy=-283.7448625598307 field_type=dipole dipole="0.000000 0.000000 0.000000" charge=0
O	-1.939671	-0.230148	0.365575	8
C	-0.514941	-0.232358	0.544865	6
C	0.250199	-0.982358	-0.505215	6
C	0.278999	0.524762	-0.489705	6
C	1.475179	1.201072	-0.079755	6
N	2.440759	1.744982	0.261975	7
H	-2.390841	0.233102	1.093895	1
H	-0.133521	-0.287738	1.560806	1
H	-0.313361	-1.470488	-1.292305	1
H	1.132979	-1.528778	-0.192735	1
H	-0.285781	1.027952	-1.267405	1
Es	2.017179	1.307829	0.332706	99
Es	0.400114	-0.181325	-0.632096	99
Es	-1.939411	-0.229655	0.365678	99
Es	-0.262749	-0.257940	1.227217	99
Es	-2.065897	-0.524919	0.294803	99
Es	1.474860	1.200885	-0.079838	99
Es	-2.148090	0.017161	0.756507	99
Es	0.279118	0.524670	-0.489588	99
Es	-1.387370	-0.186959	0.448576	99
Es	-1.950016	-0.078041	0.229798	99
Es	-0.079363	0.855238	-0.990940	99
Es	-0.515095	-0.232297	0.544659	99
Es	-0.177856	-0.769931	0.091120	99
Es	-0.123814	0.342717	0.090459	99
Es	1.852292	1.739996	0.148528	99
Es	0.250176	-0.982142	-0.505153	99
Es	-0.133554	-1.300118	-1.031598	99
Es	2.754499	1.923508	0.365628	99
Es	0.915564	0.877634	-0.272492	99
Es	2.130380	1.436967	-0.153967	99
Es	0.840816	-1.333359	-0.292293	99
Es	2.440384	1.744770	0.261844	99
33
Properties=species:S:1:pos:R:3:Z:I:1 energy=-283.7448625598307 field_type=dipole dipole="0.000000 0.000000 0.000000" charge=0
O	-1.939671	-0.230148	0.365575	8
C	-0.514941	-0.232358	0.544865	6
C	0.250199	-0.982358	-0.505215	6
C	0.278999	0.524762	-0.489705	6
C	1.475179	1.201072	-0.079755	6
N	2.440759	1.744982	0.261975	7
H	-2.390841	0.233102	1.093895	1
H	-0.133521	-0.287738	1.560806	1
H	-0.313361	-1.470488	-1.292305	1
H	1.132979	-1.528778	-0.192735	1
H	-0.285781	1.027952	-1.267405	1
Es	-0.124054	0.342013	0.090489	99
Es	0.915609	0.877673	-0.272488	99
Es	0.840656	-1.333322	-0.292293	99
Es	0.400370	-0.180508	-0.632169	99
Es	2.440383	1.744770	0.261844	99
Es	-0.177908	-0.769815	0.091272	99
Es	0.250173	-0.982151	-0.505150	99
Es	-0.515092	-0.232292	0.544658	99
Es	2.116911	1.464076	-0.164040	99
Es	-2.146559	0.016898	0.756067	99
Es	0.279121	0.524664	-0.489594	99
Es	-1.387253	-0.186788	0.447701	99
Es	-0.262700	-0.257937	1.227238	99
Es	2.035959	1.289014	0.308785	99
Es	-1.950037	-0.077656	0.230532	99
Es	-1.939475	-0.230082	0.365941	99
Es	1.846734	1.731929	0.182513	99
Es	1.474863	1.200889	-0.079850	99
Es	-2.067493	-0.524802	0.295127	99
Es	-0.079290	0.855074	-0.990989	99
Es	-0.133584	-1.300158	-1.031566	99
Es	2.754834	1.923202	0.365528	99
33
Properties=species:S:1:pos:R:3:Z:I:1 energy=-283.7448625598307 field_type=dipole dipole="0.000000 0.000000 0.000000" charge=0
O	-1.939671	-0.230148	0.365575	8
C	-0.514941	-0.232358	0.544865	6
C	0.250199	-0.982358	-0.505215	6
C	0.278999	0.524762	-0.489705	6
C	1.475179	1.201072	-0.079755	6
N	2.440759	1.744982	0.261975	7
H	-2.390841	0.233102	1.093895	1
H	-0.133521	-0.287738	1.560806	1
H	-0.313361	-1.470488	-1.292305	1
H	1.132979	-1.528778	-0.192735	1
H	-0.285781	1.027952	-1.267405	1
Es	-0.515088	-0.232289	0.544657	99
Es	-2.146117	0.017119	0.755185	99
Es	-1.387459	-0.185180	0.447061	99
Es	2.151520	1.253027	0.077042	99
Es	-0.123743	0.342860	0.090520	99
Es	1.873575	1.565461	0.373589	99
Es	0.840188	-1.333302	-0.292271	99
Es	1.974076	1.665791	-0.120126	99
Es	-0.177542	-0.770171	0.091293	99
Es	0.279117	0.524667	-0.489588	99
Es	2.755080	1.924309	0.362258	99
Es	-0.262933	-0.258267	1.226727	99
Es	0.250175	-0.982144	-0.505152	99
Es	2.440384	1.744770	0.261844	99
Es	-0.133830	-1.300386	-1.031246	99
Es	1.474865	1.200887	-0.079851	99
Es	0.400458	-0.180384	-0.632419	99
Es	-2.067046	-0.526091	0.297534	99
Es	-0.079132	0.854964	-0.990482	99
Es	-1.939445	-0.229855	0.365808	99
Es	0.915806	0.877444	-0.272625	99
Es	-1.950740	-0.078542	0.229798	99
33
Properties=species:S:1:pos:R:3:Z:I:1 energy=-283.7448625598307 field_type=dipole dipole="0.000000 0.000000 0.000000" charge=0
O	-1.939671	-0.230148	0.365575	8
C	-0.514941	-0.232358	0.544865	6
C	0.250199	-0.982358	-0.505215	6
C	0.278999	0.524762	-0.489705	6
C	1.475179	1.201072	-0.079755	6
N	2.440759	1.744982	0.261975	7
H	-2.390841	0.233102	1.093895	1
H	-0.133521	-0.287738	1.560806	1
H	-0.313361	-1.470488	-1.292305	1
H	1.132979	-1.528778	-0.192735	1
H	-0.285781	1.027952	-1.267405	1
Es	0.400430	-0.179696	-0.632039	99
Es	2.440384	1.744770	0.261844	99
Es	2.755458	1.922714	0.364646	99
Es	-0.177570	-0.769513	0.091088	99
Es	-0.123712	0.341660	0.090383	99
Es	-0.515089	-0.232290	0.544656	99
Es	-1.939507	-0.230056	0.365877	99
Es	0.840516	-1.333456	-0.292114	99
Es	-0.079483	0.855065	-0.990955	99
Es	-0.262762	-0.258263	1.227036	99
Es	-2.067659	-0.524561	0.293886	99
Es	2.098761	1.496763	-0.172084	99
Es	-1.949858	-0.078636	0.232629	99
Es	-0.134040	-1.300276	-1.031291	99
Es	-2.146517	0.015912	0.755839	99
Es	-1.387322	-0.185269	0.447036	99
Es	1.843122	1.716795	0.222445	99
Es	0.915690	0.877712	-0.272434	99
Es	2.057173	1.271904	0.277701	99
Es	0.279119	0.524664	-0.489590	99
Es	1.474863	1.200890	-0.079851	99
Es	0.250174	-0.982144	-0.505152	99
33
Properties=species:S:1:pos:R:3:Z:I:1 energy=-283.7448625598307 field_type=dipole dipole="0.000000 0.000000 0.000000" charge=0
O	-1.939671	-0.230148	0.365575	8
C	-0.514941	-0.232358	0.544865	6
C	0.250199	-0.982358	-0.505215	6
C	0.278999	0.524762	-0.489705	6
C	1.475179	1.201072	-0.079755	6
N	2.440759	1.744982	0.261975	7
H	-2.390841	0.233102	1.093895	1
H	-0.133521	-0.287738	1.560806	1
H	-0.313361	-1.470488	-1.292305	1
H	1.132979	-1.528778	-0.192735	1
H	-0.285781	1.027952	-1.267405	1
Es	-2.069854	-0.522453	0.288383	99
Es	-0.262853	-0.258011	1.226947	99
Es	-2.146246	0.015612	0.756046	99
Es	-0.123729	0.342730	0.090353	99
Es	2.754544	1.923915	0.365363	99
Es	-1.939508	-0.230099	0.365937	99
Es	-0.079243	0.855071	-0.990441	99
Es	2.140988	1.412211	-0.139348	99
Es	0.840599	-1.333308	-0.292218	99
Es	1.474862	1.200886	-0.079847	99
Es	0.915639	0.877765	-0.272502	99
Es	-0.134003	-1.300350	-1.031360	99
Es	1.858635	1.744650	0.115979	99
Es	0.250175	-0.982139	-0.505152	99
Es	2.000311	1.327456	0.350755	99
Es	-1.387282	-0.184908	0.446498	99
Es	-0.177370	-0.769893	0.091056	99
Es	2.440384	1.744769	0.261844	99
Es	0.279121	0.524666	-0.489592	99
Es	-0.515085	-0.232286	0.544654	99
Es	0.400025	-0.180917	-0.632251	99
Es	-1.947939	-0.080679	0.238454	99
33
Properties=species:S:1:pos:R:3:Z:I:1 energy=-283.7448625598307 field_type=dipole dipole="0.000000 0.000000 0.000000" charge=0
O	-1.939671	-0.230148	0.365575	8
C	-0.514941	-0.232358	0.544865	6
C	0.250199	-0.982358	-0.505215	6
C	0.278999	0.524762	-0.489705	6
C	1.475179	1.201072	-0.079755	6
N	2.440759	1.744982	0.261975	7
H	-2.390841	0.233102	1.093895	1
H	-0.133521	-0.287738	1.560806	1
H	-0.313361	-1.470488	-1.292305	1
H	1.132979	-1.528778	-0.192735	1
H	-0.285781	1.027952	-1.267405	1
Es	-0.124130	0.341863	0.090346	99
Es	0.840378	-1.333212	-0.292270	99
Es	-2.070184	-0.522787	0.289424	99
Es	2.021938	1.302930	0.326430	99
Es	-2.146533	0.017430	0.754525	99
Es	-0.515086	-0.232287	0.544655	99
Es	-1.939452	-0.229907	0.365848	99
Es	1.474864	1.200891	-0.079854	99
Es	2.754980	1.923398	0.365137	99
Es	2.126643	1.443995	-0.155953	99
Es	0.250175	-0.982143	-0.505153	99
Es	-0.262803	-0.258154	1.227012	99
Es	-0.079045	0.854803	-0.990636	99
Es	-0.177504	-0.769591	0.091348	99
Es	0.400429	-0.179817	-0.632280	99
Es	1.850958	1.737873	0.157072	99
Es	-1.387252	-0.185627	0.447609	99
Es	2.440384	1.744770	0.261844	99
Es	0.915699	0.877798	-0.272424	99
Es	0.279108	0.524668	-0.489578	99
Es	-0.133958	-1.300404	-1.031361	99
Es	-1.947439	-0.081800	0.237818	99
33
Properties=species:S:1:pos:R:3:Z:I:1 energy=-283.7448625598307 field_type=dipole dipole="0.000000 0.000000 0.000000" charge=0
O	-1.939671	-0.230148	0.365575	8
C	-0.514941	-0.232358	0.544865	6
C	0.250199	-0.982358	-0.505215	6
C	0.278999	0.524762	-0.489705	6
C	1.475179	1.201072	-0.079755	6
N	2.440759	1.744982	0.261975	7
H	-2.390841	0.233102	1.093895	1
H	-0.133521	-0.287738	1.560806	1
H	-0.313361	-1.470488	-1.292305	1
H	1.132979	-1.528778	-0.192735	1
H	-0.285781	1.027952	-1.267405	1
Es	0.279111	0.524678	-0.489580	99
Es	1.855466	1.742842	0.130618	99
Es	-2.146493	0.015030	0.756020	99
Es	-0.515090	-0.232294	0.544656	99
Es	-0.262894	-0.258122	1.226760	99
Es	-1.939502	-0.230046	0.365900	99
Es	-2.070783	-0.520991	0.285084	99
Es	0.840330	-1.333203	-0.292215	99
Es	-1.387171	-0.185703	0.447531	99
Es	0.400216	-0.180007	-0.632277	99
Es	-0.134118	-1.300525	-1.031201	99
Es	1.474861	1.200892	-0.079847	99
Es	-1.946921	-0.080973	0.240756	99
Es	-0.079086	0.854821	-0.990393	99
Es	2.440384	1.744769	0.261844	99
Es	0.915712	0.877817	-0.272424	99
Es	0.250174	-0.982143	-0.505152	99
Es	-0.177263	-0.769858	0.091304	99
Es	2.754682	1.924024	0.364972	99
Es	2.008067	1.318554	0.342260	99
Es	-0.123819	0.342309	0.090166	99
Es	2.136308	1.422819	-0.145227	99
33
Properties=species:S:1:pos:R:3:Z:I:1 energy=-283.7448625598307 field_type=dipole dipole="0.000000 0.000000 0.000000" charge=0
O	-1.939671	-0.230148	0.365575	8
C	-0.514941	-0.232358	0.544865	6
C	0.250199	-0.982358	-0.505215	6
C	0.278999	0.524762	-0.489705	6
C	1.475179	1.201072	-0.079755	6
N	2.440759	1.744982	0.261975	7
H	-2.390841	0.233102	1.093895	1
H	-0.133521	-0.287738	1.560806	1
H	-0.313361	-1.470488	-1.292305	1
H	1.132979	-1.528778	-0.192735	1
H	-0.285781	1.027952	-1.267405	1
Es	1.991444	1.339739	0.358240	99
Es	-2.070645	-0.521757	0.286317	99
Es	0.915743	0.877857	-0.272527	99
Es	2.440384	1.744770	0.261844	99
Es	1.474863	1.200884	-0.079845	99
Es	-0.134362	-1.300538	-1.031043	99
Es	-1.939481	-0.230126	0.365962	99
Es	0.840408	-1.333307	-0.292151	99
Es	-0.079048	0.854822	-0.990187	99
Es	-0.262888	-0.258097	1.226797	99
Es	0.279122	0.524668	-0.489599	99
Es	-1.387338	-0.184111	0.446592	99
Es	-2.146178	0.015065	0.755415	99
Es	0.400059	-0.180268	-0.632384	99
Es	0.250175	-0.982140	-0.505152	99
Es	-1.947230	-0.081784	0.240955	99
Es	-0.177022	-0.769724	0.091032	99
Es	2.146220	1.398729	-0.131313	99
Es	1.862294	1.745556	0.100626	99
Es	-0.123801	0.342528	0.090139	99
Es	-0.515089	-0.232292	0.544656	99
Es	2.754540	1.924217	0.365185	99
33
Properties=species:S:1:pos:R:3:Z:I:1 energy=-283.7448625598307 field_type=dipole dipole="0.000000 0.000000 0.000000" charge=0
O	-1.939671	-0.230148	0.365575	8
C	-0.514941	-0.232358	0.544865	6
C	0.250199	-0.982358	-0.505215	6
C	0.278999	0.524762	-0.489705	6
C	1.475179	1.201072	-0.079755	6
N	2.440759	1.744982	0.261975	7
H	-2.390841	0.233102	1.093895	1
H	-0.133521	-0.287738	1.560806	1
H	-0.313361	-1.470488	-1.292305	1
H	1.132979	-1.528778	-0.192735	1
H	-0.285781	1.027952	-1.267405	1
Es	0.915749	0.877908	-0.272515	99
Es	-1.946515	-0.084266	0.241334	99
Es	0.400460	-0.179502	-0.632262	99
Es	2.132764	1.430668	-0.149205	99
Es	-2.146033	0.018001	0.753588	99
Es	2.754960	1.923549	0.365241	99
Es	-0.515091	-0.232296	0.544657	99
Es	1.853997	1.741078	0.139872	99
Es	-0.262837	-0.258067	1.226907	99
Es	-2.071718	-0.521949	0.287937	99
Es	0.279118	0.524675	-0.489588	99
Es	2.012859	1.312825	0.336816	99
Es	0.840203	-1.333156	-0.292305	99
Es	-0.177152	-0.769549	0.091431	99
Es	1.474863	1.200889	-0.079848	99
Es	0.250175	-0.982144	-0.505153	99
Es	-1.939423	-0.230126	0.366028	99
Es	2.440384	1.744770	0.261844	99
Es	-0.134288	-1.300515	-1.031235	99
Es	-0.078977	0.854675	-0.990464	99
Es	-1.387191	-0.184454	0.446302	99
Es	-0.124136	0.341676	0.090174	99
33
Properties=species:S:1:pos:R:3:Z:I:1 energy=-283.7448625598307 field_type=dipole dipole="0.000000 0.000000 0.000000" charge=0
O	-1.939671	-0.230148	0.365575	8
C	-0.514941	-0.232358	0.544865	6
C	0.250199	-0.982358	-0.505215	6
C	0.278999	0.524762	-0.489705	6
C	1.475179	1.201072	-0.079755	6
N	2.440759	1.744982	0.261975	7
H	-2.390841	0.233102	1.093895	1
H	-0.133521	-0.287738	1.560806	1
H	-0.313361	-1.470488	-1.292305	1
H	1.132979	-1.528778	-0.192735	1
H	-0.285781	1.027952	-1.267405	1
Es	1.863900	1.744105	0.099159	99
Es	-0.134416	-1.300573	-1.031056	99
Es	-0.262937	-0.258152	1.226626	99
Es	-1.939515	-0.230079	0.365913	99
Es	-0.123860	0.342630	0.090077	99
Es	1.474859	1.200893	-0.079852	99
Es	0.400075	-0.180133	-0.632343	99
Es	0.250174	-0.982137	-0.505149	99
Es	-0.176863	-0.769852	0.091118	99
Es	-2.145602	0.017561	0.753579	99
Es	-0.515089	-0.232290	0.544656	99
Es	-0.078909	0.854780	-0.990100	99
Es	-1.946304	-0.083924	0.241793	99
Es	2.146023	1.398863	-0.131553	99
Es	-1.387190	-0.184598	0.446671	99
Es	-2.072292	-0.521717	0.287291	99
Es	0.840221	-1.333218	-0.292254	99
Es	0.915768	0.877877	-0.272428	99
Es	2.754795	1.923959	0.364995	99
Es	2.440385	1.744770	0.261845	99
Es	0.279117	0.524671	-0.489586	99
Es	1.989829	1.341256	0.360155	99
33
Properties=species:S:1:pos:R:3:Z:I:1 energy=-283.7448625598307 field_type=dipole dipole="0.000000 0.000000 0.000000" charge=0
O	-1.939671	-0.230148	0.365575	8
C	-0.514941	-0.232358	0.544865	6
C	0.250199	-0.982358	-0.505215	6
C	0.278999	0.524762	-0.489705	6
C	1.475179	1.201072	-0.079755	6
N	2.440759	1.744982	0.261975	7
H	-2.390841	0.233102	1.093895	1
H	-0.133521	-0.287738	1.560806	1
H	-0.313361	-1.470488	-1.292305	1
H	1.132979	-1.528778	-0.192735	1
H	-0.285781	1.027952	-1.267405	1
Es	0.915780	0.877789	-0.272296	99
Es	-0.079038	0.854616	-0.990532	99
Es	-0.134489	-1.300472	-1.030930	99
Es	-2.073009	-0.519405	0.281745	99
Es	-1.939490	-0.230107	0.365966	99
Es	-0.515088	-0.232291	0.544656	99
Es	2.755625	1.922915	0.364354	99
Es	-0.123859	0.341993	0.090231	99
Es	-2.144865	0.012804	0.756030	99
Es	1.846839	1.730942	0.184208	99
Es	-1.387178	-0.183936	0.445843	99
Es	2.440384	1.744770	0.261844	99
Es	1.474862	1.200890	-0.079851	99
Es	0.250175	-0.982143	-0.505152	99
Es	2.114787	1.466928	-0.162948	99
Es	0.279109	0.524661	-0.489580	99
Es	-1.946377	-0.082145	0.245632	99
Es	2.037357	1.287450	0.306762	99
Es	0.400248	-0.179255	-0.632093	99
Es	-0.177014	-0.769708	0.091374	99
Es	-0.262945	-0.258281	1.226602	99
Es	0.840354	-1.333324	-0.292307	99
33
Properties=species:S:1:pos:R:3:Z:I:1 energy=-283.7448625598307 field_type=dipole dipole="0.000000 0.000000 0.000000" charge=0
O	-1.939671	-0.230148	0.365575	8
C	-0.514941	-0.232358	0.544865	6
C	0.250199	-0.982358	-0.505215	6
C	0.278999	0.524762	-0.489705	6
C	1.475179	1.201072	-0.079755	6
N	2.440759	1.744982	0.261975	7
H	-2.390841	0.233102	1.093895	1
H	-0.133521	-0.287738	1.560806	1
H	-0.313361	-1.470488	-1.292305	1
H	1.132979	-1.528778	-0.192735	1
H	-0.285781	1.027952	-1.267405	1
Es	2.154651	1.259103	0.061604	99
Es	2.440384	1.744769	0.261844	99
Es	-1.387446	-0.182737	0.445799	99
Es	1.474868	1.200880	-0.079849	99
Es	0.279116	0.524670	-0.489586	99
Es	0.839755	-1.333230	-0.292252	99
Es	2.755422	1.924407	0.361899	99
Es	-0.515091	-0.232296	0.544657	99
Es	1.878084	1.551774	0.379202	99
Es	-1.948088	-0.083522	0.238558	99
Es	-0.123693	0.342363	0.090012	99
Es	-1.939433	-0.229800	0.365786	99
Es	-2.144607	0.017283	0.752493	99
Es	1.966250	1.673252	-0.110141	99
Es	-0.263074	-0.258317	1.226335	99
Es	-0.078867	0.854510	-0.990044	99
Es	0.250175	-0.982141	-0.505154	99
Es	-2.071339	-0.524104	0.292570	99
Es	0.400525	-0.179233	-0.632546	99
Es	-0.176546	-0.769736	0.091408	99
Es	0.916013	0.877610	-0.272515	99
Es	-0.134890	-1.300815	-1.030522	99
33
Properties=species:S:1:pos:R:3:Z:I:1 energy=-283.7448625598307 field_type=dipole dipole="0.000000 0.000000 0.000000" charge=0
O	-1.939671	-0.230148	0.365575	8
C	-0.514941	-0.232358	0.544865	6
C	0.250199	-0.982358	-0.505215	6
C	0.278999	0.524762	-0.489705	6
C	1.475179	1.201072	-0.079755	6
N	2.440759	1.744982	0.261975	7
H	-2.390841	0.233102	1.093895	1
H	-0.133521	-0.287738	1.560806	1
H	-0.313361	-1.470488	-1.292305	1
H	1.132979	-1.528778	-0.192735	1
H	-0.285781	1.027952	-1.267405	1
Es	0.279121	0.524666	-0.489592	99
Es	0.840007	-1.333203	-0.292292	99
Es	2.440384	1.744770	0.261844	99
Es	-0.177034	-0.769249	0.091525	99
Es	1.844296	1.722119	0.208892	99
Es	-1.387187	-0.183629	0.446016	99
Es	-0.124117	0.341214	0.090114	99
Es	-0.515088	-0.232288	0.544656	99
Es	0.400588	-0.178417	-0.632099	99
Es	-1.946369	-0.084136	0.243451	99
Es	-0.262838	-0.258405	1.226781	99
Es	0.915895	0.877787	-0.272415	99
Es	-0.078896	0.854449	-0.990597	99
Es	0.250173	-0.982141	-0.505149	99
Es	-1.939464	-0.229991	0.365879	99
Es	-0.134639	-1.300608	-1.030937	99
Es	2.755885	1.922581	0.364365	99
Es	2.050399	1.276785	0.287600	99
Es	1.474862	1.200886	-0.079846	99
Es	2.104094	1.486645	-0.168434	99
Es	-2.144842	0.016090	0.753477	99
Es	-2.073061	-0.521233	0.286319	99
33
Properties=species:S:1:pos:R:3:Z:I:1 energy=-283.7448625598307 field_type=dipole dipole="0.000000 0.000000 0.000000" charge=0
O	-1.939671	-0.230148	0.365575	8
C	-0.514941	-0.232358	0.544865	6
C	0.250199	-0.982358	-0.505215	6
C	0.278999	0.524762	-0.489705	6
C	1.475179	1.201072	-0.079755	6
N	2.440759	1.744982	0.261975	7
H	-2.390841	0.233102	1.093895	1
H	-0.133521	-0.287738	1.560806	1
H	-0.313361	-1.470488	-1.292305	1
H	1.132979	-1.528778	-0.192735	1
H	-0.285781	1.027952	-1.267405	1
Es	0.250177	-0.982144	-0.505153	99
Es	-0.078918	0.854472	-0.990182	99
Es	-1.387225	-0.182942	0.445389	99
Es	0.400715	-0.178505	-0.632551	99
Es	2.756313	1.922926	0.361893	99
Es	2.440384	1.744770	0.261844	99
Es	-0.134874	-1.300591	-1.030492	99
Es	1.856323	1.620715	0.340783	99
Es	-2.144254	0.017216	0.752277	99
Es	-0.123669	0.341858	0.090167	99
Es	-1.946642	-0.084986	0.242567	99
Es	1.474863	1.200887	-0.079850	99
Es	-2.073330	-0.522199	0.288986	99
Es	2.128332	1.245016	0.141856	99
Es	-0.176819	-0.769544	0.091656	99
Es	-0.263119	-0.258596	1.226223	99
Es	0.915936	0.877636	-0.272249	99
Es	0.839850	-1.333439	-0.292284	99
Es	2.013568	1.619813	-0.152323	99
Es	-0.515089	-0.232292	0.544656	99
Es	-1.939475	-0.230052	0.365933	99
Es	0.279120	0.524671	-0.489589	99
