36
Properties=species:S:1:pos:R:3:Z:I:1 energy=-284.89250650849164 field_type=dipole dipole="0.000000 0.000000 0.000000" charge=0
O	-2.800726	0.483862	1.047089	8
C	-1.681046	0.936992	0.813879	6
C	-0.804036	0.451362	-0.316291	6
N	0.570974	0.346832	0.188959	7
C	1.003954	-1.026698	0.437019	6
C	1.480494	-0.269268	-0.773941	6
H	-1.298686	1.803282	1.380739	1
H	-0.848896	1.205441	-1.109161	1
H	-1.213816	-0.488668	-0.704981	1
H	0.299114	-1.837838	0.297699	1
H	1.700264	-1.162868	1.256229	1
H	2.496024	0.108592	-0.770281	1
H	1.096384	-0.551018	-1.746961	1
Es	-1.681046	0.936959	0.813871	99
Es	-0.029073	0.360490	-0.047434	99
Es	0.517075	-1.568998	0.340997	99
Es	0.950326	0.192093	-0.320249	99
Es	1.003905	-1.026467	0.436919	99
Es	1.472232	-1.119395	0.994562	99
Es	-1.235576	0.685482	0.254856	99
Es	-2.288139	0.484972	1.127104	99
Es	-2.800562	0.483917	1.047054	99
Es	1.364069	-0.821302	-0.231863	99
Es	-2.873936	0.245054	0.856582	99
Es	-0.840753	0.966326	-0.838591	99
Es	0.570799	0.346319	0.188572	99
Es	2.167577	-0.010932	-0.775949	99
Es	-2.947024	0.631248	1.281985	99
Es	0.655701	-0.262824	0.409299	99
Es	1.209812	-0.455357	-1.433832	99
Es	-1.406867	1.524055	1.195315	99
Es	1.480332	-0.269229	-0.773752	99
Es	-1.072458	-0.190739	-0.580074	99
Es	-2.492820	0.808461	0.798635	99
Es	-0.803923	0.451392	-0.316201	99
Es	0.687144	0.608998	0.399458	99
36
Properties=species:S:1:pos:R:3:Z:I:1 energy=-284.89250650849164 field_type=dipole dipole="0.000000 0.000000 0.000000" charge=0
O	-2.800726	0.483862	1.047089	8
C	-1.681046	0.936992	0.813879	6
C	-0.804036	0.451362	-0.316291	6
N	0.570974	0.346832	0.188959	7
C	1.003954	-1.026698	0.437019	6
C	1.480494	-0.269268	-0.773941	6
H	-1.298686	1.803282	1.380739	1
H	-0.848896	1.205441	-1.109161	1
H	-1.213816	-0.488668	-0.704981	1
H	0.299114	-1.837838	0.297699	1
H	1.700264	-1.162868	1.256229	1
H	2.496024	0.108592	-0.770281	1
H	1.096384	-0.551018	-1.746961	1
Es	-2.289094	0.484535	1.127252	99
Es	-1.235778	0.685770	0.254846	99
Es	-2.800428	0.483977	1.047016	99
Es	-1.072031	-0.190373	-0.579312	99
Es	2.168923	-0.010097	-0.776994	99
Es	0.656726	-0.263433	0.412358	99
Es	-0.030176	0.362351	-0.046214	99
Es	0.570798	0.346317	0.188568	99
Es	0.684032	0.602854	0.397047	99
Es	1.003911	-1.026464	0.436915	99
Es	-0.840903	0.966031	-0.839339	99
Es	-2.493446	0.810094	0.793775	99
Es	-1.407365	1.524249	1.194525	99
Es	1.364361	-0.821821	-0.233168	99
Es	0.516122	-1.569439	0.342423	99
Es	1.480333	-0.269229	-0.773751	99
Es	-2.865413	0.248014	0.860149	99
Es	-0.803922	0.451393	-0.316202	99
Es	1.471029	-1.118482	0.993681	99
Es	0.954264	0.195230	-0.322573	99
Es	-1.681051	0.936966	0.813864	99
Es	1.209619	-0.454325	-1.431776	99
Es	-2.953715	0.626405	1.284175	99
36
Properties=species:S:1:pos:R:3:Z:I:1 energy=-284.89250650849164 field_type=dipole dipole="0.000000 0.000000 0.000000" charge=0
O	-2.800726	0.483862	1.047089	8
C	-1.681046	0.936992	0.813879	6
C	-0.804036	0.451362	-0.316291	6
N	0.570974	0.346832	0.188959	7
C	1.003954	-1.026698	0.437019	6
C	1.480494	-0.269268	-0.773941	6
H	-1.298686	1.803282	1.380739	1
H	-0.848896	1.205441	-1.109161	1
H	-1.213816	-0.488668	-0.704981	1
H	0.299114	-1.837838	0.297699	1
H	1.700264	-1.162868	1.256229	1
H	2.496024	0.108592	-0.770281	1
H	1.096384	-0.551018	-1.746961	1
Es	-1.235699	0.685921	0.254802	99
Es	0.515293	-1.569948	0.343360	99
Es	-0.841113	0.965959	-0.839576	99
Es	1.470123	-1.117812	0.992778	99
Es	1.209584	-0.453589	-1.429928	99
Es	-0.030890	0.363328	-0.045490	99
Es	-2.800403	0.483973	1.047006	99
Es	0.657859	-0.263907	0.414138	99
Es	0.957099	0.198015	-0.323865	99
Es	0.681651	0.598195	0.395338	99
Es	-2.857336	0.250277	0.860236	99
Es	1.480331	-0.269224	-0.773751	99
Es	0.570817	0.346318	0.188582	99
Es	1.003917	-1.026473	0.436914	99
Es	-2.960346	0.621331	1.285134	99
Es	-0.803924	0.451392	-0.316202	99
Es	-1.407728	1.524354	1.194087	99
Es	-1.071940	-0.190154	-0.578945	99
Es	1.364397	-0.821846	-0.233832	99
Es	-2.289787	0.485745	1.127746	99
Es	-2.493974	0.811284	0.792778	99
Es	2.169914	-0.009582	-0.777909	99
Es	-1.681049	0.936966	0.813866	99
36
Properties=species:S:1:pos:R:3:Z:I:1 energy=-284.89250650849164 field_type=dipole dipole="0.000000 0.000000 0.000000" charge=0
O	-2.800726	0.483862	1.047089	8
C	-1.681046	0.936992	0.813879	6
C	-0.804036	0.451362	-0.316291	6
N	0.570974	0.346832	0.188959	7
C	1.003954	-1.026698	0.437019	6
C	1.480494	-0.269268	-0.773941	6
H	-1.298686	1.803282	1.380739	1
H	-0.848896	1.205441	-1.109161	1
H	-1.213816	-0.488668	-0.704981	1
H	0.299114	-1.837838	0.297699	1
H	1.700264	-1.162868	1.256229	1
H	2.496024	0.108592	-0.770281	1
H	1.096384	-0.551018	-1.746961	1
Es	-1.072049	-0.190284	-0.578875	99
Es	-2.800425	0.483962	1.047004	99
Es	0.514668	-1.570408	0.344089	99
Es	-0.841316	0.965895	-0.839378	99
Es	-2.493020	0.813026	0.793769	99
Es	2.170534	-0.009205	-0.778711	99
Es	-0.803924	0.451393	-0.316203	99
Es	1.469347	-1.117228	0.991984	99
Es	0.679926	0.595263	0.394199	99
Es	-2.968297	0.614767	1.285845	99
Es	1.480330	-0.269223	-0.773753	99
Es	1.209673	-0.453037	-1.428339	99
Es	0.658805	-0.264093	0.415256	99
Es	-1.681045	0.936960	0.813870	99
Es	0.959088	0.199916	-0.324707	99
Es	-1.407920	1.524615	1.193795	99
Es	-2.848858	0.255111	0.858522	99
Es	0.570797	0.346315	0.188567	99
Es	1.003915	-1.026475	0.436915	99
Es	1.364446	-0.821891	-0.234113	99
Es	-2.290996	0.485287	1.128083	99
Es	-0.031243	0.363729	-0.045234	99
Es	-1.235637	0.686126	0.254678	99
36
Properties=species:S:1:pos:R:3:Z:I:1 energy=-284.89250650849164 field_type=dipole dipole="0.000000 0.000000 0.000000" charge=0
O	-2.800726	0.483862	1.047089	8
C	-1.681046	0.936992	0.813879	6
C	-0.804036	0.451362	-0.316291	6
N	0.570974	0.346832	0.188959	7
C	1.003954	-1.026698	0.437019	6
C	1.480494	-0.269268	-0.773941	6
H	-1.298686	1.803282	1.380739	1
H	-0.848896	1.205441	-1.109161	1
H	-1.213816	-0.488668	-0.704981	1
H	0.299114	-1.837838	0.297699	1
H	1.700264	-1.162868	1.256229	1
H	2.496024	0.108592	-0.770281	1
H	1.096384	-0.551018	-1.746961	1
Es	-1.681050	0.936968	0.813861	99
Es	0.570824	0.346341	0.188590	99
Es	-2.493760	0.813641	0.793309	99
Es	1.364575	-0.822157	-0.234397	99
Es	0.678341	0.592340	0.393711	99
Es	-2.844554	0.256493	0.858878	99
Es	2.171017	-0.008950	-0.779259	99
Es	-2.291006	0.486334	1.128766	99
Es	0.960814	0.202138	-0.324960	99
Es	-2.800382	0.483998	1.047012	99
Es	-1.408026	1.524619	1.193635	99
Es	-0.803925	0.451392	-0.316202	99
Es	1.480330	-0.269228	-0.773748	99
Es	1.003912	-1.026469	0.436918	99
Es	-1.072013	-0.190267	-0.578842	99
Es	1.209762	-0.452371	-1.427092	99
Es	-1.235646	0.686167	0.254641	99
Es	0.659591	-0.264408	0.415358	99
Es	1.468601	-1.116723	0.991178	99
Es	-0.031498	0.364118	-0.044928	99
Es	-2.971839	0.611589	1.285422	99
Es	-0.841413	0.965805	-0.839294	99
Es	0.514141	-1.570847	0.344707	99
36
Properties=species:S:1:pos:R:3:Z:I:1 energy=-284.89250650849164 field_type=dipole dipole="0.000000 0.000000 0.000000" charge=0
O	-2.800726	0.483862	1.047089	8
C	-1.681046	0.936992	0.813879	6
C	-0.804036	0.451362	-0.316291	6
N	0.570974	0.346832	0.188959	7
C	1.003954	-1.026698	0.437019	6
C	1.480494	-0.269268	-0.773941	6
H	-1.298686	1.803282	1.380739	1
H	-0.848896	1.205441	-1.109161	1
H	-1.213816	-0.488668	-0.704981	1
H	0.299114	-1.837838	0.297699	1
H	1.700264	-1.162868	1.256229	1
H	2.496024	0.108592	-0.770281	1
H	1.096384	-0.551018	-1.746961	1
Es	-0.031530	0.364216	-0.044857	99
Es	-1.408164	1.524728	1.193537	99
Es	-1.072163	-0.190525	-0.578731	99
Es	-2.292127	0.485926	1.129110	99
Es	-2.492759	0.815262	0.794821	99
Es	1.209919	-0.452113	-1.425996	99
Es	1.467919	-1.116310	0.990585	99
Es	2.171352	-0.008804	-0.779782	99
Es	-2.838428	0.260593	0.857307	99
Es	-0.841625	0.965682	-0.839101	99
Es	0.660267	-0.264990	0.415150	99
Es	-1.681050	0.936968	0.813862	99
Es	0.513818	-1.571162	0.345163	99
Es	-1.235429	0.686381	0.254484	99
Es	-2.977722	0.606077	1.285201	99
Es	0.570805	0.346321	0.188571	99
Es	0.961960	0.204050	-0.325470	99
Es	1.003909	-1.026467	0.436916	99
Es	-0.803924	0.451392	-0.316202	99
Es	-2.800411	0.483983	1.047017	99
Es	0.677240	0.590595	0.393750	99
Es	1.480332	-0.269222	-0.773749	99
Es	1.364608	-0.822057	-0.234320	99
36
Properties=species:S:1:pos:R:3:Z:I:1 energy=-284.89250650849164 field_type=dipole dipole="0.000000 0.000000 0.000000" charge=0
O	-2.800726	0.483862	1.047089	8
C	-1.681046	0.936992	0.813879	6
C	-0.804036	0.451362	-0.316291	6
N	0.570974	0.346832	0.188959	7
C	1.003954	-1.026698	0.437019	6
C	1.480494	-0.269268	-0.773941	6
H	-1.298686	1.803282	1.380739	1
H	-0.848896	1.205441	-1.109161	1
H	-1.213816	-0.488668	-0.704981	1
H	0.299114	-1.837838	0.297699	1
H	1.700264	-1.162868	1.256229	1
H	2.496024	0.108592	-0.770281	1
H	1.096384	-0.551018	-1.746961	1
Es	-0.031577	0.364019	-0.045080	99
Es	2.171535	-0.008504	-0.780209	99
Es	-1.681050	0.936969	0.813861	99
Es	0.513490	-1.571424	0.345522	99
Es	0.676211	0.589239	0.393708	99
Es	0.963028	0.205228	-0.325427	99
Es	-2.832240	0.262831	0.857944	99
Es	-0.803920	0.451393	-0.316200	99
Es	0.660794	-0.265092	0.415067	99
Es	1.467316	-1.115989	0.990006	99
Es	-2.494994	0.815601	0.794428	99
Es	-2.982487	0.601111	1.285041	99
Es	-1.408146	1.524856	1.193496	99
Es	-0.841739	0.965703	-0.838694	99
Es	-1.235189	0.686488	0.254385	99
Es	0.570799	0.346319	0.188568	99
Es	1.003911	-1.026470	0.436917	99
Es	-2.800385	0.483973	1.046990	99
Es	1.364857	-0.822201	-0.234423	99
Es	-1.072494	-0.190774	-0.578828	99
Es	1.210061	-0.451732	-1.425067	99
Es	1.480333	-0.269225	-0.773753	99
Es	-2.291316	0.488204	1.129010	99
36
Properties=species:S:1:pos:R:3:Z:I:1 energy=-284.89250650849164 field_type=dipole dipole="0.000000 0.000000 0.000000" charge=0
O	-2.800726	0.483862	1.047089	8
C	-1.681046	0.936992	0.813879	6
C	-0.804036	0.451362	-0.316291	6
N	0.570974	0.346832	0.188959	7
C	1.003954	-1.026698	0.437019	6
C	1.480494	-0.269268	-0.773941	6
H	-1.298686	1.803282	1.380739	1
H	-0.848896	1.205441	-1.109161	1
H	-1.213816	-0.488668	-0.704981	1
H	0.299114	-1.837838	0.297699	1
H	1.700264	-1.162868	1.256229	1
H	2.496024	0.108592	-0.770281	1
H	1.096384	-0.551018	-1.746961	1
Es	1.466888	-1.115720	0.989627	99
Es	-2.293074	0.488362	1.130782	99
Es	0.963502	0.205903	-0.325757	99
Es	1.364818	-0.822103	-0.234338	99
Es	0.675788	0.588653	0.393986	99
Es	-2.989566	0.595466	1.282739	99
Es	2.171718	-0.008393	-0.780451	99
Es	-1.235156	0.686799	0.254244	99
Es	-1.072632	-0.191056	-0.578784	99
Es	1.210194	-0.451488	-1.424399	99
Es	-0.031710	0.363929	-0.045042	99
Es	-2.800389	0.484008	1.047027	99
Es	1.003914	-1.026465	0.436920	99
Es	0.513281	-1.571677	0.345727	99
Es	0.661191	-0.265374	0.414664	99
Es	-2.493101	0.816676	0.795793	99
Es	-0.841707	0.965584	-0.838553	99
Es	-0.803921	0.451393	-0.316201	99
Es	-1.681051	0.936969	0.813861	99
Es	-2.825179	0.266988	0.857152	99
Es	0.570823	0.346309	0.188576	99
Es	-1.408172	1.524987	1.193447	99
Es	1.480337	-0.269228	-0.773757	99
36
Properties=species:S:1:pos:R:3:Z:I:1 energy=-284.89250650849164 field_type=dipole dipole="0.000000 0.000000 0.000000" charge=0
O	-2.800726	0.483862	1.047089	8
C	-1.681046	0.936992	0.813879	6
C	-0.804036	0.451362	-0.316291	6
N	0.570974	0.346832	0.188959	7
C	1.003954	-1.026698	0.437019	6
C	1.480494	-0.269268	-0.773941	6
H	-1.298686	1.803282	1.380739	1
H	-0.848896	1.205441	-1.109161	1
H	-1.213816	-0.488668	-0.704981	1
H	0.299114	-1.837838	0.297699	1
H	1.700264	-1.162868	1.256229	1
H	2.496024	0.108592	-0.770281	1
H	1.096384	-0.551018	-1.746961	1
Es	1.210334	-0.451440	-1.423816	99
Es	0.513159	-1.571871	0.345964	99
Es	-2.992230	0.591835	1.282223	99
Es	-0.031697	0.363554	-0.045088	99
Es	-0.841816	0.965513	-0.838350	99
Es	-2.293849	0.488154	1.130855	99
Es	-2.492592	0.818044	0.797168	99
Es	-1.072791	-0.191201	-0.578769	99
Es	1.364924	-0.821842	-0.234350	99
Es	1.466527	-1.115542	0.989134	99
Es	-1.235059	0.686926	0.254138	99
Es	-0.803925	0.451390	-0.316201	99
Es	0.661562	-0.265417	0.414831	99
Es	-2.822182	0.269340	0.856226	99
Es	0.570795	0.346310	0.188559	99
Es	1.003916	-1.026469	0.436909	99
Es	0.964281	0.207007	-0.325919	99
Es	2.171829	-0.008269	-0.780720	99
Es	-1.681050	0.936969	0.813858	99
Es	1.480333	-0.269225	-0.773752	99
Es	0.674921	0.587689	0.393920	99
Es	-2.800408	0.484014	1.047043	99
Es	-1.408183	1.525053	1.193402	99
36
Properties=species:S:1:pos:R:3:Z:I:1 energy=-284.89250650849164 field_type=dipole dipole="0.000000 0.000000 0.000000" charge=0
O	-2.800726	0.483862	1.047089	8
C	-1.681046	0.936992	0.813879	6
C	-0.804036	0.451362	-0.316291	6
N	0.570974	0.346832	0.188959	7
C	1.003954	-1.026698	0.437019	6
C	1.480494	-0.269268	-0.773941	6
H	-1.298686	1.803282	1.380739	1
H	-0.848896	1.205441	-1.109161	1
H	-1.213816	-0.488668	-0.704981	1
H	0.299114	-1.837838	0.297699	1
H	1.700264	-1.162868	1.256229	1
H	2.496024	0.108592	-0.770281	1
H	1.096384	-0.551018	-1.746961	1
Es	2.171902	-0.008139	-0.780849	99
Es	-0.841966	0.965529	-0.838032	99
Es	1.365103	-0.822145	-0.234231	99
Es	1.003910	-1.026470	0.436918	99
Es	-0.031473	0.363525	-0.045289	99
Es	0.674805	0.587712	0.394522	99
Es	-2.996219	0.586951	1.281943	99
Es	-0.803925	0.451392	-0.316202	99
Es	0.570785	0.346318	0.188562	99
Es	-1.681050	0.936968	0.813861	99
Es	1.480334	-0.269224	-0.773753	99
Es	-2.817813	0.273396	0.856300	99
Es	0.964508	0.207170	-0.326045	99
Es	-1.234911	0.686942	0.254002	99
Es	-2.293183	0.488308	1.130199	99
Es	1.465989	-1.115265	0.988749	99
Es	0.661761	-0.265683	0.414182	99
Es	1.210410	-0.451081	-1.423389	99
Es	-1.408156	1.525168	1.193407	99
Es	-1.072981	-0.191438	-0.578838	99
Es	-2.800412	0.484041	1.047074	99
Es	0.512979	-1.572039	0.346211	99
Es	-2.493601	0.818585	0.797963	99
36
Properties=species:S:1:pos:R:3:Z:I:1 energy=-284.89250650849164 field_type=dipole dipole="0.000000 0.000000 0.000000" charge=0
O	-2.800726	0.483862	1.047089	8
C	-1.681046	0.936992	0.813879	6
C	-0.804036	0.451362	-0.316291	6
N	0.570974	0.346832	0.188959	7
C	1.003954	-1.026698	0.437019	6
C	1.480494	-0.269268	-0.773941	6
H	-1.298686	1.803282	1.380739	1
H	-0.848896	1.205441	-1.109161	1
H	-1.213816	-0.488668	-0.704981	1
H	0.299114	-1.837838	0.297699	1
H	1.700264	-1.162868	1.256229	1
H	2.496024	0.108592	-0.770281	1
H	1.096384	-0.551018	-1.746961	1
Es	-1.408163	1.525261	1.193360	99
Es	2.171996	-0.008088	-0.780967	99
Es	1.480334	-0.269226	-0.773748	99
Es	-2.800432	0.484008	1.047057	99
Es	0.570811	0.346331	0.188574	99
Es	-0.803926	0.451392	-0.316202	99
Es	-1.073287	-0.191679	-0.578886	99
Es	1.465705	-1.115127	0.988493	99
Es	-2.294824	0.489507	1.131989	99
Es	0.964466	0.206916	-0.326108	99
Es	-1.234740	0.687198	0.253831	99
Es	-3.003171	0.580450	1.278749	99
Es	1.003911	-1.026471	0.436917	99
Es	0.674851	0.588126	0.395053	99
Es	-1.681050	0.936968	0.813861	99
Es	-0.841922	0.965538	-0.837760	99
Es	-2.810278	0.277626	0.856583	99
Es	-0.031379	0.363296	-0.045519	99
Es	1.210389	-0.451066	-1.423188	99
Es	1.365224	-0.821977	-0.234155	99
Es	0.661735	-0.265784	0.413862	99
Es	-2.492427	0.819535	0.799180	99
Es	0.512972	-1.572210	0.346289	99
36
Properties=species:S:1:pos:R:3:Z:I:1 energy=-284.89250650849164 field_type=dipole dipole="0.000000 0.000000 0.000000" charge=0
O	-2.800726	0.483862	1.047089	8
C	-1.681046	0.936992	0.813879	6
C	-0.804036	0.451362	-0.316291	6
N	0.570974	0.346832	0.188959	7
C	1.003954	-1.026698	0.437019	6
C	1.480494	-0.269268	-0.773941	6
H	-1.298686	1.803282	1.380739	1
H	-0.848896	1.205441	-1.109161	1
H	-1.213816	-0.488668	-0.704981	1
H	0.299114	-1.837838	0.297699	1
H	1.700264	-1.162868	1.256229	1
H	2.496024	0.108592	-0.770281	1
H	1.096384	-0.551018	-1.746961	1
Es	0.674187	0.586973	0.394897	99
Es	-1.681051	0.936969	0.813860	99
Es	0.570790	0.346314	0.188562	99
Es	-0.031571	0.363196	-0.045397	99
Es	-0.841990	0.965406	-0.837732	99
Es	-2.295056	0.489678	1.131702	99
Es	1.480334	-0.269226	-0.773754	99
Es	-2.492421	0.819547	0.798939	99
Es	-1.408168	1.525248	1.193381	99
Es	1.365390	-0.822173	-0.234404	99
Es	-1.234605	0.687359	0.253707	99
Es	1.465413	-1.115008	0.988204	99
Es	-1.073402	-0.191823	-0.578717	99
Es	-2.810647	0.277135	0.856714	99
Es	0.965172	0.207760	-0.326000	99
Es	2.172002	-0.007866	-0.781077	99
Es	-2.800385	0.484033	1.047065	99
Es	0.662109	-0.265655	0.413770	99
Es	-3.002647	0.580725	1.279079	99
Es	-0.803927	0.451393	-0.316203	99
Es	0.512793	-1.572281	0.346442	99
Es	1.210563	-0.450718	-1.422691	99
Es	1.003911	-1.026464	0.436916	99
36
Properties=species:S:1:pos:R:3:Z:I:1 energy=-284.89250650849164 field_type=dipole dipole="0.000000 0.000000 0.000000" charge=0
O	-2.800726	0.483862	1.047089	8
C	-1.681046	0.936992	0.813879	6
C	-0.804036	0.451362	-0.316291	6
N	0.570974	0.346832	0.188959	7
C	1.003954	-1.026698	0.437019	6
C	1.480494	-0.269268	-0.773941	6
H	-1.298686	1.803282	1.380739	1
H	-0.848896	1.205441	-1.109161	1
H	-1.213816	-0.488668	-0.704981	1
H	0.299114	-1.837838	0.297699	1
H	1.700264	-1.162868	1.256229	1
H	2.496024	0.108592	-0.770281	1
H	1.096384	-0.551018	-1.746961	1
Es	-0.803925	0.451392	-0.316202	99
Es	2.172116	-0.007970	-0.781085	99
Es	-1.681051	0.936969	0.813860	99
Es	-1.073451	-0.192017	-0.578847	99
Es	1.480330	-0.269232	-0.773742	99
Es	-1.408142	1.525363	1.193366	99
Es	0.964702	0.207111	-0.326207	99
Es	-2.492106	0.820383	0.799716	99
Es	-2.800403	0.484054	1.047082	99
Es	-2.803974	0.281396	0.857585	99
Es	1.465157	-1.114930	0.987993	99
Es	-2.296074	0.490883	1.132898	99
Es	0.570809	0.346305	0.188563	99
Es	1.365449	-0.822110	-0.234350	99
Es	-0.841946	0.965290	-0.837515	99
Es	-3.008537	0.574300	1.276246	99
Es	0.674454	0.588121	0.395212	99
Es	0.662230	-0.265619	0.413829	99
Es	-0.031407	0.362874	-0.045576	99
Es	1.210592	-0.450684	-1.422564	99
Es	1.003915	-1.026474	0.436913	99
Es	-1.234696	0.687483	0.253621	99
Es	0.512755	-1.572366	0.346467	99
36
Properties=species:S:1:pos:R:3:Z:I:1 energy=-284.89250650849164 field_type=dipole dipole="0.000000 0.000000 0.000000" charge=0
O	-2.800726	0.483862	1.047089	8
C	-1.681046	0.936992	0.813879	6
C	-0.804036	0.451362	-0.316291	6
N	0.570974	0.346832	0.188959	7
C	1.003954	-1.026698	0.437019	6
C	1.480494	-0.269268	-0.773941	6
H	-1.298686	1.803282	1.380739	1
H	-0.848896	1.205441	-1.109161	1
H	-1.213816	-0.488668	-0.704981	1
H	0.299114	-1.837838	0.297699	1
H	1.700264	-1.162868	1.256229	1
H	2.496024	0.108592	-0.770281	1
H	1.096384	-0.551018	-1.746961	1
Es	0.512726	-1.572485	0.346523	99
Es	-2.800347	0.285425	0.857942	99
Es	0.674333	0.588731	0.396012	99
Es	1.464824	-1.114813	0.987746	99
Es	1.365667	-0.822169	-0.234130	99
Es	0.964773	0.206938	-0.326342	99
Es	-2.295967	0.490733	1.132764	99
Es	-1.234736	0.687580	0.253609	99
Es	-3.012059	0.569669	1.274931	99
Es	-1.681051	0.936970	0.813860	99
Es	-1.408070	1.525468	1.193355	99
Es	-0.031065	0.362504	-0.046008	99
Es	2.172075	-0.007813	-0.781149	99
Es	-0.803926	0.451392	-0.316202	99
Es	-0.841991	0.965203	-0.837374	99
Es	0.662117	-0.265733	0.413363	99
Es	-2.492295	0.821000	0.800756	99
Es	-1.073534	-0.192127	-0.578841	99
Es	1.003911	-1.026472	0.436917	99
Es	-2.800386	0.484081	1.047097	99
Es	1.480334	-0.269223	-0.773755	99
Es	1.210664	-0.450662	-1.422385	99
Es	0.570798	0.346327	0.188575	99
36
Properties=species:S:1:pos:R:3:Z:I:1 energy=-284.89250650849164 field_type=dipole dipole="0.000000 0.000000 0.000000" charge=0
O	-2.800726	0.483862	1.047089	8
C	-1.681046	0.936992	0.813879	6
C	-0.804036	0.451362	-0.316291	6
N	0.570974	0.346832	0.188959	7
C	1.003954	-1.026698	0.437019	6
C	1.480494	-0.269268	-0.773941	6
H	-1.298686	1.803282	1.380739	1
H	-0.848896	1.205441	-1.109161	1
H	-1.213816	-0.488668	-0.704981	1
H	0.299114	-1.837838	0.297699	1
H	1.700264	-1.162868	1.256229	1
H	2.496024	0.108592	-0.770281	1
H	1.096384	-0.551018	-1.746961	1
Es	-1.073645	-0.192192	-0.578887	99
Es	1.003912	-1.026474	0.436918	99
Es	0.674056	0.588372	0.396620	99
Es	-2.798684	0.287492	0.857816	99
Es	0.570829	0.346332	0.188579	99
Es	1.365659	-0.822149	-0.234168	99
Es	-2.491532	0.821868	0.801805	99
Es	0.512663	-1.572512	0.346550	99
Es	-0.031017	0.362343	-0.046083	99
Es	-3.013533	0.567218	1.274412	99
Es	2.172139	-0.007798	-0.781237	99
Es	-0.803925	0.451392	-0.316202	99
Es	-0.842013	0.965188	-0.837234	99
Es	-1.408061	1.525478	1.193330	99
Es	1.480332	-0.269223	-0.773753	99
Es	-2.296832	0.490317	1.132483	99
Es	-1.234691	0.687626	0.253506	99
Es	0.964967	0.207596	-0.326193	99
Es	0.662272	-0.265945	0.412687	99
Es	1.464735	-1.114796	0.987610	99
Es	1.210660	-0.450573	-1.422207	99
Es	-1.681051	0.936969	0.813860	99
Es	-2.800445	0.483993	1.047052	99
36
Properties=species:S:1:pos:R:3:Z:I:1 energy=-284.89250650849164 field_type=dipole dipole="0.000000 0.000000 0.000000" charge=0
O	-2.800726	0.483862	1.047089	8
C	-1.681046	0.936992	0.813879	6
C	-0.804036	0.451362	-0.316291	6
N	0.570974	0.346832	0.188959	7
C	1.003954	-1.026698	0.437019	6
C	1.480494	-0.269268	-0.773941	6
H	-1.298686	1.803282	1.380739	1
H	-0.848896	1.205441	-1.109161	1
H	-1.213816	-0.488668	-0.704981	1
H	0.299114	-1.837838	0.297699	1
H	1.700264	-1.162868	1.256229	1
H	2.496024	0.108592	-0.770281	1
H	1.096384	-0.551018	-1.746961	1
Es	0.570822	0.346326	0.188578	99
Es	-0.803924	0.451392	-0.316201	99
Es	1.480336	-0.269226	-0.773755	99
Es	0.662333	-0.266048	0.413032	99
Es	1.210771	-0.450658	-1.422009	99
Es	-2.492334	0.822085	0.802420	99
Es	0.674118	0.588590	0.396432	99
Es	-2.796614	0.289009	0.857879	99
Es	1.003910	-1.026475	0.436918	99
Es	0.964941	0.207395	-0.326736	99
Es	1.365713	-0.821967	-0.233904	99
Es	-2.800397	0.484023	1.047046	99
Es	-3.015261	0.564722	1.273636	99
Es	-1.073764	-0.192282	-0.578975	99
Es	-2.296394	0.490998	1.132590	99
Es	-0.842054	0.965134	-0.837005	99
Es	-1.234585	0.687720	0.253407	99
Es	-0.030881	0.362359	-0.046057	99
Es	1.464388	-1.114618	0.987317	99
Es	2.172180	-0.007777	-0.781269	99
Es	-1.681051	0.936970	0.813859	99
Es	0.512658	-1.572645	0.346722	99
Es	-1.408117	1.525494	1.193339	99
36
Properties=species:S:1:pos:R:3:Z:I:1 energy=-284.89250650849164 field_type=dipole dipole="0.000000 0.000000 0.000000" charge=0
O	-2.800726	0.483862	1.047089	8
C	-1.681046	0.936992	0.813879	6
C	-0.804036	0.451362	-0.316291	6
N	0.570974	0.346832	0.188959	7
C	1.003954	-1.026698	0.437019	6
C	1.480494	-0.269268	-0.773941	6
H	-1.298686	1.803282	1.380739	1
H	-0.848896	1.205441	-1.109161	1
H	-1.213816	-0.488668	-0.704981	1
H	0.299114	-1.837838	0.297699	1
H	1.700264	-1.162868	1.256229	1
H	2.496024	0.108592	-0.770281	1
H	1.096384	-0.551018	-1.746961	1
Es	-2.491139	0.822272	0.802400	99
Es	-0.803925	0.451392	-0.316202	99
Es	2.172138	-0.007615	-0.781285	99
Es	-0.030916	0.362032	-0.045960	99
Es	1.365895	-0.821932	-0.234015	99
Es	0.570800	0.346326	0.188570	99
Es	-1.234528	0.687711	0.253387	99
Es	1.003912	-1.026472	0.436916	99
Es	-2.800375	0.484142	1.047148	99
Es	-2.793724	0.291028	0.858988	99
Es	-1.073817	-0.192376	-0.578926	99
Es	-1.681050	0.936968	0.813861	99
Es	-3.017998	0.562006	1.271628	99
Es	1.210785	-0.450683	-1.421980	99
Es	0.674111	0.588808	0.397016	99
Es	-1.408106	1.525590	1.193330	99
Es	-2.297776	0.491368	1.133325	99
Es	0.512685	-1.572716	0.346762	99
Es	-0.842006	0.965149	-0.837004	99
Es	0.662320	-0.265935	0.412575	99
Es	1.464317	-1.114580	0.987194	99
Es	0.964855	0.207266	-0.326707	99
Es	1.480336	-0.269225	-0.773756	99
36
Properties=species:S:1:pos:R:3:Z:I:1 energy=-284.89250650849164 field_type=dipole dipole="0.000000 0.000000 0.000000" charge=0
O	-2.800726	0.483862	1.047089	8
C	-1.681046	0.936992	0.813879	6
C	-0.804036	0.451362	-0.316291	6
N	0.570974	0.346832	0.188959	7
C	1.003954	-1.026698	0.437019	6
C	1.480494	-0.269268	-0.773941	6
H	-1.298686	1.803282	1.380739	1
H	-0.848896	1.205441	-1.109161	1
H	-1.213816	-0.488668	-0.704981	1
H	0.299114	-1.837838	0.297699	1
H	1.700264	-1.162868	1.256229	1
H	2.496024	0.108592	-0.770281	1
H	1.096384	-0.551018	-1.746961	1
Es	1.003910	-1.026471	0.436917	99
Es	0.964411	0.206431	-0.326778	99
Es	-2.296983	0.492420	1.133384	99
Es	0.512748	-1.572854	0.346729	99
Es	-1.408077	1.525618	1.193323	99
Es	-3.021520	0.556209	1.269863	99
Es	-2.492727	0.822826	0.802994	99
Es	-1.073861	-0.192499	-0.578979	99
Es	0.570824	0.346340	0.188587	99
Es	-2.800375	0.484134	1.047143	99
Es	-2.789339	0.295160	0.860191	99
Es	-0.842063	0.965015	-0.836830	99
Es	-0.030621	0.361937	-0.046385	99
Es	0.674453	0.589897	0.397553	99
Es	1.210786	-0.450763	-1.421994	99
Es	-1.234571	0.687850	0.253365	99
Es	0.662091	-0.265804	0.412496	99
Es	1.366140	-0.821954	-0.233827	99
Es	-0.803923	0.451392	-0.316201	99
Es	2.172108	-0.007564	-0.781321	99
Es	1.480329	-0.269222	-0.773753	99
Es	1.464109	-1.114546	0.986926	99
Es	-1.681051	0.936970	0.813860	99
36
Properties=species:S:1:pos:R:3:Z:I:1 energy=-284.89250650849164 field_type=dipole dipole="0.000000 0.000000 0.000000" charge=0
O	-2.800726	0.483862	1.047089	8
C	-1.681046	0.936992	0.813879	6
C	-0.804036	0.451362	-0.316291	6
N	0.570974	0.346832	0.188959	7
C	1.003954	-1.026698	0.437019	6
C	1.480494	-0.269268	-0.773941	6
H	-1.298686	1.803282	1.380739	1
H	-0.848896	1.205441	-1.109161	1
H	-1.213816	-0.488668	-0.704981	1
H	0.299114	-1.837838	0.297699	1
H	1.700264	-1.162868	1.256229	1
H	2.496024	0.108592	-0.770281	1
H	1.096384	-0.551018	-1.746961	1
Es	0.662716	-0.266257	0.412327	99
Es	0.673432	0.587698	0.397077	99
Es	0.965626	0.208471	-0.326565	99
Es	1.365987	-0.821990	-0.234137	99
Es	-0.030937	0.362043	-0.046177	99
Es	-2.800402	0.483991	1.047020	99
Es	-0.803925	0.451392	-0.316202	99
Es	1.003911	-1.026471	0.436916	99
Es	-2.296740	0.491977	1.132928	99
Es	-1.234427	0.687780	0.253313	99
Es	1.480336	-0.269226	-0.773754	99
Es	-2.492622	0.822101	0.801819	99
Es	-2.794429	0.290060	0.859030	99
Es	-3.016781	0.562617	1.272730	99
Es	1.210910	-0.450276	-1.421433	99
Es	2.172285	-0.007633	-0.781397	99
Es	-1.408095	1.525638	1.193286	99
Es	-1.073953	-0.192512	-0.578892	99
Es	0.512520	-1.572738	0.346898	99
Es	-0.842178	0.965031	-0.836753	99
Es	0.570807	0.346310	0.188567	99
Es	1.463807	-1.114456	0.986803	99
Es	-1.681050	0.936969	0.813860	99
36
Properties=species:S:1:pos:R:3:Z:I:1 energy=-284.89250650849164 field_type=dipole dipole="0.000000 0.000000 0.000000" charge=0
O	-2.800726	0.483862	1.047089	8
C	-1.681046	0.936992	0.813879	6
C	-0.804036	0.451362	-0.316291	6
N	0.570974	0.346832	0.188959	7
C	1.003954	-1.026698	0.437019	6
C	1.480494	-0.269268	-0.773941	6
H	-1.298686	1.803282	1.380739	1
H	-0.848896	1.205441	-1.109161	1
H	-1.213816	-0.488668	-0.704981	1
H	0.299114	-1.837838	0.297699	1
H	1.700264	-1.162868	1.256229	1
H	2.496024	0.108592	-0.770281	1
H	1.096384	-0.551018	-1.746961	1
Es	-0.030482	0.361439	-0.046522	99
Es	-2.491981	0.823504	0.803729	99
Es	-2.800383	0.483968	1.046984	99
Es	-0.803924	0.451392	-0.316201	99
Es	1.366335	-0.822027	-0.233933	99
Es	0.512656	-1.572890	0.346803	99
Es	-2.786960	0.298478	0.861142	99
Es	-3.023898	0.552820	1.268248	99
Es	-0.842080	0.965126	-0.836627	99
Es	-1.681051	0.936970	0.813859	99
Es	1.480336	-0.269227	-0.773757	99
Es	-1.408069	1.525669	1.193295	99
Es	1.210803	-0.450576	-1.421845	99
Es	1.003909	-1.026468	0.436918	99
Es	0.964380	0.206659	-0.326744	99
Es	-2.297709	0.491958	1.133503	99
Es	0.674261	0.590278	0.398201	99
Es	-1.234499	0.687738	0.253364	99
Es	-1.073892	-0.192624	-0.579134	99
Es	0.570795	0.346319	0.188567	99
Es	2.172222	-0.007674	-0.781295	99
Es	1.463751	-1.114428	0.986740	99
Es	0.662274	-0.265882	0.411968	99
36
Properties=species:S:1:pos:R:3:Z:I:1 energy=-284.89250650849164 field_type=dipole dipole="0.000000 0.000000 0.000000" charge=0
O	-2.800726	0.483862	1.047089	8
C	-1.681046	0.936992	0.813879	6
C	-0.804036	0.451362	-0.316291	6
N	0.570974	0.346832	0.188959	7
C	1.003954	-1.026698	0.437019	6
C	1.480494	-0.269268	-0.773941	6
H	-1.298686	1.803282	1.380739	1
H	-0.848896	1.205441	-1.109161	1
H	-1.213816	-0.488668	-0.704981	1
H	0.299114	-1.837838	0.297699	1
H	1.700264	-1.162868	1.256229	1
H	2.496024	0.108592	-0.770281	1
H	1.096384	-0.551018	-1.746961	1
Es	2.172196	-0.007576	-0.781460	99
Es	-2.800368	0.484134	1.047132	99
Es	-2.298184	0.492623	1.133769	99
Es	0.964209	0.205971	-0.326840	99
Es	-2.785227	0.299333	0.861606	99
Es	0.512641	-1.572947	0.346854	99
Es	-1.073963	-0.192676	-0.579070	99
Es	1.366429	-0.821895	-0.233894	99
Es	-0.030566	0.361600	-0.046538	99
Es	-1.407980	1.525738	1.193281	99
Es	1.480334	-0.269224	-0.773755	99
Es	1.463634	-1.114396	0.986541	99
Es	-2.491857	0.823565	0.803871	99
Es	-1.681050	0.936969	0.813860	99
Es	1.003911	-1.026473	0.436918	99
Es	-1.234632	0.687932	0.253336	99
Es	-0.803923	0.451392	-0.316201	99
Es	0.662321	-0.265811	0.412318	99
Es	0.674602	0.590596	0.398004	99
Es	0.570812	0.346319	0.188574	99
Es	-3.025260	0.551014	1.267236	99
Es	-0.842066	0.964912	-0.836576	99
Es	1.210786	-0.450577	-1.421700	99
36
Properties=species:S:1:pos:R:3:Z:I:1 energy=-284.89250650849164 field_type=dipole dipole="0.000000 0.000000 0.000000" charge=0
O	-2.800726	0.483862	1.047089	8
C	-1.681046	0.936992	0.813879	6
C	-0.804036	0.451362	-0.316291	6
N	0.570974	0.346832	0.188959	7
C	1.003954	-1.026698	0.437019	6
C	1.480494	-0.269268	-0.773941	6
H	-1.298686	1.803282	1.380739	1
H	-0.848896	1.205441	-1.109161	1
H	-1.213816	-0.488668	-0.704981	1
H	0.299114	-1.837838	0.297699	1
H	1.700264	-1.162868	1.256229	1
H	2.496024	0.108592	-0.770281	1
H	1.096384	-0.551018	-1.746961	1
Es	1.210822	-0.450693	-1.421771	99
Es	0.662135	-0.265616	0.411973	99
Es	-0.803925	0.451392	-0.316202	99
Es	1.003912	-1.026474	0.436917	99
Es	-1.681051	0.936971	0.813859	99
Es	-0.030486	0.361444	-0.046440	99
Es	-2.491335	0.824213	0.804708	99
Es	0.675178	0.591664	0.398511	99
Es	-3.028371	0.546429	1.264978	99
Es	-0.842006	0.964995	-0.836489	99
Es	-2.299071	0.492926	1.134033	99
Es	1.480333	-0.269224	-0.773753	99
Es	-1.234563	0.687926	0.253280	99
Es	2.172207	-0.007584	-0.781371	99
Es	1.366542	-0.821968	-0.233890	99
Es	-1.408048	1.525717	1.193288	99
Es	1.463577	-1.114391	0.986584	99
Es	-2.781716	0.303022	0.862841	99
Es	0.963547	0.205020	-0.327125	99
Es	-1.073973	-0.192712	-0.579189	99
Es	0.570818	0.346311	0.188589	99
Es	0.512657	-1.572929	0.346831	99
Es	-2.800385	0.484082	1.047104	99
36
Properties=species:S:1:pos:R:3:Z:I:1 energy=-284.89250650849164 field_type=dipole dipole="0.000000 0.000000 0.000000" charge=0
O	-2.800726	0.483862	1.047089	8
C	-1.681046	0.936992	0.813879	6
C	-0.804036	0.451362	-0.316291	6
N	0.570974	0.346832	0.188959	7
C	1.003954	-1.026698	0.437019	6
C	1.480494	-0.269268	-0.773941	6
H	-1.298686	1.803282	1.380739	1
H	-0.848896	1.205441	-1.109161	1
H	-1.213816	-0.488668	-0.704981	1
H	0.299114	-1.837838	0.297699	1
H	1.700264	-1.162868	1.256229	1
H	2.496024	0.108592	-0.770281	1
H	1.096384	-0.551018	-1.746961	1
Es	-0.803928	0.451393	-0.316203	99
Es	1.366672	-0.821882	-0.233786	99
Es	-1.234564	0.688042	0.253231	99
Es	1.480331	-0.269221	-0.773753	99
Es	-0.030546	0.361546	-0.046458	99
Es	-3.028270	0.546243	1.265079	99
Es	0.662225	-0.265673	0.411933	99
Es	2.172184	-0.007508	-0.781327	99
Es	0.512650	-1.573013	0.346962	99
Es	0.963852	0.205441	-0.327003	99
Es	-2.782044	0.303505	0.862286	99
Es	0.674962	0.591143	0.398516	99
Es	-1.681050	0.936968	0.813861	99
Es	-2.490684	0.824609	0.805547	99
Es	-2.299438	0.492181	1.133692	99
Es	1.003915	-1.026475	0.436913	99
Es	1.463420	-1.114309	0.986323	99
Es	1.210815	-0.450733	-1.421841	99
Es	-1.408119	1.525776	1.193273	99
Es	-2.800392	0.484042	1.047060	99
Es	-0.842020	0.964879	-0.836544	99
Es	0.570792	0.346327	0.188574	99
Es	-1.073968	-0.192759	-0.579071	99
