44
Properties=species:S:1:pos:R:3:Z:I:1 energy=-304.0889470442223 field_type=dipole dipole="0.000000 0.000000 0.000000" charge=0
C	-1.525855	-0.616874	0.669223	6
C	-0.029655	-0.588624	0.370873	6
C	0.411645	-1.294064	-0.889277	6
C	-0.361475	-1.737344	-1.889767	6
C	0.415585	0.852846	0.239803	6
N	1.333885	1.338906	1.015223	7
N	1.605265	2.639106	0.757353	7
H	-1.734825	-0.112584	1.619813	1
H	-1.893705	-1.645684	0.748443	1
H	-2.108235	-0.099404	-0.101767	1
H	0.497705	-1.047264	1.216353	1
H	1.488605	-1.450624	-0.971477	1
H	-1.439835	-1.619884	-1.894537	1
H	0.083125	-2.233384	-2.748437	1
H	-0.076675	1.460956	-0.543917	1
H	2.457315	2.909016	1.256513	1
H	0.877135	3.244906	1.145583	1
Es	-1.771339	-1.315287	0.720340	99
Es	1.333591	1.339247	1.014808	99
Es	0.073351	1.261855	-0.287821	99
Es	1.453754	2.000663	0.896102	99
Es	-1.916330	-0.263349	0.138228	99
Es	0.415522	0.852820	0.239853	99
Es	1.160322	2.981098	1.003565	99
Es	1.142595	-1.394190	-0.936571	99
Es	0.727659	1.216188	0.875748	99
Es	-0.029678	-0.588582	0.370800	99
Es	0.170252	-0.938994	-0.268044	99
Es	-1.093337	-1.659788	-1.895272	99
Es	1.605180	2.638952	0.757986	99
Es	0.042628	-1.226211	-1.546474	99
Es	1.117524	1.053843	0.476549	99
Es	0.192638	0.132371	0.300762	99
Es	-0.066467	-2.073226	-2.473800	99
Es	-1.525819	-0.616866	0.669209	99
Es	0.411690	-1.294019	-0.889163	99
Es	-0.017954	-1.804403	-1.244579	99
Es	1.632141	2.684524	0.409496	99
Es	0.326209	-0.900110	0.933048	99
Es	-0.778070	-0.599914	0.501768	99
Es	2.111728	2.797122	1.075233	99
Es	1.532078	1.152102	1.274328	99
Es	-1.660321	-0.271841	1.314443	99
Es	-0.361537	-1.737370	-1.889841	99
44
Properties=species:S:1:pos:R:3:Z:I:1 energy=-304.0889470442223 field_type=dipole dipole="0.000000 0.000000 0.000000" charge=0
C	-1.525855	-0.616874	0.669223	6
C	-0.029655	-0.588624	0.370873	6
C	0.411645	-1.294064	-0.889277	6
C	-0.361475	-1.737344	-1.889767	6
C	0.415585	0.852846	0.239803	6
N	1.333885	1.338906	1.015223	7
N	1.605265	2.639106	0.757353	7
H	-1.734825	-0.112584	1.619813	1
H	-1.893705	-1.645684	0.748443	1
H	-2.108235	-0.099404	-0.101767	1
H	0.497705	-1.047264	1.216353	1
H	1.488605	-1.450624	-0.971477	1
H	-1.439835	-1.619884	-1.894537	1
H	0.083125	-2.233384	-2.748437	1
H	-0.076675	1.460956	-0.543917	1
H	2.457315	2.909016	1.256513	1
H	0.877135	3.244906	1.145583	1
Es	2.114813	2.800491	1.079347	99
Es	-1.093576	-1.661945	-1.894901	99
Es	-0.029676	-0.588579	0.370802	99
Es	1.527462	1.150542	1.277071	99
Es	1.629076	2.687260	0.414643	99
Es	1.142027	-1.392399	-0.937113	99
Es	1.605170	2.638996	0.757982	99
Es	1.162526	2.975609	1.000337	99
Es	-1.915411	-0.263444	0.137843	99
Es	0.170826	-0.937991	-0.269455	99
Es	1.454286	1.999556	0.893800	99
Es	0.043322	-1.224027	-1.547844	99
Es	-0.361540	-1.737383	-1.889836	99
Es	0.728403	1.218416	0.872423	99
Es	-0.778545	-0.599943	0.501533	99
Es	1.117291	1.054311	0.475046	99
Es	-1.525818	-0.616866	0.669208	99
Es	-1.660025	-0.271064	1.315529	99
Es	-1.770915	-1.315902	0.719577	99
Es	0.411692	-1.294004	-0.889170	99
Es	0.415530	0.852808	0.239825	99
Es	1.333574	1.339230	1.014791	99
Es	-0.018384	-1.805804	-1.244185	99
Es	0.193016	0.132317	0.299936	99
Es	-0.067242	-2.075059	-2.471685	99
Es	0.325860	-0.899990	0.933317	99
Es	0.074265	1.261502	-0.288121	99
44
Properties=species:S:1:pos:R:3:Z:I:1 energy=-304.0889470442223 field_type=dipole dipole="0.000000 0.000000 0.000000" charge=0
C	-1.525855	-0.616874	0.669223	6
C	-0.029655	-0.588624	0.370873	6
C	0.411645	-1.294064	-0.889277	6
C	-0.361475	-1.737344	-1.889767	6
C	0.415585	0.852846	0.239803	6
N	1.333885	1.338906	1.015223	7
N	1.605265	2.639106	0.757353	7
H	-1.734825	-0.112584	1.619813	1
H	-1.893705	-1.645684	0.748443	1
H	-2.108235	-0.099404	-0.101767	1
H	0.497705	-1.047264	1.216353	1
H	1.488605	-1.450624	-0.971477	1
H	-1.439835	-1.619884	-1.894537	1
H	0.083125	-2.233384	-2.748437	1
H	-0.076675	1.460956	-0.543917	1
H	2.457315	2.909016	1.256513	1
H	0.877135	3.244906	1.145583	1
Es	-0.779413	-0.600138	0.501405	99
Es	-1.914909	-0.263509	0.137334	99
Es	-1.094108	-1.663270	-1.895102	99
Es	0.043691	-1.223095	-1.548500	99
Es	2.115472	2.803496	1.082727	99
Es	-0.361543	-1.737387	-1.889839	99
Es	1.116569	1.055172	0.474023	99
Es	0.728103	1.219778	0.871489	99
Es	0.326031	-0.899590	0.933700	99
Es	1.141800	-1.391561	-0.937660	99
Es	-0.018700	-1.806329	-1.244014	99
Es	0.411694	-1.294002	-0.889174	99
Es	-0.029678	-0.588580	0.370802	99
Es	1.333575	1.339247	1.014790	99
Es	0.415536	0.852805	0.239818	99
Es	0.171145	-0.937466	-0.270543	99
Es	-1.770386	-1.316107	0.719111	99
Es	1.455142	1.997902	0.889867	99
Es	-0.067482	-2.075747	-2.469857	99
Es	1.625671	2.691123	0.419417	99
Es	1.166525	2.969496	0.998815	99
Es	-1.659300	-0.270420	1.316596	99
Es	1.525446	1.149492	1.277395	99
Es	0.074893	1.261254	-0.288260	99
Es	-1.525820	-0.616865	0.669207	99
Es	0.192864	0.131984	0.299132	99
Es	1.605191	2.638957	0.758019	99
44
Properties=species:S:1:pos:R:3:Z:I:1 energy=-304.0889470442223 field_type=dipole dipole="0.000000 0.000000 0.000000" charge=0
C	-1.525855	-0.616874	0.669223	6
C	-0.029655	-0.588624	0.370873	6
C	0.411645	-1.294064	-0.889277	6
C	-0.361475	-1.737344	-1.889767	6
C	0.415585	0.852846	0.239803	6
N	1.333885	1.338906	1.015223	7
N	1.605265	2.639106	0.757353	7
H	-1.734825	-0.112584	1.619813	1
H	-1.893705	-1.645684	0.748443	1
H	-2.108235	-0.099404	-0.101767	1
H	0.497705	-1.047264	1.216353	1
H	1.488605	-1.450624	-0.971477	1
H	-1.439835	-1.619884	-1.894537	1
H	0.083125	-2.233384	-2.748437	1
H	-0.076675	1.460956	-0.543917	1
H	2.457315	2.909016	1.256513	1
H	0.877135	3.244906	1.145583	1
Es	0.043948	-1.222600	-1.548966	99
Es	-1.914928	-0.263671	0.136869	99
Es	0.192390	0.131554	0.298370	99
Es	-0.361539	-1.737373	-1.889841	99
Es	0.728257	1.220976	0.870676	99
Es	-1.525818	-0.616867	0.669208	99
Es	-0.780272	-0.600535	0.500898	99
Es	-0.029676	-0.588581	0.370801	99
Es	1.333594	1.339264	1.014804	99
Es	1.605182	2.638940	0.758062	99
Es	1.141764	-1.391104	-0.937859	99
Es	1.523566	1.148220	1.276942	99
Es	1.622591	2.695231	0.426221	99
Es	2.114518	2.805984	1.085936	99
Es	0.415534	0.852804	0.239818	99
Es	0.170948	-0.937297	-0.271397	99
Es	-1.769866	-1.315906	0.719048	99
Es	-0.067174	-2.075780	-2.467814	99
Es	1.456792	1.996051	0.883722	99
Es	0.411692	-1.294004	-0.889171	99
Es	0.326394	-0.899165	0.934227	99
Es	-0.018985	-1.806401	-1.243979	99
Es	1.115421	1.056263	0.473221	99
Es	-1.658014	-0.269808	1.317600	99
Es	1.171242	2.963774	0.997663	99
Es	0.075344	1.261154	-0.288285	99
Es	-1.094899	-1.664484	-1.896074	99
44
Properties=species:S:1:pos:R:3:Z:I:1 energy=-304.0889470442223 field_type=dipole dipole="0.000000 0.000000 0.000000" charge=0
C	-1.525855	-0.616874	0.669223	6
C	-0.029655	-0.588624	0.370873	6
C	0.411645	-1.294064	-0.889277	6
C	-0.361475	-1.737344	-1.889767	6
C	0.415585	0.852846	0.239803	6
N	1.333885	1.338906	1.015223	7
N	1.605265	2.639106	0.757353	7
H	-1.734825	-0.112584	1.619813	1
H	-1.893705	-1.645684	0.748443	1
H	-2.108235	-0.099404	-0.101767	1
H	0.497705	-1.047264	1.216353	1
H	1.488605	-1.450624	-0.971477	1
H	-1.439835	-1.619884	-1.894537	1
H	0.083125	-2.233384	-2.748437	1
H	-0.076675	1.460956	-0.543917	1
H	2.457315	2.909016	1.256513	1
H	0.877135	3.244906	1.145583	1
Es	0.170515	-0.937317	-0.272358	99
Es	0.728033	1.221981	0.869695	99
Es	-1.525817	-0.616867	0.669207	99
Es	1.521749	1.147529	1.276429	99
Es	0.411690	-1.293999	-0.889171	99
Es	1.605194	2.638954	0.758038	99
Es	1.141882	-1.390717	-0.937887	99
Es	0.191677	0.130752	0.297408	99
Es	-1.769207	-1.315479	0.719172	99
Es	0.327030	-0.898466	0.934974	99
Es	-0.781493	-0.600824	0.500495	99
Es	1.333568	1.339257	1.014777	99
Es	-0.361540	-1.737380	-1.889838	99
Es	1.177519	2.957036	0.998489	99
Es	0.415535	0.852803	0.239817	99
Es	-0.029676	-0.588582	0.370802	99
Es	-1.656421	-0.269113	1.318562	99
Es	-0.066820	-2.075140	-2.465623	99
Es	1.617443	2.699918	0.433963	99
Es	0.075540	1.261165	-0.288101	99
Es	-0.019194	-1.806595	-1.244128	99
Es	1.458702	1.994843	0.875671	99
Es	1.115324	1.056944	0.472604	99
Es	2.113466	2.808095	1.087950	99
Es	-1.095766	-1.665636	-1.897541	99
Es	0.044183	-1.222497	-1.548950	99
Es	-1.915109	-0.264027	0.136243	99
44
Properties=species:S:1:pos:R:3:Z:I:1 energy=-304.0889470442223 field_type=dipole dipole="0.000000 0.000000 0.000000" charge=0
C	-1.525855	-0.616874	0.669223	6
C	-0.029655	-0.588624	0.370873	6
C	0.411645	-1.294064	-0.889277	6
C	-0.361475	-1.737344	-1.889767	6
C	0.415585	0.852846	0.239803	6
N	1.333885	1.338906	1.015223	7
N	1.605265	2.639106	0.757353	7
H	-1.734825	-0.112584	1.619813	1
H	-1.893705	-1.645684	0.748443	1
H	-2.108235	-0.099404	-0.101767	1
H	0.497705	-1.047264	1.216353	1
H	1.488605	-1.450624	-0.971477	1
H	-1.439835	-1.619884	-1.894537	1
H	0.083125	-2.233384	-2.748437	1
H	-0.076675	1.460956	-0.543917	1
H	2.457315	2.909016	1.256513	1
H	0.877135	3.244906	1.145583	1
Es	1.610828	2.704281	0.446056	99
Es	0.044204	-1.222262	-1.549223	99
Es	-0.066451	-2.074076	-2.463052	99
Es	-1.096508	-1.667072	-1.899571	99
Es	-1.915594	-0.264375	0.135714	99
Es	1.114788	1.057670	0.472066	99
Es	1.461163	1.995266	0.862749	99
Es	2.112021	2.809698	1.089803	99
Es	-0.361538	-1.737379	-1.889842	99
Es	0.190367	0.129410	0.296231	99
Es	-0.019299	-1.806558	-1.244096	99
Es	-1.525820	-0.616867	0.669209	99
Es	0.411690	-1.293999	-0.889173	99
Es	1.333562	1.339254	1.014773	99
Es	-1.768465	-1.315019	0.719440	99
Es	0.415534	0.852804	0.239819	99
Es	1.142058	-1.390458	-0.937849	99
Es	-0.029679	-0.588580	0.370804	99
Es	0.170092	-0.937550	-0.272913	99
Es	1.520529	1.147052	1.274802	99
Es	-0.783558	-0.601247	0.499914	99
Es	0.727922	1.222547	0.869562	99
Es	1.185021	2.949672	0.999907	99
Es	0.328292	-0.897231	0.936092	99
Es	0.075653	1.261163	-0.288011	99
Es	-1.653989	-0.268456	1.319440	99
Es	1.605185	2.638951	0.758051	99
44
Properties=species:S:1:pos:R:3:Z:I:1 energy=-304.0889470442223 field_type=dipole dipole="0.000000 0.000000 0.000000" charge=0
C	-1.525855	-0.616874	0.669223	6
C	-0.029655	-0.588624	0.370873	6
C	0.411645	-1.294064	-0.889277	6
C	-0.361475	-1.737344	-1.889767	6
C	0.415585	0.852846	0.239803	6
N	1.333885	1.338906	1.015223	7
N	1.605265	2.639106	0.757353	7
H	-1.734825	-0.112584	1.619813	1
H	-1.893705	-1.645684	0.748443	1
H	-2.108235	-0.099404	-0.101767	1
H	0.497705	-1.047264	1.216353	1
H	1.488605	-1.450624	-0.971477	1
H	-1.439835	-1.619884	-1.894537	1
H	0.083125	-2.233384	-2.748437	1
H	-0.076675	1.460956	-0.543917	1
H	2.457315	2.909016	1.256513	1
H	0.877135	3.244906	1.145583	1
Es	0.411690	-1.293997	-0.889171	99
Es	0.075999	1.261171	-0.287790	99
Es	0.044176	-1.222091	-1.549251	99
Es	1.461224	1.998277	0.847042	99
Es	-1.916089	-0.264742	0.135357	99
Es	1.521026	1.147101	1.275369	99
Es	1.142290	-1.390059	-0.937700	99
Es	1.604474	2.705474	0.459946	99
Es	-0.361541	-1.737376	-1.889840	99
Es	0.415536	0.852802	0.239817	99
Es	-0.066386	-2.072499	-2.460247	99
Es	1.333551	1.339267	1.014759	99
Es	1.605172	2.638992	0.758005	99
Es	1.192172	2.943350	1.000616	99
Es	1.114942	1.057846	0.471932	99
Es	-1.525816	-0.616868	0.669205	99
Es	-0.029676	-0.588580	0.370803	99
Es	-1.096866	-1.668851	-1.902008	99
Es	-1.651347	-0.267873	1.320058	99
Es	0.189046	0.128173	0.295171	99
Es	-0.019272	-1.806815	-1.244121	99
Es	-0.785982	-0.601732	0.499402	99
Es	0.329261	-0.895919	0.936888	99
Es	0.727650	1.223102	0.869071	99
Es	0.169753	-0.937797	-0.273397	99
Es	-1.767775	-1.314675	0.719685	99
Es	2.110796	2.810956	1.091101	99
44
Properties=species:S:1:pos:R:3:Z:I:1 energy=-304.0889470442223 field_type=dipole dipole="0.000000 0.000000 0.000000" charge=0
C	-1.525855	-0.616874	0.669223	6
C	-0.029655	-0.588624	0.370873	6
C	0.411645	-1.294064	-0.889277	6
C	-0.361475	-1.737344	-1.889767	6
C	0.415585	0.852846	0.239803	6
N	1.333885	1.338906	1.015223	7
N	1.605265	2.639106	0.757353	7
H	-1.734825	-0.112584	1.619813	1
H	-1.893705	-1.645684	0.748443	1
H	-2.108235	-0.099404	-0.101767	1
H	0.497705	-1.047264	1.216353	1
H	1.488605	-1.450624	-0.971477	1
H	-1.439835	-1.619884	-1.894537	1
H	0.083125	-2.233384	-2.748437	1
H	-0.076675	1.460956	-0.543917	1
H	2.457315	2.909016	1.256513	1
H	0.877135	3.244906	1.145583	1
Es	1.520777	1.146946	1.274739	99
Es	0.415535	0.852803	0.239819	99
Es	-0.029675	-0.588581	0.370804	99
Es	0.411689	-1.293999	-0.889171	99
Es	0.330097	-0.894977	0.937471	99
Es	1.462952	2.002669	0.833559	99
Es	-0.066527	-2.070950	-2.457575	99
Es	-1.648320	-0.267226	1.320388	99
Es	-0.361540	-1.737379	-1.889840	99
Es	-1.767474	-1.314439	0.719863	99
Es	1.605179	2.638926	0.758107	99
Es	0.076621	1.261302	-0.287292	99
Es	-0.789351	-0.602644	0.498800	99
Es	-1.525818	-0.616867	0.669206	99
Es	1.113994	1.058285	0.471707	99
Es	0.728196	1.223452	0.869021	99
Es	1.597142	2.706517	0.471984	99
Es	0.169973	-0.937561	-0.273414	99
Es	1.333543	1.339238	1.014767	99
Es	1.199182	2.936643	1.002177	99
Es	-0.019310	-1.806873	-1.244233	99
Es	0.187645	0.127049	0.294072	99
Es	0.044124	-1.222002	-1.549151	99
Es	-1.916271	-0.264973	0.135108	99
Es	-1.096878	-1.670499	-1.904494	99
Es	1.142472	-1.389828	-0.937571	99
Es	2.110052	2.811606	1.091846	99
44
Properties=species:S:1:pos:R:3:Z:I:1 energy=-304.0889470442223 field_type=dipole dipole="0.000000 0.000000 0.000000" charge=0
C	-1.525855	-0.616874	0.669223	6
C	-0.029655	-0.588624	0.370873	6
C	0.411645	-1.294064	-0.889277	6
C	-0.361475	-1.737344	-1.889767	6
C	0.415585	0.852846	0.239803	6
N	1.333885	1.338906	1.015223	7
N	1.605265	2.639106	0.757353	7
H	-1.734825	-0.112584	1.619813	1
H	-1.893705	-1.645684	0.748443	1
H	-2.108235	-0.099404	-0.101767	1
H	0.497705	-1.047264	1.216353	1
H	1.488605	-1.450624	-0.971477	1
H	-1.439835	-1.619884	-1.894537	1
H	0.083125	-2.233384	-2.748437	1
H	-0.076675	1.460956	-0.543917	1
H	2.457315	2.909016	1.256513	1
H	0.877135	3.244906	1.145583	1
Es	-0.066918	-2.069373	-2.454914	99
Es	1.605189	2.638938	0.758080	99
Es	1.463564	2.007513	0.823681	99
Es	-0.361541	-1.737383	-1.889837	99
Es	0.186773	0.126002	0.293339	99
Es	0.411687	-1.293998	-0.889171	99
Es	-1.096600	-1.672190	-1.906991	99
Es	2.109260	2.812275	1.092544	99
Es	-0.791221	-0.602873	0.498786	99
Es	1.592636	2.704904	0.482479	99
Es	-1.646273	-0.266895	1.320463	99
Es	1.113735	1.058413	0.471593	99
Es	-0.029677	-0.588577	0.370804	99
Es	-0.019322	-1.806946	-1.244280	99
Es	0.415536	0.852802	0.239819	99
Es	0.728383	1.223682	0.868872	99
Es	1.333552	1.339253	1.014765	99
Es	0.330852	-0.893932	0.937974	99
Es	1.520015	1.146901	1.273989	99
Es	-1.767103	-1.314214	0.720076	99
Es	-1.916542	-0.265199	0.134848	99
Es	0.169633	-0.937807	-0.273781	99
Es	1.142664	-1.389589	-0.937331	99
Es	-1.525818	-0.616868	0.669206	99
Es	0.044060	-1.221865	-1.549138	99
Es	1.204630	2.932377	1.001994	99
Es	0.076854	1.261286	-0.287168	99
44
Properties=species:S:1:pos:R:3:Z:I:1 energy=-304.0889470442223 field_type=dipole dipole="0.000000 0.000000 0.000000" charge=0
C	-1.525855	-0.616874	0.669223	6
C	-0.029655	-0.588624	0.370873	6
C	0.411645	-1.294064	-0.889277	6
C	-0.361475	-1.737344	-1.889767	6
C	0.415585	0.852846	0.239803	6
N	1.333885	1.338906	1.015223	7
N	1.605265	2.639106	0.757353	7
H	-1.734825	-0.112584	1.619813	1
H	-1.893705	-1.645684	0.748443	1
H	-2.108235	-0.099404	-0.101767	1
H	0.497705	-1.047264	1.216353	1
H	1.488605	-1.450624	-0.971477	1
H	-1.439835	-1.619884	-1.894537	1
H	0.083125	-2.233384	-2.748437	1
H	-0.076675	1.460956	-0.543917	1
H	2.457315	2.909016	1.256513	1
H	0.877135	3.244906	1.145583	1
Es	-1.525817	-0.616870	0.669205	99
Es	1.333547	1.339238	1.014767	99
Es	0.331649	-0.892872	0.938503	99
Es	-0.794334	-0.603258	0.498677	99
Es	-0.067452	-2.067965	-2.452662	99
Es	0.415536	0.852802	0.239818	99
Es	-0.361539	-1.737382	-1.889840	99
Es	-1.916721	-0.265343	0.134691	99
Es	1.208454	2.928971	1.002194	99
Es	1.519221	1.146887	1.272737	99
Es	-0.029675	-0.588579	0.370805	99
Es	-0.019359	-1.806985	-1.244385	99
Es	1.605158	2.638985	0.758021	99
Es	-1.643391	-0.266576	1.320516	99
Es	2.108747	2.812799	1.092923	99
Es	1.113429	1.058723	0.471466	99
Es	1.588953	2.703353	0.490519	99
Es	1.142848	-1.389432	-0.937150	99
Es	1.465040	2.011474	0.816469	99
Es	0.185607	0.124752	0.292347	99
Es	0.043995	-1.221791	-1.549017	99
Es	0.077339	1.261325	-0.286720	99
Es	0.728437	1.223806	0.868901	99
Es	0.169615	-0.937802	-0.273884	99
Es	0.411685	-1.293997	-0.889168	99
Es	-1.096175	-1.673613	-1.909140	99
Es	-1.766788	-1.314013	0.720109	99
44
Properties=species:S:1:pos:R:3:Z:I:1 energy=-304.0889470442223 field_type=dipole dipole="0.000000 0.000000 0.000000" charge=0
C	-1.525855	-0.616874	0.669223	6
C	-0.029655	-0.588624	0.370873	6
C	0.411645	-1.294064	-0.889277	6
C	-0.361475	-1.737344	-1.889767	6
C	0.415585	0.852846	0.239803	6
N	1.333885	1.338906	1.015223	7
N	1.605265	2.639106	0.757353	7
H	-1.734825	-0.112584	1.619813	1
H	-1.893705	-1.645684	0.748443	1
H	-2.108235	-0.099404	-0.101767	1
H	0.497705	-1.047264	1.216353	1
H	1.488605	-1.450624	-0.971477	1
H	-1.439835	-1.619884	-1.894537	1
H	0.083125	-2.233384	-2.748437	1
H	-0.076675	1.460956	-0.543917	1
H	2.457315	2.909016	1.256513	1
H	0.877135	3.244906	1.145583	1
Es	1.465884	2.015690	0.809898	99
Es	1.142777	-1.389350	-0.937303	99
Es	0.044000	-1.221755	-1.549148	99
Es	0.184748	0.123513	0.291762	99
Es	-1.640898	-0.266249	1.320348	99
Es	0.170129	-0.937538	-0.273534	99
Es	2.108436	2.813029	1.093207	99
Es	1.211638	2.926573	1.001865	99
Es	0.415536	0.852802	0.239819	99
Es	1.333558	1.339241	1.014772	99
Es	1.605162	2.638885	0.758186	99
Es	1.518284	1.146929	1.271938	99
Es	-0.797192	-0.603914	0.498569	99
Es	1.586140	2.701200	0.497927	99
Es	1.113037	1.058831	0.471461	99
Es	0.332416	-0.891486	0.938980	99
Es	0.077395	1.261307	-0.286658	99
Es	0.411688	-1.294000	-0.889172	99
Es	-0.019351	-1.807037	-1.244291	99
Es	-1.525815	-0.616869	0.669204	99
Es	0.728837	1.223885	0.868737	99
Es	-0.068062	-2.066740	-2.450471	99
Es	-1.766653	-1.313865	0.720256	99
Es	-0.361541	-1.737382	-1.889837	99
Es	-1.916819	-0.265500	0.134537	99
Es	-0.029675	-0.588580	0.370805	99
Es	-1.095652	-1.674983	-1.911158	99
44
Properties=species:S:1:pos:R:3:Z:I:1 energy=-304.0889470442223 field_type=dipole dipole="0.000000 0.000000 0.000000" charge=0
C	-1.525855	-0.616874	0.669223	6
C	-0.029655	-0.588624	0.370873	6
C	0.411645	-1.294064	-0.889277	6
C	-0.361475	-1.737344	-1.889767	6
C	0.415585	0.852846	0.239803	6
N	1.333885	1.338906	1.015223	7
N	1.605265	2.639106	0.757353	7
H	-1.734825	-0.112584	1.619813	1
H	-1.893705	-1.645684	0.748443	1
H	-2.108235	-0.099404	-0.101767	1
H	0.497705	-1.047264	1.216353	1
H	1.488605	-1.450624	-0.971477	1
H	-1.439835	-1.619884	-1.894537	1
H	0.083125	-2.233384	-2.748437	1
H	-0.076675	1.460956	-0.543917	1
H	2.457315	2.909016	1.256513	1
H	0.877135	3.244906	1.145583	1
Es	0.415537	0.852802	0.239816	99
Es	-1.638747	-0.266022	1.320109	99
Es	2.108286	2.813254	1.093269	99
Es	1.518019	1.147182	1.271373	99
Es	-0.799476	-0.604225	0.498648	99
Es	0.411687	-1.293999	-0.889171	99
Es	-1.917073	-0.265725	0.134368	99
Es	0.044001	-1.221931	-1.548776	99
Es	0.332867	-0.890697	0.939206	99
Es	0.183710	0.122779	0.291017	99
Es	0.077908	1.261331	-0.286118	99
Es	1.466408	2.019370	0.803875	99
Es	0.728587	1.223929	0.868789	99
Es	-0.068673	-2.065552	-2.448597	99
Es	1.333557	1.339200	1.014791	99
Es	-0.029671	-0.588580	0.370800	99
Es	-0.361541	-1.737378	-1.889839	99
Es	1.113309	1.058740	0.471405	99
Es	1.605101	2.639068	0.757976	99
Es	1.215112	2.923317	1.002380	99
Es	-1.766386	-1.313705	0.720472	99
Es	1.142848	-1.389250	-0.937173	99
Es	0.170217	-0.937425	-0.273612	99
Es	-1.525818	-0.616868	0.669205	99
Es	-1.095045	-1.676140	-1.913054	99
Es	1.582659	2.700140	0.504119	99
Es	-0.019374	-1.806976	-1.244579	99
44
Properties=species:S:1:pos:R:3:Z:I:1 energy=-304.0889470442223 field_type=dipole dipole="0.000000 0.000000 0.000000" charge=0
C	-1.525855	-0.616874	0.669223	6
C	-0.029655	-0.588624	0.370873	6
C	0.411645	-1.294064	-0.889277	6
C	-0.361475	-1.737344	-1.889767	6
C	0.415585	0.852846	0.239803	6
N	1.333885	1.338906	1.015223	7
N	1.605265	2.639106	0.757353	7
H	-1.734825	-0.112584	1.619813	1
H	-1.893705	-1.645684	0.748443	1
H	-2.108235	-0.099404	-0.101767	1
H	0.497705	-1.047264	1.216353	1
H	1.488605	-1.450624	-0.971477	1
H	-1.439835	-1.619884	-1.894537	1
H	0.083125	-2.233384	-2.748437	1
H	-0.076675	1.460956	-0.543917	1
H	2.457315	2.909016	1.256513	1
H	0.877135	3.244906	1.145583	1
Es	-0.029675	-0.588579	0.370805	99
Es	-0.361541	-1.737380	-1.889839	99
Es	1.333553	1.339255	1.014765	99
Es	-1.525817	-0.616868	0.669206	99
Es	0.183215	0.122092	0.290654	99
Es	0.411688	-1.293999	-0.889172	99
Es	0.729043	1.224013	0.868606	99
Es	-1.094805	-1.676707	-1.913672	99
Es	1.142782	-1.389192	-0.937296	99
Es	-1.916990	-0.265675	0.134389	99
Es	0.333275	-0.889933	0.939463	99
Es	-0.802339	-0.605000	0.498208	99
Es	0.078002	1.261302	-0.286048	99
Es	2.107855	2.813698	1.093546	99
Es	0.415536	0.852802	0.239818	99
Es	1.580378	2.698246	0.509737	99
Es	1.217825	2.921259	1.001898	99
Es	-1.636750	-0.265889	1.319861	99
Es	1.466510	2.022714	0.798933	99
Es	0.043987	-1.221842	-1.548859	99
Es	1.605175	2.638934	0.758086	99
Es	1.112833	1.058976	0.471361	99
Es	-0.019361	-1.807039	-1.244559	99
Es	0.171135	-0.936784	-0.272819	99
Es	-1.766357	-1.313768	0.720394	99
Es	1.517847	1.147126	1.271053	99
Es	-0.068994	-2.065124	-2.447818	99
44
Properties=species:S:1:pos:R:3:Z:I:1 energy=-304.0889470442223 field_type=dipole dipole="0.000000 0.000000 0.000000" charge=0
C	-1.525855	-0.616874	0.669223	6
C	-0.029655	-0.588624	0.370873	6
C	0.411645	-1.294064	-0.889277	6
C	-0.361475	-1.737344	-1.889767	6
C	0.415585	0.852846	0.239803	6
N	1.333885	1.338906	1.015223	7
N	1.605265	2.639106	0.757353	7
H	-1.734825	-0.112584	1.619813	1
H	-1.893705	-1.645684	0.748443	1
H	-2.108235	-0.099404	-0.101767	1
H	0.497705	-1.047264	1.216353	1
H	1.488605	-1.450624	-0.971477	1
H	-1.439835	-1.619884	-1.894537	1
H	0.083125	-2.233384	-2.748437	1
H	-0.076675	1.460956	-0.543917	1
H	2.457315	2.909016	1.256513	1
H	0.877135	3.244906	1.145583	1
Es	1.467783	2.025842	0.794820	99
Es	0.415535	0.852802	0.239819	99
Es	-0.069645	-2.064079	-2.446157	99
Es	0.411686	-1.293996	-0.889168	99
Es	0.182898	0.121692	0.290370	99
Es	-1.525816	-0.616869	0.669204	99
Es	0.043915	-1.221530	-1.549368	99
Es	0.078207	1.261299	-0.285854	99
Es	0.333460	-0.889629	0.939546	99
Es	-0.803605	-0.604837	0.498624	99
Es	0.728897	1.224107	0.868555	99
Es	0.170617	-0.937224	-0.273426	99
Es	-0.019362	-1.807260	-1.244062	99
Es	1.143062	-1.388988	-0.936944	99
Es	1.333556	1.339245	1.014770	99
Es	-1.917290	-0.265935	0.134193	99
Es	-0.029677	-0.588579	0.370808	99
Es	1.113006	1.058921	0.471340	99
Es	1.578871	2.696061	0.514709	99
Es	-0.361539	-1.737382	-1.889842	99
Es	1.219274	2.920008	1.001912	99
Es	2.107721	2.813770	1.093668	99
Es	-1.635200	-0.265807	1.319648	99
Es	1.516718	1.147251	1.270287	99
Es	1.605170	2.639003	0.757956	99
Es	-1.766052	-1.313491	0.720593	99
Es	-1.094182	-1.677756	-1.915302	99
44
Properties=species:S:1:pos:R:3:Z:I:1 energy=-304.0889470442223 field_type=dipole dipole="0.000000 0.000000 0.000000" charge=0
C	-1.525855	-0.616874	0.669223	6
C	-0.029655	-0.588624	0.370873	6
C	0.411645	-1.294064	-0.889277	6
C	-0.361475	-1.737344	-1.889767	6
C	0.415585	0.852846	0.239803	6
N	1.333885	1.338906	1.015223	7
N	1.605265	2.639106	0.757353	7
H	-1.734825	-0.112584	1.619813	1
H	-1.893705	-1.645684	0.748443	1
H	-2.108235	-0.099404	-0.101767	1
H	0.497705	-1.047264	1.216353	1
H	1.488605	-1.450624	-0.971477	1
H	-1.439835	-1.619884	-1.894537	1
H	0.083125	-2.233384	-2.748437	1
H	-0.076675	1.460956	-0.543917	1
H	2.457315	2.909016	1.256513	1
H	0.877135	3.244906	1.145583	1
Es	-0.070168	-2.063324	-2.444926	99
Es	0.415536	0.852802	0.239819	99
Es	-0.803701	-0.604559	0.499106	99
Es	0.334035	-0.888513	0.939836	99
Es	-1.634618	-0.265792	1.319570	99
Es	1.221410	2.918312	1.001661	99
Es	1.467983	2.028076	0.792241	99
Es	-1.093693	-1.678467	-1.916534	99
Es	1.143415	-1.388671	-0.936360	99
Es	0.043942	-1.221725	-1.548940	99
Es	-1.525816	-0.616869	0.669204	99
Es	-0.029674	-0.588580	0.370805	99
Es	0.078357	1.261286	-0.285666	99
Es	-0.019384	-1.807151	-1.244443	99
Es	0.182171	0.120674	0.289840	99
Es	1.333547	1.339257	1.014759	99
Es	0.729169	1.224014	0.868505	99
Es	1.112752	1.059008	0.471374	99
Es	0.169757	-0.937885	-0.274348	99
Es	1.516319	1.147438	1.269533	99
Es	-1.917030	-0.265714	0.134339	99
Es	2.107473	2.813899	1.093889	99
Es	1.577158	2.695294	0.517952	99
Es	0.411687	-1.294001	-0.889171	99
Es	-1.766250	-1.313710	0.720387	99
Es	1.605175	2.638922	0.758105	99
Es	-0.361542	-1.737381	-1.889838	99
44
Properties=species:S:1:pos:R:3:Z:I:1 energy=-304.0889470442223 field_type=dipole dipole="0.000000 0.000000 0.000000" charge=0
C	-1.525855	-0.616874	0.669223	6
C	-0.029655	-0.588624	0.370873	6
C	0.411645	-1.294064	-0.889277	6
C	-0.361475	-1.737344	-1.889767	6
C	0.415585	0.852846	0.239803	6
N	1.333885	1.338906	1.015223	7
N	1.605265	2.639106	0.757353	7
H	-1.734825	-0.112584	1.619813	1
H	-1.893705	-1.645684	0.748443	1
H	-2.108235	-0.099404	-0.101767	1
H	0.497705	-1.047264	1.216353	1
H	1.488605	-1.450624	-0.971477	1
H	-1.439835	-1.619884	-1.894537	1
H	0.083125	-2.233384	-2.748437	1
H	-0.076675	1.460956	-0.543917	1
H	2.457315	2.909016	1.256513	1
H	0.877135	3.244906	1.145583	1
Es	0.411687	-1.293999	-0.889171	99
Es	-1.631669	-0.265636	1.319024	99
Es	1.142787	-1.389162	-0.937371	99
Es	1.114214	1.058825	0.471302	99
Es	1.605191	2.638979	0.757881	99
Es	-0.807977	-0.605640	0.498446	99
Es	1.223348	2.916523	1.001801	99
Es	-1.525816	-0.616869	0.669205	99
Es	-0.019398	-1.807189	-1.244309	99
Es	1.333540	1.339266	1.014752	99
Es	-1.917569	-0.266224	0.133963	99
Es	0.727707	1.224285	0.868500	99
Es	-0.029675	-0.588580	0.370804	99
Es	2.107421	2.814022	1.093886	99
Es	1.468605	2.030913	0.788342	99
Es	1.515916	1.147598	1.269060	99
Es	-0.361536	-1.737383	-1.889844	99
Es	0.333691	-0.889128	0.939708	99
Es	-1.765712	-1.313209	0.720810	99
Es	0.078354	1.261273	-0.285657	99
Es	0.415538	0.852801	0.239818	99
Es	-0.070386	-2.063040	-2.444451	99
Es	0.043924	-1.221652	-1.549103	99
Es	0.182461	0.121196	0.290087	99
Es	0.171787	-0.936330	-0.272305	99
Es	-1.093520	-1.678797	-1.916935	99
Es	1.575095	2.693797	0.522458	99
44
Properties=species:S:1:pos:R:3:Z:I:1 energy=-304.0889470442223 field_type=dipole dipole="0.000000 0.000000 0.000000" charge=0
C	-1.525855	-0.616874	0.669223	6
C	-0.029655	-0.588624	0.370873	6
C	0.411645	-1.294064	-0.889277	6
C	-0.361475	-1.737344	-1.889767	6
C	0.415585	0.852846	0.239803	6
N	1.333885	1.338906	1.015223	7
N	1.605265	2.639106	0.757353	7
H	-1.734825	-0.112584	1.619813	1
H	-1.893705	-1.645684	0.748443	1
H	-2.108235	-0.099404	-0.101767	1
H	0.497705	-1.047264	1.216353	1
H	1.488605	-1.450624	-0.971477	1
H	-1.439835	-1.619884	-1.894537	1
H	0.083125	-2.233384	-2.748437	1
H	-0.076675	1.460956	-0.543917	1
H	2.457315	2.909016	1.256513	1
H	0.877135	3.244906	1.145583	1
Es	1.574185	2.692221	0.525460	99
Es	1.143144	-1.388844	-0.936867	99
Es	0.411687	-1.294002	-0.889170	99
Es	-0.070948	-2.062265	-2.443201	99
Es	1.333553	1.339259	1.014764	99
Es	0.043933	-1.221694	-1.548943	99
Es	0.181864	0.120524	0.289674	99
Es	-1.631103	-0.265609	1.318886	99
Es	1.469010	2.033028	0.785252	99
Es	-1.525817	-0.616869	0.669204	99
Es	-0.808036	-0.605305	0.498990	99
Es	-0.029675	-0.588580	0.370806	99
Es	1.605135	2.638964	0.758059	99
Es	1.224056	2.915864	1.001801	99
Es	-1.917458	-0.266086	0.134119	99
Es	0.334117	-0.888374	0.939840	99
Es	-1.765914	-1.313390	0.720737	99
Es	0.729072	1.224144	0.868574	99
Es	1.112744	1.059011	0.471301	99
Es	1.515843	1.147638	1.268924	99
Es	-0.361541	-1.737379	-1.889839	99
Es	-0.019347	-1.807105	-1.244519	99
Es	-1.092969	-1.679664	-1.918117	99
Es	0.078604	1.261219	-0.285476	99
Es	0.170923	-0.936961	-0.273245	99
Es	0.415535	0.852802	0.239818	99
Es	2.107411	2.814092	1.093867	99
44
Properties=species:S:1:pos:R:3:Z:I:1 energy=-304.0889470442223 field_type=dipole dipole="0.000000 0.000000 0.000000" charge=0
C	-1.525855	-0.616874	0.669223	6
C	-0.029655	-0.588624	0.370873	6
C	0.411645	-1.294064	-0.889277	6
C	-0.361475	-1.737344	-1.889767	6
C	0.415585	0.852846	0.239803	6
N	1.333885	1.338906	1.015223	7
N	1.605265	2.639106	0.757353	7
H	-1.734825	-0.112584	1.619813	1
H	-1.893705	-1.645684	0.748443	1
H	-2.108235	-0.099404	-0.101767	1
H	0.497705	-1.047264	1.216353	1
H	1.488605	-1.450624	-0.971477	1
H	-1.439835	-1.619884	-1.894537	1
H	0.083125	-2.233384	-2.748437	1
H	-0.076675	1.460956	-0.543917	1
H	2.457315	2.909016	1.256513	1
H	0.877135	3.244906	1.145583	1
Es	1.515498	1.147869	1.268293	99
Es	-0.361541	-1.737380	-1.889838	99
Es	1.333547	1.339234	1.014768	99
Es	0.415536	0.852802	0.239819	99
Es	1.605144	2.638825	0.758223	99
Es	0.181943	0.120319	0.289757	99
Es	1.226493	2.913740	1.001688	99
Es	-1.630702	-0.265555	1.318796	99
Es	-0.029675	-0.588580	0.370804	99
Es	0.411687	-1.294002	-0.889170	99
Es	1.113157	1.058972	0.471261	99
Es	2.107472	2.814274	1.093691	99
Es	-1.917533	-0.266212	0.134014	99
Es	1.469381	2.034985	0.782924	99
Es	-0.808107	-0.605058	0.499420	99
Es	-0.019445	-1.807079	-1.244472	99
Es	-0.071187	-2.061996	-2.442590	99
Es	0.728652	1.224162	0.868635	99
Es	0.170328	-0.937439	-0.273948	99
Es	0.334219	-0.888118	0.939859	99
Es	-1.525817	-0.616869	0.669205	99
Es	0.078398	1.261245	-0.285605	99
Es	0.043910	-1.221727	-1.548908	99
Es	-1.765720	-1.313310	0.720796	99
Es	1.571681	2.692169	0.528495	99
Es	1.143384	-1.388614	-0.936510	99
Es	-1.092695	-1.680021	-1.918706	99
