44
Properties=species:S:1:pos:R:3:Z:I:1 energy=-304.10243814307785 field_type=dipole dipole="0.000000 0.000000 0.000000" charge=0
C	-2.530384	-0.296187	-0.193582	6
C	-1.029584	-0.430887	-0.134692	6
C	-0.541214	-1.848247	-0.252812	6
C	-0.265374	0.666403	0.010828	6
C	1.213236	0.694243	0.073768	6
N	1.851516	1.811833	0.233108	7
N	3.195066	1.657343	0.272638	7
H	-2.859214	0.745403	-0.111522	1
H	-2.993994	-0.855877	0.625598	1
H	-2.909424	-0.689677	-1.142682	1
H	-0.989394	-2.465647	0.533228	1
H	0.541296	-1.951617	-0.162742	1
H	-0.831264	-2.264707	-1.223292	1
H	-0.718204	1.652093	0.089218	1
H	1.742756	-0.267157	-0.025322	1
H	3.637986	2.579123	0.237268	1
H	3.486186	1.263563	1.170988	1
Es	1.571544	0.038293	0.012949	99
Es	1.213180	0.694226	0.073793	99
Es	-2.832711	-0.680487	0.360262	99
Es	-0.613149	0.109040	0.269313	99
Es	-2.530348	-0.296201	-0.193582	99
Es	0.477496	0.669702	0.045008	99
Es	-2.775510	-0.568140	-0.834966	99
Es	1.574047	1.329968	-0.116361	99
Es	1.702005	2.156724	0.247681	99
Es	3.194822	1.657703	0.273139	99
Es	1.556304	1.285428	0.457433	99
Es	-0.850925	-2.253939	0.278446	99
Es	-0.265262	0.666449	0.010837	99
Es	-0.541229	-1.848203	-0.252808	99
Es	-0.575311	1.329251	0.063036	99
Es	-1.029670	-0.431012	-0.134709	99
Es	1.851788	1.811268	0.233079	99
Es	-0.743657	-2.117484	-0.906488	99
Es	-1.780533	-0.360630	-0.163906	99
Es	-0.583220	0.172415	-0.381849	99
Es	3.288114	1.449365	0.007579	99
Es	0.194908	-1.909664	-0.191303	99
Es	3.345678	1.424688	0.819248	99
Es	-2.747985	0.411483	-0.137512	99
Es	3.453864	2.218935	0.267055	99
Es	-0.770363	-1.135043	-0.191812	99
Es	2.528536	1.726338	0.274079	99
44
Properties=species:S:1:pos:R:3:Z:I:1 energy=-304.10243814307785 field_type=dipole dipole="0.000000 0.000000 0.000000" charge=0
C	-2.530384	-0.296187	-0.193582	6
C	-1.029584	-0.430887	-0.134692	6
C	-0.541214	-1.848247	-0.252812	6
C	-0.265374	0.666403	0.010828	6
C	1.213236	0.694243	0.073768	6
N	1.851516	1.811833	0.233108	7
N	3.195066	1.657343	0.272638	7
H	-2.859214	0.745403	-0.111522	1
H	-2.993994	-0.855877	0.625598	1
H	-2.909424	-0.689677	-1.142682	1
H	-0.989394	-2.465647	0.533228	1
H	0.541296	-1.951617	-0.162742	1
H	-0.831264	-2.264707	-1.223292	1
H	-0.718204	1.652093	0.089218	1
H	1.742756	-0.267157	-0.025322	1
H	3.637986	2.579123	0.237268	1
H	3.486186	1.263563	1.170988	1
Es	2.527583	1.726931	0.267280	99
Es	1.575342	1.327842	-0.117069	99
Es	1.571356	0.040741	0.013156	99
Es	1.213173	0.694216	0.073808	99
Es	-1.779591	-0.361511	-0.163879	99
Es	-2.832622	-0.679698	0.359242	99
Es	-0.574766	1.326469	0.062793	99
Es	-0.771579	-1.134333	-0.192227	99
Es	-0.265257	0.666454	0.010840	99
Es	1.700115	2.149562	0.246477	99
Es	-0.744088	-2.117128	-0.905567	99
Es	-0.583475	0.172799	-0.383432	99
Es	0.477855	0.669487	0.045368	99
Es	1.556804	1.284001	0.459446	99
Es	-1.029672	-0.431012	-0.134708	99
Es	-0.541230	-1.848205	-0.252808	99
Es	0.196293	-1.909418	-0.191242	99
Es	3.285744	1.454310	0.025550	99
Es	-0.613780	0.109672	0.270564	99
Es	-2.776338	-0.568446	-0.834742	99
Es	-2.748507	0.410549	-0.137264	99
Es	3.194807	1.657703	0.273113	99
Es	-0.851606	-2.253687	0.277919	99
Es	-2.530348	-0.296203	-0.193582	99
Es	3.341847	1.424368	0.810628	99
Es	3.462558	2.223746	0.264896	99
Es	1.851798	1.811262	0.233081	99
44
Properties=species:S:1:pos:R:3:Z:I:1 energy=-304.10243814307785 field_type=dipole dipole="0.000000 0.000000 0.000000" charge=0
C	-2.530384	-0.296187	-0.193582	6
C	-1.029584	-0.430887	-0.134692	6
C	-0.541214	-1.848247	-0.252812	6
C	-0.265374	0.666403	0.010828	6
C	1.213236	0.694243	0.073768	6
N	1.851516	1.811833	0.233108	7
N	3.195066	1.657343	0.272638	7
H	-2.859214	0.745403	-0.111522	1
H	-2.993994	-0.855877	0.625598	1
H	-2.909424	-0.689677	-1.142682	1
H	-0.989394	-2.465647	0.533228	1
H	0.541296	-1.951617	-0.162742	1
H	-0.831264	-2.264707	-1.223292	1
H	-0.718204	1.652093	0.089218	1
H	1.742756	-0.267157	-0.025322	1
H	3.637986	2.579123	0.237268	1
H	3.486186	1.263563	1.170988	1
Es	-0.772220	-1.133694	-0.192369	99
Es	3.194771	1.657730	0.273126	99
Es	-0.265255	0.666454	0.010841	99
Es	1.571464	0.043083	0.013467	99
Es	3.467856	2.224365	0.267595	99
Es	0.478172	0.669595	0.045559	99
Es	-2.530348	-0.296203	-0.193582	99
Es	-0.852349	-2.254628	0.277228	99
Es	-0.743575	-2.116147	-0.904557	99
Es	1.576523	1.326367	-0.116795	99
Es	-1.779267	-0.362255	-0.164008	99
Es	-0.583976	0.172697	-0.383938	99
Es	1.213172	0.694215	0.073808	99
Es	-0.574937	1.323788	0.062503	99
Es	-1.029670	-0.431011	-0.134711	99
Es	1.698057	2.141417	0.246223	99
Es	1.851809	1.811250	0.233081	99
Es	-2.777413	-0.570022	-0.834375	99
Es	0.196930	-1.909266	-0.191391	99
Es	2.527149	1.727215	0.257864	99
Es	-2.749040	0.410597	-0.137210	99
Es	3.285504	1.459510	0.042201	99
Es	-2.831275	-0.678411	0.358643	99
Es	-0.613783	0.110334	0.271075	99
Es	3.337050	1.429351	0.800917	99
Es	1.558296	1.282343	0.459254	99
Es	-0.541230	-1.848204	-0.252807	99
44
Properties=species:S:1:pos:R:3:Z:I:1 energy=-304.10243814307785 field_type=dipole dipole="0.000000 0.000000 0.000000" charge=0
C	-2.530384	-0.296187	-0.193582	6
C	-1.029584	-0.430887	-0.134692	6
C	-0.541214	-1.848247	-0.252812	6
C	-0.265374	0.666403	0.010828	6
C	1.213236	0.694243	0.073768	6
N	1.851516	1.811833	0.233108	7
N	3.195066	1.657343	0.272638	7
H	-2.859214	0.745403	-0.111522	1
H	-2.993994	-0.855877	0.625598	1
H	-2.909424	-0.689677	-1.142682	1
H	-0.989394	-2.465647	0.533228	1
H	0.541296	-1.951617	-0.162742	1
H	-0.831264	-2.264707	-1.223292	1
H	-0.718204	1.652093	0.089218	1
H	1.742756	-0.267157	-0.025322	1
H	3.637986	2.579123	0.237268	1
H	3.486186	1.263563	1.170988	1
Es	1.571482	0.045705	0.013818	99
Es	1.213172	0.694215	0.073806	99
Es	-0.772532	-1.132717	-0.192452	99
Es	-0.740178	-2.111972	-0.901967	99
Es	1.577603	1.325107	-0.116054	99
Es	-0.613506	0.110906	0.270733	99
Es	0.478476	0.669331	0.045653	99
Es	-0.541230	-1.848203	-0.252808	99
Es	1.559433	1.281362	0.458648	99
Es	1.851804	1.811241	0.233081	99
Es	-0.855487	-2.259067	0.274843	99
Es	-2.780166	-0.573712	-0.833226	99
Es	-0.584481	0.172437	-0.383754	99
Es	-2.530353	-0.296202	-0.193584	99
Es	3.470903	2.223515	0.271595	99
Es	-0.575278	1.321391	0.062251	99
Es	-0.265254	0.666456	0.010837	99
Es	-1.779075	-0.363324	-0.163990	99
Es	-1.029670	-0.431010	-0.134706	99
Es	3.194787	1.657727	0.273132	99
Es	1.698002	2.131745	0.245788	99
Es	-2.749386	0.411393	-0.137252	99
Es	3.332030	1.437854	0.790705	99
Es	-2.828176	-0.675000	0.357483	99
Es	0.196958	-1.909712	-0.191442	99
Es	2.528450	1.726225	0.248068	99
Es	3.284088	1.464781	0.058434	99
44
Properties=species:S:1:pos:R:3:Z:I:1 energy=-304.10243814307785 field_type=dipole dipole="0.000000 0.000000 0.000000" charge=0
C	-2.530384	-0.296187	-0.193582	6
C	-1.029584	-0.430887	-0.134692	6
C	-0.541214	-1.848247	-0.252812	6
C	-0.265374	0.666403	0.010828	6
C	1.213236	0.694243	0.073768	6
N	1.851516	1.811833	0.233108	7
N	3.195066	1.657343	0.272638	7
H	-2.859214	0.745403	-0.111522	1
H	-2.993994	-0.855877	0.625598	1
H	-2.909424	-0.689677	-1.142682	1
H	-0.989394	-2.465647	0.533228	1
H	0.541296	-1.951617	-0.162742	1
H	-0.831264	-2.264707	-1.223292	1
H	-0.718204	1.652093	0.089218	1
H	1.742756	-0.267157	-0.025322	1
H	3.637986	2.579123	0.237268	1
H	3.486186	1.263563	1.170988	1
Es	-0.864765	-2.272082	0.261679	99
Es	1.571129	0.048553	0.014266	99
Es	-2.789575	-0.584947	-0.827227	99
Es	1.851823	1.811204	0.233083	99
Es	-0.772109	-1.131593	-0.192259	99
Es	1.560104	1.280683	0.458513	99
Es	-0.612304	0.112422	0.270776	99
Es	-1.779561	-0.364437	-0.164212	99
Es	-2.530348	-0.296204	-0.193582	99
Es	2.530875	1.726528	0.238210	99
Es	-0.730655	-2.099188	-0.888740	99
Es	1.700918	2.120195	0.245611	99
Es	3.194753	1.657775	0.273200	99
Es	1.578216	1.324559	-0.115991	99
Es	-2.818570	-0.663938	0.351476	99
Es	-2.748803	0.412371	-0.137074	99
Es	-1.029669	-0.431011	-0.134708	99
Es	-0.541229	-1.848206	-0.252808	99
Es	3.283574	1.464894	0.074914	99
Es	3.472307	2.222791	0.273119	99
Es	-0.585881	0.171087	-0.383618	99
Es	0.196146	-1.910486	-0.191670	99
Es	-0.265254	0.666455	0.010834	99
Es	0.478777	0.669496	0.045595	99
Es	1.213172	0.694216	0.073805	99
Es	-0.575164	1.318356	0.061791	99
Es	3.324510	1.450977	0.782660	99
44
Properties=species:S:1:pos:R:3:Z:I:1 energy=-304.10243814307785 field_type=dipole dipole="0.000000 0.000000 0.000000" charge=0
C	-2.530384	-0.296187	-0.193582	6
C	-1.029584	-0.430887	-0.134692	6
C	-0.541214	-1.848247	-0.252812	6
C	-0.265374	0.666403	0.010828	6
C	1.213236	0.694243	0.073768	6
N	1.851516	1.811833	0.233108	7
N	3.195066	1.657343	0.272638	7
H	-2.859214	0.745403	-0.111522	1
H	-2.993994	-0.855877	0.625598	1
H	-2.909424	-0.689677	-1.142682	1
H	-0.989394	-2.465647	0.533228	1
H	0.541296	-1.951617	-0.162742	1
H	-0.831264	-2.264707	-1.223292	1
H	-0.718204	1.652093	0.089218	1
H	1.742756	-0.267157	-0.025322	1
H	3.637986	2.579123	0.237268	1
H	3.486186	1.263563	1.170988	1
Es	-0.870834	-2.280832	0.244748	99
Es	3.472603	2.222591	0.274126	99
Es	-2.796548	-0.593555	-0.818549	99
Es	3.320079	1.458347	0.777900	99
Es	-1.029669	-0.431009	-0.134706	99
Es	-2.530346	-0.296204	-0.193583	99
Es	-0.574696	1.315356	0.061507	99
Es	0.195039	-1.910923	-0.191794	99
Es	1.213171	0.694215	0.073815	99
Es	-0.724294	-2.090734	-0.871803	99
Es	2.531165	1.730635	0.230926	99
Es	-2.747918	0.413017	-0.137044	99
Es	3.194720	1.657808	0.273261	99
Es	1.578519	1.324269	-0.116772	99
Es	-1.780414	-0.365384	-0.164443	99
Es	1.560159	1.280583	0.459263	99
Es	-0.611641	0.113195	0.270964	99
Es	-0.771337	-1.130550	-0.192078	99
Es	3.281742	1.466076	0.085813	99
Es	-0.586665	0.170423	-0.383784	99
Es	0.478999	0.669855	0.045610	99
Es	1.851801	1.811228	0.233080	99
Es	-0.541232	-1.848203	-0.252808	99
Es	1.706344	2.108075	0.245612	99
Es	-0.265255	0.666456	0.010837	99
Es	1.570355	0.051256	0.014572	99
Es	-2.811433	-0.655524	0.342970	99
44
Properties=species:S:1:pos:R:3:Z:I:1 energy=-304.10243814307785 field_type=dipole dipole="0.000000 0.000000 0.000000" charge=0
C	-2.530384	-0.296187	-0.193582	6
C	-1.029584	-0.430887	-0.134692	6
C	-0.541214	-1.848247	-0.252812	6
C	-0.265374	0.666403	0.010828	6
C	1.213236	0.694243	0.073768	6
N	1.851516	1.811833	0.233108	7
N	3.195066	1.657343	0.272638	7
H	-2.859214	0.745403	-0.111522	1
H	-2.993994	-0.855877	0.625598	1
H	-2.909424	-0.689677	-1.142682	1
H	-0.989394	-2.465647	0.533228	1
H	0.541296	-1.951617	-0.162742	1
H	-0.831264	-2.264707	-1.223292	1
H	-0.718204	1.652093	0.089218	1
H	1.742756	-0.267157	-0.025322	1
H	3.637986	2.579123	0.237268	1
H	3.486186	1.263563	1.170988	1
Es	-2.807009	-0.650071	0.335697	99
Es	-1.781765	-0.367040	-0.164673	99
Es	-2.800940	-0.599068	-0.811131	99
Es	-0.541229	-1.848207	-0.252808	99
Es	-0.874444	-2.285777	0.230474	99
Es	-0.720722	-2.085718	-0.857984	99
Es	3.319101	1.460401	0.775736	99
Es	1.712654	2.096612	0.245463	99
Es	1.851831	1.811273	0.233085	99
Es	3.278616	1.469423	0.091269	99
Es	0.479182	0.670126	0.045559	99
Es	-0.265254	0.666455	0.010833	99
Es	0.193567	-1.912120	-0.191873	99
Es	3.472764	2.222518	0.274063	99
Es	1.560232	1.280402	0.459775	99
Es	-1.029667	-0.431008	-0.134707	99
Es	2.528449	1.737129	0.227798	99
Es	3.194789	1.657688	0.273117	99
Es	-0.587051	0.170248	-0.384026	99
Es	1.569688	0.053287	0.014619	99
Es	-0.769622	-1.128644	-0.191523	99
Es	-0.574108	1.312999	0.061407	99
Es	1.213172	0.694213	0.073813	99
Es	-2.746742	0.413892	-0.137030	99
Es	1.578650	1.324185	-0.116902	99
Es	-2.530348	-0.296203	-0.193582	99
Es	-0.611379	0.113477	0.271172	99
44
Properties=species:S:1:pos:R:3:Z:I:1 energy=-304.10243814307785 field_type=dipole dipole="0.000000 0.000000 0.000000" charge=0
C	-2.530384	-0.296187	-0.193582	6
C	-1.029584	-0.430887	-0.134692	6
C	-0.541214	-1.848247	-0.252812	6
C	-0.265374	0.666403	0.010828	6
C	1.213236	0.694243	0.073768	6
N	1.851516	1.811833	0.233108	7
N	3.195066	1.657343	0.272638	7
H	-2.859214	0.745403	-0.111522	1
H	-2.993994	-0.855877	0.625598	1
H	-2.909424	-0.689677	-1.142682	1
H	-0.989394	-2.465647	0.533228	1
H	0.541296	-1.951617	-0.162742	1
H	-0.831264	-2.264707	-1.223292	1
H	-0.718204	1.652093	0.089218	1
H	1.742756	-0.267157	-0.025322	1
H	3.637986	2.579123	0.237268	1
H	3.486186	1.263563	1.170988	1
Es	-1.029667	-0.431008	-0.134707	99
Es	0.479060	0.671221	0.045605	99
Es	3.194596	1.657880	0.273778	99
Es	-0.769420	-1.128412	-0.191591	99
Es	1.560190	1.280421	0.459964	99
Es	-2.746179	0.414350	-0.137116	99
Es	-0.611662	0.113327	0.271491	99
Es	-0.265256	0.666453	0.010849	99
Es	-2.803955	-0.646356	0.329912	99
Es	3.278849	1.467399	0.098027	99
Es	0.193212	-1.912154	-0.191983	99
Es	1.213171	0.694215	0.073808	99
Es	-2.530348	-0.296204	-0.193582	99
Es	1.718012	2.088281	0.245406	99
Es	-0.573355	1.310291	0.061107	99
Es	1.569075	0.054895	0.014827	99
Es	3.472972	2.222424	0.273718	99
Es	-0.876219	-2.288391	0.221706	99
Es	-2.803862	-0.602922	-0.805135	99
Es	2.526179	1.742002	0.224111	99
Es	-0.718834	-2.083266	-0.848898	99
Es	-0.586854	0.170467	-0.384316	99
Es	3.315670	1.465873	0.772391	99
Es	-1.782326	-0.367494	-0.164849	99
Es	-0.541231	-1.848205	-0.252808	99
Es	1.578771	1.324078	-0.117161	99
Es	1.851827	1.811306	0.233089	99
44
Properties=species:S:1:pos:R:3:Z:I:1 energy=-304.10243814307785 field_type=dipole dipole="0.000000 0.000000 0.000000" charge=0
C	-2.530384	-0.296187	-0.193582	6
C	-1.029584	-0.430887	-0.134692	6
C	-0.541214	-1.848247	-0.252812	6
C	-0.265374	0.666403	0.010828	6
C	1.213236	0.694243	0.073768	6
N	1.851516	1.811833	0.233108	7
N	3.195066	1.657343	0.272638	7
H	-2.859214	0.745403	-0.111522	1
H	-2.993994	-0.855877	0.625598	1
H	-2.909424	-0.689677	-1.142682	1
H	-0.989394	-2.465647	0.533228	1
H	0.541296	-1.951617	-0.162742	1
H	-0.831264	-2.264707	-1.223292	1
H	-0.718204	1.652093	0.089218	1
H	1.742756	-0.267157	-0.025322	1
H	3.637986	2.579123	0.237268	1
H	3.486186	1.263563	1.170988	1
Es	0.192298	-1.912801	-0.192094	99
Es	-2.805605	-0.604798	-0.801785	99
Es	-0.572910	1.309042	0.060959	99
Es	3.194889	1.657611	0.273176	99
Es	-0.587183	0.170119	-0.384204	99
Es	0.479651	0.670156	0.045536	99
Es	-2.802345	-0.644381	0.326557	99
Es	3.313342	1.469570	0.770903	99
Es	-0.541232	-1.848203	-0.252808	99
Es	-0.265253	0.666455	0.010842	99
Es	1.560184	1.280325	0.460276	99
Es	1.568030	0.057214	0.015040	99
Es	-2.530347	-0.296204	-0.193582	99
Es	-0.717187	-2.080984	-0.839775	99
Es	1.851829	1.811230	0.233083	99
Es	3.473033	2.222402	0.273590	99
Es	-0.611353	0.113683	0.271434	99
Es	-1.783092	-0.368385	-0.165046	99
Es	1.578785	1.324137	-0.117363	99
Es	-2.745377	0.414763	-0.136955	99
Es	1.721359	2.083606	0.245333	99
Es	-1.029669	-0.431006	-0.134707	99
Es	1.213171	0.694216	0.073810	99
Es	3.277558	1.467842	0.102938	99
Es	2.526152	1.742897	0.221390	99
Es	-0.768459	-1.127352	-0.191419	99
Es	-0.877854	-2.290681	0.212515	99
44
Properties=species:S:1:pos:R:3:Z:I:1 energy=-304.10243814307785 field_type=dipole dipole="0.000000 0.000000 0.000000" charge=0
C	-2.530384	-0.296187	-0.193582	6
C	-1.029584	-0.430887	-0.134692	6
C	-0.541214	-1.848247	-0.252812	6
C	-0.265374	0.666403	0.010828	6
C	1.213236	0.694243	0.073768	6
N	1.851516	1.811833	0.233108	7
N	3.195066	1.657343	0.272638	7
H	-2.859214	0.745403	-0.111522	1
H	-2.993994	-0.855877	0.625598	1
H	-2.909424	-0.689677	-1.142682	1
H	-0.989394	-2.465647	0.533228	1
H	0.541296	-1.951617	-0.162742	1
H	-0.831264	-2.264707	-1.223292	1
H	-0.718204	1.652093	0.089218	1
H	1.742756	-0.267157	-0.025322	1
H	3.637986	2.579123	0.237268	1
H	3.486186	1.263563	1.170988	1
Es	-0.541231	-1.848207	-0.252810	99
Es	-2.800843	-0.642416	0.323034	99
Es	1.560088	1.280416	0.460448	99
Es	3.312306	1.471283	0.769394	99
Es	2.525905	1.743890	0.219422	99
Es	-1.784061	-0.369923	-0.165067	99
Es	1.851824	1.811223	0.233082	99
Es	-0.612417	0.112509	0.272103	99
Es	-0.878956	-2.292272	0.205481	99
Es	3.472980	2.222417	0.273942	99
Es	-2.530348	-0.296204	-0.193582	99
Es	0.191200	-1.913476	-0.192197	99
Es	-1.029671	-0.431008	-0.134709	99
Es	-0.265255	0.666454	0.010841	99
Es	-0.767025	-1.125527	-0.191092	99
Es	-2.744805	0.415173	-0.136940	99
Es	3.194790	1.657735	0.273155	99
Es	1.578747	1.324147	-0.117618	99
Es	0.479414	0.671131	0.045620	99
Es	1.213171	0.694215	0.073810	99
Es	1.567574	0.058155	0.015098	99
Es	-2.807051	-0.606787	-0.798350	99
Es	-0.716032	-2.079433	-0.832826	99
Es	3.276363	1.468632	0.106112	99
Es	1.724117	2.079880	0.245441	99
Es	-0.572235	1.307128	0.060915	99
Es	-0.586134	0.171335	-0.385065	99
44
Properties=species:S:1:pos:R:3:Z:I:1 energy=-304.10243814307785 field_type=dipole dipole="0.000000 0.000000 0.000000" charge=0
C	-2.530384	-0.296187	-0.193582	6
C	-1.029584	-0.430887	-0.134692	6
C	-0.541214	-1.848247	-0.252812	6
C	-0.265374	0.666403	0.010828	6
C	1.213236	0.694243	0.073768	6
N	1.851516	1.811833	0.233108	7
N	3.195066	1.657343	0.272638	7
H	-2.859214	0.745403	-0.111522	1
H	-2.993994	-0.855877	0.625598	1
H	-2.909424	-0.689677	-1.142682	1
H	-0.989394	-2.465647	0.533228	1
H	0.541296	-1.951617	-0.162742	1
H	-0.831264	-2.264707	-1.223292	1
H	-0.718204	1.652093	0.089218	1
H	1.742756	-0.267157	-0.025322	1
H	3.637986	2.579123	0.237268	1
H	3.486186	1.263563	1.170988	1
Es	1.734640	2.066553	0.246032	99
Es	0.478780	0.673499	0.045924	99
Es	-1.029668	-0.431006	-0.134709	99
Es	-0.569143	1.300417	0.060803	99
Es	-0.265254	0.666454	0.010841	99
Es	1.578356	1.324678	-0.118643	99
Es	-1.783684	-0.371110	-0.165282	99
Es	-0.768200	-1.125150	-0.191249	99
Es	3.373425	1.340973	0.455995	99
Es	-0.734470	-2.104450	-0.897411	99
Es	-2.745612	0.413830	-0.136702	99
Es	-2.530346	-0.296204	-0.193582	99
Es	-2.795716	-0.592472	-0.820823	99
Es	2.522712	1.751523	0.208962	99
Es	-0.860888	-2.266876	0.269792	99
Es	1.560226	1.280099	0.461244	99
Es	-0.541232	-1.848204	-0.252808	99
Es	3.205661	1.622248	0.369258	99
Es	1.851742	1.811272	0.233084	99
Es	-2.812349	-0.656571	0.344858	99
Es	1.565205	0.062403	0.015083	99
Es	0.193147	-1.911613	-0.191825	99
Es	-0.610627	0.114416	0.271337	99
Es	3.474001	2.221247	0.278035	99
Es	-0.588080	0.169577	-0.384520	99
Es	3.196618	1.640721	0.330137	99
Es	1.213170	0.694216	0.073810	99
44
Properties=species:S:1:pos:R:3:Z:I:1 energy=-304.10243814307785 field_type=dipole dipole="0.000000 0.000000 0.000000" charge=0
C	-2.530384	-0.296187	-0.193582	6
C	-1.029584	-0.430887	-0.134692	6
C	-0.541214	-1.848247	-0.252812	6
C	-0.265374	0.666403	0.010828	6
C	1.213236	0.694243	0.073768	6
N	1.851516	1.811833	0.233108	7
N	3.195066	1.657343	0.272638	7
H	-2.859214	0.745403	-0.111522	1
H	-2.993994	-0.855877	0.625598	1
H	-2.909424	-0.689677	-1.142682	1
H	-0.989394	-2.465647	0.533228	1
H	0.541296	-1.951617	-0.162742	1
H	-0.831264	-2.264707	-1.223292	1
H	-0.718204	1.652093	0.089218	1
H	1.742756	-0.267157	-0.025322	1
H	3.637986	2.579123	0.237268	1
H	3.486186	1.263563	1.170988	1
Es	1.730856	2.071005	0.245284	99
Es	-0.880241	-2.294140	0.196380	99
Es	-0.714754	-2.077588	-0.823592	99
Es	-0.541231	-1.848205	-0.252808	99
Es	3.313040	1.470339	0.768908	99
Es	0.479811	0.670822	0.045445	99
Es	1.213170	0.694216	0.073811	99
Es	-0.765811	-1.124296	-0.190939	99
Es	3.473287	2.222207	0.274049	99
Es	3.274236	1.471292	0.106267	99
Es	1.851805	1.811215	0.233081	99
Es	1.578810	1.324135	-0.117618	99
Es	-0.571428	1.305180	0.060805	99
Es	3.194907	1.657587	0.273158	99
Es	-1.785083	-0.370945	-0.165372	99
Es	1.566423	0.060389	0.015240	99
Es	-0.587355	0.170241	-0.384469	99
Es	0.190091	-1.914084	-0.192459	99
Es	-0.611260	0.113621	0.271719	99
Es	-2.797965	-0.638973	0.316435	99
Es	-2.530350	-0.296203	-0.193582	99
Es	-1.029667	-0.431007	-0.134706	99
Es	2.520013	1.751587	0.219460	99
Es	-2.809891	-0.610304	-0.791525	99
Es	1.560202	1.280247	0.460698	99
Es	-2.743936	0.415669	-0.136872	99
Es	-0.265262	0.666464	0.010840	99
44
Properties=species:S:1:pos:R:3:Z:I:1 energy=-304.10243814307785 field_type=dipole dipole="0.000000 0.000000 0.000000" charge=0
C	-2.530384	-0.296187	-0.193582	6
C	-1.029584	-0.430887	-0.134692	6
C	-0.541214	-1.848247	-0.252812	6
C	-0.265374	0.666403	0.010828	6
C	1.213236	0.694243	0.073768	6
N	1.851516	1.811833	0.233108	7
N	3.195066	1.657343	0.272638	7
H	-2.859214	0.745403	-0.111522	1
H	-2.993994	-0.855877	0.625598	1
H	-2.909424	-0.689677	-1.142682	1
H	-0.989394	-2.465647	0.533228	1
H	0.541296	-1.951617	-0.162742	1
H	-0.831264	-2.264707	-1.223292	1
H	-0.718204	1.652093	0.089218	1
H	1.742756	-0.267157	-0.025322	1
H	3.637986	2.579123	0.237268	1
H	3.486186	1.263563	1.170988	1
Es	1.578741	1.324212	-0.117578	99
Es	-0.822344	-2.214703	0.248230	99
Es	1.730336	2.071420	0.246000	99
Es	-0.592360	0.164560	-0.377686	99
Es	-0.541231	-1.848206	-0.252807	99
Es	-0.773101	-2.156721	-0.874712	99
Es	3.265441	1.480412	0.113959	99
Es	0.479427	0.671896	0.045813	99
Es	-2.871992	-0.722992	0.258760	99
Es	1.213171	0.694216	0.073809	99
Es	2.528840	1.742936	0.210949	99
Es	1.851787	1.811229	0.233081	99
Es	-1.785144	-0.371265	-0.164568	99
Es	-2.735396	-0.526334	-0.736187	99
Es	1.566109	0.061015	0.015154	99
Es	-0.606284	0.119382	0.264546	99
Es	-0.570774	1.303469	0.060820	99
Es	-1.029667	-0.431008	-0.134706	99
Es	3.194637	1.657851	0.273356	99
Es	3.313580	1.469328	0.768455	99
Es	-0.766086	-1.124405	-0.191597	99
Es	-0.265253	0.666454	0.010842	99
Es	-2.530348	-0.296204	-0.193582	99
Es	1.560560	1.280040	0.460034	99
Es	3.473211	2.222078	0.275800	99
Es	-2.744542	0.415730	-0.135863	99
Es	0.191097	-1.913919	-0.192679	99
44
Properties=species:S:1:pos:R:3:Z:I:1 energy=-304.10243814307785 field_type=dipole dipole="0.000000 0.000000 0.000000" charge=0
C	-2.530384	-0.296187	-0.193582	6
C	-1.029584	-0.430887	-0.134692	6
C	-0.541214	-1.848247	-0.252812	6
C	-0.265374	0.666403	0.010828	6
C	1.213236	0.694243	0.073768	6
N	1.851516	1.811833	0.233108	7
N	3.195066	1.657343	0.272638	7
H	-2.859214	0.745403	-0.111522	1
H	-2.993994	-0.855877	0.625598	1
H	-2.909424	-0.689677	-1.142682	1
H	-0.989394	-2.465647	0.533228	1
H	0.541296	-1.951617	-0.162742	1
H	-0.831264	-2.264707	-1.223292	1
H	-0.718204	1.652093	0.089218	1
H	1.742756	-0.267157	-0.025322	1
H	3.637986	2.579123	0.237268	1
H	3.486186	1.263563	1.170988	1
Es	-0.541230	-1.848206	-0.252807	99
Es	1.213171	0.694216	0.073810	99
Es	0.479432	0.672113	0.045709	99
Es	1.732614	2.068837	0.245432	99
Es	-0.570238	1.302422	0.060657	99
Es	1.851812	1.811211	0.233082	99
Es	-2.742388	0.416506	-0.136764	99
Es	0.188663	-1.914973	-0.192556	99
Es	-0.881515	-2.295696	0.187089	99
Es	-0.713589	-2.075911	-0.814552	99
Es	-1.787050	-0.373729	-0.165692	99
Es	-0.763811	-1.121622	-0.190401	99
Es	-0.611967	0.112939	0.272022	99
Es	1.560291	1.280027	0.460698	99
Es	2.520421	1.751427	0.217934	99
Es	-2.810693	-0.611304	-0.789500	99
Es	-2.530349	-0.296204	-0.193581	99
Es	3.194693	1.657816	0.273262	99
Es	-1.029666	-0.431007	-0.134708	99
Es	3.273815	1.470969	0.109447	99
Es	-0.265255	0.666455	0.010841	99
Es	3.311687	1.472613	0.767080	99
Es	1.578610	1.324459	-0.117790	99
Es	3.473214	2.222248	0.274199	99
Es	-2.797220	-0.637921	0.314388	99
Es	-0.586676	0.170978	-0.384986	99
Es	1.565639	0.061808	0.015329	99
44
Properties=species:S:1:pos:R:3:Z:I:1 energy=-304.10243814307785 field_type=dipole dipole="0.000000 0.000000 0.000000" charge=0
C	-2.530384	-0.296187	-0.193582	6
C	-1.029584	-0.430887	-0.134692	6
C	-0.541214	-1.848247	-0.252812	6
C	-0.265374	0.666403	0.010828	6
C	1.213236	0.694243	0.073768	6
N	1.851516	1.811833	0.233108	7
N	3.195066	1.657343	0.272638	7
H	-2.859214	0.745403	-0.111522	1
H	-2.993994	-0.855877	0.625598	1
H	-2.909424	-0.689677	-1.142682	1
H	-0.989394	-2.465647	0.533228	1
H	0.541296	-1.951617	-0.162742	1
H	-0.831264	-2.264707	-1.223292	1
H	-0.718204	1.652093	0.089218	1
H	1.742756	-0.267157	-0.025322	1
H	3.637986	2.579123	0.237268	1
H	3.486186	1.263563	1.170988	1
Es	-2.873748	-0.724511	0.248066	99
Es	3.263663	1.481410	0.117276	99
Es	-0.606668	0.118889	0.265355	99
Es	-2.733663	-0.524757	-0.725748	99
Es	3.194766	1.657756	0.273178	99
Es	-0.265254	0.666454	0.010843	99
Es	-2.743660	0.416189	-0.135684	99
Es	3.312367	1.471001	0.767744	99
Es	1.851789	1.811226	0.233081	99
Es	-1.786168	-0.372733	-0.164577	99
Es	1.560410	1.280428	0.460016	99
Es	1.565640	0.061869	0.015123	99
Es	3.473323	2.221963	0.276177	99
Es	1.732721	2.068419	0.246175	99
Es	1.213171	0.694216	0.073808	99
Es	-0.821999	-2.214267	0.247542	99
Es	1.578885	1.323824	-0.117569	99
Es	-0.569939	1.301642	0.060766	99
Es	-0.541227	-1.848206	-0.252808	99
Es	-0.765463	-1.123244	-0.191449	99
Es	0.190649	-1.914141	-0.192765	99
Es	-1.029666	-0.431007	-0.134708	99
Es	2.529200	1.743454	0.208182	99
Es	0.479068	0.672858	0.045928	99
Es	-0.773476	-2.157127	-0.874080	99
Es	-2.530349	-0.296205	-0.193585	99
Es	-0.591959	0.165070	-0.378645	99
44
Properties=species:S:1:pos:R:3:Z:I:1 energy=-304.10243814307785 field_type=dipole dipole="0.000000 0.000000 0.000000" charge=0
C	-2.530384	-0.296187	-0.193582	6
C	-1.029584	-0.430887	-0.134692	6
C	-0.541214	-1.848247	-0.252812	6
C	-0.265374	0.666403	0.010828	6
C	1.213236	0.694243	0.073768	6
N	1.851516	1.811833	0.233108	7
N	3.195066	1.657343	0.272638	7
H	-2.859214	0.745403	-0.111522	1
H	-2.993994	-0.855877	0.625598	1
H	-2.909424	-0.689677	-1.142682	1
H	-0.989394	-2.465647	0.533228	1
H	0.541296	-1.951617	-0.162742	1
H	-0.831264	-2.264707	-1.223292	1
H	-0.718204	1.652093	0.089218	1
H	1.742756	-0.267157	-0.025322	1
H	3.637986	2.579123	0.237268	1
H	3.486186	1.263563	1.170988	1
Es	-0.265255	0.666453	0.010847	99
Es	-2.796539	-0.637097	0.312642	99
Es	0.479044	0.672941	0.045654	99
Es	-2.742275	0.416510	-0.136698	99
Es	-0.712834	-2.074849	-0.808079	99
Es	0.188572	-1.914914	-0.192545	99
Es	-1.787162	-0.374205	-0.165717	99
Es	-0.882220	-2.296818	0.180575	99
Es	3.473205	2.222249	0.274259	99
Es	-0.541232	-1.848204	-0.252808	99
Es	1.736608	2.063878	0.245450	99
Es	-2.811357	-0.612108	-0.787847	99
Es	-0.587077	0.170513	-0.384789	99
Es	-2.530349	-0.296203	-0.193582	99
Es	-0.569758	1.301454	0.060449	99
Es	-0.763772	-1.121184	-0.190310	99
Es	3.272776	1.471769	0.111343	99
Es	-1.029671	-0.431004	-0.134707	99
Es	3.194733	1.657769	0.273271	99
Es	1.578749	1.324234	-0.117811	99
Es	1.213170	0.694216	0.073810	99
Es	3.311060	1.473737	0.765939	99
Es	2.517923	1.754622	0.217088	99
Es	1.560332	1.280102	0.460784	99
Es	1.851806	1.811213	0.233082	99
Es	1.565500	0.062028	0.015309	99
Es	-0.611562	0.113371	0.272033	99
