42
Properties=species:S:1:pos:R:3:Z:I:1 energy=-286.88369180740904 field_type=dipole dipole="0.000000 0.000000 0.000000" charge=0
C	-3.369610	-0.676500	-0.341437	6
C	-1.925610	-0.676500	-0.341437	6
C	-0.735450	-0.676500	-0.341437	6
C	0.708550	-0.676500	-0.341437	6
N	1.226610	0.696780	-0.385397	7
C	1.536891	1.255550	0.928013	6
C	2.631500	0.798390	-0.002557	6
H	-3.763580	0.344390	-0.329537	1
H	-3.763660	-1.197180	0.536723	1
H	-3.763690	-1.176600	-1.231467	1
H	1.070460	-1.205450	-1.231437	1
H	1.078960	-1.244400	0.522533	1
H	1.320080	0.666290	1.810093	1
H	1.369210	2.320260	1.033692	1
H	3.205570	1.555900	-0.522627	1
H	3.173770	-0.107930	0.237723	1
Es	0.940963	-1.032478	-0.940342	99
Es	1.883162	0.659218	-0.333770	99
Es	-1.330968	-0.503224	-0.656639	99
Es	2.994034	0.175103	0.158579	99
Es	1.387089	0.847452	1.523211	99
Es	1.536916	1.255436	0.927780	99
Es	-2.626792	-0.677043	-0.341411	99
Es	-1.925886	-0.676506	-0.341435	99
Es	0.953322	-1.054976	0.254008	99
Es	1.226897	0.696423	-0.384892	99
Es	-0.037930	-0.673442	-0.336939	99
Es	2.239522	1.088149	0.611917	99
Es	-3.369496	-0.676500	-0.341437	99
Es	1.012216	0.088130	-0.332130	99
Es	3.024478	1.308344	-0.357464	99
Es	-3.618000	-1.011940	-0.937748	99
Es	2.631254	0.798390	-0.002549	99
Es	-3.616802	0.006840	-0.333185	99
Es	-0.735184	-0.676504	-0.341435	99
Es	0.708480	-0.676373	-0.341431	99
Es	-1.328454	-0.493416	-0.026900	99
Es	-3.618171	-1.025848	0.247611	99
Es	1.105661	0.911177	-0.637356	99
Es	-1.316142	-1.043025	-0.333803	99
Es	1.421772	1.977462	1.003571	99
Es	1.218439	0.935868	0.226908	99
42
Properties=species:S:1:pos:R:3:Z:I:1 energy=-286.88369180740904 field_type=dipole dipole="0.000000 0.000000 0.000000" charge=0
C	-3.369610	-0.676500	-0.341437	6
C	-1.925610	-0.676500	-0.341437	6
C	-0.735450	-0.676500	-0.341437	6
C	0.708550	-0.676500	-0.341437	6
N	1.226610	0.696780	-0.385397	7
C	1.536891	1.255550	0.928013	6
C	2.631500	0.798390	-0.002557	6
H	-3.763580	0.344390	-0.329537	1
H	-3.763660	-1.197180	0.536723	1
H	-3.763690	-1.176600	-1.231467	1
H	1.070460	-1.205450	-1.231437	1
H	1.078960	-1.244400	0.522533	1
H	1.320080	0.666290	1.810093	1
H	1.369210	2.320260	1.033692	1
H	3.205570	1.555900	-0.522627	1
H	3.173770	-0.107930	0.237723	1
Es	-1.925903	-0.676505	-0.341436	99
Es	2.248760	1.087423	0.611462	99
Es	0.943510	-1.032121	-0.938696	99
Es	-3.618057	0.002863	-0.332513	99
Es	2.631254	0.798387	-0.002556	99
Es	2.994228	0.175503	0.159156	99
Es	1.889425	0.661131	-0.336047	99
Es	-3.620776	-1.010852	-0.936084	99
Es	1.210377	0.936044	0.224415	99
Es	1.106234	0.906887	-0.628118	99
Es	1.419729	1.973797	1.003716	99
Es	-0.735170	-0.676509	-0.341435	99
Es	1.536913	1.255440	0.927791	99
Es	-1.316198	-1.031433	-0.315906	99
Es	3.024677	1.308307	-0.356683	99
Es	-0.040190	-0.675003	-0.336725	99
Es	-1.332061	-0.531899	-0.663951	99
Es	-3.369503	-0.676501	-0.341435	99
Es	1.384928	0.850207	1.520116	99
Es	-1.327426	-0.475349	-0.037134	99
Es	1.226901	0.696435	-0.384900	99
Es	0.708482	-0.676370	-0.341434	99
Es	1.008783	0.089350	-0.333993	99
Es	-3.619407	-1.023439	0.244833	99
Es	0.954150	-1.052704	0.250898	99
Es	-2.623282	-0.676375	-0.340621	99
42
Properties=species:S:1:pos:R:3:Z:I:1 energy=-286.88369180740904 field_type=dipole dipole="0.000000 0.000000 0.000000" charge=0
C	-3.369610	-0.676500	-0.341437	6
C	-1.925610	-0.676500	-0.341437	6
C	-0.735450	-0.676500	-0.341437	6
C	0.708550	-0.676500	-0.341437	6
N	1.226610	0.696780	-0.385397	7
C	1.536891	1.255550	0.928013	6
C	2.631500	0.798390	-0.002557	6
H	-3.763580	0.344390	-0.329537	1
H	-3.763660	-1.197180	0.536723	1
H	-3.763690	-1.176600	-1.231467	1
H	1.070460	-1.205450	-1.231437	1
H	1.078960	-1.244400	0.522533	1
H	1.320080	0.666290	1.810093	1
H	1.369210	2.320260	1.033692	1
H	3.205570	1.555900	-0.522627	1
H	3.173770	-0.107930	0.237723	1
Es	2.254225	1.086989	0.611638	99
Es	0.708480	-0.676372	-0.341433	99
Es	-0.735169	-0.676513	-0.341440	99
Es	-1.315829	-1.027094	-0.356508	99
Es	1.891007	0.661886	-0.335883	99
Es	-0.041334	-0.675742	-0.336530	99
Es	1.108661	0.904680	-0.622299	99
Es	-1.925908	-0.676507	-0.341436	99
Es	0.954022	-1.050995	0.249096	99
Es	-3.369502	-0.676501	-0.341435	99
Es	1.536916	1.255436	0.927776	99
Es	-3.618110	0.000297	-0.332046	99
Es	1.205541	0.936071	0.223021	99
Es	2.994307	0.175726	0.159477	99
Es	-1.329098	-0.506261	-0.016901	99
Es	-2.621658	-0.675899	-0.340228	99
Es	1.226917	0.696410	-0.384866	99
Es	1.005761	0.090181	-0.336443	99
Es	0.945216	-1.032112	-0.937696	99
Es	-3.619783	-1.021659	0.243119	99
Es	1.384084	0.852271	1.517580	99
Es	2.631261	0.798387	-0.002552	99
Es	-1.330785	-0.504945	-0.643377	99
Es	-3.622586	-1.010216	-0.935187	99
Es	3.024774	1.308288	-0.356365	99
Es	1.418967	1.970909	1.003638	99
42
Properties=species:S:1:pos:R:3:Z:I:1 energy=-286.88369180740904 field_type=dipole dipole="0.000000 0.000000 0.000000" charge=0
C	-3.369610	-0.676500	-0.341437	6
C	-1.925610	-0.676500	-0.341437	6
C	-0.735450	-0.676500	-0.341437	6
C	0.708550	-0.676500	-0.341437	6
N	1.226610	0.696780	-0.385397	7
C	1.536891	1.255550	0.928013	6
C	2.631500	0.798390	-0.002557	6
H	-3.763580	0.344390	-0.329537	1
H	-3.763660	-1.197180	0.536723	1
H	-3.763690	-1.176600	-1.231467	1
H	1.070460	-1.205450	-1.231437	1
H	1.078960	-1.244400	0.522533	1
H	1.320080	0.666290	1.810093	1
H	1.369210	2.320260	1.033692	1
H	3.205570	1.555900	-0.522627	1
H	3.173770	-0.107930	0.237723	1
Es	-0.042077	-0.676437	-0.336464	99
Es	-3.369502	-0.676501	-0.341436	99
Es	1.536912	1.255436	0.927780	99
Es	3.024857	1.308283	-0.356196	99
Es	1.002267	0.090447	-0.338998	99
Es	2.994391	0.175720	0.159905	99
Es	2.257968	1.086615	0.611137	99
Es	1.383910	0.853591	1.515449	99
Es	0.946760	-1.032078	-0.937139	99
Es	-3.619556	-1.020632	0.241465	99
Es	-3.623469	-1.009898	-0.933866	99
Es	0.953612	-1.049570	0.247502	99
Es	-1.327525	-0.474184	-0.035245	99
Es	1.418606	1.968746	1.003739	99
Es	0.708480	-0.676370	-0.341433	99
Es	1.201894	0.936596	0.221633	99
Es	-1.925912	-0.676492	-0.341424	99
Es	1.226890	0.696445	-0.384914	99
Es	-2.620694	-0.675888	-0.339857	99
Es	-1.332637	-0.550439	-0.669251	99
Es	-0.735165	-0.676505	-0.341437	99
Es	-1.315564	-1.013307	-0.312267	99
Es	1.112107	0.902448	-0.616849	99
Es	1.891275	0.663077	-0.334838	99
Es	-3.618701	-0.000774	-0.331716	99
Es	2.631254	0.798386	-0.002562	99
42
Properties=species:S:1:pos:R:3:Z:I:1 energy=-286.88369180740904 field_type=dipole dipole="0.000000 0.000000 0.000000" charge=0
C	-3.369610	-0.676500	-0.341437	6
C	-1.925610	-0.676500	-0.341437	6
C	-0.735450	-0.676500	-0.341437	6
C	0.708550	-0.676500	-0.341437	6
N	1.226610	0.696780	-0.385397	7
C	1.536891	1.255550	0.928013	6
C	2.631500	0.798390	-0.002557	6
H	-3.763580	0.344390	-0.329537	1
H	-3.763660	-1.197180	0.536723	1
H	-3.763690	-1.176600	-1.231467	1
H	1.070460	-1.205450	-1.231437	1
H	1.078960	-1.244400	0.522533	1
H	1.320080	0.666290	1.810093	1
H	1.369210	2.320260	1.033692	1
H	3.205570	1.555900	-0.522627	1
H	3.173770	-0.107930	0.237723	1
Es	1.890853	0.664053	-0.332813	99
Es	2.260954	1.085969	0.610442	99
Es	-0.735163	-0.676516	-0.341459	99
Es	1.226916	0.696424	-0.384869	99
Es	-2.620103	-0.675852	-0.339608	99
Es	3.024720	1.308500	-0.355962	99
Es	-3.619668	-1.020171	0.240495	99
Es	1.536922	1.255435	0.927779	99
Es	-0.042552	-0.677042	-0.336563	99
Es	2.994723	0.175531	0.160257	99
Es	-1.925912	-0.676501	-0.341432	99
Es	2.631264	0.798389	-0.002551	99
Es	0.953051	-1.048174	0.246502	99
Es	1.199095	0.936979	0.220250	99
Es	-3.618870	-0.001627	-0.331509	99
Es	-1.326941	-0.462193	-0.043113	99
Es	-1.333293	-0.575477	-0.680076	99
Es	0.708481	-0.676371	-0.341435	99
Es	-1.315500	-1.000037	-0.293817	99
Es	-3.623927	-1.009188	-0.932867	99
Es	0.948134	-1.032340	-0.936421	99
Es	1.418408	1.967002	1.003622	99
Es	0.999053	0.091134	-0.341772	99
Es	-3.369501	-0.676500	-0.341434	99
Es	1.115418	0.900504	-0.612545	99
Es	1.383815	0.854785	1.513619	99
42
Properties=species:S:1:pos:R:3:Z:I:1 energy=-286.88369180740904 field_type=dipole dipole="0.000000 0.000000 0.000000" charge=0
C	-3.369610	-0.676500	-0.341437	6
C	-1.925610	-0.676500	-0.341437	6
C	-0.735450	-0.676500	-0.341437	6
C	0.708550	-0.676500	-0.341437	6
N	1.226610	0.696780	-0.385397	7
C	1.536891	1.255550	0.928013	6
C	2.631500	0.798390	-0.002557	6
H	-3.763580	0.344390	-0.329537	1
H	-3.763660	-1.197180	0.536723	1
H	-3.763690	-1.176600	-1.231467	1
H	1.070460	-1.205450	-1.231437	1
H	1.078960	-1.244400	0.522533	1
H	1.320080	0.666290	1.810093	1
H	1.369210	2.320260	1.033692	1
H	3.205570	1.555900	-0.522627	1
H	3.173770	-0.107930	0.237723	1
Es	1.419150	1.964152	1.002742	99
Es	0.954162	-1.048013	0.246845	99
Es	1.198724	0.935133	0.219828	99
Es	-0.735160	-0.676514	-0.341437	99
Es	-1.925913	-0.676500	-0.341436	99
Es	-3.620959	-1.019532	0.240942	99
Es	-3.617572	-0.003416	-0.332022	99
Es	-1.319214	-0.998894	-0.490150	99
Es	1.536924	1.255433	0.927771	99
Es	1.226882	0.696471	-0.384934	99
Es	1.383402	0.855719	1.513481	99
Es	0.948491	-1.030971	-0.936595	99
Es	1.889874	0.664075	-0.331082	99
Es	-0.042813	-0.676633	-0.336755	99
Es	1.113919	0.902174	-0.612050	99
Es	-1.324231	-0.442566	-0.545180	99
Es	-3.624399	-1.008007	-0.932641	99
Es	0.997861	0.090952	-0.341964	99
Es	-3.369501	-0.676501	-0.341436	99
Es	0.708480	-0.676370	-0.341433	99
Es	2.994919	0.175455	0.160801	99
Es	2.631262	0.798389	-0.002556	99
Es	2.263430	1.086185	0.609208	99
Es	3.024692	1.308555	-0.355835	99
Es	-1.332300	-0.597024	0.018856	99
Es	-2.619733	-0.675037	-0.340250	99
42
Properties=species:S:1:pos:R:3:Z:I:1 energy=-286.88369180740904 field_type=dipole dipole="0.000000 0.000000 0.000000" charge=0
C	-3.369610	-0.676500	-0.341437	6
C	-1.925610	-0.676500	-0.341437	6
C	-0.735450	-0.676500	-0.341437	6
C	0.708550	-0.676500	-0.341437	6
N	1.226610	0.696780	-0.385397	7
C	1.536891	1.255550	0.928013	6
C	2.631500	0.798390	-0.002557	6
H	-3.763580	0.344390	-0.329537	1
H	-3.763660	-1.197180	0.536723	1
H	-3.763690	-1.176600	-1.231467	1
H	1.070460	-1.205450	-1.231437	1
H	1.078960	-1.244400	0.522533	1
H	1.320080	0.666290	1.810093	1
H	1.369210	2.320260	1.033692	1
H	3.205570	1.555900	-0.522627	1
H	3.173770	-0.107930	0.237723	1
Es	1.196266	0.937553	0.218248	99
Es	1.418300	1.964400	1.003505	99
Es	-1.925913	-0.676504	-0.341432	99
Es	-1.333786	-0.612012	-0.693262	99
Es	0.992724	0.092331	-0.345934	99
Es	2.995428	0.175075	0.160943	99
Es	-2.619468	-0.675888	-0.339677	99
Es	-3.369501	-0.676501	-0.341437	99
Es	-3.623525	-1.008394	-0.930504	99
Es	1.226945	0.696352	-0.384801	99
Es	-0.735162	-0.676515	-0.341440	99
Es	-0.043071	-0.677761	-0.336531	99
Es	-1.315494	-0.973950	-0.272831	99
Es	2.265440	1.084359	0.607588	99
Es	2.631263	0.798377	-0.002553	99
Es	1.889009	0.666107	-0.328973	99
Es	1.384148	0.856359	1.510946	99
Es	0.949993	-1.031998	-0.935873	99
Es	-3.620198	-0.001845	-0.331526	99
Es	-1.326461	-0.451592	-0.051259	99
Es	1.120583	0.897265	-0.605225	99
Es	0.708480	-0.676373	-0.341434	99
Es	3.024380	1.309079	-0.355555	99
Es	0.952587	-1.046540	0.245078	99
Es	1.536926	1.255431	0.927772	99
Es	-3.619512	-1.020098	0.238889	99
42
Properties=species:S:1:pos:R:3:Z:I:1 energy=-286.88369180740904 field_type=dipole dipole="0.000000 0.000000 0.000000" charge=0
C	-3.369610	-0.676500	-0.341437	6
C	-1.925610	-0.676500	-0.341437	6
C	-0.735450	-0.676500	-0.341437	6
C	0.708550	-0.676500	-0.341437	6
N	1.226610	0.696780	-0.385397	7
C	1.536891	1.255550	0.928013	6
C	2.631500	0.798390	-0.002557	6
H	-3.763580	0.344390	-0.329537	1
H	-3.763660	-1.197180	0.536723	1
H	-3.763690	-1.176600	-1.231467	1
H	1.070460	-1.205450	-1.231437	1
H	1.078960	-1.244400	0.522533	1
H	1.320080	0.666290	1.810093	1
H	1.369210	2.320260	1.033692	1
H	3.205570	1.555900	-0.522627	1
H	3.173770	-0.107930	0.237723	1
Es	2.996012	0.174919	0.161008	99
Es	-3.623041	-1.007910	-0.929666	99
Es	1.384281	0.856985	1.510256	99
Es	0.950941	-1.031755	-0.935882	99
Es	-3.619434	-1.020434	0.238021	99
Es	1.888084	0.666499	-0.327551	99
Es	-3.369501	-0.676502	-0.341434	99
Es	1.418600	1.963304	1.003268	99
Es	0.952708	-1.045572	0.244984	99
Es	-0.043216	-0.678041	-0.336574	99
Es	1.226875	0.696519	-0.384974	99
Es	-2.619295	-0.675886	-0.339751	99
Es	-1.315040	-0.976188	-0.284731	99
Es	-1.333617	-0.598579	-0.689660	99
Es	0.708480	-0.676371	-0.341433	99
Es	-1.925914	-0.676498	-0.341434	99
Es	2.631267	0.798388	-0.002551	99
Es	1.195367	0.937412	0.218095	99
Es	1.536928	1.255434	0.927763	99
Es	2.267016	1.083751	0.606354	99
Es	3.023868	1.309161	-0.355330	99
Es	-1.327072	-0.462724	-0.042805	99
Es	1.126049	0.894052	-0.597270	99
Es	-0.735161	-0.676513	-0.341437	99
Es	-3.620963	-0.001712	-0.331336	99
Es	0.986156	0.094977	-0.353210	99
42
Properties=species:S:1:pos:R:3:Z:I:1 energy=-286.88369180740904 field_type=dipole dipole="0.000000 0.000000 0.000000" charge=0
C	-3.369610	-0.676500	-0.341437	6
C	-1.925610	-0.676500	-0.341437	6
C	-0.735450	-0.676500	-0.341437	6
C	0.708550	-0.676500	-0.341437	6
N	1.226610	0.696780	-0.385397	7
C	1.536891	1.255550	0.928013	6
C	2.631500	0.798390	-0.002557	6
H	-3.763580	0.344390	-0.329537	1
H	-3.763660	-1.197180	0.536723	1
H	-3.763690	-1.176600	-1.231467	1
H	1.070460	-1.205450	-1.231437	1
H	1.078960	-1.244400	0.522533	1
H	1.320080	0.666290	1.810093	1
H	1.369210	2.320260	1.033692	1
H	3.205570	1.555900	-0.522627	1
H	3.173770	-0.107930	0.237723	1
Es	-2.619140	-0.675209	-0.340475	99
Es	2.996520	0.174745	0.161517	99
Es	0.989647	0.091640	-0.346699	99
Es	1.197298	0.934204	0.216966	99
Es	-0.735162	-0.676507	-0.341443	99
Es	0.953828	-1.045845	0.245819	99
Es	0.708480	-0.676370	-0.341432	99
Es	1.419774	1.960918	1.002329	99
Es	3.023538	1.309379	-0.355106	99
Es	-1.925914	-0.676496	-0.341434	99
Es	-1.319205	-0.436040	-0.473775	99
Es	0.950875	-1.030366	-0.935993	99
Es	1.226947	0.696356	-0.384805	99
Es	1.383756	0.857484	1.510795	99
Es	-0.043303	-0.677555	-0.337014	99
Es	1.118290	0.900759	-0.604201	99
Es	-3.369500	-0.676501	-0.341436	99
Es	-1.333167	-0.645714	0.024946	99
Es	1.886623	0.667393	-0.324149	99
Es	2.268992	1.083218	0.603805	99
Es	-3.622049	-1.006910	-0.928707	99
Es	-1.323404	-0.956743	-0.568101	99
Es	-3.621186	-1.020619	0.238985	99
Es	-3.620355	-0.002322	-0.332873	99
Es	2.631264	0.798391	-0.002559	99
Es	1.536932	1.255425	0.927761	99
42
Properties=species:S:1:pos:R:3:Z:I:1 energy=-286.88369180740904 field_type=dipole dipole="0.000000 0.000000 0.000000" charge=0
C	-3.369610	-0.676500	-0.341437	6
C	-1.925610	-0.676500	-0.341437	6
C	-0.735450	-0.676500	-0.341437	6
C	0.708550	-0.676500	-0.341437	6
N	1.226610	0.696780	-0.385397	7
C	1.536891	1.255550	0.928013	6
C	2.631500	0.798390	-0.002557	6
H	-3.763580	0.344390	-0.329537	1
H	-3.763660	-1.197180	0.536723	1
H	-3.763690	-1.176600	-1.231467	1
H	1.070460	-1.205450	-1.231437	1
H	1.078960	-1.244400	0.522533	1
H	1.320080	0.666290	1.810093	1
H	1.369210	2.320260	1.033692	1
H	3.205570	1.555900	-0.522627	1
H	3.173770	-0.107930	0.237723	1
Es	-0.043357	-0.677628	-0.336987	99
Es	0.951670	-1.029603	-0.936405	99
Es	3.022757	1.309343	-0.354816	99
Es	-1.925914	-0.676495	-0.341436	99
Es	1.885821	0.667459	-0.322303	99
Es	-1.319454	-0.433048	-0.477631	99
Es	-1.333186	-0.647461	0.024876	99
Es	1.124428	0.896949	-0.597202	99
Es	2.631263	0.798382	-0.002554	99
Es	-3.621681	-1.006669	-0.927926	99
Es	1.226941	0.696368	-0.384813	99
Es	0.708480	-0.676371	-0.341433	99
Es	-1.323140	-0.958020	-0.564112	99
Es	2.270100	1.082645	0.602265	99
Es	-2.619042	-0.675164	-0.340597	99
Es	2.997354	0.174624	0.161560	99
Es	1.420317	1.959851	1.001926	99
Es	-3.620527	-0.002326	-0.333331	99
Es	-3.369501	-0.676500	-0.341443	99
Es	-0.735160	-0.676511	-0.341446	99
Es	0.954401	-1.044968	0.246169	99
Es	1.196223	0.935404	0.216410	99
Es	1.383654	0.857951	1.510693	99
Es	0.982470	0.093641	-0.353412	99
Es	-3.621474	-1.020561	0.238913	99
Es	1.536935	1.255424	0.927755	99
42
Properties=species:S:1:pos:R:3:Z:I:1 energy=-286.88369180740904 field_type=dipole dipole="0.000000 0.000000 0.000000" charge=0
C	-3.369610	-0.676500	-0.341437	6
C	-1.925610	-0.676500	-0.341437	6
C	-0.735450	-0.676500	-0.341437	6
C	0.708550	-0.676500	-0.341437	6
N	1.226610	0.696780	-0.385397	7
C	1.536891	1.255550	0.928013	6
C	2.631500	0.798390	-0.002557	6
H	-3.763580	0.344390	-0.329537	1
H	-3.763660	-1.197180	0.536723	1
H	-3.763690	-1.176600	-1.231467	1
H	1.070460	-1.205450	-1.231437	1
H	1.078960	-1.244400	0.522533	1
H	1.320080	0.666290	1.810093	1
H	1.369210	2.320260	1.033692	1
H	3.205570	1.555900	-0.522627	1
H	3.173770	-0.107930	0.237723	1
Es	2.269867	1.083182	0.603634	99
Es	-0.043393	-0.677926	-0.337079	99
Es	-1.316456	-0.999905	-0.435412	99
Es	1.420690	1.959160	1.001623	99
Es	-3.369500	-0.676499	-0.341436	99
Es	0.969043	0.104648	-0.372235	99
Es	1.886256	0.666508	-0.323725	99
Es	0.954489	-1.042930	0.246461	99
Es	1.193752	0.938374	0.216734	99
Es	-0.735159	-0.676519	-0.341434	99
Es	1.536930	1.255427	0.927764	99
Es	1.226956	0.696303	-0.384768	99
Es	-3.619979	-0.002968	-0.332687	99
Es	2.631264	0.798384	-0.002552	99
Es	0.708480	-0.676371	-0.341433	99
Es	-1.331523	-0.569862	0.012251	99
Es	-2.619018	-0.675180	-0.340488	99
Es	-3.620986	-1.019926	0.238814	99
Es	3.021579	1.309108	-0.354415	99
Es	0.953225	-1.029211	-0.936807	99
Es	2.998408	0.174741	0.160653	99
Es	-1.327738	-0.467959	-0.593414	99
Es	1.383625	0.858357	1.510673	99
Es	1.138246	0.881166	-0.578011	99
Es	-3.622765	-1.006890	-0.928558	99
Es	-1.925914	-0.676499	-0.341434	99
42
Properties=species:S:1:pos:R:3:Z:I:1 energy=-286.88369180740904 field_type=dipole dipole="0.000000 0.000000 0.000000" charge=0
C	-3.369610	-0.676500	-0.341437	6
C	-1.925610	-0.676500	-0.341437	6
C	-0.735450	-0.676500	-0.341437	6
C	0.708550	-0.676500	-0.341437	6
N	1.226610	0.696780	-0.385397	7
C	1.536891	1.255550	0.928013	6
C	2.631500	0.798390	-0.002557	6
H	-3.763580	0.344390	-0.329537	1
H	-3.763660	-1.197180	0.536723	1
H	-3.763690	-1.176600	-1.231467	1
H	1.070460	-1.205450	-1.231437	1
H	1.078960	-1.244400	0.522533	1
H	1.320080	0.666290	1.810093	1
H	1.369210	2.320260	1.033692	1
H	3.205570	1.555900	-0.522627	1
H	3.173770	-0.107930	0.237723	1
Es	-3.619486	-1.006372	-0.925218	99
Es	-3.624102	-0.000543	-0.333088	99
Es	1.135289	0.884486	-0.583834	99
Es	0.953691	-1.031173	-0.935404	99
Es	1.419442	1.960502	1.002846	99
Es	2.631265	0.798386	-0.002555	99
Es	-1.315006	-0.953344	-0.274031	99
Es	-3.620194	-1.022109	0.236567	99
Es	2.997777	0.174479	0.161416	99
Es	-0.043516	-0.678561	-0.336946	99
Es	0.952085	-1.043278	0.244263	99
Es	2.272038	1.080355	0.599487	99
Es	-0.735162	-0.676521	-0.341443	99
Es	3.022425	1.309749	-0.354561	99
Es	-1.925914	-0.676499	-0.341430	99
Es	1.384771	0.858301	1.508344	99
Es	1.226921	0.696420	-0.384867	99
Es	1.536934	1.255425	0.927755	99
Es	-1.333774	-0.624686	-0.697642	99
Es	1.193934	0.939063	0.214715	99
Es	-2.618948	-0.676062	-0.340221	99
Es	0.973573	0.101369	-0.362759	99
Es	1.884331	0.669793	-0.319918	99
Es	-1.326971	-0.459597	-0.045887	99
Es	-3.369503	-0.676500	-0.341436	99
Es	0.708480	-0.676370	-0.341432	99
42
Properties=species:S:1:pos:R:3:Z:I:1 energy=-286.88369180740904 field_type=dipole dipole="0.000000 0.000000 0.000000" charge=0
C	-3.369610	-0.676500	-0.341437	6
C	-1.925610	-0.676500	-0.341437	6
C	-0.735450	-0.676500	-0.341437	6
C	0.708550	-0.676500	-0.341437	6
N	1.226610	0.696780	-0.385397	7
C	1.536891	1.255550	0.928013	6
C	2.631500	0.798390	-0.002557	6
H	-3.763580	0.344390	-0.329537	1
H	-3.763660	-1.197180	0.536723	1
H	-3.763690	-1.176600	-1.231467	1
H	1.070460	-1.205450	-1.231437	1
H	1.078960	-1.244400	0.522533	1
H	1.320080	0.666290	1.810093	1
H	1.369210	2.320260	1.033692	1
H	3.205570	1.555900	-0.522627	1
H	3.173770	-0.107930	0.237723	1
Es	-3.621025	-1.022100	0.237103	99
Es	-3.369501	-0.676500	-0.341436	99
Es	2.631268	0.798389	-0.002548	99
Es	0.953675	-1.028613	-0.936374	99
Es	1.536934	1.255420	0.927755	99
Es	1.420966	1.958172	1.001567	99
Es	1.130826	0.890798	-0.587225	99
Es	2.273023	1.080245	0.597709	99
Es	1.383871	0.858737	1.509748	99
Es	-1.318508	-0.435315	-0.463942	99
Es	0.954192	-1.043236	0.245955	99
Es	0.973028	0.097549	-0.360983	99
Es	-1.323986	-0.946007	-0.578396	99
Es	-2.618895	-0.675383	-0.340884	99
Es	1.226942	0.696404	-0.384824	99
Es	1.196050	0.935760	0.214748	99
Es	1.883473	0.669780	-0.317480	99
Es	-1.925914	-0.676494	-0.341431	99
Es	-1.333281	-0.656978	0.025313	99
Es	0.708479	-0.676370	-0.341433	99
Es	-3.619303	-1.005925	-0.925068	99
Es	-3.623496	-0.000980	-0.333689	99
Es	2.998589	0.174443	0.161541	99
Es	3.021652	1.309549	-0.354310	99
Es	-0.043519	-0.678114	-0.337254	99
Es	-0.735160	-0.676515	-0.341441	99
42
Properties=species:S:1:pos:R:3:Z:I:1 energy=-286.88369180740904 field_type=dipole dipole="0.000000 0.000000 0.000000" charge=0
C	-3.369610	-0.676500	-0.341437	6
C	-1.925610	-0.676500	-0.341437	6
C	-0.735450	-0.676500	-0.341437	6
C	0.708550	-0.676500	-0.341437	6
N	1.226610	0.696780	-0.385397	7
C	1.536891	1.255550	0.928013	6
C	2.631500	0.798390	-0.002557	6
H	-3.763580	0.344390	-0.329537	1
H	-3.763660	-1.197180	0.536723	1
H	-3.763690	-1.176600	-1.231467	1
H	1.070460	-1.205450	-1.231437	1
H	1.078960	-1.244400	0.522533	1
H	1.320080	0.666290	1.810093	1
H	1.369210	2.320260	1.033692	1
H	3.205570	1.555900	-0.522627	1
H	3.173770	-0.107930	0.237723	1
Es	0.952080	-1.041967	0.244306	99
Es	0.954804	-1.030935	-0.935435	99
Es	-2.618904	-0.676140	-0.340335	99
Es	-1.333026	-0.567829	-0.680295	99
Es	2.631268	0.798386	-0.002547	99
Es	-3.619188	-1.022373	0.235179	99
Es	-1.313926	-0.973677	-0.315874	99
Es	1.144323	0.871075	-0.569746	99
Es	-1.328778	-0.495997	-0.021121	99
Es	-3.369500	-0.676500	-0.341436	99
Es	-1.925914	-0.676499	-0.341425	99
Es	2.998548	0.174453	0.161018	99
Es	2.272868	1.079784	0.598538	99
Es	1.226919	0.696421	-0.384868	99
Es	1.385218	0.858556	1.507617	99
Es	1.536935	1.255423	0.927752	99
Es	-0.043564	-0.678716	-0.337008	99
Es	-3.619165	-1.006375	-0.924572	99
Es	-3.625476	-0.000098	-0.332274	99
Es	1.419446	1.960162	1.003017	99
Es	0.963968	0.111809	-0.375631	99
Es	1.192777	0.940763	0.213538	99
Es	-0.735161	-0.676520	-0.341434	99
Es	1.883722	0.670225	-0.318509	99
Es	0.708479	-0.676371	-0.341433	99
Es	3.021626	1.309654	-0.354304	99
42
Properties=species:S:1:pos:R:3:Z:I:1 energy=-286.88369180740904 field_type=dipole dipole="0.000000 0.000000 0.000000" charge=0
C	-3.369610	-0.676500	-0.341437	6
C	-1.925610	-0.676500	-0.341437	6
C	-0.735450	-0.676500	-0.341437	6
C	0.708550	-0.676500	-0.341437	6
N	1.226610	0.696780	-0.385397	7
C	1.536891	1.255550	0.928013	6
C	2.631500	0.798390	-0.002557	6
H	-3.763580	0.344390	-0.329537	1
H	-3.763660	-1.197180	0.536723	1
H	-3.763690	-1.176600	-1.231467	1
H	1.070460	-1.205450	-1.231437	1
H	1.078960	-1.244400	0.522533	1
H	1.320080	0.666290	1.810093	1
H	1.369210	2.320260	1.033692	1
H	3.205570	1.555900	-0.522627	1
H	3.173770	-0.107930	0.237723	1
Es	-0.735160	-0.676515	-0.341441	99
Es	-1.327627	-0.472319	-0.036996	99
Es	0.954781	-1.030696	-0.935478	99
Es	1.882661	0.671339	-0.316211	99
Es	-1.333625	-0.607058	-0.694009	99
Es	2.998724	0.174359	0.161165	99
Es	-1.314492	-0.958126	-0.286509	99
Es	3.021510	1.309767	-0.354201	99
Es	-3.369500	-0.676499	-0.341434	99
Es	1.385072	0.858762	1.507697	99
Es	-0.043581	-0.678792	-0.336945	99
Es	1.419818	1.959672	1.002744	99
Es	1.226941	0.696353	-0.384824	99
Es	1.536935	1.255420	0.927756	99
Es	1.143240	0.872855	-0.571756	99
Es	2.631267	0.798389	-0.002554	99
Es	2.273996	1.078525	0.596083	99
Es	-3.619868	-1.023034	0.235272	99
Es	-3.626209	0.000130	-0.333442	99
Es	0.952252	-1.042024	0.244304	99
Es	1.193340	0.940957	0.212340	99
Es	0.963984	0.110101	-0.372393	99
Es	0.708480	-0.676372	-0.341432	99
Es	-1.925914	-0.676498	-0.341429	99
Es	-3.617773	-1.005792	-0.923179	99
Es	-2.618874	-0.676188	-0.340408	99
42
Properties=species:S:1:pos:R:3:Z:I:1 energy=-286.88369180740904 field_type=dipole dipole="0.000000 0.000000 0.000000" charge=0
C	-3.369610	-0.676500	-0.341437	6
C	-1.925610	-0.676500	-0.341437	6
C	-0.735450	-0.676500	-0.341437	6
C	0.708550	-0.676500	-0.341437	6
N	1.226610	0.696780	-0.385397	7
C	1.536891	1.255550	0.928013	6
C	2.631500	0.798390	-0.002557	6
H	-3.763580	0.344390	-0.329537	1
H	-3.763660	-1.197180	0.536723	1
H	-3.763690	-1.176600	-1.231467	1
H	1.070460	-1.205450	-1.231437	1
H	1.078960	-1.244400	0.522533	1
H	1.320080	0.666290	1.810093	1
H	1.369210	2.320260	1.033692	1
H	3.205570	1.555900	-0.522627	1
H	3.173770	-0.107930	0.237723	1
Es	2.631271	0.798397	-0.002539	99
Es	0.708480	-0.676369	-0.341434	99
Es	2.998999	0.174360	0.161137	99
Es	-1.925914	-0.676498	-0.341423	99
Es	1.193906	0.940710	0.211817	99
Es	2.274176	1.078401	0.595730	99
Es	-1.333457	-0.592758	-0.689806	99
Es	1.536937	1.255420	0.927747	99
Es	-0.043609	-0.678966	-0.336905	99
Es	1.419661	1.959720	1.002917	99
Es	-0.735161	-0.676526	-0.341439	99
Es	-3.617486	-1.005553	-0.922904	99
Es	0.960642	0.114455	-0.376619	99
Es	-3.626611	0.000254	-0.333258	99
Es	-3.369501	-0.676500	-0.341435	99
Es	-1.328015	-0.480238	-0.031779	99
Es	1.145735	0.868328	-0.566907	99
Es	-2.618870	-0.676169	-0.340546	99
Es	0.955388	-1.030387	-0.935498	99
Es	0.952007	-1.041662	0.244037	99
Es	1.226946	0.696348	-0.384794	99
Es	1.385094	0.858675	1.507426	99
Es	1.882545	0.671361	-0.315686	99
Es	-1.314264	-0.964473	-0.295868	99
Es	-3.619757	-1.023346	0.234921	99
Es	3.021239	1.309731	-0.354171	99
42
Properties=species:S:1:pos:R:3:Z:I:1 energy=-286.88369180740904 field_type=dipole dipole="0.000000 0.000000 0.000000" charge=0
C	-3.369610	-0.676500	-0.341437	6
C	-1.925610	-0.676500	-0.341437	6
C	-0.735450	-0.676500	-0.341437	6
C	0.708550	-0.676500	-0.341437	6
N	1.226610	0.696780	-0.385397	7
C	1.536891	1.255550	0.928013	6
C	2.631500	0.798390	-0.002557	6
H	-3.763580	0.344390	-0.329537	1
H	-3.763660	-1.197180	0.536723	1
H	-3.763690	-1.176600	-1.231467	1
H	1.070460	-1.205450	-1.231437	1
H	1.078960	-1.244400	0.522533	1
H	1.320080	0.666290	1.810093	1
H	1.369210	2.320260	1.033692	1
H	3.205570	1.555900	-0.522627	1
H	3.173770	-0.107930	0.237723	1
Es	1.137731	0.881498	-0.575896	99
Es	2.999897	0.174461	0.161292	99
Es	3.020440	1.309631	-0.353665	99
Es	0.954214	-1.041752	0.245896	99
Es	-0.043602	-0.678517	-0.337336	99
Es	-3.620906	-1.023550	0.235573	99
Es	1.384111	0.858781	1.508892	99
Es	1.226907	0.696457	-0.384901	99
Es	-3.626701	0.000148	-0.335110	99
Es	-1.333338	-0.664446	0.025544	99
Es	2.274956	1.078052	0.593632	99
Es	2.631268	0.798390	-0.002547	99
Es	1.881726	0.671469	-0.313526	99
Es	-0.735160	-0.676517	-0.341442	99
Es	1.421148	1.957545	1.001821	99
Es	0.962491	0.104683	-0.369023	99
Es	0.955212	-1.027514	-0.936514	99
Es	1.536937	1.255421	0.927751	99
Es	-1.317977	-0.435380	-0.456464	99
Es	-3.616275	-1.005190	-0.921719	99
Es	-3.369500	-0.676500	-0.341435	99
Es	1.197506	0.936268	0.211889	99
Es	-1.925914	-0.676494	-0.341431	99
Es	-1.324451	-0.938314	-0.586159	99
Es	0.708480	-0.676372	-0.341435	99
Es	-2.618821	-0.675543	-0.340969	99
