45
Properties=species:S:1:pos:R:3:Z:I:1 energy=-288.11421108781104 field_type=dipole dipole="0.000000 0.000000 0.000000" charge=0
C	-2.567417	-0.744314	-0.821756	6
C	-1.085477	-0.822004	-0.640556	6
C	-0.432537	-0.280104	0.403854	6
C	1.048422	-0.294444	0.699794	6
N	1.825862	-1.073144	-0.256066	7
C	1.678373	1.072296	0.787504	6
C	1.123133	2.268886	0.542594	6
H	-2.799987	-0.305904	-1.797736	1
H	-3.049377	-0.131804	-0.052146	1
H	-3.001807	-1.748414	-0.783366	1
H	-0.546737	-1.349274	-1.421416	1
H	-1.023397	0.229696	1.165164	1
H	1.170093	-0.767654	1.682424	1
H	1.699743	-0.659354	-1.177376	1
H	1.436523	-2.011754	-0.299756	1
H	2.724263	1.061066	1.094814	1
H	0.092013	2.378846	0.224854	1
H	1.708313	3.177376	0.649174	1
Es	2.170320	-1.079121	-0.166729	99
Es	1.048459	-0.294463	0.699683	99
Es	1.825288	-1.073127	-0.256205	99
Es	1.571685	-1.633183	-0.285123	99
Es	1.123094	2.268968	0.542573	99
Es	1.465501	-0.733342	0.147258	99
Es	1.480096	1.653818	0.345911	99
Es	1.727269	-0.825001	-0.809881	99
Es	0.425009	2.348876	0.329431	99
Es	1.122531	-0.608145	1.364445	99
Es	1.678389	1.072186	0.787519	99
Es	-0.781187	-0.839477	0.050127	99
Es	1.336074	0.403292	0.734516	99
Es	1.514939	2.887615	0.613251	99
Es	-2.852691	-1.424867	-0.796320	99
Es	2.384983	1.055437	0.998048	99
Es	-1.825551	-0.780000	-0.724370	99
Es	-0.722111	-1.183075	-1.175117	99
Es	1.295518	1.699268	0.975212	99
Es	-2.567375	-0.744317	-0.821752	99
Es	-0.716461	-0.269226	-0.288987	99
Es	0.298923	-0.281891	0.530202	99
Es	-0.832892	0.069703	0.924922	99
Es	-2.716929	-0.449421	-1.482985	99
Es	-1.085540	-0.822044	-0.640632	99
Es	-2.889807	-0.328171	-0.296026	99
Es	-0.432477	-0.280060	0.403935	99
45
Properties=species:S:1:pos:R:3:Z:I:1 energy=-288.11421108781104 field_type=dipole dipole="0.000000 0.000000 0.000000" charge=0
C	-2.567417	-0.744314	-0.821756	6
C	-1.085477	-0.822004	-0.640556	6
C	-0.432537	-0.280104	0.403854	6
C	1.048422	-0.294444	0.699794	6
N	1.825862	-1.073144	-0.256066	7
C	1.678373	1.072296	0.787504	6
C	1.123133	2.268886	0.542594	6
H	-2.799987	-0.305904	-1.797736	1
H	-3.049377	-0.131804	-0.052146	1
H	-3.001807	-1.748414	-0.783366	1
H	-0.546737	-1.349274	-1.421416	1
H	-1.023397	0.229696	1.165164	1
H	1.170093	-0.767654	1.682424	1
H	1.699743	-0.659354	-1.177376	1
H	1.436523	-2.011754	-0.299756	1
H	2.724263	1.061066	1.094814	1
H	0.092013	2.378846	0.224854	1
H	1.708313	3.177376	0.649174	1
Es	1.514574	2.888124	0.615112	99
Es	1.725444	-0.825002	-0.809975	99
Es	1.678383	1.072183	0.787524	99
Es	1.336493	0.403088	0.733297	99
Es	1.467695	-0.732746	0.148715	99
Es	-2.567375	-0.744320	-0.821757	99
Es	1.482038	1.654897	0.346638	99
Es	1.293626	1.698196	0.974146	99
Es	-0.715026	-0.267518	-0.290662	99
Es	-2.852453	-1.425419	-0.796102	99
Es	1.122245	-0.608565	1.364672	99
Es	2.168338	-1.077822	-0.169555	99
Es	0.425865	2.348407	0.327320	99
Es	1.048458	-0.294464	0.699683	99
Es	-0.831961	0.070635	0.924003	99
Es	-0.432475	-0.280062	0.403938	99
Es	-1.825756	-0.779490	-0.725096	99
Es	-0.722975	-1.183933	-1.174504	99
Es	-2.716510	-0.448777	-1.483694	99
Es	1.825293	-1.073122	-0.256206	99
Es	-1.085548	-0.822047	-0.640637	99
Es	1.572898	-1.635075	-0.283537	99
Es	-2.889141	-0.328229	-0.295781	99
Es	1.123091	2.268966	0.542585	99
Es	2.384105	1.055899	0.999834	99
Es	-0.782876	-0.841317	0.052065	99
Es	0.298607	-0.282256	0.530881	99
45
Properties=species:S:1:pos:R:3:Z:I:1 energy=-288.11421108781104 field_type=dipole dipole="0.000000 0.000000 0.000000" charge=0
C	-2.567417	-0.744314	-0.821756	6
C	-1.085477	-0.822004	-0.640556	6
C	-0.432537	-0.280104	0.403854	6
C	1.048422	-0.294444	0.699794	6
N	1.825862	-1.073144	-0.256066	7
C	1.678373	1.072296	0.787504	6
C	1.123133	2.268886	0.542594	6
H	-2.799987	-0.305904	-1.797736	1
H	-3.049377	-0.131804	-0.052146	1
H	-3.001807	-1.748414	-0.783366	1
H	-0.546737	-1.349274	-1.421416	1
H	-1.023397	0.229696	1.165164	1
H	1.170093	-0.767654	1.682424	1
H	1.699743	-0.659354	-1.177376	1
H	1.436523	-2.011754	-0.299756	1
H	2.724263	1.061066	1.094814	1
H	0.092013	2.378846	0.224854	1
H	1.708313	3.177376	0.649174	1
Es	-2.888694	-0.328352	-0.295633	99
Es	1.292180	1.697207	0.972639	99
Es	-0.783995	-0.842057	0.053065	99
Es	-0.713825	-0.266326	-0.291926	99
Es	2.383629	1.056258	1.001535	99
Es	1.825267	-1.073116	-0.256222	99
Es	1.123092	2.268971	0.542576	99
Es	-0.723573	-1.184716	-1.173885	99
Es	1.122091	-0.608666	1.364637	99
Es	-2.852119	-1.425437	-0.795735	99
Es	1.678382	1.072193	0.787539	99
Es	-1.825768	-0.779248	-0.725552	99
Es	1.514284	2.888315	0.616862	99
Es	1.723454	-0.824665	-0.809177	99
Es	-1.085545	-0.822043	-0.640640	99
Es	0.298180	-0.282790	0.531457	99
Es	1.573493	-1.636407	-0.283040	99
Es	-0.432476	-0.280063	0.403938	99
Es	1.483570	1.655789	0.347388	99
Es	1.469994	-0.732514	0.150734	99
Es	-2.567375	-0.744320	-0.821757	99
Es	-2.716580	-0.448552	-1.484345	99
Es	0.426312	2.348055	0.325728	99
Es	-0.831483	0.071170	0.923317	99
Es	1.336887	0.403167	0.732225	99
Es	2.167216	-1.077158	-0.172502	99
Es	1.048459	-0.294465	0.699683	99
45
Properties=species:S:1:pos:R:3:Z:I:1 energy=-288.11421108781104 field_type=dipole dipole="0.000000 0.000000 0.000000" charge=0
C	-2.567417	-0.744314	-0.821756	6
C	-1.085477	-0.822004	-0.640556	6
C	-0.432537	-0.280104	0.403854	6
C	1.048422	-0.294444	0.699794	6
N	1.825862	-1.073144	-0.256066	7
C	1.678373	1.072296	0.787504	6
C	1.123133	2.268886	0.542594	6
H	-2.799987	-0.305904	-1.797736	1
H	-3.049377	-0.131804	-0.052146	1
H	-3.001807	-1.748414	-0.783366	1
H	-0.546737	-1.349274	-1.421416	1
H	-1.023397	0.229696	1.165164	1
H	1.170093	-0.767654	1.682424	1
H	1.699743	-0.659354	-1.177376	1
H	1.436523	-2.011754	-0.299756	1
H	2.724263	1.061066	1.094814	1
H	0.092013	2.378846	0.224854	1
H	1.708313	3.177376	0.649174	1
Es	1.337212	0.403062	0.731287	99
Es	1.484731	1.656552	0.348573	99
Es	1.720306	-0.825086	-0.808466	99
Es	1.575120	-1.637708	-0.281846	99
Es	1.472662	-0.732066	0.153143	99
Es	-1.085547	-0.822045	-0.640638	99
Es	1.048452	-0.294463	0.699685	99
Es	-2.716596	-0.448389	-1.484709	99
Es	-1.825906	-0.778634	-0.726241	99
Es	1.123093	2.268971	0.542574	99
Es	0.297884	-0.282950	0.531814	99
Es	0.426590	2.347727	0.324215	99
Es	-2.567374	-0.744320	-0.821757	99
Es	1.825276	-1.073118	-0.256237	99
Es	-0.785139	-0.842664	0.054028	99
Es	1.514152	2.888338	0.618432	99
Es	1.291039	1.696490	0.971230	99
Es	-2.888239	-0.328321	-0.295419	99
Es	1.121991	-0.608706	1.364538	99
Es	-0.831061	0.071593	0.922584	99
Es	-0.723888	-1.185274	-1.173533	99
Es	-0.432474	-0.280059	0.403937	99
Es	2.383291	1.056604	1.002830	99
Es	-0.713024	-0.265884	-0.292615	99
Es	-2.851807	-1.425654	-0.795489	99
Es	1.678387	1.072184	0.787527	99
Es	2.165925	-1.075949	-0.176540	99
45
Properties=species:S:1:pos:R:3:Z:I:1 energy=-288.11421108781104 field_type=dipole dipole="0.000000 0.000000 0.000000" charge=0
C	-2.567417	-0.744314	-0.821756	6
C	-1.085477	-0.822004	-0.640556	6
C	-0.432537	-0.280104	0.403854	6
C	1.048422	-0.294444	0.699794	6
N	1.825862	-1.073144	-0.256066	7
C	1.678373	1.072296	0.787504	6
C	1.123133	2.268886	0.542594	6
H	-2.799987	-0.305904	-1.797736	1
H	-3.049377	-0.131804	-0.052146	1
H	-3.001807	-1.748414	-0.783366	1
H	-0.546737	-1.349274	-1.421416	1
H	-1.023397	0.229696	1.165164	1
H	1.170093	-0.767654	1.682424	1
H	1.699743	-0.659354	-1.177376	1
H	1.436523	-2.011754	-0.299756	1
H	2.724263	1.061066	1.094814	1
H	0.092013	2.378846	0.224854	1
H	1.708313	3.177376	0.649174	1
Es	1.123091	2.268971	0.542578	99
Es	0.297732	-0.283199	0.532040	99
Es	0.426853	2.347419	0.322998	99
Es	-2.567375	-0.744320	-0.821758	99
Es	-2.851463	-1.425374	-0.795129	99
Es	-1.825847	-0.778441	-0.726687	99
Es	1.048456	-0.294466	0.699686	99
Es	1.825299	-1.073116	-0.256244	99
Es	-0.712283	-0.265578	-0.293195	99
Es	2.164168	-1.074727	-0.180130	99
Es	1.290049	1.695777	0.969806	99
Es	-0.724124	-1.185679	-1.173085	99
Es	1.485807	1.657265	0.349390	99
Es	1.717877	-0.825427	-0.807631	99
Es	1.576762	-1.639140	-0.280949	99
Es	-0.830797	0.072018	0.921879	99
Es	-1.085546	-0.822049	-0.640638	99
Es	-2.887940	-0.328465	-0.295296	99
Es	-0.786075	-0.843021	0.054748	99
Es	-0.432473	-0.280060	0.403939	99
Es	1.121864	-0.608743	1.364530	99
Es	1.678386	1.072179	0.787523	99
Es	1.475108	-0.731514	0.155334	99
Es	1.513881	2.888290	0.620018	99
Es	2.383038	1.056940	1.004016	99
Es	-2.716845	-0.448364	-1.485291	99
Es	1.337453	0.403058	0.730456	99
45
Properties=species:S:1:pos:R:3:Z:I:1 energy=-288.11421108781104 field_type=dipole dipole="0.000000 0.000000 0.000000" charge=0
C	-2.567417	-0.744314	-0.821756	6
C	-1.085477	-0.822004	-0.640556	6
C	-0.432537	-0.280104	0.403854	6
C	1.048422	-0.294444	0.699794	6
N	1.825862	-1.073144	-0.256066	7
C	1.678373	1.072296	0.787504	6
C	1.123133	2.268886	0.542594	6
H	-2.799987	-0.305904	-1.797736	1
H	-3.049377	-0.131804	-0.052146	1
H	-3.001807	-1.748414	-0.783366	1
H	-0.546737	-1.349274	-1.421416	1
H	-1.023397	0.229696	1.165164	1
H	1.170093	-0.767654	1.682424	1
H	1.699743	-0.659354	-1.177376	1
H	1.436523	-2.011754	-0.299756	1
H	2.724263	1.061066	1.094814	1
H	0.092013	2.378846	0.224854	1
H	1.708313	3.177376	0.649174	1
Es	2.382918	1.057350	1.005003	99
Es	1.337748	0.402986	0.729574	99
Es	-1.085549	-0.822044	-0.640639	99
Es	-0.432473	-0.280061	0.403940	99
Es	1.577477	-1.639645	-0.280275	99
Es	-2.716961	-0.448533	-1.485604	99
Es	1.513764	2.888199	0.621424	99
Es	-2.887607	-0.328252	-0.295108	99
Es	1.825305	-1.073116	-0.256219	99
Es	-0.724505	-1.186176	-1.172895	99
Es	-0.830472	0.072410	0.921332	99
Es	1.477433	-0.731310	0.157205	99
Es	-0.786838	-0.843248	0.055315	99
Es	-0.711609	-0.265427	-0.293683	99
Es	1.123094	2.268969	0.542575	99
Es	1.048458	-0.294463	0.699683	99
Es	1.678387	1.072181	0.787524	99
Es	-2.851150	-1.425378	-0.794814	99
Es	-1.825944	-0.777976	-0.727061	99
Es	0.297460	-0.283463	0.532114	99
Es	0.426998	2.347107	0.321916	99
Es	1.289266	1.695205	0.968314	99
Es	1.121845	-0.608665	1.364477	99
Es	2.162724	-1.074553	-0.182592	99
Es	-2.567374	-0.744319	-0.821757	99
Es	1.716167	-0.825361	-0.807355	99
Es	1.486497	1.657811	0.350512	99
45
Properties=species:S:1:pos:R:3:Z:I:1 energy=-288.11421108781104 field_type=dipole dipole="0.000000 0.000000 0.000000" charge=0
C	-2.567417	-0.744314	-0.821756	6
C	-1.085477	-0.822004	-0.640556	6
C	-0.432537	-0.280104	0.403854	6
C	1.048422	-0.294444	0.699794	6
N	1.825862	-1.073144	-0.256066	7
C	1.678373	1.072296	0.787504	6
C	1.123133	2.268886	0.542594	6
H	-2.799987	-0.305904	-1.797736	1
H	-3.049377	-0.131804	-0.052146	1
H	-3.001807	-1.748414	-0.783366	1
H	-0.546737	-1.349274	-1.421416	1
H	-1.023397	0.229696	1.165164	1
H	1.170093	-0.767654	1.682424	1
H	1.699743	-0.659354	-1.177376	1
H	1.436523	-2.011754	-0.299756	1
H	2.724263	1.061066	1.094814	1
H	0.092013	2.378846	0.224854	1
H	1.708313	3.177376	0.649174	1
Es	0.427074	2.346866	0.321055	99
Es	1.337945	0.403028	0.729090	99
Es	1.714099	-0.825373	-0.806829	99
Es	-2.887200	-0.328366	-0.294972	99
Es	1.121680	-0.608537	1.364254	99
Es	-0.711038	-0.265392	-0.294048	99
Es	-0.787486	-0.843380	0.055766	99
Es	1.825285	-1.073107	-0.256266	99
Es	1.123092	2.268971	0.542577	99
Es	1.578002	-1.640010	-0.279625	99
Es	1.288685	1.694722	0.966868	99
Es	-2.567374	-0.744320	-0.821758	99
Es	-0.724624	-1.186461	-1.172513	99
Es	1.487017	1.658284	0.351432	99
Es	1.513715	2.888052	0.622714	99
Es	0.297330	-0.283584	0.532363	99
Es	-1.085548	-0.822046	-0.640638	99
Es	2.382836	1.057652	1.005848	99
Es	1.480781	-0.730991	0.159507	99
Es	-1.826109	-0.777602	-0.727621	99
Es	-2.717272	-0.448464	-1.485924	99
Es	-0.432473	-0.280059	0.403939	99
Es	1.678387	1.072181	0.787526	99
Es	2.160931	-1.074684	-0.185752	99
Es	-2.850834	-1.425327	-0.794515	99
Es	1.048460	-0.294464	0.699683	99
Es	-0.830301	0.072643	0.920745	99
45
Properties=species:S:1:pos:R:3:Z:I:1 energy=-288.11421108781104 field_type=dipole dipole="0.000000 0.000000 0.000000" charge=0
C	-2.567417	-0.744314	-0.821756	6
C	-1.085477	-0.822004	-0.640556	6
C	-0.432537	-0.280104	0.403854	6
C	1.048422	-0.294444	0.699794	6
N	1.825862	-1.073144	-0.256066	7
C	1.678373	1.072296	0.787504	6
C	1.123133	2.268886	0.542594	6
H	-2.799987	-0.305904	-1.797736	1
H	-3.049377	-0.131804	-0.052146	1
H	-3.001807	-1.748414	-0.783366	1
H	-0.546737	-1.349274	-1.421416	1
H	-1.023397	0.229696	1.165164	1
H	1.170093	-0.767654	1.682424	1
H	1.699743	-0.659354	-1.177376	1
H	1.436523	-2.011754	-0.299756	1
H	2.724263	1.061066	1.094814	1
H	0.092013	2.378846	0.224854	1
H	1.708313	3.177376	0.649174	1
Es	1.579536	-1.641010	-0.278825	99
Es	1.513659	2.887762	0.623879	99
Es	1.678388	1.072180	0.787524	99
Es	2.158309	-1.073949	-0.189279	99
Es	1.483695	-0.730195	0.161896	99
Es	-1.826189	-0.777453	-0.728041	99
Es	1.338204	0.403031	0.728460	99
Es	2.382696	1.057978	1.006604	99
Es	-0.787969	-0.843335	0.056019	99
Es	-0.830265	0.072760	0.920104	99
Es	0.427053	2.346740	0.320304	99
Es	-0.724766	-1.186691	-1.172067	99
Es	1.123093	2.268971	0.542574	99
Es	-2.850532	-1.425081	-0.794250	99
Es	1.487540	1.658731	0.352267	99
Es	1.121642	-0.608550	1.364150	99
Es	-2.887003	-0.328376	-0.294871	99
Es	0.297283	-0.283799	0.532635	99
Es	-0.432473	-0.280061	0.403937	99
Es	-0.710500	-0.265325	-0.294414	99
Es	-2.717537	-0.448614	-1.486255	99
Es	1.712136	-0.825847	-0.806114	99
Es	1.288211	1.694308	0.965618	99
Es	1.825312	-1.073115	-0.256236	99
Es	-1.085547	-0.822049	-0.640637	99
Es	1.048454	-0.294463	0.699685	99
Es	-2.567373	-0.744319	-0.821758	99
45
Properties=species:S:1:pos:R:3:Z:I:1 energy=-288.11421108781104 field_type=dipole dipole="0.000000 0.000000 0.000000" charge=0
C	-2.567417	-0.744314	-0.821756	6
C	-1.085477	-0.822004	-0.640556	6
C	-0.432537	-0.280104	0.403854	6
C	1.048422	-0.294444	0.699794	6
N	1.825862	-1.073144	-0.256066	7
C	1.678373	1.072296	0.787504	6
C	1.123133	2.268886	0.542594	6
H	-2.799987	-0.305904	-1.797736	1
H	-3.049377	-0.131804	-0.052146	1
H	-3.001807	-1.748414	-0.783366	1
H	-0.546737	-1.349274	-1.421416	1
H	-1.023397	0.229696	1.165164	1
H	1.170093	-0.767654	1.682424	1
H	1.699743	-0.659354	-1.177376	1
H	1.436523	-2.011754	-0.299756	1
H	2.724263	1.061066	1.094814	1
H	0.092013	2.378846	0.224854	1
H	1.708313	3.177376	0.649174	1
Es	-0.710105	-0.265480	-0.294603	99
Es	-2.886851	-0.328454	-0.294770	99
Es	-0.830200	0.072809	0.919353	99
Es	1.123092	2.268970	0.542577	99
Es	-2.850462	-1.424991	-0.794315	99
Es	0.427065	2.346579	0.319662	99
Es	2.382776	1.058153	1.007198	99
Es	-0.432473	-0.280061	0.403939	99
Es	1.825347	-1.073055	-0.256351	99
Es	-2.717619	-0.448517	-1.486285	99
Es	1.513660	2.887559	0.624758	99
Es	0.297253	-0.283844	0.532937	99
Es	1.710307	-0.826031	-0.805486	99
Es	-0.724722	-1.186914	-1.171654	99
Es	1.048457	-0.294463	0.699684	99
Es	1.338427	0.403117	0.728029	99
Es	-0.788484	-0.843146	0.056231	99
Es	2.154709	-1.073025	-0.192433	99
Es	-1.826271	-0.777282	-0.728468	99
Es	-2.567375	-0.744320	-0.821758	99
Es	-1.085548	-0.822047	-0.640637	99
Es	1.486917	-0.729736	0.164128	99
Es	1.287838	1.694044	0.964538	99
Es	1.121623	-0.608508	1.363970	99
Es	1.487694	1.658945	0.353182	99
Es	1.581615	-1.642251	-0.278035	99
Es	1.678389	1.072180	0.787515	99
45
Properties=species:S:1:pos:R:3:Z:I:1 energy=-288.11421108781104 field_type=dipole dipole="0.000000 0.000000 0.000000" charge=0
C	-2.567417	-0.744314	-0.821756	6
C	-1.085477	-0.822004	-0.640556	6
C	-0.432537	-0.280104	0.403854	6
C	1.048422	-0.294444	0.699794	6
N	1.825862	-1.073144	-0.256066	7
C	1.678373	1.072296	0.787504	6
C	1.123133	2.268886	0.542594	6
H	-2.799987	-0.305904	-1.797736	1
H	-3.049377	-0.131804	-0.052146	1
H	-3.001807	-1.748414	-0.783366	1
H	-0.546737	-1.349274	-1.421416	1
H	-1.023397	0.229696	1.165164	1
H	1.170093	-0.767654	1.682424	1
H	1.699743	-0.659354	-1.177376	1
H	1.436523	-2.011754	-0.299756	1
H	2.724263	1.061066	1.094814	1
H	0.092013	2.378846	0.224854	1
H	1.708313	3.177376	0.649174	1
Es	1.582627	-1.642707	-0.277300	99
Es	-0.830117	0.072850	0.918895	99
Es	-2.717851	-0.448596	-1.486553	99
Es	0.427152	2.346377	0.319183	99
Es	1.487970	1.659209	0.353682	99
Es	-1.085548	-0.822047	-0.640638	99
Es	-1.826426	-0.777225	-0.728751	99
Es	1.489248	-0.729445	0.165711	99
Es	1.825239	-1.073091	-0.256291	99
Es	1.121540	-0.608404	1.363831	99
Es	1.287535	1.693896	0.963518	99
Es	1.123092	2.268972	0.542578	99
Es	1.708361	-0.826477	-0.804876	99
Es	-0.724920	-1.187119	-1.171410	99
Es	1.513580	2.887435	0.625780	99
Es	-2.850282	-1.424772	-0.794066	99
Es	-0.709745	-0.265459	-0.294849	99
Es	-0.432471	-0.280061	0.403940	99
Es	-2.567375	-0.744320	-0.821759	99
Es	1.338549	0.403087	0.727798	99
Es	1.678388	1.072182	0.787527	99
Es	-2.886491	-0.328409	-0.294633	99
Es	2.153326	-1.072421	-0.194962	99
Es	-0.788673	-0.843075	0.056303	99
Es	2.382736	1.058231	1.007574	99
Es	1.048458	-0.294463	0.699685	99
Es	0.297153	-0.283918	0.532990	99
45
Properties=species:S:1:pos:R:3:Z:I:1 energy=-288.11421108781104 field_type=dipole dipole="0.000000 0.000000 0.000000" charge=0
C	-2.567417	-0.744314	-0.821756	6
C	-1.085477	-0.822004	-0.640556	6
C	-0.432537	-0.280104	0.403854	6
C	1.048422	-0.294444	0.699794	6
N	1.825862	-1.073144	-0.256066	7
C	1.678373	1.072296	0.787504	6
C	1.123133	2.268886	0.542594	6
H	-2.799987	-0.305904	-1.797736	1
H	-3.049377	-0.131804	-0.052146	1
H	-3.001807	-1.748414	-0.783366	1
H	-0.546737	-1.349274	-1.421416	1
H	-1.023397	0.229696	1.165164	1
H	1.170093	-0.767654	1.682424	1
H	1.699743	-0.659354	-1.177376	1
H	1.436523	-2.011754	-0.299756	1
H	2.724263	1.061066	1.094814	1
H	0.092013	2.378846	0.224854	1
H	1.708313	3.177376	0.649174	1
Es	-0.830004	0.073059	0.918209	99
Es	-2.718198	-0.448766	-1.486784	99
Es	1.492304	-0.728854	0.167634	99
Es	0.427009	2.346287	0.318878	99
Es	-1.826360	-0.776993	-0.729130	99
Es	1.287313	1.693639	0.962562	99
Es	1.121634	-0.608411	1.363766	99
Es	1.706796	-0.826645	-0.804337	99
Es	1.678389	1.072179	0.787520	99
Es	1.048457	-0.294462	0.699682	99
Es	-2.567374	-0.744319	-0.821758	99
Es	-1.085549	-0.822049	-0.640637	99
Es	1.488147	1.659442	0.354333	99
Es	-0.432471	-0.280062	0.403940	99
Es	-0.789063	-0.843019	0.056527	99
Es	-0.724937	-1.187319	-1.170998	99
Es	2.382794	1.058502	1.007935	99
Es	1.338717	0.403086	0.727284	99
Es	-0.709287	-0.265683	-0.295050	99
Es	1.583829	-1.643350	-0.276685	99
Es	1.123092	2.268971	0.542575	99
Es	-2.886373	-0.328478	-0.294642	99
Es	0.297074	-0.284060	0.533151	99
Es	1.825282	-1.073107	-0.256244	99
Es	1.513505	2.887168	0.626651	99
Es	2.150382	-1.072031	-0.197658	99
Es	-2.850051	-1.424492	-0.793816	99
45
Properties=species:S:1:pos:R:3:Z:I:1 energy=-288.11421108781104 field_type=dipole dipole="0.000000 0.000000 0.000000" charge=0
C	-2.567417	-0.744314	-0.821756	6
C	-1.085477	-0.822004	-0.640556	6
C	-0.432537	-0.280104	0.403854	6
C	1.048422	-0.294444	0.699794	6
N	1.825862	-1.073144	-0.256066	7
C	1.678373	1.072296	0.787504	6
C	1.123133	2.268886	0.542594	6
H	-2.799987	-0.305904	-1.797736	1
H	-3.049377	-0.131804	-0.052146	1
H	-3.001807	-1.748414	-0.783366	1
H	-0.546737	-1.349274	-1.421416	1
H	-1.023397	0.229696	1.165164	1
H	1.170093	-0.767654	1.682424	1
H	1.699743	-0.659354	-1.177376	1
H	1.436523	-2.011754	-0.299756	1
H	2.724263	1.061066	1.094814	1
H	0.092013	2.378846	0.224854	1
H	1.708313	3.177376	0.649174	1
Es	1.678387	1.072180	0.787525	99
Es	1.338927	0.403148	0.727158	99
Es	-2.718348	-0.448703	-1.486866	99
Es	1.513597	2.886940	0.627269	99
Es	-0.830004	0.073169	0.917727	99
Es	-0.708989	-0.265932	-0.295122	99
Es	0.427037	2.346313	0.318515	99
Es	1.488100	1.659362	0.355113	99
Es	1.123092	2.268972	0.542577	99
Es	1.287137	1.693663	0.961685	99
Es	1.584478	-1.643528	-0.276289	99
Es	2.148422	-1.072013	-0.199129	99
Es	-0.788924	-0.842844	0.056386	99
Es	-2.567374	-0.744320	-0.821759	99
Es	-0.725051	-1.187388	-1.170759	99
Es	1.121431	-0.608334	1.363435	99
Es	1.825269	-1.073086	-0.256306	99
Es	-0.432473	-0.280062	0.403939	99
Es	1.705745	-0.826850	-0.804043	99
Es	-2.886124	-0.328529	-0.294522	99
Es	-1.085548	-0.822047	-0.640637	99
Es	-1.826501	-0.777045	-0.729340	99
Es	-2.850016	-1.424283	-0.793806	99
Es	2.382799	1.058617	1.008257	99
Es	0.297100	-0.284051	0.533292	99
Es	1.494432	-0.728653	0.168923	99
Es	1.048458	-0.294464	0.699683	99
45
Properties=species:S:1:pos:R:3:Z:I:1 energy=-288.11421108781104 field_type=dipole dipole="0.000000 0.000000 0.000000" charge=0
C	-2.567417	-0.744314	-0.821756	6
C	-1.085477	-0.822004	-0.640556	6
C	-0.432537	-0.280104	0.403854	6
C	1.048422	-0.294444	0.699794	6
N	1.825862	-1.073144	-0.256066	7
C	1.678373	1.072296	0.787504	6
C	1.123133	2.268886	0.542594	6
H	-2.799987	-0.305904	-1.797736	1
H	-3.049377	-0.131804	-0.052146	1
H	-3.001807	-1.748414	-0.783366	1
H	-0.546737	-1.349274	-1.421416	1
H	-1.023397	0.229696	1.165164	1
H	1.170093	-0.767654	1.682424	1
H	1.699743	-0.659354	-1.177376	1
H	1.436523	-2.011754	-0.299756	1
H	2.724263	1.061066	1.094814	1
H	0.092013	2.378846	0.224854	1
H	1.708313	3.177376	0.649174	1
Es	0.297110	-0.283923	0.533317	99
Es	1.121428	-0.608187	1.363290	99
Es	-1.085549	-0.822054	-0.640633	99
Es	2.144904	-1.070926	-0.202093	99
Es	1.339009	0.402972	0.727041	99
Es	1.703568	-0.827288	-0.803084	99
Es	1.586566	-1.644537	-0.275495	99
Es	-0.724859	-1.187487	-1.170471	99
Es	1.513518	2.886784	0.627860	99
Es	1.488210	1.659542	0.355459	99
Es	-0.708973	-0.266116	-0.295089	99
Es	-2.850107	-1.424010	-0.793798	99
Es	-2.718424	-0.448760	-1.486907	99
Es	1.678387	1.072181	0.787528	99
Es	1.123090	2.268973	0.542580	99
Es	2.382862	1.058663	1.008475	99
Es	1.497772	-0.728411	0.170656	99
Es	0.426937	2.346201	0.318346	99
Es	-1.826330	-0.777135	-0.729450	99
Es	1.287124	1.693557	0.960999	99
Es	-2.886189	-0.328586	-0.294681	99
Es	-0.789011	-0.842487	0.056291	99
Es	-0.829862	0.073136	0.917285	99
Es	-2.567375	-0.744320	-0.821758	99
Es	1.825268	-1.073031	-0.256382	99
Es	-0.432472	-0.280060	0.403939	99
Es	1.048457	-0.294462	0.699683	99
45
Properties=species:S:1:pos:R:3:Z:I:1 energy=-288.11421108781104 field_type=dipole dipole="0.000000 0.000000 0.000000" charge=0
C	-2.567417	-0.744314	-0.821756	6
C	-1.085477	-0.822004	-0.640556	6
C	-0.432537	-0.280104	0.403854	6
C	1.048422	-0.294444	0.699794	6
N	1.825862	-1.073144	-0.256066	7
C	1.678373	1.072296	0.787504	6
C	1.123133	2.268886	0.542594	6
H	-2.799987	-0.305904	-1.797736	1
H	-3.049377	-0.131804	-0.052146	1
H	-3.001807	-1.748414	-0.783366	1
H	-0.546737	-1.349274	-1.421416	1
H	-1.023397	0.229696	1.165164	1
H	1.170093	-0.767654	1.682424	1
H	1.699743	-0.659354	-1.177376	1
H	1.436523	-2.011754	-0.299756	1
H	2.724263	1.061066	1.094814	1
H	0.092013	2.378846	0.224854	1
H	1.708313	3.177376	0.649174	1
Es	1.513550	2.886593	0.628276	99
Es	-0.708775	-0.266233	-0.295201	99
Es	-0.829748	0.073120	0.916886	99
Es	1.339201	0.402955	0.726930	99
Es	-0.432471	-0.280060	0.403939	99
Es	1.498667	-0.728498	0.171275	99
Es	1.488127	1.659583	0.355819	99
Es	-0.788497	-0.842442	0.056028	99
Es	-2.849870	-1.423836	-0.793691	99
Es	-2.567374	-0.744319	-0.821759	99
Es	1.678388	1.072180	0.787520	99
Es	-2.718585	-0.449068	-1.486992	99
Es	1.702291	-0.827449	-0.802422	99
Es	1.048452	-0.294463	0.699686	99
Es	1.121322	-0.608006	1.363127	99
Es	2.382947	1.058772	1.008613	99
Es	-1.826355	-0.776980	-0.729720	99
Es	1.586823	-1.644640	-0.275385	99
Es	-1.085549	-0.822043	-0.640640	99
Es	1.287005	1.693453	0.960520	99
Es	1.123092	2.268974	0.542578	99
Es	-2.886192	-0.328430	-0.294596	99
Es	1.825238	-1.073051	-0.256337	99
Es	0.297029	-0.283739	0.533380	99
Es	-0.724941	-1.187642	-1.170220	99
Es	0.426840	2.346214	0.318203	99
Es	2.144442	-1.070715	-0.202911	99
45
Properties=species:S:1:pos:R:3:Z:I:1 energy=-288.11421108781104 field_type=dipole dipole="0.000000 0.000000 0.000000" charge=0
C	-2.567417	-0.744314	-0.821756	6
C	-1.085477	-0.822004	-0.640556	6
C	-0.432537	-0.280104	0.403854	6
C	1.048422	-0.294444	0.699794	6
N	1.825862	-1.073144	-0.256066	7
C	1.678373	1.072296	0.787504	6
C	1.123133	2.268886	0.542594	6
H	-2.799987	-0.305904	-1.797736	1
H	-3.049377	-0.131804	-0.052146	1
H	-3.001807	-1.748414	-0.783366	1
H	-0.546737	-1.349274	-1.421416	1
H	-1.023397	0.229696	1.165164	1
H	1.170093	-0.767654	1.682424	1
H	1.699743	-0.659354	-1.177376	1
H	1.436523	-2.011754	-0.299756	1
H	2.724263	1.061066	1.094814	1
H	0.092013	2.378846	0.224854	1
H	1.708313	3.177376	0.649174	1
Es	-2.567375	-0.744320	-0.821759	99
Es	1.121286	-0.608027	1.362900	99
Es	-2.850011	-1.423583	-0.793760	99
Es	-0.724945	-1.187718	-1.169961	99
Es	2.383078	1.058676	1.008417	99
Es	1.048455	-0.294462	0.699685	99
Es	-2.718737	-0.448903	-1.486985	99
Es	0.297036	-0.283814	0.533404	99
Es	1.123091	2.268973	0.542581	99
Es	1.700261	-0.827939	-0.801664	99
Es	-2.886230	-0.328708	-0.294733	99
Es	1.286986	1.693611	0.960344	99
Es	-1.085548	-0.822047	-0.640637	99
Es	-0.708548	-0.266528	-0.295217	99
Es	1.513518	2.886416	0.628612	99
Es	-0.432471	-0.280060	0.403938	99
Es	-0.787904	-0.842217	0.055673	99
Es	-1.826124	-0.776977	-0.729680	99
Es	1.587247	-1.644581	-0.274935	99
Es	1.488068	1.659505	0.356030	99
Es	1.339335	0.403005	0.726948	99
Es	1.825302	-1.073060	-0.256358	99
Es	1.501153	-0.728088	0.172557	99
Es	2.142781	-1.070649	-0.204837	99
Es	0.426722	2.346297	0.318245	99
Es	1.678387	1.072179	0.787525	99
Es	-0.829754	0.073251	0.916575	99
45
Properties=species:S:1:pos:R:3:Z:I:1 energy=-288.11421108781104 field_type=dipole dipole="0.000000 0.000000 0.000000" charge=0
C	-2.567417	-0.744314	-0.821756	6
C	-1.085477	-0.822004	-0.640556	6
C	-0.432537	-0.280104	0.403854	6
C	1.048422	-0.294444	0.699794	6
N	1.825862	-1.073144	-0.256066	7
C	1.678373	1.072296	0.787504	6
C	1.123133	2.268886	0.542594	6
H	-2.799987	-0.305904	-1.797736	1
H	-3.049377	-0.131804	-0.052146	1
H	-3.001807	-1.748414	-0.783366	1
H	-0.546737	-1.349274	-1.421416	1
H	-1.023397	0.229696	1.165164	1
H	1.170093	-0.767654	1.682424	1
H	1.699743	-0.659354	-1.177376	1
H	1.436523	-2.011754	-0.299756	1
H	2.724263	1.061066	1.094814	1
H	0.092013	2.378846	0.224854	1
H	1.708313	3.177376	0.649174	1
Es	1.699449	-0.827935	-0.801075	99
Es	1.587789	-1.644982	-0.274893	99
Es	2.383095	1.058766	1.008611	99
Es	0.296961	-0.283762	0.533404	99
Es	1.825333	-1.073019	-0.256409	99
Es	1.678387	1.072179	0.787524	99
Es	1.123091	2.268973	0.542578	99
Es	-2.567374	-0.744320	-0.821759	99
Es	-0.432474	-0.280057	0.403940	99
Es	-0.787214	-0.842031	0.055272	99
Es	1.339364	0.402931	0.726751	99
Es	1.488066	1.659476	0.356343	99
Es	0.426682	2.346274	0.318197	99
Es	2.142246	-1.070280	-0.204976	99
Es	-1.826108	-0.777244	-0.729734	99
Es	1.513550	2.886307	0.629105	99
Es	-2.849995	-1.423246	-0.793742	99
Es	-0.724910	-1.187735	-1.169803	99
Es	1.501278	-0.728261	0.172669	99
Es	-0.708541	-0.266579	-0.295209	99
Es	1.286936	1.693586	0.959663	99
Es	-2.886228	-0.328660	-0.294720	99
Es	1.121231	-0.607818	1.362819	99
Es	-2.718812	-0.449044	-1.487086	99
Es	-0.829652	0.073221	0.916397	99
Es	-1.085549	-0.822047	-0.640637	99
Es	1.048457	-0.294462	0.699680	99
