44
Properties=species:S:1:pos:R:3:Z:I:1 energy=-304.1340338822738 field_type=dipole dipole="0.000000 0.000000 0.000000" charge=0
C	-2.657602	0.087084	0.745267	6
C	-1.871812	0.082454	-0.338853	6
C	-0.775432	-0.922156	-0.583913	6
C	0.610617	-0.279406	-0.724393	6
N	1.054378	0.278384	0.540627	7
C	2.304748	0.766524	0.769907	6
N	3.373688	0.574324	0.088337	7
H	-3.443622	0.828344	0.859687	1
H	-2.546582	-0.648196	1.537137	1
H	-2.034682	0.833434	-1.111143	1
H	-1.011832	-1.456286	-1.511913	1
H	-0.753682	-1.670956	0.217477	1
H	0.593787	0.506104	-1.488683	1
H	1.313127	-1.053286	-1.054593	1
H	0.313698	0.722074	1.078567	1
H	2.352038	1.393304	1.677037	1
H	3.179168	-0.041746	-0.700553	1
Es	-2.583706	-0.409302	1.284287	99
Es	0.617272	0.560449	0.845045	99
Es	-0.775427	-0.922086	-0.583920	99
Es	-1.319431	-0.409643	-0.454418	99
Es	3.235673	0.201059	-0.389398	99
Es	2.886852	0.872643	0.184867	99
Es	-3.191125	0.586490	0.829439	99
Es	3.373203	0.574150	0.088263	99
Es	1.207850	0.085464	0.722457	99
Es	0.595394	0.258758	-1.249931	99
Es	-0.760463	-1.424165	-0.035883	99
Es	3.701287	0.702124	0.159639	99
Es	-0.935667	-1.273172	-1.214834	99
Es	1.092803	-0.804033	-0.945764	99
Es	-2.052587	0.287554	0.369885	99
Es	-0.090623	-0.583265	-0.643011	99
Es	-1.971100	0.589661	-0.868237	99
Es	-2.657653	0.087087	0.745351	99
Es	1.546999	0.568851	0.553532	99
Es	-2.473962	-0.109526	0.064183	99
Es	-1.871724	0.082438	-0.338943	99
Es	2.321794	1.191013	1.388666	99
Es	0.610632	-0.279356	-0.724215	99
Es	2.999563	0.415655	0.501559	99
Es	1.054527	0.278983	0.540338	99
Es	0.877289	0.059485	-0.008789	99
Es	2.304557	0.766485	0.769940	99
44
Properties=species:S:1:pos:R:3:Z:I:1 energy=-304.1340338822738 field_type=dipole dipole="0.000000 0.000000 0.000000" charge=0
C	-2.657602	0.087084	0.745267	6
C	-1.871812	0.082454	-0.338853	6
C	-0.775432	-0.922156	-0.583913	6
C	0.610617	-0.279406	-0.724393	6
N	1.054378	0.278384	0.540627	7
C	2.304748	0.766524	0.769907	6
N	3.373688	0.574324	0.088337	7
H	-3.443622	0.828344	0.859687	1
H	-2.546582	-0.648196	1.537137	1
H	-2.034682	0.833434	-1.111143	1
H	-1.011832	-1.456286	-1.511913	1
H	-0.753682	-1.670956	0.217477	1
H	0.593787	0.506104	-1.488683	1
H	1.313127	-1.053286	-1.054593	1
H	0.313698	0.722074	1.078567	1
H	2.352038	1.393304	1.677037	1
H	3.179168	-0.041746	-0.700553	1
Es	-0.935794	-1.273170	-1.213219	99
Es	1.054715	0.279100	0.540362	99
Es	-0.760394	-1.423870	-0.037292	99
Es	-2.475037	-0.110519	0.063768	99
Es	0.878447	0.061179	-0.009697	99
Es	3.237977	0.203583	-0.391612	99
Es	2.998815	0.412498	0.503582	99
Es	-2.583987	-0.408852	1.282723	99
Es	1.202194	0.104484	0.701163	99
Es	1.557032	0.562489	0.560957	99
Es	-2.051958	0.288561	0.370317	99
Es	1.094410	-0.803910	-0.946540	99
Es	-1.970348	0.589194	-0.866398	99
Es	2.304552	0.766479	0.769945	99
Es	-1.871719	0.082438	-0.338943	99
Es	-0.775427	-0.922088	-0.583923	99
Es	-2.657659	0.087088	0.745355	99
Es	0.611431	0.546657	0.860257	99
Es	-1.319119	-0.408620	-0.454176	99
Es	-0.090815	-0.583326	-0.643938	99
Es	3.373183	0.574152	0.088275	99
Es	2.887466	0.868483	0.184010	99
Es	-3.192745	0.585758	0.829635	99
Es	2.321861	1.190162	1.389119	99
Es	3.698853	0.707217	0.158588	99
Es	0.595662	0.257991	-1.247993	99
Es	0.610629	-0.279356	-0.724217	99
44
Properties=species:S:1:pos:R:3:Z:I:1 energy=-304.1340338822738 field_type=dipole dipole="0.000000 0.000000 0.000000" charge=0
C	-2.657602	0.087084	0.745267	6
C	-1.871812	0.082454	-0.338853	6
C	-0.775432	-0.922156	-0.583913	6
C	0.610617	-0.279406	-0.724393	6
N	1.054378	0.278384	0.540627	7
C	2.304748	0.766524	0.769907	6
N	3.373688	0.574324	0.088337	7
H	-3.443622	0.828344	0.859687	1
H	-2.546582	-0.648196	1.537137	1
H	-2.034682	0.833434	-1.111143	1
H	-1.011832	-1.456286	-1.511913	1
H	-0.753682	-1.670956	0.217477	1
H	0.593787	0.506104	-1.488683	1
H	1.313127	-1.053286	-1.054593	1
H	0.313698	0.722074	1.078567	1
H	2.352038	1.393304	1.677037	1
H	3.179168	-0.041746	-0.700553	1
Es	0.609531	0.537368	0.868810	99
Es	-2.583951	-0.408504	1.281752	99
Es	2.304552	0.766479	0.769944	99
Es	1.095782	-0.803831	-0.947337	99
Es	-0.760051	-1.423862	-0.038372	99
Es	3.241430	0.204664	-0.393667	99
Es	2.889288	0.866378	0.182068	99
Es	-1.970195	0.588950	-0.865172	99
Es	3.694894	0.709761	0.158720	99
Es	2.321771	1.189655	1.389485	99
Es	-0.090798	-0.583396	-0.644711	99
Es	-1.319215	-0.408072	-0.454015	99
Es	1.566264	0.554326	0.568160	99
Es	-2.475307	-0.110813	0.063755	99
Es	0.595429	0.257625	-1.246403	99
Es	3.373182	0.574155	0.088275	99
Es	0.610632	-0.279357	-0.724213	99
Es	1.054577	0.279076	0.540308	99
Es	-2.657662	0.087083	0.745354	99
Es	-0.935897	-1.272873	-1.211779	99
Es	-1.871720	0.082440	-0.338945	99
Es	-3.193705	0.585561	0.829866	99
Es	0.879466	0.063698	-0.010689	99
Es	-2.051828	0.288652	0.370406	99
Es	2.997132	0.411064	0.505961	99
Es	-0.775427	-0.922087	-0.583922	99
Es	1.194057	0.119663	0.686469	99
44
Properties=species:S:1:pos:R:3:Z:I:1 energy=-304.1340338822738 field_type=dipole dipole="0.000000 0.000000 0.000000" charge=0
C	-2.657602	0.087084	0.745267	6
C	-1.871812	0.082454	-0.338853	6
C	-0.775432	-0.922156	-0.583913	6
C	0.610617	-0.279406	-0.724393	6
N	1.054378	0.278384	0.540627	7
C	2.304748	0.766524	0.769907	6
N	3.373688	0.574324	0.088337	7
H	-3.443622	0.828344	0.859687	1
H	-2.546582	-0.648196	1.537137	1
H	-2.034682	0.833434	-1.111143	1
H	-1.011832	-1.456286	-1.511913	1
H	-0.753682	-1.670956	0.217477	1
H	0.593787	0.506104	-1.488683	1
H	1.313127	-1.053286	-1.054593	1
H	0.313698	0.722074	1.078567	1
H	2.352038	1.393304	1.677037	1
H	3.179168	-0.041746	-0.700553	1
Es	2.891190	0.864675	0.180941	99
Es	-3.194549	0.585405	0.830684	99
Es	3.245531	0.205979	-0.396357	99
Es	1.054491	0.278996	0.540311	99
Es	-1.319318	-0.407659	-0.454401	99
Es	-2.657668	0.087084	0.745351	99
Es	-2.051756	0.288563	0.370465	99
Es	2.304551	0.766481	0.769943	99
Es	0.610631	-0.279356	-0.724215	99
Es	3.373178	0.574150	0.088269	99
Es	0.880320	0.066239	-0.011690	99
Es	1.188550	0.130237	0.676991	99
Es	3.690344	0.711140	0.160045	99
Es	-2.583625	-0.408398	1.280502	99
Es	-0.090820	-0.583148	-0.645465	99
Es	-1.970252	0.588730	-0.863955	99
Es	-0.775427	-0.922087	-0.583922	99
Es	-1.871718	0.082437	-0.338945	99
Es	0.595237	0.257168	-1.244872	99
Es	2.321682	1.189256	1.389791	99
Es	-2.475520	-0.110808	0.063708	99
Es	-0.759790	-1.423881	-0.039107	99
Es	0.608958	0.530322	0.874301	99
Es	2.995298	0.410032	0.507286	99
Es	1.571833	0.548488	0.572828	99
Es	1.096892	-0.803739	-0.948143	99
Es	-0.936016	-1.272504	-1.210235	99
44
Properties=species:S:1:pos:R:3:Z:I:1 energy=-304.1340338822738 field_type=dipole dipole="0.000000 0.000000 0.000000" charge=0
C	-2.657602	0.087084	0.745267	6
C	-1.871812	0.082454	-0.338853	6
C	-0.775432	-0.922156	-0.583913	6
C	0.610617	-0.279406	-0.724393	6
N	1.054378	0.278384	0.540627	7
C	2.304748	0.766524	0.769907	6
N	3.373688	0.574324	0.088337	7
H	-3.443622	0.828344	0.859687	1
H	-2.546582	-0.648196	1.537137	1
H	-2.034682	0.833434	-1.111143	1
H	-1.011832	-1.456286	-1.511913	1
H	-0.753682	-1.670956	0.217477	1
H	0.593787	0.506104	-1.488683	1
H	1.313127	-1.053286	-1.054593	1
H	0.313698	0.722074	1.078567	1
H	2.352038	1.393304	1.677037	1
H	3.179168	-0.041746	-0.700553	1
Es	3.373168	0.574145	0.088281	99
Es	-2.583409	-0.408075	1.279596	99
Es	-0.090531	-0.583392	-0.646429	99
Es	-2.657661	0.087087	0.745357	99
Es	-3.195244	0.585173	0.831176	99
Es	-2.475675	-0.110901	0.063649	99
Es	0.610630	-0.279356	-0.724216	99
Es	2.304552	0.766476	0.769945	99
Es	2.321571	1.189018	1.390006	99
Es	-0.775427	-0.922089	-0.583922	99
Es	1.184011	0.138237	0.669638	99
Es	1.097924	-0.803387	-0.948825	99
Es	-2.051716	0.288611	0.370524	99
Es	-1.319454	-0.407379	-0.454296	99
Es	-1.871714	0.082439	-0.338943	99
Es	3.684454	0.712245	0.161457	99
Es	0.608869	0.524278	0.878372	99
Es	1.575941	0.543679	0.576580	99
Es	1.054443	0.278891	0.540343	99
Es	3.251012	0.206922	-0.398839	99
Es	-0.936358	-1.272050	-1.208606	99
Es	0.594873	0.256789	-1.243610	99
Es	2.993482	0.409692	0.508855	99
Es	0.881025	0.069292	-0.012621	99
Es	-1.970209	0.588442	-0.862989	99
Es	-0.759429	-1.423846	-0.039941	99
Es	2.893100	0.862860	0.179564	99
44
Properties=species:S:1:pos:R:3:Z:I:1 energy=-304.1340338822738 field_type=dipole dipole="0.000000 0.000000 0.000000" charge=0
C	-2.657602	0.087084	0.745267	6
C	-1.871812	0.082454	-0.338853	6
C	-0.775432	-0.922156	-0.583913	6
C	0.610617	-0.279406	-0.724393	6
N	1.054378	0.278384	0.540627	7
C	2.304748	0.766524	0.769907	6
N	3.373688	0.574324	0.088337	7
H	-3.443622	0.828344	0.859687	1
H	-2.546582	-0.648196	1.537137	1
H	-2.034682	0.833434	-1.111143	1
H	-1.011832	-1.456286	-1.511913	1
H	-0.753682	-1.670956	0.217477	1
H	0.593787	0.506104	-1.488683	1
H	1.313127	-1.053286	-1.054593	1
H	0.313698	0.722074	1.078567	1
H	2.352038	1.393304	1.677037	1
H	3.179168	-0.041746	-0.700553	1
Es	-2.583266	-0.407940	1.278918	99
Es	3.373168	0.574148	0.088271	99
Es	0.594459	0.256292	-1.242203	99
Es	2.990074	0.410820	0.509926	99
Es	-2.475911	-0.110916	0.063611	99
Es	0.610631	-0.279357	-0.724215	99
Es	-0.090310	-0.583511	-0.647109	99
Es	2.896177	0.860705	0.178039	99
Es	-1.319424	-0.406980	-0.454667	99
Es	-0.775429	-0.922088	-0.583923	99
Es	2.304552	0.766475	0.769946	99
Es	-2.051646	0.288583	0.370480	99
Es	1.181286	0.143851	0.664769	99
Es	0.609110	0.520124	0.881053	99
Es	3.257136	0.207845	-0.401050	99
Es	-2.657664	0.087084	0.745354	99
Es	-3.195639	0.585008	0.831643	99
Es	3.678398	0.712360	0.163449	99
Es	-1.970347	0.588096	-0.861908	99
Es	2.321480	1.188694	1.390290	99
Es	-0.936623	-1.271603	-1.207029	99
Es	0.881507	0.071498	-0.013494	99
Es	1.054426	0.278106	0.540742	99
Es	-0.759246	-1.423765	-0.040579	99
Es	1.578237	0.540756	0.578498	99
Es	1.098808	-0.802923	-0.949759	99
Es	-1.871718	0.082437	-0.338944	99
44
Properties=species:S:1:pos:R:3:Z:I:1 energy=-304.1340338822738 field_type=dipole dipole="0.000000 0.000000 0.000000" charge=0
C	-2.657602	0.087084	0.745267	6
C	-1.871812	0.082454	-0.338853	6
C	-0.775432	-0.922156	-0.583913	6
C	0.610617	-0.279406	-0.724393	6
N	1.054378	0.278384	0.540627	7
C	2.304748	0.766524	0.769907	6
N	3.373688	0.574324	0.088337	7
H	-3.443622	0.828344	0.859687	1
H	-2.546582	-0.648196	1.537137	1
H	-2.034682	0.833434	-1.111143	1
H	-1.011832	-1.456286	-1.511913	1
H	-0.753682	-1.670956	0.217477	1
H	0.593787	0.506104	-1.488683	1
H	1.313127	-1.053286	-1.054593	1
H	0.313698	0.722074	1.078567	1
H	2.352038	1.393304	1.677037	1
H	3.179168	-0.041746	-0.700553	1
Es	-2.475940	-0.110938	0.063618	99
Es	0.610629	-0.279357	-0.724220	99
Es	-1.319526	-0.406779	-0.454621	99
Es	1.054674	0.279215	0.540275	99
Es	2.321375	1.188502	1.390429	99
Es	-0.090108	-0.583680	-0.647694	99
Es	2.304552	0.766475	0.769946	99
Es	0.881940	0.072795	-0.014235	99
Es	1.581148	0.537125	0.581045	99
Es	-1.871716	0.082440	-0.338943	99
Es	2.985625	0.413090	0.510912	99
Es	-3.196161	0.584651	0.832097	99
Es	-2.657662	0.087087	0.745355	99
Es	-0.936913	-1.271203	-1.205626	99
Es	1.177798	0.147963	0.660999	99
Es	-2.051642	0.288694	0.370494	99
Es	2.900328	0.857938	0.176597	99
Es	0.594209	0.255907	-1.241204	99
Es	3.373169	0.574146	0.088264	99
Es	-1.970387	0.587886	-0.861227	99
Es	3.264271	0.209238	-0.403094	99
Es	-0.775427	-0.922086	-0.583922	99
Es	0.609231	0.517026	0.882750	99
Es	-0.759032	-1.423600	-0.041224	99
Es	-2.583016	-0.407779	1.278227	99
Es	3.671375	0.711546	0.165478	99
Es	1.099434	-0.802498	-0.950369	99
44
Properties=species:S:1:pos:R:3:Z:I:1 energy=-304.1340338822738 field_type=dipole dipole="0.000000 0.000000 0.000000" charge=0
C	-2.657602	0.087084	0.745267	6
C	-1.871812	0.082454	-0.338853	6
C	-0.775432	-0.922156	-0.583913	6
C	0.610617	-0.279406	-0.724393	6
N	1.054378	0.278384	0.540627	7
C	2.304748	0.766524	0.769907	6
N	3.373688	0.574324	0.088337	7
H	-3.443622	0.828344	0.859687	1
H	-2.546582	-0.648196	1.537137	1
H	-2.034682	0.833434	-1.111143	1
H	-1.011832	-1.456286	-1.511913	1
H	-0.753682	-1.670956	0.217477	1
H	0.593787	0.506104	-1.488683	1
H	1.313127	-1.053286	-1.054593	1
H	0.313698	0.722074	1.078567	1
H	2.352038	1.393304	1.677037	1
H	3.179168	-0.041746	-0.700553	1
Es	2.985436	0.412803	0.511398	99
Es	-3.196506	0.584399	0.832742	99
Es	1.054375	0.278618	0.540453	99
Es	3.373151	0.574149	0.088278	99
Es	-2.657665	0.087081	0.745353	99
Es	-1.871715	0.082440	-0.338942	99
Es	0.609628	0.514085	0.884510	99
Es	1.582647	0.535249	0.582024	99
Es	2.900898	0.855989	0.176844	99
Es	0.882020	0.074611	-0.014423	99
Es	-0.089966	-0.583783	-0.648637	99
Es	-0.775427	-0.922087	-0.583922	99
Es	-0.937182	-1.270764	-1.204307	99
Es	-1.970530	0.587616	-0.860352	99
Es	-2.476112	-0.110997	0.063568	99
Es	-1.319530	-0.406565	-0.454808	99
Es	3.664654	0.711771	0.166050	99
Es	0.594023	0.255358	-1.240149	99
Es	3.270482	0.211213	-0.404781	99
Es	1.176179	0.151531	0.657881	99
Es	-2.582857	-0.407562	1.277431	99
Es	2.321388	1.188364	1.390540	99
Es	-0.758808	-1.423458	-0.041844	99
Es	0.610627	-0.279358	-0.724222	99
Es	2.304552	0.766474	0.769946	99
Es	1.099980	-0.802004	-0.951054	99
Es	-2.051514	0.288629	0.370531	99
44
Properties=species:S:1:pos:R:3:Z:I:1 energy=-304.1340338822738 field_type=dipole dipole="0.000000 0.000000 0.000000" charge=0
C	-2.657602	0.087084	0.745267	6
C	-1.871812	0.082454	-0.338853	6
C	-0.775432	-0.922156	-0.583913	6
C	0.610617	-0.279406	-0.724393	6
N	1.054378	0.278384	0.540627	7
C	2.304748	0.766524	0.769907	6
N	3.373688	0.574324	0.088337	7
H	-3.443622	0.828344	0.859687	1
H	-2.546582	-0.648196	1.537137	1
H	-2.034682	0.833434	-1.111143	1
H	-1.011832	-1.456286	-1.511913	1
H	-0.753682	-1.670956	0.217477	1
H	0.593787	0.506104	-1.488683	1
H	1.313127	-1.053286	-1.054593	1
H	0.313698	0.722074	1.078567	1
H	2.352038	1.393304	1.677037	1
H	3.179168	-0.041746	-0.700553	1
Es	-0.775427	-0.922087	-0.583922	99
Es	0.610630	-0.279356	-0.724217	99
Es	3.276999	0.213007	-0.405741	99
Es	1.100365	-0.801602	-0.951632	99
Es	2.903833	0.853614	0.176196	99
Es	-2.657665	0.087084	0.745353	99
Es	1.054592	0.279119	0.540273	99
Es	-2.051340	0.288748	0.370637	99
Es	-1.970517	0.587459	-0.860079	99
Es	0.882290	0.074947	-0.014989	99
Es	-2.582869	-0.407451	1.277040	99
Es	1.585374	0.531701	0.584417	99
Es	-0.758734	-1.423388	-0.042133	99
Es	-0.089808	-0.583965	-0.649256	99
Es	2.982222	0.414796	0.511691	99
Es	-1.319600	-0.406491	-0.454760	99
Es	-0.937436	-1.270309	-1.203024	99
Es	2.321253	1.188232	1.390706	99
Es	-3.196698	0.584208	0.832963	99
Es	-2.476210	-0.111057	0.063543	99
Es	2.304552	0.766470	0.769947	99
Es	0.593834	0.254960	-1.239357	99
Es	0.609825	0.511681	0.885680	99
Es	1.173027	0.156461	0.654341	99
Es	3.658280	0.710438	0.167109	99
Es	3.373169	0.574144	0.088265	99
Es	-1.871714	0.082438	-0.338943	99
44
Properties=species:S:1:pos:R:3:Z:I:1 energy=-304.1340338822738 field_type=dipole dipole="0.000000 0.000000 0.000000" charge=0
C	-2.657602	0.087084	0.745267	6
C	-1.871812	0.082454	-0.338853	6
C	-0.775432	-0.922156	-0.583913	6
C	0.610617	-0.279406	-0.724393	6
N	1.054378	0.278384	0.540627	7
C	2.304748	0.766524	0.769907	6
N	3.373688	0.574324	0.088337	7
H	-3.443622	0.828344	0.859687	1
H	-2.546582	-0.648196	1.537137	1
H	-2.034682	0.833434	-1.111143	1
H	-1.011832	-1.456286	-1.511913	1
H	-0.753682	-1.670956	0.217477	1
H	0.593787	0.506104	-1.488683	1
H	1.313127	-1.053286	-1.054593	1
H	0.313698	0.722074	1.078567	1
H	2.352038	1.393304	1.677037	1
H	3.179168	-0.041746	-0.700553	1
Es	3.373198	0.574158	0.088258	99
Es	-1.871714	0.082438	-0.338943	99
Es	-2.051339	0.288751	0.370695	99
Es	0.882274	0.075430	-0.015110	99
Es	-3.196853	0.584109	0.833224	99
Es	2.903592	0.852931	0.176355	99
Es	0.610265	0.508975	0.887160	99
Es	-2.582767	-0.407311	1.276732	99
Es	2.304551	0.766473	0.769946	99
Es	-0.089684	-0.584196	-0.650240	99
Es	-0.758616	-1.423238	-0.042406	99
Es	-1.319455	-0.406167	-0.455098	99
Es	-2.657664	0.087083	0.745354	99
Es	-1.970624	0.587145	-0.859332	99
Es	0.593654	0.254458	-1.238408	99
Es	3.281157	0.214535	-0.406285	99
Es	2.321138	1.188141	1.390877	99
Es	-2.476313	-0.111190	0.063426	99
Es	-0.937709	-1.269931	-1.201862	99
Es	1.171443	0.159852	0.651968	99
Es	1.100803	-0.801098	-0.952309	99
Es	3.653921	0.710079	0.167213	99
Es	-0.775427	-0.922086	-0.583921	99
Es	0.610628	-0.279352	-0.724220	99
Es	2.982515	0.414300	0.511719	99
Es	1.586487	0.530291	0.585006	99
Es	1.054763	0.279225	0.540307	99
44
Properties=species:S:1:pos:R:3:Z:I:1 energy=-304.1340338822738 field_type=dipole dipole="0.000000 0.000000 0.000000" charge=0
C	-2.657602	0.087084	0.745267	6
C	-1.871812	0.082454	-0.338853	6
C	-0.775432	-0.922156	-0.583913	6
C	0.610617	-0.279406	-0.724393	6
N	1.054378	0.278384	0.540627	7
C	2.304748	0.766524	0.769907	6
N	3.373688	0.574324	0.088337	7
H	-3.443622	0.828344	0.859687	1
H	-2.546582	-0.648196	1.537137	1
H	-2.034682	0.833434	-1.111143	1
H	-1.011832	-1.456286	-1.511913	1
H	-0.753682	-1.670956	0.217477	1
H	0.593787	0.506104	-1.488683	1
H	1.313127	-1.053286	-1.054593	1
H	0.313698	0.722074	1.078567	1
H	2.352038	1.393304	1.677037	1
H	3.179168	-0.041746	-0.700553	1
Es	-0.758547	-1.423094	-0.042960	99
Es	1.170756	0.161881	0.650540	99
Es	0.610367	0.507751	0.887667	99
Es	-1.871714	0.082440	-0.338941	99
Es	-0.089499	-0.584416	-0.650555	99
Es	1.587161	0.529068	0.586078	99
Es	1.101083	-0.800711	-0.952691	99
Es	2.321153	1.187969	1.390972	99
Es	-3.197096	0.583905	0.833621	99
Es	1.054425	0.278814	0.540377	99
Es	-1.319677	-0.406275	-0.454962	99
Es	-0.937671	-1.269621	-1.201077	99
Es	2.980209	0.416006	0.511859	99
Es	-2.582769	-0.407222	1.276123	99
Es	-1.970634	0.586995	-0.859040	99
Es	-2.657665	0.087085	0.745353	99
Es	0.882529	0.076167	-0.015626	99
Es	-2.051216	0.288785	0.370802	99
Es	-0.775427	-0.922087	-0.583922	99
Es	3.373150	0.574144	0.088270	99
Es	3.285988	0.216428	-0.406858	99
Es	0.610630	-0.279355	-0.724217	99
Es	2.905950	0.850409	0.176360	99
Es	0.593492	0.254239	-1.237887	99
Es	3.649015	0.709133	0.167450	99
Es	-2.476316	-0.111108	0.063426	99
Es	2.304552	0.766472	0.769947	99
44
Properties=species:S:1:pos:R:3:Z:I:1 energy=-304.1340338822738 field_type=dipole dipole="0.000000 0.000000 0.000000" charge=0
C	-2.657602	0.087084	0.745267	6
C	-1.871812	0.082454	-0.338853	6
C	-0.775432	-0.922156	-0.583913	6
C	0.610617	-0.279406	-0.724393	6
N	1.054378	0.278384	0.540627	7
C	2.304748	0.766524	0.769907	6
N	3.373688	0.574324	0.088337	7
H	-3.443622	0.828344	0.859687	1
H	-2.546582	-0.648196	1.537137	1
H	-2.034682	0.833434	-1.111143	1
H	-1.011832	-1.456286	-1.511913	1
H	-0.753682	-1.670956	0.217477	1
H	0.593787	0.506104	-1.488683	1
H	1.313127	-1.053286	-1.054593	1
H	0.313698	0.722074	1.078567	1
H	2.352038	1.393304	1.677037	1
H	3.179168	-0.041746	-0.700553	1
Es	2.304552	0.766472	0.769947	99
Es	-1.970648	0.586834	-0.858778	99
Es	-0.089456	-0.584610	-0.651358	99
Es	-0.775427	-0.922086	-0.583921	99
Es	-2.051171	0.288974	0.370754	99
Es	1.101265	-0.800450	-0.953027	99
Es	1.169937	0.163231	0.649456	99
Es	-2.476485	-0.111357	0.063378	99
Es	0.610629	-0.279352	-0.724218	99
Es	3.645014	0.707719	0.167627	99
Es	2.321163	1.187956	1.390999	99
Es	-3.197259	0.583626	0.833829	99
Es	3.290078	0.217902	-0.406950	99
Es	1.054446	0.278885	0.540329	99
Es	-2.582552	-0.406940	1.275971	99
Es	1.587712	0.528188	0.586653	99
Es	0.882690	0.076710	-0.015815	99
Es	0.610506	0.506539	0.888223	99
Es	-2.657666	0.087082	0.745351	99
Es	2.977741	0.417904	0.511875	99
Es	-0.937865	-1.269373	-1.200152	99
Es	0.593483	0.253895	-1.237360	99
Es	3.373138	0.574137	0.088265	99
Es	2.908274	0.848495	0.176123	99
Es	-1.871715	0.082439	-0.338942	99
Es	-1.319670	-0.406143	-0.454968	99
Es	-0.758488	-1.422874	-0.043183	99
44
Properties=species:S:1:pos:R:3:Z:I:1 energy=-304.1340338822738 field_type=dipole dipole="0.000000 0.000000 0.000000" charge=0
C	-2.657602	0.087084	0.745267	6
C	-1.871812	0.082454	-0.338853	6
C	-0.775432	-0.922156	-0.583913	6
C	0.610617	-0.279406	-0.724393	6
N	1.054378	0.278384	0.540627	7
C	2.304748	0.766524	0.769907	6
N	3.373688	0.574324	0.088337	7
H	-3.443622	0.828344	0.859687	1
H	-2.546582	-0.648196	1.537137	1
H	-2.034682	0.833434	-1.111143	1
H	-1.011832	-1.456286	-1.511913	1
H	-0.753682	-1.670956	0.217477	1
H	0.593787	0.506104	-1.488683	1
H	1.313127	-1.053286	-1.054593	1
H	0.313698	0.722074	1.078567	1
H	2.352038	1.393304	1.677037	1
H	3.179168	-0.041746	-0.700553	1
Es	-1.970674	0.586683	-0.858445	99
Es	0.593299	0.253486	-1.236729	99
Es	3.294406	0.219679	-0.406950	99
Es	-2.051165	0.289120	0.370823	99
Es	-1.319670	-0.406012	-0.455032	99
Es	-3.197425	0.583393	0.834041	99
Es	1.588417	0.527482	0.586866	99
Es	-1.871718	0.082440	-0.338943	99
Es	2.976675	0.418569	0.511813	99
Es	-0.758419	-1.422690	-0.043422	99
Es	0.882507	0.076472	-0.015743	99
Es	2.909261	0.847211	0.176165	99
Es	0.610630	-0.279355	-0.724217	99
Es	-2.657664	0.087084	0.745354	99
Es	3.640735	0.706606	0.167537	99
Es	2.321162	1.187807	1.391127	99
Es	1.101532	-0.800010	-0.953564	99
Es	-2.476483	-0.111312	0.063320	99
Es	1.054452	0.278928	0.540297	99
Es	0.610805	0.505077	0.888954	99
Es	-0.937900	-1.269301	-1.199746	99
Es	3.373129	0.574143	0.088277	99
Es	2.304553	0.766472	0.769948	99
Es	-0.775426	-0.922085	-0.583921	99
Es	-0.089436	-0.584739	-0.651564	99
Es	-2.582488	-0.406965	1.275674	99
Es	1.169133	0.165620	0.648187	99
44
Properties=species:S:1:pos:R:3:Z:I:1 energy=-304.1340338822738 field_type=dipole dipole="0.000000 0.000000 0.000000" charge=0
C	-2.657602	0.087084	0.745267	6
C	-1.871812	0.082454	-0.338853	6
C	-0.775432	-0.922156	-0.583913	6
C	0.610617	-0.279406	-0.724393	6
N	1.054378	0.278384	0.540627	7
C	2.304748	0.766524	0.769907	6
N	3.373688	0.574324	0.088337	7
H	-3.443622	0.828344	0.859687	1
H	-2.546582	-0.648196	1.537137	1
H	-2.034682	0.833434	-1.111143	1
H	-1.011832	-1.456286	-1.511913	1
H	-0.753682	-1.670956	0.217477	1
H	0.593787	0.506104	-1.488683	1
H	1.313127	-1.053286	-1.054593	1
H	0.313698	0.722074	1.078567	1
H	2.352038	1.393304	1.677037	1
H	3.179168	-0.041746	-0.700553	1
Es	-1.319612	-0.405869	-0.455384	99
Es	-1.970714	0.586440	-0.857969	99
Es	-2.582471	-0.406760	1.275361	99
Es	-2.657662	0.087086	0.745355	99
Es	-0.758346	-1.422768	-0.043449	99
Es	-0.775427	-0.922086	-0.583922	99
Es	2.321119	1.187738	1.391166	99
Es	3.373156	0.574147	0.088271	99
Es	3.297209	0.221035	-0.407104	99
Es	-2.050997	0.289154	0.370898	99
Es	1.589089	0.526348	0.587584	99
Es	1.168348	0.166157	0.647412	99
Es	0.610630	-0.279356	-0.724217	99
Es	-3.197533	0.583253	0.834278	99
Es	3.637713	0.705927	0.167354	99
Es	-2.476637	-0.111447	0.063266	99
Es	1.101653	-0.799765	-0.953887	99
Es	2.304552	0.766471	0.769947	99
Es	0.610853	0.504871	0.889081	99
Es	0.882648	0.077097	-0.016060	99
Es	0.593199	0.253265	-1.236375	99
Es	-0.937943	-1.269032	-1.199269	99
Es	2.975286	0.419837	0.511851	99
Es	-1.871713	0.082438	-0.338944	99
Es	1.054485	0.278978	0.540285	99
Es	2.910797	0.845362	0.176384	99
Es	-0.089456	-0.584718	-0.651808	99
