38
Properties=species:S:1:pos:R:3:Z:I:1 energy=-301.82379229515425 field_type=dipole dipole="0.000000 0.000000 0.000000" charge=0
C	-1.525852	0.121405	0.536402	6
C	0.002328	0.129695	0.449422	6
C	0.462298	-0.610985	-0.812278	6
C	1.899107	-0.915165	-0.764328	6
N	3.028068	-1.173295	-0.712018	7
C	0.484348	1.490865	0.449422	6
N	0.868558	2.575855	0.449422	7
H	-1.870852	0.642475	1.436942	1
H	-1.908522	-0.904095	0.577342	1
H	-1.980502	0.618635	-0.328478	1
H	0.387658	-0.389685	1.336712	1
H	0.236917	-0.027265	-1.713898	1
H	-0.083552	-1.558445	-0.904668	1
Es	2.578317	-0.754105	-0.713682	99
Es	0.261548	0.846219	0.444752	99
Es	0.115402	-1.241334	-0.862244	99
Es	0.002369	0.129812	0.449342	99
Es	2.488974	-1.191638	-1.012686	99
Es	0.868403	2.575430	0.449420	99
Es	0.989447	2.922988	0.448947	99
Es	3.384235	-1.255355	-0.695374	99
Es	0.261294	-0.226723	-0.186303	99
Es	0.328916	-0.222739	-1.402604	99
Es	0.594907	2.109992	0.740871	99
Es	-1.747032	0.472002	1.143158	99
Es	-1.820738	0.455242	-0.053947	99
Es	-1.525769	0.121404	0.536391	99
Es	2.462247	-1.220318	-0.477027	99
Es	0.976930	1.979175	0.388504	99
Es	1.898734	-0.915079	-0.764354	99
Es	0.484243	1.490513	0.449402	99
Es	3.027628	-1.173196	-0.712037	99
Es	-1.769484	-0.577705	0.560582	99
Es	1.223850	-0.764364	-0.786650	99
Es	-0.736993	0.143921	0.481021	99
Es	0.498567	2.145587	0.213129	99
Es	0.462462	-0.610990	-0.812215	99
Es	0.268460	-0.200023	1.033882	99
38
Properties=species:S:1:pos:R:3:Z:I:1 energy=-301.82379229515425 field_type=dipole dipole="0.000000 0.000000 0.000000" charge=0
C	-1.525852	0.121405	0.536402	6
C	0.002328	0.129695	0.449422	6
C	0.462298	-0.610985	-0.812278	6
C	1.899107	-0.915165	-0.764328	6
N	3.028068	-1.173295	-0.712018	7
C	0.484348	1.490865	0.449422	6
N	0.868558	2.575855	0.449422	7
H	-1.870852	0.642475	1.436942	1
H	-1.908522	-0.904095	0.577342	1
H	-1.980502	0.618635	-0.328478	1
H	0.387658	-0.389685	1.336712	1
H	0.236917	-0.027265	-1.713898	1
H	-0.083552	-1.558445	-0.904668	1
Es	0.868398	2.575415	0.449418	99
Es	-1.771473	-0.578982	0.560982	99
Es	1.225020	-0.763975	-0.787444	99
Es	-0.737341	0.143602	0.481330	99
Es	0.329039	-0.222953	-1.399937	99
Es	0.261911	0.847209	0.444864	99
Es	0.462462	-0.610990	-0.812215	99
Es	0.580830	2.115120	0.722194	99
Es	0.989705	2.924952	0.450090	99
Es	-1.746696	0.471731	1.140530	99
Es	0.268512	-0.199878	1.031627	99
Es	3.027620	-1.173195	-0.712036	99
Es	0.113037	-1.242370	-0.862484	99
Es	0.484211	1.490504	0.449431	99
Es	0.002369	0.129814	0.449340	99
Es	1.898723	-0.915081	-0.764352	99
Es	0.984044	1.975516	0.410911	99
Es	-1.820563	0.455661	-0.051937	99
Es	-1.525768	0.121401	0.536392	99
Es	2.509866	-1.107938	-1.025503	99
Es	2.568294	-0.765512	-0.630991	99
Es	2.449761	-1.292556	-0.545084	99
Es	0.261754	-0.226328	-0.186417	99
Es	0.506661	2.142186	0.208062	99
Es	3.386540	-1.254637	-0.696494	99
38
Properties=species:S:1:pos:R:3:Z:I:1 energy=-301.82379229515425 field_type=dipole dipole="0.000000 0.000000 0.000000" charge=0
C	-1.525852	0.121405	0.536402	6
C	0.002328	0.129695	0.449422	6
C	0.462298	-0.610985	-0.812278	6
C	1.899107	-0.915165	-0.764328	6
N	3.028068	-1.173295	-0.712018	7
C	0.484348	1.490865	0.449422	6
N	0.868558	2.575855	0.449422	7
H	-1.870852	0.642475	1.436942	1
H	-1.908522	-0.904095	0.577342	1
H	-1.980502	0.618635	-0.328478	1
H	0.387658	-0.389685	1.336712	1
H	0.236917	-0.027265	-1.713898	1
H	-0.083552	-1.558445	-0.904668	1
Es	-0.737572	0.143505	0.481158	99
Es	0.329243	-0.223201	-1.398804	99
Es	0.868404	2.575431	0.449419	99
Es	2.439320	-1.358695	-0.676098	99
Es	0.268271	-0.199825	1.030521	99
Es	-1.525766	0.121400	0.536392	99
Es	0.111818	-1.242874	-0.862299	99
Es	0.991265	2.925251	0.451159	99
Es	3.388084	-1.251249	-0.696038	99
Es	0.262138	-0.225980	-0.186528	99
Es	0.462460	-0.610992	-0.812217	99
Es	0.627092	2.099767	0.724495	99
Es	2.543496	-0.969657	-1.006448	99
Es	2.543630	-0.841969	-0.519435	99
Es	1.225642	-0.762422	-0.787317	99
Es	1.898728	-0.915070	-0.764352	99
Es	-1.820482	0.456085	-0.050764	99
Es	3.027629	-1.173197	-0.712036	99
Es	0.977311	1.976200	0.368944	99
Es	0.484216	1.490501	0.449425	99
Es	-1.772594	-0.579657	0.561147	99
Es	0.002369	0.129813	0.449341	99
Es	0.465694	2.156708	0.245940	99
Es	-1.746264	0.471346	1.139092	99
Es	0.262784	0.847498	0.445578	99
38
Properties=species:S:1:pos:R:3:Z:I:1 energy=-301.82379229515425 field_type=dipole dipole="0.000000 0.000000 0.000000" charge=0
C	-1.525852	0.121405	0.536402	6
C	0.002328	0.129695	0.449422	6
C	0.462298	-0.610985	-0.812278	6
C	1.899107	-0.915165	-0.764328	6
N	3.028068	-1.173295	-0.712018	7
C	0.484348	1.490865	0.449422	6
N	0.868558	2.575855	0.449422	7
H	-1.870852	0.642475	1.436942	1
H	-1.908522	-0.904095	0.577342	1
H	-1.980502	0.618635	-0.328478	1
H	0.387658	-0.389685	1.336712	1
H	0.236917	-0.027265	-1.713898	1
H	-0.083552	-1.558445	-0.904668	1
Es	3.027624	-1.173196	-0.712037	99
Es	0.484216	1.490510	0.449421	99
Es	-1.820329	0.456326	-0.049963	99
Es	0.973656	1.978712	0.545764	99
Es	2.459133	-1.238054	-0.501909	99
Es	-0.737721	0.143287	0.481519	99
Es	0.646269	2.093102	0.173498	99
Es	0.329392	-0.223182	-1.397620	99
Es	0.002370	0.129813	0.449341	99
Es	2.576511	-0.745223	-0.705794	99
Es	0.262359	-0.225959	-0.186496	99
Es	3.387287	-1.257359	-0.694057	99
Es	0.110773	-1.243075	-0.862545	99
Es	1.898723	-0.915086	-0.764350	99
Es	0.268278	-0.199647	1.029490	99
Es	2.492079	-1.178867	-0.995905	99
Es	-1.525766	0.121402	0.536392	99
Es	-1.773410	-0.580083	0.561258	99
Es	-1.746105	0.470971	1.137828	99
Es	0.263055	0.847789	0.443342	99
Es	0.868404	2.575432	0.449421	99
Es	0.451137	2.160059	0.625879	99
Es	0.990664	2.926089	0.447643	99
Es	0.462462	-0.610991	-0.812213	99
Es	1.225856	-0.764054	-0.787630	99
38
Properties=species:S:1:pos:R:3:Z:I:1 energy=-301.82379229515425 field_type=dipole dipole="0.000000 0.000000 0.000000" charge=0
C	-1.525852	0.121405	0.536402	6
C	0.002328	0.129695	0.449422	6
C	0.462298	-0.610985	-0.812278	6
C	1.899107	-0.915165	-0.764328	6
N	3.028068	-1.173295	-0.712018	7
C	0.484348	1.490865	0.449422	6
N	0.868558	2.575855	0.449422	7
H	-1.870852	0.642475	1.436942	1
H	-1.908522	-0.904095	0.577342	1
H	-1.980502	0.618635	-0.328478	1
H	0.387658	-0.389685	1.336712	1
H	0.236917	-0.027265	-1.713898	1
H	-0.083552	-1.558445	-0.904668	1
Es	0.268173	-0.199541	1.029231	99
Es	0.262241	-0.225817	-0.186394	99
Es	1.226068	-0.763702	-0.788389	99
Es	-1.820087	0.456235	-0.049642	99
Es	0.484213	1.490511	0.449411	99
Es	2.572187	-0.751085	-0.665586	99
Es	0.992355	2.925726	0.447947	99
Es	0.419937	2.170766	0.579492	99
Es	0.958932	1.983457	0.581519	99
Es	0.110465	-1.243199	-0.862834	99
Es	-1.746181	0.471092	1.137740	99
Es	1.898719	-0.915088	-0.764343	99
Es	3.027622	-1.173195	-0.712037	99
Es	3.387710	-1.256078	-0.695446	99
Es	-1.773638	-0.580190	0.561075	99
Es	-0.737710	0.143188	0.481507	99
Es	-1.525765	0.121403	0.536392	99
Es	0.868403	2.575429	0.449420	99
Es	0.690097	2.078210	0.184202	99
Es	0.002369	0.129813	0.449341	99
Es	2.504173	-1.131868	-1.002149	99
Es	2.450892	-1.280605	-0.533864	99
Es	0.462460	-0.610992	-0.812215	99
Es	0.329630	-0.223503	-1.397053	99
Es	0.263652	0.847749	0.442949	99
38
Properties=species:S:1:pos:R:3:Z:I:1 energy=-301.82379229515425 field_type=dipole dipole="0.000000 0.000000 0.000000" charge=0
C	-1.525852	0.121405	0.536402	6
C	0.002328	0.129695	0.449422	6
C	0.462298	-0.610985	-0.812278	6
C	1.899107	-0.915165	-0.764328	6
N	3.028068	-1.173295	-0.712018	7
C	0.484348	1.490865	0.449422	6
N	0.868558	2.575855	0.449422	7
H	-1.870852	0.642475	1.436942	1
H	-1.908522	-0.904095	0.577342	1
H	-1.980502	0.618635	-0.328478	1
H	0.387658	-0.389685	1.336712	1
H	0.236917	-0.027265	-1.713898	1
H	-0.083552	-1.558445	-0.904668	1
Es	-1.525767	0.121401	0.536392	99
Es	0.462462	-0.610991	-0.812215	99
Es	-1.773956	-0.579849	0.561212	99
Es	-1.746009	0.470461	1.137206	99
Es	0.868408	2.575432	0.449420	99
Es	0.110147	-1.242770	-0.862647	99
Es	0.265645	0.846835	0.444380	99
Es	3.388724	-1.255055	-0.696479	99
Es	2.441392	-1.328456	-0.594203	99
Es	1.898720	-0.915082	-0.764354	99
Es	2.519632	-1.071149	-0.987869	99
Es	0.484229	1.490506	0.449435	99
Es	0.815234	2.035345	0.703778	99
Es	0.329302	-0.223543	-1.396721	99
Es	0.002370	0.129812	0.449342	99
Es	0.268473	-0.199769	1.028891	99
Es	0.859468	2.016263	0.217662	99
Es	0.387932	2.183488	0.419810	99
Es	2.565207	-0.766061	-0.618238	99
Es	3.027624	-1.173195	-0.712037	99
Es	0.262144	-0.225525	-0.186402	99
Es	1.226719	-0.762700	-0.788559	99
Es	-0.737814	0.143088	0.481564	99
Es	0.997093	2.923653	0.450389	99
Es	-1.820461	0.456575	-0.049481	99
38
Properties=species:S:1:pos:R:3:Z:I:1 energy=-301.82379229515425 field_type=dipole dipole="0.000000 0.000000 0.000000" charge=0
C	-1.525852	0.121405	0.536402	6
C	0.002328	0.129695	0.449422	6
C	0.462298	-0.610985	-0.812278	6
C	1.899107	-0.915165	-0.764328	6
N	3.028068	-1.173295	-0.712018	7
C	0.484348	1.490865	0.449422	6
N	0.868558	2.575855	0.449422	7
H	-1.870852	0.642475	1.436942	1
H	-1.908522	-0.904095	0.577342	1
H	-1.980502	0.618635	-0.328478	1
H	0.387658	-0.389685	1.336712	1
H	0.236917	-0.027265	-1.713898	1
H	-0.083552	-1.558445	-0.904668	1
Es	3.388953	-1.249753	-0.692519	99
Es	0.462462	-0.610992	-0.812213	99
Es	0.868404	2.575430	0.449420	99
Es	-0.737732	0.143192	0.481740	99
Es	0.262230	-0.225622	-0.186543	99
Es	0.267995	-0.199608	1.028518	99
Es	0.329777	-0.223728	-1.396391	99
Es	0.955998	1.984141	0.588502	99
Es	3.027621	-1.173195	-0.712039	99
Es	0.109941	-1.243585	-0.862786	99
Es	0.406987	2.174352	0.552355	99
Es	0.002369	0.129814	0.449340	99
Es	0.484224	1.490501	0.449402	99
Es	0.991929	2.926475	0.447947	99
Es	1.226677	-0.760394	-0.787357	99
Es	2.439144	-1.367093	-0.759502	99
Es	-1.819757	0.456428	-0.048947	99
Es	0.705638	2.073649	0.204234	99
Es	-1.525769	0.121401	0.536391	99
Es	1.898731	-0.915063	-0.764348	99
Es	2.562884	-0.879100	-0.965243	99
Es	2.523533	-0.926497	-0.480803	99
Es	0.264880	0.847748	0.443162	99
Es	-1.745927	0.470980	1.136869	99
Es	-1.774276	-0.580768	0.561089	99
38
Properties=species:S:1:pos:R:3:Z:I:1 energy=-301.82379229515425 field_type=dipole dipole="0.000000 0.000000 0.000000" charge=0
C	-1.525852	0.121405	0.536402	6
C	0.002328	0.129695	0.449422	6
C	0.462298	-0.610985	-0.812278	6
C	1.899107	-0.915165	-0.764328	6
N	3.028068	-1.173295	-0.712018	7
C	0.484348	1.490865	0.449422	6
N	0.868558	2.575855	0.449422	7
H	-1.870852	0.642475	1.436942	1
H	-1.908522	-0.904095	0.577342	1
H	-1.980502	0.618635	-0.328478	1
H	0.387658	-0.389685	1.336712	1
H	0.236917	-0.027265	-1.713898	1
H	-0.083552	-1.558445	-0.904668	1
Es	2.495067	-1.075227	-0.482874	99
Es	0.868403	2.575430	0.449420	99
Es	0.960374	1.983016	0.580348	99
Es	-1.773929	-0.580238	0.561509	99
Es	2.452063	-1.326332	-0.886509	99
Es	0.692868	2.077283	0.192289	99
Es	0.329354	-0.223344	-1.396810	99
Es	0.002369	0.129813	0.449341	99
Es	0.484215	1.490508	0.449416	99
Es	1.226503	-0.762714	-0.786262	99
Es	0.462461	-0.610991	-0.812216	99
Es	0.262209	-0.225638	-0.186556	99
Es	-1.745811	0.470508	1.136902	99
Es	-1.820503	0.456574	-0.049431	99
Es	3.388179	-1.254492	-0.690829	99
Es	2.579687	-0.764516	-0.838757	99
Es	-0.737809	0.143286	0.481544	99
Es	3.027622	-1.173195	-0.712037	99
Es	-1.525765	0.121402	0.536392	99
Es	0.110088	-1.243014	-0.862541	99
Es	1.898725	-0.915077	-0.764340	99
Es	0.415399	2.172375	0.574216	99
Es	0.264118	0.847645	0.443515	99
Es	0.268443	-0.199865	1.028895	99
Es	0.992587	2.925517	0.445652	99
38
Properties=species:S:1:pos:R:3:Z:I:1 energy=-301.82379229515425 field_type=dipole dipole="0.000000 0.000000 0.000000" charge=0
C	-1.525852	0.121405	0.536402	6
C	0.002328	0.129695	0.449422	6
C	0.462298	-0.610985	-0.812278	6
C	1.899107	-0.915165	-0.764328	6
N	3.028068	-1.173295	-0.712018	7
C	0.484348	1.490865	0.449422	6
N	0.868558	2.575855	0.449422	7
H	-1.870852	0.642475	1.436942	1
H	-1.908522	-0.904095	0.577342	1
H	-1.980502	0.618635	-0.328478	1
H	0.387658	-0.389685	1.336712	1
H	0.236917	-0.027265	-1.713898	1
H	-0.083552	-1.558445	-0.904668	1
Es	2.440851	-1.333967	-0.602135	99
Es	0.109847	-1.243111	-0.862945	99
Es	0.264674	0.847473	0.443102	99
Es	-1.525765	0.121403	0.536390	99
Es	0.484219	1.490502	0.449410	99
Es	0.942145	1.989175	0.611673	99
Es	0.262387	-0.225689	-0.186513	99
Es	0.462461	-0.610991	-0.812215	99
Es	1.898722	-0.915084	-0.764356	99
Es	0.400247	2.177681	0.534953	99
Es	-1.746040	0.470740	1.137139	99
Es	3.027622	-1.173195	-0.712037	99
Es	0.994056	2.925165	0.447088	99
Es	0.329704	-0.223813	-1.396247	99
Es	-0.737840	0.143085	0.481625	99
Es	0.268040	-0.199328	1.028517	99
Es	3.388707	-1.253758	-0.697474	99
Es	1.226602	-0.762760	-0.788545	99
Es	0.868403	2.575430	0.449420	99
Es	0.724372	2.066358	0.199448	99
Es	-1.820099	0.456429	-0.049088	99
Es	-1.774176	-0.580192	0.561031	99
Es	0.002370	0.129813	0.449340	99
Es	2.521456	-1.063593	-0.987147	99
Es	2.563949	-0.769058	-0.610159	99
38
Properties=species:S:1:pos:R:3:Z:I:1 energy=-301.82379229515425 field_type=dipole dipole="0.000000 0.000000 0.000000" charge=0
C	-1.525852	0.121405	0.536402	6
C	0.002328	0.129695	0.449422	6
C	0.462298	-0.610985	-0.812278	6
C	1.899107	-0.915165	-0.764328	6
N	3.028068	-1.173295	-0.712018	7
C	0.484348	1.490865	0.449422	6
N	0.868558	2.575855	0.449422	7
H	-1.870852	0.642475	1.436942	1
H	-1.908522	-0.904095	0.577342	1
H	-1.980502	0.618635	-0.328478	1
H	0.387658	-0.389685	1.336712	1
H	0.236917	-0.027265	-1.713898	1
H	-0.083552	-1.558445	-0.904668	1
Es	2.520527	-1.068462	-0.983650	99
Es	0.949898	1.986009	0.599648	99
Es	0.329632	-0.223750	-1.396394	99
Es	0.002370	0.129813	0.449341	99
Es	0.462463	-0.610991	-0.812214	99
Es	1.898721	-0.915083	-0.764355	99
Es	-1.774116	-0.580268	0.560996	99
Es	3.027630	-1.173198	-0.712035	99
Es	3.388632	-1.253816	-0.696073	99
Es	0.268064	-0.199428	1.028648	99
Es	0.484219	1.490508	0.449416	99
Es	0.262367	-0.225680	-0.186451	99
Es	0.994091	2.925018	0.448228	99
Es	0.868417	2.575470	0.449420	99
Es	0.402737	2.176745	0.543477	99
Es	2.440779	-1.332566	-0.599041	99
Es	-1.819959	0.456251	-0.049104	99
Es	1.226518	-0.762948	-0.788568	99
Es	0.264359	0.847607	0.442992	99
Es	2.565021	-0.765363	-0.618160	99
Es	0.714334	2.070449	0.201893	99
Es	-1.746180	0.470924	1.137182	99
Es	-0.737816	0.143200	0.481565	99
Es	-1.525765	0.121403	0.536393	99
Es	0.109973	-1.243128	-0.862878	99
38
Properties=species:S:1:pos:R:3:Z:I:1 energy=-301.82379229515425 field_type=dipole dipole="0.000000 0.000000 0.000000" charge=0
C	-1.525852	0.121405	0.536402	6
C	0.002328	0.129695	0.449422	6
C	0.462298	-0.610985	-0.812278	6
C	1.899107	-0.915165	-0.764328	6
N	3.028068	-1.173295	-0.712018	7
C	0.484348	1.490865	0.449422	6
N	0.868558	2.575855	0.449422	7
H	-1.870852	0.642475	1.436942	1
H	-1.908522	-0.904095	0.577342	1
H	-1.980502	0.618635	-0.328478	1
H	0.387658	-0.389685	1.336712	1
H	0.236917	-0.027265	-1.713898	1
H	-0.083552	-1.558445	-0.904668	1
Es	-1.745860	0.470628	1.136859	99
Es	0.002369	0.129814	0.449341	99
Es	0.329450	-0.223438	-1.396427	99
Es	0.484218	1.490509	0.449418	99
Es	2.450208	-1.332733	-0.875707	99
Es	0.109880	-1.243167	-0.862689	99
Es	0.868403	2.575431	0.449420	99
Es	1.226551	-0.762472	-0.786198	99
Es	3.388274	-1.254050	-0.690459	99
Es	0.268202	-0.199626	1.028638	99
Es	0.408712	2.174284	0.560201	99
Es	0.960399	1.982479	0.581181	99
Es	0.462461	-0.610991	-0.812214	99
Es	2.579341	-0.768273	-0.848102	99
Es	0.992864	2.925669	0.446513	99
Es	0.262385	-0.225802	-0.186465	99
Es	3.027622	-1.173195	-0.712037	99
Es	-1.820211	0.456526	-0.049044	99
Es	0.699208	2.075850	0.204842	99
Es	2.497176	-1.065554	-0.484903	99
Es	-0.737812	0.143178	0.481489	99
Es	-1.774222	-0.580349	0.561244	99
Es	0.264344	0.847677	0.443333	99
Es	1.898722	-0.915080	-0.764350	99
Es	-1.525769	0.121401	0.536393	99
38
Properties=species:S:1:pos:R:3:Z:I:1 energy=-301.82379229515425 field_type=dipole dipole="0.000000 0.000000 0.000000" charge=0
C	-1.525852	0.121405	0.536402	6
C	0.002328	0.129695	0.449422	6
C	0.462298	-0.610985	-0.812278	6
C	1.899107	-0.915165	-0.764328	6
N	3.028068	-1.173295	-0.712018	7
C	0.484348	1.490865	0.449422	6
N	0.868558	2.575855	0.449422	7
H	-1.870852	0.642475	1.436942	1
H	-1.908522	-0.904095	0.577342	1
H	-1.980502	0.618635	-0.328478	1
H	0.387658	-0.389685	1.336712	1
H	0.236917	-0.027265	-1.713898	1
H	-0.083552	-1.558445	-0.904668	1
Es	1.226643	-0.762750	-0.788808	99
Es	0.462462	-0.610990	-0.812214	99
Es	0.262258	-0.225362	-0.186463	99
Es	-0.737868	0.143178	0.481540	99
Es	-1.774225	-0.580365	0.561010	99
Es	-1.525766	0.121401	0.536390	99
Es	0.484217	1.490506	0.449412	99
Es	2.521232	-1.065328	-0.983520	99
Es	3.388727	-1.253744	-0.696528	99
Es	0.264431	0.847680	0.442846	99
Es	0.868403	2.575430	0.449419	99
Es	0.002369	0.129814	0.449340	99
Es	0.329836	-0.223785	-1.396042	99
Es	-1.819981	0.456326	-0.048937	99
Es	0.268206	-0.199637	1.028482	99
Es	0.109611	-1.243225	-0.863001	99
Es	2.564424	-0.766999	-0.614258	99
Es	0.993508	2.925474	0.448186	99
Es	0.710313	2.072164	0.206621	99
Es	0.403430	2.176164	0.545167	99
Es	1.898720	-0.915082	-0.764357	99
Es	3.027623	-1.173196	-0.712038	99
Es	0.953907	1.984468	0.593360	99
Es	-1.746136	0.470760	1.136908	99
Es	2.440572	-1.334188	-0.602240	99
38
Properties=species:S:1:pos:R:3:Z:I:1 energy=-301.82379229515425 field_type=dipole dipole="0.000000 0.000000 0.000000" charge=0
C	-1.525852	0.121405	0.536402	6
C	0.002328	0.129695	0.449422	6
C	0.462298	-0.610985	-0.812278	6
C	1.899107	-0.915165	-0.764328	6
N	3.028068	-1.173295	-0.712018	7
C	0.484348	1.490865	0.449422	6
N	0.868558	2.575855	0.449422	7
H	-1.870852	0.642475	1.436942	1
H	-1.908522	-0.904095	0.577342	1
H	-1.980502	0.618635	-0.328478	1
H	0.387658	-0.389685	1.336712	1
H	0.236917	-0.027265	-1.713898	1
H	-0.083552	-1.558445	-0.904668	1
Es	0.109720	-1.243296	-0.862505	99
Es	3.389011	-1.252543	-0.696820	99
Es	-1.745730	0.470449	1.136546	99
Es	0.484221	1.490506	0.449416	99
Es	2.559854	-0.780570	-0.588494	99
Es	0.264637	0.847615	0.443379	99
Es	0.868403	2.575430	0.449420	99
Es	-0.737939	0.143120	0.481558	99
Es	0.268299	-0.199745	1.028466	99
Es	0.402342	2.176685	0.542906	99
Es	0.329427	-0.223411	-1.396362	99
Es	0.002370	0.129814	0.449341	99
Es	0.262482	-0.225585	-0.186460	99
Es	-1.525765	0.121401	0.536392	99
Es	1.898721	-0.915074	-0.764353	99
Es	-1.820210	0.456716	-0.048955	99
Es	0.711505	2.071502	0.208643	99
Es	2.527496	-1.040215	-0.981426	99
Es	0.953597	1.984760	0.594732	99
Es	1.226692	-0.762182	-0.788504	99
Es	3.027621	-1.173196	-0.712036	99
Es	2.438518	-1.347435	-0.630091	99
Es	0.993581	2.925403	0.446394	99
Es	-1.774399	-0.580447	0.561304	99
Es	0.462463	-0.610990	-0.812215	99
38
Properties=species:S:1:pos:R:3:Z:I:1 energy=-301.82379229515425 field_type=dipole dipole="0.000000 0.000000 0.000000" charge=0
C	-1.525852	0.121405	0.536402	6
C	0.002328	0.129695	0.449422	6
C	0.462298	-0.610985	-0.812278	6
C	1.899107	-0.915165	-0.764328	6
N	3.028068	-1.173295	-0.712018	7
C	0.484348	1.490865	0.449422	6
N	0.868558	2.575855	0.449422	7
H	-1.870852	0.642475	1.436942	1
H	-1.908522	-0.904095	0.577342	1
H	-1.980502	0.618635	-0.328478	1
H	0.387658	-0.389685	1.336712	1
H	0.236917	-0.027265	-1.713898	1
H	-0.083552	-1.558445	-0.904668	1
Es	0.993638	2.925331	0.447418	99
Es	0.868404	2.575430	0.449418	99
Es	2.524638	-1.052115	-0.980306	99
Es	-1.774408	-0.580420	0.561175	99
Es	2.439111	-1.341989	-0.617547	99
Es	-1.820270	0.456864	-0.048880	99
Es	2.562408	-0.772891	-0.602165	99
Es	0.957312	1.983180	0.587808	99
Es	0.705161	2.073997	0.207714	99
Es	0.329644	-0.223488	-1.396060	99
Es	-1.525764	0.121401	0.536390	99
Es	3.388786	-1.253436	-0.696372	99
Es	0.484220	1.490505	0.449411	99
Es	0.405056	2.175769	0.550314	99
Es	0.462460	-0.610991	-0.812215	99
Es	1.898720	-0.915082	-0.764361	99
Es	3.027628	-1.173198	-0.712035	99
Es	0.268123	-0.199627	1.028515	99
Es	0.264540	0.847702	0.442814	99
Es	0.002371	0.129810	0.449340	99
Es	0.109488	-1.243186	-0.862807	99
Es	-0.737863	0.143183	0.481514	99
Es	-1.745717	0.470246	1.136536	99
Es	0.262490	-0.225705	-0.186449	99
Es	1.226741	-0.762574	-0.788894	99
38
Properties=species:S:1:pos:R:3:Z:I:1 energy=-301.82379229515425 field_type=dipole dipole="0.000000 0.000000 0.000000" charge=0
C	-1.525852	0.121405	0.536402	6
C	0.002328	0.129695	0.449422	6
C	0.462298	-0.610985	-0.812278	6
C	1.899107	-0.915165	-0.764328	6
N	3.028068	-1.173295	-0.712018	7
C	0.484348	1.490865	0.449422	6
N	0.868558	2.575855	0.449422	7
H	-1.870852	0.642475	1.436942	1
H	-1.908522	-0.904095	0.577342	1
H	-1.980502	0.618635	-0.328478	1
H	0.387658	-0.389685	1.336712	1
H	0.236917	-0.027265	-1.713898	1
H	-0.083552	-1.558445	-0.904668	1
Es	2.447651	-1.340630	-0.860708	99
Es	0.002370	0.129815	0.449339	99
Es	0.993120	2.925532	0.447548	99
Es	0.109719	-1.243147	-0.862915	99
Es	0.700890	2.075631	0.208366	99
Es	-0.737951	0.143201	0.481812	99
Es	3.388492	-1.253582	-0.690497	99
Es	-1.774369	-0.580335	0.561069	99
Es	0.264470	0.847549	0.443093	99
Es	0.462461	-0.610991	-0.812215	99
Es	2.578848	-0.770888	-0.854781	99
Es	2.500013	-1.055654	-0.493051	99
Es	1.898721	-0.915086	-0.764343	99
Es	3.027622	-1.173196	-0.712036	99
Es	0.406667	2.174902	0.555917	99
Es	0.868404	2.575430	0.449419	99
Es	1.226644	-0.762290	-0.786365	99
Es	-1.525766	0.121400	0.536392	99
Es	0.329640	-0.223659	-1.396131	99
Es	0.262344	-0.225719	-0.186537	99
Es	-1.820026	0.456542	-0.048950	99
Es	-1.745965	0.470628	1.136797	99
Es	0.268205	-0.199422	1.028426	99
Es	0.484217	1.490505	0.449416	99
Es	0.960494	1.982181	0.581210	99
38
Properties=species:S:1:pos:R:3:Z:I:1 energy=-301.82379229515425 field_type=dipole dipole="0.000000 0.000000 0.000000" charge=0
C	-1.525852	0.121405	0.536402	6
C	0.002328	0.129695	0.449422	6
C	0.462298	-0.610985	-0.812278	6
C	1.899107	-0.915165	-0.764328	6
N	3.028068	-1.173295	-0.712018	7
C	0.484348	1.490865	0.449422	6
N	0.868558	2.575855	0.449422	7
H	-1.870852	0.642475	1.436942	1
H	-1.908522	-0.904095	0.577342	1
H	-1.980502	0.618635	-0.328478	1
H	0.387658	-0.389685	1.336712	1
H	0.236917	-0.027265	-1.713898	1
H	-0.083552	-1.558445	-0.904668	1
Es	3.027644	-1.173201	-0.712039	99
Es	0.462462	-0.610989	-0.812215	99
Es	0.992300	2.925712	0.452004	99
Es	2.438541	-1.345052	-0.622762	99
Es	0.263937	0.847827	0.445885	99
Es	2.524800	-1.050113	-0.972924	99
Es	0.484210	1.490506	0.449428	99
Es	0.109525	-1.243079	-0.862617	99
Es	0.268287	-0.199512	1.028216	99
Es	-1.774608	-0.580356	0.561306	99
Es	-1.745627	0.470314	1.136400	99
Es	3.389207	-1.252771	-0.698445	99
Es	1.898722	-0.915080	-0.764353	99
Es	0.659771	2.090848	0.688509	99
Es	-0.737992	0.143108	0.481516	99
Es	2.562474	-0.772501	-0.603401	99
Es	-1.820319	0.456726	-0.048630	99
Es	-1.525765	0.121401	0.536392	99
Es	0.002369	0.129814	0.449342	99
Es	0.262503	-0.225627	-0.186509	99
Es	0.868404	2.575432	0.449420	99
Es	0.430858	2.167588	0.286275	99
Es	0.978975	1.973862	0.363400	99
Es	1.226823	-0.762539	-0.787892	99
Es	0.329415	-0.223602	-1.396030	99
38
Properties=species:S:1:pos:R:3:Z:I:1 energy=-301.82379229515425 field_type=dipole dipole="0.000000 0.000000 0.000000" charge=0
C	-1.525852	0.121405	0.536402	6
C	0.002328	0.129695	0.449422	6
C	0.462298	-0.610985	-0.812278	6
C	1.899107	-0.915165	-0.764328	6
N	3.028068	-1.173295	-0.712018	7
C	0.484348	1.490865	0.449422	6
N	0.868558	2.575855	0.449422	7
H	-1.870852	0.642475	1.436942	1
H	-1.908522	-0.904095	0.577342	1
H	-1.980502	0.618635	-0.328478	1
H	0.387658	-0.389685	1.336712	1
H	0.236917	-0.027265	-1.713898	1
H	-0.083552	-1.558445	-0.904668	1
Es	2.500874	-1.054970	-0.497600	99
Es	0.868411	2.575450	0.449421	99
Es	0.971045	1.976439	0.340857	99
Es	0.002369	0.129814	0.449341	99
Es	0.268263	-0.199486	1.028275	99
Es	1.226721	-0.762323	-0.785908	99
Es	0.329467	-0.223607	-1.396093	99
Es	0.262446	-0.225660	-0.186530	99
Es	0.462463	-0.610991	-0.812214	99
Es	2.446878	-1.341967	-0.856624	99
Es	0.678440	2.084450	0.689370	99
Es	-1.745726	0.470471	1.136477	99
Es	-1.820274	0.456569	-0.048730	99
Es	0.418826	2.171838	0.307179	99
Es	-1.525766	0.121402	0.536392	99
Es	0.484215	1.490508	0.449429	99
Es	2.578592	-0.770090	-0.853167	99
Es	0.993126	2.925409	0.452748	99
Es	0.109594	-1.243042	-0.862699	99
Es	3.027624	-1.173195	-0.712037	99
Es	0.264296	0.847717	0.445945	99
Es	1.898720	-0.915080	-0.764340	99
Es	-0.737898	0.143110	0.481571	99
Es	-1.774532	-0.580322	0.561351	99
Es	3.388742	-1.253727	-0.692138	99
38
Properties=species:S:1:pos:R:3:Z:I:1 energy=-301.82379229515425 field_type=dipole dipole="0.000000 0.000000 0.000000" charge=0
C	-1.525852	0.121405	0.536402	6
C	0.002328	0.129695	0.449422	6
C	0.462298	-0.610985	-0.812278	6
C	1.899107	-0.915165	-0.764328	6
N	3.028068	-1.173295	-0.712018	7
C	0.484348	1.490865	0.449422	6
N	0.868558	2.575855	0.449422	7
H	-1.870852	0.642475	1.436942	1
H	-1.908522	-0.904095	0.577342	1
H	-1.980502	0.618635	-0.328478	1
H	0.387658	-0.389685	1.336712	1
H	0.236917	-0.027265	-1.713898	1
H	-0.083552	-1.558445	-0.904668	1
Es	2.532289	-0.889217	-0.496645	99
Es	0.868404	2.575431	0.449421	99
Es	0.413987	2.171403	0.320773	99
Es	0.267661	-0.199851	1.027608	99
Es	0.262542	-0.225846	-0.186523	99
Es	1.227000	-0.759164	-0.787027	99
Es	-1.819811	0.457201	-0.047821	99
Es	0.002370	0.129814	0.449339	99
Es	-0.737768	0.143138	0.481521	99
Es	-1.525764	0.121402	0.536391	99
Es	0.462465	-0.610983	-0.812215	99
Es	0.677890	2.086028	0.655985	99
Es	0.329857	-0.223276	-1.395623	99
Es	3.389371	-1.248390	-0.694979	99
Es	0.265748	0.848191	0.445652	99
Es	0.977623	1.973629	0.361836	99
Es	3.027621	-1.173195	-0.712037	99
Es	0.991062	2.927804	0.451797	99
Es	0.484218	1.490505	0.449428	99
Es	2.555546	-0.915272	-0.976604	99
Es	2.437192	-1.370012	-0.729791	99
Es	0.108994	-1.244186	-0.862496	99
Es	-1.744985	0.470159	1.135162	99
Es	-1.775323	-0.581532	0.561472	99
Es	1.898726	-0.915065	-0.764347	99
38
Properties=species:S:1:pos:R:3:Z:I:1 energy=-301.82379229515425 field_type=dipole dipole="0.000000 0.000000 0.000000" charge=0
C	-1.525852	0.121405	0.536402	6
C	0.002328	0.129695	0.449422	6
C	0.462298	-0.610985	-0.812278	6
C	1.899107	-0.915165	-0.764328	6
N	3.028068	-1.173295	-0.712018	7
C	0.484348	1.490865	0.449422	6
N	0.868558	2.575855	0.449422	7
H	-1.870852	0.642475	1.436942	1
H	-1.908522	-0.904095	0.577342	1
H	-1.980502	0.618635	-0.328478	1
H	0.387658	-0.389685	1.336712	1
H	0.236917	-0.027265	-1.713898	1
H	-0.083552	-1.558445	-0.904668	1
Es	-0.737959	0.143037	0.481547	99
Es	0.423019	2.170359	0.299735	99
Es	0.992711	2.925553	0.452252	99
Es	0.670695	2.087228	0.687414	99
Es	-1.820127	0.456413	-0.048540	99
Es	0.109563	-1.243037	-0.862650	99
Es	2.578648	-0.768372	-0.849819	99
Es	0.484216	1.490508	0.449431	99
Es	0.264204	0.847832	0.446112	99
Es	0.329396	-0.223645	-1.396007	99
Es	0.002369	0.129814	0.449341	99
Es	-1.525765	0.121402	0.536391	99
Es	2.447061	-1.341092	-0.858643	99
Es	0.262493	-0.225745	-0.186558	99
Es	0.868403	2.575430	0.449420	99
Es	3.027624	-1.173196	-0.712037	99
Es	0.975228	1.974915	0.350634	99
Es	1.226817	-0.762310	-0.785608	99
Es	2.500607	-1.057424	-0.498744	99
Es	1.898721	-0.915080	-0.764337	99
Es	3.388760	-1.253811	-0.692672	99
Es	-1.774639	-0.580336	0.561248	99
Es	0.462462	-0.610991	-0.812214	99
Es	0.268210	-0.199374	1.028059	99
Es	-1.745800	0.470636	1.136523	99
38
Properties=species:S:1:pos:R:3:Z:I:1 energy=-301.82379229515425 field_type=dipole dipole="0.000000 0.000000 0.000000" charge=0
C	-1.525852	0.121405	0.536402	6
C	0.002328	0.129695	0.449422	6
C	0.462298	-0.610985	-0.812278	6
C	1.899107	-0.915165	-0.764328	6
N	3.028068	-1.173295	-0.712018	7
C	0.484348	1.490865	0.449422	6
N	0.868558	2.575855	0.449422	7
H	-1.870852	0.642475	1.436942	1
H	-1.908522	-0.904095	0.577342	1
H	-1.980502	0.618635	-0.328478	1
H	0.387658	-0.389685	1.336712	1
H	0.236917	-0.027265	-1.713898	1
H	-0.083552	-1.558445	-0.904668	1
Es	2.499692	-1.060480	-0.500260	99
Es	0.964477	1.980749	0.573610	99
Es	0.264556	0.847644	0.442779	99
Es	3.388636	-1.253836	-0.689869	99
Es	0.868405	2.575434	0.449420	99
Es	2.578978	-0.766770	-0.846029	99
Es	0.002370	0.129814	0.449341	99
Es	0.329532	-0.223633	-1.395963	99
Es	0.693573	2.078168	0.207778	99
Es	0.462463	-0.610989	-0.812213	99
Es	3.027644	-1.173200	-0.712036	99
Es	2.447718	-1.339704	-0.862581	99
Es	-1.774445	-0.580288	0.561238	99
Es	-1.525766	0.121401	0.536391	99
Es	-1.820256	0.456639	-0.048852	99
Es	-0.737926	0.143205	0.481617	99
Es	-1.745853	0.470349	1.136472	99
Es	1.898721	-0.915077	-0.764342	99
Es	0.268216	-0.199545	1.028343	99
Es	0.410305	2.173735	0.565046	99
Es	0.992942	2.925534	0.446810	99
Es	1.226858	-0.762157	-0.786539	99
Es	0.109551	-1.243078	-0.862826	99
Es	0.484216	1.490502	0.449430	99
Es	0.262309	-0.225698	-0.186488	99
38
Properties=species:S:1:pos:R:3:Z:I:1 energy=-301.82379229515425 field_type=dipole dipole="0.000000 0.000000 0.000000" charge=0
C	-1.525852	0.121405	0.536402	6
C	0.002328	0.129695	0.449422	6
C	0.462298	-0.610985	-0.812278	6
C	1.899107	-0.915165	-0.764328	6
N	3.028068	-1.173295	-0.712018	7
C	0.484348	1.490865	0.449422	6
N	0.868558	2.575855	0.449422	7
H	-1.870852	0.642475	1.436942	1
H	-1.908522	-0.904095	0.577342	1
H	-1.980502	0.618635	-0.328478	1
H	0.387658	-0.389685	1.336712	1
H	0.236917	-0.027265	-1.713898	1
H	-0.083552	-1.558445	-0.904668	1
Es	0.109570	-1.243137	-0.862807	99
Es	0.462462	-0.610991	-0.812214	99
Es	0.701941	2.075277	0.212153	99
Es	0.405072	2.175543	0.552828	99
Es	3.388600	-1.253693	-0.690628	99
Es	0.002371	0.129813	0.449341	99
Es	-1.820145	0.456536	-0.048714	99
Es	2.579025	-0.765908	-0.844123	99
Es	0.264642	0.847634	0.443274	99
Es	0.262420	-0.225695	-0.186507	99
Es	0.868403	2.575430	0.449419	99
Es	2.499095	-1.063074	-0.497997	99
Es	0.329580	-0.223690	-1.396001	99
Es	1.898719	-0.915078	-0.764331	99
Es	-1.525765	0.121401	0.536390	99
Es	1.226733	-0.762291	-0.786298	99
Es	0.484220	1.490507	0.449418	99
Es	3.027623	-1.173195	-0.712037	99
Es	-1.745818	0.470547	1.136562	99
Es	0.993283	2.925408	0.446569	99
Es	0.268153	-0.199409	1.028232	99
Es	-1.774524	-0.580363	0.561211	99
Es	0.960823	1.982068	0.581307	99
Es	-0.737904	0.143089	0.481583	99
Es	2.448336	-1.338012	-0.866354	99
38
Properties=species:S:1:pos:R:3:Z:I:1 energy=-301.82379229515425 field_type=dipole dipole="0.000000 0.000000 0.000000" charge=0
C	-1.525852	0.121405	0.536402	6
C	0.002328	0.129695	0.449422	6
C	0.462298	-0.610985	-0.812278	6
C	1.899107	-0.915165	-0.764328	6
N	3.028068	-1.173295	-0.712018	7
C	0.484348	1.490865	0.449422	6
N	0.868558	2.575855	0.449422	7
H	-1.870852	0.642475	1.436942	1
H	-1.908522	-0.904095	0.577342	1
H	-1.980502	0.618635	-0.328478	1
H	0.387658	-0.389685	1.336712	1
H	0.236917	-0.027265	-1.713898	1
H	-0.083552	-1.558445	-0.904668	1
Es	2.499097	-1.062420	-0.498657	99
Es	0.462462	-0.610991	-0.812214	99
Es	3.027626	-1.173197	-0.712035	99
Es	1.226773	-0.762289	-0.786650	99
Es	0.002369	0.129814	0.449340	99
Es	-1.774551	-0.580413	0.561319	99
Es	3.388523	-1.253716	-0.689410	99
Es	2.448319	-1.338316	-0.866156	99
Es	1.898721	-0.915079	-0.764342	99
Es	0.109452	-1.243139	-0.862791	99
Es	0.262397	-0.225611	-0.186594	99
Es	-0.737839	0.143262	0.481637	99
Es	0.868404	2.575431	0.449420	99
Es	0.484213	1.490507	0.449413	99
Es	0.268399	-0.199877	1.028374	99
Es	0.992451	2.925741	0.447089	99
Es	0.264269	0.847745	0.442925	99
Es	-1.745690	0.470161	1.136211	99
Es	0.689759	2.079822	0.211422	99
Es	0.411470	2.173109	0.567822	99
Es	-1.525766	0.121401	0.536392	99
Es	0.967789	1.979484	0.566862	99
Es	-1.820321	0.456817	-0.048746	99
Es	2.579140	-0.766194	-0.844437	99
Es	0.329448	-0.223339	-1.395917	99
38
Properties=species:S:1:pos:R:3:Z:I:1 energy=-301.82379229515425 field_type=dipole dipole="0.000000 0.000000 0.000000" charge=0
C	-1.525852	0.121405	0.536402	6
C	0.002328	0.129695	0.449422	6
C	0.462298	-0.610985	-0.812278	6
C	1.899107	-0.915165	-0.764328	6
N	3.028068	-1.173295	-0.712018	7
C	0.484348	1.490865	0.449422	6
N	0.868558	2.575855	0.449422	7
H	-1.870852	0.642475	1.436942	1
H	-1.908522	-0.904095	0.577342	1
H	-1.980502	0.618635	-0.328478	1
H	0.387658	-0.389685	1.336712	1
H	0.236917	-0.027265	-1.713898	1
H	-0.083552	-1.558445	-0.904668	1
Es	-1.745732	0.470373	1.136331	99
Es	-0.737889	0.143172	0.481575	99
Es	3.027633	-1.173197	-0.712036	99
Es	0.002370	0.129814	0.449342	99
Es	-1.525766	0.121402	0.536390	99
Es	0.264457	0.847671	0.443236	99
Es	1.226735	-0.762420	-0.786330	99
Es	1.898721	-0.915080	-0.764343	99
Es	0.697143	2.077003	0.212112	99
Es	-1.774534	-0.580370	0.561371	99
Es	0.462461	-0.610992	-0.812215	99
Es	2.448432	-1.336921	-0.868184	99
Es	3.388693	-1.254073	-0.690563	99
Es	2.498855	-1.065021	-0.499790	99
Es	0.993156	2.925637	0.446536	99
Es	-1.820274	0.456639	-0.048773	99
Es	0.963418	1.980997	0.575721	99
Es	0.407599	2.174582	0.558443	99
Es	0.329541	-0.223560	-1.396085	99
Es	0.268263	-0.199578	1.028335	99
Es	2.579086	-0.764555	-0.840389	99
Es	0.109535	-1.243116	-0.862712	99
Es	0.484216	1.490510	0.449422	99
Es	0.262397	-0.225633	-0.186536	99
Es	0.868404	2.575431	0.449420	99
