47
Properties=species:S:1:pos:R:3:Z:I:1 energy=-305.32399757272196 field_type=dipole dipole="0.000000 0.000000 0.000000" charge=0
C	-0.530603	-2.136116	-0.713319	6
C	-1.105063	-0.989446	0.108881	6
C	-0.426993	0.355564	-0.193269	6
C	-1.139973	1.489184	0.541741	6
N	0.963727	0.313244	0.230431	7
C	1.930777	1.100774	-0.298279	6
N	3.117187	1.231214	0.174621	7
H	-1.076793	-3.060756	-0.501279	1
H	0.523787	-2.308676	-0.477429	1
H	-0.615833	-1.930736	-1.784969	1
H	-1.011423	-1.234086	1.174541	1
H	-2.177723	-0.913466	-0.108259	1
H	-0.482103	0.544674	-1.272599	1
H	-1.105643	1.344504	1.627320	1
H	-2.190223	1.550694	0.238461	1
H	-0.670243	2.454214	0.322441	1
H	1.142897	-0.104026	1.135521	1
H	1.630077	1.651754	-1.205679	1
H	3.224167	0.641484	1.001131	1
Es	-1.032004	-1.147873	0.842821	99
Es	-0.426843	0.355562	-0.193186	99
Es	-0.758122	-0.317282	-0.039449	99
Es	-1.112393	1.380862	1.280842	99
Es	-0.530624	-2.136091	-0.713302	99
Es	1.154423	0.184859	0.020512	99
Es	1.712017	1.467534	-0.911563	99
Es	1.930593	1.100693	-0.298279	99
Es	3.116766	1.230943	0.174760	99
Es	3.159726	0.864863	0.681910	99
Es	-1.105034	-0.989440	0.108860	99
Es	0.376484	0.350301	0.055943	99
Es	-0.810554	-1.558943	-0.304020	99
Es	-0.791293	0.929630	0.179363	99
Es	-0.455171	0.486597	-0.931369	99
Es	-0.590783	-1.989614	-1.444260	99
Es	2.735968	0.959292	-0.162769	99
Es	2.565501	1.393685	0.158255	99
Es	-0.906109	-2.764623	-0.566678	99
Es	-1.857503	1.526689	0.331929	99
Es	-1.837469	-0.929792	-0.040856	99
Es	-0.815834	2.143290	0.387725	99
Es	0.184447	-2.251137	-0.550443	99
Es	0.963727	0.313915	0.230676	99
Es	-1.139977	1.489181	0.541736	99
Es	1.062070	0.084367	0.782253	99
Es	3.387748	1.432108	0.045743	99
Es	1.297867	0.742092	0.101105	99
47
Properties=species:S:1:pos:R:3:Z:I:1 energy=-305.32399757272196 field_type=dipole dipole="0.000000 0.000000 0.000000" charge=0
C	-0.530603	-2.136116	-0.713319	6
C	-1.105063	-0.989446	0.108881	6
C	-0.426993	0.355564	-0.193269	6
C	-1.139973	1.489184	0.541741	6
N	0.963727	0.313244	0.230431	7
C	1.930777	1.100774	-0.298279	6
N	3.117187	1.231214	0.174621	7
H	-1.076793	-3.060756	-0.501279	1
H	0.523787	-2.308676	-0.477429	1
H	-0.615833	-1.930736	-1.784969	1
H	-1.011423	-1.234086	1.174541	1
H	-2.177723	-0.913466	-0.108259	1
H	-0.482103	0.544674	-1.272599	1
H	-1.105643	1.344504	1.627320	1
H	-2.190223	1.550694	0.238461	1
H	-0.670243	2.454214	0.322441	1
H	1.142897	-0.104026	1.135521	1
H	1.630077	1.651754	-1.205679	1
H	3.224167	0.641484	1.001131	1
Es	3.388297	1.434568	0.044393	99
Es	0.963689	0.313903	0.230699	99
Es	3.159657	0.865688	0.682299	99
Es	0.375223	0.345515	0.051478	99
Es	-0.426834	0.355561	-0.193182	99
Es	1.138000	0.195934	0.042355	99
Es	-0.790888	0.930188	0.180081	99
Es	1.930592	1.100699	-0.298273	99
Es	0.186505	-2.251133	-0.549606	99
Es	2.736970	0.959043	-0.160409	99
Es	-0.810386	-1.558818	-0.304021	99
Es	3.116800	1.230946	0.174773	99
Es	1.712008	1.467344	-0.911727	99
Es	-0.907004	-2.763521	-0.566560	99
Es	-1.030797	-1.148327	0.842561	99
Es	-1.139976	1.489179	0.541736	99
Es	-0.455982	0.486867	-0.931511	99
Es	1.314734	0.735945	0.083375	99
Es	-0.814924	2.142038	0.388014	99
Es	2.564112	1.390414	0.157271	99
Es	-1.105032	-0.989441	0.108859	99
Es	-0.592034	-1.989119	-1.443967	99
Es	1.063800	0.084715	0.782832	99
Es	-0.757848	-0.317624	-0.039268	99
Es	-0.530624	-2.136093	-0.713302	99
Es	-1.111144	1.380595	1.280400	99
Es	-1.859749	1.526629	0.330821	99
Es	-1.839542	-0.930027	-0.041859	99
47
Properties=species:S:1:pos:R:3:Z:I:1 energy=-305.32399757272196 field_type=dipole dipole="0.000000 0.000000 0.000000" charge=0
C	-0.530603	-2.136116	-0.713319	6
C	-1.105063	-0.989446	0.108881	6
C	-0.426993	0.355564	-0.193269	6
C	-1.139973	1.489184	0.541741	6
N	0.963727	0.313244	0.230431	7
C	1.930777	1.100774	-0.298279	6
N	3.117187	1.231214	0.174621	7
H	-1.076793	-3.060756	-0.501279	1
H	0.523787	-2.308676	-0.477429	1
H	-0.615833	-1.930736	-1.784969	1
H	-1.011423	-1.234086	1.174541	1
H	-2.177723	-0.913466	-0.108259	1
H	-0.482103	0.544674	-1.272599	1
H	-1.105643	1.344504	1.627320	1
H	-2.190223	1.550694	0.238461	1
H	-0.670243	2.454214	0.322441	1
H	1.142897	-0.104026	1.135521	1
H	1.630077	1.651754	-1.205679	1
H	3.224167	0.641484	1.001131	1
Es	2.565091	1.390721	0.158362	99
Es	-0.456512	0.486960	-0.931542	99
Es	3.116757	1.230935	0.174772	99
Es	1.128751	0.202451	0.054671	99
Es	-0.426836	0.355561	-0.193181	99
Es	-0.907420	-2.762715	-0.566502	99
Es	1.930593	1.100692	-0.298280	99
Es	-1.139977	1.489180	0.541736	99
Es	0.374911	0.343337	0.049100	99
Es	0.963669	0.313722	0.230643	99
Es	-0.592667	-1.989069	-1.443811	99
Es	3.159851	0.866207	0.682083	99
Es	-1.860867	1.526651	0.330151	99
Es	-0.530625	-2.136090	-0.713301	99
Es	1.711946	1.467091	-0.911877	99
Es	0.187619	-2.251122	-0.548965	99
Es	-1.105034	-0.989440	0.108861	99
Es	-1.110365	1.380589	1.280324	99
Es	-0.810382	-1.558722	-0.304154	99
Es	-0.757575	-0.317916	-0.039041	99
Es	2.735248	0.958639	-0.159680	99
Es	-1.030140	-1.148515	0.842267	99
Es	-0.790631	0.930578	0.180466	99
Es	1.064241	0.086248	0.783290	99
Es	-1.840689	-0.930106	-0.042429	99
Es	3.388925	1.434213	0.043231	99
Es	1.324431	0.730529	0.072909	99
Es	-0.814690	2.141059	0.388156	99
47
Properties=species:S:1:pos:R:3:Z:I:1 energy=-305.32399757272196 field_type=dipole dipole="0.000000 0.000000 0.000000" charge=0
C	-0.530603	-2.136116	-0.713319	6
C	-1.105063	-0.989446	0.108881	6
C	-0.426993	0.355564	-0.193269	6
C	-1.139973	1.489184	0.541741	6
N	0.963727	0.313244	0.230431	7
C	1.930777	1.100774	-0.298279	6
N	3.117187	1.231214	0.174621	7
H	-1.076793	-3.060756	-0.501279	1
H	0.523787	-2.308676	-0.477429	1
H	-0.615833	-1.930736	-1.784969	1
H	-1.011423	-1.234086	1.174541	1
H	-2.177723	-0.913466	-0.108259	1
H	-0.482103	0.544674	-1.272599	1
H	-1.105643	1.344504	1.627320	1
H	-2.190223	1.550694	0.238461	1
H	-0.670243	2.454214	0.322441	1
H	1.142897	-0.104026	1.135521	1
H	1.630077	1.651754	-1.205679	1
H	3.224167	0.641484	1.001131	1
Es	-1.841401	-0.930195	-0.042778	99
Es	-1.861629	1.526623	0.329845	99
Es	0.374775	0.341323	0.047582	99
Es	0.963647	0.313634	0.230626	99
Es	-1.029612	-1.148593	0.842125	99
Es	3.389491	1.433735	0.042488	99
Es	2.733168	0.958123	-0.159529	99
Es	1.064849	0.086737	0.783374	99
Es	-1.109865	1.380499	1.280021	99
Es	-0.593154	-1.988818	-1.443495	99
Es	-0.907675	-2.762167	-0.566759	99
Es	-1.139977	1.489179	0.541736	99
Es	-0.426835	0.355561	-0.193182	99
Es	3.159717	0.866748	0.682036	99
Es	-0.530625	-2.136090	-0.713301	99
Es	3.116749	1.230919	0.174784	99
Es	1.123724	0.207598	0.061782	99
Es	1.712022	1.466924	-0.911933	99
Es	-0.456807	0.486956	-0.931530	99
Es	2.566775	1.391131	0.159325	99
Es	-0.814447	2.140570	0.388343	99
Es	1.930595	1.100690	-0.298281	99
Es	-0.790673	0.930839	0.180793	99
Es	-0.757391	-0.318053	-0.039147	99
Es	-0.810484	-1.558798	-0.304115	99
Es	-1.105035	-0.989441	0.108862	99
Es	1.329253	0.727197	0.067176	99
Es	0.188469	-2.251161	-0.548584	99
47
Properties=species:S:1:pos:R:3:Z:I:1 energy=-305.32399757272196 field_type=dipole dipole="0.000000 0.000000 0.000000" charge=0
C	-0.530603	-2.136116	-0.713319	6
C	-1.105063	-0.989446	0.108881	6
C	-0.426993	0.355564	-0.193269	6
C	-1.139973	1.489184	0.541741	6
N	0.963727	0.313244	0.230431	7
C	1.930777	1.100774	-0.298279	6
N	3.117187	1.231214	0.174621	7
H	-1.076793	-3.060756	-0.501279	1
H	0.523787	-2.308676	-0.477429	1
H	-0.615833	-1.930736	-1.784969	1
H	-1.011423	-1.234086	1.174541	1
H	-2.177723	-0.913466	-0.108259	1
H	-0.482103	0.544674	-1.272599	1
H	-1.105643	1.344504	1.627320	1
H	-2.190223	1.550694	0.238461	1
H	-0.670243	2.454214	0.322441	1
H	1.142897	-0.104026	1.135521	1
H	1.630077	1.651754	-1.205679	1
H	3.224167	0.641484	1.001131	1
Es	1.334098	0.723624	0.061925	99
Es	-0.907812	-2.761778	-0.566710	99
Es	1.712018	1.466773	-0.911865	99
Es	1.118427	0.211190	0.067763	99
Es	3.116776	1.230936	0.174774	99
Es	2.734471	0.957348	-0.159384	99
Es	0.964027	0.314467	0.230677	99
Es	-0.530626	-2.136086	-0.713298	99
Es	-1.109436	1.380633	1.279892	99
Es	-0.593515	-1.988845	-1.443362	99
Es	-1.841929	-0.930267	-0.042985	99
Es	-1.029154	-1.148555	0.842029	99
Es	-0.426833	0.355561	-0.193180	99
Es	0.188957	-2.251150	-0.548404	99
Es	-0.810362	-1.558693	-0.304224	99
Es	-0.814324	2.139992	0.388370	99
Es	-1.139977	1.489179	0.541736	99
Es	-0.790633	0.931017	0.181018	99
Es	3.389397	1.434414	0.042860	99
Es	-1.105034	-0.989440	0.108861	99
Es	1.930593	1.100692	-0.298278	99
Es	-1.862201	1.526648	0.329557	99
Es	1.065160	0.086719	0.783246	99
Es	-0.757498	-0.318221	-0.039129	99
Es	0.374730	0.340639	0.046798	99
Es	-0.457010	0.486923	-0.931508	99
Es	3.159643	0.867374	0.682002	99
Es	2.565672	1.390575	0.159082	99
47
Properties=species:S:1:pos:R:3:Z:I:1 energy=-305.32399757272196 field_type=dipole dipole="0.000000 0.000000 0.000000" charge=0
C	-0.530603	-2.136116	-0.713319	6
C	-1.105063	-0.989446	0.108881	6
C	-0.426993	0.355564	-0.193269	6
C	-1.139973	1.489184	0.541741	6
N	0.963727	0.313244	0.230431	7
C	1.930777	1.100774	-0.298279	6
N	3.117187	1.231214	0.174621	7
H	-1.076793	-3.060756	-0.501279	1
H	0.523787	-2.308676	-0.477429	1
H	-0.615833	-1.930736	-1.784969	1
H	-1.011423	-1.234086	1.174541	1
H	-2.177723	-0.913466	-0.108259	1
H	-0.482103	0.544674	-1.272599	1
H	-1.105643	1.344504	1.627320	1
H	-2.190223	1.550694	0.238461	1
H	-0.670243	2.454214	0.322441	1
H	1.142897	-0.104026	1.135521	1
H	1.630077	1.651754	-1.205679	1
H	3.224167	0.641484	1.001131	1
Es	1.930593	1.100692	-0.298279	99
Es	-0.457173	0.486923	-0.931356	99
Es	-1.862655	1.526643	0.329408	99
Es	-0.907979	-2.761442	-0.566639	99
Es	-1.109074	1.380693	1.279718	99
Es	3.116777	1.230959	0.174745	99
Es	1.712013	1.466625	-0.911885	99
Es	1.065368	0.087743	0.783386	99
Es	1.336192	0.721812	0.059234	99
Es	-0.593852	-1.988863	-1.443200	99
Es	2.566209	1.391006	0.159754	99
Es	0.374736	0.339346	0.045884	99
Es	-0.426835	0.355561	-0.193182	99
Es	-1.028947	-1.148560	0.841829	99
Es	-0.530623	-2.136092	-0.713302	99
Es	-0.814199	2.139598	0.388389	99
Es	-0.757327	-0.318335	-0.039216	99
Es	3.388939	1.434160	0.042794	99
Es	-1.139977	1.489180	0.541737	99
Es	-0.790674	0.931208	0.181240	99
Es	3.160214	0.867527	0.681962	99
Es	0.189404	-2.251110	-0.548260	99
Es	1.116666	0.213877	0.071067	99
Es	-1.105034	-0.989441	0.108860	99
Es	-0.810345	-1.558704	-0.304196	99
Es	-1.842333	-0.930324	-0.043211	99
Es	2.733831	0.957032	-0.159749	99
Es	0.963707	0.313954	0.230729	99
47
Properties=species:S:1:pos:R:3:Z:I:1 energy=-305.32399757272196 field_type=dipole dipole="0.000000 0.000000 0.000000" charge=0
C	-0.530603	-2.136116	-0.713319	6
C	-1.105063	-0.989446	0.108881	6
C	-0.426993	0.355564	-0.193269	6
C	-1.139973	1.489184	0.541741	6
N	0.963727	0.313244	0.230431	7
C	1.930777	1.100774	-0.298279	6
N	3.117187	1.231214	0.174621	7
H	-1.076793	-3.060756	-0.501279	1
H	0.523787	-2.308676	-0.477429	1
H	-0.615833	-1.930736	-1.784969	1
H	-1.011423	-1.234086	1.174541	1
H	-2.177723	-0.913466	-0.108259	1
H	-0.482103	0.544674	-1.272599	1
H	-1.105643	1.344504	1.627320	1
H	-2.190223	1.550694	0.238461	1
H	-0.670243	2.454214	0.322441	1
H	1.142897	-0.104026	1.135521	1
H	1.630077	1.651754	-1.205679	1
H	3.224167	0.641484	1.001131	1
Es	1.337035	0.721129	0.058374	99
Es	-0.814221	2.139183	0.388438	99
Es	-1.028629	-1.148638	0.841745	99
Es	3.388932	1.434592	0.042331	99
Es	0.374877	0.337964	0.044731	99
Es	-0.907933	-2.761137	-0.566702	99
Es	-0.757288	-0.318417	-0.039081	99
Es	-0.530624	-2.136091	-0.713302	99
Es	-1.108775	1.380758	1.279683	99
Es	-0.594107	-1.988913	-1.443106	99
Es	3.160668	0.867921	0.681582	99
Es	1.115869	0.216026	0.073104	99
Es	-0.790661	0.931411	0.181272	99
Es	1.930593	1.100690	-0.298280	99
Es	3.116773	1.230979	0.174731	99
Es	2.733157	0.956568	-0.159474	99
Es	-1.139977	1.489179	0.541736	99
Es	-1.862968	1.526707	0.329251	99
Es	0.963633	0.313816	0.230706	99
Es	2.566470	1.390540	0.160474	99
Es	0.189751	-2.251060	-0.548079	99
Es	1.065316	0.087945	0.783321	99
Es	-0.457313	0.486767	-0.931388	99
Es	-1.842669	-0.930328	-0.043349	99
Es	1.712060	1.466570	-0.911876	99
Es	-0.810476	-1.558613	-0.304259	99
Es	-0.426835	0.355560	-0.193183	99
Es	-1.105034	-0.989440	0.108859	99
47
Properties=species:S:1:pos:R:3:Z:I:1 energy=-305.32399757272196 field_type=dipole dipole="0.000000 0.000000 0.000000" charge=0
C	-0.530603	-2.136116	-0.713319	6
C	-1.105063	-0.989446	0.108881	6
C	-0.426993	0.355564	-0.193269	6
C	-1.139973	1.489184	0.541741	6
N	0.963727	0.313244	0.230431	7
C	1.930777	1.100774	-0.298279	6
N	3.117187	1.231214	0.174621	7
H	-1.076793	-3.060756	-0.501279	1
H	0.523787	-2.308676	-0.477429	1
H	-0.615833	-1.930736	-1.784969	1
H	-1.011423	-1.234086	1.174541	1
H	-2.177723	-0.913466	-0.108259	1
H	-0.482103	0.544674	-1.272599	1
H	-1.105643	1.344504	1.627320	1
H	-2.190223	1.550694	0.238461	1
H	-0.670243	2.454214	0.322441	1
H	1.142897	-0.104026	1.135521	1
H	1.630077	1.651754	-1.205679	1
H	3.224167	0.641484	1.001131	1
Es	-0.530624	-2.136091	-0.713301	99
Es	-0.814127	2.138875	0.388440	99
Es	-1.139977	1.489179	0.541736	99
Es	-0.426833	0.355559	-0.193180	99
Es	-0.757157	-0.318506	-0.039217	99
Es	3.389314	1.434675	0.042728	99
Es	-1.863298	1.526657	0.329091	99
Es	1.065240	0.089004	0.783487	99
Es	1.712026	1.466589	-0.911880	99
Es	2.733281	0.956503	-0.159645	99
Es	2.566568	1.390521	0.160356	99
Es	3.160089	0.867889	0.681578	99
Es	-1.028449	-1.148546	0.841597	99
Es	-0.457400	0.486791	-0.931356	99
Es	1.337780	0.720367	0.057354	99
Es	-0.810400	-1.558719	-0.304235	99
Es	-0.790743	0.931493	0.181543	99
Es	-0.908064	-2.760938	-0.566687	99
Es	1.930593	1.100691	-0.298279	99
Es	-1.842979	-0.930434	-0.043527	99
Es	0.374903	0.337556	0.044530	99
Es	1.115305	0.216382	0.074205	99
Es	-0.594335	-1.988860	-1.442964	99
Es	3.116756	1.230924	0.174780	99
Es	-1.108529	1.380849	1.279538	99
Es	0.963643	0.313656	0.230639	99
Es	0.190074	-2.250954	-0.547929	99
Es	-1.105034	-0.989441	0.108861	99
47
Properties=species:S:1:pos:R:3:Z:I:1 energy=-305.32399757272196 field_type=dipole dipole="0.000000 0.000000 0.000000" charge=0
C	-0.530603	-2.136116	-0.713319	6
C	-1.105063	-0.989446	0.108881	6
C	-0.426993	0.355564	-0.193269	6
C	-1.139973	1.489184	0.541741	6
N	0.963727	0.313244	0.230431	7
C	1.930777	1.100774	-0.298279	6
N	3.117187	1.231214	0.174621	7
H	-1.076793	-3.060756	-0.501279	1
H	0.523787	-2.308676	-0.477429	1
H	-0.615833	-1.930736	-1.784969	1
H	-1.011423	-1.234086	1.174541	1
H	-2.177723	-0.913466	-0.108259	1
H	-0.482103	0.544674	-1.272599	1
H	-1.105643	1.344504	1.627320	1
H	-2.190223	1.550694	0.238461	1
H	-0.670243	2.454214	0.322441	1
H	1.142897	-0.104026	1.135521	1
H	1.630077	1.651754	-1.205679	1
H	3.224167	0.641484	1.001131	1
Es	-1.863471	1.526721	0.328978	99
Es	-1.139977	1.489179	0.541736	99
Es	-0.757200	-0.318574	-0.039159	99
Es	-1.028264	-1.148541	0.841515	99
Es	1.930594	1.100689	-0.298281	99
Es	-0.790645	0.931605	0.181479	99
Es	0.963650	0.313874	0.230719	99
Es	-0.530623	-2.136092	-0.713302	99
Es	-1.843180	-0.930492	-0.043613	99
Es	2.564633	1.390032	0.159697	99
Es	3.388831	1.435391	0.043698	99
Es	-0.908170	-2.760769	-0.566738	99
Es	3.160100	0.868415	0.681540	99
Es	1.712059	1.466494	-0.911850	99
Es	-1.105033	-0.989441	0.108862	99
Es	0.190281	-2.250975	-0.547845	99
Es	1.065378	0.089182	0.783417	99
Es	-1.108407	1.380777	1.279458	99
Es	-0.426835	0.355560	-0.193182	99
Es	1.339891	0.718553	0.054911	99
Es	-0.814120	2.138676	0.388597	99
Es	2.735697	0.955773	-0.159793	99
Es	-0.594419	-1.988894	-1.442809	99
Es	-0.457504	0.486768	-0.931333	99
Es	0.374915	0.337020	0.044054	99
Es	1.113097	0.218432	0.077004	99
Es	-0.810408	-1.558611	-0.304275	99
Es	3.116754	1.230917	0.174775	99
47
Properties=species:S:1:pos:R:3:Z:I:1 energy=-305.32399757272196 field_type=dipole dipole="0.000000 0.000000 0.000000" charge=0
C	-0.530603	-2.136116	-0.713319	6
C	-1.105063	-0.989446	0.108881	6
C	-0.426993	0.355564	-0.193269	6
C	-1.139973	1.489184	0.541741	6
N	0.963727	0.313244	0.230431	7
C	1.930777	1.100774	-0.298279	6
N	3.117187	1.231214	0.174621	7
H	-1.076793	-3.060756	-0.501279	1
H	0.523787	-2.308676	-0.477429	1
H	-0.615833	-1.930736	-1.784969	1
H	-1.011423	-1.234086	1.174541	1
H	-2.177723	-0.913466	-0.108259	1
H	-0.482103	0.544674	-1.272599	1
H	-1.105643	1.344504	1.627320	1
H	-2.190223	1.550694	0.238461	1
H	-0.670243	2.454214	0.322441	1
H	1.142897	-0.104026	1.135521	1
H	1.630077	1.651754	-1.205679	1
H	3.224167	0.641484	1.001131	1
Es	-0.457614	0.486750	-0.931240	99
Es	0.190530	-2.250903	-0.547747	99
Es	-1.108240	1.380874	1.279404	99
Es	1.112124	0.219526	0.078509	99
Es	3.116794	1.230951	0.174779	99
Es	0.375028	0.336315	0.043386	99
Es	3.160482	0.868345	0.681466	99
Es	-0.908122	-2.760554	-0.566745	99
Es	-0.757123	-0.318609	-0.039095	99
Es	-1.863669	1.526733	0.328843	99
Es	-1.843410	-0.930524	-0.043655	99
Es	-0.530624	-2.136089	-0.713301	99
Es	1.065424	0.089498	0.783431	99
Es	-1.028195	-1.148485	0.841280	99
Es	-0.426835	0.355560	-0.193182	99
Es	1.930595	1.100687	-0.298282	99
Es	2.733489	0.955776	-0.159944	99
Es	3.388853	1.434872	0.042951	99
Es	1.340764	0.717662	0.053892	99
Es	-0.814131	2.138393	0.388627	99
Es	-0.810400	-1.558763	-0.304266	99
Es	-0.790609	0.931716	0.181620	99
Es	0.963732	0.314111	0.230753	99
Es	1.712041	1.466399	-0.911850	99
Es	-1.105033	-0.989440	0.108861	99
Es	-1.139976	1.489179	0.541737	99
Es	-0.594648	-1.988932	-1.442738	99
Es	2.566398	1.390621	0.160768	99
47
Properties=species:S:1:pos:R:3:Z:I:1 energy=-305.32399757272196 field_type=dipole dipole="0.000000 0.000000 0.000000" charge=0
C	-0.530603	-2.136116	-0.713319	6
C	-1.105063	-0.989446	0.108881	6
C	-0.426993	0.355564	-0.193269	6
C	-1.139973	1.489184	0.541741	6
N	0.963727	0.313244	0.230431	7
C	1.930777	1.100774	-0.298279	6
N	3.117187	1.231214	0.174621	7
H	-1.076793	-3.060756	-0.501279	1
H	0.523787	-2.308676	-0.477429	1
H	-0.615833	-1.930736	-1.784969	1
H	-1.011423	-1.234086	1.174541	1
H	-2.177723	-0.913466	-0.108259	1
H	-0.482103	0.544674	-1.272599	1
H	-1.105643	1.344504	1.627320	1
H	-2.190223	1.550694	0.238461	1
H	-0.670243	2.454214	0.322441	1
H	1.142897	-0.104026	1.135521	1
H	1.630077	1.651754	-1.205679	1
H	3.224167	0.641484	1.001131	1
Es	-1.028004	-1.148605	0.841240	99
Es	3.389303	1.434760	0.042991	99
Es	1.341778	0.716796	0.052847	99
Es	-0.790641	0.931776	0.181669	99
Es	1.111219	0.220621	0.079668	99
Es	3.160277	0.868266	0.681071	99
Es	-0.908060	-2.760481	-0.566862	99
Es	-0.810508	-1.558662	-0.304239	99
Es	-0.457654	0.486833	-0.931235	99
Es	-1.863856	1.526699	0.328826	99
Es	-1.105035	-0.989441	0.108861	99
Es	-1.108095	1.380729	1.279228	99
Es	1.711988	1.466312	-0.911880	99
Es	1.930593	1.100691	-0.298280	99
Es	-1.843574	-0.930536	-0.043751	99
Es	0.963674	0.313922	0.230722	99
Es	-0.530624	-2.136092	-0.713302	99
Es	-0.594765	-1.988870	-1.442642	99
Es	-1.139977	1.489180	0.541736	99
Es	2.566985	1.390882	0.161364	99
Es	-0.814171	2.138333	0.388843	99
Es	1.065463	0.089609	0.783436	99
Es	2.732685	0.955744	-0.160036	99
Es	3.116763	1.230934	0.174769	99
Es	0.190677	-2.250847	-0.547704	99
Es	-0.757020	-0.318704	-0.039182	99
Es	-0.426834	0.355560	-0.193182	99
Es	0.375037	0.336261	0.043286	99
47
Properties=species:S:1:pos:R:3:Z:I:1 energy=-305.32399757272196 field_type=dipole dipole="0.000000 0.000000 0.000000" charge=0
C	-0.530603	-2.136116	-0.713319	6
C	-1.105063	-0.989446	0.108881	6
C	-0.426993	0.355564	-0.193269	6
C	-1.139973	1.489184	0.541741	6
N	0.963727	0.313244	0.230431	7
C	1.930777	1.100774	-0.298279	6
N	3.117187	1.231214	0.174621	7
H	-1.076793	-3.060756	-0.501279	1
H	0.523787	-2.308676	-0.477429	1
H	-0.615833	-1.930736	-1.784969	1
H	-1.011423	-1.234086	1.174541	1
H	-2.177723	-0.913466	-0.108259	1
H	-0.482103	0.544674	-1.272599	1
H	-1.105643	1.344504	1.627320	1
H	-2.190223	1.550694	0.238461	1
H	-0.670243	2.454214	0.322441	1
H	1.142897	-0.104026	1.135521	1
H	1.630077	1.651754	-1.205679	1
H	3.224167	0.641484	1.001131	1
Es	3.160077	0.868628	0.681347	99
Es	1.712000	1.466326	-0.911806	99
Es	2.566170	1.390590	0.160730	99
Es	-0.810299	-1.558709	-0.304338	99
Es	-1.108003	1.380912	1.279218	99
Es	-0.426834	0.355560	-0.193182	99
Es	1.065430	0.090052	0.783406	99
Es	1.930593	1.100690	-0.298280	99
Es	-1.139977	1.489180	0.541737	99
Es	-0.814122	2.138103	0.388736	99
Es	1.341313	0.717132	0.053275	99
Es	2.733681	0.955522	-0.159623	99
Es	-1.863969	1.526710	0.328728	99
Es	0.190815	-2.250883	-0.547564	99
Es	-0.457685	0.486643	-0.931229	99
Es	-0.594835	-1.988827	-1.442586	99
Es	3.116766	1.230928	0.174774	99
Es	-0.908284	-2.760308	-0.566800	99
Es	-1.843719	-0.930537	-0.043899	99
Es	-1.027927	-1.148536	0.841191	99
Es	0.375119	0.335365	0.042859	99
Es	-1.105034	-0.989440	0.108860	99
Es	-0.530624	-2.136090	-0.713301	99
Es	-0.757032	-0.318745	-0.039080	99
Es	1.111648	0.221060	0.079839	99
Es	-0.790677	0.931851	0.181726	99
Es	0.963666	0.313647	0.230615	99
Es	3.389368	1.434846	0.042909	99
47
Properties=species:S:1:pos:R:3:Z:I:1 energy=-305.32399757272196 field_type=dipole dipole="0.000000 0.000000 0.000000" charge=0
C	-0.530603	-2.136116	-0.713319	6
C	-1.105063	-0.989446	0.108881	6
C	-0.426993	0.355564	-0.193269	6
C	-1.139973	1.489184	0.541741	6
N	0.963727	0.313244	0.230431	7
C	1.930777	1.100774	-0.298279	6
N	3.117187	1.231214	0.174621	7
H	-1.076793	-3.060756	-0.501279	1
H	0.523787	-2.308676	-0.477429	1
H	-0.615833	-1.930736	-1.784969	1
H	-1.011423	-1.234086	1.174541	1
H	-2.177723	-0.913466	-0.108259	1
H	-0.482103	0.544674	-1.272599	1
H	-1.105643	1.344504	1.627320	1
H	-2.190223	1.550694	0.238461	1
H	-0.670243	2.454214	0.322441	1
H	1.142897	-0.104026	1.135521	1
H	1.630077	1.651754	-1.205679	1
H	3.224167	0.641484	1.001131	1
Es	-1.864153	1.526649	0.328718	99
Es	0.963710	0.313994	0.230731	99
Es	-1.139974	1.489175	0.541733	99
Es	-0.457829	0.486715	-0.931282	99
Es	-0.530625	-2.136089	-0.713301	99
Es	1.065409	0.090316	0.783261	99
Es	2.566844	1.390680	0.161170	99
Es	-1.027715	-1.148513	0.841215	99
Es	1.341111	0.717291	0.053632	99
Es	-0.814128	2.137938	0.388711	99
Es	0.375050	0.335501	0.043037	99
Es	-0.594967	-1.988827	-1.442406	99
Es	0.191014	-2.250800	-0.547562	99
Es	-0.426834	0.355560	-0.193181	99
Es	-1.105034	-0.989440	0.108860	99
Es	-1.107773	1.380928	1.279145	99
Es	3.116763	1.230928	0.174781	99
Es	-0.810329	-1.558690	-0.304431	99
Es	-0.757063	-0.318747	-0.039170	99
Es	-1.843829	-0.930622	-0.043908	99
Es	-0.790643	0.931857	0.181810	99
Es	-0.908395	-2.760231	-0.566781	99
Es	2.732900	0.955376	-0.159795	99
Es	1.930592	1.100693	-0.298278	99
Es	1.111919	0.220305	0.079353	99
Es	1.712041	1.466238	-0.911851	99
Es	3.160181	0.868625	0.681172	99
Es	3.389381	1.434858	0.042877	99
47
Properties=species:S:1:pos:R:3:Z:I:1 energy=-305.32399757272196 field_type=dipole dipole="0.000000 0.000000 0.000000" charge=0
C	-0.530603	-2.136116	-0.713319	6
C	-1.105063	-0.989446	0.108881	6
C	-0.426993	0.355564	-0.193269	6
C	-1.139973	1.489184	0.541741	6
N	0.963727	0.313244	0.230431	7
C	1.930777	1.100774	-0.298279	6
N	3.117187	1.231214	0.174621	7
H	-1.076793	-3.060756	-0.501279	1
H	0.523787	-2.308676	-0.477429	1
H	-0.615833	-1.930736	-1.784969	1
H	-1.011423	-1.234086	1.174541	1
H	-2.177723	-0.913466	-0.108259	1
H	-0.482103	0.544674	-1.272599	1
H	-1.105643	1.344504	1.627320	1
H	-2.190223	1.550694	0.238461	1
H	-0.670243	2.454214	0.322441	1
H	1.142897	-0.104026	1.135521	1
H	1.630077	1.651754	-1.205679	1
H	3.224167	0.641484	1.001131	1
Es	-0.790378	0.931674	0.181229	99
Es	-0.594363	-1.989947	-1.441849	99
Es	-0.426833	0.355560	-0.193182	99
Es	-0.530624	-2.136091	-0.713302	99
Es	1.028383	0.293001	0.172254	99
Es	1.711609	1.465828	-0.911805	99
Es	-1.863974	1.527324	0.329547	99
Es	3.386377	1.435379	0.046466	99
Es	2.565551	1.392145	0.162780	99
Es	1.068093	0.083831	0.782344	99
Es	1.020861	0.280082	0.172764	99
Es	-1.105035	-0.989441	0.108861	99
Es	0.376464	0.327809	0.036536	99
Es	-0.757011	-0.318651	-0.039259	99
Es	-0.810574	-1.558679	-0.303998	99
Es	3.116773	1.230931	0.174778	99
Es	2.735584	0.953082	-0.164010	99
Es	-1.139977	1.489179	0.541736	99
Es	0.190652	-2.251763	-0.548713	99
Es	1.930592	1.100692	-0.298279	99
Es	-1.108587	1.381756	1.278386	99
Es	-1.028639	-1.147442	0.840510	99
Es	-0.907249	-2.760351	-0.567792	99
Es	-0.814988	2.138197	0.389704	99
Es	-1.843467	-0.929771	-0.042847	99
Es	1.363839	0.692312	0.025335	99
Es	-0.457165	0.485678	-0.930368	99
Es	3.161709	0.869346	0.680437	99
47
Properties=species:S:1:pos:R:3:Z:I:1 energy=-305.32399757272196 field_type=dipole dipole="0.000000 0.000000 0.000000" charge=0
C	-0.530603	-2.136116	-0.713319	6
C	-1.105063	-0.989446	0.108881	6
C	-0.426993	0.355564	-0.193269	6
C	-1.139973	1.489184	0.541741	6
N	0.963727	0.313244	0.230431	7
C	1.930777	1.100774	-0.298279	6
N	3.117187	1.231214	0.174621	7
H	-1.076793	-3.060756	-0.501279	1
H	0.523787	-2.308676	-0.477429	1
H	-0.615833	-1.930736	-1.784969	1
H	-1.011423	-1.234086	1.174541	1
H	-2.177723	-0.913466	-0.108259	1
H	-0.482103	0.544674	-1.272599	1
H	-1.105643	1.344504	1.627320	1
H	-2.190223	1.550694	0.238461	1
H	-0.670243	2.454214	0.322441	1
H	1.142897	-0.104026	1.135521	1
H	1.630077	1.651754	-1.205679	1
H	3.224167	0.641484	1.001131	1
Es	-0.810463	-1.558508	-0.304202	99
Es	3.116768	1.230926	0.174776	99
Es	-1.108498	1.381808	1.278327	99
Es	1.930594	1.100687	-0.298282	99
Es	1.711699	1.465787	-0.911845	99
Es	-0.790486	0.931505	0.181377	99
Es	-0.426835	0.355559	-0.193181	99
Es	-0.757126	-0.318859	-0.039201	99
Es	-0.594276	-1.989904	-1.441697	99
Es	-0.530624	-2.136091	-0.713302	99
Es	3.386505	1.435207	0.046534	99
Es	2.735411	0.952977	-0.164028	99
Es	3.161548	0.869429	0.680442	99
Es	1.363375	0.692706	0.025506	99
Es	0.190743	-2.251810	-0.548594	99
Es	-1.843631	-0.929694	-0.042933	99
Es	-1.139977	1.489180	0.541736	99
Es	-0.907432	-2.760301	-0.567906	99
Es	-0.457140	0.485859	-0.930367	99
Es	2.565753	1.392284	0.162836	99
Es	1.068407	0.083916	0.782196	99
Es	-0.814857	2.138074	0.389634	99
Es	0.376344	0.327432	0.036805	99
Es	1.024362	0.295681	0.176339	99
Es	-1.864070	1.527420	0.329574	99
Es	-1.105034	-0.989440	0.108861	99
Es	1.025076	0.277363	0.168413	99
Es	-1.028512	-1.147527	0.840444	99
47
Properties=species:S:1:pos:R:3:Z:I:1 energy=-305.32399757272196 field_type=dipole dipole="0.000000 0.000000 0.000000" charge=0
C	-0.530603	-2.136116	-0.713319	6
C	-1.105063	-0.989446	0.108881	6
C	-0.426993	0.355564	-0.193269	6
C	-1.139973	1.489184	0.541741	6
N	0.963727	0.313244	0.230431	7
C	1.930777	1.100774	-0.298279	6
N	3.117187	1.231214	0.174621	7
H	-1.076793	-3.060756	-0.501279	1
H	0.523787	-2.308676	-0.477429	1
H	-0.615833	-1.930736	-1.784969	1
H	-1.011423	-1.234086	1.174541	1
H	-2.177723	-0.913466	-0.108259	1
H	-0.482103	0.544674	-1.272599	1
H	-1.105643	1.344504	1.627320	1
H	-2.190223	1.550694	0.238461	1
H	-0.670243	2.454214	0.322441	1
H	1.142897	-0.104026	1.135521	1
H	1.630077	1.651754	-1.205679	1
H	3.224167	0.641484	1.001131	1
Es	-0.457882	0.486613	-0.931098	99
Es	-0.810397	-1.558734	-0.304334	99
Es	1.109587	0.223480	0.082995	99
Es	0.963666	0.313889	0.230717	99
Es	-0.790631	0.932124	0.181870	99
Es	-1.105035	-0.989442	0.108862	99
Es	-0.814082	2.137597	0.388984	99
Es	2.733251	0.954930	-0.160107	99
Es	1.930594	1.100691	-0.298280	99
Es	-1.844089	-0.930638	-0.044074	99
Es	-0.908381	-2.759950	-0.566893	99
Es	0.375292	0.333979	0.041799	99
Es	3.388963	1.435177	0.043130	99
Es	-1.027588	-1.148449	0.841023	99
Es	-0.426834	0.355560	-0.193182	99
Es	0.191281	-2.250793	-0.547413	99
Es	1.712008	1.466201	-0.911738	99
Es	1.065484	0.090954	0.783343	99
Es	-1.864515	1.526779	0.328670	99
Es	-1.107541	1.380906	1.278808	99
Es	-0.756976	-0.318866	-0.039223	99
Es	-0.530624	-2.136090	-0.713301	99
Es	1.343336	0.715114	0.050846	99
Es	3.160517	0.868822	0.681066	99
Es	-0.595154	-1.988847	-1.442268	99
Es	3.116781	1.230928	0.174787	99
Es	2.566572	1.390555	0.161535	99
Es	-1.139977	1.489180	0.541737	99
47
Properties=species:S:1:pos:R:3:Z:I:1 energy=-305.32399757272196 field_type=dipole dipole="0.000000 0.000000 0.000000" charge=0
C	-0.530603	-2.136116	-0.713319	6
C	-1.105063	-0.989446	0.108881	6
C	-0.426993	0.355564	-0.193269	6
C	-1.139973	1.489184	0.541741	6
N	0.963727	0.313244	0.230431	7
C	1.930777	1.100774	-0.298279	6
N	3.117187	1.231214	0.174621	7
H	-1.076793	-3.060756	-0.501279	1
H	0.523787	-2.308676	-0.477429	1
H	-0.615833	-1.930736	-1.784969	1
H	-1.011423	-1.234086	1.174541	1
H	-2.177723	-0.913466	-0.108259	1
H	-0.482103	0.544674	-1.272599	1
H	-1.105643	1.344504	1.627320	1
H	-2.190223	1.550694	0.238461	1
H	-0.670243	2.454214	0.322441	1
H	1.142897	-0.104026	1.135521	1
H	1.630077	1.651754	-1.205679	1
H	3.224167	0.641484	1.001131	1
Es	-0.790471	0.932097	0.182053	99
Es	2.733395	0.954667	-0.160644	99
Es	-0.814152	2.137600	0.388994	99
Es	1.930593	1.100689	-0.298281	99
Es	2.566562	1.390622	0.161832	99
Es	0.375272	0.333801	0.041722	99
Es	1.065608	0.091190	0.783371	99
Es	-0.757045	-0.319006	-0.039111	99
Es	1.711936	1.466208	-0.911747	99
Es	-0.908305	-2.760023	-0.566945	99
Es	3.388364	1.435314	0.043507	99
Es	-1.027529	-1.148488	0.840937	99
Es	3.161005	0.868866	0.680973	99
Es	-1.844159	-0.930555	-0.044028	99
Es	-0.426833	0.355560	-0.193181	99
Es	1.344786	0.713813	0.049092	99
Es	3.116765	1.230927	0.174780	99
Es	-1.107727	1.381137	1.278804	99
Es	-0.530624	-2.136091	-0.713302	99
Es	1.108071	0.225468	0.085090	99
Es	0.963708	0.313256	0.230420	99
Es	-1.139977	1.489179	0.541736	99
Es	0.191404	-2.250458	-0.547262	99
Es	-0.595122	-1.989009	-1.442125	99
Es	-0.810544	-1.558811	-0.304701	99
Es	-0.457847	0.486587	-0.931004	99
Es	-1.864476	1.526571	0.328419	99
Es	-1.105034	-0.989441	0.108861	99
47
Properties=species:S:1:pos:R:3:Z:I:1 energy=-305.32399757272196 field_type=dipole dipole="0.000000 0.000000 0.000000" charge=0
C	-0.530603	-2.136116	-0.713319	6
C	-1.105063	-0.989446	0.108881	6
C	-0.426993	0.355564	-0.193269	6
C	-1.139973	1.489184	0.541741	6
N	0.963727	0.313244	0.230431	7
C	1.930777	1.100774	-0.298279	6
N	3.117187	1.231214	0.174621	7
H	-1.076793	-3.060756	-0.501279	1
H	0.523787	-2.308676	-0.477429	1
H	-0.615833	-1.930736	-1.784969	1
H	-1.011423	-1.234086	1.174541	1
H	-2.177723	-0.913466	-0.108259	1
H	-0.482103	0.544674	-1.272599	1
H	-1.105643	1.344504	1.627320	1
H	-2.190223	1.550694	0.238461	1
H	-0.670243	2.454214	0.322441	1
H	1.142897	-0.104026	1.135521	1
H	1.630077	1.651754	-1.205679	1
H	3.224167	0.641484	1.001131	1
Es	3.116773	1.230935	0.174777	99
Es	1.108984	0.224631	0.084068	99
Es	0.375250	0.333929	0.041810	99
Es	2.732337	0.954620	-0.160486	99
Es	1.711984	1.466150	-0.911749	99
Es	0.963757	0.313123	0.230324	99
Es	-1.027445	-1.148559	0.840819	99
Es	1.065603	0.091382	0.783382	99
Es	3.160641	0.869008	0.680895	99
Es	-0.814015	2.137497	0.388949	99
Es	-0.790706	0.932184	0.182076	99
Es	1.343861	0.714432	0.050085	99
Es	1.930593	1.100691	-0.298279	99
Es	-0.756868	-0.318870	-0.039190	99
Es	-0.530624	-2.136091	-0.713302	99
Es	-0.908395	-2.759750	-0.566952	99
Es	-1.107510	1.381009	1.278730	99
Es	-0.426835	0.355559	-0.193181	99
Es	-1.139977	1.489180	0.541737	99
Es	-1.105034	-0.989441	0.108861	99
Es	3.388944	1.434800	0.043160	99
Es	-1.844290	-0.930749	-0.044118	99
Es	-0.457895	0.486565	-0.931046	99
Es	-0.595301	-1.988849	-1.442159	99
Es	-0.810450	-1.558701	-0.304365	99
Es	-1.864613	1.526661	0.328522	99
Es	0.191481	-2.250748	-0.547279	99
Es	2.567372	1.391073	0.162175	99
47
Properties=species:S:1:pos:R:3:Z:I:1 energy=-305.32399757272196 field_type=dipole dipole="0.000000 0.000000 0.000000" charge=0
C	-0.530603	-2.136116	-0.713319	6
C	-1.105063	-0.989446	0.108881	6
C	-0.426993	0.355564	-0.193269	6
C	-1.139973	1.489184	0.541741	6
N	0.963727	0.313244	0.230431	7
C	1.930777	1.100774	-0.298279	6
N	3.117187	1.231214	0.174621	7
H	-1.076793	-3.060756	-0.501279	1
H	0.523787	-2.308676	-0.477429	1
H	-0.615833	-1.930736	-1.784969	1
H	-1.011423	-1.234086	1.174541	1
H	-2.177723	-0.913466	-0.108259	1
H	-0.482103	0.544674	-1.272599	1
H	-1.105643	1.344504	1.627320	1
H	-2.190223	1.550694	0.238461	1
H	-0.670243	2.454214	0.322441	1
H	1.142897	-0.104026	1.135521	1
H	1.630077	1.651754	-1.205679	1
H	3.224167	0.641484	1.001131	1
Es	-0.790746	0.932170	0.182197	99
Es	1.344114	0.714139	0.049631	99
Es	-1.027352	-1.148382	0.840919	99
Es	3.116755	1.230932	0.174765	99
Es	0.375288	0.333505	0.041606	99
Es	-0.530624	-2.136091	-0.713301	99
Es	-0.595401	-1.988950	-1.442055	99
Es	3.160815	0.869024	0.680804	99
Es	2.567098	1.390654	0.162145	99
Es	1.108540	0.223965	0.084280	99
Es	-1.844336	-0.930687	-0.044236	99
Es	0.963850	0.314375	0.230762	99
Es	-0.426835	0.355560	-0.193181	99
Es	-1.864718	1.526595	0.328552	99
Es	-1.105035	-0.989442	0.108860	99
Es	2.732667	0.954511	-0.160517	99
Es	1.930592	1.100690	-0.298280	99
Es	-0.908442	-2.759693	-0.566866	99
Es	1.065630	0.091586	0.783333	99
Es	3.388742	1.435211	0.043339	99
Es	-0.814007	2.137385	0.388819	99
Es	-0.756930	-0.319114	-0.039265	99
Es	1.712040	1.466220	-0.911716	99
Es	-0.810378	-1.558655	-0.304361	99
Es	-1.139977	1.489179	0.541736	99
Es	-0.457961	0.486590	-0.931038	99
Es	0.191592	-2.250728	-0.547378	99
Es	-1.107356	1.381120	1.278708	99
47
Properties=species:S:1:pos:R:3:Z:I:1 energy=-305.32399757272196 field_type=dipole dipole="0.000000 0.000000 0.000000" charge=0
C	-0.530603	-2.136116	-0.713319	6
C	-1.105063	-0.989446	0.108881	6
C	-0.426993	0.355564	-0.193269	6
C	-1.139973	1.489184	0.541741	6
N	0.963727	0.313244	0.230431	7
C	1.930777	1.100774	-0.298279	6
N	3.117187	1.231214	0.174621	7
H	-1.076793	-3.060756	-0.501279	1
H	0.523787	-2.308676	-0.477429	1
H	-0.615833	-1.930736	-1.784969	1
H	-1.011423	-1.234086	1.174541	1
H	-2.177723	-0.913466	-0.108259	1
H	-0.482103	0.544674	-1.272599	1
H	-1.105643	1.344504	1.627320	1
H	-2.190223	1.550694	0.238461	1
H	-0.670243	2.454214	0.322441	1
H	1.142897	-0.104026	1.135521	1
H	1.630077	1.651754	-1.205679	1
H	3.224167	0.641484	1.001131	1
Es	-0.814079	2.137367	0.388957	99
Es	1.711931	1.466158	-0.911713	99
Es	3.388297	1.436230	0.044502	99
Es	3.160541	0.869300	0.680899	99
Es	1.107595	0.225451	0.085665	99
Es	-0.756954	-0.318986	-0.039169	99
Es	-0.457935	0.486563	-0.930996	99
Es	2.565313	1.389873	0.161318	99
Es	-1.844388	-0.930772	-0.044195	99
Es	-1.139975	1.489181	0.541737	99
Es	1.930593	1.100690	-0.298280	99
Es	1.065478	0.091645	0.783182	99
Es	1.345567	0.713039	0.048508	99
Es	0.191595	-2.250727	-0.547230	99
Es	2.735155	0.954022	-0.160893	99
Es	3.116780	1.230936	0.174781	99
Es	-0.595352	-1.988917	-1.442055	99
Es	-0.810424	-1.558663	-0.304418	99
Es	0.963645	0.313752	0.230674	99
Es	-1.864714	1.526592	0.328461	99
Es	-0.790666	0.932309	0.182089	99
Es	-1.107370	1.381032	1.278703	99
Es	-1.105034	-0.989441	0.108861	99
Es	-1.027356	-1.148481	0.840788	99
Es	-0.908417	-2.759649	-0.566981	99
Es	0.375254	0.333697	0.041550	99
Es	-0.530624	-2.136091	-0.713301	99
Es	-0.426833	0.355560	-0.193181	99
47
Properties=species:S:1:pos:R:3:Z:I:1 energy=-305.32399757272196 field_type=dipole dipole="0.000000 0.000000 0.000000" charge=0
C	-0.530603	-2.136116	-0.713319	6
C	-1.105063	-0.989446	0.108881	6
C	-0.426993	0.355564	-0.193269	6
C	-1.139973	1.489184	0.541741	6
N	0.963727	0.313244	0.230431	7
C	1.930777	1.100774	-0.298279	6
N	3.117187	1.231214	0.174621	7
H	-1.076793	-3.060756	-0.501279	1
H	0.523787	-2.308676	-0.477429	1
H	-0.615833	-1.930736	-1.784969	1
H	-1.011423	-1.234086	1.174541	1
H	-2.177723	-0.913466	-0.108259	1
H	-0.482103	0.544674	-1.272599	1
H	-1.105643	1.344504	1.627320	1
H	-2.190223	1.550694	0.238461	1
H	-0.670243	2.454214	0.322441	1
H	1.142897	-0.104026	1.135521	1
H	1.630077	1.651754	-1.205679	1
H	3.224167	0.641484	1.001131	1
Es	-0.908499	-2.759608	-0.566920	99
Es	-1.027235	-1.148467	0.840800	99
Es	1.109482	0.224214	0.083572	99
Es	-1.844471	-0.930765	-0.044265	99
Es	-0.595450	-1.988869	-1.442005	99
Es	-0.790654	0.932312	0.182144	99
Es	-1.107240	1.381120	1.278715	99
Es	-1.864817	1.526647	0.328398	99
Es	-0.756847	-0.318992	-0.039154	99
Es	1.712071	1.466125	-0.911673	99
Es	1.343401	0.714880	0.050640	99
Es	3.116768	1.230930	0.174774	99
Es	-0.814095	2.137127	0.388933	99
Es	0.191708	-2.250578	-0.547143	99
Es	1.930595	1.100694	-0.298278	99
Es	-0.458067	0.486482	-0.931075	99
Es	-1.139977	1.489180	0.541737	99
Es	0.375324	0.333355	0.041538	99
Es	-0.426832	0.355560	-0.193181	99
Es	-1.105033	-0.989440	0.108860	99
Es	2.733097	0.954208	-0.160066	99
Es	1.065591	0.091495	0.783159	99
Es	3.388876	1.435188	0.043020	99
Es	0.963644	0.313700	0.230656	99
Es	-0.810442	-1.558762	-0.304479	99
Es	-0.530624	-2.136091	-0.713302	99
Es	2.566634	1.390571	0.161889	99
Es	3.160718	0.869455	0.680967	99
