47
Properties=species:S:1:pos:R:3:Z:I:1 energy=-305.3236668345006 field_type=dipole dipole="0.000000 0.000000 0.000000" charge=0
C	-2.271140	-1.458291	-0.067806	6
C	-0.963950	-0.955641	0.526324	6
C	-0.670620	0.483979	0.095724	6
C	0.601980	1.048389	0.726904	6
N	1.785240	0.343149	0.285624	7
C	2.436930	0.513509	-0.895926	6
N	2.223690	1.385089	-1.809316	7
H	-2.457710	-2.490131	0.245304	1
H	-2.239450	-1.435811	-1.161686	1
H	-3.114850	-0.845321	0.264514	1
H	-0.152030	-1.619231	0.207344	1
H	-1.021340	-1.013321	1.619204	1
H	-1.512760	1.121969	0.391534	1
H	-0.603170	0.533909	-0.997936	1
H	0.536749	0.976419	1.818624	1
H	0.689579	2.115839	0.493734	1
H	2.031139	-0.477791	0.829094	1
H	3.253580	-0.217641	-1.032576	1
H	1.448140	1.990929	-1.538676	1
Es	-0.809016	-0.234393	0.313888	99
Es	-0.404493	-1.408244	0.307849	99
Es	-1.247181	0.921780	0.304137	99
Es	-2.844870	-1.035699	0.160902	99
Es	2.436880	0.513419	-0.895741	99
Es	-0.963971	-0.955620	0.526304	99
Es	2.223475	1.384996	-1.808886	99
Es	2.473862	1.225317	-1.315016	99
Es	-0.619473	0.517136	-0.647882	99
Es	-2.271118	-1.458284	-0.067793	99
Es	2.404929	1.425248	-2.114323	99
Es	2.113570	0.873139	-1.573566	99
Es	-2.397556	-2.162846	0.147032	99
Es	-0.670598	0.483971	0.095754	99
Es	2.987243	0.008727	-0.975863	99
Es	1.784982	0.342875	0.285259	99
Es	0.602124	1.048284	0.726834	99
Es	-0.028499	0.762888	0.408384	99
Es	0.560396	0.988460	1.470939	99
Es	1.916546	-0.159527	0.597365	99
Es	-1.619910	-1.203657	0.227262	99
Es	2.048642	0.523251	0.256862	99
Es	0.666171	1.773542	0.558452	99
Es	1.274429	0.635612	0.451122	99
Es	-2.245858	-1.439875	-0.813792	99
Es	1.747322	1.743468	-1.628433	99
Es	-1.001102	-0.990101	1.280283	99
Es	1.911672	0.314242	-0.246744	99
47
Properties=species:S:1:pos:R:3:Z:I:1 energy=-305.3236668345006 field_type=dipole dipole="0.000000 0.000000 0.000000" charge=0
C	-2.271140	-1.458291	-0.067806	6
C	-0.963950	-0.955641	0.526324	6
C	-0.670620	0.483979	0.095724	6
C	0.601980	1.048389	0.726904	6
N	1.785240	0.343149	0.285624	7
C	2.436930	0.513509	-0.895926	6
N	2.223690	1.385089	-1.809316	7
H	-2.457710	-2.490131	0.245304	1
H	-2.239450	-1.435811	-1.161686	1
H	-3.114850	-0.845321	0.264514	1
H	-0.152030	-1.619231	0.207344	1
H	-1.021340	-1.013321	1.619204	1
H	-1.512760	1.121969	0.391534	1
H	-0.603170	0.533909	-0.997936	1
H	0.536749	0.976419	1.818624	1
H	0.689579	2.115839	0.493734	1
H	2.031139	-0.477791	0.829094	1
H	3.253580	-0.217641	-1.032576	1
H	1.448140	1.990929	-1.538676	1
Es	2.987091	0.008756	-0.975682	99
Es	-0.808961	-0.234315	0.313873	99
Es	-0.963971	-0.955620	0.526304	99
Es	2.223449	1.384986	-1.808836	99
Es	2.112487	0.874310	-1.571834	99
Es	1.943060	0.337679	-0.257661	99
Es	-2.245612	-1.438745	-0.814920	99
Es	-0.619088	0.518200	-0.649154	99
Es	1.784914	0.342796	0.285166	99
Es	1.273476	0.636467	0.449718	99
Es	2.406798	1.425543	-2.117148	99
Es	-0.670597	0.483971	0.095754	99
Es	-0.028450	0.762833	0.408378	99
Es	2.471677	1.225470	-1.314414	99
Es	-0.405950	-1.407986	0.307717	99
Es	2.011637	0.498538	0.263447	99
Es	-1.245766	0.921723	0.304526	99
Es	0.559799	0.987413	1.471992	99
Es	0.665922	1.774292	0.557176	99
Es	-2.271117	-1.458284	-0.067793	99
Es	-2.843121	-1.035711	0.161063	99
Es	-1.001516	-0.991130	1.281522	99
Es	1.922601	-0.159281	0.603023	99
Es	1.748487	1.742271	-1.628103	99
Es	-2.397734	-2.164013	0.148449	99
Es	-1.619923	-1.203761	0.226926	99
Es	2.436884	0.513423	-0.895734	99
Es	0.602126	1.048284	0.726834	99
47
Properties=species:S:1:pos:R:3:Z:I:1 energy=-305.3236668345006 field_type=dipole dipole="0.000000 0.000000 0.000000" charge=0
C	-2.271140	-1.458291	-0.067806	6
C	-0.963950	-0.955641	0.526324	6
C	-0.670620	0.483979	0.095724	6
C	0.601980	1.048389	0.726904	6
N	1.785240	0.343149	0.285624	7
C	2.436930	0.513509	-0.895926	6
N	2.223690	1.385089	-1.809316	7
H	-2.457710	-2.490131	0.245304	1
H	-2.239450	-1.435811	-1.161686	1
H	-3.114850	-0.845321	0.264514	1
H	-0.152030	-1.619231	0.207344	1
H	-1.021340	-1.013321	1.619204	1
H	-1.512760	1.121969	0.391534	1
H	-0.603170	0.533909	-0.997936	1
H	0.536749	0.976419	1.818624	1
H	0.689579	2.115839	0.493734	1
H	2.031139	-0.477791	0.829094	1
H	3.253580	-0.217641	-1.032576	1
H	1.448140	1.990929	-1.538676	1
Es	-2.271116	-1.458283	-0.067793	99
Es	-0.808929	-0.234352	0.313886	99
Es	-1.620199	-1.203654	0.226936	99
Es	-2.841965	-1.036086	0.161013	99
Es	1.748789	1.742571	-1.629407	99
Es	-0.619191	0.518899	-0.649704	99
Es	-0.406986	-1.407668	0.307611	99
Es	1.987928	0.480676	0.265679	99
Es	1.965038	0.355801	-0.260678	99
Es	-0.963972	-0.955619	0.526305	99
Es	2.223454	1.384994	-1.808852	99
Es	2.407535	1.424602	-2.117101	99
Es	2.111558	0.874882	-1.571653	99
Es	-1.244766	0.921456	0.304622	99
Es	2.436886	0.513426	-0.895734	99
Es	-0.028319	0.762913	0.408380	99
Es	1.785087	0.343015	0.285470	99
Es	0.665824	1.774752	0.556482	99
Es	-2.245619	-1.437932	-0.815531	99
Es	1.924240	-0.159776	0.604869	99
Es	0.559613	0.986764	1.472416	99
Es	0.602125	1.048287	0.726833	99
Es	-0.670596	0.483970	0.095753	99
Es	1.273129	0.636498	0.448333	99
Es	-2.397845	-2.164688	0.149270	99
Es	2.471166	1.225680	-1.313474	99
Es	-1.001372	-0.991812	1.282108	99
Es	2.987102	0.008791	-0.975449	99
47
Properties=species:S:1:pos:R:3:Z:I:1 energy=-305.3236668345006 field_type=dipole dipole="0.000000 0.000000 0.000000" charge=0
C	-2.271140	-1.458291	-0.067806	6
C	-0.963950	-0.955641	0.526324	6
C	-0.670620	0.483979	0.095724	6
C	0.601980	1.048389	0.726904	6
N	1.785240	0.343149	0.285624	7
C	2.436930	0.513509	-0.895926	6
N	2.223690	1.385089	-1.809316	7
H	-2.457710	-2.490131	0.245304	1
H	-2.239450	-1.435811	-1.161686	1
H	-3.114850	-0.845321	0.264514	1
H	-0.152030	-1.619231	0.207344	1
H	-1.021340	-1.013321	1.619204	1
H	-1.512760	1.121969	0.391534	1
H	-0.603170	0.533909	-0.997936	1
H	0.536749	0.976419	1.818624	1
H	0.689579	2.115839	0.493734	1
H	2.031139	-0.477791	0.829094	1
H	3.253580	-0.217641	-1.032576	1
H	1.448140	1.990929	-1.538676	1
Es	2.471012	1.226290	-1.312564	99
Es	2.987100	0.008834	-0.975362	99
Es	-0.619265	0.519451	-0.650034	99
Es	1.748540	1.741376	-1.629741	99
Es	0.559422	0.986240	1.472697	99
Es	-1.243959	0.921219	0.304582	99
Es	2.407541	1.425073	-2.117564	99
Es	-1.620074	-1.203756	0.226840	99
Es	1.784900	0.342669	0.284831	99
Es	0.602124	1.048283	0.726831	99
Es	-2.841075	-1.036268	0.161012	99
Es	-0.028145	0.763052	0.408423	99
Es	-2.271117	-1.458284	-0.067794	99
Es	-0.670599	0.483970	0.095754	99
Es	2.223446	1.385000	-1.808851	99
Es	2.111562	0.875199	-1.571784	99
Es	-2.397971	-2.165192	0.149834	99
Es	1.977545	0.472663	0.263961	99
Es	1.972858	0.362378	-0.260738	99
Es	1.273030	0.637059	0.448202	99
Es	-0.407683	-1.407408	0.307643	99
Es	-0.809087	-0.234347	0.313848	99
Es	-0.963972	-0.955620	0.526305	99
Es	-2.245772	-1.437346	-0.815820	99
Es	-1.001370	-0.992310	1.282461	99
Es	1.926897	-0.158693	0.607481	99
Es	0.665826	1.775149	0.555864	99
Es	2.436885	0.513424	-0.895734	99
47
Properties=species:S:1:pos:R:3:Z:I:1 energy=-305.3236668345006 field_type=dipole dipole="0.000000 0.000000 0.000000" charge=0
C	-2.271140	-1.458291	-0.067806	6
C	-0.963950	-0.955641	0.526324	6
C	-0.670620	0.483979	0.095724	6
C	0.601980	1.048389	0.726904	6
N	1.785240	0.343149	0.285624	7
C	2.436930	0.513509	-0.895926	6
N	2.223690	1.385089	-1.809316	7
H	-2.457710	-2.490131	0.245304	1
H	-2.239450	-1.435811	-1.161686	1
H	-3.114850	-0.845321	0.264514	1
H	-0.152030	-1.619231	0.207344	1
H	-1.021340	-1.013321	1.619204	1
H	-1.512760	1.121969	0.391534	1
H	-0.603170	0.533909	-0.997936	1
H	0.536749	0.976419	1.818624	1
H	0.689579	2.115839	0.493734	1
H	2.031139	-0.477791	0.829094	1
H	3.253580	-0.217641	-1.032576	1
H	1.448140	1.990929	-1.538676	1
Es	2.407447	1.425043	-2.116756	99
Es	2.471432	1.224697	-1.311230	99
Es	0.602122	1.048284	0.726832	99
Es	2.110486	0.876123	-1.573799	99
Es	1.979390	0.367995	-0.260648	99
Es	-2.398089	-2.165599	0.150370	99
Es	2.987250	0.009042	-0.975251	99
Es	-0.808970	-0.234365	0.313816	99
Es	-2.840299	-1.036488	0.160902	99
Es	-1.001234	-0.992660	1.282696	99
Es	-0.028154	0.763107	0.408511	99
Es	2.436886	0.513426	-0.895734	99
Es	0.665735	1.775487	0.555416	99
Es	-0.408275	-1.407235	0.307629	99
Es	1.929413	-0.157357	0.609768	99
Es	0.559393	0.985847	1.472801	99
Es	-1.620217	-1.203729	0.226876	99
Es	-2.271117	-1.458283	-0.067793	99
Es	2.223458	1.385000	-1.808845	99
Es	1.272661	0.636446	0.447582	99
Es	-0.619276	0.519824	-0.650266	99
Es	1.968743	0.466255	0.262242	99
Es	1.784866	0.342653	0.284863	99
Es	-1.243507	0.920998	0.304562	99
Es	1.748865	1.742104	-1.629945	99
Es	-0.963973	-0.955621	0.526304	99
Es	-2.245838	-1.436856	-0.816069	99
Es	-0.670597	0.483970	0.095754	99
47
Properties=species:S:1:pos:R:3:Z:I:1 energy=-305.3236668345006 field_type=dipole dipole="0.000000 0.000000 0.000000" charge=0
C	-2.271140	-1.458291	-0.067806	6
C	-0.963950	-0.955641	0.526324	6
C	-0.670620	0.483979	0.095724	6
C	0.601980	1.048389	0.726904	6
N	1.785240	0.343149	0.285624	7
C	2.436930	0.513509	-0.895926	6
N	2.223690	1.385089	-1.809316	7
H	-2.457710	-2.490131	0.245304	1
H	-2.239450	-1.435811	-1.161686	1
H	-3.114850	-0.845321	0.264514	1
H	-0.152030	-1.619231	0.207344	1
H	-1.021340	-1.013321	1.619204	1
H	-1.512760	1.121969	0.391534	1
H	-0.603170	0.533909	-0.997936	1
H	0.536749	0.976419	1.818624	1
H	0.689579	2.115839	0.493734	1
H	2.031139	-0.477791	0.829094	1
H	3.253580	-0.217641	-1.032576	1
H	1.448140	1.990929	-1.538676	1
Es	-0.670597	0.483971	0.095754	99
Es	2.471497	1.226454	-1.311664	99
Es	0.665753	1.775679	0.555122	99
Es	-2.271116	-1.458283	-0.067794	99
Es	-0.963972	-0.955620	0.526304	99
Es	-0.408734	-1.406969	0.307558	99
Es	1.748664	1.742159	-1.630908	99
Es	1.930315	-0.156898	0.610920	99
Es	0.559218	0.985402	1.473001	99
Es	1.784910	0.342814	0.285223	99
Es	-0.027995	0.763394	0.408334	99
Es	2.407076	1.423581	-2.117188	99
Es	1.980807	0.369414	-0.260517	99
Es	1.966325	0.464155	0.260954	99
Es	2.436883	0.513424	-0.895739	99
Es	1.272544	0.636448	0.447109	99
Es	2.110743	0.876014	-1.571878	99
Es	2.223448	1.384995	-1.808846	99
Es	0.602123	1.048285	0.726833	99
Es	-1.243172	0.920783	0.304607	99
Es	-2.839803	-1.036683	0.160915	99
Es	-1.620241	-1.203724	0.226795	99
Es	-0.619427	0.520084	-0.650441	99
Es	-0.808877	-0.234352	0.313845	99
Es	-1.001124	-0.993044	1.282956	99
Es	2.987294	0.008994	-0.975167	99
Es	-2.245938	-1.436487	-0.816260	99
Es	-2.398005	-2.165882	0.150760	99
47
Properties=species:S:1:pos:R:3:Z:I:1 energy=-305.3236668345006 field_type=dipole dipole="0.000000 0.000000 0.000000" charge=0
C	-2.271140	-1.458291	-0.067806	6
C	-0.963950	-0.955641	0.526324	6
C	-0.670620	0.483979	0.095724	6
C	0.601980	1.048389	0.726904	6
N	1.785240	0.343149	0.285624	7
C	2.436930	0.513509	-0.895926	6
N	2.223690	1.385089	-1.809316	7
H	-2.457710	-2.490131	0.245304	1
H	-2.239450	-1.435811	-1.161686	1
H	-3.114850	-0.845321	0.264514	1
H	-0.152030	-1.619231	0.207344	1
H	-1.021340	-1.013321	1.619204	1
H	-1.512760	1.121969	0.391534	1
H	-0.603170	0.533909	-0.997936	1
H	0.536749	0.976419	1.818624	1
H	0.689579	2.115839	0.493734	1
H	2.031139	-0.477791	0.829094	1
H	3.253580	-0.217641	-1.032576	1
H	1.448140	1.990929	-1.538676	1
Es	-2.398060	-2.166087	0.150967	99
Es	0.559422	0.985326	1.473040	99
Es	2.472282	1.226979	-1.311623	99
Es	0.602124	1.048286	0.726833	99
Es	-0.409118	-1.406738	0.307495	99
Es	-0.963971	-0.955620	0.526305	99
Es	-0.619672	0.520557	-0.650672	99
Es	2.223447	1.384996	-1.808846	99
Es	-1.620137	-1.203659	0.226765	99
Es	-0.670597	0.483970	0.095753	99
Es	-2.839283	-1.036990	0.160936	99
Es	1.988547	0.376301	-0.259743	99
Es	-1.242539	0.920540	0.304722	99
Es	-1.001048	-0.993441	1.283117	99
Es	1.932014	-0.155935	0.612452	99
Es	2.110430	0.875675	-1.572006	99
Es	2.406357	1.422717	-2.116359	99
Es	2.436882	0.513422	-0.895736	99
Es	-2.246173	-1.436090	-0.816416	99
Es	0.665631	1.775836	0.554737	99
Es	-0.809057	-0.234336	0.313886	99
Es	1.784851	0.342682	0.284959	99
Es	1.956949	0.456295	0.259044	99
Es	-2.271117	-1.458284	-0.067793	99
Es	1.272558	0.636873	0.447065	99
Es	-0.028027	0.763067	0.408470	99
Es	2.987386	0.008986	-0.975020	99
Es	1.748521	1.742779	-1.631742	99
47
Properties=species:S:1:pos:R:3:Z:I:1 energy=-305.3236668345006 field_type=dipole dipole="0.000000 0.000000 0.000000" charge=0
C	-2.271140	-1.458291	-0.067806	6
C	-0.963950	-0.955641	0.526324	6
C	-0.670620	0.483979	0.095724	6
C	0.601980	1.048389	0.726904	6
N	1.785240	0.343149	0.285624	7
C	2.436930	0.513509	-0.895926	6
N	2.223690	1.385089	-1.809316	7
H	-2.457710	-2.490131	0.245304	1
H	-2.239450	-1.435811	-1.161686	1
H	-3.114850	-0.845321	0.264514	1
H	-0.152030	-1.619231	0.207344	1
H	-1.021340	-1.013321	1.619204	1
H	-1.512760	1.121969	0.391534	1
H	-0.603170	0.533909	-0.997936	1
H	0.536749	0.976419	1.818624	1
H	0.689579	2.115839	0.493734	1
H	2.031139	-0.477791	0.829094	1
H	3.253580	-0.217641	-1.032576	1
H	1.448140	1.990929	-1.538676	1
Es	0.665489	1.775977	0.554350	99
Es	-1.242149	0.920440	0.304900	99
Es	-1.000777	-0.993536	1.283213	99
Es	0.602123	1.048287	0.726833	99
Es	-0.670596	0.483970	0.095754	99
Es	2.472427	1.228634	-1.312205	99
Es	-2.838905	-1.037191	0.160942	99
Es	-0.619905	0.520858	-0.650811	99
Es	1.955306	0.455384	0.258550	99
Es	-2.271113	-1.458282	-0.067792	99
Es	2.223438	1.384995	-1.808836	99
Es	-0.027732	0.763080	0.408424	99
Es	2.406048	1.421596	-2.116513	99
Es	-0.963972	-0.955620	0.526304	99
Es	1.989193	0.376829	-0.259583	99
Es	-1.620502	-1.203667	0.226794	99
Es	2.436884	0.513424	-0.895733	99
Es	1.933261	-0.155116	0.613541	99
Es	0.559301	0.985066	1.473189	99
Es	-2.397908	-2.166302	0.151307	99
Es	2.110926	0.875342	-1.570355	99
Es	-0.409391	-1.406605	0.307441	99
Es	1.748195	1.742807	-1.632567	99
Es	1.784877	0.342628	0.284740	99
Es	-2.246241	-1.435786	-0.816580	99
Es	-0.809086	-0.234424	0.313837	99
Es	1.272117	0.636350	0.446465	99
Es	2.987293	0.008973	-0.975020	99
47
Properties=species:S:1:pos:R:3:Z:I:1 energy=-305.3236668345006 field_type=dipole dipole="0.000000 0.000000 0.000000" charge=0
C	-2.271140	-1.458291	-0.067806	6
C	-0.963950	-0.955641	0.526324	6
C	-0.670620	0.483979	0.095724	6
C	0.601980	1.048389	0.726904	6
N	1.785240	0.343149	0.285624	7
C	2.436930	0.513509	-0.895926	6
N	2.223690	1.385089	-1.809316	7
H	-2.457710	-2.490131	0.245304	1
H	-2.239450	-1.435811	-1.161686	1
H	-3.114850	-0.845321	0.264514	1
H	-0.152030	-1.619231	0.207344	1
H	-1.021340	-1.013321	1.619204	1
H	-1.512760	1.121969	0.391534	1
H	-0.603170	0.533909	-0.997936	1
H	0.536749	0.976419	1.818624	1
H	0.689579	2.115839	0.493734	1
H	2.031139	-0.477791	0.829094	1
H	3.253580	-0.217641	-1.032576	1
H	1.448140	1.990929	-1.538676	1
Es	-1.241909	0.920278	0.304827	99
Es	-0.409761	-1.406414	0.307397	99
Es	2.472418	1.227294	-1.311057	99
Es	2.406400	1.421591	-2.115471	99
Es	1.784870	0.342667	0.284894	99
Es	-2.838687	-1.037191	0.160946	99
Es	0.559248	0.984816	1.473246	99
Es	-2.397884	-2.166389	0.151521	99
Es	1.953542	0.453957	0.257807	99
Es	0.665416	1.776129	0.554107	99
Es	2.436881	0.513421	-0.895737	99
Es	-0.670597	0.483970	0.095754	99
Es	1.272075	0.636121	0.446219	99
Es	-2.271117	-1.458284	-0.067793	99
Es	-0.619920	0.521024	-0.650923	99
Es	0.602124	1.048287	0.726833	99
Es	2.987391	0.009022	-0.975013	99
Es	-0.809085	-0.234324	0.313886	99
Es	1.933859	-0.154600	0.614321	99
Es	-2.246184	-1.435655	-0.816681	99
Es	-0.963971	-0.955621	0.526304	99
Es	1.748127	1.743418	-1.633103	99
Es	2.110408	0.876141	-1.572005	99
Es	-1.000749	-0.993911	1.283365	99
Es	2.223436	1.384989	-1.808823	99
Es	-1.620442	-1.203717	0.226727	99
Es	-0.027601	0.763171	0.408549	99
Es	1.990311	0.377920	-0.259508	99
47
Properties=species:S:1:pos:R:3:Z:I:1 energy=-305.3236668345006 field_type=dipole dipole="0.000000 0.000000 0.000000" charge=0
C	-2.271140	-1.458291	-0.067806	6
C	-0.963950	-0.955641	0.526324	6
C	-0.670620	0.483979	0.095724	6
C	0.601980	1.048389	0.726904	6
N	1.785240	0.343149	0.285624	7
C	2.436930	0.513509	-0.895926	6
N	2.223690	1.385089	-1.809316	7
H	-2.457710	-2.490131	0.245304	1
H	-2.239450	-1.435811	-1.161686	1
H	-3.114850	-0.845321	0.264514	1
H	-0.152030	-1.619231	0.207344	1
H	-1.021340	-1.013321	1.619204	1
H	-1.512760	1.121969	0.391534	1
H	-0.603170	0.533909	-0.997936	1
H	0.536749	0.976419	1.818624	1
H	0.689579	2.115839	0.493734	1
H	2.031139	-0.477791	0.829094	1
H	3.253580	-0.217641	-1.032576	1
H	1.448140	1.990929	-1.538676	1
Es	1.785044	0.342987	0.285454	99
Es	0.602124	1.048286	0.726832	99
Es	-1.241694	0.920085	0.304790	99
Es	-0.619981	0.521191	-0.651029	99
Es	-0.809073	-0.234369	0.313907	99
Es	-0.027686	0.763278	0.408594	99
Es	1.993530	0.381420	-0.259046	99
Es	2.472954	1.228735	-1.311393	99
Es	1.935124	-0.154022	0.615046	99
Es	-0.409874	-1.406290	0.307466	99
Es	2.405713	1.420780	-2.115281	99
Es	2.223453	1.384989	-1.808843	99
Es	-2.397894	-2.166564	0.151728	99
Es	2.987435	0.008937	-0.974842	99
Es	2.110620	0.875564	-1.571113	99
Es	2.436885	0.513423	-0.895732	99
Es	-2.271117	-1.458283	-0.067793	99
Es	1.272235	0.636428	0.446556	99
Es	0.559284	0.984657	1.473255	99
Es	-1.000645	-0.993935	1.283395	99
Es	-0.963972	-0.955619	0.526305	99
Es	1.948681	0.449364	0.255597	99
Es	1.747859	1.743396	-1.633841	99
Es	-2.246491	-1.435323	-0.816781	99
Es	-1.620517	-1.203735	0.226661	99
Es	0.665419	1.776240	0.553986	99
Es	-0.670597	0.483970	0.095753	99
Es	-2.838217	-1.037478	0.160960	99
47
Properties=species:S:1:pos:R:3:Z:I:1 energy=-305.3236668345006 field_type=dipole dipole="0.000000 0.000000 0.000000" charge=0
C	-2.271140	-1.458291	-0.067806	6
C	-0.963950	-0.955641	0.526324	6
C	-0.670620	0.483979	0.095724	6
C	0.601980	1.048389	0.726904	6
N	1.785240	0.343149	0.285624	7
C	2.436930	0.513509	-0.895926	6
N	2.223690	1.385089	-1.809316	7
H	-2.457710	-2.490131	0.245304	1
H	-2.239450	-1.435811	-1.161686	1
H	-3.114850	-0.845321	0.264514	1
H	-0.152030	-1.619231	0.207344	1
H	-1.021340	-1.013321	1.619204	1
H	-1.512760	1.121969	0.391534	1
H	-0.603170	0.533909	-0.997936	1
H	0.536749	0.976419	1.818624	1
H	0.689579	2.115839	0.493734	1
H	2.031139	-0.477791	0.829094	1
H	3.253580	-0.217641	-1.032576	1
H	1.448140	1.990929	-1.538676	1
Es	0.665312	1.776361	0.553789	99
Es	2.987569	0.009042	-0.974844	99
Es	-1.241532	0.920022	0.304818	99
Es	-2.246606	-1.435115	-0.816930	99
Es	-0.963972	-0.955620	0.526304	99
Es	0.559282	0.984494	1.473269	99
Es	2.472620	1.226207	-1.309410	99
Es	0.602124	1.048285	0.726832	99
Es	-0.670596	0.483970	0.095753	99
Es	1.994369	0.382154	-0.258958	99
Es	1.272234	0.636230	0.446333	99
Es	-0.027602	0.763308	0.408526	99
Es	2.406486	1.421042	-2.114227	99
Es	-0.620105	0.521271	-0.651085	99
Es	-1.000539	-0.994166	1.283484	99
Es	1.947822	0.448872	0.255937	99
Es	-2.271117	-1.458284	-0.067793	99
Es	1.747957	1.744035	-1.634281	99
Es	2.223467	1.384980	-1.808853	99
Es	-1.620454	-1.203937	0.226636	99
Es	-2.837901	-1.037519	0.161106	99
Es	-0.410140	-1.406133	0.307436	99
Es	2.109785	0.877230	-1.573654	99
Es	1.784870	0.342658	0.284853	99
Es	2.436885	0.513425	-0.895733	99
Es	-2.397883	-2.166615	0.151892	99
Es	-0.809050	-0.234302	0.313937	99
Es	1.935318	-0.153787	0.615450	99
47
Properties=species:S:1:pos:R:3:Z:I:1 energy=-305.3236668345006 field_type=dipole dipole="0.000000 0.000000 0.000000" charge=0
C	-2.271140	-1.458291	-0.067806	6
C	-0.963950	-0.955641	0.526324	6
C	-0.670620	0.483979	0.095724	6
C	0.601980	1.048389	0.726904	6
N	1.785240	0.343149	0.285624	7
C	2.436930	0.513509	-0.895926	6
N	2.223690	1.385089	-1.809316	7
H	-2.457710	-2.490131	0.245304	1
H	-2.239450	-1.435811	-1.161686	1
H	-3.114850	-0.845321	0.264514	1
H	-0.152030	-1.619231	0.207344	1
H	-1.021340	-1.013321	1.619204	1
H	-1.512760	1.121969	0.391534	1
H	-0.603170	0.533909	-0.997936	1
H	0.536749	0.976419	1.818624	1
H	0.689579	2.115839	0.493734	1
H	2.031139	-0.477791	0.829094	1
H	3.253580	-0.217641	-1.032576	1
H	1.448140	1.990929	-1.538676	1
Es	-2.271118	-1.458284	-0.067794	99
Es	-2.246724	-1.434966	-0.817058	99
Es	-0.809008	-0.234397	0.313954	99
Es	-2.837660	-1.037781	0.161033	99
Es	0.602122	1.048287	0.726834	99
Es	1.942857	0.444953	0.255984	99
Es	-1.000369	-0.994395	1.283623	99
Es	-2.397841	-2.166658	0.152082	99
Es	1.747970	1.744551	-1.634898	99
Es	1.785554	0.342523	0.283141	99
Es	1.998007	0.385003	-0.258016	99
Es	2.405679	1.419774	-2.114149	99
Es	-1.620598	-1.203797	0.226565	99
Es	2.473296	1.227730	-1.310371	99
Es	2.109812	0.876512	-1.572159	99
Es	0.559332	0.984295	1.473340	99
Es	-0.620235	0.521579	-0.651198	99
Es	1.936082	-0.153119	0.616235	99
Es	-0.410395	-1.405889	0.307376	99
Es	-1.241237	0.919835	0.304908	99
Es	-0.963972	-0.955620	0.526305	99
Es	2.436887	0.513427	-0.895734	99
Es	1.272053	0.636959	0.446178	99
Es	0.665295	1.776401	0.553711	99
Es	2.223455	1.384986	-1.808842	99
Es	-0.027591	0.763293	0.408550	99
Es	-0.670597	0.483970	0.095753	99
Es	2.987543	0.008937	-0.974765	99
47
Properties=species:S:1:pos:R:3:Z:I:1 energy=-305.3236668345006 field_type=dipole dipole="0.000000 0.000000 0.000000" charge=0
C	-2.271140	-1.458291	-0.067806	6
C	-0.963950	-0.955641	0.526324	6
C	-0.670620	0.483979	0.095724	6
C	0.601980	1.048389	0.726904	6
N	1.785240	0.343149	0.285624	7
C	2.436930	0.513509	-0.895926	6
N	2.223690	1.385089	-1.809316	7
H	-2.457710	-2.490131	0.245304	1
H	-2.239450	-1.435811	-1.161686	1
H	-3.114850	-0.845321	0.264514	1
H	-0.152030	-1.619231	0.207344	1
H	-1.021340	-1.013321	1.619204	1
H	-1.512760	1.121969	0.391534	1
H	-0.603170	0.533909	-0.997936	1
H	0.536749	0.976419	1.818624	1
H	0.689579	2.115839	0.493734	1
H	2.031139	-0.477791	0.829094	1
H	3.253580	-0.217641	-1.032576	1
H	1.448140	1.990929	-1.538676	1
Es	-2.246846	-1.434726	-0.817061	99
Es	-0.620316	0.521797	-0.651290	99
Es	-2.837399	-1.037942	0.161007	99
Es	-1.000172	-0.994548	1.283704	99
Es	2.987612	0.009006	-0.974724	99
Es	0.559286	0.984205	1.473425	99
Es	2.223439	1.384994	-1.808839	99
Es	-2.397840	-2.166815	0.152177	99
Es	1.747467	1.744479	-1.635259	99
Es	-2.271117	-1.458283	-0.067793	99
Es	-0.808828	-0.234436	0.313904	99
Es	0.602122	1.048287	0.726835	99
Es	0.665229	1.776440	0.553488	99
Es	-0.410620	-1.405792	0.307267	99
Es	1.943164	0.444479	0.254064	99
Es	-1.620626	-1.203727	0.226650	99
Es	2.405795	1.420081	-2.113365	99
Es	-0.670596	0.483970	0.095753	99
Es	2.110004	0.876866	-1.573391	99
Es	-0.963972	-0.955620	0.526304	99
Es	1.998108	0.385552	-0.258101	99
Es	1.784857	0.342716	0.285053	99
Es	2.436886	0.513426	-0.895731	99
Es	1.936312	-0.153108	0.616354	99
Es	1.272074	0.636677	0.446174	99
Es	-1.241151	0.919817	0.305157	99
Es	2.473331	1.227117	-1.309584	99
Es	-0.027603	0.763196	0.408408	99
