48
Properties=species:S:1:pos:R:3:Z:I:1 energy=-289.29770266347043 field_type=dipole dipole="0.000000 0.000000 0.000000" charge=0
C	-3.196089	-0.998680	0.430220	6
C	-1.693609	-1.231429	0.415459	6
C	-0.929909	0.076270	0.204770	6
N	0.508471	-0.191199	0.190439	7
C	1.267771	1.037540	-0.019941	6
C	2.729081	0.712210	-0.012041	6
C	3.570901	0.960070	-1.024291	6
H	-3.725019	-1.943909	0.590369	1
H	-3.537589	-0.576120	-0.521121	1
H	-3.480319	-0.310329	1.233359	1
H	-1.451679	-1.942990	-0.382321	1
H	-1.394019	-1.692110	1.363809	1
H	-1.173129	0.774150	1.015469	1
H	-1.240819	0.534531	-0.742471	1
H	0.723791	-0.839589	-0.566771	1
H	1.069701	1.749161	0.789449	1
H	0.980191	1.511750	-0.965281	1
H	3.115111	0.249811	0.894599	1
H	3.235171	1.422240	-1.947320	1
H	4.621991	0.698620	-0.946391	1
Es	-1.490107	-1.542576	1.063865	99
Es	0.606010	-0.336562	0.499156	99
Es	-3.556811	-1.643954	0.539418	99
Es	1.072822	1.368533	-0.676499	99
Es	3.091675	0.542174	-0.658208	99
Es	-1.313195	-0.576376	0.306688	99
Es	-0.112774	-0.058804	0.170517	99
Es	3.220638	1.133385	-0.407950	99
Es	-3.426538	-0.707927	-0.221440	99
Es	-1.523262	-1.715529	-0.138257	99
Es	-0.929784	0.076221	0.204770	99
Es	-1.093573	0.558061	0.760698	99
Es	1.133091	1.519137	0.531748	99
Es	3.346749	1.274158	-1.654052	99
Es	1.267755	1.037420	-0.019915	99
Es	3.570968	0.960084	-1.024379	99
Es	-2.450265	-1.109493	0.419954	99
Es	-1.693642	-1.231394	0.415441	99
Es	0.508293	-0.190909	0.189874	99
Es	0.627753	-0.565614	-0.287036	99
Es	4.285779	0.786138	-0.979545	99
Es	2.983264	0.399901	0.604831	99
Es	0.830488	0.353484	0.075545	99
Es	2.005813	0.876620	-0.023784	99
Es	-1.149810	0.396563	-0.454700	99
Es	-3.386163	-0.525970	0.979468	99
Es	2.728998	0.712200	-0.011970	99
Es	-3.196070	-0.998682	0.430219	99
48
Properties=species:S:1:pos:R:3:Z:I:1 energy=-289.29770266347043 field_type=dipole dipole="0.000000 0.000000 0.000000" charge=0
C	-3.196089	-0.998680	0.430220	6
C	-1.693609	-1.231429	0.415459	6
C	-0.929909	0.076270	0.204770	6
N	0.508471	-0.191199	0.190439	7
C	1.267771	1.037540	-0.019941	6
C	2.729081	0.712210	-0.012041	6
C	3.570901	0.960070	-1.024291	6
H	-3.725019	-1.943909	0.590369	1
H	-3.537589	-0.576120	-0.521121	1
H	-3.480319	-0.310329	1.233359	1
H	-1.451679	-1.942990	-0.382321	1
H	-1.394019	-1.692110	1.363809	1
H	-1.173129	0.774150	1.015469	1
H	-1.240819	0.534531	-0.742471	1
H	0.723791	-0.839589	-0.566771	1
H	1.069701	1.749161	0.789449	1
H	0.980191	1.511750	-0.965281	1
H	3.115111	0.249811	0.894599	1
H	3.235171	1.422240	-1.947320	1
H	4.621991	0.698620	-0.946391	1
Es	2.005875	0.876551	-0.023565	99
Es	-3.386313	-0.525610	0.980101	99
Es	2.982884	0.400018	0.604704	99
Es	-0.929784	0.076221	0.204770	99
Es	1.073074	1.368124	-0.676642	99
Es	-3.196070	-0.998682	0.430218	99
Es	-0.113335	-0.060029	0.173776	99
Es	-1.093578	0.558268	0.760930	99
Es	1.267755	1.037418	-0.019916	99
Es	0.508311	-0.190927	0.189878	99
Es	3.347111	1.273864	-1.654105	99
Es	3.221279	1.134798	-0.407047	99
Es	-1.313325	-0.576089	0.306695	99
Es	1.133141	1.519675	0.532173	99
Es	0.609027	-0.335292	0.498356	99
Es	3.091231	0.541342	-0.658922	99
Es	-3.426247	-0.708137	-0.221379	99
Es	-1.523313	-1.715997	-0.138643	99
Es	-3.556547	-1.643994	0.538964	99
Es	2.728998	0.712199	-0.011971	99
Es	0.828760	0.353744	0.073525	99
Es	-1.490277	-1.542238	1.064005	99
Es	-2.450131	-1.109668	0.419987	99
Es	3.570968	0.960091	-1.024374	99
Es	-1.149875	0.396304	-0.454707	99
Es	-1.693643	-1.231394	0.415440	99
Es	0.627051	-0.565779	-0.287666	99
Es	4.285076	0.785511	-0.980128	99
48
Properties=species:S:1:pos:R:3:Z:I:1 energy=-289.29770266347043 field_type=dipole dipole="0.000000 0.000000 0.000000" charge=0
C	-3.196089	-0.998680	0.430220	6
C	-1.693609	-1.231429	0.415459	6
C	-0.929909	0.076270	0.204770	6
N	0.508471	-0.191199	0.190439	7
C	1.267771	1.037540	-0.019941	6
C	2.729081	0.712210	-0.012041	6
C	3.570901	0.960070	-1.024291	6
H	-3.725019	-1.943909	0.590369	1
H	-3.537589	-0.576120	-0.521121	1
H	-3.480319	-0.310329	1.233359	1
H	-1.451679	-1.942990	-0.382321	1
H	-1.394019	-1.692110	1.363809	1
H	-1.173129	0.774150	1.015469	1
H	-1.240819	0.534531	-0.742471	1
H	0.723791	-0.839589	-0.566771	1
H	1.069701	1.749161	0.789449	1
H	0.980191	1.511750	-0.965281	1
H	3.115111	0.249811	0.894599	1
H	3.235171	1.422240	-1.947320	1
H	4.621991	0.698620	-0.946391	1
Es	0.508320	-0.190932	0.189886	99
Es	0.626420	-0.565226	-0.288561	99
Es	-3.386354	-0.525343	0.980468	99
Es	-1.313238	-0.576054	0.306645	99
Es	-1.523316	-1.716257	-0.138905	99
Es	3.221742	1.135527	-0.406546	99
Es	3.570969	0.960089	-1.024375	99
Es	4.284519	0.785155	-0.980438	99
Es	-0.114242	-0.061393	0.177258	99
Es	-0.929784	0.076222	0.204769	99
Es	3.347349	1.273836	-1.654198	99
Es	-1.693642	-1.231394	0.415440	99
Es	2.982712	0.400223	0.604586	99
Es	0.827520	0.353999	0.072853	99
Es	1.073221	1.367899	-0.676736	99
Es	1.267754	1.037417	-0.019916	99
Es	3.090856	0.540612	-0.659448	99
Es	-3.426125	-0.708332	-0.221352	99
Es	-1.490421	-1.542063	1.064015	99
Es	-2.450146	-1.109646	0.419957	99
Es	2.006013	0.876640	-0.023191	99
Es	1.133257	1.519954	0.532225	99
Es	0.611620	-0.334754	0.496396	99
Es	2.729000	0.712200	-0.011972	99
Es	-1.093535	0.558263	0.761286	99
Es	-3.196070	-0.998682	0.430219	99
Es	-3.556376	-1.643971	0.538773	99
Es	-1.149920	0.396302	-0.454681	99
48
Properties=species:S:1:pos:R:3:Z:I:1 energy=-289.29770266347043 field_type=dipole dipole="0.000000 0.000000 0.000000" charge=0
C	-3.196089	-0.998680	0.430220	6
C	-1.693609	-1.231429	0.415459	6
C	-0.929909	0.076270	0.204770	6
N	0.508471	-0.191199	0.190439	7
C	1.267771	1.037540	-0.019941	6
C	2.729081	0.712210	-0.012041	6
C	3.570901	0.960070	-1.024291	6
H	-3.725019	-1.943909	0.590369	1
H	-3.537589	-0.576120	-0.521121	1
H	-3.480319	-0.310329	1.233359	1
H	-1.451679	-1.942990	-0.382321	1
H	-1.394019	-1.692110	1.363809	1
H	-1.173129	0.774150	1.015469	1
H	-1.240819	0.534531	-0.742471	1
H	0.723791	-0.839589	-0.566771	1
H	1.069701	1.749161	0.789449	1
H	0.980191	1.511750	-0.965281	1
H	3.115111	0.249811	0.894599	1
H	3.235171	1.422240	-1.947320	1
H	4.621991	0.698620	-0.946391	1
Es	-3.426104	-0.708422	-0.221395	99
Es	1.267754	1.037417	-0.019915	99
Es	-0.929784	0.076222	0.204771	99
Es	-3.386421	-0.525275	0.980703	99
Es	0.826482	0.354180	0.071457	99
Es	-1.490497	-1.541967	1.064192	99
Es	3.347618	1.273901	-1.654379	99
Es	4.284023	0.784941	-0.980505	99
Es	1.133287	1.520128	0.532316	99
Es	2.728997	0.712201	-0.011971	99
Es	0.508323	-0.190916	0.189893	99
Es	-2.450062	-1.109530	0.419904	99
Es	1.073370	1.367720	-0.676981	99
Es	3.090647	0.540232	-0.659785	99
Es	-0.115213	-0.062733	0.181452	99
Es	3.570969	0.960089	-1.024376	99
Es	0.625483	-0.564895	-0.288955	99
Es	-1.093477	0.558212	0.761417	99
Es	-1.150046	0.396254	-0.454843	99
Es	-1.523376	-1.716393	-0.139046	99
Es	-3.556174	-1.643967	0.538664	99
Es	-1.313168	-0.575964	0.306710	99
Es	0.614532	-0.333805	0.494051	99
Es	-1.693643	-1.231394	0.415440	99
Es	3.222094	1.136114	-0.406124	99
Es	-3.196069	-0.998681	0.430220	99
Es	2.982523	0.400171	0.604419	99
Es	2.006034	0.876451	-0.022878	99
48
Properties=species:S:1:pos:R:3:Z:I:1 energy=-289.29770266347043 field_type=dipole dipole="0.000000 0.000000 0.000000" charge=0
C	-3.196089	-0.998680	0.430220	6
C	-1.693609	-1.231429	0.415459	6
C	-0.929909	0.076270	0.204770	6
N	0.508471	-0.191199	0.190439	7
C	1.267771	1.037540	-0.019941	6
C	2.729081	0.712210	-0.012041	6
C	3.570901	0.960070	-1.024291	6
H	-3.725019	-1.943909	0.590369	1
H	-3.537589	-0.576120	-0.521121	1
H	-3.480319	-0.310329	1.233359	1
H	-1.451679	-1.942990	-0.382321	1
H	-1.394019	-1.692110	1.363809	1
H	-1.173129	0.774150	1.015469	1
H	-1.240819	0.534531	-0.742471	1
H	0.723791	-0.839589	-0.566771	1
H	1.069701	1.749161	0.789449	1
H	0.980191	1.511750	-0.965281	1
H	3.115111	0.249811	0.894599	1
H	3.235171	1.422240	-1.947320	1
H	4.621991	0.698620	-0.946391	1
Es	0.508327	-0.190914	0.189893	99
Es	0.625017	-0.564717	-0.289214	99
Es	1.267755	1.037418	-0.019916	99
Es	-1.693642	-1.231395	0.415440	99
Es	2.006046	0.876499	-0.022707	99
Es	-0.929788	0.076222	0.204771	99
Es	-3.196069	-0.998682	0.430220	99
Es	4.283596	0.784730	-0.980552	99
Es	2.982327	0.399929	0.604422	99
Es	1.073591	1.367551	-0.677202	99
Es	1.133283	1.520283	0.532359	99
Es	-1.093482	0.558088	0.761491	99
Es	-1.523199	-1.716385	-0.139271	99
Es	-0.116299	-0.064378	0.186154	99
Es	-3.426047	-0.708422	-0.221670	99
Es	0.825645	0.354317	0.070552	99
Es	-2.450196	-1.109520	0.419976	99
Es	0.616969	-0.332402	0.490581	99
Es	3.570969	0.960086	-1.024378	99
Es	3.347836	1.274066	-1.654522	99
Es	-1.490581	-1.541916	1.064311	99
Es	-3.555765	-1.644007	0.538531	99
Es	2.728997	0.712193	-0.011973	99
Es	3.090383	0.540153	-0.660019	99
Es	-3.386563	-0.525350	0.981021	99
Es	-1.150127	0.396287	-0.454900	99
Es	-1.313345	-0.575806	0.306880	99
Es	3.222466	1.136363	-0.405819	99
48
Properties=species:S:1:pos:R:3:Z:I:1 energy=-289.29770266347043 field_type=dipole dipole="0.000000 0.000000 0.000000" charge=0
C	-3.196089	-0.998680	0.430220	6
C	-1.693609	-1.231429	0.415459	6
C	-0.929909	0.076270	0.204770	6
N	0.508471	-0.191199	0.190439	7
C	1.267771	1.037540	-0.019941	6
C	2.729081	0.712210	-0.012041	6
C	3.570901	0.960070	-1.024291	6
H	-3.725019	-1.943909	0.590369	1
H	-3.537589	-0.576120	-0.521121	1
H	-3.480319	-0.310329	1.233359	1
H	-1.451679	-1.942990	-0.382321	1
H	-1.394019	-1.692110	1.363809	1
H	-1.173129	0.774150	1.015469	1
H	-1.240819	0.534531	-0.742471	1
H	0.723791	-0.839589	-0.566771	1
H	1.069701	1.749161	0.789449	1
H	0.980191	1.511750	-0.965281	1
H	3.115111	0.249811	0.894599	1
H	3.235171	1.422240	-1.947320	1
H	4.621991	0.698620	-0.946391	1
Es	1.267755	1.037419	-0.019915	99
Es	-0.929785	0.076223	0.204771	99
Es	3.222760	1.136705	-0.405547	99
Es	-1.490624	-1.541901	1.064532	99
Es	-3.426007	-0.708380	-0.221650	99
Es	-1.150143	0.396340	-0.454967	99
Es	-0.117089	-0.066277	0.191278	99
Es	3.570969	0.960086	-1.024379	99
Es	1.073662	1.367523	-0.677355	99
Es	3.348126	1.274188	-1.654837	99
Es	0.619840	-0.331183	0.487347	99
Es	2.982220	0.399831	0.604298	99
Es	0.508330	-0.190900	0.189856	99
Es	-2.450005	-1.109496	0.419925	99
Es	2.006107	0.876404	-0.022452	99
Es	4.283071	0.784530	-0.980448	99
Es	0.824323	0.354356	0.069250	99
Es	-3.555666	-1.643907	0.538308	99
Es	-1.523322	-1.716435	-0.139378	99
Es	1.133331	1.520260	0.532332	99
Es	-1.313315	-0.575795	0.306739	99
Es	-3.386646	-0.525409	0.981274	99
Es	2.728996	0.712201	-0.011971	99
Es	-3.196070	-0.998681	0.430221	99
Es	-1.693642	-1.231393	0.415438	99
Es	0.624194	-0.564003	-0.289651	99
Es	-1.093490	0.557978	0.761630	99
Es	3.090223	0.540007	-0.660192	99
