41
Properties=species:S:1:pos:R:3:Z:I:1 energy=-302.8807999525214 field_type=dipole dipole="0.000000 0.000000 0.000000" charge=0
C	-0.475708	-1.464465	0.942984	6
C	-0.218688	-0.948255	-0.462066	6
C	0.324502	0.452885	-0.423346	6
N	-0.313928	1.582695	-0.405136	7
N	-1.666158	1.499005	-0.432116	7
C	1.751602	0.659365	-0.358936	6
C	2.939532	0.826915	-0.303916	6
H	-0.860758	-2.488115	0.907564	1
H	-1.207948	-0.841805	1.467004	1
H	0.444162	-1.465655	1.537144	1
H	-1.141388	-0.978135	-1.050006	1
H	0.505902	-1.598895	-0.965026	1
H	-2.045178	2.407475	-0.715256	1
H	-2.027588	1.369484	0.517094	1
H	3.991642	0.987505	-0.255986	1
Es	1.751343	0.659324	-0.358947	99
Es	-0.976232	-1.034584	1.294907	99
Es	-0.834455	-0.960428	-0.853298	99
Es	-1.853696	1.422595	0.142527	99
Es	-0.996725	1.530843	-0.402948	99
Es	0.324643	0.452877	-0.423294	99
Es	-0.041109	1.070805	-0.119994	99
Es	1.070361	0.539989	-0.390933	99
Es	-1.765132	1.235533	-0.647252	99
Es	2.410642	0.420971	-0.491177	99
Es	0.278497	-1.379978	-0.798279	99
Es	2.309875	1.036633	-0.521083	99
Es	-0.314276	1.582138	-0.405134	99
Es	0.150613	-1.462644	1.341602	99
Es	-1.882971	2.053799	-0.588369	99
Es	3.625192	0.930487	-0.272319	99
Es	-0.475704	-1.464441	0.942937	99
Es	2.939770	0.826948	-0.303895	99
Es	-0.149815	1.922058	-0.410879	99
Es	-1.665913	1.499445	-0.431734	99
Es	2.305349	0.753999	0.020505	99
Es	-0.737426	-2.158769	0.913485	99
Es	-0.218651	-0.948177	-0.462014	99
Es	0.059390	-0.229024	-0.441143	99
Es	-0.341684	-1.185436	0.235932	99
Es	-0.018344	1.065063	-0.693741	99
41
Properties=species:S:1:pos:R:3:Z:I:1 energy=-302.8807999525214 field_type=dipole dipole="0.000000 0.000000 0.000000" charge=0
C	-0.475708	-1.464465	0.942984	6
C	-0.218688	-0.948255	-0.462066	6
C	0.324502	0.452885	-0.423346	6
N	-0.313928	1.582695	-0.405136	7
N	-1.666158	1.499005	-0.432116	7
C	1.751602	0.659365	-0.358936	6
C	2.939532	0.826915	-0.303916	6
H	-0.860758	-2.488115	0.907564	1
H	-1.207948	-0.841805	1.467004	1
H	0.444162	-1.465655	1.537144	1
H	-1.141388	-0.978135	-1.050006	1
H	0.505902	-1.598895	-0.965026	1
H	-2.045178	2.407475	-0.715256	1
H	-2.027588	1.369484	0.517094	1
H	3.991642	0.987505	-0.255986	1
Es	1.751340	0.659328	-0.358948	99
Es	-0.839393	-0.960116	-0.852042	99
Es	2.939780	0.826942	-0.303905	99
Es	3.627744	0.925198	-0.273040	99
Es	-0.736267	-2.155848	0.910194	99
Es	-0.475704	-1.464441	0.942937	99
Es	2.311085	1.022844	-0.539454	99
Es	-1.888030	2.054188	-0.590150	99
Es	0.057923	-0.228922	-0.438261	99
Es	-0.995362	1.529974	-0.405100	99
Es	-0.314271	1.582116	-0.405135	99
Es	-1.665860	1.499505	-0.431709	99
Es	0.282185	-1.382463	-0.796930	99
Es	2.302442	0.786625	-0.001982	99
Es	-1.763969	1.242698	-0.638091	99
Es	0.324646	0.452871	-0.423309	99
Es	-0.218649	-0.948178	-0.462016	99
Es	2.412012	0.403251	-0.451132	99
Es	-0.040090	1.071775	-0.121648	99
Es	-0.340845	-1.184322	0.235173	99
Es	-0.980262	-1.032991	1.293830	99
Es	-1.855035	1.418876	0.137240	99
Es	-0.149786	1.915831	-0.411135	99
Es	-0.018000	1.065386	-0.691409	99
Es	0.155142	-1.463858	1.341181	99
Es	1.070768	0.543756	-0.389695	99
41
Properties=species:S:1:pos:R:3:Z:I:1 energy=-302.8807999525214 field_type=dipole dipole="0.000000 0.000000 0.000000" charge=0
C	-0.475708	-1.464465	0.942984	6
C	-0.218688	-0.948255	-0.462066	6
C	0.324502	0.452885	-0.423346	6
N	-0.313928	1.582695	-0.405136	7
N	-1.666158	1.499005	-0.432116	7
C	1.751602	0.659365	-0.358936	6
C	2.939532	0.826915	-0.303916	6
H	-0.860758	-2.488115	0.907564	1
H	-1.207948	-0.841805	1.467004	1
H	0.444162	-1.465655	1.537144	1
H	-1.141388	-0.978135	-1.050006	1
H	0.505902	-1.598895	-0.965026	1
H	-2.045178	2.407475	-0.715256	1
H	-2.027588	1.369484	0.517094	1
H	3.991642	0.987505	-0.255986	1
Es	-0.039716	1.072251	-0.123051	99
Es	3.628536	0.923312	-0.274011	99
Es	-1.857287	1.411952	0.132873	99
Es	-0.994757	1.528889	-0.406083	99
Es	0.056735	-0.229114	-0.436036	99
Es	2.412966	0.386480	-0.396835	99
Es	-0.340133	-1.183416	0.233651	99
Es	1.071138	0.545260	-0.388910	99
Es	0.158514	-1.464152	1.339429	99
Es	-0.314280	1.582108	-0.405135	99
Es	-0.734936	-2.153498	0.908147	99
Es	-0.017792	1.065450	-0.690075	99
Es	-0.475704	-1.464440	0.942936	99
Es	1.751332	0.659328	-0.358947	99
Es	2.312454	0.986769	-0.573170	99
Es	-1.665865	1.499496	-0.431708	99
Es	-0.983130	-1.032191	1.292563	99
Es	-0.149957	1.913035	-0.410768	99
Es	-1.892174	2.054692	-0.589945	99
Es	-0.218652	-0.948183	-0.461992	99
Es	-0.843430	-0.960556	-0.849465	99
Es	0.324647	0.452872	-0.423302	99
Es	2.300052	0.839551	-0.022855	99
Es	-1.759523	1.251222	-0.632810	99
Es	0.284726	-1.384031	-0.795135	99
Es	2.939782	0.826943	-0.303904	99
41
Properties=species:S:1:pos:R:3:Z:I:1 energy=-302.8807999525214 field_type=dipole dipole="0.000000 0.000000 0.000000" charge=0
C	-0.475708	-1.464465	0.942984	6
C	-0.218688	-0.948255	-0.462066	6
C	0.324502	0.452885	-0.423346	6
N	-0.313928	1.582695	-0.405136	7
N	-1.666158	1.499005	-0.432116	7
C	1.751602	0.659365	-0.358936	6
C	2.939532	0.826915	-0.303916	6
H	-0.860758	-2.488115	0.907564	1
H	-1.207948	-0.841805	1.467004	1
H	0.444162	-1.465655	1.537144	1
H	-1.141388	-0.978135	-1.050006	1
H	0.505902	-1.598895	-0.965026	1
H	-2.045178	2.407475	-0.715256	1
H	-2.027588	1.369484	0.517094	1
H	3.991642	0.987505	-0.255986	1
Es	-0.846492	-0.961044	-0.846558	99
Es	-0.151433	1.910213	-0.410750	99
Es	-0.994568	1.528294	-0.406621	99
Es	1.751331	0.659332	-0.358938	99
Es	-0.733550	-2.151213	0.906668	99
Es	0.055967	-0.229634	-0.434795	99
Es	-0.039207	1.072746	-0.122673	99
Es	2.311546	1.010165	-0.551090	99
Es	-1.665827	1.499561	-0.431629	99
Es	-0.016834	1.066265	-0.690290	99
Es	-0.475704	-1.464441	0.942936	99
Es	-0.218650	-0.948178	-0.462016	99
Es	2.939785	0.826950	-0.303912	99
Es	1.071418	0.545785	-0.388795	99
Es	-1.894875	2.054277	-0.590392	99
Es	2.412743	0.388076	-0.408190	99
Es	0.161164	-1.464026	1.337245	99
Es	3.628890	0.921841	-0.274506	99
Es	0.286586	-1.384642	-0.793580	99
Es	2.301112	0.815148	-0.033466	99
Es	-1.756387	1.256619	-0.628797	99
Es	-0.339723	-1.182734	0.232689	99
Es	-1.858676	1.407932	0.130009	99
Es	-0.314271	1.582136	-0.405139	99
Es	0.324646	0.452872	-0.423297	99
Es	-0.985445	-1.032271	1.291348	99
41
Properties=species:S:1:pos:R:3:Z:I:1 energy=-302.8807999525214 field_type=dipole dipole="0.000000 0.000000 0.000000" charge=0
C	-0.475708	-1.464465	0.942984	6
C	-0.218688	-0.948255	-0.462066	6
C	0.324502	0.452885	-0.423346	6
N	-0.313928	1.582695	-0.405136	7
N	-1.666158	1.499005	-0.432116	7
C	1.751602	0.659365	-0.358936	6
C	2.939532	0.826915	-0.303916	6
H	-0.860758	-2.488115	0.907564	1
H	-1.207948	-0.841805	1.467004	1
H	0.444162	-1.465655	1.537144	1
H	-1.141388	-0.978135	-1.050006	1
H	0.505902	-1.598895	-0.965026	1
H	-2.045178	2.407475	-0.715256	1
H	-2.027588	1.369484	0.517094	1
H	3.991642	0.987505	-0.255986	1
Es	0.055170	-0.230300	-0.432961	99
Es	0.162894	-1.463905	1.335249	99
Es	1.071570	0.546277	-0.388105	99
Es	-0.475703	-1.464439	0.942929	99
Es	1.751327	0.659341	-0.358932	99
Es	-0.037039	1.074649	-0.122148	99
Es	-0.218649	-0.948178	-0.462016	99
Es	-0.848483	-0.961614	-0.843757	99
Es	2.318801	0.841234	-0.613867	99
Es	2.939788	0.826936	-0.303912	99
Es	2.406407	0.380479	-0.284777	99
Es	3.629057	0.921307	-0.276064	99
Es	-1.868973	1.389173	0.124453	99
Es	0.287787	-1.384919	-0.792471	99
Es	-1.898384	2.053162	-0.592825	99
Es	2.300161	0.991569	-0.093446	99
Es	-1.665855	1.499507	-0.431697	99
Es	0.324647	0.452872	-0.423297	99
Es	-0.987087	-1.032618	1.290437	99
Es	-0.339484	-1.182296	0.231709	99
Es	-0.994451	1.526803	-0.407993	99
Es	-0.017920	1.065187	-0.689458	99
Es	-1.743039	1.278019	-0.619367	99
Es	-0.314290	1.582069	-0.405126	99
Es	-0.152285	1.908870	-0.413243	99
Es	-0.732420	-2.149156	0.906146	99
41
Properties=species:S:1:pos:R:3:Z:I:1 energy=-302.8807999525214 field_type=dipole dipole="0.000000 0.000000 0.000000" charge=0
C	-0.475708	-1.464465	0.942984	6
C	-0.218688	-0.948255	-0.462066	6
C	0.324502	0.452885	-0.423346	6
N	-0.313928	1.582695	-0.405136	7
N	-1.666158	1.499005	-0.432116	7
C	1.751602	0.659365	-0.358936	6
C	2.939532	0.826915	-0.303916	6
H	-0.860758	-2.488115	0.907564	1
H	-1.207948	-0.841805	1.467004	1
H	0.444162	-1.465655	1.537144	1
H	-1.141388	-0.978135	-1.050006	1
H	0.505902	-1.598895	-0.965026	1
H	-2.045178	2.407475	-0.715256	1
H	-2.027588	1.369484	0.517094	1
H	3.991642	0.987505	-0.255986	1
Es	-1.665858	1.499487	-0.431687	99
Es	-0.475703	-1.464440	0.942935	99
Es	0.164460	-1.463786	1.333098	99
Es	-1.863900	1.395876	0.124486	99
Es	0.289261	-1.384208	-0.791626	99
Es	-0.015308	1.067508	-0.692355	99
Es	-0.314289	1.582087	-0.405128	99
Es	1.071711	0.545818	-0.388800	99
Es	2.302962	0.778265	-0.052016	99
Es	2.412282	0.393513	-0.428434	99
Es	3.629154	0.920616	-0.274739	99
Es	-0.218649	-0.948179	-0.462011	99
Es	0.054464	-0.231059	-0.433539	99
Es	-1.747653	1.270207	-0.622424	99
Es	-0.155434	1.904992	-0.410621	99
Es	2.939786	0.826941	-0.303900	99
Es	0.324647	0.452869	-0.423291	99
Es	2.310130	1.042341	-0.512340	99
Es	1.751328	0.659331	-0.358940	99
Es	-1.899170	2.053306	-0.590564	99
Es	-0.994494	1.527809	-0.407148	99
Es	-0.339229	-1.181975	0.231200	99
Es	-0.988946	-1.033703	1.289670	99
Es	-0.850262	-0.962051	-0.841172	99
Es	-0.036741	1.075204	-0.120288	99
Es	-0.731003	-2.146743	0.905098	99
41
Properties=species:S:1:pos:R:3:Z:I:1 energy=-302.8807999525214 field_type=dipole dipole="0.000000 0.000000 0.000000" charge=0
C	-0.475708	-1.464465	0.942984	6
C	-0.218688	-0.948255	-0.462066	6
C	0.324502	0.452885	-0.423346	6
N	-0.313928	1.582695	-0.405136	7
N	-1.666158	1.499005	-0.432116	7
C	1.751602	0.659365	-0.358936	6
C	2.939532	0.826915	-0.303916	6
H	-0.860758	-2.488115	0.907564	1
H	-1.207948	-0.841805	1.467004	1
H	0.444162	-1.465655	1.537144	1
H	-1.141388	-0.978135	-1.050006	1
H	0.505902	-1.598895	-0.965026	1
H	-2.045178	2.407475	-0.715256	1
H	-2.027588	1.369484	0.517094	1
H	3.991642	0.987505	-0.255986	1
Es	2.303549	0.768748	-0.056855	99
Es	1.751327	0.659336	-0.358937	99
Es	0.324647	0.452870	-0.423295	99
Es	-0.730028	-2.145283	0.904539	99
Es	-0.036061	1.075943	-0.119357	99
Es	-0.851476	-0.962607	-0.838664	99
Es	2.939790	0.826937	-0.303911	99
Es	-1.743419	1.275913	-0.617648	99
Es	-0.339111	-1.181744	0.230612	99
Es	1.071788	0.545833	-0.388938	99
Es	2.309721	1.049646	-0.501459	99
Es	0.165541	-1.463232	1.331074	99
Es	-0.475704	-1.464439	0.942931	99
Es	-0.994478	1.527851	-0.407137	99
Es	-0.990173	-1.034432	1.288896	99
Es	2.412097	0.395939	-0.434350	99
Es	0.290380	-1.383753	-0.790871	99
Es	-0.314296	1.582094	-0.405132	99
Es	-0.156827	1.903215	-0.410502	99
Es	-0.014749	1.068074	-0.693086	99
Es	-1.866111	1.391675	0.122709	99
Es	-1.901347	2.051638	-0.593503	99
Es	0.053841	-0.231767	-0.433088	99
Es	3.629214	0.920350	-0.274785	99
Es	-1.665919	1.499402	-0.431770	99
Es	-0.218650	-0.948178	-0.462013	99
41
Properties=species:S:1:pos:R:3:Z:I:1 energy=-302.8807999525214 field_type=dipole dipole="0.000000 0.000000 0.000000" charge=0
C	-0.475708	-1.464465	0.942984	6
C	-0.218688	-0.948255	-0.462066	6
C	0.324502	0.452885	-0.423346	6
N	-0.313928	1.582695	-0.405136	7
N	-1.666158	1.499005	-0.432116	7
C	1.751602	0.659365	-0.358936	6
C	2.939532	0.826915	-0.303916	6
H	-0.860758	-2.488115	0.907564	1
H	-1.207948	-0.841805	1.467004	1
H	0.444162	-1.465655	1.537144	1
H	-1.141388	-0.978135	-1.050006	1
H	0.505902	-1.598895	-0.965026	1
H	-2.045178	2.407475	-0.715256	1
H	-2.027588	1.369484	0.517094	1
H	3.991642	0.987505	-0.255986	1
Es	0.166214	-1.462989	1.329719	99
Es	-0.218649	-0.948177	-0.462013	99
Es	-1.902016	2.051341	-0.593151	99
Es	-0.339055	-1.181586	0.230326	99
Es	1.071851	0.545792	-0.389074	99
Es	2.412063	0.396093	-0.435119	99
Es	0.291343	-1.383039	-0.790362	99
Es	0.324646	0.452873	-0.423313	99
Es	-0.314299	1.582098	-0.405130	99
Es	-0.158821	1.900731	-0.410042	99
Es	-0.475703	-1.464438	0.942933	99
Es	-0.994475	1.527769	-0.407141	99
Es	-0.728886	-2.143524	0.904218	99
Es	-1.868159	1.387393	0.120345	99
Es	-0.035280	1.076741	-0.118043	99
Es	-0.013724	1.069243	-0.694694	99
Es	0.053331	-0.232442	-0.432896	99
Es	2.309306	1.055878	-0.491767	99
Es	1.751330	0.659335	-0.358966	99
Es	-1.740977	1.280314	-0.615731	99
Es	3.629257	0.920336	-0.274721	99
Es	2.303992	0.762378	-0.065670	99
Es	-0.852250	-0.962934	-0.837026	99
Es	2.939791	0.826931	-0.303911	99
Es	-1.665804	1.499473	-0.431686	99
Es	-0.991481	-1.035561	1.288376	99
41
Properties=species:S:1:pos:R:3:Z:I:1 energy=-302.8807999525214 field_type=dipole dipole="0.000000 0.000000 0.000000" charge=0
C	-0.475708	-1.464465	0.942984	6
C	-0.218688	-0.948255	-0.462066	6
C	0.324502	0.452885	-0.423346	6
N	-0.313928	1.582695	-0.405136	7
N	-1.666158	1.499005	-0.432116	7
C	1.751602	0.659365	-0.358936	6
C	2.939532	0.826915	-0.303916	6
H	-0.860758	-2.488115	0.907564	1
H	-1.207948	-0.841805	1.467004	1
H	0.444162	-1.465655	1.537144	1
H	-1.141388	-0.978135	-1.050006	1
H	0.505902	-1.598895	-0.965026	1
H	-2.045178	2.407475	-0.715256	1
H	-2.027588	1.369484	0.517094	1
H	3.991642	0.987505	-0.255986	1
Es	0.291988	-1.382552	-0.789987	99
Es	1.071875	0.545668	-0.389068	99
Es	2.308891	1.062382	-0.480108	99
Es	-0.034091	1.078046	-0.116371	99
Es	-1.665814	1.499578	-0.431592	99
Es	-0.339044	-1.181487	0.230150	99
Es	-0.012813	1.070328	-0.695667	99
Es	-0.314305	1.582067	-0.405125	99
Es	0.324647	0.452870	-0.423302	99
Es	-0.728184	-2.142313	0.904086	99
Es	-0.475702	-1.464436	0.942917	99
Es	-1.904046	2.050256	-0.594330	99
Es	1.751326	0.659334	-0.358935	99
Es	-0.992292	-1.036304	1.287923	99
Es	0.052861	-0.233131	-0.432791	99
Es	-1.868926	1.384365	0.118086	99
Es	-0.994480	1.527740	-0.407155	99
Es	2.411830	0.398503	-0.441771	99
Es	-0.218650	-0.948177	-0.462012	99
Es	0.166815	-1.462631	1.328296	99
Es	-0.160879	1.898248	-0.410825	99
Es	-0.852907	-0.963246	-0.835353	99
Es	-1.738277	1.284090	-0.612326	99
Es	2.304649	0.753533	-0.070646	99
Es	2.939791	0.826919	-0.303906	99
Es	3.629283	0.920378	-0.274724	99
41
Properties=species:S:1:pos:R:3:Z:I:1 energy=-302.8807999525214 field_type=dipole dipole="0.000000 0.000000 0.000000" charge=0
C	-0.475708	-1.464465	0.942984	6
C	-0.218688	-0.948255	-0.462066	6
C	0.324502	0.452885	-0.423346	6
N	-0.313928	1.582695	-0.405136	7
N	-1.666158	1.499005	-0.432116	7
C	1.751602	0.659365	-0.358936	6
C	2.939532	0.826915	-0.303916	6
H	-0.860758	-2.488115	0.907564	1
H	-1.207948	-0.841805	1.467004	1
H	0.444162	-1.465655	1.537144	1
H	-1.141388	-0.978135	-1.050006	1
H	0.505902	-1.598895	-0.965026	1
H	-2.045178	2.407475	-0.715256	1
H	-2.027588	1.369484	0.517094	1
H	3.991642	0.987505	-0.255986	1
Es	0.052354	-0.233975	-0.431558	99
Es	-0.994487	1.526674	-0.408172	99
Es	3.629288	0.920294	-0.275938	99
Es	-1.903836	2.048503	-0.599325	99
Es	2.939790	0.826936	-0.303911	99
Es	-1.665817	1.499569	-0.431621	99
Es	-0.314300	1.582080	-0.405131	99
Es	2.300003	1.033807	-0.132677	99
Es	-1.724501	1.311392	-0.593864	99
Es	-0.727425	-2.140929	0.904582	99
Es	-0.160296	1.898938	-0.412841	99
Es	2.405757	0.382302	-0.279676	99
Es	-0.033383	1.078583	-0.116863	99
Es	-0.993027	-1.037290	1.288114	99
Es	-0.339042	-1.181348	0.230062	99
Es	0.324647	0.452871	-0.423306	99
Es	1.751326	0.659351	-0.358936	99
Es	0.166769	-1.463028	1.328505	99
Es	0.292470	-1.381932	-0.790211	99
Es	1.071903	0.545931	-0.388406	99
Es	-0.014039	1.068934	-0.695021	99
Es	-1.882906	1.360022	0.105714	99
Es	-0.475703	-1.464439	0.942933	99
Es	-0.218650	-0.948180	-0.462015	99
Es	-0.852939	-0.963049	-0.835265	99
Es	2.319589	0.798011	-0.579710	99
41
Properties=species:S:1:pos:R:3:Z:I:1 energy=-302.8807999525214 field_type=dipole dipole="0.000000 0.000000 0.000000" charge=0
C	-0.475708	-1.464465	0.942984	6
C	-0.218688	-0.948255	-0.462066	6
C	0.324502	0.452885	-0.423346	6
N	-0.313928	1.582695	-0.405136	7
N	-1.666158	1.499005	-0.432116	7
C	1.751602	0.659365	-0.358936	6
C	2.939532	0.826915	-0.303916	6
H	-0.860758	-2.488115	0.907564	1
H	-1.207948	-0.841805	1.467004	1
H	0.444162	-1.465655	1.537144	1
H	-1.141388	-0.978135	-1.050006	1
H	0.505902	-1.598895	-0.965026	1
H	-2.045178	2.407475	-0.715256	1
H	-2.027588	1.369484	0.517094	1
H	3.991642	0.987505	-0.255986	1
Es	1.751327	0.659335	-0.358944	99
Es	-0.338775	-1.180993	0.228450	99
Es	-0.035706	1.076201	-0.119481	99
Es	2.411672	0.380346	-0.359509	99
Es	-0.475702	-1.464438	0.942931	99
Es	1.071918	0.546331	-0.388787	99
Es	-0.854204	-0.964960	-0.830300	99
Es	0.324647	0.452870	-0.423290	99
Es	2.299506	0.900391	-0.047933	99
Es	-0.157858	1.901509	-0.410753	99
Es	0.167948	-1.461279	1.324259	99
Es	-0.994470	1.526631	-0.407369	99
Es	3.629299	0.920325	-0.274966	99
Es	2.939790	0.826934	-0.303914	99
Es	-0.218649	-0.948178	-0.462012	99
Es	-0.314300	1.582101	-0.405139	99
Es	-0.728217	-2.142475	0.903003	99
Es	-1.665753	1.499615	-0.431336	99
Es	0.052657	-0.232985	-0.431064	99
Es	-0.014097	1.068812	-0.693145	99
Es	-0.992498	-1.035224	1.286191	99
Es	-1.723615	1.315011	-0.593819	99
Es	2.314163	0.932981	-0.585011	99
Es	0.292147	-1.383994	-0.787745	99
Es	-1.881648	1.354280	0.096228	99
Es	-1.906037	2.050881	-0.591081	99
41
Properties=species:S:1:pos:R:3:Z:I:1 energy=-302.8807999525214 field_type=dipole dipole="0.000000 0.000000 0.000000" charge=0
C	-0.475708	-1.464465	0.942984	6
C	-0.218688	-0.948255	-0.462066	6
C	0.324502	0.452885	-0.423346	6
N	-0.313928	1.582695	-0.405136	7
N	-1.666158	1.499005	-0.432116	7
C	1.751602	0.659365	-0.358936	6
C	2.939532	0.826915	-0.303916	6
H	-0.860758	-2.488115	0.907564	1
H	-1.207948	-0.841805	1.467004	1
H	0.444162	-1.465655	1.537144	1
H	-1.141388	-0.978135	-1.050006	1
H	0.505902	-1.598895	-0.965026	1
H	-2.045178	2.407475	-0.715256	1
H	-2.027588	1.369484	0.517094	1
H	3.991642	0.987505	-0.255986	1
Es	1.071939	0.545466	-0.389136	99
Es	-0.011271	1.072449	-0.697977	99
Es	3.629328	0.920403	-0.274497	99
Es	-0.163736	1.894221	-0.409996	99
Es	0.324647	0.452871	-0.423306	99
Es	-0.854322	-0.964443	-0.830846	99
Es	-0.032982	1.079375	-0.114687	99
Es	-0.726394	-2.139393	0.903191	99
Es	-1.732772	1.293456	-0.605827	99
Es	-1.665802	1.499589	-0.431588	99
Es	0.167944	-1.461765	1.325058	99
Es	-0.994494	1.527661	-0.406921	99
Es	0.051947	-0.234322	-0.431939	99
Es	2.304619	0.754111	-0.074520	99
Es	-0.314311	1.582045	-0.405134	99
Es	2.411855	0.397825	-0.440505	99
Es	1.751326	0.659336	-0.358940	99
Es	-0.338834	-1.180868	0.228591	99
Es	-1.872041	1.376246	0.112335	99
Es	-0.218649	-0.948177	-0.462013	99
Es	-0.475703	-1.464439	0.942931	99
Es	2.308896	1.062592	-0.477584	99
Es	-0.994342	-1.038391	1.286753	99
Es	0.293566	-1.381342	-0.788711	99
Es	2.939790	0.826935	-0.303906	99
Es	-1.906658	2.048586	-0.595365	99
41
Properties=species:S:1:pos:R:3:Z:I:1 energy=-302.8807999525214 field_type=dipole dipole="0.000000 0.000000 0.000000" charge=0
C	-0.475708	-1.464465	0.942984	6
C	-0.218688	-0.948255	-0.462066	6
C	0.324502	0.452885	-0.423346	6
N	-0.313928	1.582695	-0.405136	7
N	-1.666158	1.499005	-0.432116	7
C	1.751602	0.659365	-0.358936	6
C	2.939532	0.826915	-0.303916	6
H	-0.860758	-2.488115	0.907564	1
H	-1.207948	-0.841805	1.467004	1
H	0.444162	-1.465655	1.537144	1
H	-1.141388	-0.978135	-1.050006	1
H	0.505902	-1.598895	-0.965026	1
H	-2.045178	2.407475	-0.715256	1
H	-2.027588	1.369484	0.517094	1
H	3.991642	0.987505	-0.255986	1
Es	-0.725992	-2.138524	0.904127	99
Es	2.299774	1.030600	-0.128504	99
Es	-0.163324	1.894896	-0.412989	99
Es	0.324647	0.452870	-0.423303	99
Es	2.318550	0.802953	-0.571266	99
Es	1.071946	0.545691	-0.388507	99
Es	0.293753	-1.380826	-0.789361	99
Es	-1.886609	1.350441	0.097147	99
Es	-1.905339	2.047008	-0.601083	99
Es	2.939791	0.826930	-0.303912	99
Es	2.407033	0.380752	-0.292337	99
Es	-0.032061	1.080222	-0.114865	99
Es	-1.665835	1.499533	-0.431663	99
Es	-1.719426	1.322159	-0.583648	99
Es	-0.475702	-1.464439	0.942932	99
Es	-0.338995	-1.181006	0.229076	99
Es	0.167608	-1.462446	1.326183	99
Es	-0.218656	-0.948189	-0.461995	99
Es	-0.314280	1.582175	-0.405149	99
Es	-0.994637	-1.039096	1.287364	99
Es	3.629324	0.920264	-0.275704	99
Es	0.051599	-0.235036	-0.430791	99
Es	-0.853931	-0.963665	-0.832337	99
Es	1.751326	0.659329	-0.358945	99
Es	-0.012525	1.070768	-0.696943	99
Es	-0.994493	1.526664	-0.408065	99
41
Properties=species:S:1:pos:R:3:Z:I:1 energy=-302.8807999525214 field_type=dipole dipole="0.000000 0.000000 0.000000" charge=0
C	-0.475708	-1.464465	0.942984	6
C	-0.218688	-0.948255	-0.462066	6
C	0.324502	0.452885	-0.423346	6
N	-0.313928	1.582695	-0.405136	7
N	-1.666158	1.499005	-0.432116	7
C	1.751602	0.659365	-0.358936	6
C	2.939532	0.826915	-0.303916	6
H	-0.860758	-2.488115	0.907564	1
H	-1.207948	-0.841805	1.467004	1
H	0.444162	-1.465655	1.537144	1
H	-1.141388	-0.978135	-1.050006	1
H	0.505902	-1.598895	-0.965026	1
H	-2.045178	2.407475	-0.715256	1
H	-2.027588	1.369484	0.517094	1
H	3.991642	0.987505	-0.255986	1
Es	-1.874617	1.370495	0.108476	99
Es	-0.218651	-0.948179	-0.462013	99
Es	-1.907620	2.047674	-0.596160	99
Es	1.071969	0.545367	-0.389511	99
Es	3.629344	0.920534	-0.274352	99
Es	2.411539	0.399474	-0.447178	99
Es	2.308288	1.071767	-0.458000	99
Es	0.051252	-0.235306	-0.432333	99
Es	-0.994494	1.528000	-0.406483	99
Es	0.294440	-1.380206	-0.788501	99
Es	-0.725465	-2.137875	0.903211	99
Es	-0.854524	-0.964421	-0.830374	99
Es	-0.031550	1.081243	-0.112269	99
Es	0.168202	-1.461475	1.324339	99
Es	1.751325	0.659336	-0.358940	99
Es	-0.475703	-1.464439	0.942932	99
Es	-0.314305	1.582077	-0.405108	99
Es	-0.338953	-1.180947	0.228948	99
Es	-0.166603	1.890105	-0.410529	99
Es	-0.009877	1.074344	-0.699496	99
Es	0.324648	0.452871	-0.423315	99
Es	2.939789	0.826924	-0.303904	99
Es	-0.995321	-1.039742	1.286366	99
Es	-1.729335	1.299544	-0.601653	99
Es	-1.665780	1.499608	-0.431550	99
Es	2.305544	0.743256	-0.087141	99
41
Properties=species:S:1:pos:R:3:Z:I:1 energy=-302.8807999525214 field_type=dipole dipole="0.000000 0.000000 0.000000" charge=0
C	-0.475708	-1.464465	0.942984	6
C	-0.218688	-0.948255	-0.462066	6
C	0.324502	0.452885	-0.423346	6
N	-0.313928	1.582695	-0.405136	7
N	-1.666158	1.499005	-0.432116	7
C	1.751602	0.659365	-0.358936	6
C	2.939532	0.826915	-0.303916	6
H	-0.860758	-2.488115	0.907564	1
H	-1.207948	-0.841805	1.467004	1
H	0.444162	-1.465655	1.537144	1
H	-1.141388	-0.978135	-1.050006	1
H	0.505902	-1.598895	-0.965026	1
H	-2.045178	2.407475	-0.715256	1
H	-2.027588	1.369484	0.517094	1
H	3.991642	0.987505	-0.255986	1
Es	-1.727438	1.302832	-0.598224	99
Es	-1.874972	1.368425	0.106455	99
Es	-0.725102	-2.137265	0.902945	99
Es	1.071973	0.545312	-0.389396	99
Es	-0.854632	-0.964472	-0.830040	99
Es	-1.665821	1.499561	-0.431625	99
Es	-0.031002	1.081917	-0.111774	99
Es	0.051064	-0.235616	-0.431937	99
Es	0.324647	0.452870	-0.423301	99
Es	2.939791	0.826926	-0.303905	99
Es	-0.218650	-0.948178	-0.462012	99
Es	-0.339012	-1.181036	0.229311	99
Es	1.751326	0.659335	-0.358943	99
Es	-0.167006	1.889544	-0.411177	99
Es	-1.909153	2.046437	-0.597421	99
Es	2.411190	0.402990	-0.455198	99
Es	3.629348	0.920549	-0.274282	99
Es	0.168365	-1.461331	1.323763	99
Es	-0.994499	1.527953	-0.406595	99
Es	-0.475703	-1.464439	0.942932	99
Es	0.294690	-1.379832	-0.788438	99
Es	2.306256	0.735624	-0.088271	99
Es	-0.995718	-1.040280	1.286224	99
Es	-0.314306	1.582069	-0.405124	99
Es	2.307926	1.075918	-0.448955	99
Es	-0.010017	1.074215	-0.699551	99
41
Properties=species:S:1:pos:R:3:Z:I:1 energy=-302.8807999525214 field_type=dipole dipole="0.000000 0.000000 0.000000" charge=0
C	-0.475708	-1.464465	0.942984	6
C	-0.218688	-0.948255	-0.462066	6
C	0.324502	0.452885	-0.423346	6
N	-0.313928	1.582695	-0.405136	7
N	-1.666158	1.499005	-0.432116	7
C	1.751602	0.659365	-0.358936	6
C	2.939532	0.826915	-0.303916	6
H	-0.860758	-2.488115	0.907564	1
H	-1.207948	-0.841805	1.467004	1
H	0.444162	-1.465655	1.537144	1
H	-1.141388	-0.978135	-1.050006	1
H	0.505902	-1.598895	-0.965026	1
H	-2.045178	2.407475	-0.715256	1
H	-2.027588	1.369484	0.517094	1
H	3.991642	0.987505	-0.255986	1
Es	-0.724773	-2.136351	0.904054	99
Es	-0.030675	1.081989	-0.113114	99
Es	0.294827	-1.379541	-0.788965	99
Es	3.629347	0.920358	-0.275591	99
Es	-0.854394	-0.963890	-0.830870	99
Es	0.050752	-0.236420	-0.430909	99
Es	-0.314298	1.582065	-0.405135	99
Es	0.324647	0.452870	-0.423301	99
Es	-1.906536	2.045901	-0.602059	99
Es	1.751328	0.659353	-0.358967	99
Es	0.168074	-1.462118	1.324725	99
Es	-0.165335	1.891903	-0.412771	99
Es	-1.716463	1.328955	-0.576577	99
Es	-0.339065	-1.180944	0.228929	99
Es	2.407356	0.381122	-0.295248	99
Es	2.299532	1.034756	-0.132365	99
Es	-0.475703	-1.464438	0.942933	99
Es	-0.995935	-1.040870	1.286945	99
Es	-0.011906	1.071662	-0.698551	99
Es	-0.994498	1.527033	-0.408021	99
Es	2.939791	0.826927	-0.303913	99
Es	-0.218651	-0.948179	-0.462012	99
Es	1.071967	0.545619	-0.388642	99
Es	-1.888547	1.344245	0.090831	99
Es	-1.665762	1.499606	-0.431472	99
Es	2.318465	0.798416	-0.564470	99
41
Properties=species:S:1:pos:R:3:Z:I:1 energy=-302.8807999525214 field_type=dipole dipole="0.000000 0.000000 0.000000" charge=0
C	-0.475708	-1.464465	0.942984	6
C	-0.218688	-0.948255	-0.462066	6
C	0.324502	0.452885	-0.423346	6
N	-0.313928	1.582695	-0.405136	7
N	-1.666158	1.499005	-0.432116	7
C	1.751602	0.659365	-0.358936	6
C	2.939532	0.826915	-0.303916	6
H	-0.860758	-2.488115	0.907564	1
H	-1.207948	-0.841805	1.467004	1
H	0.444162	-1.465655	1.537144	1
H	-1.141388	-0.978135	-1.050006	1
H	0.505902	-1.598895	-0.965026	1
H	-2.045178	2.407475	-0.715256	1
H	-2.027588	1.369484	0.517094	1
H	3.991642	0.987505	-0.255986	1
Es	-0.855067	-0.965072	-0.828154	99
Es	-0.168548	1.887259	-0.411888	99
Es	3.629362	0.920758	-0.274382	99
Es	-0.996427	-1.041326	1.285974	99
Es	-0.218650	-0.948177	-0.462010	99
Es	-1.727472	1.302832	-0.598255	99
Es	-0.994502	1.527850	-0.406669	99
Es	-0.009729	1.074649	-0.699833	99
Es	-0.314308	1.582073	-0.405127	99
Es	-1.874328	1.368335	0.105494	99
Es	2.939791	0.826919	-0.303905	99
Es	1.751325	0.659338	-0.358943	99
Es	-0.338953	-1.180750	0.228348	99
Es	2.305726	0.741519	-0.090997	99
Es	-1.909811	2.046358	-0.596303	99
Es	-0.475703	-1.464436	0.942930	99
Es	0.324648	0.452872	-0.423319	99
Es	0.295281	-1.379173	-0.788109	99
Es	2.411624	0.399559	-0.445971	99
Es	-1.665827	1.499550	-0.431649	99
Es	2.308024	1.073390	-0.455443	99
Es	-0.029683	1.083658	-0.110151	99
Es	1.071984	0.545266	-0.389505	99
Es	0.050529	-0.236219	-0.432031	99
Es	-0.724426	-2.136142	0.902857	99
Es	0.168684	-1.460864	1.322503	99
41
Properties=species:S:1:pos:R:3:Z:I:1 energy=-302.8807999525214 field_type=dipole dipole="0.000000 0.000000 0.000000" charge=0
C	-0.475708	-1.464465	0.942984	6
C	-0.218688	-0.948255	-0.462066	6
C	0.324502	0.452885	-0.423346	6
N	-0.313928	1.582695	-0.405136	7
N	-1.666158	1.499005	-0.432116	7
C	1.751602	0.659365	-0.358936	6
C	2.939532	0.826915	-0.303916	6
H	-0.860758	-2.488115	0.907564	1
H	-1.207948	-0.841805	1.467004	1
H	0.444162	-1.465655	1.537144	1
H	-1.141388	-0.978135	-1.050006	1
H	0.505902	-1.598895	-0.965026	1
H	-2.045178	2.407475	-0.715256	1
H	-2.027588	1.369484	0.517094	1
H	3.991642	0.987505	-0.255986	1
Es	1.071980	0.545631	-0.388703	99
Es	-1.665840	1.499523	-0.431656	99
Es	2.299390	1.026080	-0.121889	99
Es	2.939791	0.826929	-0.303911	99
Es	-0.724450	-2.135742	0.903891	99
Es	1.751326	0.659336	-0.358937	99
Es	-0.475703	-1.464439	0.942931	99
Es	3.629351	0.920297	-0.275497	99
Es	0.295084	-1.379463	-0.788471	99
Es	-0.314271	1.582208	-0.405142	99
Es	-1.906944	2.045633	-0.602389	99
Es	-0.994502	1.526625	-0.407965	99
Es	-0.218662	-0.948198	-0.461971	99
Es	-1.890126	1.339689	0.085934	99
Es	2.408131	0.380258	-0.303951	99
Es	-0.854723	-0.964269	-0.829527	99
Es	2.317837	0.808022	-0.566266	99
Es	-0.166028	1.890943	-0.413215	99
Es	-1.714419	1.334064	-0.571274	99
Es	-0.996335	-1.041179	1.286402	99
Es	-0.030266	1.082560	-0.112551	99
Es	0.324648	0.452870	-0.423301	99
Es	-0.011768	1.071887	-0.698954	99
Es	0.050681	-0.236583	-0.430386	99
Es	0.168387	-1.461764	1.323569	99
Es	-0.339024	-1.180888	0.228690	99
41
Properties=species:S:1:pos:R:3:Z:I:1 energy=-302.8807999525214 field_type=dipole dipole="0.000000 0.000000 0.000000" charge=0
C	-0.475708	-1.464465	0.942984	6
C	-0.218688	-0.948255	-0.462066	6
C	0.324502	0.452885	-0.423346	6
N	-0.313928	1.582695	-0.405136	7
N	-1.666158	1.499005	-0.432116	7
C	1.751602	0.659365	-0.358936	6
C	2.939532	0.826915	-0.303916	6
H	-0.860758	-2.488115	0.907564	1
H	-1.207948	-0.841805	1.467004	1
H	0.444162	-1.465655	1.537144	1
H	-1.141388	-0.978135	-1.050006	1
H	0.505902	-1.598895	-0.965026	1
H	-2.045178	2.407475	-0.715256	1
H	-2.027588	1.369484	0.517094	1
H	3.991642	0.987505	-0.255986	1
Es	-1.889926	1.338911	0.084727	99
Es	2.407999	0.380750	-0.302150	99
Es	1.751325	0.659337	-0.358941	99
Es	-0.994502	1.526716	-0.408000	99
Es	-0.339055	-1.180893	0.228797	99
Es	-0.475702	-1.464437	0.942931	99
Es	-0.166258	1.890623	-0.413355	99
Es	0.324647	0.452870	-0.423301	99
Es	-1.907534	2.045390	-0.602170	99
Es	0.168495	-1.461664	1.323161	99
Es	-0.854834	-0.964345	-0.829085	99
Es	-0.030205	1.082689	-0.112359	99
Es	0.295353	-1.379042	-0.788515	99
Es	2.299351	1.027777	-0.123659	99
Es	-0.996601	-1.041615	1.286367	99
Es	2.939791	0.826926	-0.303914	99
Es	-0.724202	-2.135286	0.903755	99
Es	3.629357	0.920322	-0.275500	99
Es	-0.218650	-0.948178	-0.462007	99
Es	-0.011561	1.072082	-0.698878	99
Es	-1.714120	1.334865	-0.570333	99
Es	-1.665777	1.499615	-0.431546	99
Es	-0.314305	1.582081	-0.405134	99
Es	2.318006	0.805817	-0.566283	99
Es	1.071989	0.545598	-0.388710	99
Es	0.050465	-0.236882	-0.430437	99
41
Properties=species:S:1:pos:R:3:Z:I:1 energy=-302.8807999525214 field_type=dipole dipole="0.000000 0.000000 0.000000" charge=0
C	-0.475708	-1.464465	0.942984	6
C	-0.218688	-0.948255	-0.462066	6
C	0.324502	0.452885	-0.423346	6
N	-0.313928	1.582695	-0.405136	7
N	-1.666158	1.499005	-0.432116	7
C	1.751602	0.659365	-0.358936	6
C	2.939532	0.826915	-0.303916	6
H	-0.860758	-2.488115	0.907564	1
H	-1.207948	-0.841805	1.467004	1
H	0.444162	-1.465655	1.537144	1
H	-1.141388	-0.978135	-1.050006	1
H	0.505902	-1.598895	-0.965026	1
H	-2.045178	2.407475	-0.715256	1
H	-2.027588	1.369484	0.517094	1
H	3.991642	0.987505	-0.255986	1
Es	-1.910700	2.045452	-0.596920	99
Es	-0.170705	1.883801	-0.412045	99
Es	0.168966	-1.460482	1.321291	99
Es	2.411438	0.400877	-0.449817	99
Es	2.939791	0.826927	-0.303912	99
Es	-0.218651	-0.948179	-0.462014	99
Es	2.307727	1.076960	-0.446264	99
Es	-0.008695	1.076379	-0.701271	99
Es	-1.665849	1.499502	-0.431677	99
Es	1.751328	0.659326	-0.358941	99
Es	1.071999	0.545247	-0.389584	99
Es	3.629372	0.920776	-0.274349	99
Es	0.324648	0.452870	-0.423313	99
Es	2.306202	0.736632	-0.096134	99
Es	-1.876097	1.363830	0.101907	99
Es	0.295758	-1.378607	-0.787772	99
Es	-0.994512	1.528084	-0.406295	99
Es	-0.997026	-1.042084	1.285526	99
Es	-0.314299	1.582029	-0.405127	99
Es	-1.724840	1.307791	-0.594371	99
Es	-0.028542	1.085395	-0.108625	99
Es	-0.855218	-0.965121	-0.827575	99
Es	0.050160	-0.236808	-0.431859	99
Es	-0.475703	-1.464440	0.942929	99
Es	-0.723884	-2.135164	0.902610	99
Es	-0.339123	-1.180966	0.229067	99
41
Properties=species:S:1:pos:R:3:Z:I:1 energy=-302.8807999525214 field_type=dipole dipole="0.000000 0.000000 0.000000" charge=0
C	-0.475708	-1.464465	0.942984	6
C	-0.218688	-0.948255	-0.462066	6
C	0.324502	0.452885	-0.423346	6
N	-0.313928	1.582695	-0.405136	7
N	-1.666158	1.499005	-0.432116	7
C	1.751602	0.659365	-0.358936	6
C	2.939532	0.826915	-0.303916	6
H	-0.860758	-2.488115	0.907564	1
H	-1.207948	-0.841805	1.467004	1
H	0.444162	-1.465655	1.537144	1
H	-1.141388	-0.978135	-1.050006	1
H	0.505902	-1.598895	-0.965026	1
H	-2.045178	2.407475	-0.715256	1
H	-2.027588	1.369484	0.517094	1
H	3.991642	0.987505	-0.255986	1
Es	3.629370	0.920779	-0.274217	99
Es	-0.475702	-1.464438	0.942929	99
Es	-0.339083	-1.180911	0.229130	99
Es	-0.028516	1.085534	-0.108386	99
Es	-0.997301	-1.042569	1.285385	99
Es	-1.910946	2.044912	-0.597968	99
Es	2.939791	0.826930	-0.303909	99
Es	-0.855211	-0.965052	-0.827736	99
Es	1.751326	0.659336	-0.358943	99
Es	-0.218649	-0.948178	-0.462012	99
Es	2.411141	0.402734	-0.455550	99
Es	-0.723632	-2.134608	0.902623	99
Es	2.307442	1.080706	-0.435815	99
Es	2.306789	0.731025	-0.100876	99
Es	-1.877152	1.361735	0.100290	99
Es	0.168926	-1.460638	1.321657	99
Es	-0.994514	1.528000	-0.406369	99
Es	1.072004	0.545247	-0.389592	99
Es	-0.314303	1.582054	-0.405123	99
Es	0.324648	0.452870	-0.423305	99
Es	-0.008433	1.076725	-0.701699	99
Es	-1.723634	1.310516	-0.591865	99
Es	0.295945	-1.378248	-0.787779	99
Es	-0.171059	1.883152	-0.412088	99
Es	-1.665764	1.499485	-0.431510	99
Es	0.050064	-0.237071	-0.431810	99
41
Properties=species:S:1:pos:R:3:Z:I:1 energy=-302.8807999525214 field_type=dipole dipole="0.000000 0.000000 0.000000" charge=0
C	-0.475708	-1.464465	0.942984	6
C	-0.218688	-0.948255	-0.462066	6
C	0.324502	0.452885	-0.423346	6
N	-0.313928	1.582695	-0.405136	7
N	-1.666158	1.499005	-0.432116	7
C	1.751602	0.659365	-0.358936	6
C	2.939532	0.826915	-0.303916	6
H	-0.860758	-2.488115	0.907564	1
H	-1.207948	-0.841805	1.467004	1
H	0.444162	-1.465655	1.537144	1
H	-1.141388	-0.978135	-1.050006	1
H	0.505902	-1.598895	-0.965026	1
H	-2.045178	2.407475	-0.715256	1
H	-2.027588	1.369484	0.517094	1
H	3.991642	0.987505	-0.255986	1
Es	2.939791	0.826929	-0.303911	99
Es	-0.855473	-0.965516	-0.826310	99
Es	-1.912148	2.044755	-0.596247	99
Es	1.072008	0.545231	-0.389664	99
Es	0.295984	-1.378450	-0.787412	99
Es	-1.876137	1.361439	0.098382	99
Es	-0.997336	-1.042464	1.285219	99
Es	-0.008327	1.076886	-0.701483	99
Es	0.169115	-1.460266	1.320644	99
Es	-1.723485	1.310726	-0.591835	99
Es	2.305811	0.740510	-0.090143	99
Es	-0.723611	-2.134669	0.902361	99
Es	-1.665740	1.499681	-0.431392	99
Es	0.049951	-0.237044	-0.432052	99
Es	-0.475699	-1.464432	0.942921	99
Es	-0.994512	1.528043	-0.406259	99
Es	3.629375	0.920838	-0.274212	99
Es	-0.314306	1.582082	-0.405118	99
Es	-0.170570	1.883794	-0.411037	99
Es	-0.029015	1.084692	-0.109056	99
Es	1.751326	0.659333	-0.358943	99
Es	-0.339012	-1.180677	0.228487	99
Es	2.308095	1.073442	-0.453096	99
Es	-0.218651	-0.948178	-0.462011	99
Es	0.324648	0.452869	-0.423308	99
Es	2.411465	0.400473	-0.449064	99
41
Properties=species:S:1:pos:R:3:Z:I:1 energy=-302.8807999525214 field_type=dipole dipole="0.000000 0.000000 0.000000" charge=0
C	-0.475708	-1.464465	0.942984	6
C	-0.218688	-0.948255	-0.462066	6
C	0.324502	0.452885	-0.423346	6
N	-0.313928	1.582695	-0.405136	7
N	-1.666158	1.499005	-0.432116	7
C	1.751602	0.659365	-0.358936	6
C	2.939532	0.826915	-0.303916	6
H	-0.860758	-2.488115	0.907564	1
H	-1.207948	-0.841805	1.467004	1
H	0.444162	-1.465655	1.537144	1
H	-1.141388	-0.978135	-1.050006	1
H	0.505902	-1.598895	-0.965026	1
H	-2.045178	2.407475	-0.715256	1
H	-2.027588	1.369484	0.517094	1
H	3.991642	0.987505	-0.255986	1
Es	-0.994521	1.528306	-0.406152	99
Es	1.751327	0.659324	-0.358939	99
Es	-0.339058	-1.180594	0.228841	99
Es	-0.855444	-0.965370	-0.826530	99
Es	2.411306	0.401881	-0.452536	99
Es	0.049717	-0.237362	-0.432289	99
Es	0.324647	0.452868	-0.423304	99
Es	0.296186	-1.378177	-0.787325	99
Es	1.072012	0.545160	-0.389579	99
Es	2.306406	0.734579	-0.096870	99
Es	-1.665760	1.499622	-0.431509	99
Es	2.307658	1.078028	-0.442868	99
Es	-0.723377	-2.134199	0.902334	99
Es	-1.723005	1.311488	-0.591003	99
Es	-0.028405	1.085645	-0.108233	99
Es	-0.218650	-0.948178	-0.462010	99
Es	-0.475700	-1.464433	0.942913	99
Es	-0.314311	1.582049	-0.405136	99
Es	3.629377	0.920820	-0.274224	99
Es	2.939791	0.826927	-0.303908	99
Es	-0.008112	1.077049	-0.701574	99
Es	-1.911921	2.044463	-0.597353	99
Es	-1.876835	1.360795	0.098680	99
Es	-0.171300	1.882576	-0.411890	99
Es	0.169104	-1.460344	1.320765	99
Es	-0.997584	-1.042895	1.285161	99
41
Properties=species:S:1:pos:R:3:Z:I:1 energy=-302.8807999525214 field_type=dipole dipole="0.000000 0.000000 0.000000" charge=0
C	-0.475708	-1.464465	0.942984	6
C	-0.218688	-0.948255	-0.462066	6
C	0.324502	0.452885	-0.423346	6
N	-0.313928	1.582695	-0.405136	7
N	-1.666158	1.499005	-0.432116	7
C	1.751602	0.659365	-0.358936	6
C	2.939532	0.826915	-0.303916	6
H	-0.860758	-2.488115	0.907564	1
H	-1.207948	-0.841805	1.467004	1
H	0.444162	-1.465655	1.537144	1
H	-1.141388	-0.978135	-1.050006	1
H	0.505902	-1.598895	-0.965026	1
H	-2.045178	2.407475	-0.715256	1
H	-2.027588	1.369484	0.517094	1
H	3.991642	0.987505	-0.255986	1
Es	0.296408	-1.377717	-0.787424	99
Es	1.751325	0.659336	-0.358941	99
Es	0.049615	-0.237478	-0.432224	99
Es	1.072010	0.545124	-0.389682	99
Es	-1.723347	1.310901	-0.591631	99
Es	-0.171986	1.881571	-0.411883	99
Es	-0.997786	-1.043278	1.285146	99
Es	2.307654	1.077773	-0.443679	99
Es	-0.723174	-2.133863	0.902372	99
Es	-0.339084	-1.180629	0.228725	99
Es	0.169179	-1.460174	1.320412	99
Es	-0.007860	1.077639	-0.702046	99
Es	0.324648	0.452871	-0.423308	99
Es	-1.911877	2.044676	-0.596889	99
Es	3.629380	0.920887	-0.274217	99
Es	-0.475702	-1.464439	0.942932	99
Es	2.411472	0.400242	-0.448650	99
Es	2.939791	0.826933	-0.303906	99
Es	-0.314312	1.582052	-0.405127	99
Es	2.306246	0.736442	-0.099946	99
Es	-0.855524	-0.965663	-0.826104	99
Es	-0.028056	1.086178	-0.107569	99
Es	-0.218651	-0.948178	-0.462010	99
Es	-1.876508	1.361342	0.098885	99
Es	-1.665784	1.499446	-0.431643	99
Es	-0.994532	1.528034	-0.406131	99
