39
Properties=species:S:1:pos:R:3:Z:I:1 energy=-285.7870335836186 field_type=dipole dipole="0.000000 0.000000 0.000000" charge=0
C	-0.582947	-2.441691	0.196282	6
C	-1.022048	-1.184381	0.048092	6
N	-0.247828	-0.023391	-0.013558	7
C	-0.750418	1.256799	-0.167988	6
C	0.288412	2.160309	-0.188158	6
C	1.480652	1.423259	-0.041698	6
C	1.128062	0.095509	0.062762	6
H	-1.287858	-3.267071	0.230272	1
H	0.468982	-2.690631	0.287132	1
H	-2.091738	-1.012181	-0.036548	1
H	-1.817028	1.416569	-0.251238	1
H	0.192402	3.232889	-0.296818	1
H	2.490162	1.812549	-0.014578	1
H	1.751193	-0.778541	0.186042	1
Es	1.308442	0.757160	-0.303939	99
Es	-0.247818	-0.023422	-0.013873	99
Es	-1.473967	1.354448	-0.223199	99
Es	-0.768190	-1.863086	-0.200810	99
Es	0.227012	2.885645	-0.261288	99
Es	-1.740079	-1.050527	-0.010479	99
Es	1.541484	-0.500194	0.146219	99
Es	0.128993	-2.607991	0.257604	99
Es	0.916952	1.844012	-0.116992	99
Es	-1.021976	-1.184104	0.048071	99
Es	1.480681	1.423275	-0.041696	99
Es	1.127861	0.095389	0.062760	99
Es	-0.503684	0.509872	-0.061927	99
Es	2.161630	1.689725	-0.023793	99
Es	-0.750442	1.256574	-0.167968	99
Es	-0.213457	1.745448	0.133323	99
Es	-0.573727	-0.529534	0.020612	99
Es	-0.810169	-1.801045	0.450890	99
Es	-1.056868	-2.995930	0.218638	99
Es	-0.195263	0.059958	-0.062855	99
Es	-0.172069	1.685703	-0.487297	99
Es	0.340995	-0.016326	0.043943	99
Es	1.269931	0.815382	0.316819	99
Es	-0.582921	-2.441731	0.196287	99
Es	0.288414	2.160343	-0.188157	99
39
Properties=species:S:1:pos:R:3:Z:I:1 energy=-285.7870335836186 field_type=dipole dipole="0.000000 0.000000 0.000000" charge=0
C	-0.582947	-2.441691	0.196282	6
C	-1.022048	-1.184381	0.048092	6
N	-0.247828	-0.023391	-0.013558	7
C	-0.750418	1.256799	-0.167988	6
C	0.288412	2.160309	-0.188158	6
C	1.480652	1.423259	-0.041698	6
C	1.128062	0.095509	0.062762	6
H	-1.287858	-3.267071	0.230272	1
H	0.468982	-2.690631	0.287132	1
H	-2.091738	-1.012181	-0.036548	1
H	-1.817028	1.416569	-0.251238	1
H	0.192402	3.232889	-0.296818	1
H	2.490162	1.812549	-0.014578	1
H	1.751193	-0.778541	0.186042	1
Es	0.288412	2.160337	-0.188176	99
Es	1.262802	0.814096	0.311567	99
Es	-0.767653	-1.862487	-0.194760	99
Es	-0.808345	-1.801381	0.444555	99
Es	1.127855	0.095383	0.062762	99
Es	-1.740577	-1.052107	-0.010306	99
Es	-0.500735	0.508851	-0.081065	99
Es	-1.473768	1.355779	-0.223563	99
Es	-0.204613	1.749954	0.126746	99
Es	1.543069	-0.500895	0.146162	99
Es	-0.571634	-0.531261	0.014478	99
Es	-0.582918	-2.441739	0.196301	99
Es	1.302526	0.754999	-0.297891	99
Es	-1.059806	-2.998344	0.219129	99
Es	1.480684	1.423280	-0.041696	99
Es	2.163122	1.689776	-0.023665	99
Es	-0.222882	0.019858	-0.005257	99
Es	-1.021973	-1.184095	0.048067	99
Es	-0.224391	0.012973	-0.026406	99
Es	0.913624	1.840803	-0.117980	99
Es	-0.750447	1.256562	-0.167964	99
Es	0.340931	-0.016950	0.023731	99
Es	-0.166683	1.692063	-0.479362	99
Es	0.225941	2.889074	-0.261844	99
Es	0.129226	-2.605484	0.257328	99
39
Properties=species:S:1:pos:R:3:Z:I:1 energy=-285.7870335836186 field_type=dipole dipole="0.000000 0.000000 0.000000" charge=0
C	-0.582947	-2.441691	0.196282	6
C	-1.022048	-1.184381	0.048092	6
N	-0.247828	-0.023391	-0.013558	7
C	-0.750418	1.256799	-0.167988	6
C	0.288412	2.160309	-0.188158	6
C	1.480652	1.423259	-0.041698	6
C	1.128062	0.095509	0.062762	6
H	-1.287858	-3.267071	0.230272	1
H	0.468982	-2.690631	0.287132	1
H	-2.091738	-1.012181	-0.036548	1
H	-1.817028	1.416569	-0.251238	1
H	0.192402	3.232889	-0.296818	1
H	2.490162	1.812549	-0.014578	1
H	1.751193	-0.778541	0.186042	1
Es	-1.741245	-1.053310	-0.010260	99
Es	-0.499709	0.508951	-0.080155	99
Es	0.288415	2.160346	-0.188167	99
Es	-0.767325	-1.861545	-0.190019	99
Es	0.911903	1.838155	-0.117604	99
Es	-0.750447	1.256564	-0.167953	99
Es	1.544027	-0.501120	0.146221	99
Es	-0.570755	-0.531663	0.014639	99
Es	-0.247643	-0.022842	-0.012248	99
Es	0.129723	-2.603603	0.257193	99
Es	1.258999	0.812157	0.307673	99
Es	-1.021971	-1.184095	0.048068	99
Es	-0.582918	-2.441746	0.196268	99
Es	-1.061202	-2.999378	0.219086	99
Es	-0.199217	0.052865	-0.020702	99
Es	0.339383	-0.016220	0.024250	99
Es	1.127855	0.095383	0.062764	99
Es	-0.199765	1.752619	0.121545	99
Es	-0.807654	-1.802440	0.439988	99
Es	-1.473784	1.356898	-0.223680	99
Es	1.480685	1.423280	-0.041697	99
Es	-0.163668	1.695832	-0.474435	99
Es	0.225325	2.890366	-0.261910	99
Es	1.298532	0.753815	-0.294296	99
Es	2.164220	1.689776	-0.023679	99
39
Properties=species:S:1:pos:R:3:Z:I:1 energy=-285.7870335836186 field_type=dipole dipole="0.000000 0.000000 0.000000" charge=0
C	-0.582947	-2.441691	0.196282	6
C	-1.022048	-1.184381	0.048092	6
N	-0.247828	-0.023391	-0.013558	7
C	-0.750418	1.256799	-0.167988	6
C	0.288412	2.160309	-0.188158	6
C	1.480652	1.423259	-0.041698	6
C	1.128062	0.095509	0.062762	6
H	-1.287858	-3.267071	0.230272	1
H	0.468982	-2.690631	0.287132	1
H	-2.091738	-1.012181	-0.036548	1
H	-1.817028	1.416569	-0.251238	1
H	0.192402	3.232889	-0.296818	1
H	2.490162	1.812549	-0.014578	1
H	1.751193	-0.778541	0.186042	1
Es	1.544044	-0.501136	0.146649	99
Es	0.288415	2.160347	-0.188163	99
Es	-0.570472	-0.531824	0.016253	99
Es	1.127854	0.095383	0.062762	99
Es	0.338623	-0.016237	0.020566	99
Es	0.911149	1.836174	-0.121581	99
Es	-0.140655	1.746573	0.069093	99
Es	-0.582919	-2.441744	0.196290	99
Es	-0.750446	1.256563	-0.167965	99
Es	2.164430	1.690323	-0.024053	99
Es	-0.806587	-1.799454	0.437327	99
Es	-0.215182	1.708205	-0.419886	99
Es	0.225736	2.890798	-0.262266	99
Es	1.480682	1.423277	-0.041707	99
Es	-0.768031	-1.864686	-0.187945	99
Es	0.129423	-2.602723	0.257070	99
Es	1.319392	0.738655	-0.265856	99
Es	1.230979	0.823847	0.280494	99
Es	-0.498971	0.508972	-0.080942	99
Es	-1.061505	-2.999954	0.219702	99
Es	-1.021969	-1.184093	0.048067	99
Es	-0.199758	0.051833	-0.016309	99
Es	-0.247827	-0.023424	-0.013753	99
Es	-1.473504	1.357096	-0.222902	99
Es	-1.741136	-1.053727	-0.010057	99
39
Properties=species:S:1:pos:R:3:Z:I:1 energy=-285.7870335836186 field_type=dipole dipole="0.000000 0.000000 0.000000" charge=0
C	-0.582947	-2.441691	0.196282	6
C	-1.022048	-1.184381	0.048092	6
N	-0.247828	-0.023391	-0.013558	7
C	-0.750418	1.256799	-0.167988	6
C	0.288412	2.160309	-0.188158	6
C	1.480652	1.423259	-0.041698	6
C	1.128062	0.095509	0.062762	6
H	-1.287858	-3.267071	0.230272	1
H	0.468982	-2.690631	0.287132	1
H	-2.091738	-1.012181	-0.036548	1
H	-1.817028	1.416569	-0.251238	1
H	0.192402	3.232889	-0.296818	1
H	2.490162	1.812549	-0.014578	1
H	1.751193	-0.778541	0.186042	1
Es	-0.570324	-0.532083	0.014337	99
Es	0.288413	2.160348	-0.188141	99
Es	-1.061283	-3.000530	0.219297	99
Es	-1.021967	-1.184092	0.048066	99
Es	1.127856	0.095383	0.062765	99
Es	-0.247724	-0.022999	-0.012430	99
Es	0.226576	2.890927	-0.261992	99
Es	0.128697	-2.602373	0.257051	99
Es	-0.582919	-2.441744	0.196272	99
Es	-1.472996	1.356756	-0.223584	99
Es	1.289449	0.749627	-0.294401	99
Es	2.164358	1.690717	-0.023698	99
Es	0.910790	1.835919	-0.117153	99
Es	1.480685	1.423283	-0.041699	99
Es	-0.202807	0.051671	-0.019318	99
Es	-0.807080	-1.800851	0.438680	99
Es	1.543884	-0.501169	0.146291	99
Es	-0.079774	1.726390	-0.178510	99
Es	-0.266493	1.735349	-0.174808	99
Es	-0.750446	1.256564	-0.167966	99
Es	-0.498529	0.509058	-0.080430	99
Es	0.338079	-0.016063	0.023582	99
Es	-0.767471	-1.863196	-0.188747	99
Es	-1.740709	-1.053772	-0.010275	99
Es	1.253500	0.805923	0.307701	99
39
Properties=species:S:1:pos:R:3:Z:I:1 energy=-285.7870335836186 field_type=dipole dipole="0.000000 0.000000 0.000000" charge=0
C	-0.582947	-2.441691	0.196282	6
C	-1.022048	-1.184381	0.048092	6
N	-0.247828	-0.023391	-0.013558	7
C	-0.750418	1.256799	-0.167988	6
C	0.288412	2.160309	-0.188158	6
C	1.480652	1.423259	-0.041698	6
C	1.128062	0.095509	0.062762	6
H	-1.287858	-3.267071	0.230272	1
H	0.468982	-2.690631	0.287132	1
H	-2.091738	-1.012181	-0.036548	1
H	-1.817028	1.416569	-0.251238	1
H	0.192402	3.232889	-0.296818	1
H	2.490162	1.812549	-0.014578	1
H	1.751193	-0.778541	0.186042	1
Es	0.227125	2.890996	-0.262282	99
Es	-0.807357	-1.801476	0.438808	99
Es	0.910328	1.835440	-0.119084	99
Es	-1.472622	1.356506	-0.224075	99
Es	-0.582919	-2.441744	0.196290	99
Es	1.210419	0.823326	0.242031	99
Es	-0.767140	-1.862562	-0.189324	99
Es	-1.740376	-1.053896	-0.011002	99
Es	-0.247838	-0.023420	-0.013651	99
Es	1.543535	-0.501067	0.147201	99
Es	-0.498078	0.508717	-0.084499	99
Es	0.288416	2.160347	-0.188162	99
Es	-1.021968	-1.184092	0.048068	99
Es	-1.061102	-3.000885	0.219862	99
Es	1.127855	0.095383	0.062759	99
Es	1.480684	1.423279	-0.041701	99
Es	-0.201701	0.050585	-0.017295	99
Es	-0.570281	-0.532202	0.014923	99
Es	0.128096	-2.602001	0.257835	99
Es	2.164100	1.691494	-0.023486	99
Es	-0.259767	1.727998	-0.247662	99
Es	-0.083531	1.735646	-0.104788	99
Es	1.329054	0.731705	-0.227860	99
Es	0.337278	-0.015595	0.025968	99
Es	-0.750443	1.256562	-0.167985	99
39
Properties=species:S:1:pos:R:3:Z:I:1 energy=-285.7870335836186 field_type=dipole dipole="0.000000 0.000000 0.000000" charge=0
C	-0.582947	-2.441691	0.196282	6
C	-1.022048	-1.184381	0.048092	6
N	-0.247828	-0.023391	-0.013558	7
C	-0.750418	1.256799	-0.167988	6
C	0.288412	2.160309	-0.188158	6
C	1.480652	1.423259	-0.041698	6
C	1.128062	0.095509	0.062762	6
H	-1.287858	-3.267071	0.230272	1
H	0.468982	-2.690631	0.287132	1
H	-2.091738	-1.012181	-0.036548	1
H	-1.817028	1.416569	-0.251238	1
H	0.192402	3.232889	-0.296818	1
H	2.490162	1.812549	-0.014578	1
H	1.751193	-0.778541	0.186042	1
Es	-0.201310	0.048646	-0.020051	99
Es	0.288414	2.160348	-0.188155	99
Es	-1.472372	1.356477	-0.223283	99
Es	-0.750446	1.256562	-0.167963	99
Es	-0.267754	1.742314	-0.095391	99
Es	-0.806278	-1.798006	0.437152	99
Es	1.312156	0.767347	0.207946	99
Es	0.337466	-0.016092	0.020640	99
Es	0.909659	1.835674	-0.115636	99
Es	-0.498607	0.509419	-0.076356	99
Es	2.164047	1.691849	-0.024184	99
Es	-1.021968	-1.184095	0.048074	99
Es	-0.582919	-2.441745	0.196288	99
Es	-0.570328	-0.532211	0.014131	99
Es	-0.073030	1.722532	-0.258235	99
Es	0.127836	-2.601978	0.256258	99
Es	1.224697	0.786976	-0.195599	99
Es	-0.768260	-1.866015	-0.187069	99
Es	1.543459	-0.501186	0.145442	99
Es	-1.740166	-1.053743	-0.009454	99
Es	0.227514	2.891130	-0.261729	99
Es	1.127855	0.095383	0.062762	99
Es	1.480685	1.423279	-0.041700	99
Es	-0.247541	-0.022628	-0.011967	99
Es	-1.061043	-3.001195	0.218968	99
39
Properties=species:S:1:pos:R:3:Z:I:1 energy=-285.7870335836186 field_type=dipole dipole="0.000000 0.000000 0.000000" charge=0
C	-0.582947	-2.441691	0.196282	6
C	-1.022048	-1.184381	0.048092	6
N	-0.247828	-0.023391	-0.013558	7
C	-0.750418	1.256799	-0.167988	6
C	0.288412	2.160309	-0.188158	6
C	1.480652	1.423259	-0.041698	6
C	1.128062	0.095509	0.062762	6
H	-1.287858	-3.267071	0.230272	1
H	0.468982	-2.690631	0.287132	1
H	-2.091738	-1.012181	-0.036548	1
H	-1.817028	1.416569	-0.251238	1
H	0.192402	3.232889	-0.296818	1
H	2.490162	1.812549	-0.014578	1
H	1.751193	-0.778541	0.186042	1
Es	-0.750446	1.256565	-0.167963	99
Es	1.480685	1.423278	-0.041708	99
Es	2.163868	1.692426	-0.023630	99
Es	0.288414	2.160347	-0.188161	99
Es	1.341014	0.730089	-0.144509	99
Es	0.227886	2.891101	-0.262448	99
Es	-1.472066	1.356243	-0.223965	99
Es	-0.260989	1.728829	-0.238426	99
Es	0.909752	1.834984	-0.119441	99
Es	-0.767668	-1.865366	-0.188323	99
Es	-0.582919	-2.441744	0.196287	99
Es	0.336603	-0.015326	0.028143	99
Es	-0.247841	-0.023417	-0.013601	99
Es	-0.077082	1.737877	-0.113674	99
Es	-1.739691	-1.053813	-0.010872	99
Es	1.127855	0.095383	0.062762	99
Es	1.193225	0.823011	0.158473	99
Es	-0.570492	-0.532117	0.015129	99
Es	-0.201054	0.048983	-0.018639	99
Es	1.543127	-0.500901	0.147320	99
Es	-1.021967	-1.184093	0.048066	99
Es	-1.060878	-3.001363	0.219919	99
Es	-0.497932	0.508527	-0.085365	99
Es	-0.806836	-1.798708	0.437562	99
Es	0.127196	-2.601751	0.257953	99
39
Properties=species:S:1:pos:R:3:Z:I:1 energy=-285.7870335836186 field_type=dipole dipole="0.000000 0.000000 0.000000" charge=0
C	-0.582947	-2.441691	0.196282	6
C	-1.022048	-1.184381	0.048092	6
N	-0.247828	-0.023391	-0.013558	7
C	-0.750418	1.256799	-0.167988	6
C	0.288412	2.160309	-0.188158	6
C	1.480652	1.423259	-0.041698	6
C	1.128062	0.095509	0.062762	6
H	-1.287858	-3.267071	0.230272	1
H	0.468982	-2.690631	0.287132	1
H	-2.091738	-1.012181	-0.036548	1
H	-1.817028	1.416569	-0.251238	1
H	0.192402	3.232889	-0.296818	1
H	2.490162	1.812549	-0.014578	1
H	1.751193	-0.778541	0.186042	1
Es	0.127082	-2.601807	0.256108	99
Es	-0.200837	0.048400	-0.019143	99
Es	-1.471928	1.356192	-0.223307	99
Es	1.127859	0.095382	0.062762	99
Es	2.163783	1.692811	-0.023938	99
Es	1.203194	0.799245	-0.114289	99
Es	-1.060742	-3.001629	0.218773	99
Es	0.336832	-0.015854	0.023058	99
Es	-0.247835	-0.023424	-0.013666	99
Es	-0.582919	-2.441745	0.196284	99
Es	-0.766923	-1.859321	-0.188833	99
Es	0.288415	2.160347	-0.188159	99
Es	-0.268177	1.740725	-0.113776	99
Es	1.480686	1.423280	-0.041698	99
Es	0.909077	1.835138	-0.115212	99
Es	-0.498300	0.509305	-0.077600	99
Es	-1.739631	-1.053678	-0.009698	99
Es	1.329320	0.753091	0.126218	99
Es	-0.750445	1.256563	-0.167967	99
Es	-0.807721	-1.804616	0.439468	99
Es	0.228223	2.891243	-0.261403	99
Es	1.543106	-0.501049	0.145461	99
Es	-1.021968	-1.184094	0.048070	99
Es	-0.570434	-0.532286	0.013668	99
Es	-0.067951	1.726824	-0.240292	99
39
Properties=species:S:1:pos:R:3:Z:I:1 energy=-285.7870335836186 field_type=dipole dipole="0.000000 0.000000 0.000000" charge=0
C	-0.582947	-2.441691	0.196282	6
C	-1.022048	-1.184381	0.048092	6
N	-0.247828	-0.023391	-0.013558	7
C	-0.750418	1.256799	-0.167988	6
C	0.288412	2.160309	-0.188158	6
C	1.480652	1.423259	-0.041698	6
C	1.128062	0.095509	0.062762	6
H	-1.287858	-3.267071	0.230272	1
H	0.468982	-2.690631	0.287132	1
H	-2.091738	-1.012181	-0.036548	1
H	-1.817028	1.416569	-0.251238	1
H	0.192402	3.232889	-0.296818	1
H	2.490162	1.812549	-0.014578	1
H	1.751193	-0.778541	0.186042	1
Es	1.127857	0.095383	0.062759	99
Es	-1.060857	-3.001828	0.218801	99
Es	1.343047	0.736990	-0.015872	99
Es	-0.750445	1.256564	-0.167964	99
Es	-0.582919	-2.441744	0.196289	99
Es	0.126407	-2.601686	0.256613	99
Es	-0.247848	-0.023353	-0.013207	99
Es	1.194654	0.823468	0.028106	99
Es	-0.802264	-1.850424	0.272947	99
Es	-0.180363	1.758941	0.121124	99
Es	-0.498390	0.509372	-0.078294	99
Es	2.163608	1.693122	-0.023597	99
Es	0.908656	1.835535	-0.116773	99
Es	-0.771174	-1.813017	-0.022404	99
Es	-0.164325	1.702001	-0.474734	99
Es	0.228105	2.891466	-0.261308	99
Es	-1.740021	-1.054208	-0.010127	99
Es	0.336502	-0.016000	0.021538	99
Es	-1.471673	1.356308	-0.223446	99
Es	1.542891	-0.501053	0.145822	99
Es	1.480684	1.423278	-0.041698	99
Es	0.288415	2.160346	-0.188157	99
Es	-0.570331	-0.532375	0.013384	99
Es	-1.021967	-1.184091	0.048070	99
Es	-0.196482	0.046050	-0.016981	99
39
Properties=species:S:1:pos:R:3:Z:I:1 energy=-285.7870335836186 field_type=dipole dipole="0.000000 0.000000 0.000000" charge=0
C	-0.582947	-2.441691	0.196282	6
C	-1.022048	-1.184381	0.048092	6
N	-0.247828	-0.023391	-0.013558	7
C	-0.750418	1.256799	-0.167988	6
C	0.288412	2.160309	-0.188158	6
C	1.480652	1.423259	-0.041698	6
C	1.128062	0.095509	0.062762	6
H	-1.287858	-3.267071	0.230272	1
H	0.468982	-2.690631	0.287132	1
H	-2.091738	-1.012181	-0.036548	1
H	-1.817028	1.416569	-0.251238	1
H	0.192402	3.232889	-0.296818	1
H	2.490162	1.812549	-0.014578	1
H	1.751193	-0.778541	0.186042	1
Es	-1.739286	-1.053720	-0.010332	99
Es	1.480685	1.423280	-0.041698	99
Es	-0.570594	-0.532182	0.014601	99
Es	-0.498011	0.508896	-0.081445	99
Es	1.343106	0.736821	-0.018253	99
Es	-0.067306	1.736740	-0.156029	99
Es	0.228797	2.891235	-0.261946	99
Es	-1.060676	-3.001827	0.219506	99
Es	-1.471631	1.356096	-0.223525	99
Es	1.186062	0.813866	0.031493	99
Es	-0.247821	-0.023419	-0.013793	99
Es	2.163686	1.693395	-0.023907	99
Es	1.127855	0.095384	0.062760	99
Es	0.126468	-2.601598	0.257021	99
Es	-0.201231	0.048173	-0.018136	99
Es	-0.807319	-1.801472	0.440064	99
Es	0.288415	2.160347	-0.188160	99
Es	1.542882	-0.500832	0.146431	99
Es	-0.265218	1.732822	-0.196622	99
Es	-0.767172	-1.862481	-0.190170	99
Es	0.908949	1.834542	-0.118101	99
Es	-1.021971	-1.184086	0.048065	99
Es	0.336462	-0.015756	0.024756	99
Es	-0.582919	-2.441744	0.196289	99
Es	-0.750445	1.256565	-0.167980	99
39
Properties=species:S:1:pos:R:3:Z:I:1 energy=-285.7870335836186 field_type=dipole dipole="0.000000 0.000000 0.000000" charge=0
C	-0.582947	-2.441691	0.196282	6
C	-1.022048	-1.184381	0.048092	6
N	-0.247828	-0.023391	-0.013558	7
C	-0.750418	1.256799	-0.167988	6
C	0.288412	2.160309	-0.188158	6
C	1.480652	1.423259	-0.041698	6
C	1.128062	0.095509	0.062762	6
H	-1.287858	-3.267071	0.230272	1
H	0.468982	-2.690631	0.287132	1
H	-2.091738	-1.012181	-0.036548	1
H	-1.817028	1.416569	-0.251238	1
H	0.192402	3.232889	-0.296818	1
H	2.490162	1.812549	-0.014578	1
H	1.751193	-0.778541	0.186042	1
Es	0.126675	-2.601405	0.256700	99
Es	0.908803	1.834810	-0.117681	99
Es	1.187194	0.809747	-0.009402	99
Es	-0.750446	1.256563	-0.167963	99
Es	-1.739540	-1.053828	-0.009910	99
Es	-0.247849	-0.023412	-0.013569	99
Es	1.127854	0.095384	0.062761	99
Es	1.340867	0.740508	0.022403	99
Es	-1.060818	-3.001849	0.219456	99
Es	1.480685	1.423279	-0.041700	99
Es	-0.065395	1.736163	-0.168105	99
Es	0.228853	2.891267	-0.261927	99
Es	0.336365	-0.015960	0.023445	99
Es	-0.767468	-1.863198	-0.189310	99
Es	-0.582920	-2.441744	0.196295	99
Es	-1.021968	-1.184094	0.048076	99
Es	-0.806929	-1.800802	0.439077	99
Es	-0.201160	0.047976	-0.018521	99
Es	1.542838	-0.500832	0.146067	99
Es	0.288414	2.160348	-0.188154	99
Es	-0.570463	-0.532258	0.014730	99
Es	-1.471592	1.356053	-0.223246	99
Es	-0.265978	1.733778	-0.184668	99
Es	2.163690	1.693396	-0.024170	99
Es	-0.497950	0.509154	-0.079792	99
39
Properties=species:S:1:pos:R:3:Z:I:1 energy=-285.7870335836186 field_type=dipole dipole="0.000000 0.000000 0.000000" charge=0
C	-0.582947	-2.441691	0.196282	6
C	-1.022048	-1.184381	0.048092	6
N	-0.247828	-0.023391	-0.013558	7
C	-0.750418	1.256799	-0.167988	6
C	0.288412	2.160309	-0.188158	6
C	1.480652	1.423259	-0.041698	6
C	1.128062	0.095509	0.062762	6
H	-1.287858	-3.267071	0.230272	1
H	0.468982	-2.690631	0.287132	1
H	-2.091738	-1.012181	-0.036548	1
H	-1.817028	1.416569	-0.251238	1
H	0.192402	3.232889	-0.296818	1
H	2.490162	1.812549	-0.014578	1
H	1.751193	-0.778541	0.186042	1
Es	-0.769585	-1.870386	-0.178696	99
Es	-0.570565	-0.532189	0.015590	99
Es	1.340883	0.740419	0.021928	99
Es	-0.750445	1.256563	-0.167965	99
Es	-0.804633	-1.793635	0.427842	99
Es	0.126481	-2.601405	0.256982	99
Es	1.480685	1.423278	-0.041709	99
Es	-0.497990	0.508777	-0.081548	99
Es	-0.226201	0.007901	-0.023785	99
Es	0.288415	2.160348	-0.188161	99
Es	-0.063960	1.736719	-0.167538	99
Es	-1.471387	1.356005	-0.223183	99
Es	1.542777	-0.500714	0.146534	99
Es	-0.582919	-2.441744	0.196290	99
Es	-0.222917	0.016462	-0.006181	99
Es	0.908841	1.834527	-0.118478	99
Es	-1.060905	-3.001824	0.219893	99
Es	1.185684	0.809700	-0.008848	99
Es	1.127856	0.095383	0.062763	99
Es	-0.266054	1.733815	-0.184544	99
Es	0.336425	-0.015919	0.022259	99
Es	0.229076	2.891221	-0.262298	99
Es	2.163647	1.693671	-0.024428	99
Es	-1.021969	-1.184093	0.048080	99
Es	-1.739474	-1.053837	-0.009908	99
39
Properties=species:S:1:pos:R:3:Z:I:1 energy=-285.7870335836186 field_type=dipole dipole="0.000000 0.000000 0.000000" charge=0
C	-0.582947	-2.441691	0.196282	6
C	-1.022048	-1.184381	0.048092	6
N	-0.247828	-0.023391	-0.013558	7
C	-0.750418	1.256799	-0.167988	6
C	0.288412	2.160309	-0.188158	6
C	1.480652	1.423259	-0.041698	6
C	1.128062	0.095509	0.062762	6
H	-1.287858	-3.267071	0.230272	1
H	0.468982	-2.690631	0.287132	1
H	-2.091738	-1.012181	-0.036548	1
H	-1.817028	1.416569	-0.251238	1
H	0.192402	3.232889	-0.296818	1
H	2.490162	1.812549	-0.014578	1
H	1.751193	-0.778541	0.186042	1
Es	-0.201408	0.047922	-0.017735	99
Es	-0.750445	1.256563	-0.167966	99
Es	-0.808396	-1.813197	0.427690	99
Es	2.163591	1.693778	-0.023617	99
Es	0.288414	2.160349	-0.188149	99
Es	-0.265303	1.732795	-0.194754	99
Es	-0.765922	-1.850767	-0.177485	99
Es	-0.498019	0.509081	-0.079539	99
Es	-0.063979	1.738219	-0.158705	99
Es	-1.471370	1.355966	-0.223628	99
Es	1.183513	0.811618	0.022275	99
Es	-1.021966	-1.184092	0.048069	99
Es	-0.570449	-0.532332	0.013498	99
Es	1.342643	0.737527	-0.009630	99
Es	-0.247800	-0.023416	-0.013933	99
Es	0.336290	-0.015940	0.023649	99
Es	0.908627	1.834667	-0.116741	99
Es	-1.739565	-1.054002	-0.010157	99
Es	0.229120	2.891332	-0.261385	99
Es	1.542799	-0.500766	0.145962	99
Es	0.126624	-2.601192	0.256842	99
Es	-1.060854	-3.001984	0.218977	99
Es	-0.582919	-2.441744	0.196289	99
Es	1.127853	0.095380	0.062763	99
Es	1.480685	1.423280	-0.041701	99
39
Properties=species:S:1:pos:R:3:Z:I:1 energy=-285.7870335836186 field_type=dipole dipole="0.000000 0.000000 0.000000" charge=0
C	-0.582947	-2.441691	0.196282	6
C	-1.022048	-1.184381	0.048092	6
N	-0.247828	-0.023391	-0.013558	7
C	-0.750418	1.256799	-0.167988	6
C	0.288412	2.160309	-0.188158	6
C	1.480652	1.423259	-0.041698	6
C	1.128062	0.095509	0.062762	6
H	-1.287858	-3.267071	0.230272	1
H	0.468982	-2.690631	0.287132	1
H	-2.091738	-1.012181	-0.036548	1
H	-1.817028	1.416569	-0.251238	1
H	0.192402	3.232889	-0.296818	1
H	2.490162	1.812549	-0.014578	1
H	1.751193	-0.778541	0.186042	1
Es	1.480684	1.423280	-0.041691	99
Es	-0.498099	0.509148	-0.078443	99
Es	-1.021967	-1.184092	0.048071	99
Es	1.183458	0.810274	0.010219	99
Es	-0.570423	-0.532369	0.013638	99
Es	2.163545	1.693969	-0.023698	99
Es	-0.063572	1.738971	-0.154186	99
Es	0.336328	-0.016022	0.022057	99
Es	-0.582919	-2.441744	0.196286	99
Es	-0.265022	1.732434	-0.199311	99
Es	1.127856	0.095383	0.062759	99
Es	-1.471286	1.355944	-0.223433	99
Es	-0.247573	-0.022709	-0.012004	99
Es	0.908605	1.834464	-0.116751	99
Es	-0.808426	-1.816189	0.421408	99
Es	1.342102	0.738589	0.002453	99
Es	0.288415	2.160347	-0.188161	99
Es	-0.765986	-1.847743	-0.170953	99
Es	0.126480	-2.601204	0.256612	99
Es	-1.060748	-3.002078	0.218792	99
Es	-1.739454	-1.053932	-0.010033	99
Es	-0.201765	0.047199	-0.019296	99
Es	0.229270	2.891354	-0.261153	99
Es	1.542706	-0.500790	0.145675	99
Es	-0.750446	1.256561	-0.167967	99
39
Properties=species:S:1:pos:R:3:Z:I:1 energy=-285.7870335836186 field_type=dipole dipole="0.000000 0.000000 0.000000" charge=0
C	-0.582947	-2.441691	0.196282	6
C	-1.022048	-1.184381	0.048092	6
N	-0.247828	-0.023391	-0.013558	7
C	-0.750418	1.256799	-0.167988	6
C	0.288412	2.160309	-0.188158	6
C	1.480652	1.423259	-0.041698	6
C	1.128062	0.095509	0.062762	6
H	-1.287858	-3.267071	0.230272	1
H	0.468982	-2.690631	0.287132	1
H	-2.091738	-1.012181	-0.036548	1
H	-1.817028	1.416569	-0.251238	1
H	0.192402	3.232889	-0.296818	1
H	2.490162	1.812549	-0.014578	1
H	1.751193	-0.778541	0.186042	1
Es	1.480685	1.423279	-0.041703	99
Es	-1.471231	1.355904	-0.223393	99
Es	-0.802862	-1.790332	0.413709	99
Es	-0.582920	-2.441744	0.196296	99
Es	-1.021967	-1.184093	0.048066	99
Es	1.184411	0.807370	-0.015783	99
Es	-0.267064	1.735489	-0.166283	99
Es	1.340323	0.741144	0.028898	99
Es	-0.497793	0.508766	-0.082513	99
Es	-1.739543	-1.054054	-0.010283	99
Es	0.126382	-2.601193	0.256930	99
Es	2.163602	1.693927	-0.024478	99
Es	-0.750445	1.256563	-0.167966	99
Es	1.127856	0.095383	0.062762	99
Es	1.542641	-0.500637	0.146738	99
Es	0.229429	2.891244	-0.262497	99
Es	0.908618	1.834392	-0.118381	99
Es	-1.060902	-3.001958	0.219906	99
Es	0.336168	-0.015939	0.023524	99
Es	0.288415	2.160346	-0.188169	99
Es	-0.201981	0.047707	-0.015495	99
Es	-0.570572	-0.532177	0.015666	99
Es	-0.771241	-1.873582	-0.164057	99
Es	-0.060737	1.736391	-0.185712	99
Es	-0.247506	-0.023153	-0.014892	99
39
Properties=species:S:1:pos:R:3:Z:I:1 energy=-285.7870335836186 field_type=dipole dipole="0.000000 0.000000 0.000000" charge=0
C	-0.582947	-2.441691	0.196282	6
C	-1.022048	-1.184381	0.048092	6
N	-0.247828	-0.023391	-0.013558	7
C	-0.750418	1.256799	-0.167988	6
C	0.288412	2.160309	-0.188158	6
C	1.480652	1.423259	-0.041698	6
C	1.128062	0.095509	0.062762	6
H	-1.287858	-3.267071	0.230272	1
H	0.468982	-2.690631	0.287132	1
H	-2.091738	-1.012181	-0.036548	1
H	-1.817028	1.416569	-0.251238	1
H	0.192402	3.232889	-0.296818	1
H	2.490162	1.812549	-0.014578	1
H	1.751193	-0.778541	0.186042	1
Es	-0.061404	1.732707	-0.216199	99
Es	1.241594	0.765236	-0.263729	99
Es	0.229103	2.891415	-0.260993	99
Es	-0.750446	1.256564	-0.167965	99
Es	1.127855	0.095383	0.062762	99
Es	-1.021967	-1.184095	0.048071	99
Es	2.163828	1.693515	-0.024063	99
Es	-0.247764	-0.023395	-0.014109	99
Es	-0.570394	-0.532380	0.013526	99
Es	1.480684	1.423280	-0.041694	99
Es	-0.498290	0.509656	-0.073767	99
Es	-0.798295	-1.860082	0.203371	99
Es	0.125822	-2.601699	0.255226	99
Es	-0.267907	1.738100	-0.137207	99
Es	-0.582919	-2.441745	0.196285	99
Es	-1.060719	-3.002113	0.218539	99
Es	0.288415	2.160348	-0.188162	99
Es	1.542942	-0.501042	0.144699	99
Es	0.336630	-0.016563	0.018004	99
Es	-1.739889	-1.054162	-0.008944	99
Es	1.284481	0.783357	0.276002	99
Es	-0.774877	-1.803175	0.047578	99
Es	-1.471222	1.356030	-0.222738	99
Es	0.909087	1.834946	-0.116147	99
Es	-0.202583	0.048958	-0.017458	99
39
Properties=species:S:1:pos:R:3:Z:I:1 energy=-285.7870335836186 field_type=dipole dipole="0.000000 0.000000 0.000000" charge=0
C	-0.582947	-2.441691	0.196282	6
C	-1.022048	-1.184381	0.048092	6
N	-0.247828	-0.023391	-0.013558	7
C	-0.750418	1.256799	-0.167988	6
C	0.288412	2.160309	-0.188158	6
C	1.480652	1.423259	-0.041698	6
C	1.128062	0.095509	0.062762	6
H	-1.287858	-3.267071	0.230272	1
H	0.468982	-2.690631	0.287132	1
H	-2.091738	-1.012181	-0.036548	1
H	-1.817028	1.416569	-0.251238	1
H	0.192402	3.232889	-0.296818	1
H	2.490162	1.812549	-0.014578	1
H	1.751193	-0.778541	0.186042	1
Es	0.336293	-0.016213	0.021447	99
Es	-0.582919	-2.441745	0.196278	99
Es	-1.060690	-3.002217	0.218608	99
Es	-0.498040	0.509251	-0.077070	99
Es	1.341062	0.740020	0.017436	99
Es	-1.021972	-1.184085	0.048073	99
Es	-0.808097	-1.821555	0.406708	99
Es	-1.471165	1.355839	-0.223476	99
Es	1.182632	0.807826	-0.004836	99
Es	-0.750445	1.256563	-0.167965	99
Es	-0.201888	0.047612	-0.018959	99
Es	0.126039	-2.601245	0.256445	99
Es	-0.265498	1.732931	-0.192180	99
Es	0.288414	2.160347	-0.188158	99
Es	0.229545	2.891389	-0.261032	99
Es	-0.570578	-0.532340	0.013155	99
Es	1.542683	-0.500699	0.145384	99
Es	-1.739378	-1.053943	-0.009737	99
Es	-0.060911	1.739293	-0.161451	99
Es	2.163524	1.694242	-0.023611	99
Es	1.480683	1.423279	-0.041698	99
Es	0.908401	1.834486	-0.116302	99
Es	-0.247782	-0.023138	-0.012649	99
Es	-0.766001	-1.842234	-0.156276	99
Es	1.127854	0.095382	0.062757	99
39
Properties=species:S:1:pos:R:3:Z:I:1 energy=-285.7870335836186 field_type=dipole dipole="0.000000 0.000000 0.000000" charge=0
C	-0.582947	-2.441691	0.196282	6
C	-1.022048	-1.184381	0.048092	6
N	-0.247828	-0.023391	-0.013558	7
C	-0.750418	1.256799	-0.167988	6
C	0.288412	2.160309	-0.188158	6
C	1.480652	1.423259	-0.041698	6
C	1.128062	0.095509	0.062762	6
H	-1.287858	-3.267071	0.230272	1
H	0.468982	-2.690631	0.287132	1
H	-2.091738	-1.012181	-0.036548	1
H	-1.817028	1.416569	-0.251238	1
H	0.192402	3.232889	-0.296818	1
H	2.490162	1.812549	-0.014578	1
H	1.751193	-0.778541	0.186042	1
Es	2.163467	1.694362	-0.023430	99
Es	-0.582918	-2.441744	0.196287	99
Es	0.908333	1.834495	-0.115439	99
Es	-0.750446	1.256565	-0.167963	99
Es	-0.808183	-1.823192	0.402027	99
Es	-0.570486	-0.532412	0.012859	99
Es	-0.247841	-0.023417	-0.013624	99
Es	0.125943	-2.601217	0.256806	99
Es	-0.765928	-1.840564	-0.151452	99
Es	1.342336	0.737924	-0.004951	99
Es	0.288413	2.160347	-0.188146	99
Es	-0.060555	1.739525	-0.160909	99
Es	1.127856	0.095382	0.062750	99
Es	0.229668	2.891384	-0.261009	99
Es	-1.471053	1.355843	-0.223628	99
Es	1.480684	1.423279	-0.041695	99
Es	-0.265443	1.732802	-0.193508	99
Es	-1.021966	-1.184094	0.048070	99
Es	-0.498061	0.509167	-0.077717	99
Es	-1.060661	-3.002246	0.218550	99
Es	-0.201888	0.047857	-0.018201	99
Es	1.542617	-0.500645	0.145659	99
Es	0.336113	-0.016089	0.022566	99
Es	-1.739319	-1.053973	-0.010163	99
Es	1.181084	0.809706	0.017150	99
