45
Properties=species:S:1:pos:R:3:Z:I:1 energy=-288.07699163704604 field_type=dipole dipole="0.000000 0.000000 0.000000" charge=0
C	-0.249756	-2.186123	-0.089959	6
C	-0.876656	-0.817893	0.157381	6
N	-0.378816	0.228757	-0.745829	7
C	-1.148746	1.462507	-0.581129	6
C	1.067874	0.478547	-0.652909	6
C	1.533854	0.907237	0.676681	6
C	1.921004	1.256217	1.760011	6
H	-0.767196	-2.945513	0.505801	1
H	0.805804	-2.209053	0.197121	1
H	-0.331826	-2.474453	-1.143149	1
H	-0.746386	-0.540293	1.210491	1
H	-1.956726	-0.931913	-0.002269	1
H	-2.207566	1.283517	-0.800229	1
H	-0.813196	2.228367	-1.289429	1
H	-1.077816	1.872457	0.432451	1
H	1.345524	1.240347	-1.392879	1
H	1.618183	-0.417273	-0.962699	1
H	2.262444	1.564567	2.720551	1
Es	0.261412	0.351529	-0.646584	99
Es	1.533774	0.907158	0.676461	99
Es	1.307697	0.704106	0.052035	99
Es	2.050764	1.155890	1.082552	99
Es	1.476837	1.339840	1.238737	99
Es	-1.870630	1.332886	-0.725488	99
Es	-0.378706	0.228958	-0.745251	99
Es	1.067786	0.478572	-0.652772	99
Es	-0.546180	-1.499096	0.028299	99
Es	-1.616243	-0.887451	0.043994	99
Es	-0.876582	-0.817833	0.157273	99
Es	-0.571423	-0.206295	-0.325304	99
Es	-0.699619	0.771844	-0.640516	99
Es	1.439815	-0.123274	-0.837329	99
Es	2.143990	1.457808	2.387000	99
Es	1.663774	0.758134	1.364808	99
Es	1.921068	1.256285	1.760240	99
Es	-0.909443	1.983946	-1.062652	99
Es	-0.782925	-0.625332	0.882821	99
Es	1.252356	1.002093	-1.131158	99
Es	-0.305901	-2.379508	-0.806352	99
Es	-1.098495	1.742237	0.116691	99
Es	-0.249766	-2.186101	-0.089944	99
Es	-0.605191	-2.697484	0.319538	99
Es	-0.426153	0.117344	-1.069685	99
Es	0.471424	-2.196398	0.103768	99
Es	-1.148678	1.462393	-0.581154	99
45
Properties=species:S:1:pos:R:3:Z:I:1 energy=-288.07699163704604 field_type=dipole dipole="0.000000 0.000000 0.000000" charge=0
C	-0.249756	-2.186123	-0.089959	6
C	-0.876656	-0.817893	0.157381	6
N	-0.378816	0.228757	-0.745829	7
C	-1.148746	1.462507	-0.581129	6
C	1.067874	0.478547	-0.652909	6
C	1.533854	0.907237	0.676681	6
C	1.921004	1.256217	1.760011	6
H	-0.767196	-2.945513	0.505801	1
H	0.805804	-2.209053	0.197121	1
H	-0.331826	-2.474453	-1.143149	1
H	-0.746386	-0.540293	1.210491	1
H	-1.956726	-0.931913	-0.002269	1
H	-2.207566	1.283517	-0.800229	1
H	-0.813196	2.228367	-1.289429	1
H	-1.077816	1.872457	0.432451	1
H	1.345524	1.240347	-1.392879	1
H	1.618183	-0.417273	-0.962699	1
H	2.262444	1.564567	2.720551	1
Es	-0.695077	0.768249	-0.634738	99
Es	-1.615439	-0.888186	0.042370	99
Es	1.390332	1.112196	1.330497	99
Es	0.470885	-2.196065	0.105689	99
Es	-0.546585	-1.499366	0.028257	99
Es	-1.870080	1.332631	-0.727318	99
Es	-0.909820	1.981615	-1.062559	99
Es	-0.306911	-2.380529	-0.809618	99
Es	0.257749	0.353195	-0.640599	99
Es	2.143948	1.457752	2.388685	99
Es	1.438302	-0.121488	-0.838198	99
Es	-0.568950	-0.199926	-0.322525	99
Es	1.067785	0.478571	-0.652771	99
Es	-0.604516	-2.694706	0.319852	99
Es	-0.378701	0.228982	-0.745196	99
Es	1.533766	0.907163	0.676450	99
Es	-0.429720	0.112495	-1.086062	99
Es	-0.782286	-0.625312	0.885623	99
Es	-1.148677	1.462395	-0.581154	99
Es	1.251907	1.000082	-1.131775	99
Es	1.921080	1.256291	1.760241	99
Es	-0.876580	-0.817833	0.157271	99
Es	1.309215	0.704314	0.053002	99
Es	-0.249766	-2.186100	-0.089944	99
Es	-1.097963	1.743689	0.118993	99
Es	1.903849	0.781548	1.272558	99
Es	1.897011	1.360593	1.082997	99
45
Properties=species:S:1:pos:R:3:Z:I:1 energy=-288.07699163704604 field_type=dipole dipole="0.000000 0.000000 0.000000" charge=0
C	-0.249756	-2.186123	-0.089959	6
C	-0.876656	-0.817893	0.157381	6
N	-0.378816	0.228757	-0.745829	7
C	-1.148746	1.462507	-0.581129	6
C	1.067874	0.478547	-0.652909	6
C	1.533854	0.907237	0.676681	6
C	1.921004	1.256217	1.760011	6
H	-0.767196	-2.945513	0.505801	1
H	0.805804	-2.209053	0.197121	1
H	-0.331826	-2.474453	-1.143149	1
H	-0.746386	-0.540293	1.210491	1
H	-1.956726	-0.931913	-0.002269	1
H	-2.207566	1.283517	-0.800229	1
H	-0.813196	2.228367	-1.289429	1
H	-1.077816	1.872457	0.432451	1
H	1.345524	1.240347	-1.392879	1
H	1.618183	-0.417273	-0.962699	1
H	2.262444	1.564567	2.720551	1
Es	-0.547060	-1.499593	0.028408	99
Es	-1.097560	1.744445	0.120048	99
Es	0.255233	0.354126	-0.637209	99
Es	1.906544	0.786791	1.269824	99
Es	0.470772	-2.195688	0.106867	99
Es	-0.910018	1.980218	-1.062279	99
Es	-0.876582	-0.817834	0.157272	99
Es	-1.148680	1.462399	-0.581153	99
Es	-0.378714	0.228957	-0.745279	99
Es	1.393001	1.103170	1.332307	99
Es	-0.249766	-2.186099	-0.089945	99
Es	-1.869866	1.332445	-0.728382	99
Es	-1.615062	-0.888732	0.041502	99
Es	-0.603758	-2.692937	0.319655	99
Es	-0.567516	-0.196173	-0.321656	99
Es	1.067786	0.478569	-0.652769	99
Es	-0.692134	0.765492	-0.631611	99
Es	1.533767	0.907161	0.676449	99
Es	1.251740	0.998753	-1.132009	99
Es	2.144212	1.457904	2.389235	99
Es	-0.307705	-2.381211	-0.811141	99
Es	-0.431951	0.110507	-1.094273	99
Es	1.309907	0.704678	0.053498	99
Es	1.437526	-0.120443	-0.838433	99
Es	1.921096	1.256295	1.760241	99
Es	1.891410	1.364348	1.083951	99
Es	-0.781862	-0.625300	0.886909	99
45
Properties=species:S:1:pos:R:3:Z:I:1 energy=-288.07699163704604 field_type=dipole dipole="0.000000 0.000000 0.000000" charge=0
C	-0.249756	-2.186123	-0.089959	6
C	-0.876656	-0.817893	0.157381	6
N	-0.378816	0.228757	-0.745829	7
C	-1.148746	1.462507	-0.581129	6
C	1.067874	0.478547	-0.652909	6
C	1.533854	0.907237	0.676681	6
C	1.921004	1.256217	1.760011	6
H	-0.767196	-2.945513	0.505801	1
H	0.805804	-2.209053	0.197121	1
H	-0.331826	-2.474453	-1.143149	1
H	-0.746386	-0.540293	1.210491	1
H	-1.956726	-0.931913	-0.002269	1
H	-2.207566	1.283517	-0.800229	1
H	-0.813196	2.228367	-1.289429	1
H	-1.077816	1.872457	0.432451	1
H	1.345524	1.240347	-1.392879	1
H	1.618183	-0.417273	-0.962699	1
H	2.262444	1.564567	2.720551	1
Es	1.533768	0.907157	0.676450	99
Es	-0.434176	0.109565	-1.099094	99
Es	2.144771	1.457540	2.389521	99
Es	1.251708	0.998099	-1.132403	99
Es	1.422043	0.975973	1.363739	99
Es	-0.566661	-0.193398	-0.320933	99
Es	-0.378689	0.228960	-0.745264	99
Es	-0.876582	-0.817834	0.157274	99
Es	-1.097187	1.744862	0.120614	99
Es	-1.614838	-0.889171	0.040962	99
Es	0.254012	0.354769	-0.635351	99
Es	1.921082	1.256288	1.760247	99
Es	1.436780	-0.119676	-0.838431	99
Es	1.310173	0.705304	0.053763	99
Es	-0.910155	1.979386	-1.062271	99
Es	-1.869699	1.332248	-0.728858	99
Es	-0.603402	-2.691521	0.319424	99
Es	1.771025	1.414533	1.116801	99
Es	-0.547090	-1.499683	0.028371	99
Es	1.997512	0.863572	1.205721	99
Es	0.470708	-2.195609	0.107779	99
Es	-0.249767	-2.186098	-0.089945	99
Es	-0.308320	-2.381653	-0.812064	99
Es	-0.689854	0.763056	-0.629785	99
Es	-1.148681	1.462401	-0.581153	99
Es	1.067786	0.478571	-0.652769	99
Es	-0.781507	-0.625391	0.887687	99
45
Properties=species:S:1:pos:R:3:Z:I:1 energy=-288.07699163704604 field_type=dipole dipole="0.000000 0.000000 0.000000" charge=0
C	-0.249756	-2.186123	-0.089959	6
C	-0.876656	-0.817893	0.157381	6
N	-0.378816	0.228757	-0.745829	7
C	-1.148746	1.462507	-0.581129	6
C	1.067874	0.478547	-0.652909	6
C	1.533854	0.907237	0.676681	6
C	1.921004	1.256217	1.760011	6
H	-0.767196	-2.945513	0.505801	1
H	0.805804	-2.209053	0.197121	1
H	-0.331826	-2.474453	-1.143149	1
H	-0.746386	-0.540293	1.210491	1
H	-1.956726	-0.931913	-0.002269	1
H	-2.207566	1.283517	-0.800229	1
H	-0.813196	2.228367	-1.289429	1
H	-1.077816	1.872457	0.432451	1
H	1.345524	1.240347	-1.392879	1
H	1.618183	-0.417273	-0.962699	1
H	2.262444	1.564567	2.720551	1
Es	-0.876580	-0.817834	0.157271	99
Es	-0.781286	-0.625487	0.888198	99
Es	-0.249769	-2.186099	-0.089943	99
Es	0.252736	0.355205	-0.633201	99
Es	-0.435110	0.108974	-1.102473	99
Es	1.067787	0.478571	-0.652771	99
Es	1.812668	0.756398	1.315357	99
Es	1.921084	1.256292	1.760245	99
Es	1.533763	0.907159	0.676446	99
Es	1.436630	-0.119166	-0.838738	99
Es	0.470633	-2.195523	0.108329	99
Es	-1.614714	-0.889453	0.040488	99
Es	-0.378735	0.228976	-0.745248	99
Es	-1.148681	1.462401	-0.581152	99
Es	2.144700	1.458433	2.389464	99
Es	-1.096846	1.745274	0.121080	99
Es	1.310103	0.704632	0.054376	99
Es	-0.688582	0.761316	-0.628424	99
Es	-0.566012	-0.191517	-0.321399	99
Es	1.251491	0.997502	-1.132163	99
Es	1.968466	1.295550	1.072847	99
Es	-0.547288	-1.499569	0.028401	99
Es	-0.910143	1.978399	-1.061785	99
Es	-1.869738	1.332297	-0.729676	99
Es	1.409909	1.202159	1.297883	99
Es	-0.308816	-2.382181	-0.812586	99
Es	-0.602911	-2.690462	0.319203	99
45
Properties=species:S:1:pos:R:3:Z:I:1 energy=-288.07699163704604 field_type=dipole dipole="0.000000 0.000000 0.000000" charge=0
C	-0.249756	-2.186123	-0.089959	6
C	-0.876656	-0.817893	0.157381	6
N	-0.378816	0.228757	-0.745829	7
C	-1.148746	1.462507	-0.581129	6
C	1.067874	0.478547	-0.652909	6
C	1.533854	0.907237	0.676681	6
C	1.921004	1.256217	1.760011	6
H	-0.767196	-2.945513	0.505801	1
H	0.805804	-2.209053	0.197121	1
H	-0.331826	-2.474453	-1.143149	1
H	-0.746386	-0.540293	1.210491	1
H	-1.956726	-0.931913	-0.002269	1
H	-2.207566	1.283517	-0.800229	1
H	-0.813196	2.228367	-1.289429	1
H	-1.077816	1.872457	0.432451	1
H	1.345524	1.240347	-1.392879	1
H	1.618183	-0.417273	-0.962699	1
H	2.262444	1.564567	2.720551	1
Es	-0.249767	-2.186099	-0.089945	99
Es	0.470513	-2.195427	0.108830	99
Es	1.067784	0.478572	-0.652769	99
Es	-0.547446	-1.499791	0.028548	99
Es	1.533762	0.907162	0.676445	99
Es	-0.565332	-0.189614	-0.320818	99
Es	1.832609	1.395139	1.098243	99
Es	1.404616	1.037103	1.349188	99
Es	-0.781162	-0.625481	0.888568	99
Es	-0.435920	0.107903	-1.104624	99
Es	1.310795	0.705154	0.054201	99
Es	1.251490	0.997203	-1.132511	99
Es	2.144727	1.457693	2.389842	99
Es	-1.148677	1.462394	-0.581154	99
Es	1.436124	-0.118850	-0.838630	99
Es	0.251877	0.355971	-0.631999	99
Es	-1.614452	-0.889643	0.040243	99
Es	-0.378710	0.228945	-0.745274	99
Es	-1.096771	1.745463	0.121411	99
Es	1.921087	1.256280	1.760249	99
Es	1.953219	0.822053	1.238837	99
Es	-0.602629	-2.689802	0.318966	99
Es	-0.309103	-2.382273	-0.813073	99
Es	-0.910297	1.978018	-1.061811	99
Es	-0.876583	-0.817836	0.157273	99
Es	-1.869454	1.332171	-0.729911	99
Es	-0.687538	0.759843	-0.628298	99
45
Properties=species:S:1:pos:R:3:Z:I:1 energy=-288.07699163704604 field_type=dipole dipole="0.000000 0.000000 0.000000" charge=0
C	-0.249756	-2.186123	-0.089959	6
C	-0.876656	-0.817893	0.157381	6
N	-0.378816	0.228757	-0.745829	7
C	-1.148746	1.462507	-0.581129	6
C	1.067874	0.478547	-0.652909	6
C	1.533854	0.907237	0.676681	6
C	1.921004	1.256217	1.760011	6
H	-0.767196	-2.945513	0.505801	1
H	0.805804	-2.209053	0.197121	1
H	-0.331826	-2.474453	-1.143149	1
H	-0.746386	-0.540293	1.210491	1
H	-1.956726	-0.931913	-0.002269	1
H	-2.207566	1.283517	-0.800229	1
H	-0.813196	2.228367	-1.289429	1
H	-1.077816	1.872457	0.432451	1
H	1.345524	1.240347	-1.392879	1
H	1.618183	-0.417273	-0.962699	1
H	2.262444	1.564567	2.720551	1
Es	-0.910376	1.977497	-1.061585	99
Es	-0.547422	-1.499665	0.028400	99
Es	0.470435	-2.195532	0.109271	99
Es	1.921095	1.256281	1.760246	99
Es	0.251243	0.355805	-0.630960	99
Es	-0.309325	-2.382552	-0.813333	99
Es	1.067785	0.478569	-0.652768	99
Es	1.251299	0.996931	-1.132523	99
Es	-0.781008	-0.625566	0.888900	99
Es	1.435986	-0.118516	-0.838731	99
Es	-1.869423	1.332114	-0.730286	99
Es	-1.148675	1.462393	-0.581153	99
Es	2.144561	1.458111	2.389870	99
Es	-0.685906	0.758347	-0.626954	99
Es	-0.437085	0.108760	-1.106831	99
Es	1.910874	0.792363	1.266154	99
Es	1.881531	1.369211	1.086305	99
Es	-0.249766	-2.186100	-0.089945	99
Es	1.398298	1.092702	1.333719	99
Es	-0.602562	-2.689075	0.318805	99
Es	-0.565210	-0.188897	-0.321130	99
Es	-1.096567	1.745707	0.121630	99
Es	1.533764	0.907161	0.676446	99
Es	1.310804	0.704872	0.054505	99
Es	-0.876583	-0.817836	0.157274	99
Es	-1.614301	-0.889804	0.039970	99
Es	-0.378706	0.228967	-0.745268	99
45
Properties=species:S:1:pos:R:3:Z:I:1 energy=-288.07699163704604 field_type=dipole dipole="0.000000 0.000000 0.000000" charge=0
C	-0.249756	-2.186123	-0.089959	6
C	-0.876656	-0.817893	0.157381	6
N	-0.378816	0.228757	-0.745829	7
C	-1.148746	1.462507	-0.581129	6
C	1.067874	0.478547	-0.652909	6
C	1.533854	0.907237	0.676681	6
C	1.921004	1.256217	1.760011	6
H	-0.767196	-2.945513	0.505801	1
H	0.805804	-2.209053	0.197121	1
H	-0.331826	-2.474453	-1.143149	1
H	-0.746386	-0.540293	1.210491	1
H	-1.956726	-0.931913	-0.002269	1
H	-2.207566	1.283517	-0.800229	1
H	-0.813196	2.228367	-1.289429	1
H	-1.077816	1.872457	0.432451	1
H	1.345524	1.240347	-1.392879	1
H	1.618183	-0.417273	-0.962699	1
H	2.262444	1.564567	2.720551	1
Es	1.925565	0.801963	1.257011	99
Es	1.067784	0.478572	-0.652770	99
Es	1.533765	0.907163	0.676443	99
Es	-1.869298	1.331950	-0.730449	99
Es	-0.781008	-0.625547	0.889140	99
Es	-1.096418	1.745781	0.121834	99
Es	0.470345	-2.195342	0.109601	99
Es	-0.910470	1.977224	-1.061579	99
Es	-0.547755	-1.499746	0.028557	99
Es	-0.378696	0.228954	-0.745280	99
Es	1.921085	1.256292	1.760250	99
Es	-0.564610	-0.187213	-0.320777	99
Es	-0.602135	-2.688578	0.318567	99
Es	-1.148680	1.462400	-0.581153	99
Es	1.251391	0.996650	-1.132715	99
Es	-0.437785	0.107529	-1.107809	99
Es	1.435655	-0.118291	-0.838595	99
Es	0.250771	0.356299	-0.630302	99
Es	1.864760	1.378999	1.090123	99
Es	-0.309526	-2.382843	-0.813567	99
Es	1.400411	1.073287	1.339025	99
Es	-0.685345	0.757594	-0.627193	99
Es	-0.876583	-0.817832	0.157271	99
Es	-1.614115	-0.889938	0.039735	99
Es	2.144534	1.458008	2.390006	99
Es	1.310884	0.705014	0.054599	99
Es	-0.249767	-2.186099	-0.089945	99
45
Properties=species:S:1:pos:R:3:Z:I:1 energy=-288.07699163704604 field_type=dipole dipole="0.000000 0.000000 0.000000" charge=0
C	-0.249756	-2.186123	-0.089959	6
C	-0.876656	-0.817893	0.157381	6
N	-0.378816	0.228757	-0.745829	7
C	-1.148746	1.462507	-0.581129	6
C	1.067874	0.478547	-0.652909	6
C	1.533854	0.907237	0.676681	6
C	1.921004	1.256217	1.760011	6
H	-0.767196	-2.945513	0.505801	1
H	0.805804	-2.209053	0.197121	1
H	-0.331826	-2.474453	-1.143149	1
H	-0.746386	-0.540293	1.210491	1
H	-1.956726	-0.931913	-0.002269	1
H	-2.207566	1.283517	-0.800229	1
H	-0.813196	2.228367	-1.289429	1
H	-1.077816	1.872457	0.432451	1
H	1.345524	1.240347	-1.392879	1
H	1.618183	-0.417273	-0.962699	1
H	2.262444	1.564567	2.720551	1
Es	-1.096090	1.746070	0.121871	99
Es	-0.876583	-0.817836	0.157274	99
Es	1.533763	0.907162	0.676446	99
Es	1.921091	1.256289	1.760251	99
Es	-0.684694	0.756521	-0.626603	99
Es	-1.869590	1.332088	-0.731028	99
Es	1.067786	0.478574	-0.652772	99
Es	0.470546	-2.195298	0.110042	99
Es	-0.378696	0.228919	-0.745268	99
Es	-0.780821	-0.625587	0.889247	99
Es	-0.910380	1.976520	-1.061030	99
Es	1.435680	-0.118148	-0.838765	99
Es	1.251248	0.996330	-1.132488	99
Es	1.999261	1.251377	1.073554	99
Es	-1.614251	-0.890158	0.039472	99
Es	-0.601861	-2.687917	0.318182	99
Es	1.433654	1.251153	1.276812	99
Es	-1.148679	1.462396	-0.581153	99
Es	0.250106	0.356519	-0.628787	99
Es	-0.309913	-2.383094	-0.813678	99
Es	-0.564629	-0.186683	-0.321473	99
Es	1.758191	0.751082	1.335838	99
Es	2.144948	1.458940	2.389631	99
Es	-0.249767	-2.186100	-0.089945	99
Es	-0.438046	0.107930	-1.109154	99
Es	-0.547808	-1.499748	0.028573	99
Es	1.310293	0.704947	0.054980	99
45
Properties=species:S:1:pos:R:3:Z:I:1 energy=-288.07699163704604 field_type=dipole dipole="0.000000 0.000000 0.000000" charge=0
C	-0.249756	-2.186123	-0.089959	6
C	-0.876656	-0.817893	0.157381	6
N	-0.378816	0.228757	-0.745829	7
C	-1.148746	1.462507	-0.581129	6
C	1.067874	0.478547	-0.652909	6
C	1.533854	0.907237	0.676681	6
C	1.921004	1.256217	1.760011	6
H	-0.767196	-2.945513	0.505801	1
H	0.805804	-2.209053	0.197121	1
H	-0.331826	-2.474453	-1.143149	1
H	-0.746386	-0.540293	1.210491	1
H	-1.956726	-0.931913	-0.002269	1
H	-2.207566	1.283517	-0.800229	1
H	-0.813196	2.228367	-1.289429	1
H	-1.077816	1.872457	0.432451	1
H	1.345524	1.240347	-1.392879	1
H	1.618183	-0.417273	-0.962699	1
H	2.262444	1.564567	2.720551	1
Es	-0.876582	-0.817835	0.157272	99
Es	1.310520	0.704983	0.055007	99
Es	-1.614136	-0.890149	0.039441	99
Es	1.778522	0.751891	1.328576	99
Es	-0.564189	-0.185919	-0.321769	99
Es	1.425975	1.231324	1.284679	99
Es	-1.095980	1.746158	0.122022	99
Es	-0.910439	1.976249	-1.060936	99
Es	-0.547846	-1.499943	0.028598	99
Es	1.251064	0.996230	-1.132550	99
Es	1.067783	0.478573	-0.652769	99
Es	-0.378693	0.228973	-0.745297	99
Es	0.249999	0.356679	-0.628257	99
Es	2.144807	1.458895	2.389748	99
Es	-0.249767	-2.186099	-0.089945	99
Es	-0.438936	0.107710	-1.109985	99
Es	1.986572	1.270455	1.072962	99
Es	0.470463	-2.195267	0.110227	99
Es	1.921085	1.256292	1.760248	99
Es	-1.869515	1.331969	-0.731241	99
Es	-0.601647	-2.687522	0.318070	99
Es	1.435565	-0.118009	-0.838843	99
Es	-0.310123	-2.383249	-0.813842	99
Es	1.533761	0.907154	0.676446	99
Es	-0.684125	0.755794	-0.626023	99
Es	-0.780700	-0.625481	0.889343	99
Es	-1.148677	1.462396	-0.581153	99
45
Properties=species:S:1:pos:R:3:Z:I:1 energy=-288.07699163704604 field_type=dipole dipole="0.000000 0.000000 0.000000" charge=0
C	-0.249756	-2.186123	-0.089959	6
C	-0.876656	-0.817893	0.157381	6
N	-0.378816	0.228757	-0.745829	7
C	-1.148746	1.462507	-0.581129	6
C	1.067874	0.478547	-0.652909	6
C	1.533854	0.907237	0.676681	6
C	1.921004	1.256217	1.760011	6
H	-0.767196	-2.945513	0.505801	1
H	0.805804	-2.209053	0.197121	1
H	-0.331826	-2.474453	-1.143149	1
H	-0.746386	-0.540293	1.210491	1
H	-1.956726	-0.931913	-0.002269	1
H	-2.207566	1.283517	-0.800229	1
H	-0.813196	2.228367	-1.289429	1
H	-1.077816	1.872457	0.432451	1
H	1.345524	1.240347	-1.392879	1
H	1.618183	-0.417273	-0.962699	1
H	2.262444	1.564567	2.720551	1
Es	0.470735	-2.195286	0.110856	99
Es	2.046367	0.986623	1.141175	99
Es	1.533765	0.907162	0.676444	99
Es	-0.249765	-2.186101	-0.089945	99
Es	-0.310408	-2.383085	-0.813987	99
Es	-0.876582	-0.817836	0.157273	99
Es	-0.547895	-1.499898	0.028647	99
Es	1.067785	0.478569	-0.652768	99
Es	2.145453	1.457461	2.390008	99
Es	-0.438875	0.108162	-1.110838	99
Es	1.310772	0.705567	0.054818	99
Es	0.249395	0.357102	-0.627405	99
Es	-1.869496	1.332058	-0.731418	99
Es	-1.095966	1.746060	0.122122	99
Es	-0.378682	0.228949	-0.745279	99
Es	1.435004	-0.117538	-0.838513	99
Es	-0.683370	0.754620	-0.626603	99
Es	-1.148676	1.462394	-0.581154	99
Es	-0.564590	-0.185551	-0.321304	99
Es	-0.601703	-2.686982	0.317616	99
Es	1.251431	0.996148	-1.132976	99
Es	-1.614248	-0.890546	0.039181	99
Es	-0.780453	-0.625714	0.889518	99
Es	-0.910346	1.976165	-1.060840	99
Es	1.511308	0.852044	1.378609	99
Es	1.632705	1.415414	1.166544	99
Es	1.921096	1.256289	1.760247	99
45
Properties=species:S:1:pos:R:3:Z:I:1 energy=-288.07699163704604 field_type=dipole dipole="0.000000 0.000000 0.000000" charge=0
C	-0.249756	-2.186123	-0.089959	6
C	-0.876656	-0.817893	0.157381	6
N	-0.378816	0.228757	-0.745829	7
C	-1.148746	1.462507	-0.581129	6
C	1.067874	0.478547	-0.652909	6
C	1.533854	0.907237	0.676681	6
C	1.921004	1.256217	1.760011	6
H	-0.767196	-2.945513	0.505801	1
H	0.805804	-2.209053	0.197121	1
H	-0.331826	-2.474453	-1.143149	1
H	-0.746386	-0.540293	1.210491	1
H	-1.956726	-0.931913	-0.002269	1
H	-2.207566	1.283517	-0.800229	1
H	-0.813196	2.228367	-1.289429	1
H	-1.077816	1.872457	0.432451	1
H	1.345524	1.240347	-1.392879	1
H	1.618183	-0.417273	-0.962699	1
H	2.262444	1.564567	2.720551	1
Es	1.533775	0.907153	0.676442	99
Es	-1.148677	1.462396	-0.581153	99
Es	-0.439139	0.107468	-1.111412	99
Es	1.463803	0.909348	1.373278	99
Es	-0.876582	-0.817834	0.157272	99
Es	2.025245	0.921737	1.173265	99
Es	-0.378691	0.228929	-0.745285	99
Es	-0.249767	-2.186100	-0.089945	99
Es	2.145205	1.457234	2.390211	99
Es	-1.869306	1.331978	-0.731467	99
Es	-0.601570	-2.686761	0.317471	99
Es	-0.547944	-1.499834	0.028750	99
Es	1.251409	0.996088	-1.133109	99
Es	-0.564060	-0.184590	-0.320998	99
Es	1.311077	0.705474	0.054797	99
Es	1.434843	-0.117480	-0.838462	99
Es	-0.683113	0.754454	-0.626431	99
Es	0.248933	0.357200	-0.627443	99
Es	1.701193	1.423318	1.139757	99
Es	1.067786	0.478572	-0.652770	99
Es	-0.310353	-2.383175	-0.814146	99
Es	0.470531	-2.195336	0.111055	99
Es	-0.910371	1.976084	-1.060931	99
Es	-1.614056	-0.890685	0.039131	99
Es	-1.095975	1.746049	0.122272	99
Es	1.921081	1.256283	1.760252	99
Es	-0.780519	-0.625721	0.889628	99
45
Properties=species:S:1:pos:R:3:Z:I:1 energy=-288.07699163704604 field_type=dipole dipole="0.000000 0.000000 0.000000" charge=0
C	-0.249756	-2.186123	-0.089959	6
C	-0.876656	-0.817893	0.157381	6
N	-0.378816	0.228757	-0.745829	7
C	-1.148746	1.462507	-0.581129	6
C	1.067874	0.478547	-0.652909	6
C	1.533854	0.907237	0.676681	6
C	1.921004	1.256217	1.760011	6
H	-0.767196	-2.945513	0.505801	1
H	0.805804	-2.209053	0.197121	1
H	-0.331826	-2.474453	-1.143149	1
H	-0.746386	-0.540293	1.210491	1
H	-1.956726	-0.931913	-0.002269	1
H	-2.207566	1.283517	-0.800229	1
H	-0.813196	2.228367	-1.289429	1
H	-1.077816	1.872457	0.432451	1
H	1.345524	1.240347	-1.392879	1
H	1.618183	-0.417273	-0.962699	1
H	2.262444	1.564567	2.720551	1
Es	1.311154	0.704906	0.055012	99
Es	0.248602	0.357423	-0.626531	99
Es	0.470135	-2.195312	0.110886	99
Es	1.921086	1.256295	1.760249	99
Es	-0.601308	-2.686664	0.317646	99
Es	-0.563873	-0.184453	-0.321732	99
Es	1.402758	1.120487	1.323744	99
Es	-0.249767	-2.186099	-0.089945	99
Es	-0.876582	-0.817835	0.157274	99
Es	-0.780696	-0.625597	0.889739	99
Es	-0.310250	-2.383526	-0.814248	99
Es	1.067786	0.478572	-0.652770	99
Es	-0.682711	0.753682	-0.625707	99
Es	1.883466	0.779572	1.281166	99
Es	-0.910506	1.975814	-1.060848	99
Es	1.533761	0.907159	0.676445	99
Es	1.435151	-0.117754	-0.838811	99
Es	-1.095946	1.746267	0.122364	99
Es	-1.148678	1.462396	-0.581153	99
Es	-0.378693	0.228920	-0.745305	99
Es	-1.869162	1.331955	-0.731597	99
Es	1.904645	1.354148	1.081230	99
Es	1.251040	0.995952	-1.132726	99
Es	2.144349	1.458378	2.390179	99
Es	-0.439295	0.107875	-1.112262	99
Es	-0.547962	-1.499923	0.028628	99
Es	-1.613743	-0.890389	0.039104	99
45
Properties=species:S:1:pos:R:3:Z:I:1 energy=-288.07699163704604 field_type=dipole dipole="0.000000 0.000000 0.000000" charge=0
C	-0.249756	-2.186123	-0.089959	6
C	-0.876656	-0.817893	0.157381	6
N	-0.378816	0.228757	-0.745829	7
C	-1.148746	1.462507	-0.581129	6
C	1.067874	0.478547	-0.652909	6
C	1.533854	0.907237	0.676681	6
C	1.921004	1.256217	1.760011	6
H	-0.767196	-2.945513	0.505801	1
H	0.805804	-2.209053	0.197121	1
H	-0.331826	-2.474453	-1.143149	1
H	-0.746386	-0.540293	1.210491	1
H	-1.956726	-0.931913	-0.002269	1
H	-2.207566	1.283517	-0.800229	1
H	-0.813196	2.228367	-1.289429	1
H	-1.077816	1.872457	0.432451	1
H	1.345524	1.240347	-1.392879	1
H	1.618183	-0.417273	-0.962699	1
H	2.262444	1.564567	2.720551	1
Es	-0.563948	-0.183796	-0.322317	99
Es	1.067788	0.478571	-0.652770	99
Es	2.145580	1.458535	2.389725	99
Es	-1.148678	1.462396	-0.581153	99
Es	-0.439883	0.107654	-1.112407	99
Es	1.434878	-0.117338	-0.838601	99
Es	-0.910413	1.975463	-1.060441	99
Es	-0.378726	0.228957	-0.745314	99
Es	-1.095637	1.746310	0.122309	99
Es	1.251144	0.995862	-1.132983	99
Es	-0.548050	-1.499683	0.028730	99
Es	1.921087	1.256291	1.760248	99
Es	-1.869490	1.332031	-0.731948	99
Es	-0.310791	-2.383662	-0.814167	99
Es	2.043385	1.135605	1.091723	99
Es	1.310616	0.705259	0.055168	99
Es	1.638626	0.770081	1.367692	99
Es	-0.682449	0.752775	-0.626093	99
Es	0.248837	0.357751	-0.625291	99
Es	1.508453	1.347867	1.227050	99
Es	-0.249767	-2.186099	-0.089944	99
Es	-0.601145	-2.686011	0.317126	99
Es	-1.614069	-0.890755	0.038855	99
Es	1.533763	0.907161	0.676444	99
Es	-0.876583	-0.817836	0.157274	99
Es	-0.780364	-0.625716	0.889773	99
Es	0.470596	-2.195424	0.111340	99
45
Properties=species:S:1:pos:R:3:Z:I:1 energy=-288.07699163704604 field_type=dipole dipole="0.000000 0.000000 0.000000" charge=0
C	-0.249756	-2.186123	-0.089959	6
C	-0.876656	-0.817893	0.157381	6
N	-0.378816	0.228757	-0.745829	7
C	-1.148746	1.462507	-0.581129	6
C	1.067874	0.478547	-0.652909	6
C	1.533854	0.907237	0.676681	6
C	1.921004	1.256217	1.760011	6
H	-0.767196	-2.945513	0.505801	1
H	0.805804	-2.209053	0.197121	1
H	-0.331826	-2.474453	-1.143149	1
H	-0.746386	-0.540293	1.210491	1
H	-1.956726	-0.931913	-0.002269	1
H	-2.207566	1.283517	-0.800229	1
H	-0.813196	2.228367	-1.289429	1
H	-1.077816	1.872457	0.432451	1
H	1.345524	1.240347	-1.392879	1
H	1.618183	-0.417273	-0.962699	1
H	2.262444	1.564567	2.720551	1
Es	-0.601140	-2.685898	0.317033	99
Es	-1.869555	1.331908	-0.732046	99
Es	1.067788	0.478572	-0.652770	99
Es	-0.780364	-0.625688	0.889830	99
Es	2.047988	1.102266	1.100705	99
Es	0.248215	0.358016	-0.624978	99
Es	-0.378753	0.229025	-0.745327	99
Es	-1.095546	1.746384	0.122311	99
Es	-0.249767	-2.186099	-0.089945	99
Es	-0.681731	0.752064	-0.626118	99
Es	1.609514	0.782396	1.372525	99
Es	1.533039	1.368997	1.213182	99
Es	-1.614043	-0.890819	0.038723	99
Es	-0.910419	1.975314	-1.060377	99
Es	1.434789	-0.117220	-0.838569	99
Es	-0.876583	-0.817837	0.157275	99
Es	-1.148678	1.462398	-0.581153	99
Es	-0.440149	0.107581	-1.113031	99
Es	-0.563808	-0.183235	-0.322006	99
Es	-0.310824	-2.383585	-0.814256	99
Es	-0.548131	-1.499912	0.028752	99
Es	1.310683	0.705333	0.055136	99
Es	1.533762	0.907162	0.676445	99
Es	1.921083	1.256295	1.760250	99
Es	2.145507	1.458302	2.389839	99
Es	0.470635	-2.195223	0.111570	99
Es	1.251249	0.995752	-1.132969	99
45
Properties=species:S:1:pos:R:3:Z:I:1 energy=-288.07699163704604 field_type=dipole dipole="0.000000 0.000000 0.000000" charge=0
C	-0.249756	-2.186123	-0.089959	6
C	-0.876656	-0.817893	0.157381	6
N	-0.378816	0.228757	-0.745829	7
C	-1.148746	1.462507	-0.581129	6
C	1.067874	0.478547	-0.652909	6
C	1.533854	0.907237	0.676681	6
C	1.921004	1.256217	1.760011	6
H	-0.767196	-2.945513	0.505801	1
H	0.805804	-2.209053	0.197121	1
H	-0.331826	-2.474453	-1.143149	1
H	-0.746386	-0.540293	1.210491	1
H	-1.956726	-0.931913	-0.002269	1
H	-2.207566	1.283517	-0.800229	1
H	-0.813196	2.228367	-1.289429	1
H	-1.077816	1.872457	0.432451	1
H	1.345524	1.240347	-1.392879	1
H	1.618183	-0.417273	-0.962699	1
H	2.262444	1.564567	2.720551	1
Es	-1.095599	1.746332	0.122403	99
Es	-0.876580	-0.817834	0.157273	99
Es	1.310928	0.705391	0.055114	99
Es	1.067785	0.478571	-0.652769	99
Es	-0.310841	-2.383548	-0.814341	99
Es	0.470620	-2.195326	0.111881	99
Es	2.145622	1.458009	2.389906	99
Es	-0.440302	0.108139	-1.113555	99
Es	1.567096	1.390725	1.195829	99
Es	-0.548074	-1.499822	0.028814	99
Es	-0.563773	-0.183386	-0.321875	99
Es	1.533762	0.907160	0.676444	99
Es	1.434622	-0.117080	-0.838599	99
Es	-1.614037	-0.891035	0.038597	99
Es	1.921085	1.256291	1.760250	99
Es	2.050760	1.059573	1.113900	99
Es	-0.681505	0.751630	-0.625812	99
Es	-0.601115	-2.685652	0.316764	99
Es	1.251234	0.995709	-1.133017	99
Es	-1.869501	1.332008	-0.732283	99
Es	1.572374	0.803483	1.376759	99
Es	-1.148679	1.462397	-0.581153	99
Es	-0.378648	0.228958	-0.745283	99
Es	-0.910268	1.975189	-1.060269	99
Es	-0.249766	-2.186100	-0.089945	99
Es	0.247890	0.358170	-0.624899	99
Es	-0.780332	-0.625704	0.889894	99
45
Properties=species:S:1:pos:R:3:Z:I:1 energy=-288.07699163704604 field_type=dipole dipole="0.000000 0.000000 0.000000" charge=0
C	-0.249756	-2.186123	-0.089959	6
C	-0.876656	-0.817893	0.157381	6
N	-0.378816	0.228757	-0.745829	7
C	-1.148746	1.462507	-0.581129	6
C	1.067874	0.478547	-0.652909	6
C	1.533854	0.907237	0.676681	6
C	1.921004	1.256217	1.760011	6
H	-0.767196	-2.945513	0.505801	1
H	0.805804	-2.209053	0.197121	1
H	-0.331826	-2.474453	-1.143149	1
H	-0.746386	-0.540293	1.210491	1
H	-1.956726	-0.931913	-0.002269	1
H	-2.207566	1.283517	-0.800229	1
H	-0.813196	2.228367	-1.289429	1
H	-1.077816	1.872457	0.432451	1
H	1.345524	1.240347	-1.392879	1
H	1.618183	-0.417273	-0.962699	1
H	2.262444	1.564567	2.720551	1
Es	1.533763	0.907160	0.676443	99
Es	-1.095869	1.746308	0.122575	99
Es	-1.869014	1.331917	-0.732039	99
Es	1.067784	0.478572	-0.652770	99
Es	1.434559	-0.117322	-0.838601	99
Es	-0.548211	-1.500110	0.028729	99
Es	-0.249767	-2.186096	-0.089943	99
Es	1.251091	0.995756	-1.133168	99
Es	-0.310603	-2.383664	-0.814475	99
Es	0.247791	0.357779	-0.625418	99
Es	-1.613565	-0.890723	0.038756	99
Es	1.979047	0.852355	1.217560	99
Es	-0.378695	0.228952	-0.745300	99
Es	1.311534	0.705256	0.054950	99
Es	-0.910502	1.975406	-1.060604	99
Es	1.921081	1.256298	1.760249	99
Es	1.787109	1.412161	1.110464	99
Es	-1.148676	1.462396	-0.581154	99
Es	2.144520	1.457475	2.390522	99
Es	-0.681125	0.751859	-0.625640	99
Es	-0.440316	0.107806	-1.113863	99
Es	-0.600960	-2.685822	0.317014	99
Es	-0.876582	-0.817835	0.157274	99
Es	-0.780550	-0.625587	0.890026	99
Es	1.424283	0.990008	1.358162	99
Es	-0.563591	-0.182876	-0.321390	99
Es	0.470225	-2.195182	0.111667	99
45
Properties=species:S:1:pos:R:3:Z:I:1 energy=-288.07699163704604 field_type=dipole dipole="0.000000 0.000000 0.000000" charge=0
C	-0.249756	-2.186123	-0.089959	6
C	-0.876656	-0.817893	0.157381	6
N	-0.378816	0.228757	-0.745829	7
C	-1.148746	1.462507	-0.581129	6
C	1.067874	0.478547	-0.652909	6
C	1.533854	0.907237	0.676681	6
C	1.921004	1.256217	1.760011	6
H	-0.767196	-2.945513	0.505801	1
H	0.805804	-2.209053	0.197121	1
H	-0.331826	-2.474453	-1.143149	1
H	-0.746386	-0.540293	1.210491	1
H	-1.956726	-0.931913	-0.002269	1
H	-2.207566	1.283517	-0.800229	1
H	-0.813196	2.228367	-1.289429	1
H	-1.077816	1.872457	0.432451	1
H	1.345524	1.240347	-1.392879	1
H	1.618183	-0.417273	-0.962699	1
H	2.262444	1.564567	2.720551	1
Es	-0.249767	-2.186099	-0.089945	99
Es	1.533762	0.907155	0.676445	99
Es	-0.310645	-2.383787	-0.814485	99
Es	1.311402	0.705020	0.055112	99
Es	2.144292	1.458885	2.390147	99
Es	-0.910526	1.974943	-1.060298	99
Es	-0.548103	-1.500082	0.028759	99
Es	0.247417	0.358044	-0.624341	99
Es	0.470172	-2.195204	0.111654	99
Es	-0.440329	0.107629	-1.114245	99
Es	1.921081	1.256291	1.760251	99
Es	1.434993	-0.117498	-0.839003	99
Es	-0.600892	-2.685714	0.317016	99
Es	-0.780637	-0.625476	0.890014	99
Es	1.067788	0.478571	-0.652771	99
Es	-0.378683	0.228930	-0.745336	99
Es	-1.095605	1.746543	0.122569	99
Es	1.250731	0.995505	-1.132604	99
Es	-1.869174	1.331885	-0.732328	99
Es	-1.148675	1.462394	-0.581154	99
Es	1.413081	1.174782	1.304539	99
Es	-1.613602	-0.890708	0.038613	99
Es	1.945052	1.318832	1.075342	99
Es	-0.876582	-0.817834	0.157273	99
Es	1.832721	0.760240	1.306384	99
Es	-0.563239	-0.182569	-0.322415	99
Es	-0.681274	0.751573	-0.625165	99
45
Properties=species:S:1:pos:R:3:Z:I:1 energy=-288.07699163704604 field_type=dipole dipole="0.000000 0.000000 0.000000" charge=0
C	-0.249756	-2.186123	-0.089959	6
C	-0.876656	-0.817893	0.157381	6
N	-0.378816	0.228757	-0.745829	7
C	-1.148746	1.462507	-0.581129	6
C	1.067874	0.478547	-0.652909	6
C	1.533854	0.907237	0.676681	6
C	1.921004	1.256217	1.760011	6
H	-0.767196	-2.945513	0.505801	1
H	0.805804	-2.209053	0.197121	1
H	-0.331826	-2.474453	-1.143149	1
H	-0.746386	-0.540293	1.210491	1
H	-1.956726	-0.931913	-0.002269	1
H	-2.207566	1.283517	-0.800229	1
H	-0.813196	2.228367	-1.289429	1
H	-1.077816	1.872457	0.432451	1
H	1.345524	1.240347	-1.392879	1
H	1.618183	-0.417273	-0.962699	1
H	2.262444	1.564567	2.720551	1
Es	2.046406	1.008763	1.133303	99
Es	-0.378728	0.228980	-0.745329	99
Es	1.533764	0.907164	0.676441	99
Es	1.067784	0.478568	-0.652768	99
Es	-1.095493	1.746422	0.122522	99
Es	1.921084	1.256293	1.760251	99
Es	-0.910400	1.974907	-1.060127	99
Es	-0.780184	-0.625756	0.890046	99
Es	0.247680	0.358405	-0.624140	99
Es	-0.600853	-2.685079	0.316513	99
Es	-1.148677	1.462396	-0.581153	99
Es	1.531061	0.834816	1.378518	99
Es	-0.876583	-0.817836	0.157274	99
Es	0.470512	-2.195269	0.112251	99
Es	-0.441017	0.108105	-1.114344	99
Es	-1.613894	-0.890982	0.038515	99
Es	1.612757	1.410488	1.174589	99
Es	1.434444	-0.117044	-0.838537	99
Es	1.251151	0.995640	-1.133202	99
Es	-1.869386	1.331980	-0.732478	99
Es	-0.249767	-2.186099	-0.089945	99
Es	-0.548236	-1.500074	0.028786	99
Es	-0.311075	-2.383728	-0.814522	99
Es	2.145335	1.457575	2.390203	99
Es	-0.563540	-0.182414	-0.321923	99
Es	-0.680553	0.750473	-0.625756	99
Es	1.311167	0.705553	0.055041	99
