50
Properties=species:S:1:pos:R:3:Z:I:1 energy=-306.4866672471222 field_type=dipole dipole="0.000000 0.000000 0.000000" charge=0
C	-3.117188	-1.765067	-0.031327	6
C	-1.597788	-1.739977	0.035323	6
N	-1.118478	-0.360797	-0.042567	7
C	0.342642	-0.305537	0.018643	6
C	0.814562	1.150243	-0.010617	6
C	2.341033	1.223823	0.013463	6
N	2.789412	2.612023	0.023563	7
H	-3.478548	-2.796717	0.021473	1
H	-3.478878	-1.328297	-0.967557	1
H	-3.560228	-1.209757	0.801553	1
H	-1.195538	-2.329067	-0.797407	1
H	-1.272078	-2.207907	0.972413	1
H	-1.515148	0.183523	0.723593	1
H	0.769063	-0.843417	-0.836197	1
H	0.702512	-0.785467	0.936443	1
H	0.404263	1.689953	0.852493	1
H	0.434552	1.646143	-0.913257	1
H	2.757622	0.715533	-0.863807	1
H	2.729102	0.719793	0.905393	1
H	2.442802	3.090223	-0.807587	1
H	3.806302	2.640753	-0.034037	1
Es	-3.361332	-1.469138	-0.667529	99
Es	2.606986	2.008152	-0.003717	99
Es	2.607525	0.876022	0.626150	99
Es	0.633738	-0.678488	-0.567947	99
Es	-3.117171	-1.765076	-0.031312	99
Es	2.587001	2.882167	-0.494844	99
Es	-1.312147	-0.964679	0.018025	99
Es	-3.413885	-1.382026	0.541483	99
Es	-0.482310	-0.351499	0.010819	99
Es	-1.118283	-0.361056	-0.042008	99
Es	1.578452	1.186935	0.002444	99
Es	-1.226560	-0.219818	-0.348013	99
Es	0.342516	-0.305506	0.018636	99
Es	2.623399	0.861472	-0.596711	99
Es	3.405999	2.615596	-0.029199	99
Es	-1.597787	-1.739851	0.035315	99
Es	-1.346360	-0.048031	0.442909	99
Es	0.598084	-0.639708	0.657430	99
Es	0.562651	1.489161	-0.631097	99
Es	2.789597	2.611746	0.023078	99
Es	-2.364036	-1.751253	0.004297	99
Es	-3.361192	-2.471328	0.007798	99
Es	2.341050	1.223963	0.013458	99
Es	0.814592	1.150205	-0.010615	99
Es	0.532424	1.512845	0.582876	99
Es	-1.315897	-2.141364	-0.535831	99
Es	0.581226	0.422912	0.003706	99
Es	-1.370084	-2.068602	0.687384	99
Es	2.678040	2.781810	0.313146	99
50
Properties=species:S:1:pos:R:3:Z:I:1 energy=-306.4866672471222 field_type=dipole dipole="0.000000 0.000000 0.000000" charge=0
C	-3.117188	-1.765067	-0.031327	6
C	-1.597788	-1.739977	0.035323	6
N	-1.118478	-0.360797	-0.042567	7
C	0.342642	-0.305537	0.018643	6
C	0.814562	1.150243	-0.010617	6
C	2.341033	1.223823	0.013463	6
N	2.789412	2.612023	0.023563	7
H	-3.478548	-2.796717	0.021473	1
H	-3.478878	-1.328297	-0.967557	1
H	-3.560228	-1.209757	0.801553	1
H	-1.195538	-2.329067	-0.797407	1
H	-1.272078	-2.207907	0.972413	1
H	-1.515148	0.183523	0.723593	1
H	0.769063	-0.843417	-0.836197	1
H	0.702512	-0.785467	0.936443	1
H	0.404263	1.689953	0.852493	1
H	0.434552	1.646143	-0.913257	1
H	2.757622	0.715533	-0.863807	1
H	2.729102	0.719793	0.905393	1
H	2.442802	3.090223	-0.807587	1
H	3.806302	2.640753	-0.034037	1
Es	-2.364098	-1.751433	0.004510	99
Es	2.341049	1.223961	0.013462	99
Es	1.578353	1.186770	0.002240	99
Es	-1.311327	-0.964291	0.019032	99
Es	-3.361216	-1.469031	-0.667908	99
Es	2.607833	2.008622	-0.004827	99
Es	0.562473	1.489229	-0.631508	99
Es	0.532552	1.512778	0.583568	99
Es	0.814593	1.150205	-0.010616	99
Es	2.678525	2.781164	0.315469	99
Es	2.607548	0.875964	0.626475	99
Es	2.789597	2.611744	0.023081	99
Es	-1.346443	-0.048216	0.443337	99
Es	2.586294	2.882966	-0.495060	99
Es	-1.118285	-0.361054	-0.042066	99
Es	-1.226822	-0.219715	-0.350199	99
Es	-0.482900	-0.351675	0.011835	99
Es	2.623318	0.861489	-0.597038	99
Es	0.598226	-0.639653	0.657800	99
Es	-3.360764	-2.470983	0.007467	99
Es	-1.370052	-2.068603	0.687603	99
Es	0.633768	-0.678415	-0.568463	99
Es	3.405132	2.614833	-0.030225	99
Es	0.342514	-0.305504	0.018637	99
Es	-1.597787	-1.739847	0.035314	99
Es	0.581300	0.422867	0.003672	99
Es	-3.117171	-1.765076	-0.031312	99
Es	-1.315891	-2.141379	-0.536268	99
Es	-3.414083	-1.382157	0.542120	99
50
Properties=species:S:1:pos:R:3:Z:I:1 energy=-306.4866672471222 field_type=dipole dipole="0.000000 0.000000 0.000000" charge=0
C	-3.117188	-1.765067	-0.031327	6
C	-1.597788	-1.739977	0.035323	6
N	-1.118478	-0.360797	-0.042567	7
C	0.342642	-0.305537	0.018643	6
C	0.814562	1.150243	-0.010617	6
C	2.341033	1.223823	0.013463	6
N	2.789412	2.612023	0.023563	7
H	-3.478548	-2.796717	0.021473	1
H	-3.478878	-1.328297	-0.967557	1
H	-3.560228	-1.209757	0.801553	1
H	-1.195538	-2.329067	-0.797407	1
H	-1.272078	-2.207907	0.972413	1
H	-1.515148	0.183523	0.723593	1
H	0.769063	-0.843417	-0.836197	1
H	0.702512	-0.785467	0.936443	1
H	0.404263	1.689953	0.852493	1
H	0.434552	1.646143	-0.913257	1
H	2.757622	0.715533	-0.863807	1
H	2.729102	0.719793	0.905393	1
H	2.442802	3.090223	-0.807587	1
H	3.806302	2.640753	-0.034037	1
Es	3.404457	2.614029	-0.031448	99
Es	0.581326	0.422800	0.003779	99
Es	0.532563	1.512745	0.583613	99
Es	2.585400	2.883959	-0.494897	99
Es	0.814592	1.150206	-0.010615	99
Es	2.607595	0.875878	0.626720	99
Es	0.633779	-0.678456	-0.568658	99
Es	-1.118280	-0.361060	-0.042032	99
Es	-3.117172	-1.765076	-0.031312	99
Es	2.623250	0.861565	-0.597193	99
Es	-2.363961	-1.751686	0.004614	99
Es	-1.370096	-2.068534	0.687786	99
Es	-0.483208	-0.351866	0.012266	99
Es	-1.315861	-2.141468	-0.536510	99
Es	0.342517	-0.305507	0.018637	99
Es	-1.597786	-1.739849	0.035315	99
Es	2.679782	2.780615	0.316835	99
Es	-1.226532	-0.220789	-0.351413	99
Es	-1.346942	-0.047232	0.443047	99
Es	-1.310871	-0.963996	0.020112	99
Es	2.789609	2.611747	0.023083	99
Es	1.578446	1.186789	0.002272	99
Es	-3.414065	-1.382101	0.542321	99
Es	0.562474	1.489276	-0.631687	99
Es	2.341050	1.223963	0.013460	99
Es	0.598191	-0.639646	0.657889	99
Es	-3.361195	-1.469055	-0.668183	99
Es	-3.360764	-2.470603	0.007504	99
Es	2.607940	2.008915	-0.005170	99
50
Properties=species:S:1:pos:R:3:Z:I:1 energy=-306.4866672471222 field_type=dipole dipole="0.000000 0.000000 0.000000" charge=0
C	-3.117188	-1.765067	-0.031327	6
C	-1.597788	-1.739977	0.035323	6
N	-1.118478	-0.360797	-0.042567	7
C	0.342642	-0.305537	0.018643	6
C	0.814562	1.150243	-0.010617	6
C	2.341033	1.223823	0.013463	6
N	2.789412	2.612023	0.023563	7
H	-3.478548	-2.796717	0.021473	1
H	-3.478878	-1.328297	-0.967557	1
H	-3.560228	-1.209757	0.801553	1
H	-1.195538	-2.329067	-0.797407	1
H	-1.272078	-2.207907	0.972413	1
H	-1.515148	0.183523	0.723593	1
H	0.769063	-0.843417	-0.836197	1
H	0.702512	-0.785467	0.936443	1
H	0.404263	1.689953	0.852493	1
H	0.434552	1.646143	-0.913257	1
H	2.757622	0.715533	-0.863807	1
H	2.729102	0.719793	0.905393	1
H	2.442802	3.090223	-0.807587	1
H	3.806302	2.640753	-0.034037	1
Es	2.680162	2.780204	0.317558	99
Es	-3.414135	-1.382092	0.542590	99
Es	2.341049	1.223962	0.013461	99
Es	2.608034	2.009118	-0.005771	99
Es	-1.315819	-2.141448	-0.536637	99
Es	2.607668	0.875987	0.626850	99
Es	-0.483616	-0.351977	0.012742	99
Es	2.789585	2.611741	0.023105	99
Es	-1.118271	-0.361056	-0.042024	99
Es	-1.310323	-0.963709	0.021085	99
Es	-1.370099	-2.068536	0.687842	99
Es	1.578297	1.186662	0.002390	99
Es	2.585037	2.884454	-0.494743	99
Es	2.623212	0.861481	-0.597257	99
Es	0.581438	0.422705	0.003708	99
Es	0.532509	1.512816	0.583838	99
Es	0.342517	-0.305507	0.018638	99
Es	-2.364205	-1.751534	0.004572	99
Es	-3.360414	-2.470628	0.007459	99
Es	-1.226196	-0.221741	-0.352573	99
Es	0.598173	-0.639551	0.658072	99
Es	-3.117170	-1.765076	-0.031312	99
Es	0.814591	1.150206	-0.010615	99
Es	0.562574	1.489255	-0.631931	99
Es	3.404255	2.613687	-0.031894	99
Es	-1.597787	-1.739851	0.035314	99
Es	-3.361192	-1.469107	-0.668351	99
Es	-1.347478	-0.046397	0.442779	99
Es	0.633839	-0.678506	-0.568759	99
50
Properties=species:S:1:pos:R:3:Z:I:1 energy=-306.4866672471222 field_type=dipole dipole="0.000000 0.000000 0.000000" charge=0
C	-3.117188	-1.765067	-0.031327	6
C	-1.597788	-1.739977	0.035323	6
N	-1.118478	-0.360797	-0.042567	7
C	0.342642	-0.305537	0.018643	6
C	0.814562	1.150243	-0.010617	6
C	2.341033	1.223823	0.013463	6
N	2.789412	2.612023	0.023563	7
H	-3.478548	-2.796717	0.021473	1
H	-3.478878	-1.328297	-0.967557	1
H	-3.560228	-1.209757	0.801553	1
H	-1.195538	-2.329067	-0.797407	1
H	-1.272078	-2.207907	0.972413	1
H	-1.515148	0.183523	0.723593	1
H	0.769063	-0.843417	-0.836197	1
H	0.702512	-0.785467	0.936443	1
H	0.404263	1.689953	0.852493	1
H	0.434552	1.646143	-0.913257	1
H	2.757622	0.715533	-0.863807	1
H	2.729102	0.719793	0.905393	1
H	2.442802	3.090223	-0.807587	1
H	3.806302	2.640753	-0.034037	1
Es	3.403924	2.613384	-0.032585	99
Es	0.598216	-0.639675	0.658070	99
Es	2.623277	0.861441	-0.597297	99
Es	2.681174	2.779293	0.318146	99
Es	-1.118298	-0.361058	-0.042058	99
Es	2.608134	2.009201	-0.006089	99
Es	-1.310243	-0.963581	0.021519	99
Es	-3.360405	-2.470578	0.007313	99
Es	-1.348222	-0.045446	0.442327	99
Es	-3.117172	-1.765076	-0.031312	99
Es	2.341048	1.223962	0.013461	99
Es	2.789611	2.611750	0.023095	99
Es	-3.361093	-1.469167	-0.668270	99
Es	-1.315716	-2.141427	-0.536737	99
Es	2.584101	2.885507	-0.494383	99
Es	0.532565	1.512762	0.583999	99
Es	-3.414200	-1.381980	0.542769	99
Es	-0.483884	-0.352333	0.013585	99
Es	-2.364247	-1.751594	0.004474	99
Es	-1.597786	-1.739849	0.035315	99
Es	-1.370052	-2.068464	0.687941	99
Es	0.814592	1.150205	-0.010615	99
Es	1.578286	1.186637	0.002268	99
Es	0.342518	-0.305506	0.018637	99
Es	0.633741	-0.678444	-0.568895	99
Es	0.562485	1.489297	-0.632027	99
Es	-1.225272	-0.222560	-0.353296	99
Es	2.607641	0.876064	0.627016	99
Es	0.581514	0.422798	0.003764	99
