46
Properties=species:S:1:pos:R:3:Z:I:1 energy=-272.1444780325312 field_type=dipole dipole="0.000000 0.000000 0.000000" charge=0
C	-1.883952	-0.093581	-1.321992	6
C	-0.360322	-0.106341	-1.292982	6
C	0.206048	-1.364151	-0.618842	6
C	0.529738	-0.966801	0.822548	6
C	0.670068	0.520329	0.729668	6
C	1.254138	1.309209	1.845348	6
C	0.184408	0.989609	-0.427352	6
H	-2.262662	-0.917681	-1.935712	1
H	-2.258092	0.843419	-1.748492	1
H	-2.311622	-0.199491	-0.318482	1
H	0.028188	-0.021001	-2.313882	1
H	1.134278	-1.660401	-1.126542	1
H	-0.470792	-2.223921	-0.665262	1
H	1.449718	-1.451471	1.162648	1
H	-0.287022	-1.230941	1.502318	1
H	1.277088	2.379109	1.613098	1
H	2.280638	0.985779	2.044128	1
H	0.664068	1.174139	2.757118	1
H	0.156088	2.034189	-0.707332	1
Es	-1.127629	-0.096407	-1.299300	99
Es	0.730965	0.745671	0.003291	99
Es	-0.027476	-1.137750	1.288694	99
Es	-1.883944	-0.093578	-1.321994	99
Es	0.963073	0.918075	1.291089	99
Es	-2.140240	-0.658870	-1.742672	99
Es	-2.137221	0.549168	-1.613478	99
Es	-0.093316	0.470967	-0.884369	99
Es	1.268197	2.035688	1.685161	99
Es	1.945923	1.082359	1.974993	99
Es	0.135355	0.805421	0.277827	99
Es	0.159465	1.702474	-0.625457	99
Es	0.670124	0.520280	0.729809	99
Es	1.158515	-1.293463	1.060424	99
Es	0.844777	-1.563891	-0.965476	99
Es	0.851504	1.209674	2.457178	99
Es	-0.360346	-0.106338	-1.292950	99
Es	-0.263739	-1.953330	-0.652484	99
Es	-0.098532	-0.045642	-1.995749	99
Es	0.361236	-1.186464	0.113657	99
Es	-2.169640	-0.168027	-0.634000	99
Es	0.206051	-1.364134	-0.618819	99
Es	0.620034	-0.223223	0.807484	99
Es	0.184379	0.989644	-0.427465	99
Es	-0.092912	-0.750681	-0.964896	99
Es	0.529733	-0.966784	0.822530	99
Es	1.254126	1.309188	1.845330	99
46
Properties=species:S:1:pos:R:3:Z:I:1 energy=-272.1444780325312 field_type=dipole dipole="0.000000 0.000000 0.000000" charge=0
C	-1.883952	-0.093581	-1.321992	6
C	-0.360322	-0.106341	-1.292982	6
C	0.206048	-1.364151	-0.618842	6
C	0.529738	-0.966801	0.822548	6
C	0.670068	0.520329	0.729668	6
C	1.254138	1.309209	1.845348	6
C	0.184408	0.989609	-0.427352	6
H	-2.262662	-0.917681	-1.935712	1
H	-2.258092	0.843419	-1.748492	1
H	-2.311622	-0.199491	-0.318482	1
H	0.028188	-0.021001	-2.313882	1
H	1.134278	-1.660401	-1.126542	1
H	-0.470792	-2.223921	-0.665262	1
H	1.449718	-1.451471	1.162648	1
H	-0.287022	-1.230941	1.502318	1
H	1.277088	2.379109	1.613098	1
H	2.280638	0.985779	2.044128	1
H	0.664068	1.174139	2.757118	1
H	0.156088	2.034189	-0.707332	1
Es	1.159172	-1.293650	1.061721	99
Es	0.670125	0.520281	0.729809	99
Es	0.963211	0.917497	1.291039	99
Es	0.619387	-0.223986	0.808007	99
Es	0.842598	-1.564324	-0.964705	99
Es	1.268270	2.035379	1.685192	99
Es	0.159844	1.702387	-0.626129	99
Es	-1.883944	-0.093578	-1.321994	99
Es	-2.137521	0.549883	-1.614918	99
Es	1.254127	1.309188	1.845331	99
Es	0.184365	0.989647	-0.427461	99
Es	-2.138802	-0.657958	-1.741817	99
Es	0.133820	0.805384	0.278403	99
Es	0.851566	1.209767	2.457445	99
Es	-0.098409	-0.044641	-1.996907	99
Es	0.206052	-1.364134	-0.618819	99
Es	1.945830	1.082568	1.974944	99
Es	0.361549	-1.186937	0.114357	99
Es	-0.093335	-0.750585	-0.965647	99
Es	-0.261925	-1.952792	-0.653019	99
Es	0.731363	0.745219	0.002942	99
Es	-0.094129	0.470335	-0.884745	99
Es	-0.360346	-0.106338	-1.292949	99
Es	-2.169784	-0.169073	-0.632948	99
Es	0.529733	-0.966784	0.822531	99
Es	-1.127507	-0.096197	-1.299364	99
Es	-0.026849	-1.136532	1.288061	99
46
Properties=species:S:1:pos:R:3:Z:I:1 energy=-272.1444780325312 field_type=dipole dipole="0.000000 0.000000 0.000000" charge=0
C	-1.883952	-0.093581	-1.321992	6
C	-0.360322	-0.106341	-1.292982	6
C	0.206048	-1.364151	-0.618842	6
C	0.529738	-0.966801	0.822548	6
C	0.670068	0.520329	0.729668	6
C	1.254138	1.309209	1.845348	6
C	0.184408	0.989609	-0.427352	6
H	-2.262662	-0.917681	-1.935712	1
H	-2.258092	0.843419	-1.748492	1
H	-2.311622	-0.199491	-0.318482	1
H	0.028188	-0.021001	-2.313882	1
H	1.134278	-1.660401	-1.126542	1
H	-0.470792	-2.223921	-0.665262	1
H	1.449718	-1.451471	1.162648	1
H	-0.287022	-1.230941	1.502318	1
H	1.277088	2.379109	1.613098	1
H	2.280638	0.985779	2.044128	1
H	0.664068	1.174139	2.757118	1
H	0.156088	2.034189	-0.707332	1
Es	0.361596	-1.187389	0.114899	99
Es	1.254125	1.309188	1.845328	99
Es	-1.883942	-0.093578	-1.321994	99
Es	0.963400	0.917056	1.291117	99
Es	0.160218	1.702406	-0.626792	99
Es	1.268393	2.035267	1.685274	99
Es	0.731414	0.744696	0.002710	99
Es	0.618698	-0.224858	0.808292	99
Es	0.206053	-1.364138	-0.618821	99
Es	-2.137781	0.550472	-1.616312	99
Es	1.945724	1.082592	1.975086	99
Es	-2.169905	-0.169916	-0.632286	99
Es	0.529733	-0.966784	0.822530	99
Es	-0.098518	-0.044042	-1.997736	99
Es	0.133128	0.805511	0.278691	99
Es	1.159779	-1.293722	1.062645	99
Es	-1.127397	-0.096339	-1.299266	99
Es	-0.093632	-0.750460	-0.966419	99
Es	0.840524	-1.564426	-0.963858	99
Es	-0.260220	-1.952259	-0.653566	99
Es	0.184362	0.989645	-0.427460	99
Es	0.670124	0.520280	0.729811	99
Es	-0.026193	-1.135455	1.287679	99
Es	-2.137555	-0.657143	-1.740856	99
Es	-0.094935	0.469905	-0.884813	99
Es	0.851612	1.209854	2.457424	99
Es	-0.360346	-0.106338	-1.292949	99
46
Properties=species:S:1:pos:R:3:Z:I:1 energy=-272.1444780325312 field_type=dipole dipole="0.000000 0.000000 0.000000" charge=0
C	-1.883952	-0.093581	-1.321992	6
C	-0.360322	-0.106341	-1.292982	6
C	0.206048	-1.364151	-0.618842	6
C	0.529738	-0.966801	0.822548	6
C	0.670068	0.520329	0.729668	6
C	1.254138	1.309209	1.845348	6
C	0.184408	0.989609	-0.427352	6
H	-2.262662	-0.917681	-1.935712	1
H	-2.258092	0.843419	-1.748492	1
H	-2.311622	-0.199491	-0.318482	1
H	0.028188	-0.021001	-2.313882	1
H	1.134278	-1.660401	-1.126542	1
H	-0.470792	-2.223921	-0.665262	1
H	1.449718	-1.451471	1.162648	1
H	-0.287022	-1.230941	1.502318	1
H	1.277088	2.379109	1.613098	1
H	2.280638	0.985779	2.044128	1
H	0.664068	1.174139	2.757118	1
H	0.156088	2.034189	-0.707332	1
Es	0.184363	0.989645	-0.427461	99
Es	-0.098748	-0.043529	-1.998466	99
Es	0.731522	0.744268	0.002558	99
Es	-1.883942	-0.093578	-1.321995	99
Es	0.160498	1.702333	-0.627225	99
Es	-0.360346	-0.106338	-1.292950	99
Es	-0.093268	-0.750266	-0.966903	99
Es	1.160169	-1.293884	1.063684	99
Es	0.132495	0.805539	0.278864	99
Es	-2.138163	0.550593	-1.617651	99
Es	0.529733	-0.966784	0.822531	99
Es	-2.136483	-0.656382	-1.739799	99
Es	1.254128	1.309188	1.845331	99
Es	0.362168	-1.187575	0.115033	99
Es	1.945672	1.082681	1.975199	99
Es	1.268472	2.035095	1.685349	99
Es	0.618048	-0.225525	0.808733	99
Es	-1.127324	-0.096161	-1.299206	99
Es	-0.095689	0.469342	-0.885379	99
Es	0.851676	1.209976	2.457439	99
Es	-0.259071	-1.951933	-0.653937	99
Es	0.963577	0.916697	1.291149	99
Es	0.838252	-1.564412	-0.962910	99
Es	-0.025563	-1.134602	1.286950	99
Es	-2.169894	-0.170509	-0.631568	99
Es	0.206051	-1.364134	-0.618818	99
Es	0.670128	0.520279	0.729809	99
46
Properties=species:S:1:pos:R:3:Z:I:1 energy=-272.1444780325312 field_type=dipole dipole="0.000000 0.000000 0.000000" charge=0
C	-1.883952	-0.093581	-1.321992	6
C	-0.360322	-0.106341	-1.292982	6
C	0.206048	-1.364151	-0.618842	6
C	0.529738	-0.966801	0.822548	6
C	0.670068	0.520329	0.729668	6
C	1.254138	1.309209	1.845348	6
C	0.184408	0.989609	-0.427352	6
H	-2.262662	-0.917681	-1.935712	1
H	-2.258092	0.843419	-1.748492	1
H	-2.311622	-0.199491	-0.318482	1
H	0.028188	-0.021001	-2.313882	1
H	1.134278	-1.660401	-1.126542	1
H	-0.470792	-2.223921	-0.665262	1
H	1.449718	-1.451471	1.162648	1
H	-0.287022	-1.230941	1.502318	1
H	1.277088	2.379109	1.613098	1
H	2.280638	0.985779	2.044128	1
H	0.664068	1.174139	2.757118	1
H	0.156088	2.034189	-0.707332	1
Es	-0.360351	-0.106338	-1.292948	99
Es	-0.092806	-0.750159	-0.967452	99
Es	-1.127334	-0.096188	-1.299184	99
Es	0.617458	-0.226281	0.808969	99
Es	0.362578	-1.187773	0.115190	99
Es	0.132239	0.805766	0.279061	99
Es	0.184362	0.989647	-0.427466	99
Es	0.160628	1.702296	-0.627692	99
Es	0.963574	0.916301	1.291128	99
Es	1.160455	-1.293983	1.064518	99
Es	1.254127	1.309188	1.845331	99
Es	0.731662	0.743878	0.002327	99
Es	-2.169835	-0.171116	-0.631051	99
Es	-1.883942	-0.093578	-1.321995	99
Es	-0.098938	-0.042960	-1.998979	99
Es	0.851899	1.210055	2.457370	99
Es	-2.135515	-0.655698	-1.738945	99
Es	1.945687	1.082748	1.975268	99
Es	0.529733	-0.966783	0.822531	99
Es	-0.025150	-1.133811	1.286439	99
Es	-0.257942	-1.951809	-0.654511	99
Es	0.206051	-1.364134	-0.618818	99
Es	0.836201	-1.563996	-0.961878	99
Es	1.268478	2.034967	1.685592	99
Es	-0.096477	0.468790	-0.885518	99
Es	-2.138506	0.550715	-1.618737	99
Es	0.670125	0.520280	0.729811	99
46
Properties=species:S:1:pos:R:3:Z:I:1 energy=-272.1444780325312 field_type=dipole dipole="0.000000 0.000000 0.000000" charge=0
C	-1.883952	-0.093581	-1.321992	6
C	-0.360322	-0.106341	-1.292982	6
C	0.206048	-1.364151	-0.618842	6
C	0.529738	-0.966801	0.822548	6
C	0.670068	0.520329	0.729668	6
C	1.254138	1.309209	1.845348	6
C	0.184408	0.989609	-0.427352	6
H	-2.262662	-0.917681	-1.935712	1
H	-2.258092	0.843419	-1.748492	1
H	-2.311622	-0.199491	-0.318482	1
H	0.028188	-0.021001	-2.313882	1
H	1.134278	-1.660401	-1.126542	1
H	-0.470792	-2.223921	-0.665262	1
H	1.449718	-1.451471	1.162648	1
H	-0.287022	-1.230941	1.502318	1
H	1.277088	2.379109	1.613098	1
H	2.280638	0.985779	2.044128	1
H	0.664068	1.174139	2.757118	1
H	0.156088	2.034189	-0.707332	1
Es	0.617074	-0.226847	0.809090	99
Es	-1.883942	-0.093578	-1.321995	99
Es	0.834182	-1.563830	-0.960910	99
Es	-1.127239	-0.096102	-1.299176	99
Es	-0.096973	0.468244	-0.885726	99
Es	-0.360346	-0.106338	-1.292951	99
Es	0.206051	-1.364133	-0.618818	99
Es	-0.099082	-0.042647	-1.999464	99
Es	-2.138915	0.550757	-1.619645	99
Es	0.963731	0.916122	1.291146	99
Es	-0.024754	-1.133098	1.285830	99
Es	1.945666	1.082863	1.975080	99
Es	1.268524	2.034751	1.685782	99
Es	0.529733	-0.966784	0.822531	99
Es	0.131889	0.805782	0.279077	99
Es	1.254126	1.309188	1.845330	99
Es	-0.092342	-0.749996	-0.967972	99
Es	0.852104	1.210084	2.457570	99
Es	0.363221	-1.187735	0.115135	99
Es	0.670121	0.520276	0.729809	99
Es	0.184362	0.989646	-0.427460	99
Es	-2.134770	-0.655145	-1.738121	99
Es	-2.169660	-0.171577	-0.630694	99
Es	1.160646	-1.294161	1.065353	99
Es	0.160785	1.702297	-0.628140	99
Es	0.731468	0.743599	0.002398	99
Es	-0.257197	-1.951611	-0.654699	99
46
Properties=species:S:1:pos:R:3:Z:I:1 energy=-272.1444780325312 field_type=dipole dipole="0.000000 0.000000 0.000000" charge=0
C	-1.883952	-0.093581	-1.321992	6
C	-0.360322	-0.106341	-1.292982	6
C	0.206048	-1.364151	-0.618842	6
C	0.529738	-0.966801	0.822548	6
C	0.670068	0.520329	0.729668	6
C	1.254138	1.309209	1.845348	6
C	0.184408	0.989609	-0.427352	6
H	-2.262662	-0.917681	-1.935712	1
H	-2.258092	0.843419	-1.748492	1
H	-2.311622	-0.199491	-0.318482	1
H	0.028188	-0.021001	-2.313882	1
H	1.134278	-1.660401	-1.126542	1
H	-0.470792	-2.223921	-0.665262	1
H	1.449718	-1.451471	1.162648	1
H	-0.287022	-1.230941	1.502318	1
H	1.277088	2.379109	1.613098	1
H	2.280638	0.985779	2.044128	1
H	0.664068	1.174139	2.757118	1
H	0.156088	2.034189	-0.707332	1
Es	1.254126	1.309187	1.845329	99
Es	0.363865	-1.187675	0.115025	99
Es	1.268668	2.034637	1.685955	99
Es	-0.097702	0.467698	-0.885895	99
Es	-0.360346	-0.106338	-1.292950	99
Es	0.160864	1.702254	-0.628417	99
Es	1.945545	1.082925	1.975297	99
Es	-1.127279	-0.095997	-1.299190	99
Es	-2.134049	-0.654614	-1.737373	99
Es	-2.139279	0.550692	-1.620508	99
Es	0.731444	0.743311	0.002217	99
Es	0.852060	1.210142	2.457487	99
Es	0.184361	0.989646	-0.427460	99
Es	-0.024438	-1.132562	1.285373	99
Es	-0.256547	-1.951397	-0.654857	99
Es	-0.091874	-0.749895	-0.968372	99
Es	0.832384	-1.563619	-0.960100	99
Es	-2.169520	-0.171980	-0.630345	99
Es	0.670125	0.520281	0.729812	99
Es	0.131880	0.806013	0.279223	99
Es	-0.099160	-0.042253	-1.999812	99
Es	1.160768	-1.294264	1.065990	99
Es	-1.883942	-0.093578	-1.321995	99
Es	0.616741	-0.227502	0.809166	99
Es	0.963981	0.915830	1.291044	99
Es	0.206051	-1.364134	-0.618818	99
Es	0.529733	-0.966784	0.822531	99
46
Properties=species:S:1:pos:R:3:Z:I:1 energy=-272.1444780325312 field_type=dipole dipole="0.000000 0.000000 0.000000" charge=0
C	-1.883952	-0.093581	-1.321992	6
C	-0.360322	-0.106341	-1.292982	6
C	0.206048	-1.364151	-0.618842	6
C	0.529738	-0.966801	0.822548	6
C	0.670068	0.520329	0.729668	6
C	1.254138	1.309209	1.845348	6
C	0.184408	0.989609	-0.427352	6
H	-2.262662	-0.917681	-1.935712	1
H	-2.258092	0.843419	-1.748492	1
H	-2.311622	-0.199491	-0.318482	1
H	0.028188	-0.021001	-2.313882	1
H	1.134278	-1.660401	-1.126542	1
H	-0.470792	-2.223921	-0.665262	1
H	1.449718	-1.451471	1.162648	1
H	-0.287022	-1.230941	1.502318	1
H	1.277088	2.379109	1.613098	1
H	2.280638	0.985779	2.044128	1
H	0.664068	1.174139	2.757118	1
H	0.156088	2.034189	-0.707332	1
Es	0.670128	0.520279	0.729811	99
Es	1.945659	1.082886	1.975340	99
Es	-1.883944	-0.093578	-1.321994	99
Es	0.364536	-1.187520	0.114929	99
Es	-0.255939	-1.951366	-0.655138	99
Es	0.963943	0.915792	1.291021	99
Es	0.131732	0.806009	0.279062	99
Es	0.731434	0.743242	0.002405	99
Es	-0.024269	-1.132097	1.284917	99
Es	0.184365	0.989648	-0.427463	99
Es	1.254128	1.309187	1.845331	99
Es	0.161061	1.702180	-0.628513	99
Es	-0.091204	-0.749843	-0.968778	99
Es	1.160854	-1.294387	1.066599	99
Es	-0.098255	0.467322	-0.886368	99
Es	0.852157	1.210184	2.457372	99
Es	0.206051	-1.364134	-0.618818	99
Es	-2.169418	-0.172358	-0.630006	99
Es	-2.133415	-0.653955	-1.736573	99
Es	0.529733	-0.966784	0.822531	99
Es	0.616413	-0.228139	0.809306	99
Es	-2.139571	0.550584	-1.621382	99
Es	-0.099446	-0.042019	-2.000182	99
Es	1.268675	2.034504	1.686195	99
Es	-1.127160	-0.096053	-1.299188	99
Es	0.830561	-1.563222	-0.959106	99
Es	-0.360346	-0.106338	-1.292950	99
46
Properties=species:S:1:pos:R:3:Z:I:1 energy=-272.1444780325312 field_type=dipole dipole="0.000000 0.000000 0.000000" charge=0
C	-1.883952	-0.093581	-1.321992	6
C	-0.360322	-0.106341	-1.292982	6
C	0.206048	-1.364151	-0.618842	6
C	0.529738	-0.966801	0.822548	6
C	0.670068	0.520329	0.729668	6
C	1.254138	1.309209	1.845348	6
C	0.184408	0.989609	-0.427352	6
H	-2.262662	-0.917681	-1.935712	1
H	-2.258092	0.843419	-1.748492	1
H	-2.311622	-0.199491	-0.318482	1
H	0.028188	-0.021001	-2.313882	1
H	1.134278	-1.660401	-1.126542	1
H	-0.470792	-2.223921	-0.665262	1
H	1.449718	-1.451471	1.162648	1
H	-0.287022	-1.230941	1.502318	1
H	1.277088	2.379109	1.613098	1
H	2.280638	0.985779	2.044128	1
H	0.664068	1.174139	2.757118	1
H	0.156088	2.034189	-0.707332	1
Es	1.160981	-1.294397	1.067132	99
Es	-0.098720	0.467022	-0.886274	99
Es	1.945689	1.082936	1.975492	99
Es	-1.883940	-0.093577	-1.321995	99
Es	0.616003	-0.228534	0.809180	99
Es	0.529733	-0.966785	0.822532	99
Es	-2.139927	0.550405	-1.622133	99
Es	-2.132843	-0.653472	-1.735876	99
Es	-0.360346	-0.106338	-1.292949	99
Es	1.254128	1.309189	1.845332	99
Es	0.964135	0.915465	1.291105	99
Es	0.161107	1.702210	-0.628886	99
Es	-2.169282	-0.172629	-0.629756	99
Es	-0.255638	-1.951303	-0.655312	99
Es	-1.127120	-0.096020	-1.299296	99
Es	0.852135	1.210355	2.457324	99
Es	0.828913	-1.562946	-0.958319	99
Es	0.206052	-1.364134	-0.618818	99
Es	0.184364	0.989649	-0.427462	99
Es	1.268738	2.034295	1.686253	99
Es	-0.023934	-1.131607	1.284561	99
Es	0.731387	0.742920	0.002248	99
Es	-0.099501	-0.041855	-2.000437	99
Es	0.131732	0.806178	0.279160	99
Es	-0.090613	-0.749640	-0.969035	99
Es	0.365109	-1.187643	0.114773	99
Es	0.670117	0.520282	0.729814	99
46
Properties=species:S:1:pos:R:3:Z:I:1 energy=-272.1444780325312 field_type=dipole dipole="0.000000 0.000000 0.000000" charge=0
C	-1.883952	-0.093581	-1.321992	6
C	-0.360322	-0.106341	-1.292982	6
C	0.206048	-1.364151	-0.618842	6
C	0.529738	-0.966801	0.822548	6
C	0.670068	0.520329	0.729668	6
C	1.254138	1.309209	1.845348	6
C	0.184408	0.989609	-0.427352	6
H	-2.262662	-0.917681	-1.935712	1
H	-2.258092	0.843419	-1.748492	1
H	-2.311622	-0.199491	-0.318482	1
H	0.028188	-0.021001	-2.313882	1
H	1.134278	-1.660401	-1.126542	1
H	-0.470792	-2.223921	-0.665262	1
H	1.449718	-1.451471	1.162648	1
H	-0.287022	-1.230941	1.502318	1
H	1.277088	2.379109	1.613098	1
H	2.280638	0.985779	2.044128	1
H	0.664068	1.174139	2.757118	1
H	0.156088	2.034189	-0.707332	1
Es	0.131880	0.806216	0.279261	99
Es	0.365783	-1.187383	0.114490	99
Es	-0.099749	-0.041686	-2.000651	99
Es	1.254127	1.309189	1.845331	99
Es	1.268781	2.034197	1.686354	99
Es	1.945672	1.082973	1.975574	99
Es	0.827310	-1.562466	-0.957474	99
Es	0.615650	-0.229139	0.809512	99
Es	-0.023648	-1.131285	1.284135	99
Es	0.206051	-1.364132	-0.618818	99
Es	-2.132343	-0.652971	-1.735263	99
Es	-2.169236	-0.172913	-0.629602	99
Es	-0.255140	-1.951408	-0.655484	99
Es	-1.883943	-0.093577	-1.321995	99
Es	-2.140273	0.550218	-1.622759	99
Es	0.731315	0.742575	0.001986	99
Es	0.184363	0.989645	-0.427462	99
Es	0.161198	1.702236	-0.629040	99
Es	-0.360346	-0.106337	-1.292951	99
Es	0.852239	1.210460	2.457279	99
Es	0.964016	0.915404	1.291093	99
Es	0.529733	-0.966784	0.822531	99
Es	-0.099033	0.466684	-0.886616	99
Es	-0.089945	-0.749504	-0.969377	99
Es	-1.127121	-0.095998	-1.299141	99
Es	0.670124	0.520282	0.729811	99
Es	1.160995	-1.294469	1.067634	99
46
Properties=species:S:1:pos:R:3:Z:I:1 energy=-272.1444780325312 field_type=dipole dipole="0.000000 0.000000 0.000000" charge=0
C	-1.883952	-0.093581	-1.321992	6
C	-0.360322	-0.106341	-1.292982	6
C	0.206048	-1.364151	-0.618842	6
C	0.529738	-0.966801	0.822548	6
C	0.670068	0.520329	0.729668	6
C	1.254138	1.309209	1.845348	6
C	0.184408	0.989609	-0.427352	6
H	-2.262662	-0.917681	-1.935712	1
H	-2.258092	0.843419	-1.748492	1
H	-2.311622	-0.199491	-0.318482	1
H	0.028188	-0.021001	-2.313882	1
H	1.134278	-1.660401	-1.126542	1
H	-0.470792	-2.223921	-0.665262	1
H	1.449718	-1.451471	1.162648	1
H	-0.287022	-1.230941	1.502318	1
H	1.277088	2.379109	1.613098	1
H	2.280638	0.985779	2.044128	1
H	0.664068	1.174139	2.757118	1
H	0.156088	2.034189	-0.707332	1
Es	0.964145	0.915239	1.290979	99
Es	-0.360346	-0.106338	-1.292949	99
Es	0.529733	-0.966784	0.822531	99
Es	0.615461	-0.229411	0.809493	99
Es	0.731348	0.742540	0.002057	99
Es	0.184363	0.989644	-0.427462	99
Es	0.366305	-1.187383	0.114346	99
Es	1.945720	1.083043	1.975543	99
Es	1.161002	-1.294619	1.068117	99
Es	-1.883943	-0.093579	-1.321996	99
Es	0.161291	1.702165	-0.629201	99
Es	0.825944	-1.562145	-0.956773	99
Es	-0.099538	0.466315	-0.886715	99
Es	-0.089431	-0.749428	-0.969632	99
Es	-2.140357	0.550096	-1.623274	99
Es	0.852285	1.210430	2.457299	99
Es	1.254128	1.309187	1.845330	99
Es	-2.132016	-0.652563	-1.734815	99
Es	-1.127047	-0.096186	-1.299225	99
Es	0.670134	0.520282	0.729810	99
Es	-0.099786	-0.041360	-2.000888	99
Es	-0.254815	-1.951391	-0.655604	99
Es	0.131636	0.806346	0.279311	99
Es	1.268768	2.034052	1.686541	99
Es	-0.023417	-1.130911	1.283726	99
Es	0.206052	-1.364132	-0.618818	99
Es	-2.169159	-0.173084	-0.629370	99
46
Properties=species:S:1:pos:R:3:Z:I:1 energy=-272.1444780325312 field_type=dipole dipole="0.000000 0.000000 0.000000" charge=0
C	-1.883952	-0.093581	-1.321992	6
C	-0.360322	-0.106341	-1.292982	6
C	0.206048	-1.364151	-0.618842	6
C	0.529738	-0.966801	0.822548	6
C	0.670068	0.520329	0.729668	6
C	1.254138	1.309209	1.845348	6
C	0.184408	0.989609	-0.427352	6
H	-2.262662	-0.917681	-1.935712	1
H	-2.258092	0.843419	-1.748492	1
H	-2.311622	-0.199491	-0.318482	1
H	0.028188	-0.021001	-2.313882	1
H	1.134278	-1.660401	-1.126542	1
H	-0.470792	-2.223921	-0.665262	1
H	1.449718	-1.451471	1.162648	1
H	-0.287022	-1.230941	1.502318	1
H	1.277088	2.379109	1.613098	1
H	2.280638	0.985779	2.044128	1
H	0.664068	1.174139	2.757118	1
H	0.156088	2.034189	-0.707332	1
Es	0.131602	0.806399	0.279354	99
Es	-1.127044	-0.096007	-1.299173	99
Es	0.529733	-0.966784	0.822531	99
Es	0.615263	-0.229849	0.809592	99
Es	-0.254619	-1.951387	-0.655755	99
Es	-2.131611	-0.652190	-1.734341	99
Es	0.852373	1.210475	2.457161	99
Es	0.964212	0.914985	1.291185	99
Es	0.184362	0.989646	-0.427462	99
Es	-0.088722	-0.749283	-0.969831	99
Es	-2.140668	0.549876	-1.623762	99
Es	-0.099942	-0.041316	-2.001062	99
Es	0.366591	-1.187080	0.114106	99
Es	0.206050	-1.364133	-0.618818	99
Es	0.670129	0.520277	0.729806	99
Es	-0.023161	-1.130677	1.283446	99
Es	1.254127	1.309186	1.845334	99
Es	-0.099747	0.465982	-0.887024	99
Es	-1.883942	-0.093577	-1.321996	99
Es	0.824772	-1.561882	-0.956074	99
Es	1.945686	1.082974	1.975650	99
Es	-0.360345	-0.106338	-1.292950	99
Es	1.160997	-1.294690	1.068431	99
Es	-2.169065	-0.173284	-0.629222	99
Es	1.268796	2.034142	1.686549	99
Es	0.161412	1.702159	-0.629349	99
Es	0.731222	0.742400	0.002033	99
46
Properties=species:S:1:pos:R:3:Z:I:1 energy=-272.1444780325312 field_type=dipole dipole="0.000000 0.000000 0.000000" charge=0
C	-1.883952	-0.093581	-1.321992	6
C	-0.360322	-0.106341	-1.292982	6
C	0.206048	-1.364151	-0.618842	6
C	0.529738	-0.966801	0.822548	6
C	0.670068	0.520329	0.729668	6
C	1.254138	1.309209	1.845348	6
C	0.184408	0.989609	-0.427352	6
H	-2.262662	-0.917681	-1.935712	1
H	-2.258092	0.843419	-1.748492	1
H	-2.311622	-0.199491	-0.318482	1
H	0.028188	-0.021001	-2.313882	1
H	1.134278	-1.660401	-1.126542	1
H	-0.470792	-2.223921	-0.665262	1
H	1.449718	-1.451471	1.162648	1
H	-0.287022	-1.230941	1.502318	1
H	1.277088	2.379109	1.613098	1
H	2.280638	0.985779	2.044128	1
H	0.664068	1.174139	2.757118	1
H	0.156088	2.034189	-0.707332	1
Es	-0.254350	-1.951422	-0.655783	99
Es	0.131461	0.806373	0.279284	99
Es	0.964221	0.914960	1.290947	99
Es	0.823623	-1.561576	-0.955507	99
Es	-0.100078	-0.041261	-2.001224	99
Es	0.206051	-1.364133	-0.618818	99
Es	1.254127	1.309188	1.845331	99
Es	0.529733	-0.966784	0.822531	99
Es	0.367171	-1.186936	0.113888	99
Es	-0.088481	-0.749298	-0.970021	99
Es	-2.169035	-0.173377	-0.629067	99
Es	0.161405	1.702157	-0.629429	99
Es	1.945589	1.082928	1.975644	99
Es	1.161009	-1.294756	1.068690	99
Es	-0.023028	-1.130497	1.283218	99
Es	0.731260	0.742350	0.002106	99
Es	0.184362	0.989649	-0.427460	99
Es	0.615119	-0.230121	0.809666	99
Es	-1.883943	-0.093578	-1.321995	99
Es	-2.140839	0.549651	-1.624391	99
Es	-1.127021	-0.095946	-1.299125	99
Es	-2.131198	-0.651841	-1.733813	99
Es	0.852389	1.210586	2.457235	99
Es	1.269034	2.033940	1.686744	99
Es	-0.360346	-0.106338	-1.292950	99
Es	-0.099901	0.465823	-0.887156	99
Es	0.670127	0.520283	0.729814	99
46
Properties=species:S:1:pos:R:3:Z:I:1 energy=-272.1444780325312 field_type=dipole dipole="0.000000 0.000000 0.000000" charge=0
C	-1.883952	-0.093581	-1.321992	6
C	-0.360322	-0.106341	-1.292982	6
C	0.206048	-1.364151	-0.618842	6
C	0.529738	-0.966801	0.822548	6
C	0.670068	0.520329	0.729668	6
C	1.254138	1.309209	1.845348	6
C	0.184408	0.989609	-0.427352	6
H	-2.262662	-0.917681	-1.935712	1
H	-2.258092	0.843419	-1.748492	1
H	-2.311622	-0.199491	-0.318482	1
H	0.028188	-0.021001	-2.313882	1
H	1.134278	-1.660401	-1.126542	1
H	-0.470792	-2.223921	-0.665262	1
H	1.449718	-1.451471	1.162648	1
H	-0.287022	-1.230941	1.502318	1
H	1.277088	2.379109	1.613098	1
H	2.280638	0.985779	2.044128	1
H	0.664068	1.174139	2.757118	1
H	0.156088	2.034189	-0.707332	1
Es	1.945737	1.083096	1.975688	99
Es	0.529733	-0.966784	0.822531	99
Es	0.161450	1.702132	-0.629639	99
Es	-1.126982	-0.095962	-1.299079	99
Es	-0.100277	-0.041141	-2.001407	99
Es	0.184364	0.989646	-0.427462	99
Es	0.731170	0.742321	0.002179	99
Es	-0.360350	-0.106338	-1.292950	99
Es	0.822634	-1.561312	-0.954941	99
Es	0.614934	-0.230539	0.809648	99
Es	-0.087870	-0.749128	-0.970159	99
Es	0.670125	0.520280	0.729811	99
Es	1.161036	-1.294758	1.069038	99
Es	-0.022879	-1.130254	1.282957	99
Es	0.852453	1.210561	2.457174	99
Es	0.367531	-1.186851	0.113709	99
Es	1.268858	2.033806	1.686875	99
Es	0.964244	0.914890	1.290944	99
Es	-2.168865	-0.173500	-0.628938	99
Es	-2.130867	-0.651566	-1.733388	99
Es	1.254127	1.309187	1.845332	99
Es	-0.100192	0.465537	-0.887274	99
Es	-1.883943	-0.093577	-1.321995	99
Es	0.206057	-1.364138	-0.618823	99
Es	0.131515	0.806412	0.279230	99
Es	-0.254172	-1.951456	-0.655869	99
Es	-2.141108	0.549460	-1.624832	99
46
Properties=species:S:1:pos:R:3:Z:I:1 energy=-272.1444780325312 field_type=dipole dipole="0.000000 0.000000 0.000000" charge=0
C	-1.883952	-0.093581	-1.321992	6
C	-0.360322	-0.106341	-1.292982	6
C	0.206048	-1.364151	-0.618842	6
C	0.529738	-0.966801	0.822548	6
C	0.670068	0.520329	0.729668	6
C	1.254138	1.309209	1.845348	6
C	0.184408	0.989609	-0.427352	6
H	-2.262662	-0.917681	-1.935712	1
H	-2.258092	0.843419	-1.748492	1
H	-2.311622	-0.199491	-0.318482	1
H	0.028188	-0.021001	-2.313882	1
H	1.134278	-1.660401	-1.126542	1
H	-0.470792	-2.223921	-0.665262	1
H	1.449718	-1.451471	1.162648	1
H	-0.287022	-1.230941	1.502318	1
H	1.277088	2.379109	1.613098	1
H	2.280638	0.985779	2.044128	1
H	0.664068	1.174139	2.757118	1
H	0.156088	2.034189	-0.707332	1
Es	-0.100352	0.465368	-0.887424	99
Es	0.367992	-1.186800	0.113579	99
Es	-0.360346	-0.106338	-1.292951	99
Es	-2.168875	-0.173618	-0.628886	99
Es	-0.100263	-0.041026	-2.001389	99
Es	-2.141222	0.549337	-1.625237	99
Es	1.161006	-1.294769	1.069250	99
Es	0.529733	-0.966785	0.822531	99
Es	1.254127	1.309187	1.845330	99
Es	0.206049	-1.364133	-0.618818	99
Es	-0.087428	-0.749185	-0.970384	99
Es	0.852471	1.210659	2.457158	99
Es	0.161464	1.702099	-0.629672	99
Es	0.670119	0.520281	0.729814	99
Es	1.945719	1.083010	1.975714	99
Es	0.184363	0.989647	-0.427462	99
Es	0.131564	0.806536	0.279401	99
Es	1.268960	2.033758	1.686885	99
Es	-0.253984	-1.951398	-0.656009	99
Es	-1.127074	-0.095940	-1.299104	99
Es	-1.883943	-0.093578	-1.321995	99
Es	0.964281	0.914849	1.290982	99
Es	0.731119	0.742097	0.001969	99
Es	0.614752	-0.230814	0.809720	99
Es	-0.022776	-1.130105	1.282803	99
Es	0.821591	-1.561048	-0.954416	99
Es	-2.130586	-0.651265	-1.733031	99
46
Properties=species:S:1:pos:R:3:Z:I:1 energy=-272.1444780325312 field_type=dipole dipole="0.000000 0.000000 0.000000" charge=0
C	-1.883952	-0.093581	-1.321992	6
C	-0.360322	-0.106341	-1.292982	6
C	0.206048	-1.364151	-0.618842	6
C	0.529738	-0.966801	0.822548	6
C	0.670068	0.520329	0.729668	6
C	1.254138	1.309209	1.845348	6
C	0.184408	0.989609	-0.427352	6
H	-2.262662	-0.917681	-1.935712	1
H	-2.258092	0.843419	-1.748492	1
H	-2.311622	-0.199491	-0.318482	1
H	0.028188	-0.021001	-2.313882	1
H	1.134278	-1.660401	-1.126542	1
H	-0.470792	-2.223921	-0.665262	1
H	1.449718	-1.451471	1.162648	1
H	-0.287022	-1.230941	1.502318	1
H	1.277088	2.379109	1.613098	1
H	2.280638	0.985779	2.044128	1
H	0.664068	1.174139	2.757118	1
H	0.156088	2.034189	-0.707332	1
Es	0.614463	-0.231217	0.809690	99
Es	1.269024	2.033768	1.687040	99
Es	1.161060	-1.294780	1.069605	99
Es	-2.130349	-0.650934	-1.732626	99
Es	0.670124	0.520281	0.729812	99
Es	0.184358	0.989647	-0.427460	99
Es	-1.883943	-0.093578	-1.321994	99
Es	1.945702	1.082927	1.975717	99
Es	-0.100384	-0.041063	-2.001540	99
Es	-0.100631	0.465246	-0.887504	99
Es	-0.253821	-1.951340	-0.656089	99
Es	0.820790	-1.560851	-0.954002	99
Es	-0.087138	-0.749158	-0.970453	99
Es	0.731095	0.742026	0.002035	99
Es	0.964209	0.914847	1.290963	99
Es	0.368245	-1.186744	0.113499	99
Es	0.529733	-0.966784	0.822531	99
Es	-0.360346	-0.106338	-1.292951	99
Es	0.206059	-1.364132	-0.618821	99
Es	0.131692	0.806642	0.279290	99
Es	0.161660	1.702091	-0.629790	99
Es	-2.168838	-0.173707	-0.628790	99
Es	-0.022627	-1.129829	1.282540	99
Es	0.852528	1.210628	2.457090	99
Es	-1.126937	-0.095957	-1.299123	99
Es	1.254127	1.309187	1.845331	99
Es	-2.141395	0.549148	-1.625640	99
46
Properties=species:S:1:pos:R:3:Z:I:1 energy=-272.1444780325312 field_type=dipole dipole="0.000000 0.000000 0.000000" charge=0
C	-1.883952	-0.093581	-1.321992	6
C	-0.360322	-0.106341	-1.292982	6
C	0.206048	-1.364151	-0.618842	6
C	0.529738	-0.966801	0.822548	6
C	0.670068	0.520329	0.729668	6
C	1.254138	1.309209	1.845348	6
C	0.184408	0.989609	-0.427352	6
H	-2.262662	-0.917681	-1.935712	1
H	-2.258092	0.843419	-1.748492	1
H	-2.311622	-0.199491	-0.318482	1
H	0.028188	-0.021001	-2.313882	1
H	1.134278	-1.660401	-1.126542	1
H	-0.470792	-2.223921	-0.665262	1
H	1.449718	-1.451471	1.162648	1
H	-0.287022	-1.230941	1.502318	1
H	1.277088	2.379109	1.613098	1
H	2.280638	0.985779	2.044128	1
H	0.664068	1.174139	2.757118	1
H	0.156088	2.034189	-0.707332	1
Es	-0.086603	-0.749115	-0.970536	99
Es	0.184363	0.989645	-0.427462	99
Es	-2.168745	-0.173896	-0.628673	99
Es	1.945733	1.083081	1.975787	99
Es	0.614411	-0.231302	0.809748	99
Es	-0.360347	-0.106338	-1.292951	99
Es	0.820058	-1.560655	-0.953615	99
Es	0.852594	1.210708	2.457086	99
Es	0.161747	1.702090	-0.629897	99
Es	1.268967	2.033621	1.687101	99
Es	0.731066	0.742032	0.002182	99
Es	-1.883941	-0.093577	-1.321996	99
Es	-0.100445	-0.040801	-2.001537	99
Es	-2.130164	-0.650631	-1.732404	99
Es	-0.100809	0.464896	-0.887751	99
Es	-0.022346	-1.129720	1.282429	99
Es	-0.253786	-1.951426	-0.656082	99
Es	0.206057	-1.364138	-0.618823	99
Es	0.670125	0.520281	0.729811	99
Es	1.254127	1.309188	1.845331	99
Es	0.131535	0.806496	0.279162	99
Es	0.368428	-1.186603	0.113313	99
Es	-1.127043	-0.095953	-1.299188	99
Es	1.161072	-1.294818	1.069682	99
Es	0.964163	0.914683	1.290963	99
Es	0.529733	-0.966784	0.822531	99
Es	-2.141488	0.549063	-1.625852	99
46
Properties=species:S:1:pos:R:3:Z:I:1 energy=-272.1444780325312 field_type=dipole dipole="0.000000 0.000000 0.000000" charge=0
C	-1.883952	-0.093581	-1.321992	6
C	-0.360322	-0.106341	-1.292982	6
C	0.206048	-1.364151	-0.618842	6
C	0.529738	-0.966801	0.822548	6
C	0.670068	0.520329	0.729668	6
C	1.254138	1.309209	1.845348	6
C	0.184408	0.989609	-0.427352	6
H	-2.262662	-0.917681	-1.935712	1
H	-2.258092	0.843419	-1.748492	1
H	-2.311622	-0.199491	-0.318482	1
H	0.028188	-0.021001	-2.313882	1
H	1.134278	-1.660401	-1.126542	1
H	-0.470792	-2.223921	-0.665262	1
H	1.449718	-1.451471	1.162648	1
H	-0.287022	-1.230941	1.502318	1
H	1.277088	2.379109	1.613098	1
H	2.280638	0.985779	2.044128	1
H	0.664068	1.174139	2.757118	1
H	0.156088	2.034189	-0.707332	1
Es	0.184365	0.989644	-0.427463	99
Es	-0.360345	-0.106338	-1.292950	99
Es	0.852538	1.210764	2.457035	99
Es	1.254127	1.309188	1.845331	99
Es	0.131472	0.806485	0.279078	99
Es	-0.100918	0.464801	-0.887775	99
Es	0.369028	-1.186609	0.113167	99
Es	0.731059	0.742083	0.002303	99
Es	1.160964	-1.294866	1.069977	99
Es	0.670125	0.520281	0.729811	99
Es	-0.086187	-0.748827	-0.970460	99
Es	-2.168577	-0.173822	-0.628544	99
Es	-0.253714	-1.951429	-0.656285	99
Es	-0.022370	-1.129783	1.282107	99
Es	-0.100408	-0.040917	-2.001655	99
Es	-1.127166	-0.095870	-1.299233	99
Es	0.964216	0.914720	1.290888	99
Es	0.529733	-0.966784	0.822531	99
Es	0.206049	-1.364138	-0.618820	99
Es	-2.141809	0.548707	-1.626415	99
Es	0.819268	-1.560404	-0.953204	99
Es	0.161658	1.702057	-0.630042	99
Es	1.269136	2.033571	1.687199	99
Es	0.614275	-0.231360	0.809852	99
Es	-1.883942	-0.093579	-1.321996	99
Es	-2.129802	-0.650490	-1.731922	99
Es	1.945686	1.082943	1.975846	99
46
Properties=species:S:1:pos:R:3:Z:I:1 energy=-272.1444780325312 field_type=dipole dipole="0.000000 0.000000 0.000000" charge=0
C	-1.883952	-0.093581	-1.321992	6
C	-0.360322	-0.106341	-1.292982	6
C	0.206048	-1.364151	-0.618842	6
C	0.529738	-0.966801	0.822548	6
C	0.670068	0.520329	0.729668	6
C	1.254138	1.309209	1.845348	6
C	0.184408	0.989609	-0.427352	6
H	-2.262662	-0.917681	-1.935712	1
H	-2.258092	0.843419	-1.748492	1
H	-2.311622	-0.199491	-0.318482	1
H	0.028188	-0.021001	-2.313882	1
H	1.134278	-1.660401	-1.126542	1
H	-0.470792	-2.223921	-0.665262	1
H	1.449718	-1.451471	1.162648	1
H	-0.287022	-1.230941	1.502318	1
H	1.277088	2.379109	1.613098	1
H	2.280638	0.985779	2.044128	1
H	0.664068	1.174139	2.757118	1
H	0.156088	2.034189	-0.707332	1
Es	-0.100965	0.464637	-0.887865	99
Es	-1.883943	-0.093573	-1.321999	99
Es	0.206057	-1.364132	-0.618820	99
Es	0.161691	1.702101	-0.629990	99
Es	0.731002	0.741973	0.002216	99
Es	0.670125	0.520279	0.729811	99
Es	-0.085970	-0.749063	-0.970909	99
Es	0.852655	1.210709	2.457124	99
Es	1.269047	2.033531	1.687244	99
Es	-0.360345	-0.106338	-1.292951	99
Es	0.964278	0.914603	1.290884	99
Es	-2.168606	-0.173970	-0.628526	99
Es	-0.022226	-1.129512	1.282138	99
Es	-1.127037	-0.095863	-1.299071	99
Es	0.184363	0.989645	-0.427462	99
Es	0.614175	-0.231826	0.809789	99
Es	0.818542	-1.560232	-0.952793	99
Es	1.254127	1.309187	1.845330	99
Es	0.369082	-1.186420	0.113055	99
Es	-2.129723	-0.650259	-1.731814	99
Es	0.131584	0.806558	0.279148	99
Es	0.529734	-0.966783	0.822530	99
Es	1.161027	-1.294883	1.070030	99
Es	-0.253481	-1.951391	-0.656214	99
Es	-0.100626	-0.040722	-2.001758	99
Es	1.945703	1.083062	1.975735	99
Es	-2.141808	0.548707	-1.626501	99
46
Properties=species:S:1:pos:R:3:Z:I:1 energy=-272.1444780325312 field_type=dipole dipole="0.000000 0.000000 0.000000" charge=0
C	-1.883952	-0.093581	-1.321992	6
C	-0.360322	-0.106341	-1.292982	6
C	0.206048	-1.364151	-0.618842	6
C	0.529738	-0.966801	0.822548	6
C	0.670068	0.520329	0.729668	6
C	1.254138	1.309209	1.845348	6
C	0.184408	0.989609	-0.427352	6
H	-2.262662	-0.917681	-1.935712	1
H	-2.258092	0.843419	-1.748492	1
H	-2.311622	-0.199491	-0.318482	1
H	0.028188	-0.021001	-2.313882	1
H	1.134278	-1.660401	-1.126542	1
H	-0.470792	-2.223921	-0.665262	1
H	1.449718	-1.451471	1.162648	1
H	-0.287022	-1.230941	1.502318	1
H	1.277088	2.379109	1.613098	1
H	2.280638	0.985779	2.044128	1
H	0.664068	1.174139	2.757118	1
H	0.156088	2.034189	-0.707332	1
Es	1.161015	-1.294895	1.070284	99
Es	-1.883943	-0.093577	-1.321996	99
Es	1.269072	2.033460	1.687315	99
Es	-2.129349	-0.649878	-1.731514	99
Es	0.670125	0.520281	0.729810	99
Es	0.184362	0.989646	-0.427462	99
Es	0.161687	1.702094	-0.630034	99
Es	-1.127218	-0.095896	-1.299069	99
Es	-2.168531	-0.174260	-0.628424	99
Es	0.529734	-0.966785	0.822531	99
Es	-0.360346	-0.106338	-1.292950	99
Es	0.818008	-1.560057	-0.952488	99
Es	0.852697	1.210768	2.457084	99
Es	0.964267	0.914544	1.290843	99
Es	1.254127	1.309188	1.845332	99
Es	0.131501	0.806465	0.279002	99
Es	-0.101069	0.464574	-0.887903	99
Es	0.369405	-1.186320	0.112904	99
Es	1.945714	1.083077	1.975785	99
Es	0.206055	-1.364132	-0.618819	99
Es	-2.141957	0.548595	-1.626855	99
Es	-0.253433	-1.951485	-0.656238	99
Es	-0.085724	-0.748961	-0.970980	99
Es	0.730999	0.741983	0.002351	99
Es	0.614155	-0.231953	0.809763	99
Es	-0.100692	-0.040763	-2.001869	99
Es	-0.022199	-1.129350	1.281955	99
