44
Properties=species:S:1:pos:R:3:Z:I:1 energy=-304.0815373918017 field_type=dipole dipole="0.000000 0.000000 0.000000" charge=0
C	-1.442257	0.142159	1.017834	6
C	0.002473	0.082259	0.517784	6
N	0.071813	-0.512291	-0.827876	7
N	-0.340867	-1.801420	-0.942856	7
C	-0.317357	-2.234940	-2.159146	6
C	0.577103	1.475549	0.453784	6
C	1.644653	1.891459	1.149004	6
H	-1.494037	0.623719	2.001054	1
H	-1.867377	-0.861981	1.123294	1
H	-2.085247	0.709419	0.334594	1
H	0.591623	-0.533791	1.209174	1
H	1.036503	-0.410041	-1.154906	1
H	-0.632387	-3.268170	-2.373226	1
H	-0.000417	-1.623031	-3.022076	1
H	0.071813	2.179529	-0.205246	1
H	2.181173	1.229279	1.821654	1
H	2.002793	2.912289	1.057154	1
Es	0.072193	-0.512745	-0.827482	99
Es	-0.589602	-1.908031	-1.547663	99
Es	0.411148	-0.334704	0.998461	99
Es	0.228341	1.945510	0.005678	99
Es	-0.095469	-1.820899	-2.743450	99
Es	-0.460925	-1.978950	-0.638828	99
Es	-1.871691	0.532260	0.549815	99
Es	0.299098	0.783147	0.477362	99
Es	-0.340655	-1.801069	-0.943331	99
Es	1.319672	1.592829	0.558492	99
Es	-0.718520	0.118776	0.761757	99
Es	0.052192	-0.285942	-0.232308	99
Es	0.655370	-0.475553	-1.016943	99
Es	-1.723708	-0.535730	1.087794	99
Es	2.012330	1.445585	1.606029	99
Es	-0.136241	-0.350109	-1.042571	99
Es	1.644726	1.891492	1.149064	99
Es	0.577014	1.475494	0.453740	99
Es	-1.467678	0.471320	1.686295	99
Es	1.892219	2.582110	1.093101	99
Es	-1.442215	0.142169	1.017829	99
Es	-0.108137	-1.162702	-0.878587	99
Es	0.923967	1.769827	1.050480	99
Es	0.002454	0.082267	0.517637	99
Es	-0.048175	-2.085827	-1.451682	99
Es	-0.526054	-2.931658	-2.310348	99
Es	-0.317326	-2.234967	-2.159159	99
44
Properties=species:S:1:pos:R:3:Z:I:1 energy=-304.0815373918017 field_type=dipole dipole="0.000000 0.000000 0.000000" charge=0
C	-1.442257	0.142159	1.017834	6
C	0.002473	0.082259	0.517784	6
N	0.071813	-0.512291	-0.827876	7
N	-0.340867	-1.801420	-0.942856	7
C	-0.317357	-2.234940	-2.159146	6
C	0.577103	1.475549	0.453784	6
C	1.644653	1.891459	1.149004	6
H	-1.494037	0.623719	2.001054	1
H	-1.867377	-0.861981	1.123294	1
H	-2.085247	0.709419	0.334594	1
H	0.591623	-0.533791	1.209174	1
H	1.036503	-0.410041	-1.154906	1
H	-0.632387	-3.268170	-2.373226	1
H	-0.000417	-1.623031	-3.022076	1
H	0.071813	2.179529	-0.205246	1
H	2.181173	1.229279	1.821654	1
H	2.002793	2.912289	1.057154	1
Es	1.644731	1.891492	1.149064	99
Es	-0.340652	-1.801073	-0.943347	99
Es	-1.442217	0.142169	1.017829	99
Es	-1.467835	0.473058	1.689124	99
Es	-0.528895	-2.931263	-2.311615	99
Es	0.300113	0.782848	0.475451	99
Es	2.009797	1.447593	1.607517	99
Es	-0.317332	-2.234965	-2.159160	99
Es	0.230909	1.943210	0.004418	99
Es	-0.045943	-2.086284	-1.451775	99
Es	-0.113628	-1.161534	-0.878979	99
Es	-0.128539	-0.351749	-1.038318	99
Es	-0.719198	0.118619	0.761551	99
Es	0.577021	1.475490	0.453730	99
Es	0.002453	0.082263	0.517630	99
Es	0.072224	-0.512778	-0.827438	99
Es	0.410378	-0.334042	0.998211	99
Es	0.922522	1.771017	1.052655	99
Es	-1.723062	-0.535291	1.085968	99
Es	1.321616	1.591883	0.555875	99
Es	-1.870289	0.530463	0.549504	99
Es	0.051633	-0.285183	-0.231255	99
Es	1.890660	2.582474	1.096209	99
Es	-0.455032	-1.978774	-0.643923	99
Es	0.653782	-0.476352	-1.017767	99
Es	-0.097406	-1.821013	-2.742194	99
Es	-0.593483	-1.908380	-1.547786	99
44
Properties=species:S:1:pos:R:3:Z:I:1 energy=-304.0815373918017 field_type=dipole dipole="0.000000 0.000000 0.000000" charge=0
C	-1.442257	0.142159	1.017834	6
C	0.002473	0.082259	0.517784	6
N	0.071813	-0.512291	-0.827876	7
N	-0.340867	-1.801420	-0.942856	7
C	-0.317357	-2.234940	-2.159146	6
C	0.577103	1.475549	0.453784	6
C	1.644653	1.891459	1.149004	6
H	-1.494037	0.623719	2.001054	1
H	-1.867377	-0.861981	1.123294	1
H	-2.085247	0.709419	0.334594	1
H	0.591623	-0.533791	1.209174	1
H	1.036503	-0.410041	-1.154906	1
H	-0.632387	-3.268170	-2.373226	1
H	-0.000417	-1.623031	-3.022076	1
H	0.071813	2.179529	-0.205246	1
H	2.181173	1.229279	1.821654	1
H	2.002793	2.912289	1.057154	1
Es	1.644728	1.891493	1.149070	99
Es	0.921547	1.771668	1.053657	99
Es	-0.719745	0.118291	0.761529	99
Es	1.323172	1.591260	0.554338	99
Es	0.232507	1.941937	0.004163	99
Es	-0.044295	-2.086513	-1.451992	99
Es	2.008099	1.448769	1.608139	99
Es	-0.530750	-2.930817	-2.312595	99
Es	-0.118356	-1.160387	-0.879320	99
Es	-1.442218	0.142168	1.017829	99
Es	0.002454	0.082263	0.517628	99
Es	0.300458	0.782805	0.474325	99
Es	0.051441	-0.284787	-0.230626	99
Es	0.410045	-0.333544	0.997857	99
Es	0.577019	1.475489	0.453733	99
Es	-0.450988	-1.978384	-0.648060	99
Es	-0.317332	-2.234965	-2.159161	99
Es	-0.340654	-1.801086	-0.943353	99
Es	-1.722845	-0.534834	1.084842	99
Es	-1.869389	0.529559	0.549530	99
Es	-1.467687	0.473901	1.690670	99
Es	0.072221	-0.512765	-0.827458	99
Es	-0.122679	-0.352724	-1.035467	99
Es	-0.596065	-1.908644	-1.547517	99
Es	0.652636	-0.477594	-1.017559	99
Es	-0.098854	-1.821170	-2.741029	99
Es	1.889859	2.582507	1.098010	99
44
Properties=species:S:1:pos:R:3:Z:I:1 energy=-304.0815373918017 field_type=dipole dipole="0.000000 0.000000 0.000000" charge=0
C	-1.442257	0.142159	1.017834	6
C	0.002473	0.082259	0.517784	6
N	0.071813	-0.512291	-0.827876	7
N	-0.340867	-1.801420	-0.942856	7
C	-0.317357	-2.234940	-2.159146	6
C	0.577103	1.475549	0.453784	6
C	1.644653	1.891459	1.149004	6
H	-1.494037	0.623719	2.001054	1
H	-1.867377	-0.861981	1.123294	1
H	-2.085247	0.709419	0.334594	1
H	0.591623	-0.533791	1.209174	1
H	1.036503	-0.410041	-1.154906	1
H	-0.632387	-3.268170	-2.373226	1
H	-0.000417	-1.623031	-3.022076	1
H	0.071813	2.179529	-0.205246	1
H	2.181173	1.229279	1.821654	1
H	2.002793	2.912289	1.057154	1
Es	1.324022	1.590960	0.553579	99
Es	-0.532198	-2.930360	-2.313448	99
Es	-0.043307	-2.086293	-1.452407	99
Es	-0.100022	-1.821211	-2.739977	99
Es	-1.467384	0.474474	1.691588	99
Es	-0.597776	-1.909019	-1.547098	99
Es	-1.722484	-0.534337	1.084378	99
Es	0.072246	-0.512787	-0.827450	99
Es	0.002454	0.082265	0.517629	99
Es	-0.317333	-2.234964	-2.159160	99
Es	0.300741	0.782812	0.473701	99
Es	-0.117583	-0.353751	-1.032005	99
Es	-0.447659	-1.978302	-0.651671	99
Es	0.920743	1.772352	1.054265	99
Es	2.007000	1.449389	1.608443	99
Es	0.577020	1.475490	0.453732	99
Es	1.644729	1.891492	1.149069	99
Es	0.409659	-0.333273	0.997471	99
Es	0.651745	-0.478443	-1.017711	99
Es	-0.340669	-1.801075	-0.943259	99
Es	0.051932	-0.285062	-0.230177	99
Es	-0.123445	-1.158846	-0.880203	99
Es	0.233865	1.940996	0.004004	99
Es	-1.869035	0.528908	0.549305	99
Es	1.889421	2.582407	1.099157	99
Es	-1.442216	0.142169	1.017826	99
Es	-0.720138	0.117909	0.761599	99
44
Properties=species:S:1:pos:R:3:Z:I:1 energy=-304.0815373918017 field_type=dipole dipole="0.000000 0.000000 0.000000" charge=0
C	-1.442257	0.142159	1.017834	6
C	0.002473	0.082259	0.517784	6
N	0.071813	-0.512291	-0.827876	7
N	-0.340867	-1.801420	-0.942856	7
C	-0.317357	-2.234940	-2.159146	6
C	0.577103	1.475549	0.453784	6
C	1.644653	1.891459	1.149004	6
H	-1.494037	0.623719	2.001054	1
H	-1.867377	-0.861981	1.123294	1
H	-2.085247	0.709419	0.334594	1
H	0.591623	-0.533791	1.209174	1
H	1.036503	-0.410041	-1.154906	1
H	-0.632387	-3.268170	-2.373226	1
H	-0.000417	-1.623031	-3.022076	1
H	0.071813	2.179529	-0.205246	1
H	2.181173	1.229279	1.821654	1
H	2.002793	2.912289	1.057154	1
Es	-0.720617	0.117787	0.761611	99
Es	-0.042446	-2.085939	-1.452841	99
Es	0.577027	1.475490	0.453723	99
Es	1.889267	2.582306	1.099813	99
Es	-0.598792	-1.909238	-1.546855	99
Es	-0.317336	-2.234964	-2.159164	99
Es	-1.466994	0.474677	1.692303	99
Es	-0.533194	-2.929958	-2.314160	99
Es	2.006198	1.449804	1.608634	99
Es	0.300783	0.782806	0.473098	99
Es	0.650996	-0.478901	-1.017927	99
Es	-0.340643	-1.801054	-0.943360	99
Es	-0.445414	-1.978224	-0.654363	99
Es	0.920206	1.772673	1.054662	99
Es	-0.128657	-1.157143	-0.881603	99
Es	0.072234	-0.512767	-0.827456	99
Es	-1.869101	0.528467	0.549031	99
Es	0.052276	-0.285092	-0.229858	99
Es	0.002454	0.082264	0.517628	99
Es	-0.112372	-0.355656	-1.028222	99
Es	0.409559	-0.333104	0.997319	99
Es	0.234697	1.940501	0.004050	99
Es	1.324599	1.590722	0.553170	99
Es	1.644726	1.891494	1.149069	99
Es	-1.442215	0.142166	1.017827	99
Es	-0.101031	-1.821302	-2.739037	99
Es	-1.721885	-0.533916	1.084088	99
44
Properties=species:S:1:pos:R:3:Z:I:1 energy=-304.0815373918017 field_type=dipole dipole="0.000000 0.000000 0.000000" charge=0
C	-1.442257	0.142159	1.017834	6
C	0.002473	0.082259	0.517784	6
N	0.071813	-0.512291	-0.827876	7
N	-0.340867	-1.801420	-0.942856	7
C	-0.317357	-2.234940	-2.159146	6
C	0.577103	1.475549	0.453784	6
C	1.644653	1.891459	1.149004	6
H	-1.494037	0.623719	2.001054	1
H	-1.867377	-0.861981	1.123294	1
H	-2.085247	0.709419	0.334594	1
H	0.591623	-0.533791	1.209174	1
H	1.036503	-0.410041	-1.154906	1
H	-0.632387	-3.268170	-2.373226	1
H	-0.000417	-1.623031	-3.022076	1
H	0.071813	2.179529	-0.205246	1
H	2.181173	1.229279	1.821654	1
H	2.002793	2.912289	1.057154	1
Es	0.409538	-0.333015	0.997318	99
Es	0.300694	0.782830	0.472594	99
Es	0.072248	-0.512792	-0.827443	99
Es	-0.041904	-2.085747	-1.453151	99
Es	-1.869149	0.528171	0.548789	99
Es	0.002454	0.082264	0.517627	99
Es	0.577020	1.475488	0.453731	99
Es	-0.340644	-1.801058	-0.943361	99
Es	0.235495	1.940201	0.003897	99
Es	0.052317	-0.285118	-0.229616	99
Es	-0.317337	-2.234958	-2.159163	99
Es	-0.720926	0.117859	0.761643	99
Es	-0.534081	-2.929591	-2.314787	99
Es	-0.101764	-1.821333	-2.738215	99
Es	-1.466660	0.474762	1.692854	99
Es	2.005826	1.450112	1.608962	99
Es	1.888815	2.582201	1.100231	99
Es	0.650405	-0.479472	-1.017849	99
Es	-1.721368	-0.533624	1.083812	99
Es	1.324936	1.590500	0.553011	99
Es	-1.442219	0.142168	1.017829	99
Es	-0.599610	-1.909575	-1.546471	99
Es	0.919899	1.772843	1.054868	99
Es	-0.443401	-1.977965	-0.656727	99
Es	-0.107181	-0.357927	-1.024674	99
Es	-0.133804	-1.154820	-0.883599	99
Es	1.644730	1.891495	1.149068	99
44
Properties=species:S:1:pos:R:3:Z:I:1 energy=-304.0815373918017 field_type=dipole dipole="0.000000 0.000000 0.000000" charge=0
C	-1.442257	0.142159	1.017834	6
C	0.002473	0.082259	0.517784	6
N	0.071813	-0.512291	-0.827876	7
N	-0.340867	-1.801420	-0.942856	7
C	-0.317357	-2.234940	-2.159146	6
C	0.577103	1.475549	0.453784	6
C	1.644653	1.891459	1.149004	6
H	-1.494037	0.623719	2.001054	1
H	-1.867377	-0.861981	1.123294	1
H	-2.085247	0.709419	0.334594	1
H	0.591623	-0.533791	1.209174	1
H	1.036503	-0.410041	-1.154906	1
H	-0.632387	-3.268170	-2.373226	1
H	-0.000417	-1.623031	-3.022076	1
H	0.071813	2.179529	-0.205246	1
H	2.181173	1.229279	1.821654	1
H	2.002793	2.912289	1.057154	1
Es	-1.466447	0.474913	1.693158	99
Es	0.072249	-0.512791	-0.827451	99
Es	-1.442220	0.142165	1.017830	99
Es	-0.340643	-1.801053	-0.943360	99
Es	-1.721112	-0.533298	1.083733	99
Es	1.888723	2.582162	1.100704	99
Es	0.236260	1.939900	0.004056	99
Es	-1.869132	0.527922	0.548564	99
Es	-0.441625	-1.978150	-0.658920	99
Es	-0.103699	-0.359502	-1.022217	99
Es	1.644729	1.891494	1.149069	99
Es	0.002453	0.082263	0.517628	99
Es	0.300537	0.782741	0.472067	99
Es	0.919666	1.773091	1.054935	99
Es	-0.041792	-2.085039	-1.453579	99
Es	-0.721125	0.117781	0.761700	99
Es	0.052945	-0.285437	-0.229400	99
Es	0.577023	1.475488	0.453728	99
Es	0.409454	-0.332908	0.997278	99
Es	-0.534679	-2.929279	-2.315230	99
Es	2.005207	1.450325	1.609107	99
Es	-0.317332	-2.234964	-2.159160	99
Es	-0.137593	-1.153031	-0.884348	99
Es	1.325285	1.590332	0.552815	99
Es	0.649681	-0.480035	-1.017642	99
Es	-0.600190	-1.909767	-1.546280	99
Es	-0.102298	-1.821426	-2.737603	99
44
Properties=species:S:1:pos:R:3:Z:I:1 energy=-304.0815373918017 field_type=dipole dipole="0.000000 0.000000 0.000000" charge=0
C	-1.442257	0.142159	1.017834	6
C	0.002473	0.082259	0.517784	6
N	0.071813	-0.512291	-0.827876	7
N	-0.340867	-1.801420	-0.942856	7
C	-0.317357	-2.234940	-2.159146	6
C	0.577103	1.475549	0.453784	6
C	1.644653	1.891459	1.149004	6
H	-1.494037	0.623719	2.001054	1
H	-1.867377	-0.861981	1.123294	1
H	-2.085247	0.709419	0.334594	1
H	0.591623	-0.533791	1.209174	1
H	1.036503	-0.410041	-1.154906	1
H	-0.632387	-3.268170	-2.373226	1
H	-0.000417	-1.623031	-3.022076	1
H	0.071813	2.179529	-0.205246	1
H	2.181173	1.229279	1.821654	1
H	2.002793	2.912289	1.057154	1
Es	2.004941	1.450440	1.609298	99
Es	-0.102913	-1.821463	-2.736845	99
Es	-0.535159	-2.928990	-2.315836	99
Es	0.577023	1.475487	0.453728	99
Es	0.072243	-0.512797	-0.827424	99
Es	0.919511	1.773241	1.054993	99
Es	1.888529	2.582093	1.100949	99
Es	0.409319	-0.332908	0.997150	99
Es	-0.317339	-2.234963	-2.159164	99
Es	0.002454	0.082263	0.517627	99
Es	-1.466119	0.474966	1.693454	99
Es	0.300544	0.782794	0.471791	99
Es	1.644729	1.891494	1.149070	99
Es	0.236831	1.939716	0.004079	99
Es	-0.721382	0.117682	0.761754	99
Es	-0.100055	-0.361577	-1.019648	99
Es	0.053216	-0.285544	-0.229269	99
Es	-0.440570	-1.977924	-0.660507	99
Es	-1.442218	0.142168	1.017829	99
Es	-0.141255	-1.150868	-0.885952	99
Es	-0.041450	-2.084906	-1.453808	99
Es	-0.600430	-1.909937	-1.546082	99
Es	-1.869320	0.527691	0.548284	99
Es	-0.340644	-1.801055	-0.943361	99
Es	-1.720671	-0.533026	1.083715	99
Es	0.649133	-0.480455	-1.017428	99
Es	1.325381	1.590278	0.552783	99
44
Properties=species:S:1:pos:R:3:Z:I:1 energy=-304.0815373918017 field_type=dipole dipole="0.000000 0.000000 0.000000" charge=0
C	-1.442257	0.142159	1.017834	6
C	0.002473	0.082259	0.517784	6
N	0.071813	-0.512291	-0.827876	7
N	-0.340867	-1.801420	-0.942856	7
C	-0.317357	-2.234940	-2.159146	6
C	0.577103	1.475549	0.453784	6
C	1.644653	1.891459	1.149004	6
H	-1.494037	0.623719	2.001054	1
H	-1.867377	-0.861981	1.123294	1
H	-2.085247	0.709419	0.334594	1
H	0.591623	-0.533791	1.209174	1
H	1.036503	-0.410041	-1.154906	1
H	-0.632387	-3.268170	-2.373226	1
H	-0.000417	-1.623031	-3.022076	1
H	0.071813	2.179529	-0.205246	1
H	2.181173	1.229279	1.821654	1
H	2.002793	2.912289	1.057154	1
Es	0.409410	-0.332719	0.997006	99
Es	-0.721730	0.117523	0.761827	99
Es	0.577023	1.475489	0.453728	99
Es	-0.144261	-1.149188	-0.886522	99
Es	0.072263	-0.512813	-0.827434	99
Es	0.300202	0.782881	0.471325	99
Es	0.002454	0.082263	0.517630	99
Es	-1.720252	-0.532825	1.083756	99
Es	-0.317342	-2.234962	-2.159164	99
Es	0.053606	-0.285631	-0.229121	99
Es	0.237402	1.939530	0.004295	99
Es	2.004640	1.450597	1.609452	99
Es	1.888433	2.582060	1.101110	99
Es	-0.439535	-1.978048	-0.662003	99
Es	-1.442218	0.142168	1.017829	99
Es	1.325581	1.590124	0.552716	99
Es	0.648533	-0.481165	-1.016890	99
Es	-0.103294	-1.821492	-2.736365	99
Es	-0.097365	-0.362979	-1.018129	99
Es	-0.535656	-2.928702	-2.316196	99
Es	0.919346	1.773375	1.055057	99
Es	-0.041257	-2.084458	-1.454183	99
Es	1.644729	1.891495	1.149071	99
Es	-0.340646	-1.801060	-0.943359	99
Es	-1.869557	0.527415	0.548091	99
Es	-0.600411	-1.910050	-1.546012	99
Es	-1.465770	0.475071	1.693665	99
44
Properties=species:S:1:pos:R:3:Z:I:1 energy=-304.0815373918017 field_type=dipole dipole="0.000000 0.000000 0.000000" charge=0
C	-1.442257	0.142159	1.017834	6
C	0.002473	0.082259	0.517784	6
N	0.071813	-0.512291	-0.827876	7
N	-0.340867	-1.801420	-0.942856	7
C	-0.317357	-2.234940	-2.159146	6
C	0.577103	1.475549	0.453784	6
C	1.644653	1.891459	1.149004	6
H	-1.494037	0.623719	2.001054	1
H	-1.867377	-0.861981	1.123294	1
H	-2.085247	0.709419	0.334594	1
H	0.591623	-0.533791	1.209174	1
H	1.036503	-0.410041	-1.154906	1
H	-0.632387	-3.268170	-2.373226	1
H	-0.000417	-1.623031	-3.022076	1
H	0.071813	2.179529	-0.205246	1
H	2.181173	1.229279	1.821654	1
H	2.002793	2.912289	1.057154	1
Es	-0.103743	-1.821486	-2.735955	99
Es	-0.094193	-0.365976	-1.014956	99
Es	-0.041138	-2.084172	-1.454377	99
Es	-0.438535	-1.977938	-0.662936	99
Es	-0.147542	-1.146640	-0.888691	99
Es	-1.719948	-0.532616	1.083761	99
Es	2.004445	1.450604	1.609511	99
Es	-1.442217	0.142168	1.017829	99
Es	0.409353	-0.332861	0.997196	99
Es	-0.340655	-1.801056	-0.943320	99
Es	1.325505	1.590138	0.552794	99
Es	-0.317344	-2.234960	-2.159163	99
Es	-0.535891	-2.928527	-2.316516	99
Es	0.648054	-0.480969	-1.017366	99
Es	-1.465571	0.475071	1.693835	99
Es	0.300202	0.782862	0.471128	99
Es	0.053963	-0.285718	-0.228976	99
Es	1.888304	2.582126	1.101341	99
Es	0.919447	1.773308	1.054994	99
Es	1.644727	1.891494	1.149072	99
Es	0.072241	-0.512750	-0.827469	99
Es	0.002454	0.082264	0.517629	99
Es	-0.600810	-1.910361	-1.545732	99
Es	0.577024	1.475489	0.453727	99
Es	0.237651	1.939511	0.004250	99
Es	-1.869678	0.527293	0.547850	99
Es	-0.721777	0.117601	0.761721	99
44
Properties=species:S:1:pos:R:3:Z:I:1 energy=-304.0815373918017 field_type=dipole dipole="0.000000 0.000000 0.000000" charge=0
C	-1.442257	0.142159	1.017834	6
C	0.002473	0.082259	0.517784	6
N	0.071813	-0.512291	-0.827876	7
N	-0.340867	-1.801420	-0.942856	7
C	-0.317357	-2.234940	-2.159146	6
C	0.577103	1.475549	0.453784	6
C	1.644653	1.891459	1.149004	6
H	-1.494037	0.623719	2.001054	1
H	-1.867377	-0.861981	1.123294	1
H	-2.085247	0.709419	0.334594	1
H	0.591623	-0.533791	1.209174	1
H	1.036503	-0.410041	-1.154906	1
H	-0.632387	-3.268170	-2.373226	1
H	-0.000417	-1.623031	-3.022076	1
H	0.071813	2.179529	-0.205246	1
H	2.181173	1.229279	1.821654	1
H	2.002793	2.912289	1.057154	1
Es	-0.721991	0.117535	0.761836	99
Es	0.237685	1.939383	0.004199	99
Es	0.919378	1.773353	1.054961	99
Es	0.300461	0.782940	0.471204	99
Es	1.644726	1.891495	1.149073	99
Es	0.409174	-0.332817	0.997054	99
Es	-0.340643	-1.801061	-0.943370	99
Es	0.002452	0.082263	0.517626	99
Es	2.004236	1.450692	1.609665	99
Es	0.072237	-0.512776	-0.827444	99
Es	0.647656	-0.481149	-1.017242	99
Es	-0.317340	-2.234962	-2.159163	99
Es	-1.465177	0.475101	1.693941	99
Es	1.888117	2.582046	1.101562	99
Es	1.325777	1.590177	0.552594	99
Es	-0.600792	-1.910435	-1.545701	99
Es	-0.041061	-2.083969	-1.454528	99
Es	-0.536085	-2.928346	-2.316919	99
Es	-1.442216	0.142167	1.017828	99
Es	-0.091838	-0.367834	-1.013098	99
Es	-0.104100	-1.821576	-2.735438	99
Es	-0.149922	-1.144675	-0.890172	99
Es	-0.438133	-1.977916	-0.663517	99
Es	0.577021	1.475488	0.453731	99
Es	0.054223	-0.285931	-0.228926	99
Es	-1.869704	0.527318	0.547695	99
Es	-1.719814	-0.532614	1.083730	99
44
Properties=species:S:1:pos:R:3:Z:I:1 energy=-304.0815373918017 field_type=dipole dipole="0.000000 0.000000 0.000000" charge=0
C	-1.442257	0.142159	1.017834	6
C	0.002473	0.082259	0.517784	6
N	0.071813	-0.512291	-0.827876	7
N	-0.340867	-1.801420	-0.942856	7
C	-0.317357	-2.234940	-2.159146	6
C	0.577103	1.475549	0.453784	6
C	1.644653	1.891459	1.149004	6
H	-1.494037	0.623719	2.001054	1
H	-1.867377	-0.861981	1.123294	1
H	-2.085247	0.709419	0.334594	1
H	0.591623	-0.533791	1.209174	1
H	1.036503	-0.410041	-1.154906	1
H	-0.632387	-3.268170	-2.373226	1
H	-0.000417	-1.623031	-3.022076	1
H	0.071813	2.179529	-0.205246	1
H	2.181173	1.229279	1.821654	1
H	2.002793	2.912289	1.057154	1
Es	-0.536280	-2.928214	-2.317142	99
Es	-1.719635	-0.532446	1.083758	99
Es	1.888133	2.582110	1.101696	99
Es	-0.041206	-2.083592	-1.454682	99
Es	0.002454	0.082263	0.517629	99
Es	-0.089551	-0.369543	-1.011663	99
Es	-0.104308	-1.821567	-2.735168	99
Es	0.300133	0.782974	0.470727	99
Es	0.409228	-0.332862	0.997181	99
Es	2.003930	1.450759	1.609734	99
Es	-0.317342	-2.234962	-2.159164	99
Es	-0.437326	-1.977966	-0.664392	99
Es	-0.600975	-1.910601	-1.545566	99
Es	-1.869744	0.527206	0.547488	99
Es	-0.722040	0.117485	0.761831	99
Es	0.238160	1.939408	0.004367	99
Es	0.054209	-0.285981	-0.228859	99
Es	0.072249	-0.512794	-0.827434	99
Es	0.647372	-0.481609	-1.016770	99
Es	0.919465	1.773324	1.054903	99
Es	1.644728	1.891499	1.149071	99
Es	-1.465029	0.475154	1.694038	99
Es	-0.152192	-1.142786	-0.891333	99
Es	0.577024	1.475489	0.453728	99
Es	-0.340639	-1.801042	-0.943364	99
Es	-1.442218	0.142166	1.017829	99
Es	1.325728	1.590025	0.552738	99
