41
Properties=species:S:1:pos:R:3:Z:I:1 energy=-302.87068265133064 field_type=dipole dipole="0.000000 0.000000 0.000000" charge=0
C	-1.013566	0.111405	1.403333	6
C	0.333754	0.194595	0.683543	6
N	0.210004	-0.286325	-0.702887	7
N	-0.100646	-1.600215	-0.863787	7
C	-0.295616	-1.928455	-2.097558	6
C	0.815773	1.555765	0.683543	6
C	1.213054	2.677665	0.683543	6
H	-0.930596	0.489025	2.429313	1
H	-1.372496	-0.921875	1.462203	1
H	-1.780956	0.708265	0.895813	1
H	1.055224	-0.440205	1.212873	1
H	1.081874	-0.056355	-1.186607	1
H	-0.555646	-2.969035	-2.347347	1
H	-0.223987	-1.218135	-2.939757	1
H	1.563833	3.683885	0.683783	1
Es	-0.047131	-0.131958	-0.858215	99
Es	-1.013509	0.111414	1.403320	99
Es	-0.946089	0.368148	2.098302	99
Es	0.210522	-0.286803	-0.702585	99
Es	0.741134	-0.173912	-0.986823	99
Es	0.702127	2.244101	0.563970	99
Es	0.333745	0.194676	0.683394	99
Es	-0.328289	0.169078	1.035590	99
Es	-0.460601	-1.682331	-1.410380	99
Es	1.213145	2.677913	0.683552	99
Es	0.828922	-0.218103	1.047134	99
Es	-0.295582	-1.928475	-2.097570	99
Es	-0.137336	-1.813581	-0.560980	99
Es	-1.525874	0.517512	1.054902	99
Es	-0.100572	-1.599814	-0.864241	99
Es	0.585878	0.902300	0.670687	99
Es	1.442860	3.334295	0.684324	99
Es	-0.468288	-2.628378	-2.272589	99
Es	1.278295	2.031864	0.448329	99
Es	-1.246921	-0.586761	1.439219	99
Es	0.083183	-0.945700	-0.779021	99
Es	1.077608	2.091859	1.036834	99
Es	0.103057	-1.806900	-1.443900	99
Es	0.283851	-0.100314	-0.087930	99
Es	0.815688	1.555514	0.683556	99
Es	-0.239988	-1.447931	-2.668228	99
41
Properties=species:S:1:pos:R:3:Z:I:1 energy=-302.87068265133064 field_type=dipole dipole="0.000000 0.000000 0.000000" charge=0
C	-1.013566	0.111405	1.403333	6
C	0.333754	0.194595	0.683543	6
N	0.210004	-0.286325	-0.702887	7
N	-0.100646	-1.600215	-0.863787	7
C	-0.295616	-1.928455	-2.097558	6
C	0.815773	1.555765	0.683543	6
C	1.213054	2.677665	0.683543	6
H	-0.930596	0.489025	2.429313	1
H	-1.372496	-0.921875	1.462203	1
H	-1.780956	0.708265	0.895813	1
H	1.055224	-0.440205	1.212873	1
H	1.081874	-0.056355	-1.186607	1
H	-0.555646	-2.969035	-2.347347	1
H	-0.223987	-1.218135	-2.939757	1
H	1.563833	3.683885	0.683783	1
Es	0.736547	-0.167839	-0.992354	99
Es	-0.136668	-1.814533	-0.564453	99
Es	-0.239995	-1.447519	-2.666834	99
Es	-0.034087	-0.140040	-0.850638	99
Es	-0.457341	-1.683402	-1.410417	99
Es	0.777625	2.205088	0.923179	99
Es	-0.328380	0.168854	1.035148	99
Es	1.330097	2.022822	0.794050	99
Es	-0.469661	-2.630139	-2.272965	99
Es	-0.295571	-1.928481	-2.097576	99
Es	0.949706	2.139984	0.330534	99
Es	-1.521426	0.516505	1.055824	99
Es	1.443153	3.335835	0.687795	99
Es	-1.013510	0.111415	1.403318	99
Es	0.815687	1.555507	0.683546	99
Es	0.825445	-0.218071	1.046272	99
Es	-1.248624	-0.590510	1.437234	99
Es	0.077549	-0.945820	-0.780659	99
Es	0.281144	-0.097553	-0.086408	99
Es	-0.945437	0.371433	2.098839	99
Es	0.099436	-1.806017	-1.443324	99
Es	-0.100568	-1.599793	-0.864252	99
Es	0.587277	0.904210	0.670415	99
Es	1.213163	2.677914	0.683560	99
Es	0.210525	-0.286810	-0.702579	99
Es	0.333745	0.194678	0.683396	99
41
Properties=species:S:1:pos:R:3:Z:I:1 energy=-302.87068265133064 field_type=dipole dipole="0.000000 0.000000 0.000000" charge=0
C	-1.013566	0.111405	1.403333	6
C	0.333754	0.194595	0.683543	6
N	0.210004	-0.286325	-0.702887	7
N	-0.100646	-1.600215	-0.863787	7
C	-0.295616	-1.928455	-2.097558	6
C	0.815773	1.555765	0.683543	6
C	1.213054	2.677665	0.683543	6
H	-0.930596	0.489025	2.429313	1
H	-1.372496	-0.921875	1.462203	1
H	-1.780956	0.708265	0.895813	1
H	1.055224	-0.440205	1.212873	1
H	1.081874	-0.056355	-1.186607	1
H	-0.555646	-2.969035	-2.347347	1
H	-0.223987	-1.218135	-2.939757	1
H	1.563833	3.683885	0.683783	1
Es	-0.135334	-1.814873	-0.566868	99
Es	0.279332	-0.095710	-0.085848	99
Es	0.723421	2.236849	0.546851	99
Es	0.586998	0.905916	0.668614	99
Es	-1.518196	0.515374	1.056543	99
Es	0.333746	0.194679	0.683400	99
Es	0.732364	-0.162825	-0.997188	99
Es	-0.295582	-1.928478	-2.097578	99
Es	1.062632	2.095415	1.043733	99
Es	0.210547	-0.286831	-0.702569	99
Es	-0.944678	0.373955	2.099076	99
Es	-0.100566	-1.599789	-0.864271	99
Es	-0.470497	-2.630856	-2.273113	99
Es	-0.456182	-1.684319	-1.410359	99
Es	0.823297	-0.217581	1.045553	99
Es	1.213153	2.677921	0.683554	99
Es	-0.328823	0.168559	1.035165	99
Es	1.271621	2.035237	0.458938	99
Es	0.815682	1.555503	0.683538	99
Es	-0.240392	-1.447291	-2.665917	99
Es	-1.249537	-0.592491	1.435609	99
Es	-0.025080	-0.147556	-0.844304	99
Es	1.443594	3.336253	0.689250	99
Es	0.097371	-1.805245	-1.442963	99
Es	0.074448	-0.945516	-0.781514	99
Es	-1.013506	0.111414	1.403316	99
41
Properties=species:S:1:pos:R:3:Z:I:1 energy=-302.87068265133064 field_type=dipole dipole="0.000000 0.000000 0.000000" charge=0
C	-1.013566	0.111405	1.403333	6
C	0.333754	0.194595	0.683543	6
N	0.210004	-0.286325	-0.702887	7
N	-0.100646	-1.600215	-0.863787	7
C	-0.295616	-1.928455	-2.097558	6
C	0.815773	1.555765	0.683543	6
C	1.213054	2.677665	0.683543	6
H	-0.930596	0.489025	2.429313	1
H	-1.372496	-0.921875	1.462203	1
H	-1.780956	0.708265	0.895813	1
H	1.055224	-0.440205	1.212873	1
H	1.081874	-0.056355	-1.186607	1
H	-0.555646	-2.969035	-2.347347	1
H	-0.223987	-1.218135	-2.939757	1
H	1.563833	3.683885	0.683783	1
Es	-0.295580	-1.928479	-2.097579	99
Es	-0.240516	-1.447204	-2.665330	99
Es	-1.013508	0.111413	1.403318	99
Es	1.213144	2.677924	0.683545	99
Es	-0.134083	-1.814668	-0.567958	99
Es	0.586867	0.906573	0.669695	99
Es	0.096035	-1.804817	-1.442580	99
Es	-0.455823	-1.685314	-1.410044	99
Es	0.821881	-0.217278	1.045094	99
Es	-1.516277	0.514789	1.057143	99
Es	-0.944422	0.375246	2.098658	99
Es	-0.328703	0.168528	1.035168	99
Es	-1.250233	-0.593539	1.434847	99
Es	1.119103	2.079742	0.338549	99
Es	0.210529	-0.286812	-0.702569	99
Es	-0.019099	-0.152572	-0.840720	99
Es	-0.100565	-1.599781	-0.864272	99
Es	0.815687	1.555501	0.683538	99
Es	1.216747	2.049643	0.971781	99
Es	0.333742	0.194680	0.683394	99
Es	-0.471055	-2.631236	-2.273130	99
Es	0.722624	2.237967	0.737717	99
Es	0.730327	-0.159862	-0.999859	99
Es	0.277247	-0.094311	-0.085638	99
Es	1.443258	3.336643	0.690343	99
Es	0.072510	-0.945062	-0.782460	99
41
Properties=species:S:1:pos:R:3:Z:I:1 energy=-302.87068265133064 field_type=dipole dipole="0.000000 0.000000 0.000000" charge=0
C	-1.013566	0.111405	1.403333	6
C	0.333754	0.194595	0.683543	6
N	0.210004	-0.286325	-0.702887	7
N	-0.100646	-1.600215	-0.863787	7
C	-0.295616	-1.928455	-2.097558	6
C	0.815773	1.555765	0.683543	6
C	1.213054	2.677665	0.683543	6
H	-0.930596	0.489025	2.429313	1
H	-1.372496	-0.921875	1.462203	1
H	-1.780956	0.708265	0.895813	1
H	1.055224	-0.440205	1.212873	1
H	1.081874	-0.056355	-1.186607	1
H	-0.555646	-2.969035	-2.347347	1
H	-0.223987	-1.218135	-2.939757	1
H	1.563833	3.683885	0.683783	1
Es	0.727028	-0.155938	-1.003452	99
Es	-0.100565	-1.599777	-0.864276	99
Es	1.213147	2.677927	0.683554	99
Es	1.143673	2.071724	0.349667	99
Es	0.095486	-1.804814	-1.442207	99
Es	0.276875	-0.093910	-0.085512	99
Es	-1.514776	0.514189	1.057455	99
Es	0.820846	-0.217023	1.044756	99
Es	-1.013505	0.111412	1.403315	99
Es	1.188457	2.057249	0.994809	99
Es	-0.132398	-1.813815	-0.569939	99
Es	0.586928	0.907162	0.669492	99
Es	0.726087	2.238414	0.703793	99
Es	-0.014920	-0.157309	-0.836435	99
Es	-0.240974	-1.447139	-2.664769	99
Es	0.071848	-0.944863	-0.782537	99
Es	-1.250506	-0.594318	1.434239	99
Es	0.210582	-0.286863	-0.702553	99
Es	0.333746	0.194678	0.683395	99
Es	-0.456432	-1.686436	-1.409466	99
Es	-0.471574	-2.631447	-2.273152	99
Es	-0.295585	-1.928478	-2.097578	99
Es	-0.943823	0.376571	2.098342	99
Es	0.815696	1.555498	0.683543	99
Es	1.443402	3.336743	0.690999	99
Es	-0.328909	0.168278	1.035170	99
41
Properties=species:S:1:pos:R:3:Z:I:1 energy=-302.87068265133064 field_type=dipole dipole="0.000000 0.000000 0.000000" charge=0
C	-1.013566	0.111405	1.403333	6
C	0.333754	0.194595	0.683543	6
N	0.210004	-0.286325	-0.702887	7
N	-0.100646	-1.600215	-0.863787	7
C	-0.295616	-1.928455	-2.097558	6
C	0.815773	1.555765	0.683543	6
C	1.213054	2.677665	0.683543	6
H	-0.930596	0.489025	2.429313	1
H	-1.372496	-0.921875	1.462203	1
H	-1.780956	0.708265	0.895813	1
H	1.055224	-0.440205	1.212873	1
H	1.081874	-0.056355	-1.186607	1
H	-0.555646	-2.969035	-2.347347	1
H	-0.223987	-1.218135	-2.939757	1
H	1.563833	3.683885	0.683783	1
Es	0.819778	-0.216993	1.044928	99
Es	0.815685	1.555503	0.683536	99
Es	-0.241191	-1.447199	-2.664295	99
Es	0.588405	0.907114	0.669279	99
Es	-0.100571	-1.599781	-0.864247	99
Es	1.443169	3.336855	0.692005	99
Es	0.274909	-0.092191	-0.085556	99
Es	0.929390	2.142072	1.031581	99
Es	0.071534	-0.944793	-0.782415	99
Es	-0.329017	0.168551	1.034851	99
Es	-1.013507	0.111414	1.403317	99
Es	0.333744	0.194681	0.683398	99
Es	1.310148	2.032424	0.621399	99
Es	0.817211	2.193374	0.395170	99
Es	0.210619	-0.286931	-0.702556	99
Es	-0.010717	-0.161566	-0.834105	99
Es	-0.132876	-1.812181	-0.571254	99
Es	0.096018	-1.805840	-1.442007	99
Es	-1.250462	-0.594947	1.433424	99
Es	-0.943456	0.377860	2.098178	99
Es	-1.513353	0.513415	1.057716	99
Es	-0.295592	-1.928475	-2.097579	99
Es	0.724384	-0.153726	-1.005363	99
Es	-0.471145	-2.631814	-2.273301	99
Es	-0.456417	-1.687041	-1.409009	99
Es	1.213145	2.677929	0.683559	99
41
Properties=species:S:1:pos:R:3:Z:I:1 energy=-302.87068265133064 field_type=dipole dipole="0.000000 0.000000 0.000000" charge=0
C	-1.013566	0.111405	1.403333	6
C	0.333754	0.194595	0.683543	6
N	0.210004	-0.286325	-0.702887	7
N	-0.100646	-1.600215	-0.863787	7
C	-0.295616	-1.928455	-2.097558	6
C	0.815773	1.555765	0.683543	6
C	1.213054	2.677665	0.683543	6
H	-0.930596	0.489025	2.429313	1
H	-1.372496	-0.921875	1.462203	1
H	-1.780956	0.708265	0.895813	1
H	1.055224	-0.440205	1.212873	1
H	1.081874	-0.056355	-1.186607	1
H	-0.555646	-2.969035	-2.347347	1
H	-0.223987	-1.218135	-2.939757	1
H	1.563833	3.683885	0.683783	1
Es	0.274143	-0.091710	-0.085543	99
Es	-1.512485	0.513151	1.057666	99
Es	0.095577	-1.805834	-1.441711	99
Es	1.311430	2.033042	0.652828	99
Es	-0.131505	-1.811562	-0.572258	99
Es	-1.013507	0.111413	1.403318	99
Es	0.842390	2.182651	0.375130	99
Es	-0.008143	-0.164111	-0.832147	99
Es	-0.456697	-1.688056	-1.408506	99
Es	1.443091	3.336944	0.692331	99
Es	0.819058	-0.217146	1.045058	99
Es	0.210672	-0.286970	-0.702534	99
Es	-0.295586	-1.928478	-2.097579	99
Es	-1.250479	-0.595389	1.433208	99
Es	-0.329122	0.168559	1.034748	99
Es	0.722407	-0.151902	-1.006976	99
Es	-0.942797	0.378784	2.097756	99
Es	0.588436	0.907308	0.669708	99
Es	0.815687	1.555498	0.683537	99
Es	-0.471510	-2.631908	-2.273250	99
Es	0.071374	-0.944711	-0.782693	99
Es	1.213150	2.677928	0.683560	99
Es	0.902877	2.152255	1.019824	99
Es	-0.241812	-1.446953	-2.663924	99
Es	-0.100554	-1.599762	-0.864292	99
Es	0.333741	0.194675	0.683394	99
41
Properties=species:S:1:pos:R:3:Z:I:1 energy=-302.87068265133064 field_type=dipole dipole="0.000000 0.000000 0.000000" charge=0
C	-1.013566	0.111405	1.403333	6
C	0.333754	0.194595	0.683543	6
N	0.210004	-0.286325	-0.702887	7
N	-0.100646	-1.600215	-0.863787	7
C	-0.295616	-1.928455	-2.097558	6
C	0.815773	1.555765	0.683543	6
C	1.213054	2.677665	0.683543	6
H	-0.930596	0.489025	2.429313	1
H	-1.372496	-0.921875	1.462203	1
H	-1.780956	0.708265	0.895813	1
H	1.055224	-0.440205	1.212873	1
H	1.081874	-0.056355	-1.186607	1
H	-0.555646	-2.969035	-2.347347	1
H	-0.223987	-1.218135	-2.939757	1
H	1.563833	3.683885	0.683783	1
Es	-1.511281	0.512140	1.058310	99
Es	-0.471446	-2.632039	-2.273282	99
Es	-0.241618	-1.447058	-2.663710	99
Es	0.210428	-0.286736	-0.702614	99
Es	1.213146	2.677932	0.683562	99
Es	-1.250807	-0.595580	1.432700	99
Es	0.588498	0.907550	0.669438	99
Es	0.272793	-0.090646	-0.085548	99
Es	-1.013505	0.111413	1.403317	99
Es	-0.131696	-1.809758	-0.573452	99
Es	0.945435	2.136296	1.035466	99
Es	0.070879	-0.944499	-0.782908	99
Es	-0.100559	-1.599766	-0.864277	99
Es	0.719334	-0.148502	-1.010117	99
Es	-0.295584	-1.928479	-2.097579	99
Es	1.302262	2.034917	0.610267	99
Es	-0.329304	0.168563	1.034623	99
Es	-0.003107	-0.169338	-0.828467	99
Es	-0.942790	0.379833	2.097570	99
Es	1.442968	3.337034	0.692549	99
Es	0.818398	-0.216651	1.044693	99
Es	-0.457321	-1.688556	-1.407961	99
Es	0.809176	2.196602	0.402393	99
Es	0.815686	1.555497	0.683545	99
Es	0.333741	0.194680	0.683393	99
Es	0.096107	-1.807133	-1.441258	99
41
Properties=species:S:1:pos:R:3:Z:I:1 energy=-302.87068265133064 field_type=dipole dipole="0.000000 0.000000 0.000000" charge=0
C	-1.013566	0.111405	1.403333	6
C	0.333754	0.194595	0.683543	6
N	0.210004	-0.286325	-0.702887	7
N	-0.100646	-1.600215	-0.863787	7
C	-0.295616	-1.928455	-2.097558	6
C	0.815773	1.555765	0.683543	6
C	1.213054	2.677665	0.683543	6
H	-0.930596	0.489025	2.429313	1
H	-1.372496	-0.921875	1.462203	1
H	-1.780956	0.708265	0.895813	1
H	1.055224	-0.440205	1.212873	1
H	1.081874	-0.056355	-1.186607	1
H	-0.555646	-2.969035	-2.347347	1
H	-0.223987	-1.218135	-2.939757	1
H	1.563833	3.683885	0.683783	1
Es	-0.471711	-2.632075	-2.273255	99
Es	0.210620	-0.286908	-0.702543	99
Es	0.717824	-0.147229	-1.011300	99
Es	-0.242168	-1.446968	-2.663390	99
Es	-0.100561	-1.599764	-0.864290	99
Es	1.213151	2.677928	0.683560	99
Es	0.826698	2.189076	0.387422	99
Es	0.817885	-0.216586	1.044677	99
Es	-0.001263	-0.171081	-0.827188	99
Es	1.442848	3.337112	0.692724	99
Es	-1.510797	0.512105	1.058183	99
Es	0.096069	-1.807028	-1.441098	99
Es	1.304108	2.035207	0.631559	99
Es	-0.942312	0.380333	2.097187	99
Es	-1.013508	0.111413	1.403318	99
Es	0.272033	-0.090323	-0.085566	99
Es	-0.458152	-1.689666	-1.407174	99
Es	-1.250687	-0.595878	1.432577	99
Es	-0.295579	-1.928480	-2.097580	99
Es	0.070691	-0.944414	-0.782979	99
Es	-0.130123	-1.808991	-0.574545	99
Es	0.588452	0.907659	0.669930	99
Es	0.333748	0.194678	0.683396	99
Es	0.815693	1.555498	0.683543	99
Es	0.926089	2.143581	1.028775	99
Es	-0.329215	0.168517	1.034707	99
41
Properties=species:S:1:pos:R:3:Z:I:1 energy=-302.87068265133064 field_type=dipole dipole="0.000000 0.000000 0.000000" charge=0
C	-1.013566	0.111405	1.403333	6
C	0.333754	0.194595	0.683543	6
N	0.210004	-0.286325	-0.702887	7
N	-0.100646	-1.600215	-0.863787	7
C	-0.295616	-1.928455	-2.097558	6
C	0.815773	1.555765	0.683543	6
C	1.213054	2.677665	0.683543	6
H	-0.930596	0.489025	2.429313	1
H	-1.372496	-0.921875	1.462203	1
H	-1.780956	0.708265	0.895813	1
H	1.055224	-0.440205	1.212873	1
H	1.081874	-0.056355	-1.186607	1
H	-0.555646	-2.969035	-2.347347	1
H	-0.223987	-1.218135	-2.939757	1
H	1.563833	3.683885	0.683783	1
Es	-0.472308	-2.632010	-2.273003	99
Es	-1.013506	0.111413	1.403317	99
Es	-0.242192	-1.446656	-2.663384	99
Es	-0.100560	-1.599748	-0.864290	99
Es	-0.128536	-1.809405	-0.574641	99
Es	0.333744	0.194681	0.683396	99
Es	1.213147	2.677930	0.683556	99
Es	-0.458267	-1.690341	-1.406880	99
Es	0.094824	-1.806411	-1.440928	99
Es	-0.295574	-1.928481	-2.097580	99
Es	0.817736	-0.216020	1.043968	99
Es	0.714522	-0.143027	-1.015101	99
Es	0.815690	1.555496	0.683538	99
Es	-0.329219	0.168329	1.034875	99
Es	-1.251306	-0.595868	1.432604	99
Es	0.003594	-0.175617	-0.822945	99
Es	1.222371	2.048178	0.966685	99
Es	0.210588	-0.286866	-0.702547	99
Es	0.069513	-0.943995	-0.783889	99
Es	0.271954	-0.090525	-0.085463	99
Es	1.443021	3.337152	0.692343	99
Es	0.743592	2.230818	0.748189	99
Es	1.092074	2.088486	0.332856	99
Es	-0.942536	0.380739	2.096887	99
Es	-1.510161	0.511509	1.058835	99
Es	0.587630	0.907955	0.670254	99
41
Properties=species:S:1:pos:R:3:Z:I:1 energy=-302.87068265133064 field_type=dipole dipole="0.000000 0.000000 0.000000" charge=0
C	-1.013566	0.111405	1.403333	6
C	0.333754	0.194595	0.683543	6
N	0.210004	-0.286325	-0.702887	7
N	-0.100646	-1.600215	-0.863787	7
C	-0.295616	-1.928455	-2.097558	6
C	0.815773	1.555765	0.683543	6
C	1.213054	2.677665	0.683543	6
H	-0.930596	0.489025	2.429313	1
H	-1.372496	-0.921875	1.462203	1
H	-1.780956	0.708265	0.895813	1
H	1.055224	-0.440205	1.212873	1
H	1.081874	-0.056355	-1.186607	1
H	-0.555646	-2.969035	-2.347347	1
H	-0.223987	-1.218135	-2.939757	1
H	1.563833	3.683885	0.683783	1
Es	-0.100559	-1.599763	-0.864271	99
Es	-1.013506	0.111413	1.403318	99
Es	0.817223	-0.216110	1.044067	99
Es	0.713583	-0.142309	-1.015719	99
Es	-0.459179	-1.691436	-1.406063	99
Es	1.116607	2.080200	0.341659	99
Es	1.199703	2.054307	0.986002	99
Es	1.213148	2.677930	0.683557	99
Es	-0.329264	0.168456	1.034646	99
Es	0.741427	2.233043	0.720303	99
Es	-1.251490	-0.596005	1.432507	99
Es	-0.243072	-1.446623	-2.662997	99
Es	-0.127164	-1.808342	-0.575954	99
Es	0.069454	-0.943915	-0.783945	99
Es	0.587776	0.908037	0.670184	99
Es	-0.472599	-2.631996	-2.272982	99
Es	-0.941945	0.381163	2.096540	99
Es	0.271470	-0.090479	-0.085411	99
Es	0.210678	-0.286983	-0.702542	99
Es	-0.295582	-1.928479	-2.097580	99
Es	1.443302	3.337105	0.692310	99
Es	-1.509689	0.511393	1.058980	99
Es	0.095265	-1.806523	-1.440710	99
Es	0.004821	-0.176546	-0.822177	99
Es	0.815684	1.555497	0.683536	99
Es	0.333743	0.194681	0.683396	99
41
Properties=species:S:1:pos:R:3:Z:I:1 energy=-302.87068265133064 field_type=dipole dipole="0.000000 0.000000 0.000000" charge=0
C	-1.013566	0.111405	1.403333	6
C	0.333754	0.194595	0.683543	6
N	0.210004	-0.286325	-0.702887	7
N	-0.100646	-1.600215	-0.863787	7
C	-0.295616	-1.928455	-2.097558	6
C	0.815773	1.555765	0.683543	6
C	1.213054	2.677665	0.683543	6
H	-0.930596	0.489025	2.429313	1
H	-1.372496	-0.921875	1.462203	1
H	-1.780956	0.708265	0.895813	1
H	1.055224	-0.440205	1.212873	1
H	1.081874	-0.056355	-1.186607	1
H	-0.555646	-2.969035	-2.347347	1
H	-0.223987	-1.218135	-2.939757	1
H	1.563833	3.683885	0.683783	1
Es	-0.459459	-1.691859	-1.405513	99
Es	-0.329623	0.168432	1.034537	99
Es	0.210622	-0.286973	-0.702580	99
Es	0.816834	-0.216342	1.044559	99
Es	1.213150	2.677929	0.683561	99
Es	0.096060	-1.807924	-1.440406	99
Es	-0.295585	-1.928479	-2.097581	99
Es	-0.243146	-1.446595	-2.662791	99
Es	0.924419	2.144380	1.026488	99
Es	0.588315	0.907965	0.670229	99
Es	-1.509122	0.511062	1.058626	99
Es	1.442697	3.337241	0.692943	99
Es	1.301956	2.036239	0.637019	99
Es	-1.013507	0.111413	1.403317	99
Es	-0.127946	-1.806488	-0.577051	99
Es	0.269240	-0.088606	-0.085707	99
Es	0.070425	-0.944188	-0.783473	99
Es	0.830676	2.187206	0.384170	99
Es	-0.941251	0.382097	2.096328	99
Es	0.006379	-0.178086	-0.822287	99
Es	-1.250915	-0.596293	1.432132	99
Es	0.333743	0.194681	0.683398	99
Es	0.815689	1.555495	0.683535	99
Es	0.712716	-0.142587	-1.015429	99
Es	-0.100552	-1.599756	-0.864282	99
Es	-0.471981	-2.632249	-2.273091	99
