46
Properties=species:S:1:pos:R:3:Z:I:1 energy=-272.1326302780269 field_type=dipole dipole="0.000000 0.000000 0.000000" charge=0
C	-2.074466	-1.798240	-0.506549	6
C	-0.739386	-1.750160	-0.410589	6
C	0.125584	-0.519810	-0.443329	6
C	-0.571806	0.841380	-0.482359	6
C	0.555144	1.807450	-0.148519	6
C	1.397454	1.079040	0.894921	6
C	1.016894	-0.399680	0.798831	6
H	-2.594736	-2.751070	-0.477109	1
H	-2.683756	-0.908010	-0.619279	1
H	-0.204226	-2.694370	-0.312119	1
H	0.774104	-0.600690	-1.327079	1
H	-1.357556	0.913780	0.279631	1
H	-1.016836	1.056890	-1.458659	1
H	1.159844	2.000150	-1.042999	1
H	0.183494	2.769610	0.216471	1
H	2.465454	1.232540	0.708621	1
H	1.182974	1.456960	1.900741	1
H	1.904584	-1.037250	0.722821	1
H	0.477234	-0.698520	1.706551	1
Es	1.397435	1.079024	0.894905	99
Es	2.130948	1.183652	0.765756	99
Es	-0.739265	-1.750146	-0.410583	99
Es	-0.324989	-1.132985	-0.424966	99
Es	1.625139	-0.840250	0.744753	99
Es	0.555143	1.807425	-0.148510	99
Es	0.125558	-0.519837	-0.443309	99
Es	-0.879309	0.988182	-1.151394	99
Es	0.564666	-0.577059	-1.046098	99
Es	-0.254807	0.143585	-0.475209	99
Es	-2.074564	-1.798241	-0.506550	99
Es	-1.402627	-1.796577	-0.784127	99
Es	-2.491775	-1.196058	-0.582866	99
Es	-1.448692	-1.747287	-0.131435	99
Es	-0.364741	-2.388658	-0.341866	99
Es	-2.433912	-2.442231	-0.486434	99
Es	-1.106410	0.884789	0.044588	99
Es	-0.021737	1.340771	-0.324197	99
Es	1.016891	-0.399658	0.798808	99
Es	-0.571780	0.841368	-0.482354	99
Es	0.565080	-0.489654	0.177783	99
Es	0.640321	-0.604210	1.416232	99
Es	1.220161	0.334495	0.850493	99
Es	0.982507	1.458222	0.379827	99
Es	0.299933	2.468406	0.101630	99
Es	1.247989	1.337852	1.585337	99
Es	0.970562	1.934803	-0.765620	99
46
Properties=species:S:1:pos:R:3:Z:I:1 energy=-272.1326302780269 field_type=dipole dipole="0.000000 0.000000 0.000000" charge=0
C	-2.074466	-1.798240	-0.506549	6
C	-0.739386	-1.750160	-0.410589	6
C	0.125584	-0.519810	-0.443329	6
C	-0.571806	0.841380	-0.482359	6
C	0.555144	1.807450	-0.148519	6
C	1.397454	1.079040	0.894921	6
C	1.016894	-0.399680	0.798831	6
H	-2.594736	-2.751070	-0.477109	1
H	-2.683756	-0.908010	-0.619279	1
H	-0.204226	-2.694370	-0.312119	1
H	0.774104	-0.600690	-1.327079	1
H	-1.357556	0.913780	0.279631	1
H	-1.016836	1.056890	-1.458659	1
H	1.159844	2.000150	-1.042999	1
H	0.183494	2.769610	0.216471	1
H	2.465454	1.232540	0.708621	1
H	1.182974	1.456960	1.900741	1
H	1.904584	-1.037250	0.722821	1
H	0.477234	-0.698520	1.706551	1
Es	0.555143	1.807424	-0.148512	99
Es	-2.433901	-2.441648	-0.486112	99
Es	0.640221	-0.603195	1.416160	99
Es	-1.448969	-1.747289	-0.129866	99
Es	-1.402469	-1.796702	-0.785717	99
Es	2.133804	1.183685	0.765695	99
Es	-0.022176	1.340667	-0.324639	99
Es	1.218492	0.335092	0.850904	99
Es	-0.571779	0.841369	-0.482353	99
Es	0.981568	1.458272	0.380990	99
Es	1.016890	-0.399659	0.798806	99
Es	0.125558	-0.519838	-0.443308	99
Es	0.300828	2.467205	0.101268	99
Es	-0.364859	-2.388062	-0.342290	99
Es	-0.255112	0.144349	-0.475590	99
Es	0.564639	-0.576903	-1.046327	99
Es	-0.878629	0.987346	-1.150964	99
Es	-1.107541	0.884336	0.045109	99
Es	0.564747	-0.489020	0.177751	99
Es	1.397435	1.079024	0.894904	99
Es	-2.074569	-1.798241	-0.506550	99
Es	1.246997	1.336555	1.584121	99
Es	-2.491958	-1.196502	-0.582409	99
Es	-0.739266	-1.750147	-0.410583	99
Es	-0.324921	-1.133403	-0.425271	99
Es	1.626671	-0.840507	0.744987	99
Es	0.970883	1.935516	-0.765609	99
46
Properties=species:S:1:pos:R:3:Z:I:1 energy=-272.1326302780269 field_type=dipole dipole="0.000000 0.000000 0.000000" charge=0
C	-2.074466	-1.798240	-0.506549	6
C	-0.739386	-1.750160	-0.410589	6
C	0.125584	-0.519810	-0.443329	6
C	-0.571806	0.841380	-0.482359	6
C	0.555144	1.807450	-0.148519	6
C	1.397454	1.079040	0.894921	6
C	1.016894	-0.399680	0.798831	6
H	-2.594736	-2.751070	-0.477109	1
H	-2.683756	-0.908010	-0.619279	1
H	-0.204226	-2.694370	-0.312119	1
H	0.774104	-0.600690	-1.327079	1
H	-1.357556	0.913780	0.279631	1
H	-1.016836	1.056890	-1.458659	1
H	1.159844	2.000150	-1.042999	1
H	0.183494	2.769610	0.216471	1
H	2.465454	1.232540	0.708621	1
H	1.182974	1.456960	1.900741	1
H	1.904584	-1.037250	0.722821	1
H	0.477234	-0.698520	1.706551	1
Es	0.555141	1.807427	-0.148509	99
Es	-1.108393	0.884023	0.045269	99
Es	0.564769	-0.576811	-1.046366	99
Es	-0.324971	-1.133676	-0.425383	99
Es	2.135697	1.183633	0.765869	99
Es	0.125559	-0.519838	-0.443310	99
Es	1.246371	1.335501	1.583009	99
Es	-0.364977	-2.387795	-0.342536	99
Es	0.301572	2.466361	0.101014	99
Es	-0.255402	0.144866	-0.475914	99
Es	1.397435	1.079025	0.894905	99
Es	-1.402440	-1.796807	-0.786752	99
Es	-0.739261	-1.750145	-0.410578	99
Es	-0.571781	0.841368	-0.482352	99
Es	-2.074570	-1.798241	-0.506550	99
Es	1.016889	-0.399660	0.798807	99
Es	0.971044	1.936046	-0.765349	99
Es	-0.022483	1.340603	-0.325018	99
Es	0.980888	1.458238	0.381711	99
Es	-2.492180	-1.196597	-0.582022	99
Es	0.640324	-0.602311	1.416022	99
Es	0.564143	-0.488493	0.178026	99
Es	1.217176	0.335513	0.851197	99
Es	-0.878029	0.986733	-1.150660	99
Es	-2.433789	-2.441164	-0.485863	99
Es	1.628038	-0.840653	0.745115	99
Es	-1.449046	-1.747423	-0.129189	99
46
Properties=species:S:1:pos:R:3:Z:I:1 energy=-272.1326302780269 field_type=dipole dipole="0.000000 0.000000 0.000000" charge=0
C	-2.074466	-1.798240	-0.506549	6
C	-0.739386	-1.750160	-0.410589	6
C	0.125584	-0.519810	-0.443329	6
C	-0.571806	0.841380	-0.482359	6
C	0.555144	1.807450	-0.148519	6
C	1.397454	1.079040	0.894921	6
C	1.016894	-0.399680	0.798831	6
H	-2.594736	-2.751070	-0.477109	1
H	-2.683756	-0.908010	-0.619279	1
H	-0.204226	-2.694370	-0.312119	1
H	0.774104	-0.600690	-1.327079	1
H	-1.357556	0.913780	0.279631	1
H	-1.016836	1.056890	-1.458659	1
H	1.159844	2.000150	-1.042999	1
H	0.183494	2.769610	0.216471	1
H	2.465454	1.232540	0.708621	1
H	1.182974	1.456960	1.900741	1
H	1.904584	-1.037250	0.722821	1
H	0.477234	-0.698520	1.706551	1
Es	1.215928	0.335653	0.851778	99
Es	0.980244	1.458316	0.382277	99
Es	-2.492382	-1.196663	-0.581587	99
Es	0.555142	1.807424	-0.148511	99
Es	1.246173	1.334661	1.581911	99
Es	0.564669	-0.576733	-1.046423	99
Es	2.137017	1.183479	0.766046	99
Es	-1.109293	0.883763	0.045294	99
Es	0.640502	-0.601640	1.415706	99
Es	-2.074568	-1.798241	-0.506548	99
Es	-0.877346	0.986198	-1.150151	99
Es	-0.255529	0.145374	-0.476160	99
Es	0.302341	2.465731	0.100733	99
Es	1.397434	1.079028	0.894904	99
Es	-1.449107	-1.747647	-0.128799	99
Es	0.971122	1.936318	-0.765117	99
Es	1.016889	-0.399659	0.798808	99
Es	-0.325223	-1.133867	-0.425326	99
Es	-2.433643	-2.440975	-0.485879	99
Es	0.563794	-0.488003	0.177916	99
Es	0.125556	-0.519838	-0.443307	99
Es	-0.739261	-1.750142	-0.410578	99
Es	-1.402435	-1.796668	-0.787265	99
Es	-0.571782	0.841368	-0.482352	99
Es	-0.365048	-2.387601	-0.342798	99
Es	-0.022795	1.340691	-0.325287	99
Es	1.629322	-0.840603	0.745308	99
46
Properties=species:S:1:pos:R:3:Z:I:1 energy=-272.1326302780269 field_type=dipole dipole="0.000000 0.000000 0.000000" charge=0
C	-2.074466	-1.798240	-0.506549	6
C	-0.739386	-1.750160	-0.410589	6
C	0.125584	-0.519810	-0.443329	6
C	-0.571806	0.841380	-0.482359	6
C	0.555144	1.807450	-0.148519	6
C	1.397454	1.079040	0.894921	6
C	1.016894	-0.399680	0.798831	6
H	-2.594736	-2.751070	-0.477109	1
H	-2.683756	-0.908010	-0.619279	1
H	-0.204226	-2.694370	-0.312119	1
H	0.774104	-0.600690	-1.327079	1
H	-1.357556	0.913780	0.279631	1
H	-1.016836	1.056890	-1.458659	1
H	1.159844	2.000150	-1.042999	1
H	0.183494	2.769610	0.216471	1
H	2.465454	1.232540	0.708621	1
H	1.182974	1.456960	1.900741	1
H	1.904584	-1.037250	0.722821	1
H	0.477234	-0.698520	1.706551	1
Es	0.564569	-0.576627	-1.046355	99
Es	1.397436	1.079024	0.894904	99
Es	0.979755	1.458266	0.382612	99
Es	1.245876	1.333927	1.580969	99
Es	-2.433367	-2.440793	-0.485748	99
Es	1.214933	0.335774	0.851987	99
Es	0.640689	-0.601048	1.415537	99
Es	1.016889	-0.399660	0.798808	99
Es	-2.492698	-1.196729	-0.581401	99
Es	-1.449095	-1.747641	-0.128569	99
Es	-1.110147	0.883560	0.045209	99
Es	0.563515	-0.487845	0.178045	99
Es	0.971187	1.936502	-0.764825	99
Es	-0.325246	-1.134080	-0.425413	99
Es	-1.402481	-1.796621	-0.787687	99
Es	1.630415	-0.840419	0.745421	99
Es	-0.571776	0.841368	-0.482351	99
Es	-2.074570	-1.798240	-0.506552	99
Es	-0.876650	0.985775	-1.149638	99
Es	0.303105	2.465214	0.100524	99
Es	-0.023027	1.340778	-0.325509	99
Es	-0.739262	-1.750142	-0.410582	99
Es	0.125558	-0.519838	-0.443309	99
Es	-0.365121	-2.387520	-0.342936	99
Es	2.138047	1.183396	0.766366	99
Es	0.555142	1.807424	-0.148511	99
Es	-0.255953	0.145917	-0.476402	99
46
Properties=species:S:1:pos:R:3:Z:I:1 energy=-272.1326302780269 field_type=dipole dipole="0.000000 0.000000 0.000000" charge=0
C	-2.074466	-1.798240	-0.506549	6
C	-0.739386	-1.750160	-0.410589	6
C	0.125584	-0.519810	-0.443329	6
C	-0.571806	0.841380	-0.482359	6
C	0.555144	1.807450	-0.148519	6
C	1.397454	1.079040	0.894921	6
C	1.016894	-0.399680	0.798831	6
H	-2.594736	-2.751070	-0.477109	1
H	-2.683756	-0.908010	-0.619279	1
H	-0.204226	-2.694370	-0.312119	1
H	0.774104	-0.600690	-1.327079	1
H	-1.357556	0.913780	0.279631	1
H	-1.016836	1.056890	-1.458659	1
H	1.159844	2.000150	-1.042999	1
H	0.183494	2.769610	0.216471	1
H	2.465454	1.232540	0.708621	1
H	1.182974	1.456960	1.900741	1
H	1.904584	-1.037250	0.722821	1
H	0.477234	-0.698520	1.706551	1
Es	0.979430	1.458285	0.383118	99
Es	0.564577	-0.576594	-1.046388	99
Es	-0.739262	-1.750145	-0.410585	99
Es	1.016890	-0.399660	0.798808	99
Es	-2.433253	-2.440614	-0.485808	99
Es	-0.023279	1.340934	-0.325669	99
Es	0.555142	1.807424	-0.148510	99
Es	-0.876006	0.985419	-1.149151	99
Es	-2.492839	-1.196737	-0.581230	99
Es	-2.074571	-1.798241	-0.506544	99
Es	0.563079	-0.487468	0.178000	99
Es	1.245758	1.333310	1.580077	99
Es	-1.402416	-1.796494	-0.787856	99
Es	-0.256318	0.146135	-0.476471	99
Es	0.971159	1.936696	-0.764624	99
Es	0.125558	-0.519839	-0.443309	99
Es	0.640955	-0.600598	1.415375	99
Es	-1.449185	-1.747777	-0.128424	99
Es	-1.110875	0.883583	0.044978	99
Es	1.631404	-0.840128	0.745442	99
Es	-0.571781	0.841368	-0.482353	99
Es	-0.365184	-2.387547	-0.343047	99
Es	-0.325251	-1.134243	-0.425252	99
Es	1.213993	0.335704	0.852276	99
Es	2.138837	1.183302	0.766627	99
Es	1.397436	1.079024	0.894903	99
Es	0.303726	2.464623	0.100211	99
46
Properties=species:S:1:pos:R:3:Z:I:1 energy=-272.1326302780269 field_type=dipole dipole="0.000000 0.000000 0.000000" charge=0
C	-2.074466	-1.798240	-0.506549	6
C	-0.739386	-1.750160	-0.410589	6
C	0.125584	-0.519810	-0.443329	6
C	-0.571806	0.841380	-0.482359	6
C	0.555144	1.807450	-0.148519	6
C	1.397454	1.079040	0.894921	6
C	1.016894	-0.399680	0.798831	6
H	-2.594736	-2.751070	-0.477109	1
H	-2.683756	-0.908010	-0.619279	1
H	-0.204226	-2.694370	-0.312119	1
H	0.774104	-0.600690	-1.327079	1
H	-1.357556	0.913780	0.279631	1
H	-1.016836	1.056890	-1.458659	1
H	1.159844	2.000150	-1.042999	1
H	0.183494	2.769610	0.216471	1
H	2.465454	1.232540	0.708621	1
H	1.182974	1.456960	1.900741	1
H	1.904584	-1.037250	0.722821	1
H	0.477234	-0.698520	1.706551	1
Es	0.971201	1.936861	-0.764407	99
Es	-1.111661	0.883494	0.044828	99
Es	-0.739262	-1.750146	-0.410584	99
Es	-0.023382	1.340965	-0.325865	99
Es	-2.074572	-1.798242	-0.506549	99
Es	0.978963	1.458472	0.383213	99
Es	1.016891	-0.399659	0.798807	99
Es	-0.365258	-2.387405	-0.343269	99
Es	-2.433102	-2.440468	-0.485785	99
Es	0.304275	2.464180	0.100095	99
Es	-0.325354	-1.134387	-0.425348	99
Es	0.125558	-0.519838	-0.443309	99
Es	1.245791	1.332684	1.579325	99
Es	2.139377	1.183150	0.766961	99
Es	-0.875342	0.985011	-1.148571	99
Es	-2.493014	-1.196685	-0.581028	99
Es	0.641203	-0.600066	1.415131	99
Es	1.632224	-0.839921	0.745616	99
Es	0.564554	-0.576580	-1.046211	99
Es	1.397435	1.079024	0.894904	99
Es	1.213361	0.335594	0.852488	99
Es	-1.449216	-1.747985	-0.128201	99
Es	-0.256558	0.146674	-0.476730	99
Es	0.555140	1.807430	-0.148510	99
Es	0.562666	-0.487339	0.178035	99
Es	-1.402411	-1.796466	-0.788091	99
Es	-0.571782	0.841369	-0.482352	99
46
Properties=species:S:1:pos:R:3:Z:I:1 energy=-272.1326302780269 field_type=dipole dipole="0.000000 0.000000 0.000000" charge=0
C	-2.074466	-1.798240	-0.506549	6
C	-0.739386	-1.750160	-0.410589	6
C	0.125584	-0.519810	-0.443329	6
C	-0.571806	0.841380	-0.482359	6
C	0.555144	1.807450	-0.148519	6
C	1.397454	1.079040	0.894921	6
C	1.016894	-0.399680	0.798831	6
H	-2.594736	-2.751070	-0.477109	1
H	-2.683756	-0.908010	-0.619279	1
H	-0.204226	-2.694370	-0.312119	1
H	0.774104	-0.600690	-1.327079	1
H	-1.357556	0.913780	0.279631	1
H	-1.016836	1.056890	-1.458659	1
H	1.159844	2.000150	-1.042999	1
H	0.183494	2.769610	0.216471	1
H	2.465454	1.232540	0.708621	1
H	1.182974	1.456960	1.900741	1
H	1.904584	-1.037250	0.722821	1
H	0.477234	-0.698520	1.706551	1
Es	-1.449067	-1.748016	-0.128255	99
Es	1.245808	1.332299	1.578679	99
Es	1.397436	1.079025	0.894904	99
Es	-0.739262	-1.750144	-0.410584	99
Es	-0.257013	0.147109	-0.476828	99
Es	0.125559	-0.519835	-0.443309	99
Es	-1.112589	0.883536	0.044453	99
Es	-2.493271	-1.196643	-0.580803	99
Es	1.016890	-0.399660	0.798808	99
Es	0.564499	-0.576581	-1.046182	99
Es	0.304796	2.463779	0.099849	99
Es	0.971120	1.936935	-0.764233	99
Es	-2.432874	-2.440322	-0.485642	99
Es	1.212599	0.335508	0.852776	99
Es	-0.325335	-1.134464	-0.425307	99
Es	-1.402571	-1.796514	-0.788336	99
Es	-0.571782	0.841368	-0.482352	99
Es	-0.365322	-2.387386	-0.343380	99
Es	0.555142	1.807425	-0.148510	99
Es	-0.023426	1.340985	-0.325943	99
Es	2.139816	1.183076	0.767104	99
Es	0.641617	-0.599685	1.414776	99
Es	0.978728	1.458476	0.383503	99
Es	1.633036	-0.839562	0.745794	99
Es	-0.874481	0.984627	-1.147953	99
Es	-2.074572	-1.798242	-0.506551	99
Es	0.562244	-0.487370	0.178115	99
46
Properties=species:S:1:pos:R:3:Z:I:1 energy=-272.1326302780269 field_type=dipole dipole="0.000000 0.000000 0.000000" charge=0
C	-2.074466	-1.798240	-0.506549	6
C	-0.739386	-1.750160	-0.410589	6
C	0.125584	-0.519810	-0.443329	6
C	-0.571806	0.841380	-0.482359	6
C	0.555144	1.807450	-0.148519	6
C	1.397454	1.079040	0.894921	6
C	1.016894	-0.399680	0.798831	6
H	-2.594736	-2.751070	-0.477109	1
H	-2.683756	-0.908010	-0.619279	1
H	-0.204226	-2.694370	-0.312119	1
H	0.774104	-0.600690	-1.327079	1
H	-1.357556	0.913780	0.279631	1
H	-1.016836	1.056890	-1.458659	1
H	1.159844	2.000150	-1.042999	1
H	0.183494	2.769610	0.216471	1
H	2.465454	1.232540	0.708621	1
H	1.182974	1.456960	1.900741	1
H	1.904584	-1.037250	0.722821	1
H	0.477234	-0.698520	1.706551	1
Es	-1.449266	-1.748281	-0.128085	99
Es	-2.493468	-1.196660	-0.580627	99
Es	0.561942	-0.487297	0.178265	99
Es	-0.257268	0.147208	-0.476866	99
Es	-0.873916	0.984391	-1.147435	99
Es	1.397435	1.079024	0.894905	99
Es	-1.402394	-1.796244	-0.788335	99
Es	1.633682	-0.839170	0.745764	99
Es	0.971159	1.936989	-0.763962	99
Es	-0.571782	0.841368	-0.482352	99
Es	0.555141	1.807424	-0.148510	99
Es	2.140225	1.183036	0.767422	99
Es	0.305280	2.463485	0.099749	99
Es	0.564419	-0.576353	-1.046073	99
Es	1.245782	1.331794	1.578026	99
Es	-0.023581	1.341109	-0.326100	99
Es	0.978329	1.458446	0.383606	99
Es	-2.432686	-2.440242	-0.485734	99
Es	-2.074571	-1.798241	-0.506550	99
Es	-0.325432	-1.134634	-0.425472	99
Es	0.125558	-0.519838	-0.443308	99
Es	1.212101	0.335344	0.852844	99
Es	-1.113202	0.883598	0.044125	99
Es	-0.365303	-2.387380	-0.343649	99
Es	-0.739262	-1.750145	-0.410585	99
Es	1.016889	-0.399658	0.798808	99
Es	0.641913	-0.599350	1.414724	99
46
Properties=species:S:1:pos:R:3:Z:I:1 energy=-272.1326302780269 field_type=dipole dipole="0.000000 0.000000 0.000000" charge=0
C	-2.074466	-1.798240	-0.506549	6
C	-0.739386	-1.750160	-0.410589	6
C	0.125584	-0.519810	-0.443329	6
C	-0.571806	0.841380	-0.482359	6
C	0.555144	1.807450	-0.148519	6
C	1.397454	1.079040	0.894921	6
C	1.016894	-0.399680	0.798831	6
H	-2.594736	-2.751070	-0.477109	1
H	-2.683756	-0.908010	-0.619279	1
H	-0.204226	-2.694370	-0.312119	1
H	0.774104	-0.600690	-1.327079	1
H	-1.357556	0.913780	0.279631	1
H	-1.016836	1.056890	-1.458659	1
H	1.159844	2.000150	-1.042999	1
H	0.183494	2.769610	0.216471	1
H	2.465454	1.232540	0.708621	1
H	1.182974	1.456960	1.900741	1
H	1.904584	-1.037250	0.722821	1
H	0.477234	-0.698520	1.706551	1
Es	0.125557	-0.519842	-0.443309	99
Es	0.305726	2.463168	0.099650	99
Es	-0.023726	1.341210	-0.326074	99
Es	-2.432445	-2.440217	-0.485769	99
Es	-0.571782	0.841367	-0.482352	99
Es	1.397436	1.079024	0.894904	99
Es	-2.493716	-1.196678	-0.580518	99
Es	-0.365393	-2.387342	-0.343634	99
Es	-0.739264	-1.750146	-0.410592	99
Es	-1.449275	-1.748281	-0.128069	99
Es	0.561466	-0.487111	0.178240	99
Es	1.211604	0.335122	0.853093	99
Es	-0.873265	0.984152	-1.146859	99
Es	2.140519	1.182925	0.767593	99
Es	0.971062	1.937025	-0.763874	99
Es	0.564520	-0.576513	-1.046002	99
Es	1.634259	-0.838844	0.745945	99
Es	-1.113899	0.883618	0.043794	99
Es	-0.325442	-1.134660	-0.425395	99
Es	0.978081	1.458503	0.383719	99
Es	1.016890	-0.399656	0.798808	99
Es	0.555142	1.807424	-0.148510	99
Es	-0.257470	0.147514	-0.477161	99
Es	-2.074570	-1.798241	-0.506546	99
Es	0.642200	-0.599014	1.414453	99
Es	-1.402405	-1.796211	-0.788376	99
Es	1.245913	1.331425	1.577438	99
46
Properties=species:S:1:pos:R:3:Z:I:1 energy=-272.1326302780269 field_type=dipole dipole="0.000000 0.000000 0.000000" charge=0
C	-2.074466	-1.798240	-0.506549	6
C	-0.739386	-1.750160	-0.410589	6
C	0.125584	-0.519810	-0.443329	6
C	-0.571806	0.841380	-0.482359	6
C	0.555144	1.807450	-0.148519	6
C	1.397454	1.079040	0.894921	6
C	1.016894	-0.399680	0.798831	6
H	-2.594736	-2.751070	-0.477109	1
H	-2.683756	-0.908010	-0.619279	1
H	-0.204226	-2.694370	-0.312119	1
H	0.774104	-0.600690	-1.327079	1
H	-1.357556	0.913780	0.279631	1
H	-1.016836	1.056890	-1.458659	1
H	1.159844	2.000150	-1.042999	1
H	0.183494	2.769610	0.216471	1
H	2.465454	1.232540	0.708621	1
H	1.182974	1.456960	1.900741	1
H	1.904584	-1.037250	0.722821	1
H	0.477234	-0.698520	1.706551	1
Es	0.642407	-0.598866	1.414274	99
Es	-0.023627	1.341131	-0.326151	99
Es	-1.449349	-1.748417	-0.128026	99
Es	-1.114629	0.883627	0.043428	99
Es	1.210971	0.334852	0.853350	99
Es	0.561438	-0.487050	0.178213	99
Es	-2.074574	-1.798240	-0.506553	99
Es	0.564284	-0.576484	-1.045927	99
Es	1.634813	-0.838424	0.745978	99
Es	2.140778	1.182713	0.767703	99
Es	0.555141	1.807425	-0.148510	99
Es	-0.571782	0.841369	-0.482352	99
Es	1.397436	1.079024	0.894903	99
Es	1.016889	-0.399659	0.798807	99
Es	0.977850	1.458654	0.383913	99
Es	0.125558	-0.519838	-0.443308	99
Es	-2.432305	-2.440132	-0.485770	99
Es	1.246055	1.331149	1.576917	99
Es	0.971097	1.937065	-0.763750	99
Es	-2.493863	-1.196701	-0.580411	99
Es	-0.325438	-1.134696	-0.425413	99
Es	-0.365490	-2.387313	-0.343755	99
Es	-0.257689	0.147872	-0.477259	99
Es	-1.402343	-1.796099	-0.788467	99
Es	-0.739262	-1.750145	-0.410586	99
Es	0.305944	2.462986	0.099589	99
Es	-0.872585	0.983921	-1.146240	99
46
Properties=species:S:1:pos:R:3:Z:I:1 energy=-272.1326302780269 field_type=dipole dipole="0.000000 0.000000 0.000000" charge=0
C	-2.074466	-1.798240	-0.506549	6
C	-0.739386	-1.750160	-0.410589	6
C	0.125584	-0.519810	-0.443329	6
C	-0.571806	0.841380	-0.482359	6
C	0.555144	1.807450	-0.148519	6
C	1.397454	1.079040	0.894921	6
C	1.016894	-0.399680	0.798831	6
H	-2.594736	-2.751070	-0.477109	1
H	-2.683756	-0.908010	-0.619279	1
H	-0.204226	-2.694370	-0.312119	1
H	0.774104	-0.600690	-1.327079	1
H	-1.357556	0.913780	0.279631	1
H	-1.016836	1.056890	-1.458659	1
H	1.159844	2.000150	-1.042999	1
H	0.183494	2.769610	0.216471	1
H	2.465454	1.232540	0.708621	1
H	1.182974	1.456960	1.900741	1
H	1.904584	-1.037250	0.722821	1
H	0.477234	-0.698520	1.706551	1
Es	-0.365498	-2.387312	-0.343832	99
Es	0.306329	2.462611	0.099425	99
Es	1.210831	0.334824	0.853217	99
Es	-0.739260	-1.750151	-0.410587	99
Es	0.561110	-0.487138	0.178311	99
Es	-0.871879	0.983670	-1.145610	99
Es	-2.074576	-1.798232	-0.506549	99
Es	1.635188	-0.838231	0.746160	99
Es	-0.023762	1.341187	-0.326259	99
Es	0.564228	-0.576474	-1.045920	99
Es	-2.432105	-2.440015	-0.485881	99
Es	0.125559	-0.519838	-0.443308	99
Es	-1.115333	0.883926	0.042922	99
Es	1.246070	1.330744	1.576541	99
Es	1.016890	-0.399659	0.798807	99
Es	-0.571783	0.841368	-0.482356	99
Es	0.977481	1.458660	0.384081	99
Es	-0.257905	0.147885	-0.477253	99
Es	0.642714	-0.598411	1.414114	99
Es	-1.449484	-1.748615	-0.127974	99
Es	-1.402223	-1.796014	-0.788406	99
Es	0.555141	1.807425	-0.148510	99
Es	0.971165	1.937125	-0.763604	99
Es	-2.494064	-1.196680	-0.580319	99
Es	1.397436	1.079023	0.894903	99
Es	-0.325522	-1.134718	-0.425399	99
Es	2.140976	1.182763	0.767878	99
46
Properties=species:S:1:pos:R:3:Z:I:1 energy=-272.1326302780269 field_type=dipole dipole="0.000000 0.000000 0.000000" charge=0
C	-2.074466	-1.798240	-0.506549	6
C	-0.739386	-1.750160	-0.410589	6
C	0.125584	-0.519810	-0.443329	6
C	-0.571806	0.841380	-0.482359	6
C	0.555144	1.807450	-0.148519	6
C	1.397454	1.079040	0.894921	6
C	1.016894	-0.399680	0.798831	6
H	-2.594736	-2.751070	-0.477109	1
H	-2.683756	-0.908010	-0.619279	1
H	-0.204226	-2.694370	-0.312119	1
H	0.774104	-0.600690	-1.327079	1
H	-1.357556	0.913780	0.279631	1
H	-1.016836	1.056890	-1.458659	1
H	1.159844	2.000150	-1.042999	1
H	0.183494	2.769610	0.216471	1
H	2.465454	1.232540	0.708621	1
H	1.182974	1.456960	1.900741	1
H	1.904584	-1.037250	0.722821	1
H	0.477234	-0.698520	1.706551	1
Es	1.635578	-0.837900	0.746147	99
Es	-0.739262	-1.750144	-0.410584	99
Es	-0.571782	0.841367	-0.482351	99
Es	-0.023818	1.341365	-0.326341	99
Es	0.560536	-0.487081	0.178431	99
Es	-0.365531	-2.387328	-0.343994	99
Es	-1.402415	-1.795939	-0.788564	99
Es	-0.325532	-1.134846	-0.425341	99
Es	0.306687	2.462460	0.099309	99
Es	0.555142	1.807423	-0.148510	99
Es	-2.494223	-1.196683	-0.580106	99
Es	-2.074572	-1.798240	-0.506547	99
Es	1.210559	0.334680	0.853414	99
Es	-1.115895	0.883836	0.042620	99
Es	0.643114	-0.598226	1.413933	99
Es	-2.431959	-2.439984	-0.485840	99
Es	0.977275	1.458545	0.384212	99
Es	2.141127	1.182749	0.767965	99
Es	-1.449301	-1.748588	-0.127951	99
Es	1.397436	1.079022	0.894902	99
Es	0.125558	-0.519838	-0.443308	99
Es	-0.258108	0.148172	-0.477469	99
Es	-0.871373	0.983474	-1.145038	99
Es	1.246217	1.330464	1.576125	99
Es	1.016889	-0.399655	0.798808	99
Es	0.971016	1.937075	-0.763446	99
Es	0.564361	-0.576459	-1.045879	99
46
Properties=species:S:1:pos:R:3:Z:I:1 energy=-272.1326302780269 field_type=dipole dipole="0.000000 0.000000 0.000000" charge=0
C	-2.074466	-1.798240	-0.506549	6
C	-0.739386	-1.750160	-0.410589	6
C	0.125584	-0.519810	-0.443329	6
C	-0.571806	0.841380	-0.482359	6
C	0.555144	1.807450	-0.148519	6
C	1.397454	1.079040	0.894921	6
C	1.016894	-0.399680	0.798831	6
H	-2.594736	-2.751070	-0.477109	1
H	-2.683756	-0.908010	-0.619279	1
H	-0.204226	-2.694370	-0.312119	1
H	0.774104	-0.600690	-1.327079	1
H	-1.357556	0.913780	0.279631	1
H	-1.016836	1.056890	-1.458659	1
H	1.159844	2.000150	-1.042999	1
H	0.183494	2.769610	0.216471	1
H	2.465454	1.232540	0.708621	1
H	1.182974	1.456960	1.900741	1
H	1.904584	-1.037250	0.722821	1
H	0.477234	-0.698520	1.706551	1
Es	0.125558	-0.519838	-0.443308	99
Es	-2.494507	-1.196769	-0.580042	99
Es	0.977029	1.458465	0.384073	99
Es	0.970965	1.937238	-0.763402	99
Es	-1.402621	-1.796022	-0.788701	99
Es	0.555141	1.807424	-0.148510	99
Es	-0.365653	-2.387316	-0.344000	99
Es	1.397435	1.079024	0.894904	99
Es	-1.449092	-1.748474	-0.127961	99
Es	-0.739262	-1.750146	-0.410597	99
Es	1.210487	0.334877	0.853567	99
Es	-2.074574	-1.798240	-0.506549	99
Es	-1.116505	0.883930	0.042223	99
Es	-0.325538	-1.134924	-0.425300	99
Es	0.643525	-0.597951	1.413761	99
Es	2.141295	1.182602	0.768097	99
Es	0.560121	-0.487129	0.178579	99
Es	1.016890	-0.399659	0.798807	99
Es	0.564340	-0.576430	-1.045841	99
Es	1.635805	-0.837783	0.746156	99
Es	0.306822	2.462221	0.099376	99
Es	-0.258262	0.148347	-0.477594	99
Es	-0.023697	1.341216	-0.326353	99
Es	-0.870790	0.983322	-1.144427	99
Es	1.246277	1.330249	1.575762	99
Es	-0.571782	0.841368	-0.482352	99
Es	-2.431682	-2.439880	-0.485772	99
46
Properties=species:S:1:pos:R:3:Z:I:1 energy=-272.1326302780269 field_type=dipole dipole="0.000000 0.000000 0.000000" charge=0
C	-2.074466	-1.798240	-0.506549	6
C	-0.739386	-1.750160	-0.410589	6
C	0.125584	-0.519810	-0.443329	6
C	-0.571806	0.841380	-0.482359	6
C	0.555144	1.807450	-0.148519	6
C	1.397454	1.079040	0.894921	6
C	1.016894	-0.399680	0.798831	6
H	-2.594736	-2.751070	-0.477109	1
H	-2.683756	-0.908010	-0.619279	1
H	-0.204226	-2.694370	-0.312119	1
H	0.774104	-0.600690	-1.327079	1
H	-1.357556	0.913780	0.279631	1
H	-1.016836	1.056890	-1.458659	1
H	1.159844	2.000150	-1.042999	1
H	0.183494	2.769610	0.216471	1
H	2.465454	1.232540	0.708621	1
H	1.182974	1.456960	1.900741	1
H	1.904584	-1.037250	0.722821	1
H	0.477234	-0.698520	1.706551	1
Es	0.564372	-0.576442	-1.045793	99
Es	-1.117012	0.884036	0.041889	99
Es	2.141418	1.182584	0.768294	99
Es	0.307143	2.462122	0.099243	99
Es	-0.870290	0.983180	-1.143943	99
Es	-1.402678	-1.795934	-0.788703	99
Es	-0.258451	0.148527	-0.477688	99
Es	-1.449044	-1.748495	-0.128039	99
Es	1.016889	-0.399659	0.798808	99
Es	0.643671	-0.597784	1.413576	99
Es	-0.739262	-1.750144	-0.410585	99
Es	-2.431682	-2.439858	-0.485828	99
Es	-0.571782	0.841368	-0.482352	99
Es	1.246329	1.329980	1.575429	99
Es	-0.325575	-1.134926	-0.425282	99
Es	-0.023781	1.341196	-0.326367	99
Es	-2.494511	-1.196749	-0.579942	99
Es	-0.365644	-2.387396	-0.344024	99
Es	-2.074572	-1.798241	-0.506550	99
Es	0.125557	-0.519839	-0.443307	99
Es	1.397436	1.079024	0.894904	99
Es	0.559876	-0.487071	0.178618	99
Es	0.555141	1.807423	-0.148510	99
Es	0.976796	1.458622	0.384176	99
Es	1.210064	0.334439	0.853599	99
Es	0.971049	1.937106	-0.763271	99
Es	1.636268	-0.837344	0.746244	99
46
Properties=species:S:1:pos:R:3:Z:I:1 energy=-272.1326302780269 field_type=dipole dipole="0.000000 0.000000 0.000000" charge=0
C	-2.074466	-1.798240	-0.506549	6
C	-0.739386	-1.750160	-0.410589	6
C	0.125584	-0.519810	-0.443329	6
C	-0.571806	0.841380	-0.482359	6
C	0.555144	1.807450	-0.148519	6
C	1.397454	1.079040	0.894921	6
C	1.016894	-0.399680	0.798831	6
H	-2.594736	-2.751070	-0.477109	1
H	-2.683756	-0.908010	-0.619279	1
H	-0.204226	-2.694370	-0.312119	1
H	0.774104	-0.600690	-1.327079	1
H	-1.357556	0.913780	0.279631	1
H	-1.016836	1.056890	-1.458659	1
H	1.159844	2.000150	-1.042999	1
H	0.183494	2.769610	0.216471	1
H	2.465454	1.232540	0.708621	1
H	1.182974	1.456960	1.900741	1
H	1.904584	-1.037250	0.722821	1
H	0.477234	-0.698520	1.706551	1
Es	-1.117588	0.884158	0.041347	99
Es	-0.869719	0.982973	-1.143407	99
Es	1.016890	-0.399660	0.798809	99
Es	1.397438	1.079025	0.894905	99
Es	1.636571	-0.836973	0.746340	99
Es	0.976608	1.458506	0.384383	99
Es	0.559571	-0.487120	0.178684	99
Es	0.307303	2.462041	0.099146	99
Es	1.246349	1.329771	1.575185	99
Es	-0.258617	0.148636	-0.477707	99
Es	-0.023721	1.341231	-0.326352	99
Es	-2.431551	-2.439872	-0.485835	99
Es	0.555141	1.807424	-0.148510	99
Es	-0.365664	-2.387335	-0.344095	99
Es	-2.494643	-1.196644	-0.579916	99
Es	0.971062	1.937050	-0.763214	99
Es	-0.325618	-1.134928	-0.425323	99
Es	-0.739262	-1.750144	-0.410585	99
Es	2.141536	1.182620	0.768320	99
Es	-1.449004	-1.748586	-0.128104	99
Es	-2.074572	-1.798241	-0.506551	99
Es	0.564409	-0.576421	-1.045758	99
Es	0.643927	-0.597621	1.413469	99
Es	-0.571782	0.841368	-0.482352	99
Es	0.125558	-0.519837	-0.443308	99
Es	-1.402728	-1.795972	-0.788590	99
Es	1.209830	0.334269	0.853609	99
