45
Properties=species:S:1:pos:R:3:Z:I:1 energy=-288.0903141393188 field_type=dipole dipole="0.000000 0.000000 0.000000" charge=0
C	-1.371238	-2.546364	-0.287865	6
N	-1.476228	-1.094224	-0.225085	7
C	-0.177328	-0.455634	0.027505	6
C	0.541462	0.205396	-1.111805	6
C	-0.078468	1.052226	-0.033455	6
C	0.772092	1.725496	0.954475	6
C	1.819632	2.517176	0.691715	6
H	-2.347998	-2.975684	-0.528585	1
H	-1.046338	-2.960324	0.672505	1
H	-0.666908	-2.860094	-1.065415	1
H	-2.141338	-0.841454	0.505505	1
H	0.443562	-0.951104	0.773375	1
H	0.066052	0.212506	-2.085835	1
H	1.619422	0.105196	-1.152595	1
H	-0.975398	1.603286	-0.296765	1
H	0.501152	1.570786	1.998635	1
H	2.132373	2.714705	-0.328975	1
H	2.385492	2.978116	1.492665	1
Es	-0.078399	1.052088	-0.033496	99
Es	-0.177417	-0.455542	0.027383	99
Es	1.502457	1.863916	0.832006	99
Es	0.217382	0.208100	-1.766634	99
Es	0.223895	-0.297245	-0.620485	99
Es	0.250973	-0.792069	0.540255	99
Es	0.541379	0.205423	-1.111650	99
Es	-0.228897	0.317287	0.163103	99
Es	0.298888	0.791302	-0.653843	99
Es	-0.678512	1.420707	-0.204312	99
Es	1.108968	2.385094	0.809234	99
Es	2.038550	2.654926	0.001653	99
Es	-0.887085	-2.756371	-0.815192	99
Es	1.272950	0.142969	-1.133149	99
Es	0.771997	1.725427	0.954490	99
Es	-2.039631	-2.838766	-0.447436	99
Es	-1.860160	-0.954082	0.239351	99
Es	-1.141783	-2.835271	0.376902	99
Es	-1.475983	-1.094443	-0.224516	99
Es	-0.904202	-0.829424	-0.089960	99
Es	1.819720	2.517230	0.691692	99
Es	0.580169	1.614735	1.664014	99
Es	2.207669	2.834015	1.230415	99
Es	-1.597461	-0.969295	-0.528340	99
Es	-1.412901	-1.728068	-0.228251	99
Es	-1.371249	-2.546231	-0.287856	99
Es	0.356840	1.384600	0.455539	99
45
Properties=species:S:1:pos:R:3:Z:I:1 energy=-288.0903141393188 field_type=dipole dipole="0.000000 0.000000 0.000000" charge=0
C	-1.371238	-2.546364	-0.287865	6
N	-1.476228	-1.094224	-0.225085	7
C	-0.177328	-0.455634	0.027505	6
C	0.541462	0.205396	-1.111805	6
C	-0.078468	1.052226	-0.033455	6
C	0.772092	1.725496	0.954475	6
C	1.819632	2.517176	0.691715	6
H	-2.347998	-2.975684	-0.528585	1
H	-1.046338	-2.960324	0.672505	1
H	-0.666908	-2.860094	-1.065415	1
H	-2.141338	-0.841454	0.505505	1
H	0.443562	-0.951104	0.773375	1
H	0.066052	0.212506	-2.085835	1
H	1.619422	0.105196	-1.152595	1
H	-0.975398	1.603286	-0.296765	1
H	0.501152	1.570786	1.998635	1
H	2.132373	2.714705	-0.328975	1
H	2.385492	2.978116	1.492665	1
Es	0.771997	1.725424	0.954489	99
Es	-1.475984	-1.094449	-0.224514	99
Es	-0.177420	-0.455546	0.027386	99
Es	-1.371249	-2.546231	-0.287855	99
Es	-0.676346	1.420300	-0.203509	99
Es	-0.902797	-0.824827	-0.095780	99
Es	1.108286	2.386063	0.808674	99
Es	0.541381	0.205425	-1.111651	99
Es	-1.595928	-0.975085	-0.518607	99
Es	-1.142260	-2.834228	0.375453	99
Es	1.819717	2.517237	0.691691	99
Es	-1.413329	-1.729131	-0.230277	99
Es	0.357531	1.384615	0.455077	99
Es	0.222927	-0.299169	-0.619496	99
Es	-0.886115	-2.756967	-0.814780	99
Es	1.273460	0.144304	-1.134397	99
Es	0.579874	1.614189	1.663912	99
Es	2.206134	2.834661	1.229581	99
Es	0.218413	0.208876	-1.764241	99
Es	-0.229905	0.314564	0.165291	99
Es	-2.040454	-2.839474	-0.446693	99
Es	-1.862935	-0.952138	0.238146	99
Es	0.298716	0.793513	-0.656897	99
Es	1.503544	1.862779	0.832810	99
Es	-0.078396	1.052073	-0.033502	99
Es	2.038901	2.655588	0.001474	99
Es	0.250397	-0.791353	0.539128	99
45
Properties=species:S:1:pos:R:3:Z:I:1 energy=-288.0903141393188 field_type=dipole dipole="0.000000 0.000000 0.000000" charge=0
C	-1.371238	-2.546364	-0.287865	6
N	-1.476228	-1.094224	-0.225085	7
C	-0.177328	-0.455634	0.027505	6
C	0.541462	0.205396	-1.111805	6
C	-0.078468	1.052226	-0.033455	6
C	0.772092	1.725496	0.954475	6
C	1.819632	2.517176	0.691715	6
H	-2.347998	-2.975684	-0.528585	1
H	-1.046338	-2.960324	0.672505	1
H	-0.666908	-2.860094	-1.065415	1
H	-2.141338	-0.841454	0.505505	1
H	0.443562	-0.951104	0.773375	1
H	0.066052	0.212506	-2.085835	1
H	1.619422	0.105196	-1.152595	1
H	-0.975398	1.603286	-0.296765	1
H	0.501152	1.570786	1.998635	1
H	2.132373	2.714705	-0.328975	1
H	2.385492	2.978116	1.492665	1
Es	-1.371248	-2.546239	-0.287852	99
Es	0.541382	0.205428	-1.111653	99
Es	-1.475978	-1.094454	-0.224489	99
Es	1.273776	0.145233	-1.135129	99
Es	0.357896	1.384848	0.454861	99
Es	-0.674619	1.419642	-0.203222	99
Es	0.771993	1.725421	0.954490	99
Es	-1.142445	-2.833396	0.374216	99
Es	-0.177420	-0.455542	0.027388	99
Es	1.503693	1.862566	0.833038	99
Es	0.579946	1.613690	1.664069	99
Es	-1.413832	-1.729761	-0.232334	99
Es	-1.864137	-0.951378	0.237695	99
Es	1.819717	2.517238	0.691691	99
Es	0.298773	0.794497	-0.659145	99
Es	-2.041215	-2.840074	-0.446068	99
Es	2.205166	2.834741	1.229132	99
Es	0.219154	0.209395	-1.762570	99
Es	0.249739	-0.790560	0.538551	99
Es	-1.594950	-0.978516	-0.511146	99
Es	-0.885525	-2.757299	-0.814383	99
Es	1.107964	2.386633	0.808417	99
Es	-0.078400	1.052067	-0.033496	99
Es	-0.902153	-0.821721	-0.100156	99
Es	-0.230776	0.312670	0.166681	99
Es	0.222405	-0.300209	-0.618963	99
Es	2.039254	2.656093	0.001294	99
45
Properties=species:S:1:pos:R:3:Z:I:1 energy=-288.0903141393188 field_type=dipole dipole="0.000000 0.000000 0.000000" charge=0
C	-1.371238	-2.546364	-0.287865	6
N	-1.476228	-1.094224	-0.225085	7
C	-0.177328	-0.455634	0.027505	6
C	0.541462	0.205396	-1.111805	6
C	-0.078468	1.052226	-0.033455	6
C	0.772092	1.725496	0.954475	6
C	1.819632	2.517176	0.691715	6
H	-2.347998	-2.975684	-0.528585	1
H	-1.046338	-2.960324	0.672505	1
H	-0.666908	-2.860094	-1.065415	1
H	-2.141338	-0.841454	0.505505	1
H	0.443562	-0.951104	0.773375	1
H	0.066052	0.212506	-2.085835	1
H	1.619422	0.105196	-1.152595	1
H	-0.975398	1.603286	-0.296765	1
H	0.501152	1.570786	1.998635	1
H	2.132373	2.714705	-0.328975	1
H	2.385492	2.978116	1.492665	1
Es	-1.142615	-2.832775	0.373460	99
Es	0.249441	-0.790134	0.538107	99
Es	0.298635	0.795083	-0.660712	99
Es	0.358143	1.385319	0.454587	99
Es	1.107956	2.386535	0.808245	99
Es	-1.864403	-0.951141	0.237628	99
Es	0.541379	0.205420	-1.111649	99
Es	-1.371250	-2.546231	-0.287855	99
Es	1.504107	1.862309	0.833264	99
Es	1.819716	2.517242	0.691693	99
Es	-0.231597	0.311193	0.167848	99
Es	-0.885089	-2.757526	-0.814007	99
Es	0.771994	1.725424	0.954491	99
Es	2.204365	2.834928	1.228907	99
Es	0.579841	1.613387	1.664147	99
Es	-0.901932	-0.818511	-0.105165	99
Es	-1.413864	-1.730047	-0.233106	99
Es	0.221912	-0.300295	-0.618745	99
Es	2.039350	2.656596	0.001073	99
Es	-0.673328	1.419088	-0.202979	99
Es	-1.475985	-1.094460	-0.224492	99
Es	-2.041644	-2.840538	-0.445686	99
Es	1.274124	0.145809	-1.135788	99
Es	-0.078405	1.052066	-0.033491	99
Es	-0.177424	-0.455544	0.027391	99
Es	0.219618	0.209709	-1.761143	99
Es	-1.594887	-0.981895	-0.505106	99
45
Properties=species:S:1:pos:R:3:Z:I:1 energy=-288.0903141393188 field_type=dipole dipole="0.000000 0.000000 0.000000" charge=0
C	-1.371238	-2.546364	-0.287865	6
N	-1.476228	-1.094224	-0.225085	7
C	-0.177328	-0.455634	0.027505	6
C	0.541462	0.205396	-1.111805	6
C	-0.078468	1.052226	-0.033455	6
C	0.772092	1.725496	0.954475	6
C	1.819632	2.517176	0.691715	6
H	-2.347998	-2.975684	-0.528585	1
H	-1.046338	-2.960324	0.672505	1
H	-0.666908	-2.860094	-1.065415	1
H	-2.141338	-0.841454	0.505505	1
H	0.443562	-0.951104	0.773375	1
H	0.066052	0.212506	-2.085835	1
H	1.619422	0.105196	-1.152595	1
H	-0.975398	1.603286	-0.296765	1
H	0.501152	1.570786	1.998635	1
H	2.132373	2.714705	-0.328975	1
H	2.385492	2.978116	1.492665	1
Es	0.358569	1.385529	0.454337	99
Es	-1.413918	-1.730239	-0.233595	99
Es	0.219960	0.210217	-1.760146	99
Es	-0.177426	-0.455547	0.027392	99
Es	1.504108	1.862339	0.833315	99
Es	0.579772	1.613066	1.664255	99
Es	-1.142490	-2.832374	0.372749	99
Es	-2.042075	-2.840905	-0.445243	99
Es	0.771994	1.725424	0.954490	99
Es	1.107891	2.386660	0.808190	99
Es	0.221626	-0.301011	-0.618643	99
Es	0.298423	0.795263	-0.661630	99
Es	-1.475987	-1.094450	-0.224515	99
Es	-0.885000	-2.757592	-0.813831	99
Es	1.274261	0.146417	-1.136272	99
Es	-1.594395	-0.984072	-0.500929	99
Es	2.203933	2.834853	1.228761	99
Es	1.819719	2.517240	0.691697	99
Es	-0.902042	-0.816517	-0.108297	99
Es	-1.864730	-0.950885	0.237430	99
Es	-0.232381	0.310393	0.168377	99
Es	2.039515	2.656895	0.000943	99
Es	0.249131	-0.789702	0.537844	99
Es	-0.078400	1.052070	-0.033495	99
Es	-0.672024	1.418756	-0.202771	99
Es	-1.371249	-2.546232	-0.287855	99
Es	0.541376	0.205418	-1.111642	99
45
Properties=species:S:1:pos:R:3:Z:I:1 energy=-288.0903141393188 field_type=dipole dipole="0.000000 0.000000 0.000000" charge=0
C	-1.371238	-2.546364	-0.287865	6
N	-1.476228	-1.094224	-0.225085	7
C	-0.177328	-0.455634	0.027505	6
C	0.541462	0.205396	-1.111805	6
C	-0.078468	1.052226	-0.033455	6
C	0.772092	1.725496	0.954475	6
C	1.819632	2.517176	0.691715	6
H	-2.347998	-2.975684	-0.528585	1
H	-1.046338	-2.960324	0.672505	1
H	-0.666908	-2.860094	-1.065415	1
H	-2.141338	-0.841454	0.505505	1
H	0.443562	-0.951104	0.773375	1
H	0.066052	0.212506	-2.085835	1
H	1.619422	0.105196	-1.152595	1
H	-0.975398	1.603286	-0.296765	1
H	0.501152	1.570786	1.998635	1
H	2.132373	2.714705	-0.328975	1
H	2.385492	2.978116	1.492665	1
Es	2.039591	2.657116	0.000878	99
Es	-1.413875	-1.730222	-0.233677	99
Es	0.298323	0.795591	-0.662641	99
Es	0.541384	0.205428	-1.111655	99
Es	0.358551	1.385870	0.454411	99
Es	1.107857	2.386725	0.808130	99
Es	0.220284	0.210499	-1.759251	99
Es	0.248878	-0.789251	0.537650	99
Es	-0.177429	-0.455542	0.027397	99
Es	-2.042378	-2.841274	-0.444900	99
Es	1.819715	2.517236	0.691692	99
Es	-0.078400	1.052068	-0.033498	99
Es	-0.902181	-0.815360	-0.110205	99
Es	-0.671009	1.418179	-0.202563	99
Es	-0.232963	0.309455	0.168643	99
Es	-1.593681	-0.985755	-0.498286	99
Es	0.579782	1.612857	1.664334	99
Es	0.221358	-0.301164	-0.618506	99
Es	-1.865343	-0.950556	0.236933	99
Es	1.274483	0.146932	-1.136609	99
Es	0.771999	1.725417	0.954493	99
Es	-1.475983	-1.094448	-0.224514	99
Es	-1.142459	-2.831981	0.372154	99
Es	2.203585	2.834879	1.228610	99
Es	1.504206	1.862237	0.833326	99
Es	-0.884887	-2.757693	-0.813577	99
Es	-1.371249	-2.546232	-0.287855	99
45
Properties=species:S:1:pos:R:3:Z:I:1 energy=-288.0903141393188 field_type=dipole dipole="0.000000 0.000000 0.000000" charge=0
C	-1.371238	-2.546364	-0.287865	6
N	-1.476228	-1.094224	-0.225085	7
C	-0.177328	-0.455634	0.027505	6
C	0.541462	0.205396	-1.111805	6
C	-0.078468	1.052226	-0.033455	6
C	0.772092	1.725496	0.954475	6
C	1.819632	2.517176	0.691715	6
H	-2.347998	-2.975684	-0.528585	1
H	-1.046338	-2.960324	0.672505	1
H	-0.666908	-2.860094	-1.065415	1
H	-2.141338	-0.841454	0.505505	1
H	0.443562	-0.951104	0.773375	1
H	0.066052	0.212506	-2.085835	1
H	1.619422	0.105196	-1.152595	1
H	-0.975398	1.603286	-0.296765	1
H	0.501152	1.570786	1.998635	1
H	2.132373	2.714705	-0.328975	1
H	2.385492	2.978116	1.492665	1
Es	-1.865549	-0.950726	0.236935	99
Es	-0.670107	1.417725	-0.202362	99
Es	-1.142474	-2.831670	0.371742	99
Es	2.039718	2.657422	0.000823	99
Es	0.298235	0.795742	-0.663504	99
Es	1.274663	0.147379	-1.136849	99
Es	-0.078398	1.052055	-0.033497	99
Es	1.107775	2.386840	0.808116	99
Es	0.221060	-0.301051	-0.618384	99
Es	-0.177424	-0.455544	0.027392	99
Es	1.819717	2.517238	0.691692	99
Es	2.203182	2.834829	1.228479	99
Es	-0.233541	0.308644	0.168971	99
Es	-0.902240	-0.814261	-0.111949	99
Es	0.220479	0.210701	-1.758638	99
Es	-1.593080	-0.986652	-0.495091	99
Es	0.248779	-0.789061	0.537576	99
Es	-1.414150	-1.730323	-0.234982	99
Es	-2.042644	-2.841577	-0.444756	99
Es	-0.884739	-2.757712	-0.813283	99
Es	0.771995	1.725421	0.954490	99
Es	0.541379	0.205425	-1.111649	99
Es	0.579786	1.612659	1.664318	99
Es	0.358636	1.386041	0.454332	99
Es	1.504342	1.862139	0.833416	99
Es	-1.475993	-1.094436	-0.224567	99
Es	-1.371249	-2.546234	-0.287856	99
45
Properties=species:S:1:pos:R:3:Z:I:1 energy=-288.0903141393188 field_type=dipole dipole="0.000000 0.000000 0.000000" charge=0
C	-1.371238	-2.546364	-0.287865	6
N	-1.476228	-1.094224	-0.225085	7
C	-0.177328	-0.455634	0.027505	6
C	0.541462	0.205396	-1.111805	6
C	-0.078468	1.052226	-0.033455	6
C	0.772092	1.725496	0.954475	6
C	1.819632	2.517176	0.691715	6
H	-2.347998	-2.975684	-0.528585	1
H	-1.046338	-2.960324	0.672505	1
H	-0.666908	-2.860094	-1.065415	1
H	-2.141338	-0.841454	0.505505	1
H	0.443562	-0.951104	0.773375	1
H	0.066052	0.212506	-2.085835	1
H	1.619422	0.105196	-1.152595	1
H	-0.975398	1.603286	-0.296765	1
H	0.501152	1.570786	1.998635	1
H	2.132373	2.714705	-0.328975	1
H	2.385492	2.978116	1.492665	1
Es	-0.902416	-0.813260	-0.114161	99
Es	-0.177424	-0.455546	0.027390	99
Es	-1.593258	-0.987493	-0.492837	99
Es	0.541369	0.205424	-1.111654	99
Es	-0.078402	1.052062	-0.033497	99
Es	-1.371250	-2.546232	-0.287856	99
Es	-0.884696	-2.757726	-0.813220	99
Es	0.358752	1.386233	0.454251	99
Es	0.220639	0.210848	-1.758121	99
Es	-1.864945	-0.950911	0.237234	99
Es	1.107796	2.386800	0.808096	99
Es	2.039735	2.657592	0.000760	99
Es	-2.042815	-2.841790	-0.444482	99
Es	-1.414428	-1.730435	-0.235294	99
Es	0.771995	1.725423	0.954490	99
Es	0.579766	1.612523	1.664396	99
Es	-0.669475	1.417487	-0.202296	99
Es	-0.233954	0.308170	0.169241	99
Es	0.220880	-0.301035	-0.618192	99
Es	-1.142401	-2.831450	0.371371	99
Es	-1.475987	-1.094452	-0.224469	99
Es	1.504360	1.862141	0.833373	99
Es	0.248619	-0.788797	0.537419	99
Es	1.274818	0.147737	-1.137044	99
Es	1.819718	2.517238	0.691693	99
Es	2.203014	2.834794	1.228425	99
Es	0.298149	0.795667	-0.664097	99
45
Properties=species:S:1:pos:R:3:Z:I:1 energy=-288.0903141393188 field_type=dipole dipole="0.000000 0.000000 0.000000" charge=0
C	-1.371238	-2.546364	-0.287865	6
N	-1.476228	-1.094224	-0.225085	7
C	-0.177328	-0.455634	0.027505	6
C	0.541462	0.205396	-1.111805	6
C	-0.078468	1.052226	-0.033455	6
C	0.772092	1.725496	0.954475	6
C	1.819632	2.517176	0.691715	6
H	-2.347998	-2.975684	-0.528585	1
H	-1.046338	-2.960324	0.672505	1
H	-0.666908	-2.860094	-1.065415	1
H	-2.141338	-0.841454	0.505505	1
H	0.443562	-0.951104	0.773375	1
H	0.066052	0.212506	-2.085835	1
H	1.619422	0.105196	-1.152595	1
H	-0.975398	1.603286	-0.296765	1
H	0.501152	1.570786	1.998635	1
H	2.132373	2.714705	-0.328975	1
H	2.385492	2.978116	1.492665	1
Es	-1.371249	-2.546235	-0.287855	99
Es	-1.592416	-0.988727	-0.490762	99
Es	0.220886	0.210981	-1.757701	99
Es	2.039755	2.657788	0.000709	99
Es	0.220705	-0.300919	-0.618222	99
Es	-2.042955	-2.841891	-0.444380	99
Es	0.541381	0.205422	-1.111651	99
Es	-0.078400	1.052060	-0.033498	99
Es	-0.177429	-0.455546	0.027395	99
Es	1.107804	2.386844	0.808095	99
Es	-1.865495	-0.950529	0.236684	99
Es	0.297963	0.795643	-0.664588	99
Es	1.504308	1.862140	0.833270	99
Es	-0.884656	-2.757788	-0.813076	99
Es	-0.668775	1.417220	-0.202238	99
Es	1.819716	2.517240	0.691691	99
Es	0.579830	1.612395	1.664475	99
Es	0.771990	1.725425	0.954489	99
Es	0.358922	1.386389	0.454211	99
Es	-0.902564	-0.812532	-0.115368	99
Es	-1.142440	-2.831325	0.371104	99
Es	2.202861	2.834715	1.228372	99
Es	-1.414392	-1.730479	-0.235161	99
Es	-0.234487	0.307641	0.169571	99
Es	0.248510	-0.788644	0.537308	99
Es	-1.476091	-1.094335	-0.224853	99
Es	1.274879	0.148058	-1.137105	99
45
Properties=species:S:1:pos:R:3:Z:I:1 energy=-288.0903141393188 field_type=dipole dipole="0.000000 0.000000 0.000000" charge=0
C	-1.371238	-2.546364	-0.287865	6
N	-1.476228	-1.094224	-0.225085	7
C	-0.177328	-0.455634	0.027505	6
C	0.541462	0.205396	-1.111805	6
C	-0.078468	1.052226	-0.033455	6
C	0.772092	1.725496	0.954475	6
C	1.819632	2.517176	0.691715	6
H	-2.347998	-2.975684	-0.528585	1
H	-1.046338	-2.960324	0.672505	1
H	-0.666908	-2.860094	-1.065415	1
H	-2.141338	-0.841454	0.505505	1
H	0.443562	-0.951104	0.773375	1
H	0.066052	0.212506	-2.085835	1
H	1.619422	0.105196	-1.152595	1
H	-0.975398	1.603286	-0.296765	1
H	0.501152	1.570786	1.998635	1
H	2.132373	2.714705	-0.328975	1
H	2.385492	2.978116	1.492665	1
Es	0.297906	0.795620	-0.664965	99
Es	1.504512	1.862030	0.833480	99
Es	-1.864915	-0.950883	0.237105	99
Es	2.202628	2.834810	1.228295	99
Es	-0.902928	-0.811549	-0.117315	99
Es	0.579735	1.612339	1.664362	99
Es	0.358922	1.386623	0.454117	99
Es	-0.078401	1.052062	-0.033497	99
Es	2.039936	2.657747	0.000763	99
Es	-1.592894	-0.989342	-0.489538	99
Es	-1.414284	-1.730420	-0.235202	99
Es	0.220629	-0.301032	-0.617979	99
Es	-2.043114	-2.842208	-0.444108	99
Es	0.541379	0.205421	-1.111649	99
Es	-1.475976	-1.094460	-0.224513	99
Es	-1.142306	-2.831033	0.370790	99
Es	-0.177422	-0.455550	0.027386	99
Es	0.771996	1.725422	0.954489	99
Es	-0.668267	1.416900	-0.202151	99
Es	0.220843	0.211094	-1.757325	99
Es	-0.884659	-2.757786	-0.812918	99
Es	1.107693	2.386932	0.808029	99
Es	0.248420	-0.788454	0.537261	99
Es	-1.371248	-2.546232	-0.287856	99
Es	1.274985	0.148325	-1.137403	99
Es	1.819717	2.517238	0.691693	99
Es	-0.234728	0.307399	0.169565	99
