47
Properties=species:S:1:pos:R:3:Z:I:1 energy=-305.28139405268354 field_type=dipole dipole="0.000000 0.000000 0.000000" charge=0
C	-1.336036	-2.595567	-0.845310	6
N	-1.396346	-1.299037	-0.185260	7
C	-0.108727	-0.597507	-0.203990	6
C	0.077024	0.551673	-1.157800	6
C	-0.055506	0.816633	0.320260	6
C	1.118803	1.258103	1.129600	6
N	1.112804	2.710763	1.189250	7
H	-2.330467	-3.051887	-0.848980	1
H	-0.653466	-3.273887	-0.322960	1
H	-1.011036	-2.495127	-1.885550	1
H	-1.719576	-1.426117	0.773860	1
H	0.762954	-1.217267	-0.002650	1
H	-0.756016	0.830773	-1.793430	1
H	1.046874	0.667463	-1.625700	1
H	-0.984226	1.248663	0.677890	1
H	2.062703	0.907923	0.697580	1
H	1.040474	0.850443	2.142340	1
H	1.193514	3.084444	0.244990	1
H	1.936254	3.029513	1.695860	1
Es	-1.565292	-1.393403	0.402227	99
Es	0.818015	2.830424	1.342567	99
Es	1.118790	1.258239	1.129591	99
Es	-0.818371	-1.015414	-0.180785	99
Es	-0.055464	0.816509	0.320125	99
Es	-0.858918	-3.067089	-0.486595	99
Es	-0.484804	0.736994	-1.585484	99
Es	-0.005381	-0.145334	-0.835680	99
Es	0.038071	0.876748	-0.454538	99
Es	1.113292	2.710567	1.188997	99
Es	1.140862	2.081935	1.153145	99
Es	-1.109380	-2.524361	-1.552609	99
Es	1.180602	2.921960	0.613597	99
Es	-0.684632	1.101613	0.555662	99
Es	1.066586	0.979194	1.825435	99
Es	-1.336042	-2.595452	-0.845247	99
Es	-1.395942	-1.299369	-0.185005	99
Es	-0.103900	0.040857	0.233646	99
Es	0.540375	1.024688	0.710452	99
Es	-2.014532	-2.908959	-0.842883	99
Es	-1.343876	-1.872037	-0.459155	99
Es	1.770511	1.003679	0.824836	99
Es	0.742998	0.633628	-1.468204	99
Es	-0.108852	-0.597395	-0.204028	99
Es	-1.627019	-1.095761	-0.347702	99
Es	0.077023	0.551626	-1.157643	99
Es	1.625990	2.892890	1.484598	99
Es	0.493483	-1.022207	-0.067803	99
47
Properties=species:S:1:pos:R:3:Z:I:1 energy=-305.28139405268354 field_type=dipole dipole="0.000000 0.000000 0.000000" charge=0
C	-1.336036	-2.595567	-0.845310	6
N	-1.396346	-1.299037	-0.185260	7
C	-0.108727	-0.597507	-0.203990	6
C	0.077024	0.551673	-1.157800	6
C	-0.055506	0.816633	0.320260	6
C	1.118803	1.258103	1.129600	6
N	1.112804	2.710763	1.189250	7
H	-2.330467	-3.051887	-0.848980	1
H	-0.653466	-3.273887	-0.322960	1
H	-1.011036	-2.495127	-1.885550	1
H	-1.719576	-1.426117	0.773860	1
H	0.762954	-1.217267	-0.002650	1
H	-0.756016	0.830773	-1.793430	1
H	1.046874	0.667463	-1.625700	1
H	-0.984226	1.248663	0.677890	1
H	2.062703	0.907923	0.697580	1
H	1.040474	0.850443	2.142340	1
H	1.193514	3.084444	0.244990	1
H	1.936254	3.029513	1.695860	1
Es	1.623569	2.893323	1.485733	99
Es	-1.109314	-2.524772	-1.553916	99
Es	1.066347	0.978229	1.826253	99
Es	-0.683768	1.101356	0.555921	99
Es	1.180448	2.923945	0.612400	99
Es	-1.565756	-1.392680	0.403680	99
Es	1.140706	2.081040	1.153834	99
Es	-0.104110	0.040205	0.235559	99
Es	-1.344272	-1.872277	-0.460123	99
Es	0.038196	0.878515	-0.455560	99
Es	1.118789	1.258241	1.129591	99
Es	-1.336043	-2.595452	-0.845247	99
Es	-0.484014	0.736743	-1.585268	99
Es	-0.819385	-1.014230	-0.182129	99
Es	0.492721	-1.021915	-0.067656	99
Es	0.077023	0.551624	-1.157641	99
Es	-0.859776	-3.067145	-0.486259	99
Es	-1.625023	-1.097323	-0.346456	99
Es	0.742489	0.633703	-1.468303	99
Es	-0.005202	-0.146035	-0.836999	99
Es	-0.108849	-0.597391	-0.204031	99
Es	0.820692	2.829173	1.341626	99
Es	-2.013353	-2.908575	-0.842330	99
Es	-1.395892	-1.299415	-0.184953	99
Es	1.113297	2.710565	1.188995	99
Es	-0.055464	0.816508	0.320112	99
Es	0.540438	1.024842	0.710217	99
Es	1.769702	1.003966	0.824468	99
47
Properties=species:S:1:pos:R:3:Z:I:1 energy=-305.28139405268354 field_type=dipole dipole="0.000000 0.000000 0.000000" charge=0
C	-1.336036	-2.595567	-0.845310	6
N	-1.396346	-1.299037	-0.185260	7
C	-0.108727	-0.597507	-0.203990	6
C	0.077024	0.551673	-1.157800	6
C	-0.055506	0.816633	0.320260	6
C	1.118803	1.258103	1.129600	6
N	1.112804	2.710763	1.189250	7
H	-2.330467	-3.051887	-0.848980	1
H	-0.653466	-3.273887	-0.322960	1
H	-1.011036	-2.495127	-1.885550	1
H	-1.719576	-1.426117	0.773860	1
H	0.762954	-1.217267	-0.002650	1
H	-0.756016	0.830773	-1.793430	1
H	1.046874	0.667463	-1.625700	1
H	-0.984226	1.248663	0.677890	1
H	2.062703	0.907923	0.697580	1
H	1.040474	0.850443	2.142340	1
H	1.193514	3.084444	0.244990	1
H	1.936254	3.029513	1.695860	1
Es	-0.104034	0.039559	0.236691	99
Es	-0.820123	-1.013314	-0.182889	99
Es	-1.623894	-1.098494	-0.345434	99
Es	-0.055463	0.816502	0.320120	99
Es	0.077023	0.551629	-1.157635	99
Es	-2.012619	-2.908062	-0.842170	99
Es	0.492237	-1.021710	-0.067787	99
Es	-0.683253	1.101353	0.556085	99
Es	1.622826	2.893023	1.485826	99
Es	1.113283	2.710553	1.189006	99
Es	-1.395943	-1.299363	-0.184957	99
Es	1.118790	1.258236	1.129591	99
Es	-0.860383	-3.067431	-0.485952	99
Es	1.066305	0.977625	1.826745	99
Es	1.180218	2.924759	0.611546	99
Es	-0.005178	-0.146556	-0.837959	99
Es	-0.108849	-0.597392	-0.204037	99
Es	1.769045	1.004136	0.824242	99
Es	0.822867	2.829241	1.341260	99
Es	-1.109301	-2.525057	-1.554602	99
Es	-1.565801	-1.392442	0.404590	99
Es	0.038448	0.879596	-0.455890	99
Es	-1.344403	-1.872265	-0.460859	99
Es	0.741987	0.633773	-1.468407	99
Es	1.139489	2.080728	1.154644	99
Es	-1.336042	-2.595455	-0.845248	99
Es	0.540498	1.024863	0.710005	99
Es	-0.483536	0.736733	-1.585004	99
47
Properties=species:S:1:pos:R:3:Z:I:1 energy=-305.28139405268354 field_type=dipole dipole="0.000000 0.000000 0.000000" charge=0
C	-1.336036	-2.595567	-0.845310	6
N	-1.396346	-1.299037	-0.185260	7
C	-0.108727	-0.597507	-0.203990	6
C	0.077024	0.551673	-1.157800	6
C	-0.055506	0.816633	0.320260	6
C	1.118803	1.258103	1.129600	6
N	1.112804	2.710763	1.189250	7
H	-2.330467	-3.051887	-0.848980	1
H	-0.653466	-3.273887	-0.322960	1
H	-1.011036	-2.495127	-1.885550	1
H	-1.719576	-1.426117	0.773860	1
H	0.762954	-1.217267	-0.002650	1
H	-0.756016	0.830773	-1.793430	1
H	1.046874	0.667463	-1.625700	1
H	-0.984226	1.248663	0.677890	1
H	2.062703	0.907923	0.697580	1
H	1.040474	0.850443	2.142340	1
H	1.193514	3.084444	0.244990	1
H	1.936254	3.029513	1.695860	1
Es	0.540501	1.025101	0.709934	99
Es	0.077023	0.551626	-1.157636	99
Es	-0.055462	0.816513	0.320111	99
Es	-0.820616	-1.012768	-0.183322	99
Es	-1.336042	-2.595452	-0.845246	99
Es	0.741732	0.633927	-1.468490	99
Es	1.621586	2.893229	1.486102	99
Es	0.038462	0.880172	-0.456213	99
Es	-0.860672	-3.067451	-0.485887	99
Es	-0.483198	0.736708	-1.584762	99
Es	-1.565774	-1.392306	0.405093	99
Es	-0.104112	0.039136	0.237709	99
Es	-0.108849	-0.597390	-0.204031	99
Es	1.139447	2.080248	1.155102	99
Es	1.768691	1.004185	0.824086	99
Es	-2.011880	-2.907891	-0.841838	99
Es	-0.005197	-0.146873	-0.838659	99
Es	1.118789	1.258241	1.129591	99
Es	0.491949	-1.021630	-0.067857	99
Es	1.113297	2.710578	1.188997	99
Es	1.180499	2.925373	0.611157	99
Es	-0.682823	1.101206	0.556091	99
Es	-1.109516	-2.525308	-1.555209	99
Es	-1.344404	-1.872249	-0.461171	99
Es	-1.623365	-1.098989	-0.344966	99
Es	0.823849	2.828981	1.340712	99
Es	-1.395902	-1.299423	-0.184940	99
Es	1.066180	0.977277	1.827059	99
47
Properties=species:S:1:pos:R:3:Z:I:1 energy=-305.28139405268354 field_type=dipole dipole="0.000000 0.000000 0.000000" charge=0
C	-1.336036	-2.595567	-0.845310	6
N	-1.396346	-1.299037	-0.185260	7
C	-0.108727	-0.597507	-0.203990	6
C	0.077024	0.551673	-1.157800	6
C	-0.055506	0.816633	0.320260	6
C	1.118803	1.258103	1.129600	6
N	1.112804	2.710763	1.189250	7
H	-2.330467	-3.051887	-0.848980	1
H	-0.653466	-3.273887	-0.322960	1
H	-1.011036	-2.495127	-1.885550	1
H	-1.719576	-1.426117	0.773860	1
H	0.762954	-1.217267	-0.002650	1
H	-0.756016	0.830773	-1.793430	1
H	1.046874	0.667463	-1.625700	1
H	-0.984226	1.248663	0.677890	1
H	2.062703	0.907923	0.697580	1
H	1.040474	0.850443	2.142340	1
H	1.193514	3.084444	0.244990	1
H	1.936254	3.029513	1.695860	1
Es	-1.622431	-1.099857	-0.344364	99
Es	1.139388	2.080207	1.155284	99
Es	-0.055464	0.816508	0.320116	99
Es	-1.336040	-2.595452	-0.845243	99
Es	0.540509	1.025146	0.709811	99
Es	-2.011423	-2.907577	-0.841797	99
Es	-0.821040	-1.012293	-0.183819	99
Es	1.180397	2.926010	0.610833	99
Es	-0.104046	0.038768	0.238157	99
Es	-1.395890	-1.299416	-0.184948	99
Es	1.768427	1.004336	0.823907	99
Es	-0.108850	-0.597393	-0.204034	99
Es	1.066146	0.976881	1.827210	99
Es	-0.482897	0.736480	-1.584745	99
Es	-1.344598	-1.872285	-0.461583	99
Es	-0.682545	1.101109	0.556241	99
Es	0.038477	0.881103	-0.456514	99
Es	-0.861019	-3.067634	-0.485701	99
Es	-1.566056	-1.391923	0.405644	99
Es	-0.005181	-0.147030	-0.838913	99
Es	0.824545	2.828509	1.340573	99
Es	0.491704	-1.021458	-0.067846	99
Es	1.113297	2.710563	1.188991	99
Es	1.118789	1.258241	1.129591	99
Es	0.741518	0.633830	-1.468517	99
Es	0.077023	0.551627	-1.157638	99
Es	1.620963	2.893217	1.486392	99
Es	-1.109511	-2.525447	-1.555568	99
47
Properties=species:S:1:pos:R:3:Z:I:1 energy=-305.28139405268354 field_type=dipole dipole="0.000000 0.000000 0.000000" charge=0
C	-1.336036	-2.595567	-0.845310	6
N	-1.396346	-1.299037	-0.185260	7
C	-0.108727	-0.597507	-0.203990	6
C	0.077024	0.551673	-1.157800	6
C	-0.055506	0.816633	0.320260	6
C	1.118803	1.258103	1.129600	6
N	1.112804	2.710763	1.189250	7
H	-2.330467	-3.051887	-0.848980	1
H	-0.653466	-3.273887	-0.322960	1
H	-1.011036	-2.495127	-1.885550	1
H	-1.719576	-1.426117	0.773860	1
H	0.762954	-1.217267	-0.002650	1
H	-0.756016	0.830773	-1.793430	1
H	1.046874	0.667463	-1.625700	1
H	-0.984226	1.248663	0.677890	1
H	2.062703	0.907923	0.697580	1
H	1.040474	0.850443	2.142340	1
H	1.193514	3.084444	0.244990	1
H	1.936254	3.029513	1.695860	1
Es	-0.482721	0.736516	-1.584637	99
Es	-0.821311	-1.011864	-0.184213	99
Es	-0.005145	-0.147363	-0.839340	99
Es	0.077023	0.551625	-1.157638	99
Es	-0.055464	0.816505	0.320117	99
Es	0.038486	0.881484	-0.456629	99
Es	-1.395888	-1.299421	-0.184945	99
Es	-0.108852	-0.597391	-0.204017	99
Es	-0.104094	0.038614	0.238697	99
Es	-0.682299	1.101034	0.556297	99
Es	1.113325	2.710551	1.188973	99
Es	1.139241	2.079981	1.155419	99
Es	1.065996	0.976800	1.827387	99
Es	0.540548	1.025215	0.709890	99
Es	-1.622032	-1.100379	-0.344126	99
Es	-1.566151	-1.391782	0.405982	99
Es	1.118789	1.258240	1.129591	99
Es	0.491466	-1.021403	-0.067895	99
Es	-1.344458	-1.872282	-0.461753	99
Es	1.180518	2.926398	0.610645	99
Es	-1.336042	-2.595452	-0.845247	99
Es	-0.861223	-3.067744	-0.485580	99
Es	1.620245	2.893385	1.486726	99
Es	-2.011053	-2.907338	-0.841661	99
Es	1.768210	1.004189	0.823829	99
Es	0.825322	2.828304	1.340040	99
Es	0.741380	0.633924	-1.468510	99
Es	-1.109621	-2.525578	-1.555886	99
47
Properties=species:S:1:pos:R:3:Z:I:1 energy=-305.28139405268354 field_type=dipole dipole="0.000000 0.000000 0.000000" charge=0
C	-1.336036	-2.595567	-0.845310	6
N	-1.396346	-1.299037	-0.185260	7
C	-0.108727	-0.597507	-0.203990	6
C	0.077024	0.551673	-1.157800	6
C	-0.055506	0.816633	0.320260	6
C	1.118803	1.258103	1.129600	6
N	1.112804	2.710763	1.189250	7
H	-2.330467	-3.051887	-0.848980	1
H	-0.653466	-3.273887	-0.322960	1
H	-1.011036	-2.495127	-1.885550	1
H	-1.719576	-1.426117	0.773860	1
H	0.762954	-1.217267	-0.002650	1
H	-0.756016	0.830773	-1.793430	1
H	1.046874	0.667463	-1.625700	1
H	-0.984226	1.248663	0.677890	1
H	2.062703	0.907923	0.697580	1
H	1.040474	0.850443	2.142340	1
H	1.193514	3.084444	0.244990	1
H	1.936254	3.029513	1.695860	1
Es	0.826048	2.828677	1.340546	99
Es	-1.109597	-2.525757	-1.556074	99
Es	-1.565946	-1.391741	0.406266	99
Es	-1.395848	-1.299465	-0.184919	99
Es	0.038608	0.881952	-0.456840	99
Es	-0.108853	-0.597398	-0.204027	99
Es	1.113302	2.710569	1.188989	99
Es	0.741194	0.633888	-1.468569	99
Es	1.767997	1.004345	0.823727	99
Es	-0.821723	-1.011466	-0.184622	99
Es	-0.005041	-0.147638	-0.839482	99
Es	-1.621749	-1.100779	-0.343612	99
Es	-0.682094	1.101219	0.556264	99
Es	0.491317	-1.021281	-0.067770	99
Es	-0.104278	0.038574	0.239022	99
Es	-0.055464	0.816517	0.320117	99
Es	1.138766	2.079777	1.155805	99
Es	0.540547	1.025110	0.709795	99
Es	1.066055	0.976546	1.827520	99
Es	1.620188	2.892908	1.486025	99
Es	1.180285	2.926727	0.610412	99
Es	-0.861442	-3.067768	-0.485480	99
Es	-1.344541	-1.872232	-0.462092	99
Es	-1.336042	-2.595449	-0.845247	99
Es	1.118789	1.258239	1.129592	99
Es	-0.482506	0.736277	-1.584588	99
Es	-2.010799	-2.907208	-0.841606	99
Es	0.077022	0.551625	-1.157633	99
47
Properties=species:S:1:pos:R:3:Z:I:1 energy=-305.28139405268354 field_type=dipole dipole="0.000000 0.000000 0.000000" charge=0
C	-1.336036	-2.595567	-0.845310	6
N	-1.396346	-1.299037	-0.185260	7
C	-0.108727	-0.597507	-0.203990	6
C	0.077024	0.551673	-1.157800	6
C	-0.055506	0.816633	0.320260	6
C	1.118803	1.258103	1.129600	6
N	1.112804	2.710763	1.189250	7
H	-2.330467	-3.051887	-0.848980	1
H	-0.653466	-3.273887	-0.322960	1
H	-1.011036	-2.495127	-1.885550	1
H	-1.719576	-1.426117	0.773860	1
H	0.762954	-1.217267	-0.002650	1
H	-0.756016	0.830773	-1.793430	1
H	1.046874	0.667463	-1.625700	1
H	-0.984226	1.248663	0.677890	1
H	2.062703	0.907923	0.697580	1
H	1.040474	0.850443	2.142340	1
H	1.193514	3.084444	0.244990	1
H	1.936254	3.029513	1.695860	1
Es	-0.861571	-3.067906	-0.485449	99
Es	-1.344705	-1.872309	-0.462237	99
Es	-0.004967	-0.147659	-0.839874	99
Es	0.826451	2.828026	1.339830	99
Es	0.540516	1.025191	0.709809	99
Es	0.491194	-1.021257	-0.067924	99
Es	-0.103971	0.038289	0.239322	99
Es	-0.482311	0.736282	-1.584458	99
Es	1.180339	2.927056	0.610274	99
Es	1.113282	2.710577	1.189023	99
Es	1.767922	1.004323	0.823671	99
Es	-1.566215	-1.391526	0.406472	99
Es	-0.682002	1.100994	0.556387	99
Es	0.077023	0.551624	-1.157637	99
Es	1.619544	2.893336	1.486717	99
Es	-2.010433	-2.907002	-0.841493	99
Es	-0.055466	0.816508	0.320119	99
Es	-0.108851	-0.597393	-0.204030	99
Es	0.740988	0.634040	-1.468550	99
Es	0.038547	0.882272	-0.456844	99
Es	-1.109756	-2.525752	-1.556369	99
Es	-0.821916	-1.011636	-0.184543	99
Es	1.138917	2.079756	1.155883	99
Es	1.065976	0.976429	1.827534	99
Es	1.118789	1.258240	1.129591	99
Es	-1.621202	-1.100858	-0.343510	99
Es	-1.336041	-2.595453	-0.845247	99
Es	-1.395888	-1.299426	-0.184948	99
47
Properties=species:S:1:pos:R:3:Z:I:1 energy=-305.28139405268354 field_type=dipole dipole="0.000000 0.000000 0.000000" charge=0
C	-1.336036	-2.595567	-0.845310	6
N	-1.396346	-1.299037	-0.185260	7
C	-0.108727	-0.597507	-0.203990	6
C	0.077024	0.551673	-1.157800	6
C	-0.055506	0.816633	0.320260	6
C	1.118803	1.258103	1.129600	6
N	1.112804	2.710763	1.189250	7
H	-2.330467	-3.051887	-0.848980	1
H	-0.653466	-3.273887	-0.322960	1
H	-1.011036	-2.495127	-1.885550	1
H	-1.719576	-1.426117	0.773860	1
H	0.762954	-1.217267	-0.002650	1
H	-0.756016	0.830773	-1.793430	1
H	1.046874	0.667463	-1.625700	1
H	-0.984226	1.248663	0.677890	1
H	2.062703	0.907923	0.697580	1
H	1.040474	0.850443	2.142340	1
H	1.193514	3.084444	0.244990	1
H	1.936254	3.029513	1.695860	1
Es	0.540529	1.025272	0.709724	99
Es	-1.621300	-1.101606	-0.343114	99
Es	0.491091	-1.021264	-0.067938	99
Es	1.118788	1.258241	1.129592	99
Es	0.826611	2.827764	1.339179	99
Es	0.740960	0.634023	-1.468634	99
Es	1.767769	1.004307	0.823616	99
Es	-1.336041	-2.595453	-0.845247	99
Es	1.180652	2.927052	0.610211	99
Es	-0.108850	-0.597395	-0.204034	99
Es	1.113286	2.710584	1.188989	99
Es	0.077023	0.551623	-1.157636	99
Es	-0.822082	-1.010830	-0.185155	99
Es	-1.395885	-1.299393	-0.184965	99
Es	-0.861641	-3.067936	-0.485380	99
Es	-0.681874	1.101072	0.556385	99
Es	-0.055464	0.816504	0.320114	99
Es	-0.005099	-0.147871	-0.839986	99
Es	1.138998	2.079645	1.155967	99
Es	-0.482226	0.736398	-1.584307	99
Es	-2.010278	-2.906943	-0.841499	99
Es	-1.565963	-1.391537	0.406639	99
Es	-1.344581	-1.872354	-0.462213	99
Es	1.619034	2.893711	1.487264	99
Es	-0.104111	0.038226	0.239753	99
Es	0.038670	0.882351	-0.457009	99
Es	1.065914	0.976337	1.827674	99
Es	-1.109737	-2.525761	-1.556472	99
47
Properties=species:S:1:pos:R:3:Z:I:1 energy=-305.28139405268354 field_type=dipole dipole="0.000000 0.000000 0.000000" charge=0
C	-1.336036	-2.595567	-0.845310	6
N	-1.396346	-1.299037	-0.185260	7
C	-0.108727	-0.597507	-0.203990	6
C	0.077024	0.551673	-1.157800	6
C	-0.055506	0.816633	0.320260	6
C	1.118803	1.258103	1.129600	6
N	1.112804	2.710763	1.189250	7
H	-2.330467	-3.051887	-0.848980	1
H	-0.653466	-3.273887	-0.322960	1
H	-1.011036	-2.495127	-1.885550	1
H	-1.719576	-1.426117	0.773860	1
H	0.762954	-1.217267	-0.002650	1
H	-0.756016	0.830773	-1.793430	1
H	1.046874	0.667463	-1.625700	1
H	-0.984226	1.248663	0.677890	1
H	2.062703	0.907923	0.697580	1
H	1.040474	0.850443	2.142340	1
H	1.193514	3.084444	0.244990	1
H	1.936254	3.029513	1.695860	1
Es	-1.565818	-1.391492	0.406738	99
Es	-1.621175	-1.102049	-0.342688	99
Es	-1.336041	-2.595452	-0.845247	99
Es	-1.109886	-2.525910	-1.556571	99
Es	0.740996	0.633992	-1.468620	99
Es	-0.822219	-1.010284	-0.185485	99
Es	-0.482204	0.736405	-1.584325	99
Es	-0.108850	-0.597394	-0.204029	99
Es	-1.395884	-1.299427	-0.184952	99
Es	1.066001	0.976128	1.827741	99
Es	0.490966	-1.021213	-0.067946	99
Es	1.767531	1.004355	0.823471	99
Es	-0.005128	-0.147870	-0.840237	99
Es	0.826913	2.827766	1.339521	99
Es	1.113344	2.710542	1.188971	99
Es	1.118789	1.258242	1.129591	99
Es	-0.055463	0.816506	0.320115	99
Es	1.618826	2.893470	1.487000	99
Es	1.180484	2.927415	0.610114	99
Es	-0.104121	0.038120	0.239957	99
Es	0.540541	1.025392	0.709814	99
Es	-2.010046	-2.906821	-0.841442	99
Es	1.139059	2.079625	1.156006	99
Es	-0.861719	-3.068017	-0.485356	99
Es	0.038650	0.882448	-0.456973	99
Es	-0.681813	1.100991	0.556369	99
Es	-1.344559	-1.872324	-0.462380	99
Es	0.077023	0.551624	-1.157637	99
47
Properties=species:S:1:pos:R:3:Z:I:1 energy=-305.28139405268354 field_type=dipole dipole="0.000000 0.000000 0.000000" charge=0
C	-1.336036	-2.595567	-0.845310	6
N	-1.396346	-1.299037	-0.185260	7
C	-0.108727	-0.597507	-0.203990	6
C	0.077024	0.551673	-1.157800	6
C	-0.055506	0.816633	0.320260	6
C	1.118803	1.258103	1.129600	6
N	1.112804	2.710763	1.189250	7
H	-2.330467	-3.051887	-0.848980	1
H	-0.653466	-3.273887	-0.322960	1
H	-1.011036	-2.495127	-1.885550	1
H	-1.719576	-1.426117	0.773860	1
H	0.762954	-1.217267	-0.002650	1
H	-0.756016	0.830773	-1.793430	1
H	1.046874	0.667463	-1.625700	1
H	-0.984226	1.248663	0.677890	1
H	2.062703	0.907923	0.697580	1
H	1.040474	0.850443	2.142340	1
H	1.193514	3.084444	0.244990	1
H	1.936254	3.029513	1.695860	1
Es	-0.681649	1.101028	0.556423	99
Es	-0.482105	0.736412	-1.584302	99
Es	0.077023	0.551624	-1.157636	99
Es	-1.336042	-2.595452	-0.845247	99
Es	-0.822272	-1.010479	-0.185594	99
Es	-0.055463	0.816506	0.320115	99
Es	0.540537	1.025277	0.709741	99
Es	-0.005094	-0.147926	-0.840374	99
Es	-0.108850	-0.597395	-0.204030	99
Es	1.065978	0.976085	1.827703	99
Es	0.038702	0.882634	-0.456987	99
Es	0.827369	2.827916	1.339681	99
Es	-0.861932	-3.068092	-0.485221	99
Es	-1.395896	-1.299419	-0.184956	99
Es	1.767531	1.004372	0.823493	99
Es	-1.109754	-2.525965	-1.556662	99
Es	1.118788	1.258241	1.129592	99
Es	0.490910	-1.021181	-0.068067	99
Es	-0.104165	0.038047	0.240250	99
Es	0.740823	0.633979	-1.468593	99
Es	1.180378	2.927660	0.610007	99
Es	-1.344804	-1.872070	-0.462594	99
Es	1.138732	2.079537	1.156254	99
Es	1.618772	2.893202	1.486669	99
Es	-2.009865	-2.906689	-0.841540	99
Es	1.113311	2.710569	1.189002	99
Es	-1.565961	-1.391572	0.407013	99
Es	-1.620809	-1.102082	-0.342621	99
