41
Properties=species:S:1:pos:R:3:Z:I:1 energy=-302.950761068114 field_type=dipole dipole="0.000000 0.000000 0.000000" charge=0
C	-0.200113	-2.200888	-0.405694	6
N	-0.760553	-1.016328	0.235386	7
C	0.196917	0.100102	0.272026	6
C	0.319277	0.995032	-0.928604	6
C	-0.326973	1.517482	0.328736	6
C	0.372427	2.481232	1.127356	6
N	0.945247	3.256662	1.774286	7
H	-0.950403	-2.997208	-0.423644	1
H	0.675637	-2.569968	0.137866	1
H	0.086307	-1.991208	-1.441254	1
H	-1.056043	-1.266158	1.180846	1
H	1.115627	-0.107368	0.820156	1
H	-0.322913	0.805022	-1.781314	1
H	1.309506	1.346822	-1.195934	1
H	-1.403943	1.646772	0.299786	1
Es	1.126736	3.502587	1.978246	99
Es	0.669440	2.722285	1.729459	99
Es	-0.001864	-2.051873	-1.108365	99
Es	0.196739	0.100205	0.271968	99
Es	0.822533	-0.031591	0.644702	99
Es	0.928266	2.879888	1.289623	99
Es	-0.710932	-2.741291	-0.411514	99
Es	0.044927	2.022387	0.747303	99
Es	-0.908964	-1.168561	0.813072	99
Es	-0.118906	0.829101	0.497370	99
Es	0.983559	1.236121	-1.098048	99
Es	0.408240	-2.454103	-0.032006	99
Es	-1.040741	-0.904849	0.054869	99
Es	0.372253	2.480988	1.127158	99
Es	-0.200166	-2.200767	-0.405628	99
Es	0.340281	0.407682	-0.430047	99
Es	-0.117488	0.869681	-1.492063	99
Es	-0.322474	-0.533295	0.267644	99
Es	-0.023095	1.447206	-0.341481	99
Es	0.319212	0.995036	-0.928408	99
Es	0.945036	3.256374	1.774046	99
Es	-0.487604	-1.523028	-0.026614	99
Es	-1.030478	1.612244	0.319137	99
Es	-0.759998	-1.016490	0.235713	99
Es	0.461786	3.109171	1.423043	99
Es	-0.326785	1.517470	0.328733	99
41
Properties=species:S:1:pos:R:3:Z:I:1 energy=-302.950761068114 field_type=dipole dipole="0.000000 0.000000 0.000000" charge=0
C	-0.200113	-2.200888	-0.405694	6
N	-0.760553	-1.016328	0.235386	7
C	0.196917	0.100102	0.272026	6
C	0.319277	0.995032	-0.928604	6
C	-0.326973	1.517482	0.328736	6
C	0.372427	2.481232	1.127356	6
N	0.945247	3.256662	1.774286	7
H	-0.950403	-2.997208	-0.423644	1
H	0.675637	-2.569968	0.137866	1
H	0.086307	-1.991208	-1.441254	1
H	-1.056043	-1.266158	1.180846	1
H	1.115627	-0.107368	0.820156	1
H	-0.322913	0.805022	-1.781314	1
H	1.309506	1.346822	-1.195934	1
H	-1.403943	1.646772	0.299786	1
Es	-0.120523	0.830150	0.496723	99
Es	0.319208	0.995047	-0.928404	99
Es	-0.117269	0.868158	-1.493759	99
Es	-0.200166	-2.200771	-0.405628	99
Es	0.850432	2.679313	1.603675	99
Es	0.372253	2.480999	1.127154	99
Es	-0.492397	-1.524611	-0.033173	99
Es	-0.711201	-2.742535	-0.411803	99
Es	-1.027764	1.610767	0.318577	99
Es	-0.909135	-1.168738	0.812055	99
Es	-0.001270	-2.052092	-1.107351	99
Es	0.196745	0.100198	0.271961	99
Es	0.407543	-2.453502	-0.033079	99
Es	0.343067	0.408520	-0.429966	99
Es	0.821349	-0.031297	0.644236	99
Es	0.945031	3.256365	1.774038	99
Es	0.982010	1.235436	-1.096939	99
Es	0.787668	3.048301	1.230675	99
Es	-0.326784	1.517463	0.328731	99
Es	-0.760027	-1.016487	0.235721	99
Es	-1.035207	-0.905716	0.063834	99
Es	-0.024969	1.447078	-0.340291	99
Es	-0.322597	-0.530637	0.265730	99
Es	0.423661	2.981102	1.604021	99
Es	0.046849	2.023572	0.747973	99
Es	1.123008	3.506493	1.983202	99
41
Properties=species:S:1:pos:R:3:Z:I:1 energy=-302.950761068114 field_type=dipole dipole="0.000000 0.000000 0.000000" charge=0
C	-0.200113	-2.200888	-0.405694	6
N	-0.760553	-1.016328	0.235386	7
C	0.196917	0.100102	0.272026	6
C	0.319277	0.995032	-0.928604	6
C	-0.326973	1.517482	0.328736	6
C	0.372427	2.481232	1.127356	6
N	0.945247	3.256662	1.774286	7
H	-0.950403	-2.997208	-0.423644	1
H	0.675637	-2.569968	0.137866	1
H	0.086307	-1.991208	-1.441254	1
H	-1.056043	-1.266158	1.180846	1
H	1.115627	-0.107368	0.820156	1
H	-0.322913	0.805022	-1.781314	1
H	1.309506	1.346822	-1.195934	1
H	-1.403943	1.646772	0.299786	1
Es	0.980812	1.234677	-1.096437	99
Es	-0.496122	-1.525262	-0.037973	99
Es	-0.760016	-1.016486	0.235704	99
Es	-0.025850	1.447331	-0.339432	99
Es	0.945026	3.256359	1.774035	99
Es	-0.908211	-1.169185	0.810875	99
Es	0.372258	2.480984	1.127150	99
Es	-1.031994	-0.906047	0.070098	99
Es	-0.117398	0.867180	-1.494699	99
Es	0.820681	-0.031125	0.643974	99
Es	1.120930	3.509219	1.984662	99
Es	0.835141	3.005248	1.236320	99
Es	-0.200168	-2.200768	-0.405627	99
Es	-0.121662	0.830599	0.496224	99
Es	0.319207	0.995046	-0.928402	99
Es	0.047576	2.024370	0.748507	99
Es	-0.711523	-2.743513	-0.412190	99
Es	0.426726	3.020674	1.550471	99
Es	0.344753	0.409154	-0.429534	99
Es	-0.326784	1.517467	0.328735	99
Es	-0.000774	-2.052074	-1.106410	99
Es	0.801331	2.680704	1.650568	99
Es	-1.025478	1.610098	0.318196	99
Es	-0.322699	-0.529256	0.264969	99
Es	0.407006	-2.453020	-0.033825	99
Es	0.196746	0.100204	0.271954	99
41
Properties=species:S:1:pos:R:3:Z:I:1 energy=-302.950761068114 field_type=dipole dipole="0.000000 0.000000 0.000000" charge=0
C	-0.200113	-2.200888	-0.405694	6
N	-0.760553	-1.016328	0.235386	7
C	0.196917	0.100102	0.272026	6
C	0.319277	0.995032	-0.928604	6
C	-0.326973	1.517482	0.328736	6
C	0.372427	2.481232	1.127356	6
N	0.945247	3.256662	1.774286	7
H	-0.950403	-2.997208	-0.423644	1
H	0.675637	-2.569968	0.137866	1
H	0.086307	-1.991208	-1.441254	1
H	-1.056043	-1.266158	1.180846	1
H	1.115627	-0.107368	0.820156	1
H	-0.322913	0.805022	-1.781314	1
H	1.309506	1.346822	-1.195934	1
H	-1.403943	1.646772	0.299786	1
Es	-0.326782	1.517465	0.328728	99
Es	0.372256	2.480984	1.127147	99
Es	0.865026	2.684185	1.581103	99
Es	-0.322530	-0.528651	0.264449	99
Es	-0.711755	-2.744045	-0.412643	99
Es	-1.023757	1.609621	0.318025	99
Es	0.196745	0.100200	0.271959	99
Es	0.047854	2.024864	0.748991	99
Es	0.406764	-2.452850	-0.034369	99
Es	0.820418	-0.031050	0.643744	99
Es	0.319207	0.995045	-0.928405	99
Es	-1.029079	-0.906146	0.074647	99
Es	0.759753	3.065006	1.234153	99
Es	0.979745	1.234183	-1.095814	99
Es	-0.026212	1.447453	-0.339165	99
Es	0.438305	2.957775	1.620450	99
Es	-0.200168	-2.200768	-0.405627	99
Es	-0.907670	-1.169297	0.810030	99
Es	0.345784	0.410270	-0.429097	99
Es	-0.117496	0.866172	-1.495653	99
Es	-0.499467	-1.525728	-0.041506	99
Es	-0.122570	0.830896	0.495966	99
Es	1.120697	3.509096	1.986681	99
Es	0.945026	3.256360	1.774035	99
Es	-0.759983	-1.016492	0.235741	99
Es	-0.000598	-2.051969	-1.105655	99
41
Properties=species:S:1:pos:R:3:Z:I:1 energy=-302.950761068114 field_type=dipole dipole="0.000000 0.000000 0.000000" charge=0
C	-0.200113	-2.200888	-0.405694	6
N	-0.760553	-1.016328	0.235386	7
C	0.196917	0.100102	0.272026	6
C	0.319277	0.995032	-0.928604	6
C	-0.326973	1.517482	0.328736	6
C	0.372427	2.481232	1.127356	6
N	0.945247	3.256662	1.774286	7
H	-0.950403	-2.997208	-0.423644	1
H	0.675637	-2.569968	0.137866	1
H	0.086307	-1.991208	-1.441254	1
H	-1.056043	-1.266158	1.180846	1
H	1.115627	-0.107368	0.820156	1
H	-0.322913	0.805022	-1.781314	1
H	1.309506	1.346822	-1.195934	1
H	-1.403943	1.646772	0.299786	1
Es	-0.117561	0.865437	-1.496223	99
Es	-0.759995	-1.016483	0.235724	99
Es	-0.502254	-1.525753	-0.044538	99
Es	0.048368	2.025170	0.749065	99
Es	0.945027	3.256361	1.774036	99
Es	-0.322405	-0.528069	0.264304	99
Es	-1.026758	-0.906400	0.078262	99
Es	0.196738	0.100201	0.271973	99
Es	0.933978	2.758261	1.421317	99
Es	-1.022345	1.609554	0.317925	99
Es	-0.712040	-2.744629	-0.413035	99
Es	1.123001	3.509253	1.985897	99
Es	-0.907132	-1.169578	0.809091	99
Es	0.346487	0.411036	-0.428703	99
Es	0.820244	-0.030974	0.643778	99
Es	0.406776	-2.452538	-0.034816	99
Es	-0.200170	-2.200770	-0.405627	99
Es	-0.326783	1.517468	0.328732	99
Es	0.319205	0.995044	-0.928393	99
Es	0.372252	2.480982	1.127144	99
Es	0.529658	2.823610	1.718706	99
Es	0.596782	3.125234	1.296604	99
Es	-0.000586	-2.051948	-1.104765	99
Es	-0.123264	0.830740	0.495668	99
Es	0.979038	1.233883	-1.095409	99
Es	-0.026744	1.447485	-0.338801	99
41
Properties=species:S:1:pos:R:3:Z:I:1 energy=-302.950761068114 field_type=dipole dipole="0.000000 0.000000 0.000000" charge=0
C	-0.200113	-2.200888	-0.405694	6
N	-0.760553	-1.016328	0.235386	7
C	0.196917	0.100102	0.272026	6
C	0.319277	0.995032	-0.928604	6
C	-0.326973	1.517482	0.328736	6
C	0.372427	2.481232	1.127356	6
N	0.945247	3.256662	1.774286	7
H	-0.950403	-2.997208	-0.423644	1
H	0.675637	-2.569968	0.137866	1
H	0.086307	-1.991208	-1.441254	1
H	-1.056043	-1.266158	1.180846	1
H	1.115627	-0.107368	0.820156	1
H	-0.322913	0.805022	-1.781314	1
H	1.309506	1.346822	-1.195934	1
H	-1.403943	1.646772	0.299786	1
Es	1.122490	3.508868	1.987447	99
Es	0.406541	-2.452394	-0.035153	99
Es	0.048196	2.025497	0.749417	99
Es	0.372249	2.480984	1.127149	99
Es	-0.712298	-2.745064	-0.413592	99
Es	0.347282	0.411564	-0.428512	99
Es	-1.025129	-0.906589	0.081324	99
Es	-0.326785	1.517463	0.328740	99
Es	0.925500	2.735451	1.456272	99
Es	-0.322282	-0.527715	0.264237	99
Es	0.319204	0.995049	-0.928400	99
Es	-0.026944	1.447659	-0.338817	99
Es	0.945026	3.256360	1.774035	99
Es	-0.504748	-1.525664	-0.046955	99
Es	-0.000348	-2.051830	-1.103972	99
Es	0.819994	-0.030868	0.643793	99
Es	-0.117635	0.864958	-1.496707	99
Es	0.978177	1.233510	-1.095085	99
Es	-0.123969	0.830904	0.495509	99
Es	-1.020868	1.609280	0.317947	99
Es	-0.759973	-1.016492	0.235751	99
Es	0.631659	3.119179	1.276214	99
Es	-0.906200	-1.169851	0.808217	99
Es	0.196742	0.100204	0.271964	99
Es	0.503803	2.852882	1.702719	99
Es	-0.200168	-2.200769	-0.405628	99
41
Properties=species:S:1:pos:R:3:Z:I:1 energy=-302.950761068114 field_type=dipole dipole="0.000000 0.000000 0.000000" charge=0
C	-0.200113	-2.200888	-0.405694	6
N	-0.760553	-1.016328	0.235386	7
C	0.196917	0.100102	0.272026	6
C	0.319277	0.995032	-0.928604	6
C	-0.326973	1.517482	0.328736	6
C	0.372427	2.481232	1.127356	6
N	0.945247	3.256662	1.774286	7
H	-0.950403	-2.997208	-0.423644	1
H	0.675637	-2.569968	0.137866	1
H	0.086307	-1.991208	-1.441254	1
H	-1.056043	-1.266158	1.180846	1
H	1.115627	-0.107368	0.820156	1
H	-0.322913	0.805022	-1.781314	1
H	1.309506	1.346822	-1.195934	1
H	-1.403943	1.646772	0.299786	1
Es	0.907296	2.711177	1.503705	99
Es	-0.712380	-2.745320	-0.413880	99
Es	-1.023221	-0.906691	0.083834	99
Es	-0.000398	-2.051773	-1.103496	99
Es	0.977636	1.233024	-1.094847	99
Es	-0.759978	-1.016487	0.235750	99
Es	-0.200168	-2.200767	-0.405626	99
Es	-0.326784	1.517466	0.328735	99
Es	1.121325	3.508938	1.988715	99
Es	0.678029	3.105263	1.254511	99
Es	-0.124426	0.831116	0.495421	99
Es	0.319206	0.995048	-0.928399	99
Es	0.372254	2.480976	1.127149	99
Es	0.819818	-0.030860	0.643695	99
Es	0.476837	2.891025	1.675814	99
Es	-0.905824	-1.170007	0.807590	99
Es	-0.117649	0.864293	-1.497019	99
Es	0.048092	2.025780	0.749639	99
Es	-0.322105	-0.527593	0.264266	99
Es	-1.019911	1.609073	0.317858	99
Es	0.945025	3.256360	1.774035	99
Es	-0.507072	-1.525556	-0.049110	99
Es	-0.027043	1.447915	-0.338671	99
Es	0.406528	-2.452293	-0.035464	99
Es	0.196741	0.100202	0.271966	99
Es	0.347684	0.412268	-0.428255	99
41
Properties=species:S:1:pos:R:3:Z:I:1 energy=-302.950761068114 field_type=dipole dipole="0.000000 0.000000 0.000000" charge=0
C	-0.200113	-2.200888	-0.405694	6
N	-0.760553	-1.016328	0.235386	7
C	0.196917	0.100102	0.272026	6
C	0.319277	0.995032	-0.928604	6
C	-0.326973	1.517482	0.328736	6
C	0.372427	2.481232	1.127356	6
N	0.945247	3.256662	1.774286	7
H	-0.950403	-2.997208	-0.423644	1
H	0.675637	-2.569968	0.137866	1
H	0.086307	-1.991208	-1.441254	1
H	-1.056043	-1.266158	1.180846	1
H	1.115627	-0.107368	0.820156	1
H	-0.322913	0.805022	-1.781314	1
H	1.309506	1.346822	-1.195934	1
H	-1.403943	1.646772	0.299786	1
Es	0.347871	0.412957	-0.428277	99
Es	1.119830	3.509954	1.988919	99
Es	-0.117631	0.863741	-1.497259	99
Es	-0.124844	0.831833	0.495557	99
Es	0.319204	0.995049	-0.928398	99
Es	0.977239	1.232432	-1.094645	99
Es	0.372257	2.480978	1.127143	99
Es	0.196741	0.100206	0.271965	99
Es	-0.759991	-1.016493	0.235734	99
Es	-1.021056	-0.906860	0.086296	99
Es	-0.509496	-1.525390	-0.051240	99
Es	-0.200168	-2.200770	-0.405628	99
Es	0.862606	2.684584	1.580995	99
Es	-1.019531	1.608987	0.317762	99
Es	-0.321869	-0.527538	0.264417	99
Es	0.048189	2.025975	0.749626	99
Es	0.449754	2.953141	1.617725	99
Es	-0.905612	-1.170071	0.806864	99
Es	-0.000296	-2.051740	-1.102974	99
Es	0.751237	3.068578	1.235414	99
Es	0.406392	-2.452221	-0.035695	99
Es	0.819719	-0.030878	0.643355	99
Es	-0.326783	1.517474	0.328728	99
Es	-0.026837	1.447851	-0.338229	99
Es	-0.712438	-2.745564	-0.414277	99
Es	0.945027	3.256361	1.774036	99
41
Properties=species:S:1:pos:R:3:Z:I:1 energy=-302.950761068114 field_type=dipole dipole="0.000000 0.000000 0.000000" charge=0
C	-0.200113	-2.200888	-0.405694	6
N	-0.760553	-1.016328	0.235386	7
C	0.196917	0.100102	0.272026	6
C	0.319277	0.995032	-0.928604	6
C	-0.326973	1.517482	0.328736	6
C	0.372427	2.481232	1.127356	6
N	0.945247	3.256662	1.774286	7
H	-0.950403	-2.997208	-0.423644	1
H	0.675637	-2.569968	0.137866	1
H	0.086307	-1.991208	-1.441254	1
H	-1.056043	-1.266158	1.180846	1
H	1.115627	-0.107368	0.820156	1
H	-0.322913	0.805022	-1.781314	1
H	1.309506	1.346822	-1.195934	1
H	-1.403943	1.646772	0.299786	1
Es	-1.018326	1.608889	0.317778	99
Es	0.514128	2.843889	1.705650	99
Es	-0.027269	1.448396	-0.338337	99
Es	-0.326782	1.517466	0.328728	99
Es	0.923949	2.742999	1.448362	99
Es	-0.712712	-2.745729	-0.414755	99
Es	-0.125088	0.831093	0.495074	99
Es	-1.020666	-0.907334	0.088135	99
Es	-0.322056	-0.527012	0.264205	99
Es	-0.200168	-2.200769	-0.405628	99
Es	0.319209	0.995048	-0.928407	99
Es	0.622780	3.120622	1.280382	99
Es	0.976594	1.232376	-1.094468	99
Es	0.372255	2.480977	1.127144	99
Es	0.819683	-0.030796	0.643717	99
Es	0.945027	3.256361	1.774037	99
Es	1.122436	3.509014	1.988495	99
Es	-0.000193	-2.051702	-1.102327	99
Es	-0.510851	-1.525113	-0.052535	99
Es	0.196742	0.100203	0.271965	99
Es	0.406381	-2.452204	-0.035756	99
Es	0.048220	2.026155	0.749725	99
Es	-0.117722	0.863526	-1.497489	99
Es	-0.904424	-1.170337	0.806162	99
Es	-0.759973	-1.016495	0.235754	99
Es	0.348342	0.413055	-0.427696	99
41
Properties=species:S:1:pos:R:3:Z:I:1 energy=-302.950761068114 field_type=dipole dipole="0.000000 0.000000 0.000000" charge=0
C	-0.200113	-2.200888	-0.405694	6
N	-0.760553	-1.016328	0.235386	7
C	0.196917	0.100102	0.272026	6
C	0.319277	0.995032	-0.928604	6
C	-0.326973	1.517482	0.328736	6
C	0.372427	2.481232	1.127356	6
N	0.945247	3.256662	1.774286	7
H	-0.950403	-2.997208	-0.423644	1
H	0.675637	-2.569968	0.137866	1
H	0.086307	-1.991208	-1.441254	1
H	-1.056043	-1.266158	1.180846	1
H	1.115627	-0.107368	0.820156	1
H	-0.322913	0.805022	-1.781314	1
H	1.309506	1.346822	-1.195934	1
H	-1.403943	1.646772	0.299786	1
Es	0.048211	2.026236	0.749840	99
Es	0.945025	3.256357	1.774032	99
Es	0.500556	2.862897	1.693212	99
Es	0.976440	1.232159	-1.094333	99
Es	-0.326778	1.517468	0.328716	99
Es	0.319207	0.995046	-0.928402	99
Es	-0.321777	-0.527242	0.264218	99
Es	-0.200167	-2.200769	-0.405628	99
Es	1.122190	3.508950	1.989067	99
Es	0.406286	-2.452146	-0.035965	99
Es	0.372249	2.480986	1.127138	99
Es	0.917425	2.728693	1.471619	99
Es	-1.017625	1.608894	0.317792	99
Es	0.643176	3.115917	1.269083	99
Es	-0.904280	-1.170375	0.805965	99
Es	-0.027412	1.448485	-0.338270	99
Es	-0.759992	-1.016485	0.235759	99
Es	-0.513021	-1.524845	-0.054256	99
Es	-0.712779	-2.745899	-0.415015	99
Es	-0.117784	0.863235	-1.497649	99
Es	0.819630	-0.030729	0.643645	99
Es	-0.000160	-2.051635	-1.101974	99
Es	0.196743	0.100203	0.271964	99
Es	-0.125495	0.831043	0.495030	99
Es	-1.018746	-0.907412	0.089980	99
Es	0.348392	0.413545	-0.427654	99
41
Properties=species:S:1:pos:R:3:Z:I:1 energy=-302.950761068114 field_type=dipole dipole="0.000000 0.000000 0.000000" charge=0
C	-0.200113	-2.200888	-0.405694	6
N	-0.760553	-1.016328	0.235386	7
C	0.196917	0.100102	0.272026	6
C	0.319277	0.995032	-0.928604	6
C	-0.326973	1.517482	0.328736	6
C	0.372427	2.481232	1.127356	6
N	0.945247	3.256662	1.774286	7
H	-0.950403	-2.997208	-0.423644	1
H	0.675637	-2.569968	0.137866	1
H	0.086307	-1.991208	-1.441254	1
H	-1.056043	-1.266158	1.180846	1
H	1.115627	-0.107368	0.820156	1
H	-0.322913	0.805022	-1.781314	1
H	1.309506	1.346822	-1.195934	1
H	-1.403943	1.646772	0.299786	1
Es	-1.017530	1.608667	0.317840	99
Es	0.975463	1.231387	-1.094148	99
Es	0.372257	2.480978	1.127140	99
Es	-1.019074	-0.907449	0.090790	99
Es	0.048327	2.026653	0.749443	99
Es	-0.125362	0.831526	0.494607	99
Es	0.445677	3.029561	1.524427	99
Es	-0.027424	1.449559	-0.337533	99
Es	-0.117535	0.862817	-1.497802	99
Es	0.945026	3.256363	1.774037	99
Es	1.119115	3.511650	1.988133	99
Es	-0.903471	-1.170255	0.804886	99
Es	-0.760002	-1.016492	0.235719	99
Es	-0.321776	-0.527060	0.264361	99
Es	0.843200	2.990784	1.243888	99
Es	0.196742	0.100200	0.271966	99
Es	-0.000279	-2.051718	-1.101411	99
Es	-0.712757	-2.745993	-0.415440	99
Es	0.775201	2.684151	1.667037	99
Es	0.348794	0.413506	-0.427345	99
Es	-0.326784	1.517476	0.328724	99
Es	-0.513391	-1.524923	-0.054586	99
Es	0.406403	-2.452168	-0.036135	99
Es	0.319206	0.995048	-0.928397	99
Es	-0.200168	-2.200770	-0.405628	99
Es	0.819656	-0.030921	0.643341	99
41
Properties=species:S:1:pos:R:3:Z:I:1 energy=-302.950761068114 field_type=dipole dipole="0.000000 0.000000 0.000000" charge=0
C	-0.200113	-2.200888	-0.405694	6
N	-0.760553	-1.016328	0.235386	7
C	0.196917	0.100102	0.272026	6
C	0.319277	0.995032	-0.928604	6
C	-0.326973	1.517482	0.328736	6
C	0.372427	2.481232	1.127356	6
N	0.945247	3.256662	1.774286	7
H	-0.950403	-2.997208	-0.423644	1
H	0.675637	-2.569968	0.137866	1
H	0.086307	-1.991208	-1.441254	1
H	-1.056043	-1.266158	1.180846	1
H	1.115627	-0.107368	0.820156	1
H	-0.322913	0.805022	-1.781314	1
H	1.309506	1.346822	-1.195934	1
H	-1.403943	1.646772	0.299786	1
Es	-0.125914	0.831073	0.494573	99
Es	-0.759975	-1.016495	0.235729	99
Es	0.319206	0.995048	-0.928401	99
Es	0.603776	3.123587	1.290753	99
Es	0.372268	2.480977	1.127134	99
Es	0.945026	3.256361	1.774036	99
Es	0.819609	-0.030699	0.643763	99
Es	-0.321636	-0.527000	0.264428	99
Es	-0.903824	-1.170363	0.804762	99
Es	0.531439	2.827806	1.712121	99
Es	0.348806	0.414071	-0.427263	99
Es	0.925224	2.755723	1.431782	99
Es	-0.515381	-1.524540	-0.056252	99
Es	-0.200169	-2.200769	-0.405628	99
Es	-0.326781	1.517475	0.328724	99
Es	1.122818	3.509364	1.988424	99
Es	-1.016744	-0.907888	0.092421	99
Es	-0.027601	1.449106	-0.338159	99
Es	-0.117733	0.862665	-1.497863	99
Es	-0.713007	-2.746174	-0.415540	99
Es	-1.016629	1.608724	0.317886	99
Es	-0.000210	-2.051650	-1.101120	99
Es	0.048229	2.026354	0.750002	99
Es	0.406316	-2.452041	-0.036249	99
Es	0.975661	1.231660	-1.094117	99
Es	0.196742	0.100201	0.271966	99
41
Properties=species:S:1:pos:R:3:Z:I:1 energy=-302.950761068114 field_type=dipole dipole="0.000000 0.000000 0.000000" charge=0
C	-0.200113	-2.200888	-0.405694	6
N	-0.760553	-1.016328	0.235386	7
C	0.196917	0.100102	0.272026	6
C	0.319277	0.995032	-0.928604	6
C	-0.326973	1.517482	0.328736	6
C	0.372427	2.481232	1.127356	6
N	0.945247	3.256662	1.774286	7
H	-0.950403	-2.997208	-0.423644	1
H	0.675637	-2.569968	0.137866	1
H	0.086307	-1.991208	-1.441254	1
H	-1.056043	-1.266158	1.180846	1
H	1.115627	-0.107368	0.820156	1
H	-0.322913	0.805022	-1.781314	1
H	1.309506	1.346822	-1.195934	1
H	-1.403943	1.646772	0.299786	1
Es	0.406227	-2.452074	-0.036365	99
Es	0.945026	3.256360	1.774035	99
Es	-0.200169	-2.200769	-0.405628	99
Es	-0.713048	-2.746258	-0.415950	99
Es	-0.760058	-1.016477	0.235679	99
Es	-0.903174	-1.170422	0.804196	99
Es	-1.016286	-0.908191	0.093555	99
Es	-0.125863	0.831185	0.494656	99
Es	1.122595	3.510496	1.987365	99
Es	0.925205	2.819479	1.359209	99
Es	-0.117682	0.862333	-1.497877	99
Es	-0.516258	-1.524395	-0.056884	99
Es	0.372263	2.480974	1.127139	99
Es	0.048425	2.026568	0.749683	99
Es	-1.016485	1.608750	0.317838	99
Es	0.535412	3.121001	1.347414	99
Es	0.319207	0.995047	-0.928403	99
Es	0.196740	0.100205	0.271963	99
Es	-0.326783	1.517470	0.328735	99
Es	-0.000140	-2.051602	-1.100704	99
Es	-0.027683	1.449450	-0.337701	99
Es	0.349059	0.414189	-0.427211	99
Es	0.819425	-0.030738	0.643419	99
Es	0.599917	2.765410	1.729322	99
Es	0.975344	1.231390	-1.094068	99
Es	-0.321700	-0.526803	0.264498	99
41
Properties=species:S:1:pos:R:3:Z:I:1 energy=-302.950761068114 field_type=dipole dipole="0.000000 0.000000 0.000000" charge=0
C	-0.200113	-2.200888	-0.405694	6
N	-0.760553	-1.016328	0.235386	7
C	0.196917	0.100102	0.272026	6
C	0.319277	0.995032	-0.928604	6
C	-0.326973	1.517482	0.328736	6
C	0.372427	2.481232	1.127356	6
N	0.945247	3.256662	1.774286	7
H	-0.950403	-2.997208	-0.423644	1
H	0.675637	-2.569968	0.137866	1
H	0.086307	-1.991208	-1.441254	1
H	-1.056043	-1.266158	1.180846	1
H	1.115627	-0.107368	0.820156	1
H	-0.322913	0.805022	-1.781314	1
H	1.309506	1.346822	-1.195934	1
H	-1.403943	1.646772	0.299786	1
Es	-1.015530	1.608703	0.317957	99
Es	0.515037	2.844711	1.703811	99
Es	-0.326783	1.517472	0.328732	99
Es	0.974865	1.231139	-1.093881	99
Es	-0.517663	-1.523904	-0.058167	99
Es	0.349057	0.414364	-0.426919	99
Es	0.372260	2.480974	1.127141	99
Es	1.122418	3.508874	1.989452	99
Es	-0.713121	-2.746345	-0.416057	99
Es	0.945026	3.256361	1.774035	99
Es	-0.902229	-1.170789	0.803882	99
Es	0.196741	0.100202	0.271965	99
Es	-0.000215	-2.051606	-1.100466	99
Es	0.625014	3.119661	1.279120	99
Es	-0.126419	0.830885	0.494500	99
Es	-0.117740	0.862372	-1.498094	99
Es	0.819630	-0.030677	0.643762	99
Es	-1.016111	-0.908150	0.094713	99
Es	-0.200169	-2.200768	-0.405627	99
Es	0.319204	0.995051	-0.928398	99
Es	-0.027704	1.449697	-0.338222	99
Es	0.406357	-2.451998	-0.036384	99
Es	0.048192	2.026557	0.749985	99
Es	-0.759992	-1.016488	0.235764	99
Es	0.920872	2.743230	1.450715	99
Es	-0.321484	-0.526951	0.264593	99
