47
Properties=species:S:1:pos:R:3:Z:I:1 energy=-305.26295250452876 field_type=dipole dipole="0.000000 0.000000 0.000000" charge=0
C	-0.934518	-1.762531	-1.640766	6
N	-0.825988	-1.217471	-0.293426	7
C	0.071903	-0.054381	-0.306956	6
C	-0.697128	1.235039	-0.674366	6
N	-0.016407	1.918769	0.460944	7
C	0.131943	0.580729	1.110494	6
C	1.441813	0.443209	1.863694	6
H	-1.624448	-2.612591	-1.635176	1
H	0.034202	-2.117811	-2.008206	1
H	-1.332698	-1.022831	-2.343556	1
H	-0.517838	-1.957351	0.336624	1
H	1.042792	-0.185851	-0.798986	1
H	-1.787758	1.201699	-0.557586	1
H	-0.466928	1.655329	-1.658416	1
H	0.870412	2.345229	0.192454	1
H	-0.723358	0.345299	1.760364	1
H	2.304132	0.708309	1.242004	1
H	1.579372	-0.589461	2.201313	1
H	1.450492	1.086669	2.749554	1
Es	-0.825485	-1.217682	-0.293614	99
Es	-0.336223	0.544252	-0.586342	99
Es	-0.537616	1.529088	-1.354743	99
Es	0.741047	-0.141856	-0.646960	99
Es	-1.137145	-1.102788	-0.183629	99
Es	0.533475	2.133855	0.280966	99
Es	-1.402854	-2.346871	-1.638477	99
Es	-0.260752	-2.004532	-1.899580	99
Es	1.441812	0.443197	1.863694	99
Es	-0.607220	-1.667480	0.074982	99
Es	1.532277	-0.264142	2.090481	99
Es	-0.209013	2.169118	0.642116	99
Es	-1.434331	1.201483	-0.587847	99
Es	-0.016151	1.918414	0.460689	99
Es	-0.851808	-1.464114	-0.887126	99
Es	-0.697021	1.235095	-0.674264	99
Es	-0.397557	-0.750820	-0.316363	99
Es	-0.312139	1.675309	-0.066983	99
Es	0.140891	0.176204	0.433344	99
Es	0.131991	0.580859	1.110424	99
Es	0.799122	0.507823	1.494267	99
Es	-0.451213	0.415751	1.544928	99
Es	-1.199870	-1.250191	-2.117567	99
Es	0.071802	-0.054475	-0.306943	99
Es	1.445693	0.881226	2.463830	99
Es	2.026109	0.626981	1.430195	99
Es	-0.934508	-1.762485	-1.640655	99
Es	0.082226	1.366888	0.782515	99
47
Properties=species:S:1:pos:R:3:Z:I:1 energy=-305.26295250452876 field_type=dipole dipole="0.000000 0.000000 0.000000" charge=0
C	-0.934518	-1.762531	-1.640766	6
N	-0.825988	-1.217471	-0.293426	7
C	0.071903	-0.054381	-0.306956	6
C	-0.697128	1.235039	-0.674366	6
N	-0.016407	1.918769	0.460944	7
C	0.131943	0.580729	1.110494	6
C	1.441813	0.443209	1.863694	6
H	-1.624448	-2.612591	-1.635176	1
H	0.034202	-2.117811	-2.008206	1
H	-1.332698	-1.022831	-2.343556	1
H	-0.517838	-1.957351	0.336624	1
H	1.042792	-0.185851	-0.798986	1
H	-1.787758	1.201699	-0.557586	1
H	-0.466928	1.655329	-1.658416	1
H	0.870412	2.345229	0.192454	1
H	-0.723358	0.345299	1.760364	1
H	2.304132	0.708309	1.242004	1
H	1.579372	-0.589461	2.201313	1
H	1.450492	1.086669	2.749554	1
Es	-0.260928	-2.004224	-1.899459	99
Es	-0.825415	-1.217702	-0.293645	99
Es	2.026974	0.627493	1.429892	99
Es	1.445298	0.880491	2.463177	99
Es	-0.934509	-1.762485	-1.640653	99
Es	-1.434311	1.201309	-0.587526	99
Es	-0.207187	2.165532	0.638718	99
Es	-1.136481	-1.102094	-0.185393	99
Es	0.080824	1.366844	0.784941	99
Es	1.441811	0.443197	1.863694	99
Es	0.071802	-0.054476	-0.306943	99
Es	-0.396998	-0.750961	-0.316524	99
Es	0.799049	0.507886	1.494341	99
Es	-1.403066	-2.347306	-1.638478	99
Es	-0.336498	0.544753	-0.585745	99
Es	-0.451658	0.415362	1.545157	99
Es	1.531941	-0.264024	2.091003	99
Es	0.741017	-0.141842	-0.647106	99
Es	0.131989	0.580860	1.110422	99
Es	-0.608865	-1.668066	0.076448	99
Es	-0.697024	1.235096	-0.674265	99
Es	0.141269	0.176687	0.433556	99
Es	-0.537201	1.529137	-1.355505	99
Es	-0.313461	1.675633	-0.066559	99
Es	0.534352	2.136867	0.281347	99
Es	-1.199662	-1.249937	-2.117464	99
Es	-0.851458	-1.464245	-0.886709	99
Es	-0.016068	1.918322	0.460620	99
47
Properties=species:S:1:pos:R:3:Z:I:1 energy=-305.26295250452876 field_type=dipole dipole="0.000000 0.000000 0.000000" charge=0
C	-0.934518	-1.762531	-1.640766	6
N	-0.825988	-1.217471	-0.293426	7
C	0.071903	-0.054381	-0.306956	6
C	-0.697128	1.235039	-0.674366	6
N	-0.016407	1.918769	0.460944	7
C	0.131943	0.580729	1.110494	6
C	1.441813	0.443209	1.863694	6
H	-1.624448	-2.612591	-1.635176	1
H	0.034202	-2.117811	-2.008206	1
H	-1.332698	-1.022831	-2.343556	1
H	-0.517838	-1.957351	0.336624	1
H	1.042792	-0.185851	-0.798986	1
H	-1.787758	1.201699	-0.557586	1
H	-0.466928	1.655329	-1.658416	1
H	0.870412	2.345229	0.192454	1
H	-0.723358	0.345299	1.760364	1
H	2.304132	0.708309	1.242004	1
H	1.579372	-0.589461	2.201313	1
H	1.450492	1.086669	2.749554	1
Es	1.445058	0.880093	2.462759	99
Es	-0.697022	1.235097	-0.674265	99
Es	-0.016097	1.918433	0.460677	99
Es	-0.934506	-1.762484	-1.640649	99
Es	1.441812	0.443197	1.863694	99
Es	0.071800	-0.054475	-0.306946	99
Es	-0.537070	1.529330	-1.355927	99
Es	-0.314222	1.675707	-0.066314	99
Es	0.131990	0.580859	1.110422	99
Es	1.531774	-0.264010	2.091317	99
Es	0.079625	1.366997	0.786610	99
Es	0.741040	-0.141765	-0.647074	99
Es	-0.851524	-1.464371	-0.886597	99
Es	0.799095	0.507903	1.494431	99
Es	-1.403072	-2.347612	-1.638491	99
Es	2.027393	0.627856	1.429623	99
Es	-1.434304	1.201036	-0.587210	99
Es	0.534973	2.138263	0.281611	99
Es	-0.336501	0.545033	-0.585700	99
Es	-0.610093	-1.668485	0.077714	99
Es	-0.205743	2.163405	0.636372	99
Es	-1.135333	-1.101881	-0.186765	99
Es	-0.825429	-1.217693	-0.293649	99
Es	-0.261108	-2.004033	-1.899245	99
Es	-0.396811	-0.750882	-0.316657	99
Es	-0.451930	0.415175	1.545366	99
Es	-1.199542	-1.249657	-2.117540	99
Es	0.141284	0.177069	0.433775	99
47
Properties=species:S:1:pos:R:3:Z:I:1 energy=-305.26295250452876 field_type=dipole dipole="0.000000 0.000000 0.000000" charge=0
C	-0.934518	-1.762531	-1.640766	6
N	-0.825988	-1.217471	-0.293426	7
C	0.071903	-0.054381	-0.306956	6
C	-0.697128	1.235039	-0.674366	6
N	-0.016407	1.918769	0.460944	7
C	0.131943	0.580729	1.110494	6
C	1.441813	0.443209	1.863694	6
H	-1.624448	-2.612591	-1.635176	1
H	0.034202	-2.117811	-2.008206	1
H	-1.332698	-1.022831	-2.343556	1
H	-0.517838	-1.957351	0.336624	1
H	1.042792	-0.185851	-0.798986	1
H	-1.787758	1.201699	-0.557586	1
H	-0.466928	1.655329	-1.658416	1
H	0.870412	2.345229	0.192454	1
H	-0.723358	0.345299	1.760364	1
H	2.304132	0.708309	1.242004	1
H	1.579372	-0.589461	2.201313	1
H	1.450492	1.086669	2.749554	1
Es	-0.825423	-1.217696	-0.293651	99
Es	-0.610765	-1.668569	0.078279	99
Es	-0.851930	-1.464416	-0.886658	99
Es	-0.396628	-0.750881	-0.316647	99
Es	-0.452188	0.415002	1.545523	99
Es	-1.199320	-1.249584	-2.117621	99
Es	1.531612	-0.263948	2.091586	99
Es	0.799021	0.507912	1.494390	99
Es	-0.934509	-1.762488	-1.640660	99
Es	2.027799	0.628107	1.429521	99
Es	0.535197	2.138603	0.281368	99
Es	1.441811	0.443198	1.863692	99
Es	-1.434305	1.200905	-0.586994	99
Es	-0.315564	1.676321	-0.066104	99
Es	0.131990	0.580859	1.110422	99
Es	0.741037	-0.141731	-0.647180	99
Es	-0.336637	0.545280	-0.585459	99
Es	-1.403152	-2.347788	-1.638567	99
Es	-0.016069	1.918356	0.460627	99
Es	-1.134499	-1.101757	-0.187230	99
Es	-0.536895	1.529381	-1.356278	99
Es	-0.261228	-2.003941	-1.899045	99
Es	0.079216	1.366868	0.787280	99
Es	0.141480	0.177315	0.433905	99
Es	-0.697022	1.235098	-0.674268	99
Es	1.444842	0.879750	2.462409	99
Es	0.071802	-0.054475	-0.306942	99
Es	-0.204133	2.162424	0.635643	99
47
Properties=species:S:1:pos:R:3:Z:I:1 energy=-305.26295250452876 field_type=dipole dipole="0.000000 0.000000 0.000000" charge=0
C	-0.934518	-1.762531	-1.640766	6
N	-0.825988	-1.217471	-0.293426	7
C	0.071903	-0.054381	-0.306956	6
C	-0.697128	1.235039	-0.674366	6
N	-0.016407	1.918769	0.460944	7
C	0.131943	0.580729	1.110494	6
C	1.441813	0.443209	1.863694	6
H	-1.624448	-2.612591	-1.635176	1
H	0.034202	-2.117811	-2.008206	1
H	-1.332698	-1.022831	-2.343556	1
H	-0.517838	-1.957351	0.336624	1
H	1.042792	-0.185851	-0.798986	1
H	-1.787758	1.201699	-0.557586	1
H	-0.466928	1.655329	-1.658416	1
H	0.870412	2.345229	0.192454	1
H	-0.723358	0.345299	1.760364	1
H	2.304132	0.708309	1.242004	1
H	1.579372	-0.589461	2.201313	1
H	1.450492	1.086669	2.749554	1
Es	0.141677	0.177545	0.434062	99
Es	-0.825400	-1.217707	-0.293653	99
Es	0.798941	0.507922	1.494320	99
Es	-0.336725	0.545498	-0.585218	99
Es	-0.536695	1.529461	-1.356560	99
Es	-0.016070	1.918343	0.460625	99
Es	-0.611263	-1.668712	0.078768	99
Es	-0.261198	-2.003826	-1.899199	99
Es	-1.403064	-2.347854	-1.638459	99
Es	-0.697022	1.235096	-0.674265	99
Es	0.071802	-0.054474	-0.306942	99
Es	0.131990	0.580859	1.110423	99
Es	1.531524	-0.263846	2.091732	99
Es	1.444735	0.879472	2.462199	99
Es	-0.852368	-1.464495	-0.886524	99
Es	1.441814	0.443196	1.863696	99
Es	-0.315328	1.675960	-0.066014	99
Es	-0.934508	-1.762484	-1.640654	99
Es	-1.434312	1.200726	-0.586870	99
Es	-0.452374	0.414860	1.545622	99
Es	-1.199537	-1.249590	-2.117526	99
Es	0.535429	2.139678	0.281738	99
Es	-0.203913	2.161295	0.634017	99
Es	0.078531	1.367055	0.788431	99
Es	0.740987	-0.141736	-0.647411	99
Es	2.028076	0.628257	1.429491	99
Es	-1.133850	-1.101392	-0.187532	99
Es	-0.396340	-0.751002	-0.316955	99
47
Properties=species:S:1:pos:R:3:Z:I:1 energy=-305.26295250452876 field_type=dipole dipole="0.000000 0.000000 0.000000" charge=0
C	-0.934518	-1.762531	-1.640766	6
N	-0.825988	-1.217471	-0.293426	7
C	0.071903	-0.054381	-0.306956	6
C	-0.697128	1.235039	-0.674366	6
N	-0.016407	1.918769	0.460944	7
C	0.131943	0.580729	1.110494	6
C	1.441813	0.443209	1.863694	6
H	-1.624448	-2.612591	-1.635176	1
H	0.034202	-2.117811	-2.008206	1
H	-1.332698	-1.022831	-2.343556	1
H	-0.517838	-1.957351	0.336624	1
H	1.042792	-0.185851	-0.798986	1
H	-1.787758	1.201699	-0.557586	1
H	-0.466928	1.655329	-1.658416	1
H	0.870412	2.345229	0.192454	1
H	-0.723358	0.345299	1.760364	1
H	2.304132	0.708309	1.242004	1
H	1.579372	-0.589461	2.201313	1
H	1.450492	1.086669	2.749554	1
Es	-0.395766	-0.751532	-0.316972	99
Es	1.441811	0.443197	1.863694	99
Es	-0.203680	2.160357	0.632963	99
Es	2.028222	0.628339	1.429315	99
Es	0.071801	-0.054473	-0.306940	99
Es	-0.261340	-2.003796	-1.899005	99
Es	-0.934508	-1.762485	-1.640656	99
Es	-0.612531	-1.668949	0.079694	99
Es	0.535591	2.140518	0.281863	99
Es	-0.851985	-1.464584	-0.886363	99
Es	-0.016069	1.918348	0.460624	99
Es	-1.199375	-1.249417	-2.117629	99
Es	0.799027	0.507859	1.494395	99
Es	0.078155	1.367192	0.789152	99
Es	1.444625	0.879417	2.462067	99
Es	-0.452513	0.414798	1.545692	99
Es	-0.336848	0.545586	-0.585190	99
Es	1.531426	-0.263804	2.091867	99
Es	-1.403078	-2.347961	-1.638537	99
Es	-0.315279	1.675731	-0.065850	99
Es	0.131991	0.580859	1.110424	99
Es	-1.434267	1.200641	-0.586718	99
Es	-0.697023	1.235094	-0.674265	99
Es	-1.133459	-1.100696	-0.188609	99
Es	0.741042	-0.141663	-0.647369	99
Es	-0.536631	1.529476	-1.356801	99
Es	0.141620	0.177739	0.434154	99
Es	-0.825419	-1.217686	-0.293658	99
47
Properties=species:S:1:pos:R:3:Z:I:1 energy=-305.26295250452876 field_type=dipole dipole="0.000000 0.000000 0.000000" charge=0
C	-0.934518	-1.762531	-1.640766	6
N	-0.825988	-1.217471	-0.293426	7
C	0.071903	-0.054381	-0.306956	6
C	-0.697128	1.235039	-0.674366	6
N	-0.016407	1.918769	0.460944	7
C	0.131943	0.580729	1.110494	6
C	1.441813	0.443209	1.863694	6
H	-1.624448	-2.612591	-1.635176	1
H	0.034202	-2.117811	-2.008206	1
H	-1.332698	-1.022831	-2.343556	1
H	-0.517838	-1.957351	0.336624	1
H	1.042792	-0.185851	-0.798986	1
H	-1.787758	1.201699	-0.557586	1
H	-0.466928	1.655329	-1.658416	1
H	0.870412	2.345229	0.192454	1
H	-0.723358	0.345299	1.760364	1
H	2.304132	0.708309	1.242004	1
H	1.579372	-0.589461	2.201313	1
H	1.450492	1.086669	2.749554	1
Es	-0.852107	-1.464436	-0.886402	99
Es	0.141662	0.177827	0.434279	99
Es	1.444531	0.879150	2.461869	99
Es	0.535615	2.140756	0.281660	99
Es	-1.403113	-2.348039	-1.638551	99
Es	-1.133073	-1.100889	-0.188838	99
Es	-0.315911	1.675814	-0.065694	99
Es	-0.016068	1.918340	0.460623	99
Es	-0.202933	2.159830	0.632451	99
Es	0.741119	-0.141640	-0.647541	99
Es	0.071802	-0.054475	-0.306944	99
Es	-0.825439	-1.217687	-0.293647	99
Es	0.077985	1.367303	0.789601	99
Es	-0.612654	-1.669093	0.079869	99
Es	1.531296	-0.263687	2.092005	99
Es	-0.697023	1.235097	-0.674265	99
Es	2.028508	0.628461	1.429241	99
Es	0.798923	0.507911	1.494405	99
Es	1.441811	0.443197	1.863694	99
Es	-0.536545	1.529532	-1.356970	99
Es	-0.395973	-0.751248	-0.316922	99
Es	-0.934508	-1.762485	-1.640655	99
Es	-0.261383	-2.003745	-1.898960	99
Es	-0.336831	0.545628	-0.584925	99
Es	-1.434254	1.200558	-0.586605	99
Es	-1.199305	-1.249418	-2.117647	99
Es	0.131990	0.580860	1.110423	99
Es	-0.452584	0.414684	1.545788	99
47
Properties=species:S:1:pos:R:3:Z:I:1 energy=-305.26295250452876 field_type=dipole dipole="0.000000 0.000000 0.000000" charge=0
C	-0.934518	-1.762531	-1.640766	6
N	-0.825988	-1.217471	-0.293426	7
C	0.071903	-0.054381	-0.306956	6
C	-0.697128	1.235039	-0.674366	6
N	-0.016407	1.918769	0.460944	7
C	0.131943	0.580729	1.110494	6
C	1.441813	0.443209	1.863694	6
H	-1.624448	-2.612591	-1.635176	1
H	0.034202	-2.117811	-2.008206	1
H	-1.332698	-1.022831	-2.343556	1
H	-0.517838	-1.957351	0.336624	1
H	1.042792	-0.185851	-0.798986	1
H	-1.787758	1.201699	-0.557586	1
H	-0.466928	1.655329	-1.658416	1
H	0.870412	2.345229	0.192454	1
H	-0.723358	0.345299	1.760364	1
H	2.304132	0.708309	1.242004	1
H	1.579372	-0.589461	2.201313	1
H	1.450492	1.086669	2.749554	1
Es	-0.016066	1.918337	0.460625	99
Es	-0.852131	-1.464583	-0.886222	99
Es	-0.452587	0.414674	1.545998	99
Es	-0.934508	-1.762485	-1.640656	99
Es	-1.403166	-2.348028	-1.638549	99
Es	1.531266	-0.263639	2.092120	99
Es	0.535747	2.140878	0.281819	99
Es	-0.395647	-0.751360	-0.317068	99
Es	0.131989	0.580861	1.110423	99
Es	-0.202340	2.159369	0.632177	99
Es	-0.536464	1.529538	-1.357080	99
Es	-0.316317	1.676121	-0.065784	99
Es	0.077672	1.367192	0.789740	99
Es	2.028597	0.628526	1.429146	99
Es	1.441812	0.443197	1.863694	99
Es	-1.434291	1.200463	-0.586517	99
Es	-0.697022	1.235096	-0.674266	99
Es	0.071801	-0.054474	-0.306942	99
Es	0.798950	0.507912	1.494316	99
Es	1.444466	0.879088	2.461748	99
Es	-1.199295	-1.249364	-2.117587	99
Es	0.141615	0.177869	0.434289	99
Es	-0.261354	-2.003753	-1.898976	99
Es	-0.336880	0.545814	-0.584970	99
Es	-1.132706	-1.100594	-0.189391	99
Es	-0.825413	-1.217688	-0.293655	99
Es	-0.613318	-1.669160	0.080420	99
Es	0.741126	-0.141700	-0.647512	99
47
Properties=species:S:1:pos:R:3:Z:I:1 energy=-305.26295250452876 field_type=dipole dipole="0.000000 0.000000 0.000000" charge=0
C	-0.934518	-1.762531	-1.640766	6
N	-0.825988	-1.217471	-0.293426	7
C	0.071903	-0.054381	-0.306956	6
C	-0.697128	1.235039	-0.674366	6
N	-0.016407	1.918769	0.460944	7
C	0.131943	0.580729	1.110494	6
C	1.441813	0.443209	1.863694	6
H	-1.624448	-2.612591	-1.635176	1
H	0.034202	-2.117811	-2.008206	1
H	-1.332698	-1.022831	-2.343556	1
H	-0.517838	-1.957351	0.336624	1
H	1.042792	-0.185851	-0.798986	1
H	-1.787758	1.201699	-0.557586	1
H	-0.466928	1.655329	-1.658416	1
H	0.870412	2.345229	0.192454	1
H	-0.723358	0.345299	1.760364	1
H	2.304132	0.708309	1.242004	1
H	1.579372	-0.589461	2.201313	1
H	1.450492	1.086669	2.749554	1
Es	-0.852187	-1.464688	-0.886319	99
Es	-0.613909	-1.669153	0.080947	99
Es	-0.934508	-1.762485	-1.640655	99
Es	1.531173	-0.263549	2.092157	99
Es	-0.536326	1.529506	-1.357153	99
Es	0.798891	0.507862	1.494465	99
Es	-1.132153	-1.100389	-0.189856	99
Es	0.535893	2.141321	0.281678	99
Es	-1.403185	-2.348063	-1.638572	99
Es	1.441811	0.443197	1.863694	99
Es	-0.201932	2.158675	0.630887	99
Es	-0.016042	1.918411	0.460642	99
Es	0.071802	-0.054474	-0.306942	99
Es	1.444420	0.878905	2.461668	99
Es	-1.199248	-1.249348	-2.117591	99
Es	-0.261364	-2.003734	-1.898939	99
Es	0.077021	1.367489	0.790901	99
Es	0.131990	0.580860	1.110423	99
Es	0.741063	-0.141703	-0.647678	99
Es	0.141764	0.178029	0.434435	99
Es	-0.336961	0.545865	-0.584882	99
Es	-0.395536	-0.751379	-0.317052	99
Es	-0.316217	1.675956	-0.065506	99
Es	-0.825417	-1.217695	-0.293655	99
Es	-1.434399	1.200450	-0.586447	99
Es	-0.452662	0.414531	1.545894	99
Es	-0.697022	1.235098	-0.674265	99
Es	2.028777	0.628611	1.429058	99
47
Properties=species:S:1:pos:R:3:Z:I:1 energy=-305.26295250452876 field_type=dipole dipole="0.000000 0.000000 0.000000" charge=0
C	-0.934518	-1.762531	-1.640766	6
N	-0.825988	-1.217471	-0.293426	7
C	0.071903	-0.054381	-0.306956	6
C	-0.697128	1.235039	-0.674366	6
N	-0.016407	1.918769	0.460944	7
C	0.131943	0.580729	1.110494	6
C	1.441813	0.443209	1.863694	6
H	-1.624448	-2.612591	-1.635176	1
H	0.034202	-2.117811	-2.008206	1
H	-1.332698	-1.022831	-2.343556	1
H	-0.517838	-1.957351	0.336624	1
H	1.042792	-0.185851	-0.798986	1
H	-1.787758	1.201699	-0.557586	1
H	-0.466928	1.655329	-1.658416	1
H	0.870412	2.345229	0.192454	1
H	-0.723358	0.345299	1.760364	1
H	2.304132	0.708309	1.242004	1
H	1.579372	-0.589461	2.201313	1
H	1.450492	1.086669	2.749554	1
Es	0.741134	-0.141643	-0.647669	99
Es	1.444408	0.878819	2.461674	99
Es	-0.536309	1.529556	-1.357293	99
Es	-0.016083	1.918338	0.460618	99
Es	-0.337021	0.545939	-0.584738	99
Es	0.798936	0.508024	1.494454	99
Es	-1.434299	1.200390	-0.586407	99
Es	0.535970	2.141562	0.281619	99
Es	-0.261338	-2.003705	-1.898972	99
Es	0.141782	0.178007	0.434428	99
Es	-0.201568	2.158363	0.630610	99
Es	1.531088	-0.263626	2.092101	99
Es	-0.825426	-1.217689	-0.293650	99
Es	2.028812	0.628674	1.429049	99
Es	-0.697021	1.235096	-0.674265	99
Es	-1.132083	-1.100229	-0.189912	99
Es	0.071801	-0.054474	-0.306942	99
Es	-0.613941	-1.669129	0.081129	99
Es	-1.403146	-2.348063	-1.638550	99
Es	-0.395655	-0.751625	-0.316994	99
Es	-0.852132	-1.464701	-0.886474	99
Es	-0.316502	1.676017	-0.065345	99
Es	1.441812	0.443197	1.863694	99
Es	-1.199315	-1.249363	-2.117575	99
Es	-0.452753	0.414549	1.545995	99
Es	0.131990	0.580859	1.110423	99
Es	-0.934507	-1.762486	-1.640658	99
Es	0.076904	1.367449	0.790989	99
47
Properties=species:S:1:pos:R:3:Z:I:1 energy=-305.26295250452876 field_type=dipole dipole="0.000000 0.000000 0.000000" charge=0
C	-0.934518	-1.762531	-1.640766	6
N	-0.825988	-1.217471	-0.293426	7
C	0.071903	-0.054381	-0.306956	6
C	-0.697128	1.235039	-0.674366	6
N	-0.016407	1.918769	0.460944	7
C	0.131943	0.580729	1.110494	6
C	1.441813	0.443209	1.863694	6
H	-1.624448	-2.612591	-1.635176	1
H	0.034202	-2.117811	-2.008206	1
H	-1.332698	-1.022831	-2.343556	1
H	-0.517838	-1.957351	0.336624	1
H	1.042792	-0.185851	-0.798986	1
H	-1.787758	1.201699	-0.557586	1
H	-0.466928	1.655329	-1.658416	1
H	0.870412	2.345229	0.192454	1
H	-0.723358	0.345299	1.760364	1
H	2.304132	0.708309	1.242004	1
H	1.579372	-0.589461	2.201313	1
H	1.450492	1.086669	2.749554	1
Es	0.071802	-0.054474	-0.306942	99
Es	-0.697022	1.235095	-0.674265	99
Es	1.531155	-0.263498	2.092266	99
Es	-0.852075	-1.464717	-0.886280	99
Es	-0.452801	0.414493	1.546111	99
Es	-0.825442	-1.217668	-0.293634	99
Es	0.741046	-0.141636	-0.647684	99
Es	-1.199507	-1.249341	-2.117636	99
Es	-0.536427	1.529631	-1.357409	99
Es	-0.614252	-1.669232	0.081282	99
Es	2.028938	0.628825	1.428956	99
Es	0.798909	0.507834	1.494401	99
Es	-1.403002	-2.347960	-1.638442	99
Es	-0.395459	-0.751658	-0.317037	99
Es	-1.131992	-1.100176	-0.190219	99
Es	-0.316388	1.675920	-0.065410	99
Es	0.536029	2.141662	0.281763	99
Es	-0.336951	0.546163	-0.584867	99
Es	-0.261303	-2.003790	-1.899018	99
Es	-0.934509	-1.762486	-1.640657	99
Es	-0.016053	1.918350	0.460620	99
Es	0.076562	1.367578	0.791595	99
Es	1.444236	0.878745	2.461515	99
Es	0.141865	0.178126	0.434412	99
Es	-0.201351	2.158123	0.630010	99
Es	0.131990	0.580860	1.110424	99
Es	-1.434273	1.200140	-0.586209	99
Es	1.441812	0.443197	1.863694	99
47
Properties=species:S:1:pos:R:3:Z:I:1 energy=-305.26295250452876 field_type=dipole dipole="0.000000 0.000000 0.000000" charge=0
C	-0.934518	-1.762531	-1.640766	6
N	-0.825988	-1.217471	-0.293426	7
C	0.071903	-0.054381	-0.306956	6
C	-0.697128	1.235039	-0.674366	6
N	-0.016407	1.918769	0.460944	7
C	0.131943	0.580729	1.110494	6
C	1.441813	0.443209	1.863694	6
H	-1.624448	-2.612591	-1.635176	1
H	0.034202	-2.117811	-2.008206	1
H	-1.332698	-1.022831	-2.343556	1
H	-0.517838	-1.957351	0.336624	1
H	1.042792	-0.185851	-0.798986	1
H	-1.787758	1.201699	-0.557586	1
H	-0.466928	1.655329	-1.658416	1
H	0.870412	2.345229	0.192454	1
H	-0.723358	0.345299	1.760364	1
H	2.304132	0.708309	1.242004	1
H	1.579372	-0.589461	2.201313	1
H	1.450492	1.086669	2.749554	1
Es	-0.934508	-1.762485	-1.640656	99
Es	1.444281	0.878683	2.461510	99
Es	0.076499	1.367726	0.791735	99
Es	-1.403118	-2.348064	-1.638553	99
Es	-0.536247	1.529578	-1.357528	99
Es	-0.825571	-1.217638	-0.293619	99
Es	-0.697022	1.235094	-0.674267	99
Es	0.131991	0.580860	1.110423	99
Es	-0.201305	2.158144	0.629844	99
Es	-1.131663	-1.100186	-0.190323	99
Es	0.798901	0.507838	1.494500	99
Es	-0.337087	0.546174	-0.584667	99
Es	2.029004	0.628779	1.428922	99
Es	-1.434264	1.200177	-0.586234	99
Es	-0.852200	-1.464729	-0.886209	99
Es	-0.614224	-1.669287	0.081502	99
Es	0.071802	-0.054474	-0.306942	99
Es	1.531063	-0.263458	2.092261	99
Es	0.536057	2.141637	0.281700	99
Es	1.441811	0.443197	1.863693	99
Es	0.741142	-0.141610	-0.647723	99
Es	-1.199350	-1.249311	-2.117565	99
Es	-0.316442	1.675759	-0.065376	99
Es	-0.395552	-0.751628	-0.317183	99
Es	0.141812	0.178225	0.434447	99
Es	-0.261353	-2.003693	-1.898989	99
Es	-0.452870	0.414462	1.546026	99
Es	-0.016049	1.918333	0.460611	99
47
Properties=species:S:1:pos:R:3:Z:I:1 energy=-305.26295250452876 field_type=dipole dipole="0.000000 0.000000 0.000000" charge=0
C	-0.934518	-1.762531	-1.640766	6
N	-0.825988	-1.217471	-0.293426	7
C	0.071903	-0.054381	-0.306956	6
C	-0.697128	1.235039	-0.674366	6
N	-0.016407	1.918769	0.460944	7
C	0.131943	0.580729	1.110494	6
C	1.441813	0.443209	1.863694	6
H	-1.624448	-2.612591	-1.635176	1
H	0.034202	-2.117811	-2.008206	1
H	-1.332698	-1.022831	-2.343556	1
H	-0.517838	-1.957351	0.336624	1
H	1.042792	-0.185851	-0.798986	1
H	-1.787758	1.201699	-0.557586	1
H	-0.466928	1.655329	-1.658416	1
H	0.870412	2.345229	0.192454	1
H	-0.723358	0.345299	1.760364	1
H	2.304132	0.708309	1.242004	1
H	1.579372	-0.589461	2.201313	1
H	1.450492	1.086669	2.749554	1
Es	-1.131983	-1.099658	-0.191013	99
Es	-1.434313	1.200253	-0.586296	99
Es	1.444211	0.878574	2.461427	99
Es	-0.316865	1.676183	-0.065291	99
Es	-0.934507	-1.762485	-1.640654	99
Es	-0.337154	0.546170	-0.584614	99
Es	0.131990	0.580859	1.110422	99
Es	0.076435	1.367574	0.791700	99
Es	-0.395372	-0.751912	-0.317180	99
Es	0.536067	2.141750	0.281638	99
Es	-0.851534	-1.464814	-0.886111	99
Es	0.798859	0.507910	1.494478	99
Es	-0.614955	-1.669265	0.082063	99
Es	-0.200821	2.157767	0.629828	99
Es	-1.199269	-1.249314	-2.117556	99
Es	-1.403130	-2.348231	-1.638616	99
Es	-0.016042	1.918347	0.460614	99
Es	-0.697022	1.235096	-0.674265	99
Es	2.029115	0.628851	1.428973	99
Es	0.741133	-0.141697	-0.647750	99
Es	-0.536090	1.529453	-1.357575	99
Es	-0.825403	-1.217681	-0.293658	99
Es	-0.261404	-2.003543	-1.898922	99
Es	1.531016	-0.263458	2.092300	99
Es	1.441811	0.443198	1.863695	99
Es	0.141833	0.178231	0.434605	99
Es	-0.452870	0.414420	1.546038	99
Es	0.071802	-0.054474	-0.306942	99
47
Properties=species:S:1:pos:R:3:Z:I:1 energy=-305.26295250452876 field_type=dipole dipole="0.000000 0.000000 0.000000" charge=0
C	-0.934518	-1.762531	-1.640766	6
N	-0.825988	-1.217471	-0.293426	7
C	0.071903	-0.054381	-0.306956	6
C	-0.697128	1.235039	-0.674366	6
N	-0.016407	1.918769	0.460944	7
C	0.131943	0.580729	1.110494	6
C	1.441813	0.443209	1.863694	6
H	-1.624448	-2.612591	-1.635176	1
H	0.034202	-2.117811	-2.008206	1
H	-1.332698	-1.022831	-2.343556	1
H	-0.517838	-1.957351	0.336624	1
H	1.042792	-0.185851	-0.798986	1
H	-1.787758	1.201699	-0.557586	1
H	-0.466928	1.655329	-1.658416	1
H	0.870412	2.345229	0.192454	1
H	-0.723358	0.345299	1.760364	1
H	2.304132	0.708309	1.242004	1
H	1.579372	-0.589461	2.201313	1
H	1.450492	1.086669	2.749554	1
Es	-1.403069	-2.348100	-1.638593	99
Es	-0.452909	0.414461	1.546226	99
Es	-0.016068	1.918340	0.460608	99
Es	-0.536087	1.529596	-1.357626	99
Es	-0.614847	-1.669239	0.081948	99
Es	-0.934508	-1.762483	-1.640653	99
Es	1.441812	0.443196	1.863694	99
Es	-1.199308	-1.249280	-2.117648	99
Es	0.741162	-0.141665	-0.647796	99
Es	0.141820	0.178210	0.434549	99
Es	1.530981	-0.263458	2.092380	99
Es	0.798882	0.507944	1.494396	99
Es	-0.697022	1.235099	-0.674265	99
Es	-0.261414	-2.003678	-1.898900	99
Es	-0.852103	-1.464881	-0.886027	99
Es	0.536092	2.141891	0.281598	99
Es	2.029126	0.628840	1.428882	99
Es	-0.337188	0.546264	-0.584618	99
Es	-0.200638	2.157580	0.629217	99
Es	-1.131634	-1.099810	-0.190758	99
Es	-0.825405	-1.217688	-0.293653	99
Es	0.076203	1.367681	0.792261	99
Es	-1.434306	1.200164	-0.586209	99
Es	1.444211	0.878598	2.461358	99
Es	0.131989	0.580861	1.110425	99
Es	-0.316788	1.675886	-0.065187	99
Es	-0.395249	-0.751750	-0.317327	99
Es	0.071802	-0.054475	-0.306942	99
47
Properties=species:S:1:pos:R:3:Z:I:1 energy=-305.26295250452876 field_type=dipole dipole="0.000000 0.000000 0.000000" charge=0
C	-0.934518	-1.762531	-1.640766	6
N	-0.825988	-1.217471	-0.293426	7
C	0.071903	-0.054381	-0.306956	6
C	-0.697128	1.235039	-0.674366	6
N	-0.016407	1.918769	0.460944	7
C	0.131943	0.580729	1.110494	6
C	1.441813	0.443209	1.863694	6
H	-1.624448	-2.612591	-1.635176	1
H	0.034202	-2.117811	-2.008206	1
H	-1.332698	-1.022831	-2.343556	1
H	-0.517838	-1.957351	0.336624	1
H	1.042792	-0.185851	-0.798986	1
H	-1.787758	1.201699	-0.557586	1
H	-0.466928	1.655329	-1.658416	1
H	0.870412	2.345229	0.192454	1
H	-0.723358	0.345299	1.760364	1
H	2.304132	0.708309	1.242004	1
H	1.579372	-0.589461	2.201313	1
H	1.450492	1.086669	2.749554	1
Es	-1.403043	-2.348134	-1.638551	99
Es	-0.452973	0.414409	1.546200	99
Es	0.076014	1.367829	0.792463	99
Es	0.141864	0.178350	0.434657	99
Es	0.741134	-0.141603	-0.647863	99
Es	-0.825425	-1.217688	-0.293650	99
Es	-0.394996	-0.752063	-0.317270	99
Es	-0.261453	-2.003664	-1.898897	99
Es	1.530974	-0.263475	2.092506	99
Es	0.071802	-0.054474	-0.306942	99
Es	0.798890	0.507916	1.494416	99
Es	2.029172	0.628891	1.428875	99
Es	-0.697022	1.235096	-0.674266	99
Es	0.131990	0.580860	1.110423	99
Es	-1.199334	-1.249266	-2.117673	99
Es	-0.615025	-1.669280	0.081937	99
Es	-0.016103	1.918380	0.460640	99
Es	-0.337174	0.546165	-0.584581	99
Es	-1.131507	-1.099529	-0.190678	99
Es	0.536173	2.141862	0.281687	99
Es	1.441812	0.443197	1.863694	99
Es	-0.200534	2.157520	0.628918	99
Es	-0.536154	1.529621	-1.357701	99
Es	-0.316726	1.675794	-0.065331	99
Es	-0.852212	-1.464836	-0.886144	99
Es	-0.934509	-1.762484	-1.640656	99
Es	-1.434258	1.200140	-0.586090	99
Es	1.444159	0.878575	2.461214	99
