37
Properties=species:S:1:pos:R:3:Z:I:1 energy=-268.5609536185232 field_type=dipole dipole="0.000000 0.000000 0.000000" charge=0
C	-3.180084	0.020782	-0.002912	6
C	-1.989924	0.020782	-0.002912	6
C	-0.583924	0.020782	-0.002912	6
C	0.195846	-1.071328	0.002148	6
C	1.637396	-0.656588	0.004208	6
C	1.532306	0.841462	-0.000502	6
C	0.240676	1.204312	-0.004602	6
H	-4.244964	0.020532	-0.002912	1
H	-0.147344	-2.094648	0.005688	1
H	2.154756	-1.020048	-0.888431	1
H	2.150296	-1.014578	0.901648	1
H	2.376116	1.514912	-0.000302	1
H	-0.141154	2.213622	-0.008212	1
Es	-1.989663	0.020783	-0.002907	99
Es	-0.584091	0.020878	-0.002922	99
Es	-2.574084	-0.033156	0.346939	99
Es	-0.235155	-0.508795	-0.314290	99
Es	0.879132	1.030453	0.315760	99
Es	0.926888	-0.901116	0.003125	99
Es	-0.231444	0.640143	-0.004235	99
Es	-0.025519	1.883833	-0.007046	99
Es	-1.309534	0.029459	-0.003369	99
Es	0.240552	1.204316	-0.004608	99
Es	1.625272	0.094008	0.002114	99
Es	1.637367	-0.656571	0.004208	99
Es	-3.180346	0.020781	-0.002911	99
Es	-0.025877	-1.765331	0.004476	99
Es	1.532409	0.841394	-0.000482	99
Es	-2.589706	0.353701	-0.135704	99
Es	-0.236045	-0.506685	0.312821	99
Es	-3.875512	0.020513	-0.002805	99
Es	-2.584791	-0.262095	-0.219677	99
Es	0.880645	1.028674	-0.321012	99
Es	1.967928	-0.890279	0.601428	99
Es	1.970836	-0.893688	-0.590064	99
Es	0.195938	-1.071390	0.002153	99
Es	2.111308	1.288526	-0.000333	99
37
Properties=species:S:1:pos:R:3:Z:I:1 energy=-268.5609536185232 field_type=dipole dipole="0.000000 0.000000 0.000000" charge=0
C	-3.180084	0.020782	-0.002912	6
C	-1.989924	0.020782	-0.002912	6
C	-0.583924	0.020782	-0.002912	6
C	0.195846	-1.071328	0.002148	6
C	1.637396	-0.656588	0.004208	6
C	1.532306	0.841462	-0.000502	6
C	0.240676	1.204312	-0.004602	6
H	-4.244964	0.020532	-0.002912	1
H	-0.147344	-2.094648	0.005688	1
H	2.154756	-1.020048	-0.888431	1
H	2.150296	-1.014578	0.901648	1
H	2.376116	1.514912	-0.000302	1
H	-0.141154	2.213622	-0.008212	1
Es	1.626850	0.092767	0.001802	99
Es	1.969906	-0.887905	0.597974	99
Es	-0.584098	0.020883	-0.002915	99
Es	2.112531	1.288690	-0.000458	99
Es	-2.573872	-0.059134	0.310773	99
Es	-0.238929	-0.502950	0.307816	99
Es	0.240547	1.204317	-0.004602	99
Es	-0.238104	-0.505086	-0.309299	99
Es	1.973089	-0.891795	-0.586349	99
Es	-1.989644	0.020782	-0.002912	99
Es	-1.312133	0.024523	-0.002916	99
Es	-2.589383	0.370697	-0.095675	99
Es	0.881439	1.026563	0.314110	99
Es	-0.026672	1.884644	-0.007003	99
Es	0.195937	-1.071389	0.002153	99
Es	1.532413	0.841391	-0.000499	99
Es	0.882557	1.023831	-0.319514	99
Es	-2.585053	-0.253345	-0.224684	99
Es	-0.229579	0.635329	-0.003938	99
Es	-3.877811	0.026114	-0.002237	99
Es	-3.180359	0.020787	-0.002910	99
Es	1.637366	-0.656571	0.004209	99
Es	-0.026980	-1.760975	0.004575	99
Es	0.926489	-0.903810	0.003159	99
37
Properties=species:S:1:pos:R:3:Z:I:1 energy=-268.5609536185232 field_type=dipole dipole="0.000000 0.000000 0.000000" charge=0
C	-3.180084	0.020782	-0.002912	6
C	-1.989924	0.020782	-0.002912	6
C	-0.583924	0.020782	-0.002912	6
C	0.195846	-1.071328	0.002148	6
C	1.637396	-0.656588	0.004208	6
C	1.532306	0.841462	-0.000502	6
C	0.240676	1.204312	-0.004602	6
H	-4.244964	0.020532	-0.002912	1
H	-0.147344	-2.094648	0.005688	1
H	2.154756	-1.020048	-0.888431	1
H	2.150296	-1.014578	0.901648	1
H	2.376116	1.514912	-0.000302	1
H	-0.141154	2.213622	-0.008212	1
Es	-1.313205	0.023412	-0.002955	99
Es	2.113665	1.287969	-0.000527	99
Es	0.195938	-1.071388	0.002144	99
Es	-3.180364	0.020797	-0.002905	99
Es	0.240546	1.204317	-0.004602	99
Es	-2.589824	-0.327204	-0.115672	99
Es	0.884723	1.018929	-0.319825	99
Es	1.970355	-0.885982	0.596659	99
Es	-0.028348	1.884668	-0.006999	99
Es	-3.877953	0.029789	-0.002407	99
Es	1.637369	-0.656573	0.004211	99
Es	1.974850	-0.890593	-0.585177	99
Es	-0.026482	-1.756286	0.004462	99
Es	-0.241592	-0.499058	0.307783	99
Es	-0.229069	0.631932	-0.003938	99
Es	0.883369	1.021408	0.314690	99
Es	1.532414	0.841391	-0.000500	99
Es	1.627548	0.090445	0.001816	99
Es	-2.588528	0.368185	-0.114433	99
Es	0.925637	-0.904866	0.003098	99
Es	-0.240794	-0.500722	-0.309195	99
Es	-2.570001	0.016128	0.220750	99
Es	-0.584099	0.020884	-0.002910	99
Es	-1.989644	0.020775	-0.002910	99
37
Properties=species:S:1:pos:R:3:Z:I:1 energy=-268.5609536185232 field_type=dipole dipole="0.000000 0.000000 0.000000" charge=0
C	-3.180084	0.020782	-0.002912	6
C	-1.989924	0.020782	-0.002912	6
C	-0.583924	0.020782	-0.002912	6
C	0.195846	-1.071328	0.002148	6
C	1.637396	-0.656588	0.004208	6
C	1.532306	0.841462	-0.000502	6
C	0.240676	1.204312	-0.004602	6
H	-4.244964	0.020532	-0.002912	1
H	-0.147344	-2.094648	0.005688	1
H	2.154756	-1.020048	-0.888431	1
H	2.150296	-1.014578	0.901648	1
H	2.376116	1.514912	-0.000302	1
H	-0.141154	2.213622	-0.008212	1
Es	-0.030057	1.884378	-0.007031	99
Es	-0.243317	-0.494436	0.308814	99
Es	-1.989643	0.020760	-0.002911	99
Es	-3.180365	0.020798	-0.002914	99
Es	1.627388	0.087873	0.001916	99
Es	-0.584100	0.020884	-0.002912	99
Es	-0.229095	0.629286	-0.004313	99
Es	-2.590589	-0.345466	-0.012613	99
Es	0.886504	1.014870	-0.320172	99
Es	2.114977	1.287014	-0.000378	99
Es	-3.877849	0.031479	-0.003025	99
Es	-2.589482	0.386102	-0.011607	99
Es	0.195938	-1.071388	0.002143	99
Es	0.884655	1.015273	0.315035	99
Es	1.971055	-0.884817	0.596331	99
Es	1.532412	0.841387	-0.000497	99
Es	0.924762	-0.904795	0.003144	99
Es	-0.025485	-1.751918	0.004644	99
Es	0.240547	1.204316	-0.004602	99
Es	1.975603	-0.889401	-0.584810	99
Es	-0.242710	-0.496654	-0.310207	99
Es	-2.568316	0.016177	0.015457	99
Es	-1.313691	0.023209	-0.003040	99
Es	1.637367	-0.656573	0.004208	99
37
Properties=species:S:1:pos:R:3:Z:I:1 energy=-268.5609536185232 field_type=dipole dipole="0.000000 0.000000 0.000000" charge=0
C	-3.180084	0.020782	-0.002912	6
C	-1.989924	0.020782	-0.002912	6
C	-0.583924	0.020782	-0.002912	6
C	0.195846	-1.071328	0.002148	6
C	1.637396	-0.656588	0.004208	6
C	1.532306	0.841462	-0.000502	6
C	0.240676	1.204312	-0.004602	6
H	-4.244964	0.020532	-0.002912	1
H	-0.147344	-2.094648	0.005688	1
H	2.154756	-1.020048	-0.888431	1
H	2.150296	-1.014578	0.901648	1
H	2.376116	1.514912	-0.000302	1
H	-0.141154	2.213622	-0.008212	1
Es	0.886025	1.012896	0.314492	99
Es	0.240547	1.204316	-0.004606	99
Es	-0.228327	0.627832	-0.007012	99
Es	-2.589613	0.384889	-0.017342	99
Es	2.004288	-0.907907	-0.564142	99
Es	2.115691	1.286525	0.001256	99
Es	-0.031391	1.884230	-0.008570	99
Es	1.637366	-0.656572	0.004208	99
Es	1.532413	0.841392	-0.000496	99
Es	-3.877661	0.032589	-0.004943	99
Es	-1.313972	0.023009	-0.003039	99
Es	-0.024979	-1.749234	0.005607	99
Es	-2.590479	-0.344676	0.003521	99
Es	-0.584098	0.020880	-0.002931	99
Es	0.886712	1.009561	-0.319744	99
Es	1.627602	0.086393	0.001999	99
Es	-0.242198	-0.499793	0.305423	99
Es	0.924144	-0.904680	0.002644	99
Es	-3.180365	0.020801	-0.002916	99
Es	1.942782	-0.865228	0.578353	99
Es	-1.989643	0.020762	-0.002907	99
Es	0.195937	-1.071387	0.002156	99
Es	-2.568318	0.016468	0.005266	99
Es	-0.245958	-0.484707	-0.305617	99
37
Properties=species:S:1:pos:R:3:Z:I:1 energy=-268.5609536185232 field_type=dipole dipole="0.000000 0.000000 0.000000" charge=0
C	-3.180084	0.020782	-0.002912	6
C	-1.989924	0.020782	-0.002912	6
C	-0.583924	0.020782	-0.002912	6
C	0.195846	-1.071328	0.002148	6
C	1.637396	-0.656588	0.004208	6
C	1.532306	0.841462	-0.000502	6
C	0.240676	1.204312	-0.004602	6
H	-4.244964	0.020532	-0.002912	1
H	-0.147344	-2.094648	0.005688	1
H	2.154756	-1.020048	-0.888431	1
H	2.150296	-1.014578	0.901648	1
H	2.376116	1.514912	-0.000302	1
H	-0.141154	2.213622	-0.008212	1
Es	-0.032647	1.883625	-0.004425	99
Es	-0.247718	-0.480674	0.305964	99
Es	0.885965	1.010583	0.315437	99
Es	-2.589692	0.384031	0.016198	99
Es	-2.590363	-0.344025	-0.013850	99
Es	0.240547	1.204313	-0.004599	99
Es	-0.229154	0.626000	0.001688	99
Es	-1.314024	0.023233	-0.003221	99
Es	0.923750	-0.903593	0.004285	99
Es	1.626789	0.084315	0.001930	99
Es	1.532416	0.841394	-0.000506	99
Es	0.195939	-1.071387	0.002143	99
Es	-2.568370	0.016601	-0.011247	99
Es	1.925140	-0.854062	-0.532028	99
Es	2.022667	-0.917755	0.538352	99
Es	-0.240793	-0.497982	-0.310321	99
Es	1.637368	-0.656574	0.004208	99
Es	-3.180365	0.020805	-0.002907	99
Es	-0.584101	0.020884	-0.002897	99
Es	-3.877511	0.033162	0.000499	99
Es	-1.989643	0.020762	-0.002920	99
Es	-0.023986	-1.746568	0.002357	99
Es	0.887788	1.005844	-0.320244	99
Es	2.116505	1.285425	-0.003241	99
37
Properties=species:S:1:pos:R:3:Z:I:1 energy=-268.5609536185232 field_type=dipole dipole="0.000000 0.000000 0.000000" charge=0
C	-3.180084	0.020782	-0.002912	6
C	-1.989924	0.020782	-0.002912	6
C	-0.583924	0.020782	-0.002912	6
C	0.195846	-1.071328	0.002148	6
C	1.637396	-0.656588	0.004208	6
C	1.532306	0.841462	-0.000502	6
C	0.240676	1.204312	-0.004602	6
H	-4.244964	0.020532	-0.002912	1
H	-0.147344	-2.094648	0.005688	1
H	2.154756	-1.020048	-0.888431	1
H	2.150296	-1.014578	0.901648	1
H	2.376116	1.514912	-0.000302	1
H	-0.141154	2.213622	-0.008212	1
Es	2.117116	1.284571	-0.003855	99
Es	-1.989645	0.020751	-0.002915	99
Es	-3.180365	0.020804	-0.002901	99
Es	0.886017	1.006514	0.316049	99
Es	0.888301	1.005036	-0.320675	99
Es	0.240548	1.204317	-0.004598	99
Es	-3.877419	0.033480	0.001195	99
Es	0.923521	-0.902826	0.004502	99
Es	1.637367	-0.656573	0.004207	99
Es	-0.023195	-1.744557	0.002217	99
Es	0.195938	-1.071387	0.002148	99
Es	-0.229608	0.624597	0.002708	99
Es	2.031994	-0.923491	0.514649	99
Es	-0.584101	0.020887	-0.002905	99
Es	1.626217	0.083101	0.002131	99
Es	-0.033849	1.883026	-0.003907	99
Es	-0.239422	-0.500748	-0.306852	99
Es	-0.249082	-0.473051	0.301757	99
Es	-2.568375	0.016511	-0.008768	99
Es	1.532412	0.841391	-0.000522	99
Es	-2.590316	-0.343627	-0.015897	99
Es	-2.589754	0.383633	0.015711	99
Es	1.916261	-0.847387	-0.509555	99
Es	-1.314052	0.023384	-0.003264	99
37
Properties=species:S:1:pos:R:3:Z:I:1 energy=-268.5609536185232 field_type=dipole dipole="0.000000 0.000000 0.000000" charge=0
C	-3.180084	0.020782	-0.002912	6
C	-1.989924	0.020782	-0.002912	6
C	-0.583924	0.020782	-0.002912	6
C	0.195846	-1.071328	0.002148	6
C	1.637396	-0.656588	0.004208	6
C	1.532306	0.841462	-0.000502	6
C	0.240676	1.204312	-0.004602	6
H	-4.244964	0.020532	-0.002912	1
H	-0.147344	-2.094648	0.005688	1
H	2.154756	-1.020048	-0.888431	1
H	2.150296	-1.014578	0.901648	1
H	2.376116	1.514912	-0.000302	1
H	-0.141154	2.213622	-0.008212	1
Es	-3.180365	0.020805	-0.002904	99
Es	-0.034419	1.882703	-0.003558	99
Es	-2.568411	0.017653	-0.030216	99
Es	-3.877336	0.033742	0.001711	99
Es	0.888179	1.001299	-0.320840	99
Es	2.117667	1.283741	-0.004418	99
Es	-2.590272	-0.343593	-0.006867	99
Es	2.039163	-0.927610	0.493397	99
Es	1.532412	0.841388	-0.000511	99
Es	-0.230088	0.623554	0.003202	99
Es	-2.589769	0.382372	0.028256	99
Es	-1.989643	0.020766	-0.002922	99
Es	1.625620	0.081745	0.002044	99
Es	-0.584100	0.020881	-0.002903	99
Es	0.886492	1.006619	0.316258	99
Es	0.240547	1.204317	-0.004593	99
Es	-1.314068	0.023546	-0.003425	99
Es	0.195939	-1.071389	0.002145	99
Es	0.923312	-0.901992	0.004764	99
Es	-0.022672	-1.742889	0.002035	99
Es	-0.249164	-0.471562	0.303173	99
Es	1.637367	-0.656573	0.004208	99
Es	-0.239320	-0.498631	-0.308359	99
Es	1.909438	-0.842537	-0.489017	99
37
Properties=species:S:1:pos:R:3:Z:I:1 energy=-268.5609536185232 field_type=dipole dipole="0.000000 0.000000 0.000000" charge=0
C	-3.180084	0.020782	-0.002912	6
C	-1.989924	0.020782	-0.002912	6
C	-0.583924	0.020782	-0.002912	6
C	0.195846	-1.071328	0.002148	6
C	1.637396	-0.656588	0.004208	6
C	1.532306	0.841462	-0.000502	6
C	0.240676	1.204312	-0.004602	6
H	-4.244964	0.020532	-0.002912	1
H	-0.147344	-2.094648	0.005688	1
H	2.154756	-1.020048	-0.888431	1
H	2.150296	-1.014578	0.901648	1
H	2.376116	1.514912	-0.000302	1
H	-0.141154	2.213622	-0.008212	1
Es	-0.239302	-0.495039	-0.311880	99
Es	-0.022118	-1.741522	0.001825	99
Es	-2.568434	0.017708	-0.027741	99
Es	2.118175	1.283022	-0.004720	99
Es	-0.248893	-0.472302	0.306224	99
Es	-0.034939	1.882359	-0.003167	99
Es	0.240547	1.204312	-0.004595	99
Es	-1.989642	0.020770	-0.002919	99
Es	-1.314085	0.023608	-0.003393	99
Es	-3.877267	0.033911	0.002192	99
Es	-0.584099	0.020903	-0.002911	99
Es	1.625061	0.081169	0.001979	99
Es	0.923219	-0.901463	0.005076	99
Es	0.886446	1.004444	0.316585	99
Es	1.904380	-0.838865	-0.471700	99
Es	1.637369	-0.656574	0.004205	99
Es	0.195939	-1.071386	0.002146	99
Es	-3.180366	0.020805	-0.002907	99
Es	0.888401	1.000795	-0.321099	99
Es	-2.590244	-0.343337	-0.010691	99
Es	-2.589782	0.382060	0.029489	99
Es	1.532414	0.841393	-0.000507	99
Es	2.044442	-0.930743	0.475356	99
Es	-0.230717	0.622330	0.003810	99
37
Properties=species:S:1:pos:R:3:Z:I:1 energy=-268.5609536185232 field_type=dipole dipole="0.000000 0.000000 0.000000" charge=0
C	-3.180084	0.020782	-0.002912	6
C	-1.989924	0.020782	-0.002912	6
C	-0.583924	0.020782	-0.002912	6
C	0.195846	-1.071328	0.002148	6
C	1.637396	-0.656588	0.004208	6
C	1.532306	0.841462	-0.000502	6
C	0.240676	1.204312	-0.004602	6
H	-4.244964	0.020532	-0.002912	1
H	-0.147344	-2.094648	0.005688	1
H	2.154756	-1.020048	-0.888431	1
H	2.150296	-1.014578	0.901648	1
H	2.376116	1.514912	-0.000302	1
H	-0.141154	2.213622	-0.008212	1
Es	-2.589829	0.381268	-0.041565	99
Es	-1.314084	0.023712	-0.002820	99
Es	0.195939	-1.071387	0.002150	99
Es	0.888046	1.001425	-0.321850	99
Es	0.923147	-0.901118	0.001129	99
Es	1.637369	-0.656569	0.004209	99
Es	-0.035627	1.881931	-0.010967	99
Es	0.886901	1.001521	0.316267	99
Es	-0.247981	-0.473908	-0.308853	99
Es	-3.877219	0.033949	-0.008478	99
Es	1.624761	0.080840	0.001764	99
Es	-1.989644	0.020757	-0.002896	99
Es	1.532412	0.841390	-0.000498	99
Es	-0.584102	0.020884	-0.002920	99
Es	-3.180364	0.020810	-0.002919	99
Es	0.240547	1.204317	-0.004609	99
Es	2.050346	-0.935766	-0.449535	99
Es	-0.239960	-0.490967	0.311909	99
Es	-0.230871	0.621482	-0.012506	99
Es	-0.021736	-1.740500	0.006953	99
Es	-2.568442	0.018269	0.025068	99
Es	1.898600	-0.833397	0.469228	99
Es	-2.590199	-0.343129	0.008149	99
Es	2.118499	1.282546	0.004249	99
37
Properties=species:S:1:pos:R:3:Z:I:1 energy=-268.5609536185232 field_type=dipole dipole="0.000000 0.000000 0.000000" charge=0
C	-3.180084	0.020782	-0.002912	6
C	-1.989924	0.020782	-0.002912	6
C	-0.583924	0.020782	-0.002912	6
C	0.195846	-1.071328	0.002148	6
C	1.637396	-0.656588	0.004208	6
C	1.532306	0.841462	-0.000502	6
C	0.240676	1.204312	-0.004602	6
H	-4.244964	0.020532	-0.002912	1
H	-0.147344	-2.094648	0.005688	1
H	2.154756	-1.020048	-0.888431	1
H	2.150296	-1.014578	0.901648	1
H	2.376116	1.514912	-0.000302	1
H	-0.141154	2.213622	-0.008212	1
Es	-0.584102	0.020885	-0.002904	99
Es	1.532413	0.841390	-0.000511	99
Es	1.624145	0.080106	0.001901	99
Es	-3.180365	0.020806	-0.002901	99
Es	0.888767	1.001294	-0.321143	99
Es	2.118985	1.281760	-0.005180	99
Es	-2.568490	0.018873	-0.042524	99
Es	-0.230955	0.621133	0.004564	99
Es	1.637367	-0.656572	0.004207	99
Es	-1.989643	0.020756	-0.002924	99
Es	-3.877183	0.034121	0.002693	99
Es	-1.314106	0.023746	-0.003577	99
Es	-0.238707	-0.493433	-0.312468	99
Es	2.050853	-0.934278	0.451062	99
Es	0.923052	-0.900419	0.005264	99
Es	1.898358	-0.834417	-0.448067	99
Es	-0.249217	-0.469822	0.306529	99
Es	0.195939	-1.071386	0.002142	99
Es	0.886254	0.999891	0.316801	99
Es	-0.021462	-1.739680	0.001574	99
Es	0.240548	1.204314	-0.004598	99
Es	-2.589775	0.380697	0.039310	99
Es	-0.035969	1.881759	-0.002890	99
Es	-2.590200	-0.343167	-0.005702	99
37
Properties=species:S:1:pos:R:3:Z:I:1 energy=-268.5609536185232 field_type=dipole dipole="0.000000 0.000000 0.000000" charge=0
C	-3.180084	0.020782	-0.002912	6
C	-1.989924	0.020782	-0.002912	6
C	-0.583924	0.020782	-0.002912	6
C	0.195846	-1.071328	0.002148	6
C	1.637396	-0.656588	0.004208	6
C	1.532306	0.841462	-0.000502	6
C	0.240676	1.204312	-0.004602	6
H	-4.244964	0.020532	-0.002912	1
H	-0.147344	-2.094648	0.005688	1
H	2.154756	-1.020048	-0.888431	1
H	2.150296	-1.014578	0.901648	1
H	2.376116	1.514912	-0.000302	1
H	-0.141154	2.213622	-0.008212	1
Es	-2.568495	0.019557	0.038131	99
Es	1.532408	0.841374	-0.000491	99
Es	0.240548	1.204313	-0.004609	99
Es	-0.247858	-0.472978	-0.310250	99
Es	1.637368	-0.656572	0.004208	99
Es	-0.239793	-0.488599	0.313437	99
Es	-1.989644	0.020758	-0.002892	99
Es	-2.590124	-0.342965	0.004156	99
Es	1.893698	-0.830098	0.448421	99
Es	-0.231392	0.620337	-0.012774	99
Es	-0.021173	-1.738993	0.007010	99
Es	-0.584101	0.020895	-0.002916	99
Es	2.119033	1.281608	0.004688	99
Es	-3.877156	0.034098	-0.008872	99
Es	-3.180365	0.020807	-0.002923	99
Es	2.055566	-0.938348	-0.428408	99
Es	0.888011	0.998813	-0.322192	99
Es	1.624103	0.079488	0.002165	99
Es	0.887055	1.000943	0.316465	99
Es	0.195939	-1.071386	0.002153	99
Es	-2.589847	0.379809	-0.050672	99
Es	0.923020	-0.899860	0.000802	99
Es	-1.314091	0.023818	-0.002736	99
Es	-0.036201	1.881537	-0.011243	99
37
Properties=species:S:1:pos:R:3:Z:I:1 energy=-268.5609536185232 field_type=dipole dipole="0.000000 0.000000 0.000000" charge=0
C	-3.180084	0.020782	-0.002912	6
C	-1.989924	0.020782	-0.002912	6
C	-0.583924	0.020782	-0.002912	6
C	0.195846	-1.071328	0.002148	6
C	1.637396	-0.656588	0.004208	6
C	1.532306	0.841462	-0.000502	6
C	0.240676	1.204312	-0.004602	6
H	-4.244964	0.020532	-0.002912	1
H	-0.147344	-2.094648	0.005688	1
H	2.154756	-1.020048	-0.888431	1
H	2.150296	-1.014578	0.901648	1
H	2.376116	1.514912	-0.000302	1
H	-0.141154	2.213622	-0.008212	1
Es	0.240547	1.204316	-0.004603	99
Es	-2.589985	0.383252	0.003391	99
Es	0.893619	1.041862	-0.210811	99
Es	-0.021207	-1.739030	0.003958	99
Es	0.881731	0.950194	0.205695	99
Es	-0.257654	-0.410797	0.019126	99
Es	-3.180365	0.020808	-0.002915	99
Es	0.922807	-0.899983	0.002675	99
Es	-1.989642	0.020761	-0.002912	99
Es	1.986706	-0.893040	-0.582283	99
Es	1.637369	-0.656574	0.004207	99
Es	0.195938	-1.071386	0.002149	99
Es	1.623551	0.079903	0.001742	99
Es	-1.314065	0.023797	-0.002960	99
Es	-0.231051	-0.544102	-0.021300	99
Es	1.532413	0.841388	-0.000494	99
Es	-0.230072	0.621689	-0.003620	99
Es	-2.568332	0.016134	0.000261	99
Es	1.963007	-0.875389	0.595418	99
Es	-0.037007	1.881499	-0.007576	99
Es	-0.584102	0.020883	-0.002914	99
Es	-3.877433	0.034144	-0.004469	99
Es	2.119873	1.280984	0.001072	99
Es	-2.590139	-0.342952	-0.012180	99
37
Properties=species:S:1:pos:R:3:Z:I:1 energy=-268.5609536185232 field_type=dipole dipole="0.000000 0.000000 0.000000" charge=0
C	-3.180084	0.020782	-0.002912	6
C	-1.989924	0.020782	-0.002912	6
C	-0.583924	0.020782	-0.002912	6
C	0.195846	-1.071328	0.002148	6
C	1.637396	-0.656588	0.004208	6
C	1.532306	0.841462	-0.000502	6
C	0.240676	1.204312	-0.004602	6
H	-4.244964	0.020532	-0.002912	1
H	-0.147344	-2.094648	0.005688	1
H	2.154756	-1.020048	-0.888431	1
H	2.150296	-1.014578	0.901648	1
H	2.376116	1.514912	-0.000302	1
H	-0.141154	2.213622	-0.008212	1
Es	-1.989644	0.020758	-0.002892	99
Es	-0.248085	-0.471559	-0.310522	99
Es	-0.036486	1.881333	-0.011401	99
Es	-0.239112	-0.487103	0.314037	99
Es	-0.584101	0.020892	-0.002927	99
Es	1.623531	0.079096	0.002134	99
Es	1.890858	-0.827933	0.434994	99
Es	-2.589856	0.380063	-0.048090	99
Es	2.058613	-0.939987	-0.414607	99
Es	-1.314090	0.023948	-0.002691	99
Es	-3.180364	0.020808	-0.002925	99
Es	-0.232117	0.619008	-0.013435	99
Es	0.922948	-0.899359	0.000719	99
Es	-2.568474	0.019155	0.034021	99
Es	0.240548	1.204315	-0.004611	99
Es	-2.590137	-0.342828	0.005683	99
Es	0.887891	0.996144	-0.322223	99
Es	-0.020769	-1.737868	0.007347	99
Es	1.637368	-0.656573	0.004207	99
Es	0.887239	1.001050	0.316407	99
Es	0.195938	-1.071385	0.002156	99
Es	-3.877110	0.034203	-0.009146	99
Es	2.119502	1.280790	0.004921	99
Es	1.532414	0.841391	-0.000497	99
37
Properties=species:S:1:pos:R:3:Z:I:1 energy=-268.5609536185232 field_type=dipole dipole="0.000000 0.000000 0.000000" charge=0
C	-3.180084	0.020782	-0.002912	6
C	-1.989924	0.020782	-0.002912	6
C	-0.583924	0.020782	-0.002912	6
C	0.195846	-1.071328	0.002148	6
C	1.637396	-0.656588	0.004208	6
C	1.532306	0.841462	-0.000502	6
C	0.240676	1.204312	-0.004602	6
H	-4.244964	0.020532	-0.002912	1
H	-0.147344	-2.094648	0.005688	1
H	2.154756	-1.020048	-0.888431	1
H	2.150296	-1.014578	0.901648	1
H	2.376116	1.514912	-0.000302	1
H	-0.141154	2.213622	-0.008212	1
Es	-0.036778	1.881170	-0.002611	99
Es	-0.248692	-0.470038	0.309944	99
Es	-0.020592	-1.737450	0.001678	99
Es	-1.989643	0.020757	-0.002924	99
Es	-3.180365	0.020809	-0.002904	99
Es	-0.232072	0.618939	0.005483	99
Es	-2.568516	0.018671	-0.034234	99
Es	0.240547	1.204312	-0.004594	99
Es	-1.314086	0.023967	-0.003557	99
Es	1.532412	0.841389	-0.000509	99
Es	1.637377	-0.656580	0.004214	99
Es	1.623241	0.078994	0.001884	99
Es	-2.590101	-0.342685	-0.013675	99
Es	-0.238480	-0.487720	-0.316778	99
Es	2.057845	-0.938371	0.419938	99
Es	2.119818	1.280220	-0.005812	99
Es	0.888747	0.998977	-0.321505	99
Es	0.886374	0.997249	0.317253	99
Es	1.891644	-0.829485	-0.417936	99
Es	0.922945	-0.898917	0.005809	99
Es	-3.877098	0.034249	0.003367	99
Es	0.195939	-1.071386	0.002144	99
Es	-2.589859	0.380405	0.038884	99
Es	-0.584101	0.020882	-0.002902	99
37
Properties=species:S:1:pos:R:3:Z:I:1 energy=-268.5609536185232 field_type=dipole dipole="0.000000 0.000000 0.000000" charge=0
C	-3.180084	0.020782	-0.002912	6
C	-1.989924	0.020782	-0.002912	6
C	-0.583924	0.020782	-0.002912	6
C	0.195846	-1.071328	0.002148	6
C	1.637396	-0.656588	0.004208	6
C	1.532306	0.841462	-0.000502	6
C	0.240676	1.204312	-0.004602	6
H	-4.244964	0.020532	-0.002912	1
H	-0.147344	-2.094648	0.005688	1
H	2.154756	-1.020048	-0.888431	1
H	2.150296	-1.014578	0.901648	1
H	2.376116	1.514912	-0.000302	1
H	-0.141154	2.213622	-0.008212	1
Es	0.923207	-0.901280	0.005866	99
Es	-2.578413	-0.151942	0.253736	99
Es	-0.021375	-1.739581	0.001604	99
Es	-0.584101	0.020884	-0.002909	99
Es	-0.239666	-0.487019	-0.319100	99
Es	-2.579420	-0.171501	-0.277274	99
Es	1.873743	-0.818856	-0.308441	99
Es	2.117461	1.283164	-0.005250	99
Es	0.888421	0.999809	-0.322022	99
Es	-1.989647	0.020742	-0.002930	99
Es	1.625713	0.079601	0.002057	99
Es	-3.180365	0.020806	-0.002901	99
Es	-1.314173	0.023486	-0.003718	99
Es	-0.247582	-0.477453	0.312682	99
Es	-0.036642	1.881472	-0.002697	99
Es	0.240547	1.204316	-0.004595	99
Es	0.886604	1.003520	0.317576	99
Es	2.074852	-0.951028	0.310526	99
Es	1.637368	-0.656573	0.004209	99
Es	1.532413	0.841391	-0.000517	99
Es	0.195940	-1.071388	0.002143	99
Es	-2.590473	0.380339	0.015015	99
Es	-0.230836	0.620805	0.004958	99
Es	-3.877067	0.034644	0.002636	99
37
Properties=species:S:1:pos:R:3:Z:I:1 energy=-268.5609536185232 field_type=dipole dipole="0.000000 0.000000 0.000000" charge=0
C	-3.180084	0.020782	-0.002912	6
C	-1.989924	0.020782	-0.002912	6
C	-0.583924	0.020782	-0.002912	6
C	0.195846	-1.071328	0.002148	6
C	1.637396	-0.656588	0.004208	6
C	1.532306	0.841462	-0.000502	6
C	0.240676	1.204312	-0.004602	6
H	-4.244964	0.020532	-0.002912	1
H	-0.147344	-2.094648	0.005688	1
H	2.154756	-1.020048	-0.888431	1
H	2.150296	-1.014578	0.901648	1
H	2.376116	1.514912	-0.000302	1
H	-0.141154	2.213622	-0.008212	1
Es	1.637367	-0.656573	0.004209	99
Es	-0.037331	1.880786	-0.011571	99
Es	1.622893	0.078946	0.002099	99
Es	0.922917	-0.898990	0.000559	99
Es	0.887278	1.000354	0.316547	99
Es	0.240548	1.204316	-0.004611	99
Es	0.887867	0.994570	-0.322405	99
Es	-2.568558	0.020994	0.054948	99
Es	-0.232182	0.618264	-0.013448	99
Es	-3.877060	0.034306	-0.009419	99
Es	-2.590114	-0.342821	-0.003850	99
Es	-3.180365	0.020807	-0.002925	99
Es	0.195938	-1.071386	0.002161	99
Es	-1.314100	0.023932	-0.002726	99
Es	1.887471	-0.825449	0.417836	99
Es	2.120030	1.279832	0.005126	99
Es	-2.589811	0.378180	-0.059409	99
Es	2.062186	-0.941966	-0.397001	99
Es	-0.238911	-0.485962	0.314833	99
Es	1.532417	0.841395	-0.000492	99
Es	-0.247933	-0.470192	-0.311188	99
Es	-1.989645	0.020755	-0.002893	99
Es	-0.584101	0.020883	-0.002917	99
Es	-0.020293	-1.736623	0.007194	99
37
Properties=species:S:1:pos:R:3:Z:I:1 energy=-268.5609536185232 field_type=dipole dipole="0.000000 0.000000 0.000000" charge=0
C	-3.180084	0.020782	-0.002912	6
C	-1.989924	0.020782	-0.002912	6
C	-0.583924	0.020782	-0.002912	6
C	0.195846	-1.071328	0.002148	6
C	1.637396	-0.656588	0.004208	6
C	1.532306	0.841462	-0.000502	6
C	0.240676	1.204312	-0.004602	6
H	-4.244964	0.020532	-0.002912	1
H	-0.147344	-2.094648	0.005688	1
H	2.154756	-1.020048	-0.888431	1
H	2.150296	-1.014578	0.901648	1
H	2.376116	1.514912	-0.000302	1
H	-0.141154	2.213622	-0.008212	1
Es	-0.584101	0.020883	-0.002912	99
Es	0.888479	0.995722	-0.321774	99
Es	-0.020242	-1.736444	0.001526	99
Es	-2.568692	0.022140	-0.086385	99
Es	1.887921	-0.826931	-0.398871	99
Es	0.240549	1.204314	-0.004590	99
Es	0.922928	-0.898853	0.005891	99
Es	-2.590131	-0.342369	0.015201	99
Es	-0.037373	1.880774	-0.002378	99
Es	-2.589670	0.376515	0.062221	99
Es	-0.232378	0.617968	0.005534	99
Es	1.637368	-0.656573	0.004208	99
Es	-0.248701	-0.468363	0.310233	99
Es	0.195939	-1.071386	0.002141	99
Es	-3.877056	0.034400	0.003469	99
Es	-0.238009	-0.486977	-0.317098	99
Es	1.622912	0.078795	0.001797	99
Es	2.061740	-0.940545	0.400739	99
Es	-1.989644	0.020755	-0.002924	99
Es	-1.314075	0.024093	-0.003581	99
Es	2.120035	1.279758	-0.005999	99
Es	1.532413	0.841391	-0.000511	99
Es	-3.180365	0.020808	-0.002900	99
Es	0.886660	0.998482	0.317621	99
