50
Properties=species:S:1:pos:R:3:Z:I:1 energy=-306.48120473185986 field_type=dipole dipole="0.000000 0.000000 0.000000" charge=0
C	-2.900314	-0.015498	0.970422	6
N	-1.448214	0.099252	1.021912	7
C	-0.833004	-0.478668	-0.176188	6
C	0.705826	-0.364128	-0.140008	6
C	1.290086	-1.105078	-1.350528	6
C	1.155466	1.109652	-0.111228	6
N	2.612016	1.239402	-0.036228	7
H	-3.333394	0.443332	1.864472	1
H	-3.218884	-1.062438	0.940472	1
H	-3.308994	0.508902	0.100702	1
H	-1.104014	-0.390208	1.848232	1
H	-1.213014	0.029752	-1.071258	1
H	-1.112524	-1.537108	-0.252578	1
H	1.071626	-0.864988	0.767092	1
H	0.981766	-0.633088	-2.289658	1
H	0.950516	-2.146318	-1.368478	1
H	2.384096	-1.121138	-1.320848	1
H	0.724566	1.625062	0.753782	1
H	0.802326	1.628442	-1.009568	1
H	2.942866	0.806722	0.824542	1
H	2.851196	2.228142	0.034942	1
Es	1.050363	-1.817375	-1.358752	99
Es	2.795466	0.987170	0.499742	99
Es	2.611777	1.239613	-0.035823	99
Es	0.956179	-0.706331	0.491696	99
Es	0.912462	1.462003	-0.732690	99
Es	-3.123000	-0.742422	0.944614	99
Es	2.779338	1.093589	-0.314670	99
Es	2.741661	1.841158	0.023865	99
Es	1.983641	1.188021	-0.051824	99
Es	1.290057	-1.105070	-1.350507	99
Es	-3.197328	0.293378	1.583905	99
Es	0.854540	1.459698	0.482989	99
Es	-1.360951	0.438930	1.046176	99
Es	-2.082398	0.019128	0.993972	99
Es	-0.833029	-0.478608	-0.176076	99
Es	-1.448397	0.098597	1.021853	99
Es	2.027334	-1.118867	-1.328709	99
Es	0.999073	-0.732957	-0.750515	99
Es	-2.900190	-0.015489	0.970428	99
Es	-1.025424	-1.216939	-0.233027	99
Es	0.933020	0.371282	-0.127607	99
Es	-1.096149	-0.126746	-0.788643	99
Es	-3.174226	0.338374	0.371425	99
Es	-1.248183	-0.222287	1.514364	99
Es	-0.066287	-0.415033	-0.152629	99
Es	0.705809	-0.364122	-0.140036	99
Es	-1.193949	-0.175351	0.507204	99
Es	1.155620	1.109620	-0.111234	99
Es	1.072784	-0.778673	-1.989375	99
50
Properties=species:S:1:pos:R:3:Z:I:1 energy=-306.48120473185986 field_type=dipole dipole="0.000000 0.000000 0.000000" charge=0
C	-2.900314	-0.015498	0.970422	6
N	-1.448214	0.099252	1.021912	7
C	-0.833004	-0.478668	-0.176188	6
C	0.705826	-0.364128	-0.140008	6
C	1.290086	-1.105078	-1.350528	6
C	1.155466	1.109652	-0.111228	6
N	2.612016	1.239402	-0.036228	7
H	-3.333394	0.443332	1.864472	1
H	-3.218884	-1.062438	0.940472	1
H	-3.308994	0.508902	0.100702	1
H	-1.104014	-0.390208	1.848232	1
H	-1.213014	0.029752	-1.071258	1
H	-1.112524	-1.537108	-0.252578	1
H	1.071626	-0.864988	0.767092	1
H	0.981766	-0.633088	-2.289658	1
H	0.950516	-2.146318	-1.368478	1
H	2.384096	-1.121138	-1.320848	1
H	0.724566	1.625062	0.753782	1
H	0.802326	1.628442	-1.009568	1
H	2.942866	0.806722	0.824542	1
H	2.851196	2.228142	0.034942	1
Es	-2.900188	-0.015484	0.970438	99
Es	-2.081919	0.019117	0.993850	99
Es	-1.194687	-0.175773	0.507791	99
Es	1.155619	1.109621	-0.111236	99
Es	-1.247919	-0.222841	1.515564	99
Es	0.705809	-0.364121	-0.140037	99
Es	-0.066213	-0.414984	-0.152693	99
Es	0.855022	1.459317	0.482853	99
Es	2.026605	-1.119097	-1.328297	99
Es	0.932927	0.371265	-0.127515	99
Es	-1.096277	-0.126352	-0.789294	99
Es	2.741655	1.841484	0.023188	99
Es	2.796537	0.985292	0.500291	99
Es	-0.833030	-0.478607	-0.176071	99
Es	0.956398	-0.706885	0.492487	99
Es	2.611754	1.239665	-0.035751	99
Es	1.072669	-0.778200	-1.990361	99
Es	-1.025112	-1.216936	-0.232717	99
Es	0.912197	1.462548	-0.733350	99
Es	-1.448390	0.098628	1.021856	99
Es	-3.196940	0.292834	1.583805	99
Es	-1.361072	0.439579	1.044965	99
Es	-3.122745	-0.742379	0.944951	99
Es	1.050713	-1.817354	-1.358216	99
Es	1.983697	1.187392	-0.053085	99
Es	2.777897	1.095532	-0.313057	99
Es	1.290057	-1.105071	-1.350507	99
Es	-3.174483	0.338973	0.370726	99
Es	0.999035	-0.732874	-0.750462	99
50
Properties=species:S:1:pos:R:3:Z:I:1 energy=-306.48120473185986 field_type=dipole dipole="0.000000 0.000000 0.000000" charge=0
C	-2.900314	-0.015498	0.970422	6
N	-1.448214	0.099252	1.021912	7
C	-0.833004	-0.478668	-0.176188	6
C	0.705826	-0.364128	-0.140008	6
C	1.290086	-1.105078	-1.350528	6
C	1.155466	1.109652	-0.111228	6
N	2.612016	1.239402	-0.036228	7
H	-3.333394	0.443332	1.864472	1
H	-3.218884	-1.062438	0.940472	1
H	-3.308994	0.508902	0.100702	1
H	-1.104014	-0.390208	1.848232	1
H	-1.213014	0.029752	-1.071258	1
H	-1.112524	-1.537108	-0.252578	1
H	1.071626	-0.864988	0.767092	1
H	0.981766	-0.633088	-2.289658	1
H	0.950516	-2.146318	-1.368478	1
H	2.384096	-1.121138	-1.320848	1
H	0.724566	1.625062	0.753782	1
H	0.802326	1.628442	-1.009568	1
H	2.942866	0.806722	0.824542	1
H	2.851196	2.228142	0.034942	1
Es	1.072476	-0.777936	-1.990889	99
Es	-3.196634	0.292760	1.583687	99
Es	0.912029	1.462815	-0.733684	99
Es	0.705808	-0.364123	-0.140036	99
Es	-3.122705	-0.742419	0.945300	99
Es	1.290057	-1.105071	-1.350507	99
Es	-1.096236	-0.125966	-0.789732	99
Es	-1.247232	-0.222696	1.516456	99
Es	2.741223	1.841511	0.022763	99
Es	2.777220	1.096365	-0.312768	99
Es	1.983925	1.187216	-0.053251	99
Es	2.611766	1.239642	-0.035772	99
Es	2.026080	-1.118990	-1.328153	99
Es	0.855244	1.459065	0.482768	99
Es	1.155617	1.109621	-0.111237	99
Es	-0.066157	-0.415116	-0.152664	99
Es	-0.833028	-0.478603	-0.176066	99
Es	1.051112	-1.817503	-1.357873	99
Es	-3.174628	0.339160	0.370404	99
Es	-1.448387	0.098661	1.021862	99
Es	0.999024	-0.732930	-0.750431	99
Es	-2.081563	0.018858	0.993925	99
Es	-1.025016	-1.216933	-0.232563	99
Es	0.956444	-0.707234	0.492963	99
Es	-2.900190	-0.015489	0.970427	99
Es	2.797207	0.984623	0.500779	99
Es	0.932925	0.371305	-0.127484	99
Es	-1.195190	-0.176015	0.508018	99
Es	-1.361575	0.439710	1.043874	99
50
Properties=species:S:1:pos:R:3:Z:I:1 energy=-306.48120473185986 field_type=dipole dipole="0.000000 0.000000 0.000000" charge=0
C	-2.900314	-0.015498	0.970422	6
N	-1.448214	0.099252	1.021912	7
C	-0.833004	-0.478668	-0.176188	6
C	0.705826	-0.364128	-0.140008	6
C	1.290086	-1.105078	-1.350528	6
C	1.155466	1.109652	-0.111228	6
N	2.612016	1.239402	-0.036228	7
H	-3.333394	0.443332	1.864472	1
H	-3.218884	-1.062438	0.940472	1
H	-3.308994	0.508902	0.100702	1
H	-1.104014	-0.390208	1.848232	1
H	-1.213014	0.029752	-1.071258	1
H	-1.112524	-1.537108	-0.252578	1
H	1.071626	-0.864988	0.767092	1
H	0.981766	-0.633088	-2.289658	1
H	0.950516	-2.146318	-1.368478	1
H	2.384096	-1.121138	-1.320848	1
H	0.724566	1.625062	0.753782	1
H	0.802326	1.628442	-1.009568	1
H	2.942866	0.806722	0.824542	1
H	2.851196	2.228142	0.034942	1
Es	1.290057	-1.105071	-1.350508	99
Es	-0.066110	-0.415076	-0.152725	99
Es	2.025778	-1.119120	-1.327988	99
Es	1.983639	1.186755	-0.054201	99
Es	-2.900195	-0.015489	0.970429	99
Es	2.741130	1.841441	0.022774	99
Es	-2.080868	0.018129	0.994071	99
Es	-1.362509	0.440203	1.042522	99
Es	-3.196471	0.292403	1.583722	99
Es	-1.195561	-0.176596	0.508235	99
Es	-1.246566	-0.221838	1.517496	99
Es	2.777249	1.097297	-0.311896	99
Es	-1.024867	-1.216977	-0.232336	99
Es	-1.448391	0.098626	1.021853	99
Es	-1.096349	-0.125894	-0.789987	99
Es	0.999018	-0.732810	-0.750440	99
Es	-0.833031	-0.478604	-0.176070	99
Es	-3.122514	-0.742334	0.945369	99
Es	1.072425	-0.777754	-1.991302	99
Es	0.855365	1.458969	0.482773	99
Es	2.797447	0.984155	0.500901	99
Es	0.705808	-0.364122	-0.140037	99
Es	-3.174877	0.339405	0.370210	99
Es	1.155621	1.109620	-0.111236	99
Es	0.956606	-0.707477	0.493260	99
Es	0.932876	0.371351	-0.127426	99
Es	2.611743	1.239645	-0.035759	99
Es	1.051244	-1.817446	-1.357632	99
Es	0.911920	1.462898	-0.733957	99
50
Properties=species:S:1:pos:R:3:Z:I:1 energy=-306.48120473185986 field_type=dipole dipole="0.000000 0.000000 0.000000" charge=0
C	-2.900314	-0.015498	0.970422	6
N	-1.448214	0.099252	1.021912	7
C	-0.833004	-0.478668	-0.176188	6
C	0.705826	-0.364128	-0.140008	6
C	1.290086	-1.105078	-1.350528	6
C	1.155466	1.109652	-0.111228	6
N	2.612016	1.239402	-0.036228	7
H	-3.333394	0.443332	1.864472	1
H	-3.218884	-1.062438	0.940472	1
H	-3.308994	0.508902	0.100702	1
H	-1.104014	-0.390208	1.848232	1
H	-1.213014	0.029752	-1.071258	1
H	-1.112524	-1.537108	-0.252578	1
H	1.071626	-0.864988	0.767092	1
H	0.981766	-0.633088	-2.289658	1
H	0.950516	-2.146318	-1.368478	1
H	2.384096	-1.121138	-1.320848	1
H	0.724566	1.625062	0.753782	1
H	0.802326	1.628442	-1.009568	1
H	2.942866	0.806722	0.824542	1
H	2.851196	2.228142	0.034942	1
Es	-3.196410	0.292404	1.583718	99
Es	0.956641	-0.707551	0.493496	99
Es	-1.362529	0.439909	1.041970	99
Es	1.051389	-1.817482	-1.357573	99
Es	2.611758	1.239643	-0.035758	99
Es	1.155620	1.109620	-0.111238	99
Es	0.911903	1.463068	-0.734017	99
Es	0.999021	-0.732756	-0.750342	99
Es	-1.096425	-0.125742	-0.790116	99
Es	1.072373	-0.777738	-1.991412	99
Es	0.705808	-0.364122	-0.140036	99
Es	-3.122454	-0.742354	0.945479	99
Es	-1.246332	-0.221857	1.518006	99
Es	-0.833030	-0.478607	-0.176069	99
Es	-1.448380	0.098641	1.021857	99
Es	1.290057	-1.105071	-1.350508	99
Es	0.932768	0.371396	-0.127611	99
Es	2.740691	1.841506	0.022671	99
Es	-1.195785	-0.176723	0.508501	99
Es	1.983974	1.186375	-0.055057	99
Es	-2.080933	0.018383	0.993946	99
Es	-0.066012	-0.415072	-0.152714	99
Es	-1.024732	-1.216976	-0.232305	99
Es	2.777164	1.098069	-0.311337	99
Es	2.025561	-1.119119	-1.328081	99
Es	-3.174851	0.339451	0.370020	99
Es	0.855400	1.458810	0.482814	99
Es	-2.900190	-0.015489	0.970428	99
Es	2.797550	0.983674	0.501382	99
50
Properties=species:S:1:pos:R:3:Z:I:1 energy=-306.48120473185986 field_type=dipole dipole="0.000000 0.000000 0.000000" charge=0
C	-2.900314	-0.015498	0.970422	6
N	-1.448214	0.099252	1.021912	7
C	-0.833004	-0.478668	-0.176188	6
C	0.705826	-0.364128	-0.140008	6
C	1.290086	-1.105078	-1.350528	6
C	1.155466	1.109652	-0.111228	6
N	2.612016	1.239402	-0.036228	7
H	-3.333394	0.443332	1.864472	1
H	-3.218884	-1.062438	0.940472	1
H	-3.308994	0.508902	0.100702	1
H	-1.104014	-0.390208	1.848232	1
H	-1.213014	0.029752	-1.071258	1
H	-1.112524	-1.537108	-0.252578	1
H	1.071626	-0.864988	0.767092	1
H	0.981766	-0.633088	-2.289658	1
H	0.950516	-2.146318	-1.368478	1
H	2.384096	-1.121138	-1.320848	1
H	0.724566	1.625062	0.753782	1
H	0.802326	1.628442	-1.009568	1
H	2.942866	0.806722	0.824542	1
H	2.851196	2.228142	0.034942	1
Es	-1.448398	0.098605	1.021854	99
Es	1.290055	-1.105069	-1.350506	99
Es	2.777116	1.098702	-0.310979	99
Es	-1.363003	0.440059	1.041475	99
Es	0.932784	0.371450	-0.127565	99
Es	0.705808	-0.364121	-0.140037	99
Es	1.155621	1.109621	-0.111236	99
Es	-0.065978	-0.415150	-0.152714	99
Es	-0.833030	-0.478605	-0.176070	99
Es	1.072406	-0.777595	-1.991646	99
Es	-3.174931	0.339608	0.369848	99
Es	1.051457	-1.817497	-1.357464	99
Es	-1.195799	-0.176766	0.508632	99
Es	0.998993	-0.732848	-0.750364	99
Es	2.025352	-1.119175	-1.327931	99
Es	-1.024655	-1.216931	-0.232126	99
Es	2.797868	0.983390	0.501402	99
Es	-3.196267	0.292272	1.583668	99
Es	2.611765	1.239631	-0.035780	99
Es	-1.246041	-0.221434	1.518421	99
Es	0.911849	1.463183	-0.734145	99
Es	-2.900187	-0.015492	0.970427	99
Es	2.740508	1.841404	0.022739	99
Es	0.855502	1.458719	0.482743	99
Es	-1.096429	-0.125762	-0.790355	99
Es	0.956617	-0.707642	0.493603	99
Es	-2.080754	0.017923	0.994010	99
Es	-3.122409	-0.742325	0.945607	99
Es	1.983793	1.186133	-0.055398	99
50
Properties=species:S:1:pos:R:3:Z:I:1 energy=-306.48120473185986 field_type=dipole dipole="0.000000 0.000000 0.000000" charge=0
C	-2.900314	-0.015498	0.970422	6
N	-1.448214	0.099252	1.021912	7
C	-0.833004	-0.478668	-0.176188	6
C	0.705826	-0.364128	-0.140008	6
C	1.290086	-1.105078	-1.350528	6
C	1.155466	1.109652	-0.111228	6
N	2.612016	1.239402	-0.036228	7
H	-3.333394	0.443332	1.864472	1
H	-3.218884	-1.062438	0.940472	1
H	-3.308994	0.508902	0.100702	1
H	-1.104014	-0.390208	1.848232	1
H	-1.213014	0.029752	-1.071258	1
H	-1.112524	-1.537108	-0.252578	1
H	1.071626	-0.864988	0.767092	1
H	0.981766	-0.633088	-2.289658	1
H	0.950516	-2.146318	-1.368478	1
H	2.384096	-1.121138	-1.320848	1
H	0.724566	1.625062	0.753782	1
H	0.802326	1.628442	-1.009568	1
H	2.942866	0.806722	0.824542	1
H	2.851196	2.228142	0.034942	1
Es	0.855483	1.458669	0.482807	99
Es	1.290056	-1.105071	-1.350506	99
Es	2.797814	0.983227	0.501644	99
Es	2.025135	-1.119216	-1.327910	99
Es	1.051608	-1.817464	-1.357291	99
Es	0.705808	-0.364122	-0.140036	99
Es	-3.122374	-0.742352	0.945624	99
Es	-3.174935	0.339590	0.369837	99
Es	-2.900189	-0.015489	0.970427	99
Es	-1.448378	0.098622	1.021842	99
Es	-1.096503	-0.125607	-0.790446	99
Es	-1.024682	-1.216987	-0.232019	99
Es	1.155621	1.109620	-0.111236	99
Es	0.999176	-0.732825	-0.750447	99
Es	-3.196247	0.292303	1.583700	99
Es	2.611750	1.239642	-0.035757	99
Es	-1.195997	-0.177254	0.508698	99
Es	0.911802	1.463175	-0.734147	99
Es	0.932720	0.371426	-0.127528	99
Es	-0.065931	-0.415129	-0.152693	99
Es	-0.833031	-0.478603	-0.176071	99
Es	0.956586	-0.707703	0.493718	99
Es	-1.245932	-0.221206	1.518846	99
Es	-1.363102	0.440198	1.040896	99
Es	-2.080457	0.017980	0.993979	99
Es	2.777289	1.099170	-0.310439	99
Es	1.072318	-0.777536	-1.991892	99
Es	2.740260	1.841462	0.022722	99
Es	1.983949	1.185770	-0.056208	99
50
Properties=species:S:1:pos:R:3:Z:I:1 energy=-306.48120473185986 field_type=dipole dipole="0.000000 0.000000 0.000000" charge=0
C	-2.900314	-0.015498	0.970422	6
N	-1.448214	0.099252	1.021912	7
C	-0.833004	-0.478668	-0.176188	6
C	0.705826	-0.364128	-0.140008	6
C	1.290086	-1.105078	-1.350528	6
C	1.155466	1.109652	-0.111228	6
N	2.612016	1.239402	-0.036228	7
H	-3.333394	0.443332	1.864472	1
H	-3.218884	-1.062438	0.940472	1
H	-3.308994	0.508902	0.100702	1
H	-1.104014	-0.390208	1.848232	1
H	-1.213014	0.029752	-1.071258	1
H	-1.112524	-1.537108	-0.252578	1
H	1.071626	-0.864988	0.767092	1
H	0.981766	-0.633088	-2.289658	1
H	0.950516	-2.146318	-1.368478	1
H	2.384096	-1.121138	-1.320848	1
H	0.724566	1.625062	0.753782	1
H	0.802326	1.628442	-1.009568	1
H	2.942866	0.806722	0.824542	1
H	2.851196	2.228142	0.034942	1
Es	0.999037	-0.732844	-0.750341	99
Es	-1.096521	-0.125609	-0.790512	99
Es	-1.448396	0.098628	1.021850	99
Es	0.911859	1.463249	-0.734267	99
Es	2.025025	-1.119195	-1.327969	99
Es	-3.196186	0.292187	1.583687	99
Es	0.932741	0.371467	-0.127603	99
Es	1.290056	-1.105070	-1.350508	99
Es	1.072267	-0.777525	-1.991938	99
Es	-2.080524	0.017827	0.994203	99
Es	1.983810	1.185323	-0.056829	99
Es	2.740350	1.841590	0.022369	99
Es	0.705809	-0.364123	-0.140036	99
Es	1.051725	-1.817471	-1.357298	99
Es	-1.024584	-1.216949	-0.232023	99
Es	-2.900190	-0.015489	0.970428	99
Es	2.777542	1.099077	-0.309668	99
Es	0.855516	1.458655	0.482838	99
Es	-1.245452	-0.220704	1.519249	99
Es	2.611743	1.239653	-0.035739	99
Es	0.956643	-0.707783	0.493807	99
Es	2.797505	0.983547	0.501899	99
Es	-1.196311	-0.177497	0.508993	99
Es	1.155621	1.109620	-0.111238	99
Es	-1.363280	0.440028	1.040165	99
Es	-3.174953	0.339711	0.369689	99
Es	-0.833031	-0.478605	-0.176069	99
Es	-0.065887	-0.415088	-0.152695	99
Es	-3.122317	-0.742324	0.945669	99
50
Properties=species:S:1:pos:R:3:Z:I:1 energy=-306.48120473185986 field_type=dipole dipole="0.000000 0.000000 0.000000" charge=0
C	-2.900314	-0.015498	0.970422	6
N	-1.448214	0.099252	1.021912	7
C	-0.833004	-0.478668	-0.176188	6
C	0.705826	-0.364128	-0.140008	6
C	1.290086	-1.105078	-1.350528	6
C	1.155466	1.109652	-0.111228	6
N	2.612016	1.239402	-0.036228	7
H	-3.333394	0.443332	1.864472	1
H	-3.218884	-1.062438	0.940472	1
H	-3.308994	0.508902	0.100702	1
H	-1.104014	-0.390208	1.848232	1
H	-1.213014	0.029752	-1.071258	1
H	-1.112524	-1.537108	-0.252578	1
H	1.071626	-0.864988	0.767092	1
H	0.981766	-0.633088	-2.289658	1
H	0.950516	-2.146318	-1.368478	1
H	2.384096	-1.121138	-1.320848	1
H	0.724566	1.625062	0.753782	1
H	0.802326	1.628442	-1.009568	1
H	2.942866	0.806722	0.824542	1
H	2.851196	2.228142	0.034942	1
Es	2.024903	-1.119318	-1.327847	99
Es	0.956636	-0.707926	0.493805	99
Es	0.705808	-0.364122	-0.140036	99
Es	-2.900190	-0.015489	0.970428	99
Es	0.911845	1.463234	-0.734322	99
Es	-3.196123	0.292111	1.583666	99
Es	0.932644	0.371591	-0.127445	99
Es	2.797942	0.982989	0.501827	99
Es	-1.196438	-0.177732	0.508940	99
Es	-0.833030	-0.478605	-0.176070	99
Es	1.290062	-1.105068	-1.350505	99
Es	-0.065678	-0.415122	-0.152671	99
Es	1.051658	-1.817447	-1.357160	99
Es	2.740066	1.841473	0.022655	99
Es	2.777328	1.099827	-0.309684	99
Es	0.855538	1.458665	0.482796	99
Es	-1.363635	0.440062	1.039763	99
Es	-3.175026	0.339761	0.369603	99
Es	1.155619	1.109621	-0.111237	99
Es	-3.122269	-0.742295	0.945745	99
Es	1.072404	-0.777535	-1.992120	99
Es	-1.096604	-0.125656	-0.790579	99
Es	-1.024547	-1.216931	-0.231919	99
Es	1.983851	1.185229	-0.057017	99
Es	-1.245185	-0.220285	1.519537	99
Es	0.998998	-0.732659	-0.750524	99
Es	-1.448375	0.098652	1.021838	99
Es	2.611748	1.239667	-0.035719	99
Es	-2.080333	0.017597	0.994370	99
50
Properties=species:S:1:pos:R:3:Z:I:1 energy=-306.48120473185986 field_type=dipole dipole="0.000000 0.000000 0.000000" charge=0
C	-2.900314	-0.015498	0.970422	6
N	-1.448214	0.099252	1.021912	7
C	-0.833004	-0.478668	-0.176188	6
C	0.705826	-0.364128	-0.140008	6
C	1.290086	-1.105078	-1.350528	6
C	1.155466	1.109652	-0.111228	6
N	2.612016	1.239402	-0.036228	7
H	-3.333394	0.443332	1.864472	1
H	-3.218884	-1.062438	0.940472	1
H	-3.308994	0.508902	0.100702	1
H	-1.104014	-0.390208	1.848232	1
H	-1.213014	0.029752	-1.071258	1
H	-1.112524	-1.537108	-0.252578	1
H	1.071626	-0.864988	0.767092	1
H	0.981766	-0.633088	-2.289658	1
H	0.950516	-2.146318	-1.368478	1
H	2.384096	-1.121138	-1.320848	1
H	0.724566	1.625062	0.753782	1
H	0.802326	1.628442	-1.009568	1
H	2.942866	0.806722	0.824542	1
H	2.851196	2.228142	0.034942	1
Es	0.956623	-0.707860	0.493958	99
Es	-2.900189	-0.015489	0.970428	99
Es	-1.024523	-1.216984	-0.231936	99
Es	-1.363547	0.440127	1.039277	99
Es	2.739914	1.841484	0.022773	99
Es	0.855574	1.458594	0.482851	99
Es	-2.080278	0.017594	0.994255	99
Es	1.290057	-1.105071	-1.350507	99
Es	-1.245166	-0.220259	1.519811	99
Es	2.797997	0.982921	0.501808	99
Es	-0.833030	-0.478605	-0.176070	99
Es	1.072326	-0.777499	-1.992127	99
Es	2.777554	1.100316	-0.309121	99
Es	1.051811	-1.817474	-1.357213	99
Es	-1.096540	-0.125537	-0.790638	99
Es	-1.448349	0.098810	1.021860	99
Es	1.155622	1.109620	-0.111235	99
Es	-3.174945	0.339774	0.369567	99
Es	-0.065893	-0.415159	-0.152811	99
Es	-1.196649	-0.178012	0.509301	99
Es	0.999141	-0.732694	-0.750223	99
Es	-3.196154	0.292115	1.583777	99
Es	0.705808	-0.364123	-0.140035	99
Es	2.024770	-1.119280	-1.327963	99
Es	0.932689	0.371547	-0.127540	99
Es	0.911804	1.463295	-0.734408	99
Es	-3.122218	-0.742294	0.945662	99
Es	2.611759	1.239648	-0.035760	99
Es	1.983648	1.184784	-0.057628	99
50
Properties=species:S:1:pos:R:3:Z:I:1 energy=-306.48120473185986 field_type=dipole dipole="0.000000 0.000000 0.000000" charge=0
C	-2.900314	-0.015498	0.970422	6
N	-1.448214	0.099252	1.021912	7
C	-0.833004	-0.478668	-0.176188	6
C	0.705826	-0.364128	-0.140008	6
C	1.290086	-1.105078	-1.350528	6
C	1.155466	1.109652	-0.111228	6
N	2.612016	1.239402	-0.036228	7
H	-3.333394	0.443332	1.864472	1
H	-3.218884	-1.062438	0.940472	1
H	-3.308994	0.508902	0.100702	1
H	-1.104014	-0.390208	1.848232	1
H	-1.213014	0.029752	-1.071258	1
H	-1.112524	-1.537108	-0.252578	1
H	1.071626	-0.864988	0.767092	1
H	0.981766	-0.633088	-2.289658	1
H	0.950516	-2.146318	-1.368478	1
H	2.384096	-1.121138	-1.320848	1
H	0.724566	1.625062	0.753782	1
H	0.802326	1.628442	-1.009568	1
H	2.942866	0.806722	0.824542	1
H	2.851196	2.228142	0.034942	1
Es	-3.196172	0.292096	1.583722	99
Es	-1.024517	-1.217006	-0.231926	99
Es	0.911817	1.463352	-0.734380	99
Es	1.983758	1.184679	-0.057994	99
Es	2.024778	-1.119465	-1.327961	99
Es	2.797622	0.983177	0.502092	99
Es	-1.096552	-0.125488	-0.790657	99
Es	0.855558	1.458528	0.482839	99
Es	0.956617	-0.707893	0.494021	99
Es	-3.174925	0.339792	0.369498	99
Es	0.705808	-0.364122	-0.140036	99
Es	1.072283	-0.777486	-1.992240	99
Es	-1.244709	-0.219716	1.520145	99
Es	2.777826	1.100168	-0.308761	99
Es	-1.196920	-0.178326	0.509410	99
Es	0.999134	-0.732731	-0.750329	99
Es	1.155621	1.109621	-0.111237	99
Es	-0.833030	-0.478605	-0.176070	99
Es	-0.065764	-0.415062	-0.152689	99
Es	-1.448388	0.098647	1.021852	99
Es	-2.900188	-0.015487	0.970432	99
Es	-2.080154	0.017337	0.994511	99
Es	1.051728	-1.817320	-1.357105	99
Es	-1.363804	0.440264	1.038628	99
Es	2.611747	1.239621	-0.035798	99
Es	2.739924	1.841524	0.022588	99
Es	-3.122215	-0.742272	0.945698	99
Es	0.932677	0.371532	-0.127631	99
Es	1.290056	-1.105071	-1.350507	99
50
Properties=species:S:1:pos:R:3:Z:I:1 energy=-306.48120473185986 field_type=dipole dipole="0.000000 0.000000 0.000000" charge=0
C	-2.900314	-0.015498	0.970422	6
N	-1.448214	0.099252	1.021912	7
C	-0.833004	-0.478668	-0.176188	6
C	0.705826	-0.364128	-0.140008	6
C	1.290086	-1.105078	-1.350528	6
C	1.155466	1.109652	-0.111228	6
N	2.612016	1.239402	-0.036228	7
H	-3.333394	0.443332	1.864472	1
H	-3.218884	-1.062438	0.940472	1
H	-3.308994	0.508902	0.100702	1
H	-1.104014	-0.390208	1.848232	1
H	-1.213014	0.029752	-1.071258	1
H	-1.112524	-1.537108	-0.252578	1
H	1.071626	-0.864988	0.767092	1
H	0.981766	-0.633088	-2.289658	1
H	0.950516	-2.146318	-1.368478	1
H	2.384096	-1.121138	-1.320848	1
H	0.724566	1.625062	0.753782	1
H	0.802326	1.628442	-1.009568	1
H	2.942866	0.806722	0.824542	1
H	2.851196	2.228142	0.034942	1
Es	0.932657	0.371578	-0.127597	99
Es	-1.244846	-0.219673	1.520260	99
Es	1.290057	-1.105071	-1.350508	99
Es	-0.833030	-0.478605	-0.176070	99
Es	2.611773	1.239638	-0.035740	99
Es	1.072265	-0.777520	-1.992273	99
Es	2.797935	0.982895	0.502022	99
Es	-1.448369	0.098652	1.021834	99
Es	-0.065716	-0.415130	-0.152664	99
Es	0.705809	-0.364123	-0.140036	99
Es	0.956664	-0.707896	0.494078	99
Es	-2.900185	-0.015489	0.970429	99
Es	-1.196947	-0.178671	0.509763	99
Es	-1.024510	-1.216943	-0.231832	99
Es	0.999073	-0.732705	-0.750283	99
Es	-3.196097	0.292100	1.583693	99
Es	0.911811	1.463295	-0.734474	99
Es	2.739377	1.841379	0.023095	99
Es	0.855538	1.458549	0.482899	99
Es	-3.122217	-0.742340	0.945738	99
Es	1.155617	1.109620	-0.111237	99
Es	2.778073	1.101002	-0.308729	99
Es	2.024619	-1.119335	-1.328015	99
Es	-2.080112	0.017320	0.994308	99
Es	-1.363638	0.440581	1.038348	99
Es	-1.096648	-0.125454	-0.790750	99
Es	1.051934	-1.817412	-1.357137	99
Es	1.983682	1.184216	-0.058523	99
Es	-3.174953	0.339832	0.369515	99
