44
Properties=species:S:1:pos:R:3:Z:I:1 energy=-304.09299596080314 field_type=dipole dipole="0.000000 0.000000 0.000000" charge=0
C	-1.808396	-1.183349	0.812855	6
N	-0.422536	-0.813809	0.572655	7
C	-0.163006	0.223141	-0.161865	6
C	-1.259786	1.072111	-0.784375	6
N	1.124694	0.667021	-0.460105	7
C	2.167284	-0.359289	-0.622425	6
C	2.147034	0.511421	0.587185	6
H	-1.830666	-2.093709	1.420475	1
H	-2.338006	-1.405279	-0.118655	1
H	-2.340956	-0.408209	1.372295	1
H	-1.847316	0.465091	-1.479255	1
H	-0.831286	1.912301	-1.338825	1
H	-1.911276	1.472171	-0.003065	1
H	2.859644	-0.129859	-1.418915	1
H	1.832294	-1.384199	-0.541045	1
H	1.797124	0.103971	1.525675	1
H	2.825154	1.350481	0.637395	1
Es	2.349748	-0.024866	0.058357	99
Es	-1.694464	1.329256	-0.252354	99
Es	-0.973744	1.636698	-1.156861	99
Es	1.918741	0.240442	1.217055	99
Es	-1.650754	0.653589	-1.242217	99
Es	-2.169484	-0.645314	1.186182	99
Es	1.469898	0.175597	-0.629993	99
Es	-1.039405	-0.944915	0.655906	99
Es	-1.827328	-1.804371	1.227544	99
Es	-0.331709	-0.556217	0.033571	99
Es	-1.259769	1.072068	-0.784345	99
Es	-0.422889	-0.813495	0.572447	99
Es	-2.167662	-1.324049	0.171493	99
Es	1.124716	0.666458	-0.459700	99
Es	-0.339281	-0.218684	0.506495	99
Es	1.949144	-1.046109	-0.570067	99
Es	-0.162904	0.223221	-0.161922	99
Es	1.149984	0.960207	-0.671089	99
Es	1.457768	0.677919	0.067253	99
Es	-1.808266	-1.183306	0.812827	99
Es	2.640547	-0.207246	-1.162288	99
Es	0.577375	0.439772	-0.305638	99
Es	2.610646	1.079050	0.624746	99
Es	-0.710052	0.655879	-0.477982	99
Es	2.146880	0.511412	0.586953	99
Es	-0.153033	-1.020400	0.724733	99
Es	2.167125	-0.359078	-0.622349	99
44
Properties=species:S:1:pos:R:3:Z:I:1 energy=-304.09299596080314 field_type=dipole dipole="0.000000 0.000000 0.000000" charge=0
C	-1.808396	-1.183349	0.812855	6
N	-0.422536	-0.813809	0.572655	7
C	-0.163006	0.223141	-0.161865	6
C	-1.259786	1.072111	-0.784375	6
N	1.124694	0.667021	-0.460105	7
C	2.167284	-0.359289	-0.622425	6
C	2.147034	0.511421	0.587185	6
H	-1.830666	-2.093709	1.420475	1
H	-2.338006	-1.405279	-0.118655	1
H	-2.340956	-0.408209	1.372295	1
H	-1.847316	0.465091	-1.479255	1
H	-0.831286	1.912301	-1.338825	1
H	-1.911276	1.472171	-0.003065	1
H	2.859644	-0.129859	-1.418915	1
H	1.832294	-1.384199	-0.541045	1
H	1.797124	0.103971	1.525675	1
H	2.825154	1.350481	0.637395	1
Es	2.640850	-0.207029	-1.162307	99
Es	-1.259767	1.072065	-0.784344	99
Es	-0.331656	-0.555645	0.033682	99
Es	-0.422907	-0.813485	0.572416	99
Es	1.949140	-1.046441	-0.569776	99
Es	-0.973598	1.637420	-1.157409	99
Es	-2.169189	-0.645598	1.185690	99
Es	1.918728	0.240222	1.217443	99
Es	-2.167703	-1.323442	0.171934	99
Es	-0.152986	-1.019613	0.723517	99
Es	2.167123	-0.359073	-0.622349	99
Es	-1.039634	-0.945845	0.656292	99
Es	1.124718	0.666470	-0.459708	99
Es	2.146877	0.511415	0.586953	99
Es	2.348908	-0.024502	0.057886	99
Es	-1.650712	0.653503	-1.241568	99
Es	-1.827649	-1.805005	1.227902	99
Es	1.469818	0.176141	-0.627681	99
Es	-1.694271	1.328725	-0.252591	99
Es	-0.162903	0.223221	-0.161923	99
Es	-0.710328	0.655744	-0.477827	99
Es	0.577857	0.438748	-0.304924	99
Es	2.610913	1.079138	0.624355	99
Es	-1.808266	-1.183307	0.812827	99
Es	1.150191	0.962299	-0.672892	99
Es	1.457425	0.676408	0.066033	99
Es	-0.339151	-0.219015	0.507126	99
44
Properties=species:S:1:pos:R:3:Z:I:1 energy=-304.09299596080314 field_type=dipole dipole="0.000000 0.000000 0.000000" charge=0
C	-1.808396	-1.183349	0.812855	6
N	-0.422536	-0.813809	0.572655	7
C	-0.163006	0.223141	-0.161865	6
C	-1.259786	1.072111	-0.784375	6
N	1.124694	0.667021	-0.460105	7
C	2.167284	-0.359289	-0.622425	6
C	2.147034	0.511421	0.587185	6
H	-1.830666	-2.093709	1.420475	1
H	-2.338006	-1.405279	-0.118655	1
H	-2.340956	-0.408209	1.372295	1
H	-1.847316	0.465091	-1.479255	1
H	-0.831286	1.912301	-1.338825	1
H	-1.911276	1.472171	-0.003065	1
H	2.859644	-0.129859	-1.418915	1
H	1.832294	-1.384199	-0.541045	1
H	1.797124	0.103971	1.525675	1
H	2.825154	1.350481	0.637395	1
Es	-0.153066	-1.019008	0.723099	99
Es	-0.422907	-0.813484	0.572418	99
Es	1.949222	-1.046694	-0.569535	99
Es	0.578029	0.438583	-0.304001	99
Es	1.918759	0.239807	1.217402	99
Es	-1.650609	0.653640	-1.241111	99
Es	2.348106	-0.023798	0.057811	99
Es	-1.039659	-0.946318	0.656616	99
Es	-0.339185	-0.218669	0.507237	99
Es	-2.169205	-0.645673	1.185333	99
Es	-1.259766	1.072064	-0.784343	99
Es	2.641085	-0.206831	-1.162296	99
Es	-0.162899	0.223224	-0.161926	99
Es	2.167128	-0.359079	-0.622351	99
Es	1.457845	0.675291	0.065088	99
Es	-2.167552	-1.323325	0.172122	99
Es	-0.710667	0.655399	-0.477939	99
Es	2.146882	0.511415	0.586959	99
Es	-1.808261	-1.183304	0.812827	99
Es	1.469225	0.176161	-0.627274	99
Es	-1.694216	1.328290	-0.252711	99
Es	-0.973296	1.637981	-1.157750	99
Es	-1.827740	-1.805266	1.228158	99
Es	-0.331640	-0.555996	0.033765	99
Es	1.150279	0.963384	-0.673514	99
Es	1.124715	0.666478	-0.459715	99
Es	2.611220	1.079248	0.624387	99
44
Properties=species:S:1:pos:R:3:Z:I:1 energy=-304.09299596080314 field_type=dipole dipole="0.000000 0.000000 0.000000" charge=0
C	-1.808396	-1.183349	0.812855	6
N	-0.422536	-0.813809	0.572655	7
C	-0.163006	0.223141	-0.161865	6
C	-1.259786	1.072111	-0.784375	6
N	1.124694	0.667021	-0.460105	7
C	2.167284	-0.359289	-0.622425	6
C	2.147034	0.511421	0.587185	6
H	-1.830666	-2.093709	1.420475	1
H	-2.338006	-1.405279	-0.118655	1
H	-2.340956	-0.408209	1.372295	1
H	-1.847316	0.465091	-1.479255	1
H	-0.831286	1.912301	-1.338825	1
H	-1.911276	1.472171	-0.003065	1
H	2.859644	-0.129859	-1.418915	1
H	1.832294	-1.384199	-0.541045	1
H	1.797124	0.103971	1.525675	1
H	2.825154	1.350481	0.637395	1
Es	-1.694217	1.328061	-0.252881	99
Es	1.469348	0.176635	-0.626241	99
Es	-0.710766	0.655432	-0.477716	99
Es	2.347771	-0.023585	0.057409	99
Es	-0.162901	0.223227	-0.161918	99
Es	-0.973258	1.638260	-1.157905	99
Es	2.641173	-0.206768	-1.162390	99
Es	-0.422932	-0.813474	0.572409	99
Es	-0.153217	-1.018267	0.723176	99
Es	-2.167512	-1.323083	0.172288	99
Es	2.611333	1.079298	0.624315	99
Es	-0.331512	-0.556746	0.033726	99
Es	0.577979	0.438276	-0.304263	99
Es	1.918821	0.239503	1.217497	99
Es	1.150843	0.964401	-0.673816	99
Es	2.146880	0.511413	0.586954	99
Es	-1.259767	1.072065	-0.784344	99
Es	1.124686	0.666481	-0.459717	99
Es	-1.808266	-1.183307	0.812827	99
Es	-1.650499	0.653576	-1.240921	99
Es	-1.039675	-0.946574	0.656968	99
Es	1.949102	-1.046829	-0.569416	99
Es	-2.169124	-0.645806	1.185130	99
Es	1.457393	0.674349	0.064875	99
Es	2.167129	-0.359074	-0.622344	99
Es	-1.827893	-1.805513	1.228261	99
Es	-0.339093	-0.218430	0.506792	99
44
Properties=species:S:1:pos:R:3:Z:I:1 energy=-304.09299596080314 field_type=dipole dipole="0.000000 0.000000 0.000000" charge=0
C	-1.808396	-1.183349	0.812855	6
N	-0.422536	-0.813809	0.572655	7
C	-0.163006	0.223141	-0.161865	6
C	-1.259786	1.072111	-0.784375	6
N	1.124694	0.667021	-0.460105	7
C	2.167284	-0.359289	-0.622425	6
C	2.147034	0.511421	0.587185	6
H	-1.830666	-2.093709	1.420475	1
H	-2.338006	-1.405279	-0.118655	1
H	-2.340956	-0.408209	1.372295	1
H	-1.847316	0.465091	-1.479255	1
H	-0.831286	1.912301	-1.338825	1
H	-1.911276	1.472171	-0.003065	1
H	2.859644	-0.129859	-1.418915	1
H	1.832294	-1.384199	-0.541045	1
H	1.797124	0.103971	1.525675	1
H	2.825154	1.350481	0.637395	1
Es	-0.710881	0.655356	-0.477707	99
Es	2.347607	-0.023415	0.057261	99
Es	2.611360	1.079442	0.624289	99
Es	2.641270	-0.206717	-1.162364	99
Es	1.469359	0.176799	-0.625425	99
Es	-0.422909	-0.813477	0.572412	99
Es	-1.650518	0.653549	-1.240484	99
Es	2.167122	-0.359071	-0.622344	99
Es	-0.973239	1.638498	-1.158283	99
Es	-0.162900	0.223227	-0.161925	99
Es	-0.339087	-0.219051	0.507234	99
Es	1.918801	0.239310	1.217564	99
Es	-0.153003	-1.018246	0.722537	99
Es	0.578032	0.438076	-0.303821	99
Es	-1.259767	1.072065	-0.784344	99
Es	-2.168965	-0.645884	1.184776	99
Es	-1.828084	-1.805666	1.228561	99
Es	-1.694083	1.327900	-0.252967	99
Es	-2.167510	-1.322927	0.172419	99
Es	-1.808265	-1.183307	0.812827	99
Es	1.457278	0.673854	0.064143	99
Es	-0.331650	-0.555888	0.033671	99
Es	1.124715	0.666472	-0.459710	99
Es	-1.039776	-0.946791	0.657220	99
Es	1.949072	-1.046930	-0.569345	99
Es	1.150970	0.964927	-0.674386	99
Es	2.146876	0.511414	0.586950	99
44
Properties=species:S:1:pos:R:3:Z:I:1 energy=-304.09299596080314 field_type=dipole dipole="0.000000 0.000000 0.000000" charge=0
C	-1.808396	-1.183349	0.812855	6
N	-0.422536	-0.813809	0.572655	7
C	-0.163006	0.223141	-0.161865	6
C	-1.259786	1.072111	-0.784375	6
N	1.124694	0.667021	-0.460105	7
C	2.167284	-0.359289	-0.622425	6
C	2.147034	0.511421	0.587185	6
H	-1.830666	-2.093709	1.420475	1
H	-2.338006	-1.405279	-0.118655	1
H	-2.340956	-0.408209	1.372295	1
H	-1.847316	0.465091	-1.479255	1
H	-0.831286	1.912301	-1.338825	1
H	-1.911276	1.472171	-0.003065	1
H	2.859644	-0.129859	-1.418915	1
H	1.832294	-1.384199	-0.541045	1
H	1.797124	0.103971	1.525675	1
H	2.825154	1.350481	0.637395	1
Es	-1.259767	1.072064	-0.784343	99
Es	-0.973049	1.638741	-1.158280	99
Es	-0.339073	-0.219121	0.507121	99
Es	1.151041	0.965447	-0.674395	99
Es	2.146885	0.511416	0.586963	99
Es	1.918796	0.239219	1.217662	99
Es	-2.169019	-0.645909	1.184590	99
Es	1.457594	0.673215	0.064275	99
Es	-1.650421	0.653665	-1.240421	99
Es	2.167123	-0.359075	-0.622351	99
Es	-1.039927	-0.946737	0.657135	99
Es	1.949168	-1.047042	-0.569261	99
Es	-2.167376	-1.322825	0.172571	99
Es	-0.331461	-0.556050	0.033674	99
Es	-0.153057	-1.018030	0.722695	99
Es	-0.162901	0.223223	-0.161926	99
Es	1.124731	0.666471	-0.459708	99
Es	2.346986	-0.023200	0.057125	99
Es	-1.694120	1.327681	-0.252987	99
Es	-0.711093	0.655235	-0.477717	99
Es	-1.808265	-1.183307	0.812828	99
Es	2.611552	1.079405	0.624157	99
Es	-0.422909	-0.813483	0.572419	99
Es	0.578076	0.437773	-0.303946	99
Es	2.641463	-0.206501	-1.162368	99
Es	-1.828156	-1.805856	1.228641	99
Es	1.469008	0.177100	-0.625399	99
44
Properties=species:S:1:pos:R:3:Z:I:1 energy=-304.09299596080314 field_type=dipole dipole="0.000000 0.000000 0.000000" charge=0
C	-1.808396	-1.183349	0.812855	6
N	-0.422536	-0.813809	0.572655	7
C	-0.163006	0.223141	-0.161865	6
C	-1.259786	1.072111	-0.784375	6
N	1.124694	0.667021	-0.460105	7
C	2.167284	-0.359289	-0.622425	6
C	2.147034	0.511421	0.587185	6
H	-1.830666	-2.093709	1.420475	1
H	-2.338006	-1.405279	-0.118655	1
H	-2.340956	-0.408209	1.372295	1
H	-1.847316	0.465091	-1.479255	1
H	-0.831286	1.912301	-1.338825	1
H	-1.911276	1.472171	-0.003065	1
H	2.859644	-0.129859	-1.418915	1
H	1.832294	-1.384199	-0.541045	1
H	1.797124	0.103971	1.525675	1
H	2.825154	1.350481	0.637395	1
Es	-0.973044	1.638839	-1.158308	99
Es	2.641462	-0.206614	-1.162443	99
Es	-1.650284	0.653634	-1.240391	99
Es	1.949150	-1.047087	-0.568998	99
Es	1.457312	0.673285	0.063946	99
Es	1.151448	0.965392	-0.675158	99
Es	-0.422894	-0.813509	0.572439	99
Es	2.611552	1.079466	0.624121	99
Es	-2.168962	-0.646029	1.184592	99
Es	-1.259767	1.072066	-0.784343	99
Es	-2.167402	-1.322689	0.172637	99
Es	0.577944	0.437756	-0.303878	99
Es	-0.338931	-0.218708	0.507298	99
Es	2.167129	-0.359081	-0.622354	99
Es	-0.153081	-1.017783	0.721944	99
Es	-1.828272	-1.805923	1.228576	99
Es	-1.694211	1.327580	-0.253064	99
Es	-1.808268	-1.183307	0.812827	99
Es	1.124714	0.666483	-0.459717	99
Es	-0.331892	-0.556200	0.033692	99
Es	1.918826	0.239139	1.217694	99
Es	-1.039575	-0.947174	0.657745	99
Es	2.346937	-0.022942	0.057023	99
Es	-0.162898	0.223227	-0.161925	99
Es	2.146880	0.511412	0.586954	99
Es	-0.711119	0.655257	-0.477712	99
Es	1.469073	0.177025	-0.624441	99
44
Properties=species:S:1:pos:R:3:Z:I:1 energy=-304.09299596080314 field_type=dipole dipole="0.000000 0.000000 0.000000" charge=0
C	-1.808396	-1.183349	0.812855	6
N	-0.422536	-0.813809	0.572655	7
C	-0.163006	0.223141	-0.161865	6
C	-1.259786	1.072111	-0.784375	6
N	1.124694	0.667021	-0.460105	7
C	2.167284	-0.359289	-0.622425	6
C	2.147034	0.511421	0.587185	6
H	-1.830666	-2.093709	1.420475	1
H	-2.338006	-1.405279	-0.118655	1
H	-2.340956	-0.408209	1.372295	1
H	-1.847316	0.465091	-1.479255	1
H	-0.831286	1.912301	-1.338825	1
H	-1.911276	1.472171	-0.003065	1
H	2.859644	-0.129859	-1.418915	1
H	1.832294	-1.384199	-0.541045	1
H	1.797124	0.103971	1.525675	1
H	2.825154	1.350481	0.637395	1
Es	1.124724	0.666476	-0.459712	99
Es	-0.162899	0.223231	-0.161919	99
Es	-0.973014	1.638975	-1.158385	99
Es	-0.339373	-0.218759	0.506628	99
Es	1.457284	0.672747	0.063682	99
Es	-1.828172	-1.805954	1.228679	99
Es	0.577959	0.437643	-0.303796	99
Es	-1.039718	-0.947209	0.657515	99
Es	-0.711154	0.655230	-0.477642	99
Es	1.918810	0.239135	1.217699	99
Es	2.167125	-0.359076	-0.622350	99
Es	1.949164	-1.047155	-0.569024	99
Es	2.611614	1.079518	0.624075	99
Es	1.468979	0.177273	-0.624265	99
Es	1.151556	0.965870	-0.675134	99
Es	-2.167362	-1.322764	0.172693	99
Es	2.346890	-0.022975	0.056998	99
Es	-1.259767	1.072065	-0.784344	99
Es	-0.153123	-1.017121	0.722813	99
Es	-1.694126	1.327467	-0.253074	99
Es	-1.808265	-1.183306	0.812827	99
Es	2.641439	-0.206555	-1.162423	99
Es	-2.169022	-0.646039	1.184505	99
Es	-1.650318	0.653652	-1.240270	99
Es	-0.422792	-0.813522	0.572451	99
Es	2.146875	0.511418	0.586955	99
Es	-0.331488	-0.556745	0.033573	99
44
Properties=species:S:1:pos:R:3:Z:I:1 energy=-304.09299596080314 field_type=dipole dipole="0.000000 0.000000 0.000000" charge=0
C	-1.808396	-1.183349	0.812855	6
N	-0.422536	-0.813809	0.572655	7
C	-0.163006	0.223141	-0.161865	6
C	-1.259786	1.072111	-0.784375	6
N	1.124694	0.667021	-0.460105	7
C	2.167284	-0.359289	-0.622425	6
C	2.147034	0.511421	0.587185	6
H	-1.830666	-2.093709	1.420475	1
H	-2.338006	-1.405279	-0.118655	1
H	-2.340956	-0.408209	1.372295	1
H	-1.847316	0.465091	-1.479255	1
H	-0.831286	1.912301	-1.338825	1
H	-1.911276	1.472171	-0.003065	1
H	2.859644	-0.129859	-1.418915	1
H	1.832294	-1.384199	-0.541045	1
H	1.797124	0.103971	1.525675	1
H	2.825154	1.350481	0.637395	1
Es	-1.828341	-1.806078	1.228784	99
Es	1.456963	0.672913	0.063664	99
Es	2.167125	-0.359074	-0.622344	99
Es	2.346735	-0.022835	0.056783	99
Es	-1.039807	-0.947087	0.657480	99
Es	-1.694038	1.327394	-0.253083	99
Es	-0.339071	-0.218819	0.507150	99
Es	1.151696	0.965824	-0.675465	99
Es	1.949104	-1.047174	-0.568937	99
Es	0.577957	0.437582	-0.303952	99
Es	1.124726	0.666501	-0.459737	99
Es	-1.259766	1.072065	-0.784344	99
Es	2.641476	-0.206523	-1.162546	99
Es	-1.808267	-1.183306	0.812827	99
Es	-0.153091	-1.017624	0.722297	99
Es	-2.167310	-1.322607	0.172728	99
Es	-0.162901	0.223225	-0.161923	99
Es	-0.711244	0.655169	-0.477678	99
Es	-2.168938	-0.646079	1.184325	99
Es	2.146876	0.511420	0.586957	99
Es	-0.422901	-0.813483	0.572426	99
Es	-0.972954	1.639082	-1.158489	99
Es	-1.650340	0.653609	-1.240153	99
Es	-0.331624	-0.556310	0.033751	99
Es	2.611643	1.079514	0.624042	99
Es	1.918843	0.238957	1.217776	99
Es	1.469277	0.177263	-0.623584	99
44
Properties=species:S:1:pos:R:3:Z:I:1 energy=-304.09299596080314 field_type=dipole dipole="0.000000 0.000000 0.000000" charge=0
C	-1.808396	-1.183349	0.812855	6
N	-0.422536	-0.813809	0.572655	7
C	-0.163006	0.223141	-0.161865	6
C	-1.259786	1.072111	-0.784375	6
N	1.124694	0.667021	-0.460105	7
C	2.167284	-0.359289	-0.622425	6
C	2.147034	0.511421	0.587185	6
H	-1.830666	-2.093709	1.420475	1
H	-2.338006	-1.405279	-0.118655	1
H	-2.340956	-0.408209	1.372295	1
H	-1.847316	0.465091	-1.479255	1
H	-0.831286	1.912301	-1.338825	1
H	-1.911276	1.472171	-0.003065	1
H	2.859644	-0.129859	-1.418915	1
H	1.832294	-1.384199	-0.541045	1
H	1.797124	0.103971	1.525675	1
H	2.825154	1.350481	0.637395	1
Es	2.611652	1.079502	0.624046	99
Es	1.918810	0.238986	1.217768	99
Es	-1.828355	-1.806133	1.228780	99
Es	1.469264	0.177451	-0.623366	99
Es	1.457030	0.672976	0.063426	99
Es	2.167124	-0.359075	-0.622350	99
Es	2.146873	0.511419	0.586953	99
Es	-0.162898	0.223229	-0.161923	99
Es	1.124711	0.666517	-0.459779	99
Es	-0.153152	-1.017411	0.721798	99
Es	1.949133	-1.047305	-0.568940	99
Es	-0.711223	0.655144	-0.477749	99
Es	-0.972985	1.639112	-1.158586	99
Es	-1.259768	1.072065	-0.784345	99
Es	2.641471	-0.206460	-1.162450	99
Es	-2.168936	-0.646067	1.184316	99
Es	-1.808265	-1.183306	0.812827	99
Es	0.578040	0.437253	-0.303804	99
Es	-1.694077	1.327361	-0.253105	99
Es	-1.650281	0.653624	-1.240044	99
Es	-0.422905	-0.813491	0.572422	99
Es	-1.039722	-0.947536	0.657579	99
Es	2.346732	-0.022763	0.056852	99
Es	-2.167306	-1.322572	0.172855	99
Es	-0.339176	-0.219170	0.507822	99
Es	-0.331523	-0.555689	0.033449	99
Es	1.151563	0.965857	-0.675697	99
44
Properties=species:S:1:pos:R:3:Z:I:1 energy=-304.09299596080314 field_type=dipole dipole="0.000000 0.000000 0.000000" charge=0
C	-1.808396	-1.183349	0.812855	6
N	-0.422536	-0.813809	0.572655	7
C	-0.163006	0.223141	-0.161865	6
C	-1.259786	1.072111	-0.784375	6
N	1.124694	0.667021	-0.460105	7
C	2.167284	-0.359289	-0.622425	6
C	2.147034	0.511421	0.587185	6
H	-1.830666	-2.093709	1.420475	1
H	-2.338006	-1.405279	-0.118655	1
H	-2.340956	-0.408209	1.372295	1
H	-1.847316	0.465091	-1.479255	1
H	-0.831286	1.912301	-1.338825	1
H	-1.911276	1.472171	-0.003065	1
H	2.859644	-0.129859	-1.418915	1
H	1.832294	-1.384199	-0.541045	1
H	1.797124	0.103971	1.525675	1
H	2.825154	1.350481	0.637395	1
Es	2.146879	0.511415	0.586956	99
Es	2.611806	1.079496	0.624010	99
Es	-1.694108	1.327351	-0.253099	99
Es	-0.331366	-0.556912	0.033657	99
Es	1.457337	0.672110	0.063274	99
Es	-1.650210	0.653620	-1.239990	99
Es	1.151820	0.966447	-0.675287	99
Es	-0.162900	0.223226	-0.161925	99
Es	0.577947	0.437543	-0.303703	99
Es	-0.972935	1.639131	-1.158653	99
Es	-2.168910	-0.646136	1.184199	99
Es	-2.167328	-1.322572	0.172878	99
Es	-1.039713	-0.947689	0.657600	99
Es	-1.828381	-1.806133	1.228883	99
Es	2.641603	-0.206440	-1.162391	99
Es	-0.711310	0.655229	-0.477584	99
Es	-0.422910	-0.813489	0.572422	99
Es	-1.259768	1.072062	-0.784343	99
Es	-0.153066	-1.016640	0.722588	99
Es	1.468809	0.177467	-0.623940	99
Es	1.918745	0.238958	1.217790	99
Es	1.124720	0.666471	-0.459709	99
Es	2.346413	-0.022688	0.056921	99
Es	1.949179	-1.047276	-0.568923	99
Es	-1.808261	-1.183307	0.812827	99
Es	2.167124	-0.359075	-0.622349	99
Es	-0.339388	-0.218651	0.506650	99
44
Properties=species:S:1:pos:R:3:Z:I:1 energy=-304.09299596080314 field_type=dipole dipole="0.000000 0.000000 0.000000" charge=0
C	-1.808396	-1.183349	0.812855	6
N	-0.422536	-0.813809	0.572655	7
C	-0.163006	0.223141	-0.161865	6
C	-1.259786	1.072111	-0.784375	6
N	1.124694	0.667021	-0.460105	7
C	2.167284	-0.359289	-0.622425	6
C	2.147034	0.511421	0.587185	6
H	-1.830666	-2.093709	1.420475	1
H	-2.338006	-1.405279	-0.118655	1
H	-2.340956	-0.408209	1.372295	1
H	-1.847316	0.465091	-1.479255	1
H	-0.831286	1.912301	-1.338825	1
H	-1.911276	1.472171	-0.003065	1
H	2.859644	-0.129859	-1.418915	1
H	1.832294	-1.384199	-0.541045	1
H	1.797124	0.103971	1.525675	1
H	2.825154	1.350481	0.637395	1
Es	-1.259768	1.072065	-0.784344	99
Es	-1.828425	-1.806126	1.228932	99
Es	-1.808265	-1.183307	0.812827	99
Es	2.146877	0.511417	0.586953	99
Es	-0.331624	-0.556420	0.033679	99
Es	-0.153092	-1.016953	0.721881	99
Es	-1.650323	0.653701	-1.239935	99
Es	-0.422906	-0.813490	0.572424	99
Es	-1.039764	-0.947641	0.657911	99
Es	-0.711294	0.655088	-0.477641	99
Es	1.151295	0.966811	-0.675064	99
Es	-0.162899	0.223227	-0.161924	99
Es	2.167123	-0.359075	-0.622351	99
Es	-0.339055	-0.218850	0.507104	99
Es	2.611781	1.079502	0.624005	99
Es	1.918823	0.238845	1.217806	99
Es	1.949129	-1.047309	-0.568905	99
Es	1.457306	0.672008	0.062995	99
Es	-2.168816	-0.646185	1.184173	99
Es	2.346397	-0.022550	0.056879	99
Es	1.469070	0.177641	-0.624240	99
Es	-0.972926	1.639167	-1.158666	99
Es	1.124725	0.666498	-0.459729	99
Es	-1.694010	1.327342	-0.253180	99
Es	2.641600	-0.206451	-1.162391	99
Es	-2.167387	-1.322528	0.172864	99
Es	0.578253	0.437091	-0.303308	99
44
Properties=species:S:1:pos:R:3:Z:I:1 energy=-304.09299596080314 field_type=dipole dipole="0.000000 0.000000 0.000000" charge=0
C	-1.808396	-1.183349	0.812855	6
N	-0.422536	-0.813809	0.572655	7
C	-0.163006	0.223141	-0.161865	6
C	-1.259786	1.072111	-0.784375	6
N	1.124694	0.667021	-0.460105	7
C	2.167284	-0.359289	-0.622425	6
C	2.147034	0.511421	0.587185	6
H	-1.830666	-2.093709	1.420475	1
H	-2.338006	-1.405279	-0.118655	1
H	-2.340956	-0.408209	1.372295	1
H	-1.847316	0.465091	-1.479255	1
H	-0.831286	1.912301	-1.338825	1
H	-1.911276	1.472171	-0.003065	1
H	2.859644	-0.129859	-1.418915	1
H	1.832294	-1.384199	-0.541045	1
H	1.797124	0.103971	1.525675	1
H	2.825154	1.350481	0.637395	1
Es	-1.808267	-1.183308	0.812828	99
Es	1.124707	0.666467	-0.459706	99
Es	-2.167361	-1.322570	0.172975	99
Es	-0.162899	0.223227	-0.161924	99
Es	1.151705	0.966422	-0.675920	99
Es	2.611844	1.079495	0.623939	99
Es	-0.422907	-0.813467	0.572405	99
Es	-2.168866	-0.646179	1.184113	99
Es	2.641667	-0.206378	-1.162416	99
Es	-0.331566	-0.555742	0.033444	99
Es	2.167124	-0.359076	-0.622350	99
Es	-0.339058	-0.219162	0.507869	99
Es	1.468893	0.177535	-0.623214	99
Es	1.949162	-1.047315	-0.568892	99
Es	2.146876	0.511418	0.586956	99
Es	-1.650367	0.653656	-1.239884	99
Es	-1.259767	1.072065	-0.784344	99
Es	-1.039714	-0.947741	0.657707	99
Es	0.578170	0.437286	-0.303655	99
Es	-0.711378	0.655085	-0.477499	99
Es	1.918804	0.238849	1.217846	99
Es	-1.693958	1.327371	-0.253266	99
Es	2.346243	-0.022672	0.056713	99
Es	1.457195	0.672407	0.063292	99
Es	-0.153226	-1.017175	0.721478	99
Es	-0.972848	1.639173	-1.158722	99
Es	-1.828381	-1.806154	1.228983	99
44
Properties=species:S:1:pos:R:3:Z:I:1 energy=-304.09299596080314 field_type=dipole dipole="0.000000 0.000000 0.000000" charge=0
C	-1.808396	-1.183349	0.812855	6
N	-0.422536	-0.813809	0.572655	7
C	-0.163006	0.223141	-0.161865	6
C	-1.259786	1.072111	-0.784375	6
N	1.124694	0.667021	-0.460105	7
C	2.167284	-0.359289	-0.622425	6
C	2.147034	0.511421	0.587185	6
H	-1.830666	-2.093709	1.420475	1
H	-2.338006	-1.405279	-0.118655	1
H	-2.340956	-0.408209	1.372295	1
H	-1.847316	0.465091	-1.479255	1
H	-0.831286	1.912301	-1.338825	1
H	-1.911276	1.472171	-0.003065	1
H	2.859644	-0.129859	-1.418915	1
H	1.832294	-1.384199	-0.541045	1
H	1.797124	0.103971	1.525675	1
H	2.825154	1.350481	0.637395	1
Es	-1.259766	1.072064	-0.784344	99
Es	-0.339024	-0.219137	0.507656	99
Es	-0.153356	-1.016838	0.721621	99
Es	1.918826	0.238784	1.217846	99
Es	-0.711370	0.655040	-0.477599	99
Es	1.124725	0.666487	-0.459720	99
Es	-0.162897	0.223227	-0.161927	99
Es	-1.650294	0.653719	-1.239818	99
Es	2.167124	-0.359076	-0.622350	99
Es	2.611804	1.079505	0.623974	99
Es	-1.039788	-0.947863	0.657855	99
Es	-2.168842	-0.646196	1.184104	99
Es	1.468964	0.177591	-0.623507	99
Es	-2.167319	-1.322455	0.172951	99
Es	2.641643	-0.206386	-1.162412	99
Es	-0.422896	-0.813470	0.572409	99
Es	1.457117	0.672005	0.063099	99
Es	1.949182	-1.047376	-0.568803	99
Es	0.578135	0.437232	-0.303600	99
Es	2.346263	-0.022468	0.056709	99
Es	2.146877	0.511418	0.586956	99
Es	-1.693984	1.327189	-0.253236	99
Es	-0.972904	1.639336	-1.158734	99
Es	-1.828487	-1.806221	1.228933	99
Es	-0.331356	-0.556036	0.033437	99
Es	-1.808265	-1.183306	0.812827	99
Es	1.151718	0.966751	-0.675568	99
44
Properties=species:S:1:pos:R:3:Z:I:1 energy=-304.09299596080314 field_type=dipole dipole="0.000000 0.000000 0.000000" charge=0
C	-1.808396	-1.183349	0.812855	6
N	-0.422536	-0.813809	0.572655	7
C	-0.163006	0.223141	-0.161865	6
C	-1.259786	1.072111	-0.784375	6
N	1.124694	0.667021	-0.460105	7
C	2.167284	-0.359289	-0.622425	6
C	2.147034	0.511421	0.587185	6
H	-1.830666	-2.093709	1.420475	1
H	-2.338006	-1.405279	-0.118655	1
H	-2.340956	-0.408209	1.372295	1
H	-1.847316	0.465091	-1.479255	1
H	-0.831286	1.912301	-1.338825	1
H	-1.911276	1.472171	-0.003065	1
H	2.859644	-0.129859	-1.418915	1
H	1.832294	-1.384199	-0.541045	1
H	1.797124	0.103971	1.525675	1
H	2.825154	1.350481	0.637395	1
Es	1.949176	-1.047354	-0.568713	99
Es	2.167127	-0.359076	-0.622353	99
Es	-0.422895	-0.813523	0.572445	99
Es	2.146876	0.511417	0.586955	99
Es	-0.152880	-1.016626	0.721641	99
Es	-2.167359	-1.322425	0.173001	99
Es	1.918844	0.238776	1.217781	99
Es	-2.168758	-0.646210	1.184013	99
Es	-0.972825	1.639374	-1.158650	99
Es	-1.828536	-1.806234	1.229038	99
Es	1.151854	0.966747	-0.675645	99
Es	2.346287	-0.022543	0.056499	99
Es	-1.694064	1.327148	-0.253290	99
Es	1.469315	0.177757	-0.623071	99
Es	2.611762	1.079653	0.623991	99
Es	2.641582	-0.206424	-1.162533	99
Es	-0.711456	0.654980	-0.477574	99
Es	-0.162901	0.223228	-0.161920	99
Es	-0.331589	-0.555905	0.033516	99
Es	1.124715	0.666474	-0.459712	99
Es	0.577996	0.436998	-0.303963	99
Es	-1.650215	0.653725	-1.239900	99
Es	-1.808265	-1.183304	0.812826	99
Es	-1.259767	1.072065	-0.784345	99
Es	-1.039711	-0.948035	0.658027	99
Es	-0.339294	-0.219258	0.507353	99
Es	1.456809	0.672092	0.063337	99
44
Properties=species:S:1:pos:R:3:Z:I:1 energy=-304.09299596080314 field_type=dipole dipole="0.000000 0.000000 0.000000" charge=0
C	-1.808396	-1.183349	0.812855	6
N	-0.422536	-0.813809	0.572655	7
C	-0.163006	0.223141	-0.161865	6
C	-1.259786	1.072111	-0.784375	6
N	1.124694	0.667021	-0.460105	7
C	2.167284	-0.359289	-0.622425	6
C	2.147034	0.511421	0.587185	6
H	-1.830666	-2.093709	1.420475	1
H	-2.338006	-1.405279	-0.118655	1
H	-2.340956	-0.408209	1.372295	1
H	-1.847316	0.465091	-1.479255	1
H	-0.831286	1.912301	-1.338825	1
H	-1.911276	1.472171	-0.003065	1
H	2.859644	-0.129859	-1.418915	1
H	1.832294	-1.384199	-0.541045	1
H	1.797124	0.103971	1.525675	1
H	2.825154	1.350481	0.637395	1
Es	-0.711432	0.654997	-0.477531	99
Es	1.457373	0.672065	0.063252	99
Es	-0.153259	-1.016086	0.722252	99
Es	1.468935	0.178091	-0.623217	99
Es	-1.694108	1.327084	-0.253334	99
Es	-1.808265	-1.183306	0.812827	99
Es	1.124727	0.666478	-0.459713	99
Es	-0.331289	-0.557018	0.033670	99
Es	1.949160	-1.047444	-0.568767	99
Es	-2.167248	-1.322413	0.173013	99
Es	-0.422924	-0.813475	0.572419	99
Es	-1.650137	0.653803	-1.239710	99
Es	1.918809	0.238759	1.217825	99
Es	-1.039641	-0.948273	0.657904	99
Es	2.146876	0.511418	0.586955	99
Es	-1.259769	1.072065	-0.784349	99
Es	1.151595	0.966748	-0.675796	99
Es	2.346150	-0.022517	0.056486	99
Es	-0.162896	0.223228	-0.161923	99
Es	-0.339308	-0.218535	0.506765	99
Es	2.641660	-0.206346	-1.162428	99
Es	2.167125	-0.359076	-0.622351	99
Es	-2.168847	-0.646129	1.184069	99
Es	2.611833	1.079529	0.623985	99
Es	-1.828572	-1.806272	1.228921	99
Es	0.578144	0.436700	-0.303674	99
Es	-0.972864	1.639443	-1.158799	99
44
Properties=species:S:1:pos:R:3:Z:I:1 energy=-304.09299596080314 field_type=dipole dipole="0.000000 0.000000 0.000000" charge=0
C	-1.808396	-1.183349	0.812855	6
N	-0.422536	-0.813809	0.572655	7
C	-0.163006	0.223141	-0.161865	6
C	-1.259786	1.072111	-0.784375	6
N	1.124694	0.667021	-0.460105	7
C	2.167284	-0.359289	-0.622425	6
C	2.147034	0.511421	0.587185	6
H	-1.830666	-2.093709	1.420475	1
H	-2.338006	-1.405279	-0.118655	1
H	-2.340956	-0.408209	1.372295	1
H	-1.847316	0.465091	-1.479255	1
H	-0.831286	1.912301	-1.338825	1
H	-1.911276	1.472171	-0.003065	1
H	2.859644	-0.129859	-1.418915	1
H	1.832294	-1.384199	-0.541045	1
H	1.797124	0.103971	1.525675	1
H	2.825154	1.350481	0.637395	1
Es	2.146879	0.511417	0.586958	99
Es	1.468260	0.177977	-0.623876	99
Es	-2.168796	-0.646293	1.183993	99
Es	-0.711364	0.655028	-0.477602	99
Es	-2.167359	-1.322437	0.173048	99
Es	0.578101	0.437280	-0.303579	99
Es	-1.694034	1.327086	-0.253186	99
Es	1.152034	0.967465	-0.675226	99
Es	1.124726	0.666484	-0.459719	99
Es	-0.422907	-0.813479	0.572415	99
Es	2.611856	1.079508	0.623967	99
Es	-1.039740	-0.947697	0.657931	99
Es	-1.259767	1.072065	-0.784344	99
Es	-1.808265	-1.183306	0.812827	99
Es	-1.650196	0.653717	-1.239781	99
Es	2.641745	-0.206361	-1.162381	99
Es	-0.153330	-1.016690	0.721804	99
Es	1.918838	0.238808	1.217799	99
Es	1.457545	0.670864	0.062946	99
Es	-0.972819	1.639440	-1.158762	99
Es	2.167122	-0.359075	-0.622352	99
Es	-0.162898	0.223229	-0.161924	99
Es	1.949170	-1.047459	-0.568703	99
Es	-0.339042	-0.218880	0.507392	99
Es	-1.828512	-1.806245	1.229028	99
Es	2.346099	-0.022421	0.056702	99
Es	-0.331518	-0.556506	0.033378	99
44
Properties=species:S:1:pos:R:3:Z:I:1 energy=-304.09299596080314 field_type=dipole dipole="0.000000 0.000000 0.000000" charge=0
C	-1.808396	-1.183349	0.812855	6
N	-0.422536	-0.813809	0.572655	7
C	-0.163006	0.223141	-0.161865	6
C	-1.259786	1.072111	-0.784375	6
N	1.124694	0.667021	-0.460105	7
C	2.167284	-0.359289	-0.622425	6
C	2.147034	0.511421	0.587185	6
H	-1.830666	-2.093709	1.420475	1
H	-2.338006	-1.405279	-0.118655	1
H	-2.340956	-0.408209	1.372295	1
H	-1.847316	0.465091	-1.479255	1
H	-0.831286	1.912301	-1.338825	1
H	-1.911276	1.472171	-0.003065	1
H	2.859644	-0.129859	-1.418915	1
H	1.832294	-1.384199	-0.541045	1
H	1.797124	0.103971	1.525675	1
H	2.825154	1.350481	0.637395	1
Es	1.468606	0.177860	-0.623014	99
Es	1.918844	0.238694	1.217870	99
Es	-0.153247	-1.016557	0.721651	99
Es	-0.162900	0.223227	-0.161924	99
Es	1.152058	0.967161	-0.675774	99
Es	-0.972814	1.639395	-1.158732	99
Es	2.611893	1.079549	0.623916	99
Es	-2.168841	-0.646256	1.184012	99
Es	-0.711441	0.654972	-0.477642	99
Es	-1.039738	-0.948127	0.657786	99
Es	2.346166	-0.022414	0.056637	99
Es	-1.650145	0.653760	-1.239814	99
Es	-1.808265	-1.183306	0.812827	99
Es	1.124728	0.666485	-0.459719	99
Es	-0.331311	-0.556230	0.033644	99
Es	-2.167271	-1.322401	0.173065	99
Es	-1.828563	-1.806295	1.228960	99
Es	-1.259767	1.072064	-0.784344	99
Es	2.167122	-0.359075	-0.622352	99
Es	-0.422915	-0.813482	0.572411	99
Es	0.578044	0.437206	-0.303496	99
Es	-0.339197	-0.218889	0.507530	99
Es	1.949148	-1.047379	-0.568706	99
Es	1.457225	0.671399	0.062806	99
Es	2.641626	-0.206381	-1.162559	99
Es	2.146878	0.511416	0.586954	99
Es	-1.694097	1.327125	-0.253237	99
44
Properties=species:S:1:pos:R:3:Z:I:1 energy=-304.09299596080314 field_type=dipole dipole="0.000000 0.000000 0.000000" charge=0
C	-1.808396	-1.183349	0.812855	6
N	-0.422536	-0.813809	0.572655	7
C	-0.163006	0.223141	-0.161865	6
C	-1.259786	1.072111	-0.784375	6
N	1.124694	0.667021	-0.460105	7
C	2.167284	-0.359289	-0.622425	6
C	2.147034	0.511421	0.587185	6
H	-1.830666	-2.093709	1.420475	1
H	-2.338006	-1.405279	-0.118655	1
H	-2.340956	-0.408209	1.372295	1
H	-1.847316	0.465091	-1.479255	1
H	-0.831286	1.912301	-1.338825	1
H	-1.911276	1.472171	-0.003065	1
H	2.859644	-0.129859	-1.418915	1
H	1.832294	-1.384199	-0.541045	1
H	1.797124	0.103971	1.525675	1
H	2.825154	1.350481	0.637395	1
Es	-0.162899	0.223225	-0.161927	99
Es	2.346024	-0.022546	0.056675	99
Es	-0.972821	1.639476	-1.158795	99
Es	-0.331413	-0.555953	0.033631	99
Es	-0.339099	-0.219143	0.507603	99
Es	-1.650233	0.653750	-1.239717	99
Es	-2.167232	-1.322331	0.173010	99
Es	1.468849	0.177766	-0.622740	99
Es	-0.711460	0.654965	-0.477695	99
Es	0.578084	0.437093	-0.303497	99
Es	-1.693979	1.327059	-0.253216	99
Es	1.151989	0.966942	-0.676108	99
Es	-1.828546	-1.806390	1.229033	99
Es	2.641689	-0.206232	-1.162426	99
Es	1.457228	0.671735	0.062828	99
Es	-1.259767	1.072065	-0.784344	99
Es	2.167123	-0.359075	-0.622351	99
Es	2.611919	1.079560	0.623876	99
Es	-2.168814	-0.646275	1.183934	99
Es	1.124707	0.666459	-0.459702	99
Es	1.918711	0.238858	1.217892	99
Es	1.949163	-1.047481	-0.568848	99
Es	-0.153189	-1.016752	0.721538	99
Es	-0.422896	-0.813472	0.572409	99
Es	-1.039923	-0.947895	0.657911	99
Es	2.146878	0.511417	0.586955	99
Es	-1.808264	-1.183306	0.812827	99
44
Properties=species:S:1:pos:R:3:Z:I:1 energy=-304.09299596080314 field_type=dipole dipole="0.000000 0.000000 0.000000" charge=0
C	-1.808396	-1.183349	0.812855	6
N	-0.422536	-0.813809	0.572655	7
C	-0.163006	0.223141	-0.161865	6
C	-1.259786	1.072111	-0.784375	6
N	1.124694	0.667021	-0.460105	7
C	2.167284	-0.359289	-0.622425	6
C	2.147034	0.511421	0.587185	6
H	-1.830666	-2.093709	1.420475	1
H	-2.338006	-1.405279	-0.118655	1
H	-2.340956	-0.408209	1.372295	1
H	-1.847316	0.465091	-1.479255	1
H	-0.831286	1.912301	-1.338825	1
H	-1.911276	1.472171	-0.003065	1
H	2.859644	-0.129859	-1.418915	1
H	1.832294	-1.384199	-0.541045	1
H	1.797124	0.103971	1.525675	1
H	2.825154	1.350481	0.637395	1
Es	-0.162899	0.223227	-0.161926	99
Es	-1.039788	-0.947774	0.657896	99
Es	1.949140	-1.047533	-0.568730	99
Es	-1.828577	-1.806404	1.228973	99
Es	2.345806	-0.022442	0.056478	99
Es	-0.331494	-0.555412	0.033341	99
Es	2.611946	1.079567	0.623883	99
Es	-1.808265	-1.183307	0.812828	99
Es	1.124727	0.666477	-0.459711	99
Es	0.578318	0.437041	-0.303752	99
Es	-2.168821	-0.646299	1.183964	99
Es	-0.972809	1.639470	-1.158854	99
Es	2.146882	0.511414	0.586957	99
Es	-2.167279	-1.322291	0.173119	99
Es	2.167122	-0.359072	-0.622348	99
Es	1.151945	0.967051	-0.676301	99
Es	-0.422904	-0.813470	0.572409	99
Es	-0.153234	-1.017009	0.721278	99
Es	-0.711474	0.654947	-0.477629	99
Es	-0.339057	-0.219512	0.508084	99
Es	-1.650298	0.653680	-1.239665	99
Es	-1.259767	1.072065	-0.784344	99
Es	1.456954	0.671815	0.063122	99
Es	1.468950	0.177696	-0.622538	99
Es	1.918802	0.238742	1.217871	99
Es	-1.693907	1.327086	-0.253255	99
Es	2.641810	-0.206236	-1.162393	99
44
Properties=species:S:1:pos:R:3:Z:I:1 energy=-304.09299596080314 field_type=dipole dipole="0.000000 0.000000 0.000000" charge=0
C	-1.808396	-1.183349	0.812855	6
N	-0.422536	-0.813809	0.572655	7
C	-0.163006	0.223141	-0.161865	6
C	-1.259786	1.072111	-0.784375	6
N	1.124694	0.667021	-0.460105	7
C	2.167284	-0.359289	-0.622425	6
C	2.147034	0.511421	0.587185	6
H	-1.830666	-2.093709	1.420475	1
H	-2.338006	-1.405279	-0.118655	1
H	-2.340956	-0.408209	1.372295	1
H	-1.847316	0.465091	-1.479255	1
H	-0.831286	1.912301	-1.338825	1
H	-1.911276	1.472171	-0.003065	1
H	2.859644	-0.129859	-1.418915	1
H	1.832294	-1.384199	-0.541045	1
H	1.797124	0.103971	1.525675	1
H	2.825154	1.350481	0.637395	1
Es	-0.422903	-0.813493	0.572424	99
Es	-0.711460	0.654961	-0.477685	99
Es	-1.693845	1.327138	-0.253196	99
Es	1.124721	0.666481	-0.459713	99
Es	2.641682	-0.206306	-1.162464	99
Es	0.578184	0.437109	-0.303471	99
Es	1.468996	0.177631	-0.622327	99
Es	1.949108	-1.047434	-0.568813	99
Es	-2.167166	-1.322426	0.173084	99
Es	-0.339021	-0.218818	0.507233	99
Es	-1.808267	-1.183310	0.812830	99
Es	2.167125	-0.359076	-0.622348	99
Es	-0.331368	-0.556550	0.033690	99
Es	1.456754	0.671600	0.062604	99
Es	-1.259767	1.072065	-0.784344	99
Es	2.146878	0.511416	0.586955	99
Es	2.611965	1.079553	0.623902	99
Es	-0.162900	0.223220	-0.161933	99
Es	-0.153331	-1.016480	0.721726	99
Es	1.918824	0.238626	1.217880	99
Es	-1.039870	-0.947980	0.657965	99
Es	-0.972839	1.639416	-1.158905	99
Es	-2.168853	-0.646142	1.183846	99
Es	1.152171	0.967256	-0.676364	99
Es	2.345976	-0.022307	0.056702	99
Es	-1.828617	-1.806326	1.229101	99
Es	-1.650348	0.653694	-1.239621	99
44
Properties=species:S:1:pos:R:3:Z:I:1 energy=-304.09299596080314 field_type=dipole dipole="0.000000 0.000000 0.000000" charge=0
C	-1.808396	-1.183349	0.812855	6
N	-0.422536	-0.813809	0.572655	7
C	-0.163006	0.223141	-0.161865	6
C	-1.259786	1.072111	-0.784375	6
N	1.124694	0.667021	-0.460105	7
C	2.167284	-0.359289	-0.622425	6
C	2.147034	0.511421	0.587185	6
H	-1.830666	-2.093709	1.420475	1
H	-2.338006	-1.405279	-0.118655	1
H	-2.340956	-0.408209	1.372295	1
H	-1.847316	0.465091	-1.479255	1
H	-0.831286	1.912301	-1.338825	1
H	-1.911276	1.472171	-0.003065	1
H	2.859644	-0.129859	-1.418915	1
H	1.832294	-1.384199	-0.541045	1
H	1.797124	0.103971	1.525675	1
H	2.825154	1.350481	0.637395	1
Es	-1.650215	0.653729	-1.239644	99
Es	2.641761	-0.206277	-1.162387	99
Es	1.949110	-1.047474	-0.568817	99
Es	-1.808265	-1.183307	0.812827	99
Es	2.611871	1.079550	0.623881	99
Es	1.469283	0.177803	-0.622471	99
Es	-0.339165	-0.218913	0.507136	99
Es	-1.693963	1.326986	-0.253333	99
Es	1.152078	0.967241	-0.676173	99
Es	-0.331367	-0.556440	0.033713	99
Es	-0.711414	0.654977	-0.477582	99
Es	1.456707	0.671660	0.062761	99
Es	-2.168795	-0.646268	1.183890	99
Es	2.167123	-0.359074	-0.622351	99
Es	-1.039920	-0.948320	0.658170	99
Es	-0.153157	-1.016068	0.721568	99
Es	2.345946	-0.022365	0.056625	99
Es	0.578117	0.436822	-0.303689	99
Es	-1.259767	1.072065	-0.784344	99
Es	1.124721	0.666489	-0.459716	99
Es	-1.828561	-1.806389	1.229081	99
Es	-2.167238	-1.322344	0.173065	99
Es	2.146877	0.511419	0.586957	99
Es	-0.972910	1.639558	-1.158847	99
Es	1.918772	0.238725	1.217933	99
Es	-0.162900	0.223227	-0.161924	99
Es	-0.422903	-0.813493	0.572427	99
