43
Properties=species:S:1:pos:R:3:Z:I:1 energy=-270.9520172478667 field_type=dipole dipole="0.000000 0.000000 0.000000" charge=0
C	-1.997691	-1.547190	0.350141	6
C	-0.577311	-1.409790	-0.088589	6
C	0.159089	-0.287910	-0.006529	6
C	1.574399	-0.153060	-0.513649	6
C	1.817709	1.325310	-0.512949	6
C	0.789149	1.995130	0.019771	6
C	-0.306281	1.071390	0.458991	6
H	-2.133101	-2.500540	0.871991	1
H	-2.661661	-1.536370	-0.519659	1
H	-2.305341	-0.750370	1.035521	1
H	-0.123711	-2.303850	-0.510819	1
H	1.679049	-0.559750	-1.523639	1
H	2.281459	-0.647950	0.161111	1
H	2.721829	1.779890	-0.893119	1
H	0.740939	3.069070	0.131561	1
H	-0.405031	1.101420	1.549501	1
H	-1.253491	1.354570	-0.009639	1
Es	1.448564	1.654706	0.043510	99
Es	0.789042	1.995172	0.019826	99
Es	-0.947826	1.259782	0.143581	99
Es	2.437754	1.624535	-0.774128	99
Es	1.174501	1.703465	-0.546647	99
Es	-2.439412	-1.537882	-0.240958	99
Es	0.224411	1.560097	0.248822	99
Es	-2.202462	-1.001971	0.812455	99
Es	-0.577390	-1.409878	-0.088573	99
Es	1.727217	0.584234	-0.529417	99
Es	-0.318599	-0.769682	-0.345908	99
Es	-0.092838	0.383514	0.241940	99
Es	-1.997657	-1.547188	0.350130	99
Es	-0.306243	1.071382	0.458976	99
Es	1.817808	1.325226	-0.512995	99
Es	-2.085305	-2.194307	0.701090	99
Es	-0.271743	-2.023993	-0.377402	99
Es	-1.289202	-1.471355	0.135807	99
Es	0.745652	2.725498	0.101491	99
Es	-0.108444	-0.945463	0.264184	99
Es	-0.372776	1.088952	1.193346	99
Es	1.644951	-0.430515	-1.195101	99
Es	0.159170	-0.287784	-0.006518	99
Es	2.049226	-0.485475	-0.057656	99
Es	0.872487	-0.240315	-0.259657	99
Es	1.574382	-0.153022	-0.513636	99
43
Properties=species:S:1:pos:R:3:Z:I:1 energy=-270.9520172478667 field_type=dipole dipole="0.000000 0.000000 0.000000" charge=0
C	-1.997691	-1.547190	0.350141	6
C	-0.577311	-1.409790	-0.088589	6
C	0.159089	-0.287910	-0.006529	6
C	1.574399	-0.153060	-0.513649	6
C	1.817709	1.325310	-0.512949	6
C	0.789149	1.995130	0.019771	6
C	-0.306281	1.071390	0.458991	6
H	-2.133101	-2.500540	0.871991	1
H	-2.661661	-1.536370	-0.519659	1
H	-2.305341	-0.750370	1.035521	1
H	-0.123711	-2.303850	-0.510819	1
H	1.679049	-0.559750	-1.523639	1
H	2.281459	-0.647950	0.161111	1
H	2.721829	1.779890	-0.893119	1
H	0.740939	3.069070	0.131561	1
H	-0.405031	1.101420	1.549501	1
H	-1.253491	1.354570	-0.009639	1
Es	2.438566	1.625516	-0.773319	99
Es	-0.270702	-2.024396	-0.378244	99
Es	-0.577388	-1.409879	-0.088571	99
Es	-0.317738	-0.770613	-0.342955	99
Es	0.789036	1.995175	0.019825	99
Es	-2.086545	-2.194632	0.699764	99
Es	-0.373145	1.089095	1.190361	99
Es	-0.306243	1.071383	0.458975	99
Es	-0.947939	1.259930	0.145350	99
Es	0.159175	-0.287782	-0.006512	99
Es	1.574381	-0.153022	-0.513635	99
Es	1.817797	1.325227	-0.513001	99
Es	-0.109706	-0.944379	0.261138	99
Es	0.746585	2.726525	0.101849	99
Es	-1.997659	-1.547188	0.350128	99
Es	0.224474	1.561017	0.248646	99
Es	-1.288890	-1.470959	0.134327	99
Es	0.872296	-0.242267	-0.258767	99
Es	2.047703	-0.484767	-0.059760	99
Es	1.645952	-0.431184	-1.194022	99
Es	-2.204252	-1.000831	0.812725	99
Es	-2.437454	-1.538443	-0.238458	99
Es	1.727796	0.584649	-0.529763	99
Es	1.446589	1.653878	0.040617	99
Es	1.176376	1.703793	-0.543358	99
Es	-0.093799	0.381888	0.243220	99
43
Properties=species:S:1:pos:R:3:Z:I:1 energy=-270.9520172478667 field_type=dipole dipole="0.000000 0.000000 0.000000" charge=0
C	-1.997691	-1.547190	0.350141	6
C	-0.577311	-1.409790	-0.088589	6
C	0.159089	-0.287910	-0.006529	6
C	1.574399	-0.153060	-0.513649	6
C	1.817709	1.325310	-0.512949	6
C	0.789149	1.995130	0.019771	6
C	-0.306281	1.071390	0.458991	6
H	-2.133101	-2.500540	0.871991	1
H	-2.661661	-1.536370	-0.519659	1
H	-2.305341	-0.750370	1.035521	1
H	-0.123711	-2.303850	-0.510819	1
H	1.679049	-0.559750	-1.523639	1
H	2.281459	-0.647950	0.161111	1
H	2.721829	1.779890	-0.893119	1
H	0.740939	3.069070	0.131561	1
H	-0.405031	1.101420	1.549501	1
H	-1.253491	1.354570	-0.009639	1
Es	-0.094367	0.380792	0.244087	99
Es	-1.288741	-1.470715	0.133353	99
Es	-0.306243	1.071383	0.458977	99
Es	-0.270083	-2.024603	-0.378686	99
Es	0.747266	2.727095	0.102265	99
Es	1.646664	-0.431602	-1.193282	99
Es	0.872296	-0.243788	-0.258019	99
Es	2.046417	-0.484221	-0.061320	99
Es	1.728314	0.584953	-0.529786	99
Es	-0.317124	-0.771417	-0.341198	99
Es	-0.110593	-0.943417	0.259051	99
Es	-2.205512	-1.000117	0.812838	99
Es	1.177577	1.704027	-0.541253	99
Es	-0.373166	1.089032	1.187894	99
Es	2.439059	1.626152	-0.772750	99
Es	1.574383	-0.153024	-0.513635	99
Es	1.445278	1.653347	0.038685	99
Es	-2.087519	-2.194860	0.698719	99
Es	0.159175	-0.287779	-0.006515	99
Es	0.789036	1.995178	0.019829	99
Es	0.224450	1.561623	0.248750	99
Es	1.817802	1.325227	-0.512997	99
Es	-1.997659	-1.547190	0.350128	99
Es	-2.435871	-1.538667	-0.236657	99
Es	-0.948182	1.260205	0.146656	99
Es	-0.577392	-1.409881	-0.088574	99
43
Properties=species:S:1:pos:R:3:Z:I:1 energy=-270.9520172478667 field_type=dipole dipole="0.000000 0.000000 0.000000" charge=0
C	-1.997691	-1.547190	0.350141	6
C	-0.577311	-1.409790	-0.088589	6
C	0.159089	-0.287910	-0.006529	6
C	1.574399	-0.153060	-0.513649	6
C	1.817709	1.325310	-0.512949	6
C	0.789149	1.995130	0.019771	6
C	-0.306281	1.071390	0.458991	6
H	-2.133101	-2.500540	0.871991	1
H	-2.661661	-1.536370	-0.519659	1
H	-2.305341	-0.750370	1.035521	1
H	-0.123711	-2.303850	-0.510819	1
H	1.679049	-0.559750	-1.523639	1
H	2.281459	-0.647950	0.161111	1
H	2.721829	1.779890	-0.893119	1
H	0.740939	3.069070	0.131561	1
H	-0.405031	1.101420	1.549501	1
H	-1.253491	1.354570	-0.009639	1
Es	0.789036	1.995178	0.019828	99
Es	-0.269663	-2.024751	-0.379120	99
Es	-0.372670	1.088821	1.185490	99
Es	-0.094784	0.379909	0.244931	99
Es	0.224490	1.562277	0.248716	99
Es	-0.577391	-1.409885	-0.088566	99
Es	1.178337	1.704308	-0.539993	99
Es	-1.997658	-1.547189	0.350129	99
Es	1.647459	-0.432294	-1.192783	99
Es	-0.948784	1.260470	0.148137	99
Es	-2.434487	-1.538759	-0.235264	99
Es	1.574385	-0.153025	-0.513633	99
Es	2.439423	1.626461	-0.772081	99
Es	0.747730	2.727499	0.102474	99
Es	-0.316814	-0.771973	-0.339903	99
Es	-1.288612	-1.470546	0.132769	99
Es	0.872331	-0.244854	-0.257520	99
Es	-2.206512	-0.999585	0.812872	99
Es	1.817802	1.325227	-0.513004	99
Es	1.444393	1.652777	0.037614	99
Es	2.045125	-0.483408	-0.062358	99
Es	0.159175	-0.287779	-0.006513	99
Es	1.728731	0.585257	-0.529917	99
Es	-0.111150	-0.942784	0.257460	99
Es	-0.306243	1.071382	0.458975	99
Es	-2.088384	-2.195003	0.697819	99
43
Properties=species:S:1:pos:R:3:Z:I:1 energy=-270.9520172478667 field_type=dipole dipole="0.000000 0.000000 0.000000" charge=0
C	-1.997691	-1.547190	0.350141	6
C	-0.577311	-1.409790	-0.088589	6
C	0.159089	-0.287910	-0.006529	6
C	1.574399	-0.153060	-0.513649	6
C	1.817709	1.325310	-0.512949	6
C	0.789149	1.995130	0.019771	6
C	-0.306281	1.071390	0.458991	6
H	-2.133101	-2.500540	0.871991	1
H	-2.661661	-1.536370	-0.519659	1
H	-2.305341	-0.750370	1.035521	1
H	-0.123711	-2.303850	-0.510819	1
H	1.679049	-0.559750	-1.523639	1
H	2.281459	-0.647950	0.161111	1
H	2.721829	1.779890	-0.893119	1
H	0.740939	3.069070	0.131561	1
H	-0.405031	1.101420	1.549501	1
H	-1.253491	1.354570	-0.009639	1
Es	-2.207466	-0.999067	0.812751	99
Es	-0.316477	-0.772401	-0.338742	99
Es	-0.306243	1.071383	0.458975	99
Es	-0.111602	-0.942374	0.256372	99
Es	0.789038	1.995177	0.019836	99
Es	1.178951	1.704526	-0.538961	99
Es	0.159178	-0.287781	-0.006508	99
Es	0.747962	2.727733	0.102676	99
Es	-0.269293	-2.024792	-0.379518	99
Es	2.044031	-0.482723	-0.063300	99
Es	2.439657	1.626803	-0.771554	99
Es	-1.288573	-1.470413	0.132006	99
Es	-1.997658	-1.547188	0.350128	99
Es	-0.372589	1.088676	1.183641	99
Es	-0.949131	1.260700	0.148826	99
Es	1.817801	1.325227	-0.513003	99
Es	1.729210	0.585275	-0.529853	99
Es	1.443773	1.652487	0.036655	99
Es	-2.088840	-2.194956	0.697252	99
Es	0.872331	-0.245595	-0.256991	99
Es	-0.577394	-1.409881	-0.088576	99
Es	0.224631	1.562509	0.248999	99
Es	1.574381	-0.153023	-0.513636	99
Es	-0.095123	0.379330	0.245580	99
Es	1.648108	-0.432765	-1.192485	99
Es	-2.433398	-1.539134	-0.234009	99
43
Properties=species:S:1:pos:R:3:Z:I:1 energy=-270.9520172478667 field_type=dipole dipole="0.000000 0.000000 0.000000" charge=0
C	-1.997691	-1.547190	0.350141	6
C	-0.577311	-1.409790	-0.088589	6
C	0.159089	-0.287910	-0.006529	6
C	1.574399	-0.153060	-0.513649	6
C	1.817709	1.325310	-0.512949	6
C	0.789149	1.995130	0.019771	6
C	-0.306281	1.071390	0.458991	6
H	-2.133101	-2.500540	0.871991	1
H	-2.661661	-1.536370	-0.519659	1
H	-2.305341	-0.750370	1.035521	1
H	-0.123711	-2.303850	-0.510819	1
H	1.679049	-0.559750	-1.523639	1
H	2.281459	-0.647950	0.161111	1
H	2.721829	1.779890	-0.893119	1
H	0.740939	3.069070	0.131561	1
H	-0.405031	1.101420	1.549501	1
H	-1.253491	1.354570	-0.009639	1
Es	0.789034	1.995178	0.019828	99
Es	-0.949784	1.260890	0.149785	99
Es	-2.208088	-0.998797	0.812654	99
Es	2.439876	1.627046	-0.771083	99
Es	0.872375	-0.246315	-0.256639	99
Es	-1.997657	-1.547188	0.350129	99
Es	1.443191	1.652279	0.035718	99
Es	0.159178	-0.287782	-0.006505	99
Es	-0.095341	0.378875	0.246312	99
Es	-0.316231	-0.772787	-0.337914	99
Es	-1.288575	-1.470330	0.131474	99
Es	-0.372100	1.088454	1.181836	99
Es	0.224719	1.562785	0.249160	99
Es	1.729490	0.585381	-0.529825	99
Es	-0.269118	-2.024704	-0.379905	99
Es	1.649009	-0.433504	-1.192180	99
Es	2.042814	-0.481828	-0.063932	99
Es	1.179354	1.704608	-0.538177	99
Es	1.817804	1.325226	-0.512997	99
Es	0.748291	2.727950	0.102960	99
Es	1.574382	-0.153023	-0.513636	99
Es	-2.432137	-1.538810	-0.232837	99
Es	-0.111818	-0.942006	0.255451	99
Es	-0.306244	1.071382	0.458975	99
Es	-0.577393	-1.409881	-0.088577	99
Es	-2.089763	-2.195367	0.696487	99
43
Properties=species:S:1:pos:R:3:Z:I:1 energy=-270.9520172478667 field_type=dipole dipole="0.000000 0.000000 0.000000" charge=0
C	-1.997691	-1.547190	0.350141	6
C	-0.577311	-1.409790	-0.088589	6
C	0.159089	-0.287910	-0.006529	6
C	1.574399	-0.153060	-0.513649	6
C	1.817709	1.325310	-0.512949	6
C	0.789149	1.995130	0.019771	6
C	-0.306281	1.071390	0.458991	6
H	-2.133101	-2.500540	0.871991	1
H	-2.661661	-1.536370	-0.519659	1
H	-2.305341	-0.750370	1.035521	1
H	-0.123711	-2.303850	-0.510819	1
H	1.679049	-0.559750	-1.523639	1
H	2.281459	-0.647950	0.161111	1
H	2.721829	1.779890	-0.893119	1
H	0.740939	3.069070	0.131561	1
H	-0.405031	1.101420	1.549501	1
H	-1.253491	1.354570	-0.009639	1
Es	-1.288529	-1.470329	0.130944	99
Es	-2.208553	-0.998519	0.812692	99
Es	-1.997659	-1.547189	0.350127	99
Es	2.041841	-0.481342	-0.064535	99
Es	-0.950351	1.261191	0.150796	99
Es	2.440004	1.627226	-0.770868	99
Es	0.159177	-0.287780	-0.006513	99
Es	0.789036	1.995179	0.019832	99
Es	-0.268873	-2.024797	-0.380081	99
Es	0.224780	1.563093	0.249494	99
Es	-2.431450	-1.538878	-0.231987	99
Es	-0.316209	-0.773187	-0.337491	99
Es	-0.095554	0.378473	0.246656	99
Es	-0.577394	-1.409882	-0.088576	99
Es	1.179751	1.704756	-0.537517	99
Es	1.442854	1.652040	0.035308	99
Es	0.748533	2.728019	0.103062	99
Es	1.817804	1.325226	-0.512996	99
Es	-0.371648	1.088112	1.180033	99
Es	0.872349	-0.246762	-0.256468	99
Es	1.649602	-0.433885	-1.191963	99
Es	-0.306243	1.071382	0.458975	99
Es	1.729858	0.585453	-0.529663	99
Es	1.574382	-0.153023	-0.513636	99
Es	-2.090077	-2.195412	0.696000	99
Es	-0.112164	-0.941432	0.254935	99
43
Properties=species:S:1:pos:R:3:Z:I:1 energy=-270.9520172478667 field_type=dipole dipole="0.000000 0.000000 0.000000" charge=0
C	-1.997691	-1.547190	0.350141	6
C	-0.577311	-1.409790	-0.088589	6
C	0.159089	-0.287910	-0.006529	6
C	1.574399	-0.153060	-0.513649	6
C	1.817709	1.325310	-0.512949	6
C	0.789149	1.995130	0.019771	6
C	-0.306281	1.071390	0.458991	6
H	-2.133101	-2.500540	0.871991	1
H	-2.661661	-1.536370	-0.519659	1
H	-2.305341	-0.750370	1.035521	1
H	-0.123711	-2.303850	-0.510819	1
H	1.679049	-0.559750	-1.523639	1
H	2.281459	-0.647950	0.161111	1
H	2.721829	1.779890	-0.893119	1
H	0.740939	3.069070	0.131561	1
H	-0.405031	1.101420	1.549501	1
H	-1.253491	1.354570	-0.009639	1
Es	-1.997658	-1.547189	0.350129	99
Es	-0.577395	-1.409881	-0.088579	99
Es	1.442526	1.651848	0.034887	99
Es	-2.090479	-2.195598	0.695337	99
Es	-0.315929	-0.773356	-0.336912	99
Es	1.179988	1.704777	-0.537081	99
Es	1.817804	1.325226	-0.512997	99
Es	0.872360	-0.247073	-0.256157	99
Es	-0.306243	1.071382	0.458975	99
Es	-2.430585	-1.538797	-0.231237	99
Es	1.574382	-0.153023	-0.513635	99
Es	2.440130	1.627360	-0.770630	99
Es	1.650095	-0.434404	-1.191856	99
Es	0.159174	-0.287780	-0.006515	99
Es	-0.268867	-2.024725	-0.380274	99
Es	-0.112183	-0.941412	0.254408	99
Es	0.789034	1.995179	0.019830	99
Es	0.224843	1.563419	0.249948	99
Es	-0.371342	1.087866	1.178561	99
Es	0.748705	2.728154	0.103144	99
Es	1.730068	0.585412	-0.529680	99
Es	2.041075	-0.480716	-0.064978	99
Es	-1.288589	-1.470107	0.130651	99
Es	-2.209168	-0.998418	0.812740	99
Es	-0.095676	0.378249	0.246965	99
Es	-0.950804	1.261339	0.151517	99
43
Properties=species:S:1:pos:R:3:Z:I:1 energy=-270.9520172478667 field_type=dipole dipole="0.000000 0.000000 0.000000" charge=0
C	-1.997691	-1.547190	0.350141	6
C	-0.577311	-1.409790	-0.088589	6
C	0.159089	-0.287910	-0.006529	6
C	1.574399	-0.153060	-0.513649	6
C	1.817709	1.325310	-0.512949	6
C	0.789149	1.995130	0.019771	6
C	-0.306281	1.071390	0.458991	6
H	-2.133101	-2.500540	0.871991	1
H	-2.661661	-1.536370	-0.519659	1
H	-2.305341	-0.750370	1.035521	1
H	-0.123711	-2.303850	-0.510819	1
H	1.679049	-0.559750	-1.523639	1
H	2.281459	-0.647950	0.161111	1
H	2.721829	1.779890	-0.893119	1
H	0.740939	3.069070	0.131561	1
H	-0.405031	1.101420	1.549501	1
H	-1.253491	1.354570	-0.009639	1
Es	0.789034	1.995177	0.019827	99
Es	1.730404	0.585429	-0.529644	99
Es	1.180218	1.704920	-0.536659	99
Es	-0.370914	1.087771	1.177470	99
Es	2.440192	1.627439	-0.770373	99
Es	-0.112407	-0.941088	0.253947	99
Es	0.159178	-0.287779	-0.006511	99
Es	-2.429741	-1.538671	-0.230530	99
Es	2.040322	-0.480199	-0.065474	99
Es	0.872487	-0.247388	-0.255826	99
Es	-0.268727	-2.024733	-0.380515	99
Es	-0.577395	-1.409883	-0.088576	99
Es	-1.288512	-1.470133	0.130435	99
Es	-0.951229	1.261551	0.152212	99
Es	-1.997658	-1.547189	0.350129	99
Es	-0.315901	-0.773596	-0.336400	99
Es	0.224863	1.563390	0.249815	99
Es	1.442381	1.651747	0.034656	99
Es	0.748713	2.728232	0.103228	99
Es	-0.095807	0.377977	0.247281	99
Es	-0.306243	1.071383	0.458976	99
Es	-2.091073	-2.195777	0.694917	99
Es	1.574383	-0.153025	-0.513635	99
Es	-2.209575	-0.998177	0.812544	99
Es	1.817804	1.325227	-0.512998	99
Es	1.650470	-0.434875	-1.191735	99
43
Properties=species:S:1:pos:R:3:Z:I:1 energy=-270.9520172478667 field_type=dipole dipole="0.000000 0.000000 0.000000" charge=0
C	-1.997691	-1.547190	0.350141	6
C	-0.577311	-1.409790	-0.088589	6
C	0.159089	-0.287910	-0.006529	6
C	1.574399	-0.153060	-0.513649	6
C	1.817709	1.325310	-0.512949	6
C	0.789149	1.995130	0.019771	6
C	-0.306281	1.071390	0.458991	6
H	-2.133101	-2.500540	0.871991	1
H	-2.661661	-1.536370	-0.519659	1
H	-2.305341	-0.750370	1.035521	1
H	-0.123711	-2.303850	-0.510819	1
H	1.679049	-0.559750	-1.523639	1
H	2.281459	-0.647950	0.161111	1
H	2.721829	1.779890	-0.893119	1
H	0.740939	3.069070	0.131561	1
H	-0.405031	1.101420	1.549501	1
H	-1.253491	1.354570	-0.009639	1
Es	-1.288466	-1.470223	0.130375	99
Es	1.574382	-0.153023	-0.513636	99
Es	0.159176	-0.287778	-0.006515	99
Es	-0.577395	-1.409882	-0.088577	99
Es	-0.095941	0.377855	0.247450	99
Es	1.650962	-0.435166	-1.191605	99
Es	-0.306243	1.071382	0.458975	99
Es	-0.315824	-0.773787	-0.336175	99
Es	1.442116	1.651642	0.034254	99
Es	0.748920	2.728267	0.103386	99
Es	-1.997658	-1.547189	0.350129	99
Es	-2.091521	-2.195868	0.694581	99
Es	-0.112469	-0.940926	0.253723	99
Es	1.730450	0.585511	-0.529533	99
Es	0.789032	1.995179	0.019827	99
Es	-0.268679	-2.024704	-0.380698	99
Es	1.817804	1.325226	-0.512997	99
Es	-2.209899	-0.997962	0.812392	99
Es	0.224913	1.563604	0.250095	99
Es	0.872474	-0.247712	-0.255738	99
Es	1.180414	1.704946	-0.536317	99
Es	2.039698	-0.479794	-0.065786	99
Es	-0.370641	1.087532	1.176340	99
Es	-2.429083	-1.538596	-0.230088	99
Es	2.440314	1.627530	-0.770195	99
Es	-0.951569	1.261668	0.152892	99
