37
Properties=species:S:1:pos:R:3:Z:I:1 energy=-317.791113050123 field_type=dipole dipole="0.000000 0.000000 0.000000" charge=0
C	-1.340335	-0.943297	-0.255593	6
N	0.097005	-0.855067	-0.022213	7
C	0.581105	0.554442	-0.016333	6
C	0.081475	1.336742	1.139337	6
N	-0.339825	1.967232	2.020177	7
C	2.062205	0.599672	-0.064203	6
N	3.222425	0.624153	-0.151203	7
H	-1.634685	-1.996987	-0.292323	1
H	-1.621545	-0.484997	-1.209263	1
H	-1.913215	-0.476597	0.551447	1
H	0.581695	-1.362777	-0.763913	1
H	0.223695	1.037483	-0.935913	1
Es	-1.528527	-1.653807	-0.284979	99
Es	-0.339657	1.966978	2.019819	99
Es	0.011671	1.918838	1.501053	99
Es	0.380087	-1.127849	-0.486448	99
Es	-0.471954	2.164787	2.295335	99
Es	3.221952	0.624142	-0.151170	99
Es	-1.716489	-0.618058	0.286797	99
Es	1.356451	0.581779	-0.018520	99
Es	-0.012667	1.483846	1.815206	99
Es	2.664084	0.444909	-0.372816	99
Es	0.081634	1.336519	1.139018	99
Es	-0.516577	-0.859195	-0.144845	99
Es	0.314820	-0.196286	-0.028191	99
Es	0.356381	0.892605	-0.607662	99
Es	0.581205	0.554405	-0.016152	99
Es	-1.340171	-0.943284	-0.255578	99
Es	2.061796	0.599664	-0.064174	99
Es	-0.432351	1.619001	1.510318	99
Es	0.180618	-0.993278	0.282410	99
Es	0.096861	-0.854721	-0.022824	99
Es	2.670127	0.921901	-0.126503	99
Es	3.584478	0.632172	-0.179327	99
Es	2.711999	0.470225	0.161293	99
Es	0.332324	0.956955	0.598361	99
Es	-1.528616	-0.618982	-0.912325	99
37
Properties=species:S:1:pos:R:3:Z:I:1 energy=-317.791113050123 field_type=dipole dipole="0.000000 0.000000 0.000000" charge=0
C	-1.340335	-0.943297	-0.255593	6
N	0.097005	-0.855067	-0.022213	7
C	0.581105	0.554442	-0.016333	6
C	0.081475	1.336742	1.139337	6
N	-0.339825	1.967232	2.020177	7
C	2.062205	0.599672	-0.064203	6
N	3.222425	0.624153	-0.151203	7
H	-1.634685	-1.996987	-0.292323	1
H	-1.621545	-0.484997	-1.209263	1
H	-1.913215	-0.476597	0.551447	1
H	0.581695	-1.362777	-0.763913	1
H	0.223695	1.037483	-0.935913	1
Es	0.332604	0.959740	0.598376	99
Es	-1.340162	-0.943281	-0.255578	99
Es	3.586715	0.629427	-0.183318	99
Es	-1.719392	-0.616850	0.288156	99
Es	0.081628	1.336515	1.139027	99
Es	-0.369135	1.466395	1.638394	99
Es	-0.478835	2.164854	2.295527	99
Es	0.581206	0.554407	-0.016151	99
Es	-0.519669	-0.861481	-0.139807	99
Es	2.661005	0.478769	-0.392925	99
Es	3.221955	0.624143	-0.151171	99
Es	-1.527721	-1.652171	-0.287130	99
Es	0.177506	-0.984042	0.270470	99
Es	2.061788	0.599673	-0.064158	99
Es	-1.527383	-0.621327	-0.910725	99
Es	2.672693	0.917264	-0.074567	99
Es	0.315558	-0.196031	-0.024654	99
Es	0.096853	-0.854702	-0.022857	99
Es	1.357887	0.582996	-0.018073	99
Es	0.128855	1.652699	1.757317	99
Es	0.357222	0.889737	-0.604781	99
Es	2.710668	0.442370	0.130745	99
Es	0.386142	-1.134190	-0.484970	99
Es	-0.339660	1.966982	2.019823	99
Es	-0.188849	1.901374	1.431125	99
37
Properties=species:S:1:pos:R:3:Z:I:1 energy=-317.791113050123 field_type=dipole dipole="0.000000 0.000000 0.000000" charge=0
C	-1.340335	-0.943297	-0.255593	6
N	0.097005	-0.855067	-0.022213	7
C	0.581105	0.554442	-0.016333	6
C	0.081475	1.336742	1.139337	6
N	-0.339825	1.967232	2.020177	7
C	2.062205	0.599672	-0.064203	6
N	3.222425	0.624153	-0.151203	7
H	-1.634685	-1.996987	-0.292323	1
H	-1.621545	-0.484997	-1.209263	1
H	-1.913215	-0.476597	0.551447	1
H	0.581695	-1.362777	-0.763913	1
H	0.223695	1.037483	-0.935913	1
Es	-0.417134	1.692011	1.466201	99
Es	-0.479823	2.163237	2.297498	99
Es	-1.527260	-1.651024	-0.288156	99
Es	2.659811	0.511659	-0.405767	99
Es	0.357728	0.888596	-0.603168	99
Es	1.358552	0.583666	-0.017892	99
Es	0.581205	0.554407	-0.016152	99
Es	0.316144	-0.196132	-0.021902	99
Es	0.096892	-0.854776	-0.022659	99
Es	2.061789	0.599671	-0.064163	99
Es	-0.106321	1.458303	1.786361	99
Es	-1.720867	-0.616500	0.288689	99
Es	3.221965	0.624143	-0.151171	99
Es	0.081644	1.336533	1.139002	99
Es	0.094109	1.872605	1.571397	99
Es	-0.521027	-0.862773	-0.136599	99
Es	0.388572	-1.136089	-0.484616	99
Es	0.176177	-0.980251	0.262697	99
Es	0.332669	0.959377	0.599560	99
Es	-1.340164	-0.943281	-0.255577	99
Es	-1.526850	-0.622509	-0.909783	99
Es	2.707957	0.418117	0.094565	99
Es	2.675793	0.910358	-0.025158	99
Es	3.587578	0.626941	-0.184937	99
Es	-0.339658	1.966980	2.019824	99
37
Properties=species:S:1:pos:R:3:Z:I:1 energy=-317.791113050123 field_type=dipole dipole="0.000000 0.000000 0.000000" charge=0
C	-1.340335	-0.943297	-0.255593	6
N	0.097005	-0.855067	-0.022213	7
C	0.581105	0.554442	-0.016333	6
C	0.081475	1.336742	1.139337	6
N	-0.339825	1.967232	2.020177	7
C	2.062205	0.599672	-0.064203	6
N	3.222425	0.624153	-0.151203	7
H	-1.634685	-1.996987	-0.292323	1
H	-1.621545	-0.484997	-1.209263	1
H	-1.913215	-0.476597	0.551447	1
H	0.581695	-1.362777	-0.763913	1
H	0.223695	1.037483	-0.935913	1
Es	2.673703	0.913839	-0.060814	99
Es	2.658977	0.478893	-0.393421	99
Es	-0.339657	1.966977	2.019819	99
Es	3.587911	0.626708	-0.186994	99
Es	0.139116	1.672369	1.746146	99
Es	-1.340164	-0.943280	-0.255577	99
Es	0.332352	0.961698	0.598408	99
Es	-0.369063	1.466931	1.636156	99
Es	2.710487	0.446779	0.118595	99
Es	3.221955	0.624142	-0.151171	99
Es	2.061781	0.599664	-0.064146	99
Es	-0.483766	2.163858	2.295881	99
Es	0.581207	0.554406	-0.016150	99
Es	0.081646	1.336525	1.139017	99
Es	0.096853	-0.854705	-0.022850	99
Es	0.389857	-1.136732	-0.484845	99
Es	0.175589	-0.978224	0.257639	99
Es	-0.196056	1.881026	1.444586	99
Es	0.316770	-0.196259	-0.019546	99
Es	1.359093	0.584278	-0.017342	99
Es	0.358021	0.887625	-0.602244	99
Es	-0.521909	-0.863455	-0.134159	99
Es	-1.526751	-1.650015	-0.288691	99
Es	-1.526644	-0.623279	-0.909358	99
Es	-1.721827	-0.616503	0.289154	99
37
Properties=species:S:1:pos:R:3:Z:I:1 energy=-317.791113050123 field_type=dipole dipole="0.000000 0.000000 0.000000" charge=0
C	-1.340335	-0.943297	-0.255593	6
N	0.097005	-0.855067	-0.022213	7
C	0.581105	0.554442	-0.016333	6
C	0.081475	1.336742	1.139337	6
N	-0.339825	1.967232	2.020177	7
C	2.062205	0.599672	-0.064203	6
N	3.222425	0.624153	-0.151203	7
H	-1.634685	-1.996987	-0.292323	1
H	-1.621545	-0.484997	-1.209263	1
H	-1.913215	-0.476597	0.551447	1
H	0.581695	-1.362777	-0.763913	1
H	0.223695	1.037483	-0.935913	1
Es	-0.485242	2.164777	2.294498	99
Es	0.096857	-0.854698	-0.022871	99
Es	0.081653	1.336512	1.139010	99
Es	1.359247	0.585804	-0.018744	99
Es	0.316591	-0.196203	-0.019974	99
Es	-0.388470	1.486768	1.612604	99
Es	0.391150	-1.138297	-0.483641	99
Es	-0.522331	-0.864251	-0.132860	99
Es	-0.339657	1.966977	2.019819	99
Es	0.333123	0.962045	0.598951	99
Es	2.671224	0.822300	-0.273712	99
Es	0.581208	0.554406	-0.016148	99
Es	-0.163814	1.890757	1.450533	99
Es	0.175032	-0.975792	0.255258	99
Es	3.587473	0.626270	-0.192330	99
Es	-1.722342	-0.616241	0.289151	99
Es	2.705853	0.678984	0.195619	99
Es	-1.526708	-1.649665	-0.289059	99
Es	-1.340165	-0.943281	-0.255578	99
Es	-1.526341	-0.623752	-0.908826	99
Es	3.221956	0.624143	-0.151172	99
Es	2.666723	0.337179	-0.251331	99
Es	0.126431	1.641825	1.764436	99
Es	2.061780	0.599700	-0.064162	99
Es	0.358250	0.886999	-0.601378	99
37
Properties=species:S:1:pos:R:3:Z:I:1 energy=-317.791113050123 field_type=dipole dipole="0.000000 0.000000 0.000000" charge=0
C	-1.340335	-0.943297	-0.255593	6
N	0.097005	-0.855067	-0.022213	7
C	0.581105	0.554442	-0.016333	6
C	0.081475	1.336742	1.139337	6
N	-0.339825	1.967232	2.020177	7
C	2.062205	0.599672	-0.064203	6
N	3.222425	0.624153	-0.151203	7
H	-1.634685	-1.996987	-0.292323	1
H	-1.621545	-0.484997	-1.209263	1
H	-1.913215	-0.476597	0.551447	1
H	0.581695	-1.362777	-0.763913	1
H	0.223695	1.037483	-0.935913	1
Es	2.679968	0.895447	0.025961	99
Es	0.174465	-0.975378	0.253094	99
Es	2.704630	0.409299	0.051941	99
Es	2.061780	0.599663	-0.064152	99
Es	-1.722607	-0.616215	0.289250	99
Es	0.316894	-0.196204	-0.018653	99
Es	-1.340162	-0.943281	-0.255578	99
Es	3.588007	0.623758	-0.188749	99
Es	0.391607	-1.138321	-0.483631	99
Es	-0.484273	2.161361	2.297857	99
Es	-0.339657	1.966978	2.019819	99
Es	0.107487	1.860349	1.587059	99
Es	3.221974	0.624140	-0.151173	99
Es	-0.119770	1.467618	1.773293	99
Es	0.096855	-0.854718	-0.022809	99
Es	0.581207	0.554408	-0.016152	99
Es	-1.526605	-1.649264	-0.289135	99
Es	0.081642	1.336507	1.139014	99
Es	0.358364	0.886804	-0.600920	99
Es	-0.414306	1.696076	1.463173	99
Es	2.658526	0.537592	-0.412016	99
Es	1.359520	0.584404	-0.017939	99
Es	-0.522499	-0.864531	-0.132495	99
Es	0.332731	0.960806	0.599758	99
Es	-1.526299	-0.624029	-0.908722	99
37
Properties=species:S:1:pos:R:3:Z:I:1 energy=-317.791113050123 field_type=dipole dipole="0.000000 0.000000 0.000000" charge=0
C	-1.340335	-0.943297	-0.255593	6
N	0.097005	-0.855067	-0.022213	7
C	0.581105	0.554442	-0.016333	6
C	0.081475	1.336742	1.139337	6
N	-0.339825	1.967232	2.020177	7
C	2.062205	0.599672	-0.064203	6
N	3.222425	0.624153	-0.151203	7
H	-1.634685	-1.996987	-0.292323	1
H	-1.621545	-0.484997	-1.209263	1
H	-1.913215	-0.476597	0.551447	1
H	0.581695	-1.362777	-0.763913	1
H	0.223695	1.037483	-0.935913	1
Es	-0.486215	2.163673	2.295334	99
Es	-0.404992	1.509813	1.588273	99
Es	-1.526333	-1.648654	-0.289514	99
Es	0.114585	1.618903	1.775908	99
Es	0.333314	0.962887	0.599049	99
Es	0.081646	1.336521	1.139012	99
Es	-0.522900	-0.865253	-0.130451	99
Es	-1.526195	-0.624324	-0.908405	99
Es	2.668699	0.328551	-0.225982	99
Es	2.703446	0.710863	0.189069	99
Es	0.174609	-0.973860	0.250643	99
Es	0.358509	0.886219	-0.600259	99
Es	-0.135324	1.891116	1.462553	99
Es	1.359672	0.585790	-0.019046	99
Es	2.061778	0.599688	-0.064162	99
Es	0.096851	-0.854699	-0.022868	99
Es	-1.340160	-0.943284	-0.255577	99
Es	0.581207	0.554408	-0.016150	99
Es	0.392174	-1.138744	-0.483690	99
Es	-0.339657	1.966978	2.019820	99
Es	3.221955	0.624143	-0.151173	99
Es	0.316798	-0.196230	-0.018410	99
Es	-1.723107	-0.616379	0.289514	99
Es	3.587395	0.625545	-0.194915	99
Es	2.671724	0.799595	-0.290481	99
37
Properties=species:S:1:pos:R:3:Z:I:1 energy=-317.791113050123 field_type=dipole dipole="0.000000 0.000000 0.000000" charge=0
C	-1.340335	-0.943297	-0.255593	6
N	0.097005	-0.855067	-0.022213	7
C	0.581105	0.554442	-0.016333	6
C	0.081475	1.336742	1.139337	6
N	-0.339825	1.967232	2.020177	7
C	2.062205	0.599672	-0.064203	6
N	3.222425	0.624153	-0.151203	7
H	-1.634685	-1.996987	-0.292323	1
H	-1.621545	-0.484997	-1.209263	1
H	-1.913215	-0.476597	0.551447	1
H	0.581695	-1.362777	-0.763913	1
H	0.223695	1.037483	-0.935913	1
Es	0.173823	-0.973877	0.250138	99
Es	2.703089	0.406839	0.037010	99
Es	-1.526060	-0.624480	-0.908216	99
Es	0.317102	-0.196309	-0.017655	99
Es	2.681744	0.887929	0.043404	99
Es	-0.120663	1.472604	1.769777	99
Es	3.587981	0.622239	-0.190427	99
Es	0.081650	1.336515	1.139011	99
Es	0.109827	1.858360	1.589752	99
Es	-0.522749	-0.864903	-0.131132	99
Es	0.581208	0.554407	-0.016149	99
Es	-1.340162	-0.943283	-0.255577	99
Es	2.658337	0.548736	-0.413197	99
Es	0.096852	-0.854674	-0.022917	99
Es	-0.485608	2.160991	2.297584	99
Es	0.332830	0.961103	0.599930	99
Es	-1.526426	-1.648738	-0.289548	99
Es	0.392433	-1.139077	-0.483386	99
Es	1.359784	0.584626	-0.018101	99
Es	3.221952	0.624142	-0.151169	99
Es	-1.723178	-0.616133	0.289369	99
Es	2.061780	0.599675	-0.064151	99
Es	0.358585	0.886287	-0.600189	99
Es	-0.414995	1.693315	1.464119	99
Es	-0.339656	1.966975	2.019815	99
37
Properties=species:S:1:pos:R:3:Z:I:1 energy=-317.791113050123 field_type=dipole dipole="0.000000 0.000000 0.000000" charge=0
C	-1.340335	-0.943297	-0.255593	6
N	0.097005	-0.855067	-0.022213	7
C	0.581105	0.554442	-0.016333	6
C	0.081475	1.336742	1.139337	6
N	-0.339825	1.967232	2.020177	7
C	2.062205	0.599672	-0.064203	6
N	3.222425	0.624153	-0.151203	7
H	-1.634685	-1.996987	-0.292323	1
H	-1.621545	-0.484997	-1.209263	1
H	-1.913215	-0.476597	0.551447	1
H	0.581695	-1.362777	-0.763913	1
H	0.223695	1.037483	-0.935913	1
Es	0.132055	1.651029	1.759230	99
Es	0.174134	-0.972711	0.249231	99
Es	0.358636	0.885858	-0.599997	99
Es	0.333149	0.962935	0.599167	99
Es	2.061779	0.599686	-0.064156	99
Es	2.705600	0.687310	0.195191	99
Es	2.665870	0.339650	-0.253367	99
Es	-0.339658	1.966978	2.019820	99
Es	-1.340165	-0.943281	-0.255577	99
Es	-1.526076	-0.624741	-0.908332	99
Es	-1.526110	-1.648084	-0.289581	99
Es	3.587230	0.624147	-0.195710	99
Es	-0.390137	1.490841	1.608167	99
Es	0.096863	-0.854718	-0.022811	99
Es	-1.723513	-0.616324	0.289636	99
Es	1.359914	0.586537	-0.018639	99
Es	0.081659	1.336520	1.139015	99
Es	0.581206	0.554408	-0.016152	99
Es	-0.488006	2.163463	2.294771	99
Es	-0.166078	1.878231	1.459834	99
Es	2.672427	0.812547	-0.269079	99
Es	-0.523072	-0.865431	-0.129892	99
Es	3.221955	0.624143	-0.151171	99
Es	0.392989	-1.139391	-0.483279	99
Es	0.316830	-0.196334	-0.018228	99
37
Properties=species:S:1:pos:R:3:Z:I:1 energy=-317.791113050123 field_type=dipole dipole="0.000000 0.000000 0.000000" charge=0
C	-1.340335	-0.943297	-0.255593	6
N	0.097005	-0.855067	-0.022213	7
C	0.581105	0.554442	-0.016333	6
C	0.081475	1.336742	1.139337	6
N	-0.339825	1.967232	2.020177	7
C	2.062205	0.599672	-0.064203	6
N	3.222425	0.624153	-0.151203	7
H	-1.634685	-1.996987	-0.292323	1
H	-1.621545	-0.484997	-1.209263	1
H	-1.913215	-0.476597	0.551447	1
H	0.581695	-1.362777	-0.763913	1
H	0.223695	1.037483	-0.935913	1
Es	0.581207	0.554407	-0.016150	99
Es	-1.723634	-0.616045	0.289447	99
Es	0.096844	-0.854716	-0.022851	99
Es	0.358701	0.885676	-0.599780	99
Es	-0.125334	1.472920	1.767311	99
Es	0.113020	1.853377	1.594796	99
Es	0.393769	-1.140261	-0.482379	99
Es	-0.487203	2.161995	2.296402	99
Es	-1.526269	-1.648350	-0.289897	99
Es	2.664596	0.345557	-0.266602	99
Es	-1.340165	-0.943280	-0.255579	99
Es	-0.523071	-0.864937	-0.130673	99
Es	3.221956	0.624143	-0.151171	99
Es	2.673198	0.815402	-0.258590	99
Es	1.360008	0.587230	-0.019018	99
Es	2.705808	0.678881	0.196754	99
Es	0.332853	0.961141	0.600296	99
Es	3.587518	0.623126	-0.194272	99
Es	-1.525775	-0.624755	-0.907919	99
Es	2.061778	0.599691	-0.064152	99
Es	0.081634	1.336502	1.139021	99
Es	0.172428	-0.972247	0.247047	99
Es	-0.412452	1.697187	1.462296	99
Es	0.317722	-0.196352	-0.016063	99
Es	-0.339657	1.966978	2.019819	99
37
Properties=species:S:1:pos:R:3:Z:I:1 energy=-317.791113050123 field_type=dipole dipole="0.000000 0.000000 0.000000" charge=0
C	-1.340335	-0.943297	-0.255593	6
N	0.097005	-0.855067	-0.022213	7
C	0.581105	0.554442	-0.016333	6
C	0.081475	1.336742	1.139337	6
N	-0.339825	1.967232	2.020177	7
C	2.062205	0.599672	-0.064203	6
N	3.222425	0.624153	-0.151203	7
H	-1.634685	-1.996987	-0.292323	1
H	-1.621545	-0.484997	-1.209263	1
H	-1.913215	-0.476597	0.551447	1
H	0.581695	-1.362777	-0.763913	1
H	0.223695	1.037483	-0.935913	1
Es	-0.522993	-0.865259	-0.130272	99
Es	0.317104	-0.196309	-0.017763	99
Es	3.587459	0.623111	-0.194934	99
Es	-1.526290	-1.648158	-0.290041	99
Es	-0.339660	1.966980	2.019823	99
Es	2.665341	0.340407	-0.256944	99
Es	0.581207	0.554407	-0.016149	99
Es	-1.340163	-0.943281	-0.255577	99
Es	2.673817	0.803766	-0.264706	99
Es	0.081653	1.336509	1.139015	99
Es	0.096855	-0.854713	-0.022819	99
Es	0.358644	0.885614	-0.599837	99
Es	-0.405522	1.711925	1.456240	99
Es	0.393429	-1.139985	-0.482781	99
Es	-0.140780	1.469503	1.760889	99
Es	2.704506	0.696044	0.193677	99
Es	3.221954	0.624143	-0.151171	99
Es	-0.487878	2.161433	2.296474	99
Es	-1.723660	-0.616152	0.289577	99
Es	-1.525827	-0.624736	-0.907740	99
Es	2.061779	0.599687	-0.064155	99
Es	0.122236	1.842354	1.607426	99
Es	0.173485	-0.972270	0.248604	99
Es	1.360071	0.586912	-0.018762	99
Es	0.332713	0.961335	0.600020	99
37
Properties=species:S:1:pos:R:3:Z:I:1 energy=-317.791113050123 field_type=dipole dipole="0.000000 0.000000 0.000000" charge=0
C	-1.340335	-0.943297	-0.255593	6
N	0.097005	-0.855067	-0.022213	7
C	0.581105	0.554442	-0.016333	6
C	0.081475	1.336742	1.139337	6
N	-0.339825	1.967232	2.020177	7
C	2.062205	0.599672	-0.064203	6
N	3.222425	0.624153	-0.151203	7
H	-1.634685	-1.996987	-0.292323	1
H	-1.621545	-0.484997	-1.209263	1
H	-1.913215	-0.476597	0.551447	1
H	0.581695	-1.362777	-0.763913	1
H	0.223695	1.037483	-0.935913	1
Es	-0.523170	-0.865208	-0.129877	99
Es	0.581207	0.554405	-0.016148	99
Es	-1.723863	-0.616528	0.289777	99
Es	0.332677	0.962937	0.598972	99
Es	-0.339657	1.966978	2.019820	99
Es	0.317471	-0.196575	-0.016354	99
Es	1.360127	0.585001	-0.018011	99
Es	0.358586	0.885626	-0.599685	99
Es	-1.525836	-1.647526	-0.289620	99
Es	3.587988	0.620882	-0.192025	99
Es	2.061781	0.599675	-0.064153	99
Es	3.221954	0.624143	-0.151171	99
Es	-0.489804	2.162037	2.294818	99
Es	-0.201422	1.863610	1.456196	99
Es	-1.340164	-0.943281	-0.255579	99
Es	2.700924	0.403708	0.018294	99
Es	0.145763	1.689457	1.736119	99
Es	0.081658	1.336520	1.139011	99
Es	2.684042	0.875181	0.065072	99
Es	-1.526119	-0.625026	-0.908335	99
Es	2.658139	0.565420	-0.415198	99
Es	0.393281	-1.138984	-0.483570	99
Es	-0.366479	1.468346	1.635142	99
Es	0.096871	-0.854717	-0.022839	99
Es	0.173524	-0.972813	0.247439	99
37
Properties=species:S:1:pos:R:3:Z:I:1 energy=-317.791113050123 field_type=dipole dipole="0.000000 0.000000 0.000000" charge=0
C	-1.340335	-0.943297	-0.255593	6
N	0.097005	-0.855067	-0.022213	7
C	0.581105	0.554442	-0.016333	6
C	0.081475	1.336742	1.139337	6
N	-0.339825	1.967232	2.020177	7
C	2.062205	0.599672	-0.064203	6
N	3.222425	0.624153	-0.151203	7
H	-1.634685	-1.996987	-0.292323	1
H	-1.621545	-0.484997	-1.209263	1
H	-1.913215	-0.476597	0.551447	1
H	0.581695	-1.362777	-0.763913	1
H	0.223695	1.037483	-0.935913	1
Es	0.393748	-1.139761	-0.483085	99
Es	0.096851	-0.854700	-0.022847	99
Es	2.664914	0.344569	-0.261654	99
Es	-1.525955	-1.647530	-0.289990	99
Es	-0.339657	1.966977	2.019819	99
Es	-1.340163	-0.943281	-0.255576	99
Es	3.587390	0.623589	-0.196947	99
Es	2.673567	0.806394	-0.260548	99
Es	-1.724037	-0.616364	0.289728	99
Es	-0.155956	1.880514	1.462189	99
Es	-0.489685	2.163010	2.294346	99
Es	0.333362	0.963516	0.599225	99
Es	-1.525861	-0.625064	-0.907878	99
Es	-0.523426	-0.866004	-0.128262	99
Es	2.705147	0.688782	0.195421	99
Es	0.127102	1.641761	1.764386	99
Es	3.221961	0.624143	-0.151171	99
Es	0.317514	-0.196490	-0.016088	99
Es	0.358838	0.885260	-0.599087	99
Es	0.081652	1.336521	1.139006	99
Es	0.581207	0.554407	-0.016150	99
Es	-0.394369	1.497830	1.600970	99
Es	0.173245	-0.971394	0.244933	99
Es	1.360306	0.586905	-0.018486	99
Es	2.061783	0.599676	-0.064162	99
37
Properties=species:S:1:pos:R:3:Z:I:1 energy=-317.791113050123 field_type=dipole dipole="0.000000 0.000000 0.000000" charge=0
C	-1.340335	-0.943297	-0.255593	6
N	0.097005	-0.855067	-0.022213	7
C	0.581105	0.554442	-0.016333	6
C	0.081475	1.336742	1.139337	6
N	-0.339825	1.967232	2.020177	7
C	2.062205	0.599672	-0.064203	6
N	3.222425	0.624153	-0.151203	7
H	-1.634685	-1.996987	-0.292323	1
H	-1.621545	-0.484997	-1.209263	1
H	-1.913215	-0.476597	0.551447	1
H	0.581695	-1.362777	-0.763913	1
H	0.223695	1.037483	-0.935913	1
Es	0.358921	0.885325	-0.599083	99
Es	-0.126269	1.479354	1.762685	99
Es	0.173264	-0.971589	0.245875	99
Es	3.221983	0.624147	-0.151173	99
Es	2.684326	0.875496	0.066601	99
Es	0.317284	-0.196278	-0.016684	99
Es	0.581208	0.554408	-0.016149	99
Es	2.658129	0.563918	-0.413999	99
Es	3.587705	0.620232	-0.193171	99
Es	0.393595	-1.139978	-0.482773	99
Es	-1.723800	-0.616084	0.289582	99
Es	0.332809	0.961762	0.600007	99
Es	-1.526295	-1.648119	-0.290264	99
Es	0.081652	1.336509	1.139009	99
Es	-0.523293	-0.866089	-0.128920	99
Es	-0.414017	1.692645	1.464361	99
Es	2.061783	0.599675	-0.064147	99
Es	0.096849	-0.854693	-0.022868	99
Es	-0.339657	1.966978	2.019820	99
Es	-0.487703	2.161077	2.296835	99
Es	1.360190	0.585396	-0.018274	99
Es	-1.525697	-0.624812	-0.907464	99
Es	-1.340164	-0.943281	-0.255577	99
Es	0.115819	1.851969	1.597163	99
Es	2.700857	0.405299	0.016703	99
37
Properties=species:S:1:pos:R:3:Z:I:1 energy=-317.791113050123 field_type=dipole dipole="0.000000 0.000000 0.000000" charge=0
C	-1.340335	-0.943297	-0.255593	6
N	0.097005	-0.855067	-0.022213	7
C	0.581105	0.554442	-0.016333	6
C	0.081475	1.336742	1.139337	6
N	-0.339825	1.967232	2.020177	7
C	2.062205	0.599672	-0.064203	6
N	3.222425	0.624153	-0.151203	7
H	-1.634685	-1.996987	-0.292323	1
H	-1.621545	-0.484997	-1.209263	1
H	-1.913215	-0.476597	0.551447	1
H	0.581695	-1.362777	-0.763913	1
H	0.223695	1.037483	-0.935913	1
Es	1.360262	0.587378	-0.018841	99
Es	0.394112	-1.140176	-0.482680	99
Es	-1.723990	-0.615990	0.289570	99
Es	-0.489215	2.160876	2.296227	99
Es	0.081662	1.336507	1.139020	99
Es	3.221954	0.624143	-0.151171	99
Es	-1.526160	-1.647794	-0.290092	99
Es	-1.525699	-0.625152	-0.907541	99
Es	-0.339659	1.966979	2.019822	99
Es	3.587397	0.622733	-0.195868	99
Es	0.581207	0.554406	-0.016149	99
Es	0.172318	-0.971098	0.243310	99
Es	-1.340162	-0.943278	-0.255579	99
Es	-0.401689	1.718150	1.453910	99
Es	0.332801	0.961673	0.600211	99
Es	0.317990	-0.196531	-0.014678	99
Es	0.125722	1.837072	1.613227	99
Es	0.359000	0.885188	-0.598988	99
Es	2.705315	0.686346	0.195925	99
Es	2.061780	0.599693	-0.064151	99
Es	-0.523421	-0.865905	-0.128566	99
Es	2.664261	0.346432	-0.267650	99
Es	2.674045	0.807259	-0.255804	99
Es	0.096851	-0.854681	-0.022894	99
Es	-0.147204	1.469036	1.757521	99
37
Properties=species:S:1:pos:R:3:Z:I:1 energy=-317.791113050123 field_type=dipole dipole="0.000000 0.000000 0.000000" charge=0
C	-1.340335	-0.943297	-0.255593	6
N	0.097005	-0.855067	-0.022213	7
C	0.581105	0.554442	-0.016333	6
C	0.081475	1.336742	1.139337	6
N	-0.339825	1.967232	2.020177	7
C	2.062205	0.599672	-0.064203	6
N	3.222425	0.624153	-0.151203	7
H	-1.634685	-1.996987	-0.292323	1
H	-1.621545	-0.484997	-1.209263	1
H	-1.913215	-0.476597	0.551447	1
H	0.581695	-1.362777	-0.763913	1
H	0.223695	1.037483	-0.935913	1
Es	-0.395602	1.499454	1.599082	99
Es	0.081658	1.336523	1.139007	99
Es	2.674162	0.803575	-0.255901	99
Es	3.587248	0.623001	-0.197717	99
Es	0.316865	-0.196556	-0.017792	99
Es	-1.525813	-0.625295	-0.907666	99
Es	0.096846	-0.854687	-0.022896	99
Es	0.173808	-0.970557	0.245639	99
Es	-0.339657	1.966977	2.019819	99
Es	0.581207	0.554408	-0.016151	99
Es	0.128111	1.643349	1.763584	99
Es	2.061780	0.599676	-0.064145	99
Es	3.221958	0.624143	-0.151172	99
Es	-0.490285	2.162669	2.294257	99
Es	0.394009	-1.140157	-0.482866	99
Es	2.705169	0.690041	0.195338	99
Es	-0.523532	-0.866236	-0.127624	99
Es	1.360432	0.587074	-0.018329	99
Es	2.664384	0.346568	-0.265794	99
Es	-1.724179	-0.616268	0.289768	99
Es	-1.340162	-0.943280	-0.255579	99
Es	-1.525865	-1.647428	-0.290062	99
Es	-0.155510	1.877570	1.464787	99
Es	0.333506	0.963695	0.599352	99
Es	0.358939	0.885007	-0.598847	99
37
Properties=species:S:1:pos:R:3:Z:I:1 energy=-317.791113050123 field_type=dipole dipole="0.000000 0.000000 0.000000" charge=0
C	-1.340335	-0.943297	-0.255593	6
N	0.097005	-0.855067	-0.022213	7
C	0.581105	0.554442	-0.016333	6
C	0.081475	1.336742	1.139337	6
N	-0.339825	1.967232	2.020177	7
C	2.062205	0.599672	-0.064203	6
N	3.222425	0.624153	-0.151203	7
H	-1.634685	-1.996987	-0.292323	1
H	-1.621545	-0.484997	-1.209263	1
H	-1.913215	-0.476597	0.551447	1
H	0.581695	-1.362777	-0.763913	1
H	0.223695	1.037483	-0.935913	1
Es	0.122822	1.840939	1.609009	99
Es	-0.523401	-0.865476	-0.129009	99
Es	2.674539	0.793997	-0.266806	99
Es	0.394164	-1.139995	-0.482859	99
Es	1.360251	0.587182	-0.019019	99
Es	-1.525790	-0.625208	-0.907832	99
Es	-0.405980	1.710525	1.456545	99
Es	0.333012	0.961822	0.600262	99
Es	0.317690	-0.196676	-0.015690	99
Es	0.172742	-0.971340	0.245083	99
Es	-0.339657	1.966978	2.019819	99
Es	0.081654	1.336506	1.139019	99
Es	-1.724203	-0.616314	0.289781	99
Es	-1.525886	-1.647269	-0.290043	99
Es	2.061779	0.599686	-0.064157	99
Es	0.358821	0.885153	-0.599218	99
Es	2.665612	0.338972	-0.251171	99
Es	-1.340165	-0.943280	-0.255577	99
Es	-0.140416	1.473104	1.758621	99
Es	0.096850	-0.854694	-0.022886	99
Es	-0.489055	2.160279	2.296770	99
Es	3.587293	0.621927	-0.196517	99
Es	0.581207	0.554407	-0.016149	99
Es	3.221958	0.624142	-0.151169	99
Es	2.703636	0.707901	0.191288	99
37
Properties=species:S:1:pos:R:3:Z:I:1 energy=-317.791113050123 field_type=dipole dipole="0.000000 0.000000 0.000000" charge=0
C	-1.340335	-0.943297	-0.255593	6
N	0.097005	-0.855067	-0.022213	7
C	0.581105	0.554442	-0.016333	6
C	0.081475	1.336742	1.139337	6
N	-0.339825	1.967232	2.020177	7
C	2.062205	0.599672	-0.064203	6
N	3.222425	0.624153	-0.151203	7
H	-1.634685	-1.996987	-0.292323	1
H	-1.621545	-0.484997	-1.209263	1
H	-1.913215	-0.476597	0.551447	1
H	0.581695	-1.362777	-0.763913	1
H	0.223695	1.037483	-0.935913	1
Es	-0.523652	-0.865654	-0.128638	99
Es	0.172072	-0.970955	0.242230	99
Es	0.581207	0.554408	-0.016150	99
Es	0.318390	-0.196903	-0.013522	99
Es	-0.304901	1.445528	1.683452	99
Es	3.588097	0.622898	-0.194500	99
Es	2.663440	0.352702	-0.278825	99
Es	-0.267744	1.843625	1.438780	99
Es	0.358805	0.885025	-0.598984	99
Es	0.096846	-0.854694	-0.022866	99
Es	-1.724670	-0.616630	0.289741	99
Es	0.081649	1.336533	1.139003	99
Es	2.061778	0.599691	-0.064157	99
Es	-0.492819	2.160476	2.294066	99
Es	-1.340167	-0.943281	-0.255578	99
Es	-1.525905	-0.625637	-0.907931	99
Es	2.675902	0.795620	-0.244550	99
Es	0.153461	1.734187	1.705775	99
Es	-0.339657	1.966977	2.019819	99
Es	2.703869	0.691696	0.195262	99
Es	0.332009	0.962535	0.598995	99
Es	3.221954	0.624143	-0.151171	99
Es	0.394749	-1.139574	-0.482709	99
Es	1.360421	0.586877	-0.019549	99
Es	-1.525656	-1.646325	-0.289902	99
37
Properties=species:S:1:pos:R:3:Z:I:1 energy=-317.791113050123 field_type=dipole dipole="0.000000 0.000000 0.000000" charge=0
C	-1.340335	-0.943297	-0.255593	6
N	0.097005	-0.855067	-0.022213	7
C	0.581105	0.554442	-0.016333	6
C	0.081475	1.336742	1.139337	6
N	-0.339825	1.967232	2.020177	7
C	2.062205	0.599672	-0.064203	6
N	3.222425	0.624153	-0.151203	7
H	-1.634685	-1.996987	-0.292323	1
H	-1.621545	-0.484997	-1.209263	1
H	-1.913215	-0.476597	0.551447	1
H	0.581695	-1.362777	-0.763913	1
H	0.223695	1.037483	-0.935913	1
Es	-1.525839	-1.647336	-0.290027	99
Es	0.116154	1.851337	1.598108	99
Es	-0.488680	2.159787	2.297251	99
Es	2.703088	0.420071	0.028212	99
Es	0.581207	0.554407	-0.016149	99
Es	0.358833	0.885085	-0.598900	99
Es	3.587785	0.620341	-0.193901	99
Es	0.317770	-0.196452	-0.015395	99
Es	0.172927	-0.971372	0.244321	99
Es	3.221954	0.624143	-0.151171	99
Es	2.061780	0.599684	-0.064140	99
Es	-1.340163	-0.943279	-0.255578	99
Es	-1.525839	-0.625275	-0.907769	99
Es	0.393817	-1.139795	-0.483158	99
Es	-0.413388	1.693222	1.464111	99
Es	2.657233	0.540859	-0.410959	99
Es	-0.523373	-0.865889	-0.128420	99
Es	2.682850	0.883354	0.052175	99
Es	-0.339657	1.966977	2.019819	99
Es	-1.724196	-0.616326	0.289795	99
Es	0.081655	1.336511	1.139014	99
Es	-0.126731	1.480248	1.761623	99
Es	0.096852	-0.854692	-0.022889	99
Es	0.333005	0.962080	0.600086	99
Es	1.360434	0.585578	-0.017961	99
37
Properties=species:S:1:pos:R:3:Z:I:1 energy=-317.791113050123 field_type=dipole dipole="0.000000 0.000000 0.000000" charge=0
C	-1.340335	-0.943297	-0.255593	6
N	0.097005	-0.855067	-0.022213	7
C	0.581105	0.554442	-0.016333	6
C	0.081475	1.336742	1.139337	6
N	-0.339825	1.967232	2.020177	7
C	2.062205	0.599672	-0.064203	6
N	3.222425	0.624153	-0.151203	7
H	-1.634685	-1.996987	-0.292323	1
H	-1.621545	-0.484997	-1.209263	1
H	-1.913215	-0.476597	0.551447	1
H	0.581695	-1.362777	-0.763913	1
H	0.223695	1.037483	-0.935913	1
Es	0.394780	-1.139531	-0.482643	99
Es	0.318627	-0.196887	-0.012903	99
Es	0.581205	0.554407	-0.016151	99
Es	0.096864	-0.854728	-0.022779	99
Es	0.153390	1.750443	1.693679	99
Es	0.331834	0.962481	0.598929	99
Es	-0.523734	-0.865716	-0.128384	99
Es	0.358872	0.884844	-0.598611	99
Es	-1.340162	-0.943280	-0.255580	99
Es	3.221953	0.624143	-0.151171	99
Es	-1.525831	-0.625659	-0.907622	99
Es	-0.292076	1.832019	1.434537	99
Es	-1.525706	-1.646471	-0.290081	99
Es	-0.339658	1.966975	2.019818	99
Es	2.061778	0.599694	-0.064160	99
Es	-0.279795	1.441971	1.699612	99
Es	1.360525	0.586621	-0.019547	99
Es	-1.724750	-0.616599	0.289649	99
Es	2.676545	0.789940	-0.241370	99
Es	2.703345	0.696606	0.193997	99
Es	2.663255	0.353491	-0.280658	99
Es	3.588192	0.623273	-0.194768	99
Es	-0.493485	2.159502	2.294182	99
Es	0.081646	1.336516	1.139008	99
Es	0.171864	-0.970789	0.241111	99
37
Properties=species:S:1:pos:R:3:Z:I:1 energy=-317.791113050123 field_type=dipole dipole="0.000000 0.000000 0.000000" charge=0
C	-1.340335	-0.943297	-0.255593	6
N	0.097005	-0.855067	-0.022213	7
C	0.581105	0.554442	-0.016333	6
C	0.081475	1.336742	1.139337	6
N	-0.339825	1.967232	2.020177	7
C	2.062205	0.599672	-0.064203	6
N	3.222425	0.624153	-0.151203	7
H	-1.634685	-1.996987	-0.292323	1
H	-1.621545	-0.484997	-1.209263	1
H	-1.913215	-0.476597	0.551447	1
H	0.581695	-1.362777	-0.763913	1
H	0.223695	1.037483	-0.935913	1
Es	-0.384659	1.485730	1.613740	99
Es	0.096861	-0.854716	-0.022805	99
Es	0.393796	-1.139269	-0.483629	99
Es	-1.724332	-0.616429	0.289890	99
Es	-1.525720	-1.647082	-0.290065	99
Es	0.581207	0.554407	-0.016150	99
Es	0.317327	-0.196718	-0.016151	99
Es	-1.340163	-0.943284	-0.255576	99
Es	-0.339658	1.966980	2.019823	99
Es	1.360540	0.585331	-0.017909	99
Es	0.173767	-0.970993	0.243965	99
Es	-0.176015	1.868026	1.463889	99
Es	-0.523686	-0.866426	-0.127067	99
Es	3.587641	0.620619	-0.195322	99
Es	0.138379	1.667053	1.749888	99
Es	0.358863	0.884891	-0.598529	99
Es	3.221954	0.624143	-0.151171	99
Es	-0.490635	2.161926	2.294663	99
Es	0.081658	1.336525	1.139006	99
Es	-1.525842	-0.625385	-0.907748	99
Es	2.684445	0.873793	0.067944	99
Es	2.657602	0.560313	-0.413039	99
Es	2.061786	0.599660	-0.064154	99
Es	0.333157	0.963943	0.599038	99
Es	2.701208	0.410227	0.015563	99
37
Properties=species:S:1:pos:R:3:Z:I:1 energy=-317.791113050123 field_type=dipole dipole="0.000000 0.000000 0.000000" charge=0
C	-1.340335	-0.943297	-0.255593	6
N	0.097005	-0.855067	-0.022213	7
C	0.581105	0.554442	-0.016333	6
C	0.081475	1.336742	1.139337	6
N	-0.339825	1.967232	2.020177	7
C	2.062205	0.599672	-0.064203	6
N	3.222425	0.624153	-0.151203	7
H	-1.634685	-1.996987	-0.292323	1
H	-1.621545	-0.484997	-1.209263	1
H	-1.913215	-0.476597	0.551447	1
H	0.581695	-1.362777	-0.763913	1
H	0.223695	1.037483	-0.935913	1
Es	0.358842	0.884978	-0.598807	99
Es	0.581207	0.554409	-0.016151	99
Es	2.702006	0.414843	0.019763	99
Es	0.096889	-0.854783	-0.022645	99
Es	2.657380	0.551677	-0.412165	99
Es	2.061780	0.599674	-0.064146	99
Es	-0.381652	1.482918	1.617114	99
Es	-0.523557	-0.866412	-0.127225	99
Es	3.221957	0.624143	-0.151171	99
Es	-1.525597	-1.646749	-0.290010	99
Es	3.587671	0.620915	-0.195080	99
Es	0.081650	1.336528	1.139002	99
Es	1.360582	0.585381	-0.017513	99
Es	-0.180887	1.866454	1.463139	99
Es	0.317146	-0.196670	-0.016225	99
Es	-1.525948	-0.625369	-0.907953	99
Es	0.140448	1.671793	1.747127	99
Es	0.393906	-1.139129	-0.483736	99
Es	-0.339661	1.966978	2.019821	99
Es	-0.490806	2.161425	2.294866	99
Es	-1.340163	-0.943281	-0.255577	99
Es	-1.724415	-0.616686	0.289996	99
Es	0.333141	0.964039	0.599042	99
Es	0.173782	-0.971039	0.244237	99
Es	2.683778	0.877230	0.062389	99
37
Properties=species:S:1:pos:R:3:Z:I:1 energy=-317.791113050123 field_type=dipole dipole="0.000000 0.000000 0.000000" charge=0
C	-1.340335	-0.943297	-0.255593	6
N	0.097005	-0.855067	-0.022213	7
C	0.581105	0.554442	-0.016333	6
C	0.081475	1.336742	1.139337	6
N	-0.339825	1.967232	2.020177	7
C	2.062205	0.599672	-0.064203	6
N	3.222425	0.624153	-0.151203	7
H	-1.634685	-1.996987	-0.292323	1
H	-1.621545	-0.484997	-1.209263	1
H	-1.913215	-0.476597	0.551447	1
H	0.581695	-1.362777	-0.763913	1
H	0.223695	1.037483	-0.935913	1
Es	2.664126	0.348080	-0.269911	99
Es	1.360782	0.586571	-0.020137	99
Es	0.581208	0.554407	-0.016149	99
Es	0.081669	1.336521	1.139014	99
Es	-1.525599	-0.625851	-0.906799	99
Es	2.701779	0.711576	0.189336	99
Es	-0.339661	1.966983	2.019827	99
Es	-0.010754	1.904964	1.502672	99
Es	3.588463	0.623363	-0.195206	99
Es	-1.340167	-0.943281	-0.255578	99
Es	0.318713	-0.197406	-0.011976	99
Es	0.334561	0.963682	0.600235	99
Es	0.014041	1.523497	1.801626	99
Es	-1.525734	-1.645975	-0.290684	99
Es	0.096848	-0.854684	-0.022909	99
Es	-0.524156	-0.866388	-0.126901	99
Es	3.221955	0.624143	-0.151171	99
Es	-0.429660	1.592660	1.520351	99
Es	-0.488726	2.161746	2.295799	99
Es	0.171279	-0.968993	0.237673	99
Es	-1.725246	-0.616730	0.289594	99
Es	0.395840	-1.140003	-0.481822	99
Es	0.359071	0.884346	-0.597647	99
Es	2.677074	0.780353	-0.246990	99
Es	2.061776	0.599688	-0.064156	99
