44
Properties=species:S:1:pos:R:3:Z:I:1 energy=-304.1219250186634 field_type=dipole dipole="0.000000 0.000000 0.000000" charge=0
C	-2.427419	-0.281313	-0.664499	6
N	-1.005979	-0.506733	-0.756579	7
C	-0.072889	0.466547	-0.561009	6
N	-0.216419	1.735357	-0.671159	7
C	1.273341	-0.031603	-0.195179	6
C	2.009301	0.558867	0.985141	6
C	1.471031	-0.836973	1.069860	6
H	-2.964019	-1.206513	-0.895469	1
H	-2.755859	0.481877	-1.377499	1
H	-2.702559	0.031087	0.347081	1
H	-0.717999	-1.439533	-0.478929	1
H	-1.172239	1.945887	-0.956849	1
H	1.885671	-0.295203	-1.052399	1
H	1.513221	1.339367	1.551430	1
H	3.079961	0.695667	0.889731	1
H	2.180311	-1.655853	1.042641	1
H	0.622541	-1.000933	1.723691	1
Es	-0.839595	-1.055478	-0.566587	99
Es	-0.657039	-0.094555	-0.563686	99
Es	-1.005929	-0.506562	-0.755978	99
Es	-0.072942	0.466356	-0.561029	99
Es	-0.806962	1.849799	-0.843926	99
Es	0.033464	1.989817	-0.618527	99
Es	0.594539	0.199542	-0.366053	99
Es	-2.427245	-0.281346	-0.664518	99
Es	2.009216	0.558707	0.985049	99
Es	1.807134	-0.164119	1.200898	99
Es	-0.879955	-0.441227	-1.026537	99
Es	-2.615258	-0.063994	0.026724	99
Es	1.672529	1.074481	1.369727	99
Es	-0.105162	1.217895	-0.899290	99
Es	-2.645760	0.240945	-1.146247	99
Es	-0.216721	1.735016	-0.671224	99
Es	1.676111	-0.215301	-0.772019	99
Es	1.266628	-0.590654	0.353244	99
Es	-0.254196	1.251265	-0.353789	99
Es	2.736461	0.643350	0.918546	99
Es	1.951433	-1.394329	1.048476	99
Es	-2.783484	-0.913249	-0.819487	99
Es	0.887661	-0.947496	1.505016	99
Es	-1.610248	-0.394037	-0.701131	99
Es	1.273362	-0.031633	-0.195011	99
Es	1.471038	-0.836832	1.069750	99
Es	1.655854	0.418372	0.292287	99
44
Properties=species:S:1:pos:R:3:Z:I:1 energy=-304.1219250186634 field_type=dipole dipole="0.000000 0.000000 0.000000" charge=0
C	-2.427419	-0.281313	-0.664499	6
N	-1.005979	-0.506733	-0.756579	7
C	-0.072889	0.466547	-0.561009	6
N	-0.216419	1.735357	-0.671159	7
C	1.273341	-0.031603	-0.195179	6
C	2.009301	0.558867	0.985141	6
C	1.471031	-0.836973	1.069860	6
H	-2.964019	-1.206513	-0.895469	1
H	-2.755859	0.481877	-1.377499	1
H	-2.702559	0.031087	0.347081	1
H	-0.717999	-1.439533	-0.478929	1
H	-1.172239	1.945887	-0.956849	1
H	1.885671	-0.295203	-1.052399	1
H	1.513221	1.339367	1.551430	1
H	3.079961	0.695667	0.889731	1
H	2.180311	-1.655853	1.042641	1
H	0.622541	-1.000933	1.723691	1
Es	-0.072944	0.466354	-0.561028	99
Es	-1.610241	-0.393578	-0.704407	99
Es	0.888820	-0.947448	1.503188	99
Es	-0.839536	-1.059807	-0.569347	99
Es	-2.645050	0.242741	-1.146102	99
Es	1.673899	-0.214246	-0.770727	99
Es	2.734247	0.643776	0.917961	99
Es	1.950428	-1.395449	1.048200	99
Es	-0.216762	1.734993	-0.671227	99
Es	1.264934	-0.595155	0.354752	99
Es	-1.005875	-0.506479	-0.755807	99
Es	1.658514	0.422243	0.291915	99
Es	-0.887800	-0.445185	-1.011365	99
Es	1.273366	-0.031633	-0.195007	99
Es	-2.613669	-0.064397	0.025504	99
Es	1.471040	-0.836834	1.069756	99
Es	1.807822	-0.164585	1.202715	99
Es	-0.107513	1.218584	-0.898461	99
Es	0.036166	1.994118	-0.619187	99
Es	-2.783951	-0.915421	-0.819099	99
Es	0.595299	0.199439	-0.365910	99
Es	-0.257569	1.249846	-0.353494	99
Es	-2.427245	-0.281346	-0.664518	99
Es	2.009215	0.558706	0.985049	99
Es	-0.650400	-0.087007	-0.572319	99
Es	-0.803404	1.846924	-0.845058	99
Es	1.673143	1.075579	1.368702	99
44
Properties=species:S:1:pos:R:3:Z:I:1 energy=-304.1219250186634 field_type=dipole dipole="0.000000 0.000000 0.000000" charge=0
C	-2.427419	-0.281313	-0.664499	6
N	-1.005979	-0.506733	-0.756579	7
C	-0.072889	0.466547	-0.561009	6
N	-0.216419	1.735357	-0.671159	7
C	1.273341	-0.031603	-0.195179	6
C	2.009301	0.558867	0.985141	6
C	1.471031	-0.836973	1.069860	6
H	-2.964019	-1.206513	-0.895469	1
H	-2.755859	0.481877	-1.377499	1
H	-2.702559	0.031087	0.347081	1
H	-0.717999	-1.439533	-0.478929	1
H	-1.172239	1.945887	-0.956849	1
H	1.885671	-0.295203	-1.052399	1
H	1.513221	1.339367	1.551430	1
H	3.079961	0.695667	0.889731	1
H	2.180311	-1.655853	1.042641	1
H	0.622541	-1.000933	1.723691	1
Es	-2.427245	-0.281346	-0.664517	99
Es	2.732198	0.643563	0.917449	99
Es	0.595677	0.199515	-0.365647	99
Es	1.949784	-1.396273	1.048273	99
Es	-1.005729	-0.506370	-0.755769	99
Es	-0.072943	0.466354	-0.561026	99
Es	1.273366	-0.031629	-0.195006	99
Es	1.672369	-0.213636	-0.769725	99
Es	1.660292	0.424497	0.291419	99
Es	-0.649772	-0.084699	-0.573338	99
Es	-2.612677	-0.064653	0.024861	99
Es	-0.108208	1.219572	-0.898099	99
Es	0.036760	1.996988	-0.619687	99
Es	1.673922	1.076631	1.368298	99
Es	-0.216749	1.734991	-0.671229	99
Es	-2.644540	0.243771	-1.146095	99
Es	1.471043	-0.836835	1.069761	99
Es	-0.801148	1.844505	-0.845734	99
Es	-2.783969	-0.916650	-0.818808	99
Es	2.009216	0.558711	0.985046	99
Es	-0.840211	-1.062003	-0.570626	99
Es	-1.609587	-0.393680	-0.706586	99
Es	1.808298	-0.165171	1.203934	99
Es	1.263993	-0.597618	0.355304	99
Es	-0.259393	1.248790	-0.353108	99
Es	0.889668	-0.947134	1.501936	99
Es	-0.889482	-0.445455	-1.006603	99
44
Properties=species:S:1:pos:R:3:Z:I:1 energy=-304.1219250186634 field_type=dipole dipole="0.000000 0.000000 0.000000" charge=0
C	-2.427419	-0.281313	-0.664499	6
N	-1.005979	-0.506733	-0.756579	7
C	-0.072889	0.466547	-0.561009	6
N	-0.216419	1.735357	-0.671159	7
C	1.273341	-0.031603	-0.195179	6
C	2.009301	0.558867	0.985141	6
C	1.471031	-0.836973	1.069860	6
H	-2.964019	-1.206513	-0.895469	1
H	-2.755859	0.481877	-1.377499	1
H	-2.702559	0.031087	0.347081	1
H	-0.717999	-1.439533	-0.478929	1
H	-1.172239	1.945887	-0.956849	1
H	1.885671	-0.295203	-1.052399	1
H	1.513221	1.339367	1.551430	1
H	3.079961	0.695667	0.889731	1
H	2.180311	-1.655853	1.042641	1
H	0.622541	-1.000933	1.723691	1
Es	-0.648983	-0.082810	-0.575126	99
Es	1.949380	-1.397063	1.048536	99
Es	-0.840838	-1.063024	-0.570537	99
Es	1.273364	-0.031634	-0.195007	99
Es	1.471034	-0.836841	1.069750	99
Es	-0.890846	-0.446167	-1.003608	99
Es	-0.260594	1.247318	-0.353495	99
Es	-0.216750	1.734974	-0.671226	99
Es	0.036661	1.998810	-0.618994	99
Es	1.263324	-0.599443	0.355816	99
Es	1.808600	-0.165296	1.204485	99
Es	-2.783868	-0.917537	-0.818438	99
Es	-0.799595	1.843093	-0.845867	99
Es	-1.006008	-0.506678	-0.756300	99
Es	0.595893	0.199340	-0.365570	99
Es	0.890564	-0.946651	1.500927	99
Es	-0.072943	0.466354	-0.561032	99
Es	2.730678	0.643398	0.917306	99
Es	1.674432	1.077179	1.368131	99
Es	2.009216	0.558699	0.985056	99
Es	-2.644196	0.244607	-1.146135	99
Es	-2.611888	-0.064913	0.024262	99
Es	-1.608905	-0.393642	-0.707113	99
Es	1.661319	0.426315	0.290738	99
Es	1.671370	-0.213175	-0.768777	99
Es	-0.108241	1.220869	-0.898583	99
Es	-2.427248	-0.281345	-0.664518	99
44
Properties=species:S:1:pos:R:3:Z:I:1 energy=-304.1219250186634 field_type=dipole dipole="0.000000 0.000000 0.000000" charge=0
C	-2.427419	-0.281313	-0.664499	6
N	-1.005979	-0.506733	-0.756579	7
C	-0.072889	0.466547	-0.561009	6
N	-0.216419	1.735357	-0.671159	7
C	1.273341	-0.031603	-0.195179	6
C	2.009301	0.558867	0.985141	6
C	1.471031	-0.836973	1.069860	6
H	-2.964019	-1.206513	-0.895469	1
H	-2.755859	0.481877	-1.377499	1
H	-2.702559	0.031087	0.347081	1
H	-0.717999	-1.439533	-0.478929	1
H	-1.172239	1.945887	-0.956849	1
H	1.885671	-0.295203	-1.052399	1
H	1.513221	1.339367	1.551430	1
H	3.079961	0.695667	0.889731	1
H	2.180311	-1.655853	1.042641	1
H	0.622541	-1.000933	1.723691	1
Es	1.671865	-0.213307	-0.771373	99
Es	0.890683	-0.946801	1.501840	99
Es	-0.072944	0.466354	-0.561026	99
Es	-0.216765	1.734962	-0.671231	99
Es	0.597040	0.198756	-0.364034	99
Es	-0.633640	-0.070861	-0.606835	99
Es	-2.643578	0.244237	-1.147083	99
Es	-0.107219	1.219758	-0.901385	99
Es	1.810261	-0.166969	1.205994	99
Es	2.009215	0.558706	0.985049	99
Es	1.273362	-0.031631	-0.195007	99
Es	0.034664	1.999282	-0.621188	99
Es	-2.782555	-0.917511	-0.819040	99
Es	1.471038	-0.836837	1.069753	99
Es	-2.427246	-0.281346	-0.664518	99
Es	-1.613675	-0.393574	-0.720287	99
Es	1.659843	0.426704	0.288634	99
Es	-0.796288	1.842538	-0.845688	99
Es	-2.611797	-0.064593	0.026145	99
Es	1.949147	-1.396157	1.048718	99
Es	-0.952505	-0.478122	-0.849735	99
Es	-0.262422	1.248742	-0.348805	99
Es	2.727843	0.642397	0.917508	99
Es	-0.839787	-1.066370	-0.574489	99
Es	1.262354	-0.597990	0.355260	99
Es	1.675655	1.077872	1.369077	99
Es	-0.957616	-0.483505	-0.861575	99
44
Properties=species:S:1:pos:R:3:Z:I:1 energy=-304.1219250186634 field_type=dipole dipole="0.000000 0.000000 0.000000" charge=0
C	-2.427419	-0.281313	-0.664499	6
N	-1.005979	-0.506733	-0.756579	7
C	-0.072889	0.466547	-0.561009	6
N	-0.216419	1.735357	-0.671159	7
C	1.273341	-0.031603	-0.195179	6
C	2.009301	0.558867	0.985141	6
C	1.471031	-0.836973	1.069860	6
H	-2.964019	-1.206513	-0.895469	1
H	-2.755859	0.481877	-1.377499	1
H	-2.702559	0.031087	0.347081	1
H	-0.717999	-1.439533	-0.478929	1
H	-1.172239	1.945887	-0.956849	1
H	1.885671	-0.295203	-1.052399	1
H	1.513221	1.339367	1.551430	1
H	3.079961	0.695667	0.889731	1
H	2.180311	-1.655853	1.042641	1
H	0.622541	-1.000933	1.723691	1
Es	-0.216745	1.734995	-0.671228	99
Es	1.675344	1.078243	1.367955	99
Es	-0.262279	1.246940	-0.352963	99
Es	2.728428	0.642822	0.916999	99
Es	-0.841454	-1.064996	-0.572325	99
Es	1.262411	-0.601380	0.355922	99
Es	-1.608574	-0.393920	-0.709315	99
Es	-0.797264	1.840520	-0.846513	99
Es	-2.427244	-0.281346	-0.664518	99
Es	-2.610967	-0.065278	0.023773	99
Es	-0.648413	-0.080693	-0.576885	99
Es	1.808918	-0.165695	1.205555	99
Es	1.662522	0.428034	0.290016	99
Es	0.036612	2.001506	-0.619830	99
Es	1.948800	-1.398244	1.049084	99
Es	-0.072948	0.466353	-0.561015	99
Es	-0.108625	1.221365	-0.897950	99
Es	-0.892892	-0.446679	-0.998287	99
Es	-1.005564	-0.506213	-0.755596	99
Es	2.009217	0.558699	0.985059	99
Es	1.273366	-0.031635	-0.195000	99
Es	0.596298	0.199363	-0.365548	99
Es	1.471038	-0.836842	1.069759	99
Es	1.670217	-0.212428	-0.767531	99
Es	-2.783443	-0.918519	-0.818085	99
Es	-2.643655	0.245585	-1.146301	99
Es	0.891829	-0.945819	1.499448	99
44
Properties=species:S:1:pos:R:3:Z:I:1 energy=-304.1219250186634 field_type=dipole dipole="0.000000 0.000000 0.000000" charge=0
C	-2.427419	-0.281313	-0.664499	6
N	-1.005979	-0.506733	-0.756579	7
C	-0.072889	0.466547	-0.561009	6
N	-0.216419	1.735357	-0.671159	7
C	1.273341	-0.031603	-0.195179	6
C	2.009301	0.558867	0.985141	6
C	1.471031	-0.836973	1.069860	6
H	-2.964019	-1.206513	-0.895469	1
H	-2.755859	0.481877	-1.377499	1
H	-2.702559	0.031087	0.347081	1
H	-0.717999	-1.439533	-0.478929	1
H	-1.172239	1.945887	-0.956849	1
H	1.885671	-0.295203	-1.052399	1
H	1.513221	1.339367	1.551430	1
H	3.079961	0.695667	0.889731	1
H	2.180311	-1.655853	1.042641	1
H	0.622541	-1.000933	1.723691	1
Es	-0.072945	0.466352	-0.561025	99
Es	-0.108649	1.222916	-0.898492	99
Es	-0.262427	1.245275	-0.353385	99
Es	1.273367	-0.031636	-0.194999	99
Es	0.596295	0.199403	-0.365385	99
Es	-2.783225	-0.918846	-0.817988	99
Es	-0.892485	-0.447248	-0.995614	99
Es	1.262217	-0.602179	0.356110	99
Es	1.948555	-1.398677	1.049325	99
Es	1.809131	-0.165675	1.205635	99
Es	-0.648238	-0.079524	-0.577789	99
Es	2.727504	0.642554	0.916913	99
Es	1.669795	-0.212183	-0.767135	99
Es	0.036115	2.002708	-0.619453	99
Es	-2.610619	-0.065346	0.023725	99
Es	2.009214	0.558707	0.985052	99
Es	-1.005890	-0.506536	-0.755975	99
Es	1.675742	1.078589	1.368072	99
Es	-0.796492	1.839491	-0.846135	99
Es	1.471039	-0.836837	1.069757	99
Es	-0.841988	-1.065129	-0.571615	99
Es	-2.643428	0.245862	-1.146389	99
Es	-1.608876	-0.394080	-0.711363	99
Es	-0.216750	1.735000	-0.671207	99
Es	0.892260	-0.945493	1.498911	99
Es	-2.427247	-0.281346	-0.664518	99
Es	1.662958	0.428614	0.289646	99
44
Properties=species:S:1:pos:R:3:Z:I:1 energy=-304.1219250186634 field_type=dipole dipole="0.000000 0.000000 0.000000" charge=0
C	-2.427419	-0.281313	-0.664499	6
N	-1.005979	-0.506733	-0.756579	7
C	-0.072889	0.466547	-0.561009	6
N	-0.216419	1.735357	-0.671159	7
C	1.273341	-0.031603	-0.195179	6
C	2.009301	0.558867	0.985141	6
C	1.471031	-0.836973	1.069860	6
H	-2.964019	-1.206513	-0.895469	1
H	-2.755859	0.481877	-1.377499	1
H	-2.702559	0.031087	0.347081	1
H	-0.717999	-1.439533	-0.478929	1
H	-1.172239	1.945887	-0.956849	1
H	1.885671	-0.295203	-1.052399	1
H	1.513221	1.339367	1.551430	1
H	3.079961	0.695667	0.889731	1
H	2.180311	-1.655853	1.042641	1
H	0.622541	-1.000933	1.723691	1
Es	-0.072944	0.466354	-0.561029	99
Es	0.036351	2.003049	-0.620860	99
Es	-0.262875	1.247378	-0.352315	99
Es	-0.108976	1.220957	-0.898090	99
Es	1.262066	-0.602572	0.356059	99
Es	0.892618	-0.945203	1.498429	99
Es	0.596448	0.199389	-0.365481	99
Es	2.009217	0.558707	0.985049	99
Es	-2.427245	-0.281347	-0.664518	99
Es	-2.783167	-0.919129	-0.817777	99
Es	-0.892388	-0.447110	-0.994347	99
Es	1.669450	-0.211929	-0.766675	99
Es	1.663303	0.429205	0.289436	99
Es	1.273362	-0.031634	-0.195000	99
Es	-0.648529	-0.079190	-0.577795	99
Es	2.726832	0.642344	0.916871	99
Es	-2.643343	0.246232	-1.146342	99
Es	1.948307	-1.399093	1.049491	99
Es	-0.795910	1.839107	-0.846176	99
Es	1.471037	-0.836833	1.069757	99
Es	-1.005923	-0.506556	-0.755944	99
Es	-0.842277	-1.065587	-0.571828	99
Es	-0.216765	1.734967	-0.671229	99
Es	1.809209	-0.165946	1.205923	99
Es	-1.608616	-0.394190	-0.712348	99
Es	-2.610311	-0.065539	0.023350	99
Es	1.676003	1.078905	1.368067	99
44
Properties=species:S:1:pos:R:3:Z:I:1 energy=-304.1219250186634 field_type=dipole dipole="0.000000 0.000000 0.000000" charge=0
C	-2.427419	-0.281313	-0.664499	6
N	-1.005979	-0.506733	-0.756579	7
C	-0.072889	0.466547	-0.561009	6
N	-0.216419	1.735357	-0.671159	7
C	1.273341	-0.031603	-0.195179	6
C	2.009301	0.558867	0.985141	6
C	1.471031	-0.836973	1.069860	6
H	-2.964019	-1.206513	-0.895469	1
H	-2.755859	0.481877	-1.377499	1
H	-2.702559	0.031087	0.347081	1
H	-0.717999	-1.439533	-0.478929	1
H	-1.172239	1.945887	-0.956849	1
H	1.885671	-0.295203	-1.052399	1
H	1.513221	1.339367	1.551430	1
H	3.079961	0.695667	0.889731	1
H	2.180311	-1.655853	1.042641	1
H	0.622541	-1.000933	1.723691	1
Es	0.596526	0.199383	-0.365344	99
Es	-2.427246	-0.281346	-0.664518	99
Es	1.273365	-0.031635	-0.195000	99
Es	1.261731	-0.602957	0.356129	99
Es	-0.216762	1.734993	-0.671231	99
Es	1.663695	0.429648	0.289200	99
Es	-2.610108	-0.065611	0.023259	99
Es	-0.647853	-0.078450	-0.579082	99
Es	1.809356	-0.166016	1.206140	99
Es	-1.608132	-0.394157	-0.711464	99
Es	1.471041	-0.836835	1.069757	99
Es	0.036503	2.003356	-0.620765	99
Es	-2.783087	-0.919297	-0.817723	99
Es	-0.893725	-0.447762	-0.993980	99
Es	-0.072943	0.466353	-0.561029	99
Es	0.893170	-0.944957	1.497959	99
Es	2.009215	0.558706	0.985050	99
Es	1.676294	1.079110	1.368167	99
Es	-0.263189	1.246108	-0.352481	99
Es	-1.005828	-0.506460	-0.755803	99
Es	-0.842494	-1.065799	-0.571966	99
Es	-2.643201	0.246424	-1.146350	99
Es	-0.109262	1.222197	-0.897904	99
Es	-0.795462	1.838846	-0.846317	99
Es	1.668995	-0.211924	-0.766376	99
Es	2.726182	0.642245	0.916674	99
Es	1.948151	-1.399427	1.049678	99
44
Properties=species:S:1:pos:R:3:Z:I:1 energy=-304.1219250186634 field_type=dipole dipole="0.000000 0.000000 0.000000" charge=0
C	-2.427419	-0.281313	-0.664499	6
N	-1.005979	-0.506733	-0.756579	7
C	-0.072889	0.466547	-0.561009	6
N	-0.216419	1.735357	-0.671159	7
C	1.273341	-0.031603	-0.195179	6
C	2.009301	0.558867	0.985141	6
C	1.471031	-0.836973	1.069860	6
H	-2.964019	-1.206513	-0.895469	1
H	-2.755859	0.481877	-1.377499	1
H	-2.702559	0.031087	0.347081	1
H	-0.717999	-1.439533	-0.478929	1
H	-1.172239	1.945887	-0.956849	1
H	1.885671	-0.295203	-1.052399	1
H	1.513221	1.339367	1.551430	1
H	3.079961	0.695667	0.889731	1
H	2.180311	-1.655853	1.042641	1
H	0.622541	-1.000933	1.723691	1
Es	-1.005889	-0.506527	-0.755940	99
Es	1.663919	0.429879	0.288991	99
Es	0.596540	0.199355	-0.365567	99
Es	-0.263639	1.247294	-0.352146	99
Es	1.668858	-0.211649	-0.765890	99
Es	-0.072944	0.466353	-0.561028	99
Es	-0.648726	-0.078576	-0.577790	99
Es	1.273364	-0.031635	-0.195004	99
Es	-0.842769	-1.066055	-0.572163	99
Es	-0.109514	1.221064	-0.897689	99
Es	-2.427248	-0.281346	-0.664518	99
Es	1.948020	-1.399670	1.049961	99
Es	0.893380	-0.944715	1.497639	99
Es	-0.794796	1.838186	-0.846274	99
Es	-1.608301	-0.394312	-0.712972	99
Es	1.261786	-0.603440	0.356052	99
Es	0.036554	2.004006	-0.621467	99
Es	2.725800	0.642108	0.916781	99
Es	-0.216761	1.735001	-0.671228	99
Es	1.809241	-0.166013	1.206384	99
Es	1.676439	1.079321	1.367886	99
Es	1.471041	-0.836840	1.069758	99
Es	2.009216	0.558710	0.985047	99
Es	-2.643173	0.246630	-1.146369	99
Es	-2.782943	-0.919518	-0.817558	99
Es	-2.609848	-0.065709	0.023101	99
Es	-0.892674	-0.447167	-0.993318	99
44
Properties=species:S:1:pos:R:3:Z:I:1 energy=-304.1219250186634 field_type=dipole dipole="0.000000 0.000000 0.000000" charge=0
C	-2.427419	-0.281313	-0.664499	6
N	-1.005979	-0.506733	-0.756579	7
C	-0.072889	0.466547	-0.561009	6
N	-0.216419	1.735357	-0.671159	7
C	1.273341	-0.031603	-0.195179	6
C	2.009301	0.558867	0.985141	6
C	1.471031	-0.836973	1.069860	6
H	-2.964019	-1.206513	-0.895469	1
H	-2.755859	0.481877	-1.377499	1
H	-2.702559	0.031087	0.347081	1
H	-0.717999	-1.439533	-0.478929	1
H	-1.172239	1.945887	-0.956849	1
H	1.885671	-0.295203	-1.052399	1
H	1.513221	1.339367	1.551430	1
H	3.079961	0.695667	0.889731	1
H	2.180311	-1.655853	1.042641	1
H	0.622541	-1.000933	1.723691	1
Es	-2.782884	-0.919664	-0.817584	99
Es	2.725317	0.641943	0.916692	99
Es	0.036110	2.004948	-0.621193	99
Es	-0.263434	1.245772	-0.352562	99
Es	1.273376	-0.031648	-0.194993	99
Es	-0.794608	1.837298	-0.846178	99
Es	-0.842800	-1.066239	-0.572297	99
Es	-1.608108	-0.394353	-0.712663	99
Es	1.261846	-0.603455	0.356214	99
Es	-0.893709	-0.447678	-0.992638	99
Es	1.809404	-0.166004	1.206868	99
Es	-2.643040	0.246773	-1.146309	99
Es	1.668706	-0.211568	-0.765575	99
Es	-2.427244	-0.281345	-0.664518	99
Es	-0.216773	1.734959	-0.671241	99
Es	-0.648290	-0.077859	-0.578940	99
Es	-0.072945	0.466353	-0.561024	99
Es	1.947866	-1.399938	1.049954	99
Es	0.893631	-0.944620	1.497244	99
Es	-1.005776	-0.506404	-0.755747	99
Es	-2.609641	-0.065776	0.023080	99
Es	0.596452	0.199235	-0.365597	99
Es	1.676657	1.079565	1.367907	99
Es	1.471040	-0.836837	1.069757	99
Es	-0.109410	1.222603	-0.897657	99
Es	1.663972	0.429969	0.288626	99
Es	2.009218	0.558708	0.985055	99
44
Properties=species:S:1:pos:R:3:Z:I:1 energy=-304.1219250186634 field_type=dipole dipole="0.000000 0.000000 0.000000" charge=0
C	-2.427419	-0.281313	-0.664499	6
N	-1.005979	-0.506733	-0.756579	7
C	-0.072889	0.466547	-0.561009	6
N	-0.216419	1.735357	-0.671159	7
C	1.273341	-0.031603	-0.195179	6
C	2.009301	0.558867	0.985141	6
C	1.471031	-0.836973	1.069860	6
H	-2.964019	-1.206513	-0.895469	1
H	-2.755859	0.481877	-1.377499	1
H	-2.702559	0.031087	0.347081	1
H	-0.717999	-1.439533	-0.478929	1
H	-1.172239	1.945887	-0.956849	1
H	1.885671	-0.295203	-1.052399	1
H	1.513221	1.339367	1.551430	1
H	3.079961	0.695667	0.889731	1
H	2.180311	-1.655853	1.042641	1
H	0.622541	-1.000933	1.723691	1
Es	-0.109389	1.221196	-0.897315	99
Es	-0.842971	-1.066434	-0.572417	99
Es	-0.216764	1.734984	-0.671229	99
Es	0.036033	2.005471	-0.621836	99
Es	1.668423	-0.211344	-0.765451	99
Es	1.809145	-0.166165	1.206637	99
Es	2.725005	0.641766	0.916620	99
Es	-2.427243	-0.281347	-0.664518	99
Es	1.261700	-0.603935	0.355983	99
Es	-0.263889	1.247287	-0.352143	99
Es	2.009216	0.558710	0.985049	99
Es	-2.609498	-0.065900	0.022859	99
Es	-1.608095	-0.394578	-0.713764	99
Es	1.676939	1.079756	1.367847	99
Es	1.273368	-0.031637	-0.194994	99
Es	-2.782835	-0.919766	-0.817406	99
Es	1.664339	0.430317	0.288855	99
Es	-0.892773	-0.447110	-0.992337	99
Es	0.893844	-0.944423	1.497148	99
Es	-0.794118	1.836651	-0.846415	99
Es	-1.005853	-0.506471	-0.755813	99
Es	1.947849	-1.400097	1.050152	99
Es	0.596536	0.199372	-0.365421	99
Es	-0.649118	-0.078073	-0.577799	99
Es	-0.072946	0.466353	-0.561023	99
Es	-2.643012	0.246993	-1.146344	99
Es	1.471039	-0.836838	1.069756	99
44
Properties=species:S:1:pos:R:3:Z:I:1 energy=-304.1219250186634 field_type=dipole dipole="0.000000 0.000000 0.000000" charge=0
C	-2.427419	-0.281313	-0.664499	6
N	-1.005979	-0.506733	-0.756579	7
C	-0.072889	0.466547	-0.561009	6
N	-0.216419	1.735357	-0.671159	7
C	1.273341	-0.031603	-0.195179	6
C	2.009301	0.558867	0.985141	6
C	1.471031	-0.836973	1.069860	6
H	-2.964019	-1.206513	-0.895469	1
H	-2.755859	0.481877	-1.377499	1
H	-2.702559	0.031087	0.347081	1
H	-0.717999	-1.439533	-0.478929	1
H	-1.172239	1.945887	-0.956849	1
H	1.885671	-0.295203	-1.052399	1
H	1.513221	1.339367	1.551430	1
H	3.079961	0.695667	0.889731	1
H	2.180311	-1.655853	1.042641	1
H	0.622541	-1.000933	1.723691	1
Es	0.036098	2.005100	-0.621711	99
Es	-2.642864	0.246972	-1.146369	99
Es	1.471039	-0.836839	1.069757	99
Es	-0.794266	1.837112	-0.846241	99
Es	2.009215	0.558705	0.985051	99
Es	-1.005909	-0.506536	-0.755901	99
Es	-0.893123	-0.447946	-0.990396	99
Es	0.596596	0.199302	-0.365543	99
Es	-1.608151	-0.394489	-0.714707	99
Es	0.894031	-0.944167	1.496983	99
Es	-2.609483	-0.065857	0.022963	99
Es	-0.263712	1.246620	-0.352125	99
Es	1.261509	-0.604333	0.355922	99
Es	-2.427246	-0.281346	-0.664518	99
Es	1.664359	0.430514	0.288978	99
Es	1.947619	-1.400251	1.050437	99
Es	-0.216767	1.734960	-0.671226	99
Es	-0.843372	-1.066397	-0.571797	99
Es	-0.648440	-0.077272	-0.579312	99
Es	1.668481	-0.211276	-0.765321	99
Es	2.724605	0.641713	0.916584	99
Es	1.809397	-0.166108	1.206507	99
Es	1.677037	1.079902	1.367843	99
Es	-2.782659	-0.919898	-0.817511	99
Es	-0.072945	0.466353	-0.561026	99
Es	-0.109480	1.221835	-0.897645	99
Es	1.273365	-0.031636	-0.194996	99
44
Properties=species:S:1:pos:R:3:Z:I:1 energy=-304.1219250186634 field_type=dipole dipole="0.000000 0.000000 0.000000" charge=0
C	-2.427419	-0.281313	-0.664499	6
N	-1.005979	-0.506733	-0.756579	7
C	-0.072889	0.466547	-0.561009	6
N	-0.216419	1.735357	-0.671159	7
C	1.273341	-0.031603	-0.195179	6
C	2.009301	0.558867	0.985141	6
C	1.471031	-0.836973	1.069860	6
H	-2.964019	-1.206513	-0.895469	1
H	-2.755859	0.481877	-1.377499	1
H	-2.702559	0.031087	0.347081	1
H	-0.717999	-1.439533	-0.478929	1
H	-1.172239	1.945887	-0.956849	1
H	1.885671	-0.295203	-1.052399	1
H	1.513221	1.339367	1.551430	1
H	3.079961	0.695667	0.889731	1
H	2.180311	-1.655853	1.042641	1
H	0.622541	-1.000933	1.723691	1
Es	-0.264208	1.246323	-0.352343	99
Es	1.273372	-0.031638	-0.194988	99
Es	1.809300	-0.166126	1.206433	99
Es	1.677155	1.080081	1.367789	99
Es	-0.216752	1.735002	-0.671231	99
Es	1.471037	-0.836838	1.069753	99
Es	-2.642883	0.247120	-1.146418	99
Es	-0.649516	-0.078051	-0.577183	99
Es	-0.793539	1.836548	-0.846162	99
Es	0.894170	-0.944102	1.496921	99
Es	0.596481	0.199648	-0.365490	99
Es	-0.843516	-1.066733	-0.572504	99
Es	2.009220	0.558712	0.985052	99
Es	-2.609338	-0.065938	0.022803	99
Es	2.724336	0.641568	0.916615	99
Es	1.947631	-1.400385	1.050406	99
Es	0.036175	2.005723	-0.621815	99
Es	-2.427244	-0.281345	-0.664515	99
Es	-0.109811	1.222029	-0.897517	99
Es	1.664692	0.430516	0.288707	99
Es	-2.782655	-0.919932	-0.817320	99
Es	1.261521	-0.604553	0.356150	99
Es	-1.608222	-0.394708	-0.715924	99
Es	1.668251	-0.211170	-0.765133	99
Es	-0.072944	0.466353	-0.561026	99
Es	-0.891957	-0.446931	-0.990603	99
Es	-1.005820	-0.506437	-0.755780	99
44
Properties=species:S:1:pos:R:3:Z:I:1 energy=-304.1219250186634 field_type=dipole dipole="0.000000 0.000000 0.000000" charge=0
C	-2.427419	-0.281313	-0.664499	6
N	-1.005979	-0.506733	-0.756579	7
C	-0.072889	0.466547	-0.561009	6
N	-0.216419	1.735357	-0.671159	7
C	1.273341	-0.031603	-0.195179	6
C	2.009301	0.558867	0.985141	6
C	1.471031	-0.836973	1.069860	6
H	-2.964019	-1.206513	-0.895469	1
H	-2.755859	0.481877	-1.377499	1
H	-2.702559	0.031087	0.347081	1
H	-0.717999	-1.439533	-0.478929	1
H	-1.172239	1.945887	-0.956849	1
H	1.885671	-0.295203	-1.052399	1
H	1.513221	1.339367	1.551430	1
H	3.079961	0.695667	0.889731	1
H	2.180311	-1.655853	1.042641	1
H	0.622541	-1.000933	1.723691	1
Es	-1.607965	-0.394584	-0.714754	99
Es	0.035368	2.006020	-0.621027	99
Es	2.009216	0.558706	0.985050	99
Es	-0.893515	-0.447949	-0.989585	99
Es	2.723961	0.641441	0.916535	99
Es	-0.793613	1.836321	-0.846018	99
Es	-2.782586	-0.920076	-0.817289	99
Es	1.668202	-0.211120	-0.764973	99
Es	-0.648451	-0.076964	-0.579515	99
Es	0.596535	0.199375	-0.365420	99
Es	1.273365	-0.031632	-0.195005	99
Es	1.471040	-0.836837	1.069759	99
Es	0.894365	-0.943923	1.496610	99
Es	-0.216759	1.734965	-0.671229	99
Es	-1.005812	-0.506442	-0.755803	99
Es	-2.427245	-0.281346	-0.664518	99
Es	1.261469	-0.604552	0.355876	99
Es	1.664608	0.430674	0.288650	99
Es	-0.263840	1.244695	-0.352666	99
Es	1.947397	-1.400567	1.050607	99
Es	-0.109206	1.223633	-0.898191	99
Es	1.677388	1.080217	1.367884	99
Es	-0.072945	0.466354	-0.561024	99
Es	-2.609354	-0.065955	0.022629	99
Es	1.809540	-0.166185	1.206798	99
Es	-0.843409	-1.066699	-0.572314	99
Es	-2.642821	0.247168	-1.146389	99
