44
Properties=species:S:1:pos:R:3:Z:I:1 energy=-304.0785988278846 field_type=dipole dipole="0.000000 0.000000 0.000000" charge=0
C	-2.419239	-0.403414	0.446569	6
N	-0.955349	-0.527893	0.470399	7
C	-0.612509	-1.958713	0.501399	6
N	-0.331709	0.191466	-0.503861	7
C	0.799371	0.689847	-0.117031	6
C	1.631651	1.496616	-1.031921	6
C	2.803851	1.990706	-0.620461	6
H	-2.706569	0.652766	0.497399	1
H	-2.870899	-0.898293	1.313389	1
H	-2.846879	-0.828744	-0.468401	1
H	-1.069889	-2.453084	1.365529	1
H	0.471051	-2.088824	0.599049	1
H	-0.934909	-2.469913	-0.412691	1
H	1.194951	0.539766	0.904809	1
H	1.247261	1.660766	-2.031770	1
H	3.185201	1.823457	0.381899	1
H	3.414621	2.583486	-1.294311	1
Es	1.074890	0.588975	0.570993	99
Es	2.345945	1.461941	-0.914307	99
Es	-0.955580	-0.528176	0.469703	99
Es	1.374175	1.607010	-1.701396	99
Es	1.631551	1.496558	-1.031899	99
Es	1.213748	1.091030	-0.579741	99
Es	0.799440	0.689854	-0.117077	99
Es	-1.592212	-0.487550	0.416460	99
Es	2.803944	1.990741	-0.620430	99
Es	3.062580	1.877670	0.056921	99
Es	-0.331470	0.191370	-0.503310	99
Es	-0.642776	-0.186837	-0.026552	99
Es	-2.419106	-0.403433	0.446586	99
Es	-0.495226	0.240742	-0.844815	99
Es	0.127933	-2.044384	0.565056	99
Es	0.042694	0.645632	-0.240647	99
Es	0.295268	0.163918	-0.423270	99
Es	-0.612541	-1.958575	0.501406	99
Es	-2.613714	0.315205	0.479509	99
Es	-2.714572	-0.701987	-0.182121	99
Es	-0.800649	-1.142466	0.439476	99
Es	-2.716229	-0.750176	1.037035	99
Es	-0.933479	-2.286666	1.087801	99
Es	-0.849804	-0.396673	0.781276	99
Es	3.222808	2.392315	-1.068745	99
Es	-0.838469	-2.311444	-0.127464	99
Es	2.051553	1.993777	-0.712417	99
44
Properties=species:S:1:pos:R:3:Z:I:1 energy=-304.0785988278846 field_type=dipole dipole="0.000000 0.000000 0.000000" charge=0
C	-2.419239	-0.403414	0.446569	6
N	-0.955349	-0.527893	0.470399	7
C	-0.612509	-1.958713	0.501399	6
N	-0.331709	0.191466	-0.503861	7
C	0.799371	0.689847	-0.117031	6
C	1.631651	1.496616	-1.031921	6
C	2.803851	1.990706	-0.620461	6
H	-2.706569	0.652766	0.497399	1
H	-2.870899	-0.898293	1.313389	1
H	-2.846879	-0.828744	-0.468401	1
H	-1.069889	-2.453084	1.365529	1
H	0.471051	-2.088824	0.599049	1
H	-0.934909	-2.469913	-0.412691	1
H	1.194951	0.539766	0.904809	1
H	1.247261	1.660766	-2.031770	1
H	3.185201	1.823457	0.381899	1
H	3.414621	2.583486	-1.294311	1
Es	-2.716390	-0.748144	1.036945	99
Es	-2.716213	-0.702316	-0.182970	99
Es	-0.840543	-2.310615	-0.126563	99
Es	0.043571	0.645444	-0.239079	99
Es	-0.851693	-0.404764	0.782922	99
Es	-0.801578	-1.137338	0.435791	99
Es	1.073882	0.589201	0.569902	99
Es	2.803945	1.990744	-0.620429	99
Es	0.295947	0.162245	-0.423592	99
Es	2.346655	1.460733	-0.915359	99
Es	0.131234	-2.044844	0.565632	99
Es	-0.955596	-0.528180	0.469704	99
Es	1.375643	1.606634	-1.698746	99
Es	-0.642424	-0.183163	-0.024185	99
Es	-0.934638	-2.284646	1.086191	99
Es	-0.612539	-1.958576	0.501406	99
Es	-2.419105	-0.403435	0.446585	99
Es	-0.490637	0.242333	-0.841832	99
Es	-0.331475	0.191356	-0.503283	99
Es	1.631552	1.496552	-1.031901	99
Es	2.051170	1.995122	-0.711980	99
Es	3.224573	2.394132	-1.068056	99
Es	3.060578	1.877874	0.054539	99
Es	-2.613973	0.311881	0.479841	99
Es	0.799444	0.689856	-0.117076	99
Es	1.213002	1.090346	-0.579650	99
Es	-1.593692	-0.490063	0.413271	99
44
Properties=species:S:1:pos:R:3:Z:I:1 energy=-304.0785988278846 field_type=dipole dipole="0.000000 0.000000 0.000000" charge=0
C	-2.419239	-0.403414	0.446569	6
N	-0.955349	-0.527893	0.470399	7
C	-0.612509	-1.958713	0.501399	6
N	-0.331709	0.191466	-0.503861	7
C	0.799371	0.689847	-0.117031	6
C	1.631651	1.496616	-1.031921	6
C	2.803851	1.990706	-0.620461	6
H	-2.706569	0.652766	0.497399	1
H	-2.870899	-0.898293	1.313389	1
H	-2.846879	-0.828744	-0.468401	1
H	-1.069889	-2.453084	1.365529	1
H	0.471051	-2.088824	0.599049	1
H	-0.934909	-2.469913	-0.412691	1
H	1.194951	0.539766	0.904809	1
H	1.247261	1.660766	-2.031770	1
H	3.185201	1.823457	0.381899	1
H	3.414621	2.583486	-1.294311	1
Es	0.799445	0.689857	-0.117075	99
Es	-0.842923	-2.310920	-0.126156	99
Es	1.377274	1.606462	-1.696633	99
Es	-0.802744	-1.130320	0.433271	99
Es	-2.419107	-0.403435	0.446585	99
Es	-0.331451	0.191368	-0.503287	99
Es	-1.594552	-0.494663	0.409809	99
Es	-2.717941	-0.703269	-0.183573	99
Es	2.347071	1.460210	-0.916003	99
Es	1.631550	1.496546	-1.031902	99
Es	-0.934131	-2.282194	1.084862	99
Es	-0.485609	0.242976	-0.839730	99
Es	2.803945	1.990745	-0.620427	99
Es	-2.715926	-0.745892	1.036922	99
Es	0.296201	0.161916	-0.422089	99
Es	-0.955612	-0.528203	0.469703	99
Es	0.133239	-2.044108	0.566302	99
Es	0.043682	0.644992	-0.238068	99
Es	-0.854415	-0.414045	0.781672	99
Es	1.072721	0.589005	0.568788	99
Es	3.058291	1.877712	0.052243	99
Es	3.226547	2.395574	-1.066636	99
Es	2.050758	1.995939	-0.711594	99
Es	-0.612539	-1.958581	0.501406	99
Es	-0.641828	-0.177480	-0.020549	99
Es	-2.613880	0.308255	0.479980	99
Es	1.212633	1.089921	-0.579793	99
44
Properties=species:S:1:pos:R:3:Z:I:1 energy=-304.0785988278846 field_type=dipole dipole="0.000000 0.000000 0.000000" charge=0
C	-2.419239	-0.403414	0.446569	6
N	-0.955349	-0.527893	0.470399	7
C	-0.612509	-1.958713	0.501399	6
N	-0.331709	0.191466	-0.503861	7
C	0.799371	0.689847	-0.117031	6
C	1.631651	1.496616	-1.031921	6
C	2.803851	1.990706	-0.620461	6
H	-2.706569	0.652766	0.497399	1
H	-2.870899	-0.898293	1.313389	1
H	-2.846879	-0.828744	-0.468401	1
H	-1.069889	-2.453084	1.365529	1
H	0.471051	-2.088824	0.599049	1
H	-0.934909	-2.469913	-0.412691	1
H	1.194951	0.539766	0.904809	1
H	1.247261	1.660766	-2.031770	1
H	3.185201	1.823457	0.381899	1
H	3.414621	2.583486	-1.294311	1
Es	0.296082	0.161867	-0.421547	99
Es	2.051052	1.996203	-0.711435	99
Es	1.211794	1.089463	-0.580594	99
Es	3.228457	2.396655	-1.064798	99
Es	0.044189	0.644265	-0.237254	99
Es	-2.719886	-0.704660	-0.183863	99
Es	0.799444	0.689858	-0.117075	99
Es	-2.714896	-0.743469	1.036419	99
Es	0.134375	-2.042564	0.566929	99
Es	2.346890	1.459883	-0.916335	99
Es	-0.641092	-0.171523	-0.014754	99
Es	-0.331446	0.191368	-0.503278	99
Es	-0.612542	-1.958578	0.501409	99
Es	2.803941	1.990752	-0.620425	99
Es	-0.481488	0.243705	-0.836708	99
Es	3.056085	1.877387	0.050134	99
Es	1.071814	0.588682	0.567895	99
Es	-2.613513	0.304382	0.480275	99
Es	-0.804981	-1.122364	0.431422	99
Es	-0.932880	-2.279707	1.083639	99
Es	-2.419105	-0.403436	0.446585	99
Es	1.631548	1.496548	-1.031901	99
Es	-0.856993	-0.423296	0.777141	99
Es	-0.845249	-2.311884	-0.125613	99
Es	-1.594326	-0.499893	0.406582	99
Es	-0.955634	-0.528193	0.469701	99
Es	1.379062	1.606919	-1.694524	99
44
Properties=species:S:1:pos:R:3:Z:I:1 energy=-304.0785988278846 field_type=dipole dipole="0.000000 0.000000 0.000000" charge=0
C	-2.419239	-0.403414	0.446569	6
N	-0.955349	-0.527893	0.470399	7
C	-0.612509	-1.958713	0.501399	6
N	-0.331709	0.191466	-0.503861	7
C	0.799371	0.689847	-0.117031	6
C	1.631651	1.496616	-1.031921	6
C	2.803851	1.990706	-0.620461	6
H	-2.706569	0.652766	0.497399	1
H	-2.870899	-0.898293	1.313389	1
H	-2.846879	-0.828744	-0.468401	1
H	-1.069889	-2.453084	1.365529	1
H	0.471051	-2.088824	0.599049	1
H	-0.934909	-2.469913	-0.412691	1
H	1.194951	0.539766	0.904809	1
H	1.247261	1.660766	-2.031770	1
H	3.185201	1.823457	0.381899	1
H	3.414621	2.583486	-1.294311	1
Es	0.799445	0.689858	-0.117075	99
Es	-1.593364	-0.505551	0.403854	99
Es	0.134947	-2.040886	0.567187	99
Es	2.346251	1.459994	-0.916355	99
Es	-2.721672	-0.706119	-0.183756	99
Es	-0.807432	-1.114450	0.431287	99
Es	0.295761	0.162237	-0.421003	99
Es	2.803945	1.990746	-0.620426	99
Es	-2.419107	-0.403436	0.446584	99
Es	1.071223	0.588376	0.567191	99
Es	-2.612869	0.300697	0.480500	99
Es	1.631549	1.496546	-1.031900	99
Es	-0.479424	0.244172	-0.835128	99
Es	-2.713735	-0.741243	1.035646	99
Es	-0.331445	0.191369	-0.503281	99
Es	-0.638557	-0.165494	-0.003971	99
Es	1.380281	1.607236	-1.692917	99
Es	3.054388	1.877001	0.048235	99
Es	-0.612538	-1.958581	0.501407	99
Es	-0.859928	-0.431770	0.767308	99
Es	2.051687	1.996194	-0.711560	99
Es	-0.848048	-2.312953	-0.124843	99
Es	3.230049	2.397319	-1.063083	99
Es	-0.955634	-0.528201	0.469702	99
Es	0.044617	0.643472	-0.236641	99
Es	-0.930937	-2.277336	1.082316	99
Es	1.211251	1.089171	-0.581248	99
44
Properties=species:S:1:pos:R:3:Z:I:1 energy=-304.0785988278846 field_type=dipole dipole="0.000000 0.000000 0.000000" charge=0
C	-2.419239	-0.403414	0.446569	6
N	-0.955349	-0.527893	0.470399	7
C	-0.612509	-1.958713	0.501399	6
N	-0.331709	0.191466	-0.503861	7
C	0.799371	0.689847	-0.117031	6
C	1.631651	1.496616	-1.031921	6
C	2.803851	1.990706	-0.620461	6
H	-2.706569	0.652766	0.497399	1
H	-2.870899	-0.898293	1.313389	1
H	-2.846879	-0.828744	-0.468401	1
H	-1.069889	-2.453084	1.365529	1
H	0.471051	-2.088824	0.599049	1
H	-0.934909	-2.469913	-0.412691	1
H	1.194951	0.539766	0.904809	1
H	1.247261	1.660766	-2.031770	1
H	3.185201	1.823457	0.381899	1
H	3.414621	2.583486	-1.294311	1
Es	-0.861680	-0.437877	0.757382	99
Es	-0.955621	-0.528211	0.469681	99
Es	-0.612543	-1.958574	0.501407	99
Es	-2.419107	-0.403436	0.446582	99
Es	0.045337	0.642527	-0.235997	99
Es	3.053411	1.876622	0.046978	99
Es	-0.331434	0.191369	-0.503274	99
Es	2.803945	1.990749	-0.620428	99
Es	-0.850855	-2.314329	-0.123377	99
Es	1.381005	1.607602	-1.691847	99
Es	1.070865	0.587920	0.566631	99
Es	-0.637406	-0.161408	0.006125	99
Es	-2.611943	0.297248	0.480478	99
Es	2.052694	1.995806	-0.711862	99
Es	-1.591908	-0.510756	0.401681	99
Es	0.295266	0.162675	-0.421209	99
Es	-0.810211	-1.107185	0.431244	99
Es	1.631546	1.496548	-1.031900	99
Es	3.231030	2.397683	-1.061920	99
Es	-0.477786	0.244905	-0.833153	99
Es	-0.928735	-2.274980	1.080702	99
Es	-2.712969	-0.739441	1.035101	99
Es	2.345243	1.460424	-0.916121	99
Es	-2.723056	-0.707143	-0.183493	99
Es	1.210935	1.089102	-0.581597	99
Es	0.135232	-2.039327	0.567291	99
Es	0.799445	0.689858	-0.117075	99
44
Properties=species:S:1:pos:R:3:Z:I:1 energy=-304.0785988278846 field_type=dipole dipole="0.000000 0.000000 0.000000" charge=0
C	-2.419239	-0.403414	0.446569	6
N	-0.955349	-0.527893	0.470399	7
C	-0.612509	-1.958713	0.501399	6
N	-0.331709	0.191466	-0.503861	7
C	0.799371	0.689847	-0.117031	6
C	1.631651	1.496616	-1.031921	6
C	2.803851	1.990706	-0.620461	6
H	-2.706569	0.652766	0.497399	1
H	-2.870899	-0.898293	1.313389	1
H	-2.846879	-0.828744	-0.468401	1
H	-1.069889	-2.453084	1.365529	1
H	0.471051	-2.088824	0.599049	1
H	-0.934909	-2.469913	-0.412691	1
H	1.194951	0.539766	0.904809	1
H	1.247261	1.660766	-2.031770	1
H	3.185201	1.823457	0.381899	1
H	3.414621	2.583486	-1.294311	1
Es	1.210561	1.088978	-0.582133	99
Es	-1.590640	-0.514513	0.400345	99
Es	2.343866	1.461236	-0.915678	99
Es	3.232062	2.397950	-1.060598	99
Es	-2.419112	-0.403432	0.446584	99
Es	-0.853348	-2.315433	-0.121792	99
Es	-0.955654	-0.528189	0.469645	99
Es	0.135331	-2.037661	0.567348	99
Es	-0.477230	0.245228	-0.832773	99
Es	-0.926717	-2.273048	1.078982	99
Es	-2.712465	-0.738336	1.034641	99
Es	3.052432	1.876195	0.045637	99
Es	-2.610998	0.294115	0.480545	99
Es	-0.612538	-1.958582	0.501406	99
Es	-0.635975	-0.158658	0.016086	99
Es	0.044928	0.641898	-0.236283	99
Es	2.803943	1.990750	-0.620427	99
Es	-0.331450	0.191363	-0.503274	99
Es	-0.862707	-0.442169	0.747844	99
Es	0.799444	0.689860	-0.117075	99
Es	1.381718	1.607939	-1.690797	99
Es	-2.723996	-0.707636	-0.183371	99
Es	2.054043	1.995104	-0.712422	99
Es	0.295669	0.163154	-0.420356	99
Es	1.070570	0.587610	0.566195	99
Es	-0.812583	-1.101906	0.431647	99
Es	1.631547	1.496550	-1.031900	99
44
Properties=species:S:1:pos:R:3:Z:I:1 energy=-304.0785988278846 field_type=dipole dipole="0.000000 0.000000 0.000000" charge=0
C	-2.419239	-0.403414	0.446569	6
N	-0.955349	-0.527893	0.470399	7
C	-0.612509	-1.958713	0.501399	6
N	-0.331709	0.191466	-0.503861	7
C	0.799371	0.689847	-0.117031	6
C	1.631651	1.496616	-1.031921	6
C	2.803851	1.990706	-0.620461	6
H	-2.706569	0.652766	0.497399	1
H	-2.870899	-0.898293	1.313389	1
H	-2.846879	-0.828744	-0.468401	1
H	-1.069889	-2.453084	1.365529	1
H	0.471051	-2.088824	0.599049	1
H	-0.934909	-2.469913	-0.412691	1
H	1.194951	0.539766	0.904809	1
H	1.247261	1.660766	-2.031770	1
H	3.185201	1.823457	0.381899	1
H	3.414621	2.583486	-1.294311	1
Es	0.045181	0.641327	-0.235935	99
Es	2.056486	1.993554	-0.713734	99
Es	0.799445	0.689860	-0.117075	99
Es	-0.634935	-0.156843	0.025228	99
Es	-0.925101	-2.271536	1.077361	99
Es	2.341417	1.462853	-0.914489	99
Es	-2.419109	-0.403435	0.446584	99
Es	-0.331434	0.191376	-0.503289	99
Es	-0.855388	-2.316208	-0.120192	99
Es	-2.712276	-0.737549	1.034436	99
Es	1.210425	1.088987	-0.582270	99
Es	1.382069	1.608208	-1.690036	99
Es	-0.476964	0.245775	-0.832118	99
Es	1.631543	1.496557	-1.031898	99
Es	-0.612539	-1.958580	0.501406	99
Es	-0.814561	-1.097704	0.432092	99
Es	-0.863492	-0.445255	0.738867	99
Es	-2.724580	-0.707867	-0.183294	99
Es	2.803944	1.990748	-0.620427	99
Es	0.295479	0.163493	-0.420435	99
Es	3.232714	2.398025	-1.059845	99
Es	-0.955675	-0.528196	0.469607	99
Es	3.051898	1.875902	0.044744	99
Es	1.070345	0.587290	0.565728	99
Es	-2.610124	0.291641	0.480447	99
Es	0.135355	-2.036390	0.567369	99
Es	-1.589423	-0.517663	0.399196	99
44
Properties=species:S:1:pos:R:3:Z:I:1 energy=-304.0785988278846 field_type=dipole dipole="0.000000 0.000000 0.000000" charge=0
C	-2.419239	-0.403414	0.446569	6
N	-0.955349	-0.527893	0.470399	7
C	-0.612509	-1.958713	0.501399	6
N	-0.331709	0.191466	-0.503861	7
C	0.799371	0.689847	-0.117031	6
C	1.631651	1.496616	-1.031921	6
C	2.803851	1.990706	-0.620461	6
H	-2.706569	0.652766	0.497399	1
H	-2.870899	-0.898293	1.313389	1
H	-2.846879	-0.828744	-0.468401	1
H	-1.069889	-2.453084	1.365529	1
H	0.471051	-2.088824	0.599049	1
H	-0.934909	-2.469913	-0.412691	1
H	1.194951	0.539766	0.904809	1
H	1.247261	1.660766	-2.031770	1
H	3.185201	1.823457	0.381899	1
H	3.414621	2.583486	-1.294311	1
Es	-2.725088	-0.708021	-0.183200	99
Es	1.382403	1.608436	-1.689180	99
Es	-0.955658	-0.528203	0.469603	99
Es	1.631547	1.496550	-1.031900	99
Es	-0.476786	0.246317	-0.831446	99
Es	-0.857412	-2.317112	-0.118376	99
Es	0.135285	-2.035275	0.567379	99
Es	2.337529	1.466131	-0.912420	99
Es	-0.634438	-0.155812	0.031384	99
Es	-0.815636	-1.095504	0.433094	99
Es	3.233241	2.398028	-1.059176	99
Es	-0.331434	0.191374	-0.503267	99
Es	-2.712016	-0.736996	1.034128	99
Es	0.045515	0.640903	-0.235571	99
Es	-2.609438	0.289702	0.480478	99
Es	2.803946	1.990746	-0.620428	99
Es	1.210145	1.088931	-0.582648	99
Es	1.070283	0.587044	0.565458	99
Es	0.799446	0.689858	-0.117076	99
Es	2.060417	1.990357	-0.716149	99
Es	3.051470	1.875656	0.044095	99
Es	-0.612540	-1.958581	0.501405	99
Es	-1.588632	-0.519694	0.398816	99
Es	0.295316	0.163575	-0.420736	99
Es	-2.419112	-0.403432	0.446584	99
Es	-0.923381	-2.270069	1.075588	99
Es	-0.864271	-0.446539	0.731591	99
44
Properties=species:S:1:pos:R:3:Z:I:1 energy=-304.0785988278846 field_type=dipole dipole="0.000000 0.000000 0.000000" charge=0
C	-2.419239	-0.403414	0.446569	6
N	-0.955349	-0.527893	0.470399	7
C	-0.612509	-1.958713	0.501399	6
N	-0.331709	0.191466	-0.503861	7
C	0.799371	0.689847	-0.117031	6
C	1.631651	1.496616	-1.031921	6
C	2.803851	1.990706	-0.620461	6
H	-2.706569	0.652766	0.497399	1
H	-2.870899	-0.898293	1.313389	1
H	-2.846879	-0.828744	-0.468401	1
H	-1.069889	-2.453084	1.365529	1
H	0.471051	-2.088824	0.599049	1
H	-0.934909	-2.469913	-0.412691	1
H	1.194951	0.539766	0.904809	1
H	1.247261	1.660766	-2.031770	1
H	3.185201	1.823457	0.381899	1
H	3.414621	2.583486	-1.294311	1
Es	-0.331428	0.191385	-0.503311	99
Es	1.631547	1.496551	-1.031901	99
Es	-2.608922	0.288217	0.480478	99
Es	-0.634481	-0.155088	0.035592	99
Es	-0.921329	-2.268365	1.073182	99
Es	-0.815894	-1.095205	0.433504	99
Es	2.803947	1.990748	-0.620428	99
Es	-2.725213	-0.707942	-0.183251	99
Es	3.233743	2.397988	-1.058563	99
Es	0.135200	-2.034356	0.567411	99
Es	-2.419113	-0.403431	0.446584	99
Es	-0.859774	-2.318286	-0.116010	99
Es	3.051061	1.875550	0.043370	99
Es	-0.955634	-0.528205	0.469710	99
Es	1.070078	0.586932	0.565091	99
Es	0.044942	0.640341	-0.236199	99
Es	1.210195	1.088888	-0.582682	99
Es	-0.476319	0.246536	-0.830650	99
Es	2.332118	1.471597	-0.909133	99
Es	-1.588507	-0.519938	0.398677	99
Es	-0.612541	-1.958578	0.501408	99
Es	1.382568	1.608540	-1.688692	99
Es	0.799445	0.689857	-0.117076	99
Es	0.295902	0.164029	-0.419932	99
Es	-0.864729	-0.447399	0.726294	99
Es	-2.711982	-0.736944	1.034106	99
Es	2.065819	1.984948	-0.719551	99
44
Properties=species:S:1:pos:R:3:Z:I:1 energy=-304.0785988278846 field_type=dipole dipole="0.000000 0.000000 0.000000" charge=0
C	-2.419239	-0.403414	0.446569	6
N	-0.955349	-0.527893	0.470399	7
C	-0.612509	-1.958713	0.501399	6
N	-0.331709	0.191466	-0.503861	7
C	0.799371	0.689847	-0.117031	6
C	1.631651	1.496616	-1.031921	6
C	2.803851	1.990706	-0.620461	6
H	-2.706569	0.652766	0.497399	1
H	-2.870899	-0.898293	1.313389	1
H	-2.846879	-0.828744	-0.468401	1
H	-1.069889	-2.453084	1.365529	1
H	0.471051	-2.088824	0.599049	1
H	-0.934909	-2.469913	-0.412691	1
H	1.194951	0.539766	0.904809	1
H	1.247261	1.660766	-2.031770	1
H	3.185201	1.823457	0.381899	1
H	3.414621	2.583486	-1.294311	1
Es	-0.612539	-1.958580	0.501406	99
Es	-1.588070	-0.521028	0.398529	99
Es	0.135216	-2.034222	0.567448	99
Es	-2.726133	-0.709111	-0.182324	99
Es	-0.475234	0.246397	-0.829197	99
Es	-0.955690	-0.528196	0.469598	99
Es	-2.419114	-0.403430	0.446584	99
Es	2.325570	1.479137	-0.905085	99
Es	1.382795	1.608611	-1.688079	99
Es	-0.920781	-2.267860	1.072406	99
Es	1.210233	1.088890	-0.582700	99
Es	-0.860428	-2.318621	-0.115213	99
Es	3.050716	1.875468	0.042750	99
Es	2.803945	1.990747	-0.620427	99
Es	-0.864466	-0.448505	0.724239	99
Es	1.631546	1.496545	-1.031901	99
Es	0.296615	0.165527	-0.418119	99
Es	2.072410	1.977422	-0.723821	99
Es	0.799445	0.689857	-0.117076	99
Es	3.234110	2.398019	-1.057922	99
Es	-0.331435	0.191371	-0.503277	99
Es	-0.635326	-0.154603	0.036566	99
Es	1.069771	0.586904	0.564632	99
Es	-0.816702	-1.093587	0.433276	99
Es	-2.608861	0.288071	0.480448	99
Es	-2.711112	-0.735698	1.033171	99
Es	0.044219	0.638843	-0.237882	99
44
Properties=species:S:1:pos:R:3:Z:I:1 energy=-304.0785988278846 field_type=dipole dipole="0.000000 0.000000 0.000000" charge=0
C	-2.419239	-0.403414	0.446569	6
N	-0.955349	-0.527893	0.470399	7
C	-0.612509	-1.958713	0.501399	6
N	-0.331709	0.191466	-0.503861	7
C	0.799371	0.689847	-0.117031	6
C	1.631651	1.496616	-1.031921	6
C	2.803851	1.990706	-0.620461	6
H	-2.706569	0.652766	0.497399	1
H	-2.870899	-0.898293	1.313389	1
H	-2.846879	-0.828744	-0.468401	1
H	-1.069889	-2.453084	1.365529	1
H	0.471051	-2.088824	0.599049	1
H	-0.934909	-2.469913	-0.412691	1
H	1.194951	0.539766	0.904809	1
H	1.247261	1.660766	-2.031770	1
H	3.185201	1.823457	0.381899	1
H	3.414621	2.583486	-1.294311	1
Es	1.382902	1.608743	-1.687488	99
Es	-0.612539	-1.958579	0.501408	99
Es	-0.475657	0.246837	-0.828560	99
Es	2.803945	1.990748	-0.620427	99
Es	-2.726098	-0.709164	-0.182264	99
Es	0.799446	0.689857	-0.117076	99
Es	-0.919108	-2.266693	1.070382	99
Es	0.046769	0.640547	-0.234481	99
Es	0.135204	-2.033924	0.567294	99
Es	-0.955632	-0.528133	0.469827	99
Es	-0.331436	0.191372	-0.503278	99
Es	3.234557	2.397939	-1.057323	99
Es	-1.588250	-0.520767	0.398855	99
Es	-0.817006	-1.093508	0.432606	99
Es	3.050423	1.875259	0.042073	99
Es	-2.419111	-0.403434	0.446582	99
Es	-0.864215	-0.449831	0.720762	99
Es	1.631547	1.496549	-1.031900	99
Es	0.294352	0.163581	-0.422219	99
Es	1.069733	0.586764	0.564521	99
Es	2.080054	1.967838	-0.728892	99
Es	2.317982	1.488751	-0.900302	99
Es	1.210071	1.088925	-0.582852	99
Es	-2.608805	0.288018	0.480244	99
Es	-0.635012	-0.154111	0.040231	99
Es	-2.711205	-0.735593	1.033318	99
Es	-0.862210	-2.319622	-0.113013	99
44
Properties=species:S:1:pos:R:3:Z:I:1 energy=-304.0785988278846 field_type=dipole dipole="0.000000 0.000000 0.000000" charge=0
C	-2.419239	-0.403414	0.446569	6
N	-0.955349	-0.527893	0.470399	7
C	-0.612509	-1.958713	0.501399	6
N	-0.331709	0.191466	-0.503861	7
C	0.799371	0.689847	-0.117031	6
C	1.631651	1.496616	-1.031921	6
C	2.803851	1.990706	-0.620461	6
H	-2.706569	0.652766	0.497399	1
H	-2.870899	-0.898293	1.313389	1
H	-2.846879	-0.828744	-0.468401	1
H	-1.069889	-2.453084	1.365529	1
H	0.471051	-2.088824	0.599049	1
H	-0.934909	-2.469913	-0.412691	1
H	1.194951	0.539766	0.904809	1
H	1.247261	1.660766	-2.031770	1
H	3.185201	1.823457	0.381899	1
H	3.414621	2.583486	-1.294311	1
Es	-0.862888	-2.320135	-0.112134	99
Es	1.069573	0.586913	0.564279	99
Es	3.234810	2.398008	-1.056850	99
Es	-0.612541	-1.958576	0.501407	99
Es	-0.918425	-2.266153	1.069418	99
Es	-0.817619	-1.092172	0.433100	99
Es	-2.608513	0.287215	0.480308	99
Es	-0.955643	-0.528202	0.469675	99
Es	0.044693	0.633352	-0.241727	99
Es	-1.587719	-0.521947	0.398484	99
Es	0.799445	0.689857	-0.117076	99
Es	-2.710878	-0.735157	1.032896	99
Es	0.296217	0.170812	-0.414099	99
Es	-0.864513	-0.449762	0.718874	99
Es	-2.726471	-0.709510	-0.181994	99
Es	-0.331432	0.191379	-0.503293	99
Es	1.631546	1.496552	-1.031899	99
Es	3.050018	1.875509	0.041625	99
Es	2.318477	1.488014	-0.900497	99
Es	0.135139	-2.033596	0.567315	99
Es	-0.635260	-0.153884	0.041530	99
Es	1.209755	1.088936	-0.583431	99
Es	1.383450	1.608515	-1.686887	99
Es	-0.474864	0.246464	-0.828557	99
Es	2.803945	1.990747	-0.620427	99
Es	2.079517	1.968615	-0.728596	99
Es	-2.419121	-0.403423	0.446584	99
44
Properties=species:S:1:pos:R:3:Z:I:1 energy=-304.0785988278846 field_type=dipole dipole="0.000000 0.000000 0.000000" charge=0
C	-2.419239	-0.403414	0.446569	6
N	-0.955349	-0.527893	0.470399	7
C	-0.612509	-1.958713	0.501399	6
N	-0.331709	0.191466	-0.503861	7
C	0.799371	0.689847	-0.117031	6
C	1.631651	1.496616	-1.031921	6
C	2.803851	1.990706	-0.620461	6
H	-2.706569	0.652766	0.497399	1
H	-2.870899	-0.898293	1.313389	1
H	-2.846879	-0.828744	-0.468401	1
H	-1.069889	-2.453084	1.365529	1
H	0.471051	-2.088824	0.599049	1
H	-0.934909	-2.469913	-0.412691	1
H	1.194951	0.539766	0.904809	1
H	1.247261	1.660766	-2.031770	1
H	3.185201	1.823457	0.381899	1
H	3.414621	2.583486	-1.294311	1
Es	-0.635402	-0.153698	0.042543	99
Es	0.044240	0.636150	-0.239898	99
Es	0.799446	0.689857	-0.117076	99
Es	2.086593	1.959226	-0.733327	99
Es	-0.955624	-0.528189	0.469725	99
Es	-2.419109	-0.403435	0.446587	99
Es	-1.588051	-0.521220	0.398800	99
Es	2.311422	1.497428	-0.895924	99
Es	3.235128	2.397962	-1.056348	99
Es	1.209985	1.088893	-0.583195	99
Es	3.049768	1.875445	0.041077	99
Es	-0.331439	0.191366	-0.503269	99
Es	-2.726520	-0.709376	-0.182065	99
Es	2.803945	1.990747	-0.620427	99
Es	-0.817235	-1.093141	0.433198	99
Es	0.135083	-2.033240	0.567318	99
Es	1.383434	1.608564	-1.686646	99
Es	1.631547	1.496549	-1.031900	99
Es	-0.917198	-2.265175	1.067681	99
Es	-0.864225	-2.320973	-0.110368	99
Es	-0.612539	-1.958580	0.501406	99
Es	-0.864672	-0.449908	0.716919	99
Es	0.296673	0.168074	-0.416015	99
Es	-2.608448	0.286985	0.480427	99
Es	-2.710847	-0.735239	1.032869	99
Es	-0.474588	0.246407	-0.828039	99
Es	1.069332	0.586894	0.563974	99
