42
Properties=species:S:1:pos:R:3:Z:I:1 energy=-286.8890621580493 field_type=dipole dipole="0.000000 0.000000 0.000000" charge=0
N	-1.967820	0.489302	-0.353461	7
C	-0.514080	0.482712	-0.495311	6
C	0.087390	1.520172	0.478019	6
C	1.155070	0.455122	0.818149	6
C	0.106690	-0.620198	0.414269	6
C	0.635880	-1.780848	-0.274421	6
C	1.073040	-2.745078	-0.838901	6
H	-2.417250	-0.312738	-0.795641	1
H	-2.412160	1.313682	-0.756091	1
H	-0.137360	0.537402	-1.522291	1
H	-0.536670	1.791392	1.338869	1
H	0.469380	2.435762	0.018189	1
H	2.041440	0.505012	0.173519	1
H	1.479320	0.433802	1.862289	1
H	-0.524980	-0.901698	1.269769	1
H	1.462110	-3.603798	-1.336961	1
Es	-0.235681	-0.159643	-0.088249	99
Es	1.008416	-2.385336	-0.258497	99
Es	-2.217184	0.986901	-0.621951	99
Es	0.379061	-1.234092	0.057637	99
Es	0.684213	-0.174087	0.637556	99
Es	1.073135	-2.745271	-0.839029	99
Es	0.106774	-0.620246	0.414182	99
Es	0.672567	1.051624	0.689105	99
Es	0.087434	1.520117	0.477998	99
Es	-0.245821	0.515524	-1.192567	99
Es	-0.514210	0.482683	-0.495234	99
Es	1.045567	-2.057368	-0.789054	99
Es	-0.314675	-0.812052	0.974483	99
Es	-1.350164	0.484467	-0.469623	99
Es	1.154991	0.455101	0.818121	99
Es	1.327678	-3.305480	-1.165556	99
Es	1.747639	0.484841	0.368941	99
Es	-1.967729	0.489308	-0.353976	99
Es	-2.223476	0.007480	-0.645568	99
Es	0.635792	-1.780651	-0.274315	99
Es	0.348281	2.153293	0.161234	99
Es	-0.341815	1.690024	1.057395	99
Es	-2.038535	0.480729	-0.014992	99
Es	-0.255331	1.068292	-0.047225	99
Es	1.379777	0.435987	1.533982	99
Es	0.525646	-2.377501	-0.651500	99
42
Properties=species:S:1:pos:R:3:Z:I:1 energy=-286.8890621580493 field_type=dipole dipole="0.000000 0.000000 0.000000" charge=0
N	-1.967820	0.489302	-0.353461	7
C	-0.514080	0.482712	-0.495311	6
C	0.087390	1.520172	0.478019	6
C	1.155070	0.455122	0.818149	6
C	0.106690	-0.620198	0.414269	6
C	0.635880	-1.780848	-0.274421	6
C	1.073040	-2.745078	-0.838901	6
H	-2.417250	-0.312738	-0.795641	1
H	-2.412160	1.313682	-0.756091	1
H	-0.137360	0.537402	-1.522291	1
H	-0.536670	1.791392	1.338869	1
H	0.469380	2.435762	0.018189	1
H	2.041440	0.505012	0.173519	1
H	1.479320	0.433802	1.862289	1
H	-0.524980	-0.901698	1.269769	1
H	1.462110	-3.603798	-1.336961	1
Es	-1.967747	0.489292	-0.354027	99
Es	-0.254264	1.070159	-0.047429	99
Es	0.106777	-0.620248	0.414184	99
Es	1.083881	-2.064442	-0.748574	99
Es	0.635779	-1.780652	-0.274311	99
Es	1.327961	-3.307266	-1.166381	99
Es	-2.223758	0.006459	-0.647709	99
Es	-0.246774	0.514600	-1.192309	99
Es	0.348294	2.151273	0.161368	99
Es	0.087434	1.520116	0.477995	99
Es	-0.313721	-0.809365	0.973656	99
Es	0.671758	1.054102	0.688656	99
Es	1.154991	0.455101	0.818121	99
Es	0.682353	-0.174614	0.638007	99
Es	1.073137	-2.745279	-0.839035	99
Es	-2.220641	0.992643	-0.613631	99
Es	0.957898	-2.411588	-0.253835	99
Es	-0.235752	-0.159507	-0.086260	99
Es	-0.342802	1.691366	1.058948	99
Es	0.537936	-2.343884	-0.696469	99
Es	-1.351806	0.485398	-0.471515	99
Es	1.747841	0.484197	0.370094	99
Es	1.379705	0.435180	1.531869	99
Es	0.379994	-1.236066	0.056474	99
Es	-0.514206	0.482683	-0.495232	99
Es	-2.031918	0.474987	-0.019358	99
42
Properties=species:S:1:pos:R:3:Z:I:1 energy=-286.8890621580493 field_type=dipole dipole="0.000000 0.000000 0.000000" charge=0
N	-1.967820	0.489302	-0.353461	7
C	-0.514080	0.482712	-0.495311	6
C	0.087390	1.520172	0.478019	6
C	1.155070	0.455122	0.818149	6
C	0.106690	-0.620198	0.414269	6
C	0.635880	-1.780848	-0.274421	6
C	1.073040	-2.745078	-0.838901	6
H	-2.417250	-0.312738	-0.795641	1
H	-2.412160	1.313682	-0.756091	1
H	-0.137360	0.537402	-1.522291	1
H	-0.536670	1.791392	1.338869	1
H	0.469380	2.435762	0.018189	1
H	2.041440	0.505012	0.173519	1
H	1.479320	0.433802	1.862289	1
H	-0.524980	-0.901698	1.269769	1
H	1.462110	-3.603798	-1.336961	1
Es	0.106776	-0.620248	0.414183	99
Es	-0.343651	1.693306	1.059934	99
Es	1.050174	-2.061727	-0.778010	99
Es	1.379356	0.434355	1.529810	99
Es	0.635789	-1.780644	-0.274305	99
Es	0.380576	-1.237397	0.056110	99
Es	0.680827	-0.175040	0.638116	99
Es	0.087431	1.520118	0.477998	99
Es	0.993878	-2.390435	-0.260950	99
Es	-0.253716	1.071393	-0.047339	99
Es	1.327969	-3.307908	-1.166940	99
Es	0.348271	2.148825	0.161374	99
Es	-2.222969	0.005806	-0.649916	99
Es	-0.514204	0.482682	-0.495233	99
Es	0.671461	1.056070	0.689104	99
Es	-2.223907	0.997190	-0.605509	99
Es	-1.967718	0.489300	-0.354064	99
Es	-0.247403	0.514076	-1.192207	99
Es	-1.353316	0.486366	-0.472712	99
Es	-0.313002	-0.807752	0.973018	99
Es	-2.026656	0.469906	-0.024184	99
Es	-0.235869	-0.159647	-0.085127	99
Es	1.154990	0.455101	0.818121	99
Es	1.073142	-2.745286	-0.839033	99
Es	1.748209	0.483736	0.370935	99
Es	0.535912	-2.367505	-0.659871	99
42
Properties=species:S:1:pos:R:3:Z:I:1 energy=-286.8890621580493 field_type=dipole dipole="0.000000 0.000000 0.000000" charge=0
N	-1.967820	0.489302	-0.353461	7
C	-0.514080	0.482712	-0.495311	6
C	0.087390	1.520172	0.478019	6
C	1.155070	0.455122	0.818149	6
C	0.106690	-0.620198	0.414269	6
C	0.635880	-1.780848	-0.274421	6
C	1.073040	-2.745078	-0.838901	6
H	-2.417250	-0.312738	-0.795641	1
H	-2.412160	1.313682	-0.756091	1
H	-0.137360	0.537402	-1.522291	1
H	-0.536670	1.791392	1.338869	1
H	0.469380	2.435762	0.018189	1
H	2.041440	0.505012	0.173519	1
H	1.479320	0.433802	1.862289	1
H	-0.524980	-0.901698	1.269769	1
H	1.462110	-3.603798	-1.336961	1
Es	1.024509	-2.061298	-0.797377	99
Es	-1.354906	0.487146	-0.473544	99
Es	0.106775	-0.620246	0.414183	99
Es	-0.253664	1.072168	-0.047241	99
Es	-0.312443	-0.806816	0.972666	99
Es	1.154989	0.455102	0.818120	99
Es	-1.967718	0.489296	-0.354072	99
Es	-0.344223	1.695095	1.060580	99
Es	0.348085	2.146558	0.161566	99
Es	-0.514205	0.482683	-0.495231	99
Es	1.016524	-2.375913	-0.267526	99
Es	0.087430	1.520117	0.477998	99
Es	-2.221886	0.005220	-0.651949	99
Es	-2.021485	0.465308	-0.030912	99
Es	-2.227238	1.001295	-0.595988	99
Es	-0.247819	0.513916	-1.192295	99
Es	0.538875	-2.382431	-0.633912	99
Es	1.328084	-3.308095	-1.167342	99
Es	0.635783	-1.780648	-0.274302	99
Es	1.379004	0.433712	1.527861	99
Es	-0.235999	-0.160043	-0.084201	99
Es	1.748539	0.483471	0.371500	99
Es	0.381050	-1.238035	0.055839	99
Es	0.679863	-0.175286	0.638062	99
Es	0.671282	1.057652	0.689855	99
Es	1.073141	-2.745286	-0.839036	99
42
Properties=species:S:1:pos:R:3:Z:I:1 energy=-286.8890621580493 field_type=dipole dipole="0.000000 0.000000 0.000000" charge=0
N	-1.967820	0.489302	-0.353461	7
C	-0.514080	0.482712	-0.495311	6
C	0.087390	1.520172	0.478019	6
C	1.155070	0.455122	0.818149	6
C	0.106690	-0.620198	0.414269	6
C	0.635880	-1.780848	-0.274421	6
C	1.073040	-2.745078	-0.838901	6
H	-2.417250	-0.312738	-0.795641	1
H	-2.412160	1.313682	-0.756091	1
H	-0.137360	0.537402	-1.522291	1
H	-0.536670	1.791392	1.338869	1
H	0.469380	2.435762	0.018189	1
H	2.041440	0.505012	0.173519	1
H	1.479320	0.433802	1.862289	1
H	-0.524980	-0.901698	1.269769	1
H	1.462110	-3.603798	-1.336961	1
Es	0.638000	-2.479800	-0.395794	99
Es	-1.356384	0.488037	-0.473957	99
Es	-0.312420	-0.806033	0.972729	99
Es	0.635789	-1.780640	-0.274308	99
Es	0.347958	2.144046	0.161831	99
Es	-0.248076	0.513520	-1.192503	99
Es	0.106776	-0.620249	0.414183	99
Es	1.073144	-2.745285	-0.839038	99
Es	0.671147	1.058968	0.690803	99
Es	-2.220454	0.004738	-0.654124	99
Es	1.328211	-3.308052	-1.167784	99
Es	0.381557	-1.238438	0.055912	99
Es	-1.967718	0.489296	-0.354053	99
Es	-0.253968	1.072844	-0.047299	99
Es	0.775426	-2.125339	-0.874408	99
Es	0.087431	1.520118	0.477998	99
Es	-2.229595	1.003765	-0.587680	99
Es	-0.344487	1.697248	1.061027	99
Es	-2.017712	0.462134	-0.036716	99
Es	1.748653	0.483251	0.371817	99
Es	-0.235717	-0.159989	-0.083419	99
Es	0.678916	-0.175873	0.637831	99
Es	1.378816	0.433103	1.526082	99
Es	1.154992	0.455103	0.818120	99
Es	1.166274	-2.214509	-0.428716	99
Es	-0.514208	0.482677	-0.495234	99
42
Properties=species:S:1:pos:R:3:Z:I:1 energy=-286.8890621580493 field_type=dipole dipole="0.000000 0.000000 0.000000" charge=0
N	-1.967820	0.489302	-0.353461	7
C	-0.514080	0.482712	-0.495311	6
C	0.087390	1.520172	0.478019	6
C	1.155070	0.455122	0.818149	6
C	0.106690	-0.620198	0.414269	6
C	0.635880	-1.780848	-0.274421	6
C	1.073040	-2.745078	-0.838901	6
H	-2.417250	-0.312738	-0.795641	1
H	-2.412160	1.313682	-0.756091	1
H	-0.137360	0.537402	-1.522291	1
H	-0.536670	1.791392	1.338869	1
H	0.469380	2.435762	0.018189	1
H	2.041440	0.505012	0.173519	1
H	1.479320	0.433802	1.862289	1
H	-0.524980	-0.901698	1.269769	1
H	1.462110	-3.603798	-1.336961	1
Es	0.559940	-2.321076	-0.717743	99
Es	0.087435	1.520123	0.477994	99
Es	0.381718	-1.238596	0.055550	99
Es	1.095781	-2.071356	-0.727552	99
Es	-2.232059	1.006009	-0.577867	99
Es	-2.218507	0.003978	-0.656103	99
Es	-1.358090	0.488849	-0.473495	99
Es	-0.235906	-0.159647	-0.083008	99
Es	-2.014201	0.459585	-0.045056	99
Es	1.154987	0.455102	0.818119	99
Es	0.924272	-2.427348	-0.253125	99
Es	-0.344537	1.699186	1.061163	99
Es	1.748663	0.483164	0.372293	99
Es	0.678275	-0.176776	0.637432	99
Es	-0.248340	0.513286	-1.192617	99
Es	1.378599	0.432698	1.524585	99
Es	1.073148	-2.745284	-0.839036	99
Es	0.106777	-0.620249	0.414183	99
Es	-0.514203	0.482683	-0.495229	99
Es	-0.254469	1.073407	-0.047428	99
Es	-1.967716	0.489293	-0.354069	99
Es	0.671201	1.060024	0.691606	99
Es	-0.311850	-0.805468	0.972858	99
Es	0.347623	2.141792	0.162256	99
Es	1.328023	-3.308086	-1.168110	99
Es	0.635786	-1.780648	-0.274301	99
42
Properties=species:S:1:pos:R:3:Z:I:1 energy=-286.8890621580493 field_type=dipole dipole="0.000000 0.000000 0.000000" charge=0
N	-1.967820	0.489302	-0.353461	7
C	-0.514080	0.482712	-0.495311	6
C	0.087390	1.520172	0.478019	6
C	1.155070	0.455122	0.818149	6
C	0.106690	-0.620198	0.414269	6
C	0.635880	-1.780848	-0.274421	6
C	1.073040	-2.745078	-0.838901	6
H	-2.417250	-0.312738	-0.795641	1
H	-2.412160	1.313682	-0.756091	1
H	-0.137360	0.537402	-1.522291	1
H	-0.536670	1.791392	1.338869	1
H	0.469380	2.435762	0.018189	1
H	2.041440	0.505012	0.173519	1
H	1.479320	0.433802	1.862289	1
H	-0.524980	-0.901698	1.269769	1
H	1.462110	-3.603798	-1.336961	1
Es	-0.248427	0.513055	-1.192760	99
Es	0.671207	1.060864	0.692894	99
Es	-0.235568	-0.159615	-0.082617	99
Es	-2.217320	0.003354	-0.657124	99
Es	-2.234123	1.007220	-0.568526	99
Es	0.635788	-1.780640	-0.274306	99
Es	-0.254828	1.073807	-0.047408	99
Es	-0.344624	1.700757	1.061212	99
Es	0.550351	-2.391428	-0.612103	99
Es	0.381770	-1.238867	0.055604	99
Es	-1.359455	0.489403	-0.473867	99
Es	1.154987	0.455101	0.818117	99
Es	0.087430	1.520118	0.477999	99
Es	1.378210	0.432159	1.522871	99
Es	-1.967733	0.489264	-0.354036	99
Es	-2.010890	0.458251	-0.053089	99
Es	-0.514204	0.482682	-0.495230	99
Es	1.029750	-2.366893	-0.272062	99
Es	1.073116	-2.745290	-0.839044	99
Es	1.328064	-3.308118	-1.168180	99
Es	0.347351	2.139967	0.162595	99
Es	0.677634	-0.177073	0.637182	99
Es	1.000114	-2.061244	-0.814444	99
Es	-0.312019	-0.804955	0.973081	99
Es	0.106781	-0.620248	0.414183	99
Es	1.748988	0.483008	0.372358	99
42
Properties=species:S:1:pos:R:3:Z:I:1 energy=-286.8890621580493 field_type=dipole dipole="0.000000 0.000000 0.000000" charge=0
N	-1.967820	0.489302	-0.353461	7
C	-0.514080	0.482712	-0.495311	6
C	0.087390	1.520172	0.478019	6
C	1.155070	0.455122	0.818149	6
C	0.106690	-0.620198	0.414269	6
C	0.635880	-1.780848	-0.274421	6
C	1.073040	-2.745078	-0.838901	6
H	-2.417250	-0.312738	-0.795641	1
H	-2.412160	1.313682	-0.756091	1
H	-0.137360	0.537402	-1.522291	1
H	-0.536670	1.791392	1.338869	1
H	0.469380	2.435762	0.018189	1
H	2.041440	0.505012	0.173519	1
H	1.479320	0.433802	1.862289	1
H	-0.524980	-0.901698	1.269769	1
H	1.462110	-3.603798	-1.336961	1
Es	-0.344585	1.702287	1.061073	99
Es	-2.009158	0.457182	-0.058174	99
Es	1.748863	0.483000	0.372634	99
Es	-0.514203	0.482683	-0.495230	99
Es	0.087430	1.520120	0.478000	99
Es	-0.255626	1.074337	-0.047354	99
Es	0.963434	-2.408293	-0.253732	99
Es	0.635788	-1.780641	-0.274306	99
Es	0.347036	2.138276	0.162954	99
Es	-0.311551	-0.804614	0.973395	99
Es	0.677279	-0.177625	0.636576	99
Es	1.073142	-2.745287	-0.839040	99
Es	-0.248593	0.512946	-1.192794	99
Es	0.106781	-0.620250	0.414184	99
Es	0.381997	-1.238874	0.055518	99
Es	1.328068	-3.308077	-1.168356	99
Es	1.378078	0.431787	1.521749	99
Es	-2.235110	1.007879	-0.562190	99
Es	-0.235782	-0.159468	-0.082429	99
Es	0.671313	1.061449	0.693760	99
Es	1.061424	-2.064862	-0.763789	99
Es	0.555284	-2.346547	-0.680897	99
Es	-2.215284	0.003093	-0.658860	99
Es	1.154985	0.455101	0.818120	99
Es	-1.360943	0.489740	-0.473462	99
Es	-1.967716	0.489299	-0.354053	99
42
Properties=species:S:1:pos:R:3:Z:I:1 energy=-286.8890621580493 field_type=dipole dipole="0.000000 0.000000 0.000000" charge=0
N	-1.967820	0.489302	-0.353461	7
C	-0.514080	0.482712	-0.495311	6
C	0.087390	1.520172	0.478019	6
C	1.155070	0.455122	0.818149	6
C	0.106690	-0.620198	0.414269	6
C	0.635880	-1.780848	-0.274421	6
C	1.073040	-2.745078	-0.838901	6
H	-2.417250	-0.312738	-0.795641	1
H	-2.412160	1.313682	-0.756091	1
H	-0.137360	0.537402	-1.522291	1
H	-0.536670	1.791392	1.338869	1
H	0.469380	2.435762	0.018189	1
H	2.041440	0.505012	0.173519	1
H	1.479320	0.433802	1.862289	1
H	-0.524980	-0.901698	1.269769	1
H	1.462110	-3.603798	-1.336961	1
Es	0.557307	-2.392442	-0.606151	99
Es	-0.248625	0.512825	-1.192944	99
Es	-1.967718	0.489303	-0.353962	99
Es	1.154989	0.455102	0.818119	99
Es	0.991141	-2.061130	-0.820753	99
Es	-0.344534	1.703409	1.061021	99
Es	1.073138	-2.745294	-0.839031	99
Es	-2.007752	0.457005	-0.065622	99
Es	0.346823	2.136978	0.163311	99
Es	-0.514201	0.482683	-0.495227	99
Es	0.087431	1.520120	0.477999	99
Es	0.381976	-1.239057	0.055582	99
Es	0.676854	-0.177742	0.636506	99
Es	-0.311620	-0.804225	0.973695	99
Es	-1.361205	0.490079	-0.472958	99
Es	1.031673	-2.365963	-0.271791	99
Es	0.671318	1.062057	0.694819	99
Es	-2.236371	1.008068	-0.554729	99
Es	0.106775	-0.620249	0.414181	99
Es	1.328170	-3.308089	-1.168324	99
Es	-2.214365	0.002646	-0.659448	99
Es	0.635792	-1.780639	-0.274308	99
Es	-0.235613	-0.159612	-0.082097	99
Es	1.377693	0.431605	1.520275	99
Es	-0.255946	1.074413	-0.047424	99
Es	1.749223	0.482790	0.372565	99
42
Properties=species:S:1:pos:R:3:Z:I:1 energy=-286.8890621580493 field_type=dipole dipole="0.000000 0.000000 0.000000" charge=0
N	-1.967820	0.489302	-0.353461	7
C	-0.514080	0.482712	-0.495311	6
C	0.087390	1.520172	0.478019	6
C	1.155070	0.455122	0.818149	6
C	0.106690	-0.620198	0.414269	6
C	0.635880	-1.780848	-0.274421	6
C	1.073040	-2.745078	-0.838901	6
H	-2.417250	-0.312738	-0.795641	1
H	-2.412160	1.313682	-0.756091	1
H	-0.137360	0.537402	-1.522291	1
H	-0.536670	1.791392	1.338869	1
H	0.469380	2.435762	0.018189	1
H	2.041440	0.505012	0.173519	1
H	1.479320	0.433802	1.862289	1
H	-0.524980	-0.901698	1.269769	1
H	1.462110	-3.603798	-1.336961	1
Es	0.635795	-1.780643	-0.274296	99
Es	-0.514200	0.482683	-0.495226	99
Es	-1.967722	0.489292	-0.354040	99
Es	0.676275	-0.178303	0.636140	99
Es	0.671275	1.062199	0.695030	99
Es	0.106778	-0.620251	0.414183	99
Es	1.154986	0.455101	0.818118	99
Es	-2.211167	0.002344	-0.661453	99
Es	0.087428	1.520118	0.477998	99
Es	0.788578	-2.117328	-0.876920	99
Es	-2.007098	0.456483	-0.065827	99
Es	0.346574	2.135479	0.163837	99
Es	1.073143	-2.745287	-0.839040	99
Es	1.749140	0.482567	0.372413	99
Es	1.328501	-3.308015	-1.168253	99
Es	-1.363510	0.490530	-0.472064	99
Es	0.636621	-2.477872	-0.400246	99
Es	1.377722	0.431434	1.519996	99
Es	-0.248723	0.512625	-1.193164	99
Es	-0.311247	-0.803933	0.974146	99
Es	-0.235715	-0.159006	-0.081861	99
Es	0.382411	-1.239124	0.055820	99
Es	1.154326	-2.224328	-0.421985	99
Es	-0.344369	1.704740	1.060836	99
Es	-0.256997	1.074951	-0.047475	99
Es	-2.236453	1.008187	-0.553367	99
42
Properties=species:S:1:pos:R:3:Z:I:1 energy=-286.8890621580493 field_type=dipole dipole="0.000000 0.000000 0.000000" charge=0
N	-1.967820	0.489302	-0.353461	7
C	-0.514080	0.482712	-0.495311	6
C	0.087390	1.520172	0.478019	6
C	1.155070	0.455122	0.818149	6
C	0.106690	-0.620198	0.414269	6
C	0.635880	-1.780848	-0.274421	6
C	1.073040	-2.745078	-0.838901	6
H	-2.417250	-0.312738	-0.795641	1
H	-2.412160	1.313682	-0.756091	1
H	-0.137360	0.537402	-1.522291	1
H	-0.536670	1.791392	1.338869	1
H	0.469380	2.435762	0.018189	1
H	2.041440	0.505012	0.173519	1
H	1.479320	0.433802	1.862289	1
H	-0.524980	-0.901698	1.269769	1
H	1.462110	-3.603798	-1.336961	1
Es	1.073142	-2.745288	-0.839039	99
Es	-0.311574	-0.803454	0.974650	99
Es	-1.364328	0.490785	-0.472629	99
Es	0.671581	1.062480	0.696343	99
Es	-1.967726	0.489287	-0.354081	99
Es	1.154985	0.455102	0.818117	99
Es	0.382171	-1.239163	0.055594	99
Es	-0.514200	0.482683	-0.495228	99
Es	0.566936	-2.422201	-0.550157	99
Es	-2.210662	0.001765	-0.661225	99
Es	0.106777	-0.620251	0.414183	99
Es	0.087429	1.520120	0.477997	99
Es	1.328346	-3.308054	-1.168343	99
Es	-2.237729	1.007956	-0.546159	99
Es	0.346428	2.134913	0.163825	99
Es	0.675795	-0.179121	0.635645	99
Es	-0.248728	0.512639	-1.193132	99
Es	-0.344403	1.705327	1.060714	99
Es	1.749249	0.482641	0.372641	99
Es	0.635788	-1.780641	-0.274304	99
Es	1.377356	0.431193	1.518365	99
Es	0.938165	-2.067199	-0.848974	99
Es	-0.235014	-0.158920	-0.081841	99
Es	1.074934	-2.330065	-0.299735	99
Es	-0.257324	1.075164	-0.047258	99
Es	-2.005045	0.456944	-0.072670	99
42
Properties=species:S:1:pos:R:3:Z:I:1 energy=-286.8890621580493 field_type=dipole dipole="0.000000 0.000000 0.000000" charge=0
N	-1.967820	0.489302	-0.353461	7
C	-0.514080	0.482712	-0.495311	6
C	0.087390	1.520172	0.478019	6
C	1.155070	0.455122	0.818149	6
C	0.106690	-0.620198	0.414269	6
C	0.635880	-1.780848	-0.274421	6
C	1.073040	-2.745078	-0.838901	6
H	-2.417250	-0.312738	-0.795641	1
H	-2.412160	1.313682	-0.756091	1
H	-0.137360	0.537402	-1.522291	1
H	-0.536670	1.791392	1.338869	1
H	0.469380	2.435762	0.018189	1
H	2.041440	0.505012	0.173519	1
H	1.479320	0.433802	1.862289	1
H	-0.524980	-0.901698	1.269769	1
H	1.462110	-3.603798	-1.336961	1
Es	0.635788	-1.780640	-0.274306	99
Es	1.328247	-3.308037	-1.168465	99
Es	-0.514203	0.482681	-0.495231	99
Es	-2.208893	0.001692	-0.662447	99
Es	1.377318	0.431174	1.518193	99
Es	-0.344185	1.706609	1.060392	99
Es	0.675833	-0.179036	0.635841	99
Es	0.671643	1.062771	0.696424	99
Es	-0.311079	-0.803518	0.974355	99
Es	-0.235489	-0.158874	-0.081869	99
Es	0.087429	1.520119	0.477999	99
Es	0.559204	-2.373427	-0.635817	99
Es	-0.248813	0.512621	-1.193008	99
Es	1.154988	0.455101	0.818118	99
Es	0.382123	-1.239116	0.055411	99
Es	1.018600	-2.060454	-0.801767	99
Es	-0.257510	1.075239	-0.047449	99
Es	-1.967728	0.489296	-0.354072	99
Es	-2.238112	1.007809	-0.540835	99
Es	-2.004873	0.456974	-0.078026	99
Es	1.749223	0.482515	0.372700	99
Es	1.073141	-2.745287	-0.839042	99
Es	-1.365523	0.490928	-0.471421	99
Es	0.346038	2.133505	0.164307	99
Es	0.106770	-0.620250	0.414180	99
Es	1.002412	-2.385753	-0.260866	99
42
Properties=species:S:1:pos:R:3:Z:I:1 energy=-286.8890621580493 field_type=dipole dipole="0.000000 0.000000 0.000000" charge=0
N	-1.967820	0.489302	-0.353461	7
C	-0.514080	0.482712	-0.495311	6
C	0.087390	1.520172	0.478019	6
C	1.155070	0.455122	0.818149	6
C	0.106690	-0.620198	0.414269	6
C	0.635880	-1.780848	-0.274421	6
C	1.073040	-2.745078	-0.838901	6
H	-2.417250	-0.312738	-0.795641	1
H	-2.412160	1.313682	-0.756091	1
H	-0.137360	0.537402	-1.522291	1
H	-0.536670	1.791392	1.338869	1
H	0.469380	2.435762	0.018189	1
H	2.041440	0.505012	0.173519	1
H	1.479320	0.433802	1.862289	1
H	-0.524980	-0.901698	1.269769	1
H	1.462110	-3.603798	-1.336961	1
Es	1.154980	0.455102	0.818114	99
Es	-0.248878	0.512604	-1.193076	99
Es	-2.238582	1.007469	-0.536957	99
Es	0.671802	1.063036	0.697279	99
Es	-2.208066	0.001370	-0.662631	99
Es	1.029107	-2.367659	-0.270789	99
Es	-2.004051	0.457476	-0.081880	99
Es	0.345877	2.133041	0.164489	99
Es	1.377023	0.431031	1.517163	99
Es	-1.967785	0.489262	-0.354052	99
Es	1.328285	-3.308034	-1.168464	99
Es	0.106778	-0.620251	0.414183	99
Es	0.382142	-1.239148	0.055419	99
Es	0.087427	1.520119	0.477999	99
Es	0.675575	-0.179380	0.635630	99
Es	-1.366058	0.491061	-0.471255	99
Es	0.988637	-2.060625	-0.822952	99
Es	-0.311225	-0.803346	0.974649	99
Es	0.635787	-1.780639	-0.274308	99
Es	0.562505	-2.391261	-0.604827	99
Es	-0.344197	1.706972	1.060314	99
Es	-0.257807	1.075347	-0.047422	99
Es	1.073142	-2.745281	-0.839051	99
Es	-0.235251	-0.158833	-0.081827	99
Es	1.749385	0.482527	0.372780	99
Es	-0.514204	0.482681	-0.495228	99
42
Properties=species:S:1:pos:R:3:Z:I:1 energy=-286.8890621580493 field_type=dipole dipole="0.000000 0.000000 0.000000" charge=0
N	-1.967820	0.489302	-0.353461	7
C	-0.514080	0.482712	-0.495311	6
C	0.087390	1.520172	0.478019	6
C	1.155070	0.455122	0.818149	6
C	0.106690	-0.620198	0.414269	6
C	0.635880	-1.780848	-0.274421	6
C	1.073040	-2.745078	-0.838901	6
H	-2.417250	-0.312738	-0.795641	1
H	-2.412160	1.313682	-0.756091	1
H	-0.137360	0.537402	-1.522291	1
H	-0.536670	1.791392	1.338869	1
H	0.469380	2.435762	0.018189	1
H	2.041440	0.505012	0.173519	1
H	1.479320	0.433802	1.862289	1
H	-0.524980	-0.901698	1.269769	1
H	1.462110	-3.603798	-1.336961	1
Es	0.345792	2.132213	0.164759	99
Es	-0.235378	-0.158287	-0.081884	99
Es	0.087423	1.520117	0.477996	99
Es	1.073143	-2.745286	-0.839043	99
Es	0.382409	-1.239047	0.055361	99
Es	-0.344051	1.707795	1.060129	99
Es	-1.967742	0.489267	-0.354081	99
Es	-0.249147	0.512683	-1.193128	99
Es	-0.514202	0.482682	-0.495229	99
Es	1.154984	0.455102	0.818118	99
Es	-2.238325	1.007720	-0.536859	99
Es	0.635784	-1.780640	-0.274308	99
Es	-0.310540	-0.803035	0.974994	99
Es	0.577809	-2.301062	-0.737353	99
Es	0.671805	1.062979	0.697149	99
Es	1.748949	0.482617	0.372970	99
Es	-0.258632	1.075774	-0.047466	99
Es	0.106777	-0.620250	0.414182	99
Es	-2.004451	0.456864	-0.081537	99
Es	-1.368920	0.491187	-0.469473	99
Es	0.898039	-2.440139	-0.251166	99
Es	1.104152	-2.078774	-0.709527	99
Es	0.675126	-0.180369	0.634856	99
Es	1.377234	0.430885	1.517357	99
Es	-2.204014	0.001501	-0.664765	99
Es	1.328328	-3.307853	-1.168753	99
42
Properties=species:S:1:pos:R:3:Z:I:1 energy=-286.8890621580493 field_type=dipole dipole="0.000000 0.000000 0.000000" charge=0
N	-1.967820	0.489302	-0.353461	7
C	-0.514080	0.482712	-0.495311	6
C	0.087390	1.520172	0.478019	6
C	1.155070	0.455122	0.818149	6
C	0.106690	-0.620198	0.414269	6
C	0.635880	-1.780848	-0.274421	6
C	1.073040	-2.745078	-0.838901	6
H	-2.417250	-0.312738	-0.795641	1
H	-2.412160	1.313682	-0.756091	1
H	-0.137360	0.537402	-1.522291	1
H	-0.536670	1.791392	1.338869	1
H	0.469380	2.435762	0.018189	1
H	2.041440	0.505012	0.173519	1
H	1.479320	0.433802	1.862289	1
H	-0.524980	-0.901698	1.269769	1
H	1.462110	-3.603798	-1.336961	1
Es	-0.343879	1.708066	1.060098	99
Es	-1.967709	0.489295	-0.354072	99
Es	0.712724	-2.157644	-0.866700	99
Es	0.635790	-1.780639	-0.274304	99
Es	0.087429	1.520119	0.478000	99
Es	1.073141	-2.745287	-0.839043	99
Es	-2.003024	0.457923	-0.087901	99
Es	0.711426	-2.485167	-0.326251	99
Es	0.675427	-0.179662	0.635046	99
Es	0.106780	-0.620251	0.414183	99
Es	-0.514200	0.482683	-0.495227	99
Es	-0.248840	0.512267	-1.193319	99
Es	-0.258312	1.075206	-0.047679	99
Es	-1.367726	0.491433	-0.470847	99
Es	0.671668	1.063503	0.697809	99
Es	0.345766	2.131906	0.164968	99
Es	1.377137	0.430865	1.516901	99
Es	1.328542	-3.307918	-1.168487	99
Es	-2.206070	0.001128	-0.663735	99
Es	1.749083	0.482655	0.372830	99
Es	1.155279	-2.176979	-0.505826	99
Es	0.382544	-1.239086	0.055512	99
Es	-0.310897	-0.803063	0.974879	99
Es	-0.235520	-0.158566	-0.081491	99
Es	-2.239195	1.006756	-0.530163	99
Es	1.154987	0.455102	0.818118	99
42
Properties=species:S:1:pos:R:3:Z:I:1 energy=-286.8890621580493 field_type=dipole dipole="0.000000 0.000000 0.000000" charge=0
N	-1.967820	0.489302	-0.353461	7
C	-0.514080	0.482712	-0.495311	6
C	0.087390	1.520172	0.478019	6
C	1.155070	0.455122	0.818149	6
C	0.106690	-0.620198	0.414269	6
C	0.635880	-1.780848	-0.274421	6
C	1.073040	-2.745078	-0.838901	6
H	-2.417250	-0.312738	-0.795641	1
H	-2.412160	1.313682	-0.756091	1
H	-0.137360	0.537402	-1.522291	1
H	-0.536670	1.791392	1.338869	1
H	0.469380	2.435762	0.018189	1
H	2.041440	0.505012	0.173519	1
H	1.479320	0.433802	1.862289	1
H	-0.524980	-0.901698	1.269769	1
H	1.462110	-3.603798	-1.336961	1
Es	-0.235627	-0.158433	-0.081752	99
Es	0.563760	-2.352180	-0.666776	99
Es	-0.249022	0.512558	-1.193096	99
Es	-1.967728	0.489275	-0.354084	99
Es	0.345213	2.130687	0.165372	99
Es	-2.239066	1.006931	-0.529502	99
Es	0.672199	1.063184	0.697753	99
Es	1.328362	-3.307965	-1.168572	99
Es	0.382262	-1.239146	0.055346	99
Es	-0.310331	-0.802897	0.975187	99
Es	1.749098	0.482456	0.373022	99
Es	1.045736	-2.062597	-0.778589	99
Es	-1.369259	0.491250	-0.469403	99
Es	0.087429	1.520120	0.477997	99
Es	-2.203415	0.001084	-0.664770	99
Es	0.675019	-0.180241	0.634757	99
Es	-0.514200	0.482682	-0.495227	99
Es	0.106778	-0.620250	0.414182	99
Es	1.073141	-2.745288	-0.839041	99
Es	0.635788	-1.780639	-0.274307	99
Es	-0.259115	1.076046	-0.047489	99
Es	1.376961	0.430843	1.516453	99
Es	-0.343842	1.709126	1.059682	99
Es	0.970711	-2.404959	-0.252915	99
Es	-2.003483	0.457892	-0.089046	99
Es	1.154983	0.455101	0.818117	99
42
Properties=species:S:1:pos:R:3:Z:I:1 energy=-286.8890621580493 field_type=dipole dipole="0.000000 0.000000 0.000000" charge=0
N	-1.967820	0.489302	-0.353461	7
C	-0.514080	0.482712	-0.495311	6
C	0.087390	1.520172	0.478019	6
C	1.155070	0.455122	0.818149	6
C	0.106690	-0.620198	0.414269	6
C	0.635880	-1.780848	-0.274421	6
C	1.073040	-2.745078	-0.838901	6
H	-2.417250	-0.312738	-0.795641	1
H	-2.412160	1.313682	-0.756091	1
H	-0.137360	0.537402	-1.522291	1
H	-0.536670	1.791392	1.338869	1
H	0.469380	2.435762	0.018189	1
H	2.041440	0.505012	0.173519	1
H	1.479320	0.433802	1.862289	1
H	-0.524980	-0.901698	1.269769	1
H	1.462110	-3.603798	-1.336961	1
Es	-1.967724	0.489303	-0.354074	99
Es	1.376854	0.430821	1.516225	99
Es	-2.203846	0.001144	-0.664822	99
Es	1.154985	0.455101	0.818118	99
Es	0.675378	-0.179683	0.635078	99
Es	-1.369132	0.491426	-0.469591	99
Es	1.328543	-3.307882	-1.168571	99
Es	-0.248913	0.512373	-1.193238	99
Es	-0.343671	1.709436	1.059654	99
Es	0.671959	1.063887	0.698237	99
Es	-0.258586	1.075219	-0.047705	99
Es	-0.310789	-0.803039	0.974805	99
Es	0.106778	-0.620247	0.414183	99
Es	0.087431	1.520120	0.477999	99
Es	-2.003161	0.458194	-0.092098	99
Es	1.749216	0.482599	0.373018	99
Es	-0.514200	0.482683	-0.495230	99
Es	0.345142	2.130357	0.165517	99
Es	1.073141	-2.745289	-0.839040	99
Es	1.151743	-2.189487	-0.487084	99
Es	0.635788	-1.780639	-0.274307	99
Es	0.382535	-1.239132	0.055501	99
Es	-0.235561	-0.158771	-0.081443	99
Es	-2.239361	1.006417	-0.526164	99
Es	0.695528	-2.485346	-0.338993	99
Es	0.732273	-2.144922	-0.872673	99
42
Properties=species:S:1:pos:R:3:Z:I:1 energy=-286.8890621580493 field_type=dipole dipole="0.000000 0.000000 0.000000" charge=0
N	-1.967820	0.489302	-0.353461	7
C	-0.514080	0.482712	-0.495311	6
C	0.087390	1.520172	0.478019	6
C	1.155070	0.455122	0.818149	6
C	0.106690	-0.620198	0.414269	6
C	0.635880	-1.780848	-0.274421	6
C	1.073040	-2.745078	-0.838901	6
H	-2.417250	-0.312738	-0.795641	1
H	-2.412160	1.313682	-0.756091	1
H	-0.137360	0.537402	-1.522291	1
H	-0.536670	1.791392	1.338869	1
H	0.469380	2.435762	0.018189	1
H	2.041440	0.505012	0.173519	1
H	1.479320	0.433802	1.862289	1
H	-0.524980	-0.901698	1.269769	1
H	1.462110	-3.603798	-1.336961	1
Es	1.154983	0.455102	0.818117	99
Es	1.749377	0.482486	0.373058	99
Es	-1.967715	0.489302	-0.353953	99
Es	-2.203798	0.000847	-0.664455	99
Es	0.106779	-0.620250	0.414183	99
Es	0.999929	-2.388233	-0.258003	99
Es	-2.003093	0.459025	-0.096505	99
Es	-0.310589	-0.802954	0.974784	99
Es	1.010195	-2.059611	-0.808812	99
Es	-0.259168	1.076035	-0.047523	99
Es	-2.239720	1.005933	-0.522590	99
Es	-0.249024	0.512457	-1.193090	99
Es	-0.343654	1.709996	1.059413	99
Es	-0.235493	-0.158513	-0.081638	99
Es	0.344979	2.129788	0.165677	99
Es	0.635789	-1.780639	-0.274306	99
Es	-0.514199	0.482682	-0.495226	99
Es	0.570013	-2.371810	-0.631656	99
Es	0.087429	1.520119	0.478000	99
Es	0.382178	-1.239239	0.055384	99
Es	0.672394	1.063414	0.698917	99
Es	1.073136	-2.745289	-0.839042	99
Es	1.376540	0.430732	1.515169	99
Es	0.675115	-0.180077	0.635196	99
Es	1.328439	-3.307960	-1.168531	99
Es	-1.368470	0.491300	-0.469268	99
42
Properties=species:S:1:pos:R:3:Z:I:1 energy=-286.8890621580493 field_type=dipole dipole="0.000000 0.000000 0.000000" charge=0
N	-1.967820	0.489302	-0.353461	7
C	-0.514080	0.482712	-0.495311	6
C	0.087390	1.520172	0.478019	6
C	1.155070	0.455122	0.818149	6
C	0.106690	-0.620198	0.414269	6
C	0.635880	-1.780848	-0.274421	6
C	1.073040	-2.745078	-0.838901	6
H	-2.417250	-0.312738	-0.795641	1
H	-2.412160	1.313682	-0.756091	1
H	-0.137360	0.537402	-1.522291	1
H	-0.536670	1.791392	1.338869	1
H	0.469380	2.435762	0.018189	1
H	2.041440	0.505012	0.173519	1
H	1.479320	0.433802	1.862289	1
H	-0.524980	-0.901698	1.269769	1
H	1.462110	-3.603798	-1.336961	1
Es	0.087430	1.520119	0.478000	99
Es	1.376810	0.430660	1.515875	99
Es	-2.239496	1.006351	-0.525502	99
Es	-0.249019	0.512308	-1.193372	99
Es	-0.310272	-0.802604	0.975603	99
Es	1.139574	-2.241569	-0.404311	99
Es	-0.343596	1.710273	1.059406	99
Es	0.635789	-1.780640	-0.274304	99
Es	-2.002758	0.457961	-0.092039	99
Es	0.674449	-0.180406	0.634548	99
Es	0.344864	2.129379	0.165929	99
Es	1.749232	0.482175	0.372712	99
Es	0.672128	1.063615	0.698402	99
Es	1.073145	-2.745287	-0.839040	99
Es	0.106776	-0.620248	0.414182	99
Es	0.382653	-1.239305	0.055818	99
Es	-2.200013	0.001238	-0.666307	99
Es	-0.259833	1.075988	-0.047646	99
Es	-0.235634	-0.158077	-0.081528	99
Es	1.328645	-3.307961	-1.168398	99
Es	-1.371685	0.491545	-0.468773	99
Es	0.627887	-2.473470	-0.415211	99
Es	-0.514201	0.482682	-0.495228	99
Es	0.812221	-2.104471	-0.879514	99
Es	-1.967735	0.489284	-0.354120	99
Es	1.154988	0.455103	0.818119	99
42
Properties=species:S:1:pos:R:3:Z:I:1 energy=-286.8890621580493 field_type=dipole dipole="0.000000 0.000000 0.000000" charge=0
N	-1.967820	0.489302	-0.353461	7
C	-0.514080	0.482712	-0.495311	6
C	0.087390	1.520172	0.478019	6
C	1.155070	0.455122	0.818149	6
C	0.106690	-0.620198	0.414269	6
C	0.635880	-1.780848	-0.274421	6
C	1.073040	-2.745078	-0.838901	6
H	-2.417250	-0.312738	-0.795641	1
H	-2.412160	1.313682	-0.756091	1
H	-0.137360	0.537402	-1.522291	1
H	-0.536670	1.791392	1.338869	1
H	0.469380	2.435762	0.018189	1
H	2.041440	0.505012	0.173519	1
H	1.479320	0.433802	1.862289	1
H	-0.524980	-0.901698	1.269769	1
H	1.462110	-3.603798	-1.336961	1
Es	-0.343527	1.710772	1.059158	99
Es	1.376467	0.430639	1.514897	99
Es	0.087430	1.520119	0.478000	99
Es	-0.514200	0.482681	-0.495227	99
Es	-2.239912	1.005517	-0.519699	99
Es	1.154983	0.455102	0.818117	99
Es	1.328402	-3.307975	-1.168550	99
Es	-1.967740	0.489277	-0.354082	99
Es	-1.370458	0.491422	-0.468701	99
Es	0.382257	-1.239237	0.055390	99
Es	-0.259755	1.076230	-0.047492	99
Es	0.106775	-0.620249	0.414180	99
Es	1.073139	-2.745288	-0.839042	99
Es	1.018684	-2.059716	-0.802491	99
Es	0.674696	-0.180747	0.634704	99
Es	0.672495	1.063459	0.699141	99
Es	-0.310272	-0.802704	0.975193	99
Es	0.344686	2.128924	0.166019	99
Es	-2.002602	0.459362	-0.098902	99
Es	-2.201338	0.000750	-0.665389	99
Es	0.993408	-2.391922	-0.257005	99
Es	0.568132	-2.368027	-0.638885	99
Es	-0.249114	0.512578	-1.193066	99
Es	0.635787	-1.780641	-0.274304	99
Es	-0.235416	-0.158171	-0.081776	99
Es	1.749342	0.482486	0.373113	99
42
Properties=species:S:1:pos:R:3:Z:I:1 energy=-286.8890621580493 field_type=dipole dipole="0.000000 0.000000 0.000000" charge=0
N	-1.967820	0.489302	-0.353461	7
C	-0.514080	0.482712	-0.495311	6
C	0.087390	1.520172	0.478019	6
C	1.155070	0.455122	0.818149	6
C	0.106690	-0.620198	0.414269	6
C	0.635880	-1.780848	-0.274421	6
C	1.073040	-2.745078	-0.838901	6
H	-2.417250	-0.312738	-0.795641	1
H	-2.412160	1.313682	-0.756091	1
H	-0.137360	0.537402	-1.522291	1
H	-0.536670	1.791392	1.338869	1
H	0.469380	2.435762	0.018189	1
H	2.041440	0.505012	0.173519	1
H	1.479320	0.433802	1.862289	1
H	-0.524980	-0.901698	1.269769	1
H	1.462110	-3.603798	-1.336961	1
Es	0.382541	-1.239209	0.055564	99
Es	0.106779	-0.620251	0.414182	99
Es	0.344836	2.129187	0.165904	99
Es	1.073142	-2.745288	-0.839042	99
Es	-0.259488	1.075586	-0.047739	99
Es	1.148967	-2.181140	-0.504354	99
Es	-1.370684	0.491410	-0.468954	99
Es	-2.239847	1.005324	-0.518264	99
Es	1.749276	0.482550	0.373078	99
Es	-2.002243	0.459563	-0.100019	99
Es	0.675090	-0.180109	0.634951	99
Es	-2.201507	0.000768	-0.665456	99
Es	-0.514201	0.482683	-0.495229	99
Es	-0.343476	1.710547	1.059325	99
Es	0.718235	-2.153370	-0.869256	99
Es	-0.249011	0.512224	-1.193216	99
Es	-0.235466	-0.158713	-0.081396	99
Es	1.328614	-3.307852	-1.168613	99
Es	0.087429	1.520119	0.478001	99
Es	0.712323	-2.485295	-0.325060	99
Es	-0.310687	-0.802692	0.974994	99
Es	-1.967745	0.489265	-0.354045	99
Es	1.154983	0.455102	0.818117	99
Es	0.635791	-1.780639	-0.274304	99
Es	1.376542	0.430754	1.514744	99
Es	0.672158	1.064119	0.699389	99
42
Properties=species:S:1:pos:R:3:Z:I:1 energy=-286.8890621580493 field_type=dipole dipole="0.000000 0.000000 0.000000" charge=0
N	-1.967820	0.489302	-0.353461	7
C	-0.514080	0.482712	-0.495311	6
C	0.087390	1.520172	0.478019	6
C	1.155070	0.455122	0.818149	6
C	0.106690	-0.620198	0.414269	6
C	0.635880	-1.780848	-0.274421	6
C	1.073040	-2.745078	-0.838901	6
H	-2.417250	-0.312738	-0.795641	1
H	-2.412160	1.313682	-0.756091	1
H	-0.137360	0.537402	-1.522291	1
H	-0.536670	1.791392	1.338869	1
H	0.469380	2.435762	0.018189	1
H	2.041440	0.505012	0.173519	1
H	1.479320	0.433802	1.862289	1
H	-0.524980	-0.901698	1.269769	1
H	1.462110	-3.603798	-1.336961	1
Es	-0.343957	1.709107	1.059842	99
Es	0.795888	-2.473768	-0.275984	99
Es	0.671999	1.064121	0.700620	99
Es	-0.235029	-0.158458	-0.081427	99
Es	0.345500	2.130869	0.165048	99
Es	-2.199323	0.000423	-0.665827	99
Es	0.382658	-1.238884	0.055086	99
Es	-1.372196	0.491399	-0.468895	99
Es	-0.260641	1.075724	-0.047423	99
Es	-1.967719	0.489307	-0.353988	99
Es	0.635789	-1.780638	-0.274305	99
Es	0.639478	-2.216910	-0.825629	99
Es	-0.514199	0.482682	-0.495226	99
Es	0.106780	-0.620251	0.414183	99
Es	1.328510	-3.307805	-1.168767	99
Es	-0.249154	0.512458	-1.193178	99
Es	1.154982	0.455102	0.818116	99
Es	1.376054	0.430734	1.513175	99
Es	-2.239683	1.005624	-0.519461	99
Es	-2.001533	0.459470	-0.098533	99
Es	1.073143	-2.745287	-0.839043	99
Es	0.674204	-0.181325	0.634305	99
Es	1.749567	0.482450	0.373072	99
Es	1.144320	-2.129351	-0.596573	99
Es	-0.310515	-0.802270	0.976111	99
Es	0.087428	1.520119	0.477999	99
42
Properties=species:S:1:pos:R:3:Z:I:1 energy=-286.8890621580493 field_type=dipole dipole="0.000000 0.000000 0.000000" charge=0
N	-1.967820	0.489302	-0.353461	7
C	-0.514080	0.482712	-0.495311	6
C	0.087390	1.520172	0.478019	6
C	1.155070	0.455122	0.818149	6
C	0.106690	-0.620198	0.414269	6
C	0.635880	-1.780848	-0.274421	6
C	1.073040	-2.745078	-0.838901	6
H	-2.417250	-0.312738	-0.795641	1
H	-2.412160	1.313682	-0.756091	1
H	-0.137360	0.537402	-1.522291	1
H	-0.536670	1.791392	1.338869	1
H	0.469380	2.435762	0.018189	1
H	2.041440	0.505012	0.173519	1
H	1.479320	0.433802	1.862289	1
H	-0.524980	-0.901698	1.269769	1
H	1.462110	-3.603798	-1.336961	1
Es	-0.309784	-0.802433	0.975636	99
Es	0.382283	-1.239191	0.055285	99
Es	1.154984	0.455102	0.818117	99
Es	-1.967739	0.489277	-0.354085	99
Es	1.044032	-2.062328	-0.780176	99
Es	-2.240003	1.005131	-0.516860	99
Es	1.749282	0.482301	0.373214	99
Es	0.635789	-1.780638	-0.274307	99
Es	-1.372939	0.491418	-0.467677	99
Es	-0.235533	-0.157831	-0.081669	99
Es	1.376372	0.430617	1.514468	99
Es	-0.343355	1.711788	1.058751	99
Es	-2.002451	0.459653	-0.101566	99
Es	0.674331	-0.181306	0.634303	99
Es	0.087431	1.520120	0.478000	99
Es	0.106780	-0.620251	0.414183	99
Es	1.328420	-3.307970	-1.168560	99
Es	0.344377	2.127842	0.166478	99
Es	-0.514201	0.482683	-0.495226	99
Es	-0.260327	1.076549	-0.047645	99
Es	-2.198125	0.000789	-0.666574	99
Es	0.672641	1.063571	0.699380	99
Es	0.967281	-2.407292	-0.251296	99
Es	0.568866	-2.350148	-0.666779	99
Es	-0.249205	0.512476	-1.193054	99
Es	1.073142	-2.745289	-0.839041	99
