38
Properties=species:S:1:pos:R:3:Z:I:1 energy=-301.7972685172118 field_type=dipole dipole="0.000000 0.000000 0.000000" charge=0
N	-3.462158	-0.051209	0.089938	7
C	-2.311148	-0.051209	0.089938	6
C	-0.905148	-0.051209	0.089938	6
C	-0.128548	-1.135519	0.031158	6
C	1.304242	-0.746849	0.032298	6
N	1.322262	0.725571	-0.051412	7
C	-0.073907	1.178271	0.134848	6
H	-0.472668	-2.159569	-0.005202	1
H	1.793452	-1.076339	0.954108	1
H	1.831762	-1.184119	-0.821252	1
H	1.618722	0.986131	-0.992072	1
H	-0.348318	1.884951	-0.655772	1
H	-0.168548	1.681101	1.103488	1
Es	-2.930792	-0.298821	0.271916	99
Es	-3.831067	-0.051671	0.089657	99
Es	1.302642	0.079059	-0.027798	99
Es	-1.641169	-0.041414	0.094375	99
Es	-2.925553	-0.090946	-0.214280	99
Es	-0.590098	-0.560251	-0.260421	99
Es	-0.581558	-0.587836	0.378034	99
Es	1.479962	0.868005	-0.629196	99
Es	-0.905355	-0.051112	0.089946	99
Es	-0.128498	-1.135580	0.031160	99
Es	1.620003	-0.980616	0.657697	99
Es	-0.263930	1.652212	-0.403848	99
Es	1.654375	-1.045771	-0.548205	99
Es	-3.461715	-0.051208	0.089937	99
Es	-0.151918	1.510256	0.792917	99
Es	-2.931564	0.233635	0.210393	99
Es	-2.310788	-0.051197	0.089937	99
Es	1.321872	0.725312	-0.051833	99
Es	0.703118	0.910055	0.015670	99
Es	1.536808	0.867806	0.183601	99
Es	1.304185	-0.746732	0.032280	99
Es	-0.350267	-1.824661	0.007685	99
Es	-0.544795	0.566312	0.110225	99
Es	0.580889	-0.974673	0.027995	99
Es	-0.073822	1.178165	0.134816	99
38
Properties=species:S:1:pos:R:3:Z:I:1 energy=-301.7972685172118 field_type=dipole dipole="0.000000 0.000000 0.000000" charge=0
N	-3.462158	-0.051209	0.089938	7
C	-2.311148	-0.051209	0.089938	6
C	-0.905148	-0.051209	0.089938	6
C	-0.128548	-1.135519	0.031158	6
C	1.304242	-0.746849	0.032298	6
N	1.322262	0.725571	-0.051412	7
C	-0.073907	1.178271	0.134848	6
H	-0.472668	-2.159569	-0.005202	1
H	1.793452	-1.076339	0.954108	1
H	1.831762	-1.184119	-0.821252	1
H	1.618722	0.986131	-0.992072	1
H	-0.348318	1.884951	-0.655772	1
H	-0.168548	1.681101	1.103488	1
Es	-0.350485	-1.821724	0.007623	99
Es	1.321879	0.725315	-0.051802	99
Es	1.304188	-0.746737	0.032279	99
Es	-2.931325	-0.340573	-0.020394	99
Es	-0.545819	0.564060	0.110236	99
Es	1.619708	-0.979237	0.655544	99
Es	-0.152832	1.509112	0.790424	99
Es	1.308644	0.077343	-0.025638	99
Es	-2.925593	-0.013336	0.373667	99
Es	-3.835700	-0.039391	0.091117	99
Es	1.656448	-1.045475	-0.547190	99
Es	0.700670	0.914496	0.017535	99
Es	0.581753	-0.976487	0.028518	99
Es	-1.643508	-0.045433	0.093998	99
Es	-3.461709	-0.051208	0.089937	99
Es	1.534046	0.864996	0.174661	99
Es	-0.905356	-0.051118	0.089959	99
Es	-2.310767	-0.051218	0.089936	99
Es	-2.927345	0.190544	-0.086165	99
Es	-0.589643	-0.560130	-0.258281	99
Es	1.481989	0.866876	-0.623669	99
Es	-0.128499	-1.135582	0.031161	99
Es	-0.265049	1.652574	-0.402225	99
Es	-0.580909	-0.587500	0.376613	99
Es	-0.073818	1.178161	0.134815	99
38
Properties=species:S:1:pos:R:3:Z:I:1 energy=-301.7972685172118 field_type=dipole dipole="0.000000 0.000000 0.000000" charge=0
N	-3.462158	-0.051209	0.089938	7
C	-2.311148	-0.051209	0.089938	6
C	-0.905148	-0.051209	0.089938	6
C	-0.128548	-1.135519	0.031158	6
C	1.304242	-0.746849	0.032298	6
N	1.322262	0.725571	-0.051412	7
C	-0.073907	1.178271	0.134848	6
H	-0.472668	-2.159569	-0.005202	1
H	1.793452	-1.076339	0.954108	1
H	1.831762	-1.184119	-0.821252	1
H	1.618722	0.986131	-0.992072	1
H	-0.348318	1.884951	-0.655772	1
H	-0.168548	1.681101	1.103488	1
Es	0.699883	0.916821	0.017324	99
Es	-0.589338	-0.559805	-0.257356	99
Es	1.304187	-0.746738	0.032278	99
Es	1.312699	0.075866	-0.024868	99
Es	-2.310762	-0.051231	0.089934	99
Es	-1.644910	-0.047805	0.093467	99
Es	-0.546936	0.562002	0.110956	99
Es	-2.926741	-0.184976	-0.164316	99
Es	-3.461707	-0.051209	0.089937	99
Es	-2.926659	0.249640	0.112785	99
Es	-0.350792	-1.819282	0.007815	99
Es	1.618647	-0.977995	0.653785	99
Es	-0.905359	-0.051115	0.089951	99
Es	0.582147	-0.978238	0.029046	99
Es	-0.073820	1.178163	0.134817	99
Es	-2.929569	-0.229645	0.319777	99
Es	-0.580609	-0.587248	0.375665	99
Es	-0.152819	1.507892	0.788037	99
Es	1.532404	0.864274	0.169844	99
Es	-3.837075	-0.034412	0.090426	99
Es	-0.265533	1.653391	-0.401006	99
Es	1.321803	0.725278	-0.051904	99
Es	1.481921	0.865942	-0.618612	99
Es	-0.128495	-1.135587	0.031161	99
Es	1.658401	-1.045655	-0.546285	99
38
Properties=species:S:1:pos:R:3:Z:I:1 energy=-301.7972685172118 field_type=dipole dipole="0.000000 0.000000 0.000000" charge=0
N	-3.462158	-0.051209	0.089938	7
C	-2.311148	-0.051209	0.089938	6
C	-0.905148	-0.051209	0.089938	6
C	-0.128548	-1.135519	0.031158	6
C	1.304242	-0.746849	0.032298	6
N	1.322262	0.725571	-0.051412	7
C	-0.073907	1.178271	0.134848	6
H	-0.472668	-2.159569	-0.005202	1
H	1.793452	-1.076339	0.954108	1
H	1.831762	-1.184119	-0.821252	1
H	1.618722	0.986131	-0.992072	1
H	-0.348318	1.884951	-0.655772	1
H	-0.168548	1.681101	1.103488	1
Es	1.531374	0.865069	0.166244	99
Es	-2.930968	-0.347797	0.182807	99
Es	-3.837141	-0.028517	0.090147	99
Es	-3.461708	-0.051206	0.089936	99
Es	-0.266138	1.654244	-0.400210	99
Es	-0.905360	-0.051116	0.089955	99
Es	-0.548152	0.560009	0.111189	99
Es	-0.128496	-1.135585	0.031160	99
Es	-0.589306	-0.559833	-0.257617	99
Es	1.304188	-0.746736	0.032279	99
Es	1.660457	-1.045872	-0.545647	99
Es	-0.152784	1.506561	0.786347	99
Es	1.316406	0.074603	-0.023339	99
Es	-0.580350	-0.587218	0.376334	99
Es	-0.350436	-1.816207	0.007939	99
Es	-0.073817	1.178162	0.134815	99
Es	-2.926353	-0.022589	-0.156150	99
Es	1.321832	0.725300	-0.051886	99
Es	-1.645630	-0.047870	0.093050	99
Es	1.480608	0.864546	-0.615559	99
Es	0.699329	0.917396	0.016789	99
Es	1.617354	-0.976756	0.652783	99
Es	-2.925595	0.200644	0.242272	99
Es	0.582411	-0.979671	0.029090	99
Es	-2.310759	-0.051233	0.089933	99
38
Properties=species:S:1:pos:R:3:Z:I:1 energy=-301.7972685172118 field_type=dipole dipole="0.000000 0.000000 0.000000" charge=0
N	-3.462158	-0.051209	0.089938	7
C	-2.311148	-0.051209	0.089938	6
C	-0.905148	-0.051209	0.089938	6
C	-0.128548	-1.135519	0.031158	6
C	1.304242	-0.746849	0.032298	6
N	1.322262	0.725571	-0.051412	7
C	-0.073907	1.178271	0.134848	6
H	-0.472668	-2.159569	-0.005202	1
H	1.793452	-1.076339	0.954108	1
H	1.831762	-1.184119	-0.821252	1
H	1.618722	0.986131	-0.992072	1
H	-0.348318	1.884951	-0.655772	1
H	-0.168548	1.681101	1.103488	1
Es	1.615674	-0.975489	0.651664	99
Es	-2.930041	-0.343763	0.192551	99
Es	-0.350056	-1.813418	0.007826	99
Es	1.532769	0.866867	0.163754	99
Es	-0.073819	1.178162	0.134812	99
Es	-3.461707	-0.051208	0.089937	99
Es	-2.925443	0.217770	0.211464	99
Es	1.477611	0.862444	-0.612567	99
Es	-0.152664	1.505179	0.784980	99
Es	-1.646109	-0.048031	0.093141	99
Es	-0.580325	-0.587235	0.376916	99
Es	1.304189	-0.746735	0.032282	99
Es	0.582422	-0.980841	0.029137	99
Es	-2.310759	-0.051250	0.089933	99
Es	1.318980	0.073472	-0.023037	99
Es	-0.266566	1.655229	-0.399313	99
Es	-0.549292	0.558168	0.111587	99
Es	1.321859	0.725309	-0.051828	99
Es	-0.589046	-0.559706	-0.258210	99
Es	-3.837260	-0.026412	0.090597	99
Es	-2.927219	-0.044677	-0.135462	99
Es	0.698931	0.917525	0.016312	99
Es	-0.128495	-1.135586	0.031161	99
Es	1.662695	-1.046332	-0.544905	99
Es	-0.905362	-0.051114	0.089928	99
38
Properties=species:S:1:pos:R:3:Z:I:1 energy=-301.7972685172118 field_type=dipole dipole="0.000000 0.000000 0.000000" charge=0
N	-3.462158	-0.051209	0.089938	7
C	-2.311148	-0.051209	0.089938	6
C	-0.905148	-0.051209	0.089938	6
C	-0.128548	-1.135519	0.031158	6
C	1.304242	-0.746849	0.032298	6
N	1.322262	0.725571	-0.051412	7
C	-0.073907	1.178271	0.134848	6
H	-0.472668	-2.159569	-0.005202	1
H	1.793452	-1.076339	0.954108	1
H	1.831762	-1.184119	-0.821252	1
H	1.618722	0.986131	-0.992072	1
H	-0.348318	1.884951	-0.655772	1
H	-0.168548	1.681101	1.103488	1
Es	-0.073819	1.178164	0.134813	99
Es	-0.905363	-0.051115	0.089958	99
Es	-0.267186	1.657068	-0.398268	99
Es	1.664838	-1.046788	-0.544054	99
Es	-0.349609	-1.810959	0.008181	99
Es	0.582338	-0.981741	0.029224	99
Es	-0.550833	0.556417	0.112075	99
Es	-0.589079	-0.559530	-0.258762	99
Es	1.321615	0.072349	-0.021479	99
Es	1.474617	0.860106	-0.610192	99
Es	-2.310757	-0.051242	0.089936	99
Es	-2.925997	0.229186	0.000870	99
Es	1.304188	-0.746736	0.032279	99
Es	-3.837286	-0.024953	0.092060	99
Es	-0.128496	-1.135585	0.031164	99
Es	0.698756	0.917715	0.016064	99
Es	1.321780	0.725258	-0.051950	99
Es	1.614028	-0.974278	0.650513	99
Es	-2.928713	-0.062178	0.293962	99
Es	-2.927913	-0.338476	-0.028158	99
Es	1.533763	0.868939	0.160565	99
Es	-0.579735	-0.587181	0.377821	99
Es	-3.461710	-0.051208	0.089937	99
Es	-0.152082	1.503140	0.782707	99
Es	-1.646381	-0.048045	0.093393	99
38
Properties=species:S:1:pos:R:3:Z:I:1 energy=-301.7972685172118 field_type=dipole dipole="0.000000 0.000000 0.000000" charge=0
N	-3.462158	-0.051209	0.089938	7
C	-2.311148	-0.051209	0.089938	6
C	-0.905148	-0.051209	0.089938	6
C	-0.128548	-1.135519	0.031158	6
C	1.304242	-0.746849	0.032298	6
N	1.322262	0.725571	-0.051412	7
C	-0.073907	1.178271	0.134848	6
H	-0.472668	-2.159569	-0.005202	1
H	1.793452	-1.076339	0.954108	1
H	1.831762	-1.184119	-0.821252	1
H	1.618722	0.986131	-0.992072	1
H	-0.348318	1.884951	-0.655772	1
H	-0.168548	1.681101	1.103488	1
Es	1.321826	0.725284	-0.051871	99
Es	-2.928621	-0.351882	0.167495	99
Es	1.304189	-0.746737	0.032279	99
Es	-0.128495	-1.135584	0.031158	99
Es	-2.310757	-0.051249	0.089935	99
Es	0.582173	-0.982278	0.029203	99
Es	0.698526	0.917558	0.015642	99
Es	-0.588596	-0.559605	-0.259432	99
Es	-3.837172	-0.023584	0.090964	99
Es	-0.073816	1.178161	0.134820	99
Es	1.472340	0.858650	-0.608008	99
Es	-1.646551	-0.047770	0.093090	99
Es	-0.905365	-0.051110	0.089944	99
Es	1.323423	0.071148	-0.021304	99
Es	-0.579658	-0.586848	0.378873	99
Es	1.534740	0.870316	0.158775	99
Es	-0.152088	1.502545	0.782016	99
Es	-3.461709	-0.051208	0.089937	99
Es	1.667665	-1.047636	-0.542654	99
Es	-0.267437	1.657363	-0.397766	99
Es	-0.349055	-1.808524	0.007966	99
Es	1.611588	-0.972830	0.648914	99
Es	-0.552104	0.554741	0.112057	99
Es	-2.928600	-0.043178	-0.094533	99
Es	-2.925478	0.222586	0.195159	99
38
Properties=species:S:1:pos:R:3:Z:I:1 energy=-301.7972685172118 field_type=dipole dipole="0.000000 0.000000 0.000000" charge=0
N	-3.462158	-0.051209	0.089938	7
C	-2.311148	-0.051209	0.089938	6
C	-0.905148	-0.051209	0.089938	6
C	-0.128548	-1.135519	0.031158	6
C	1.304242	-0.746849	0.032298	6
N	1.322262	0.725571	-0.051412	7
C	-0.073907	1.178271	0.134848	6
H	-0.472668	-2.159569	-0.005202	1
H	1.793452	-1.076339	0.954108	1
H	1.831762	-1.184119	-0.821252	1
H	1.618722	0.986131	-0.992072	1
H	-0.348318	1.884951	-0.655772	1
H	-0.168548	1.681101	1.103488	1
Es	0.582005	-0.982571	0.029218	99
Es	-2.310757	-0.051251	0.089937	99
Es	-0.073817	1.178160	0.134814	99
Es	-1.646659	-0.047632	0.093344	99
Es	-0.267889	1.658874	-0.396779	99
Es	1.536673	0.872636	0.156518	99
Es	1.304188	-0.746736	0.032279	99
Es	1.325045	0.070237	-0.020629	99
Es	-0.578846	-0.587325	0.379611	99
Es	-0.553412	0.553199	0.112442	99
Es	0.698297	0.917146	0.015473	99
Es	-0.128495	-1.135585	0.031161	99
Es	-2.925862	0.233320	0.018749	99
Es	-2.929716	-0.060236	0.256690	99
Es	1.670011	-1.048384	-0.541083	99
Es	1.609597	-0.971514	0.647520	99
Es	-0.348431	-1.806486	0.008376	99
Es	-2.927041	-0.345533	-0.008412	99
Es	-0.151641	1.500889	0.780123	99
Es	1.321837	0.725300	-0.051848	99
Es	-3.461710	-0.051208	0.089937	99
Es	-3.837196	-0.023203	0.091810	99
Es	1.469170	0.856341	-0.606219	99
Es	-0.589019	-0.558994	-0.260325	99
Es	-0.905364	-0.051116	0.089955	99
38
Properties=species:S:1:pos:R:3:Z:I:1 energy=-301.7972685172118 field_type=dipole dipole="0.000000 0.000000 0.000000" charge=0
N	-3.462158	-0.051209	0.089938	7
C	-2.311148	-0.051209	0.089938	6
C	-0.905148	-0.051209	0.089938	6
C	-0.128548	-1.135519	0.031158	6
C	1.304242	-0.746849	0.032298	6
N	1.322262	0.725571	-0.051412	7
C	-0.073907	1.178271	0.134848	6
H	-0.472668	-2.159569	-0.005202	1
H	1.793452	-1.076339	0.954108	1
H	1.831762	-1.184119	-0.821252	1
H	1.618722	0.986131	-0.992072	1
H	-0.348318	1.884951	-0.655772	1
H	-0.168548	1.681101	1.103488	1
Es	0.698083	0.916731	0.015693	99
Es	-2.927286	-0.355661	0.147296	99
Es	0.581893	-0.982980	0.029285	99
Es	-0.128496	-1.135585	0.031161	99
Es	-0.073817	1.178162	0.134814	99
Es	1.671355	-1.048702	-0.540386	99
Es	-2.925586	0.230076	0.169893	99
Es	-0.267973	1.658690	-0.396692	99
Es	1.539534	0.875251	0.153984	99
Es	-0.554506	0.551713	0.112576	99
Es	-3.837155	-0.022567	0.091866	99
Es	-0.151757	1.500897	0.780151	99
Es	1.465689	0.853567	-0.604961	99
Es	1.608532	-0.970748	0.646460	99
Es	1.304189	-0.746736	0.032279	99
Es	-0.347727	-1.804152	0.008305	99
Es	-1.646701	-0.047351	0.093217	99
Es	-2.929772	-0.047340	-0.049918	99
Es	1.326018	0.069576	-0.019386	99
Es	-0.578850	-0.587170	0.380632	99
Es	-0.588613	-0.559007	-0.261443	99
Es	-2.310757	-0.051256	0.089934	99
Es	-0.905364	-0.051114	0.089951	99
Es	-3.461709	-0.051207	0.089937	99
Es	1.321743	0.725243	-0.051987	99
38
Properties=species:S:1:pos:R:3:Z:I:1 energy=-301.7972685172118 field_type=dipole dipole="0.000000 0.000000 0.000000" charge=0
N	-3.462158	-0.051209	0.089938	7
C	-2.311148	-0.051209	0.089938	6
C	-0.905148	-0.051209	0.089938	6
C	-0.128548	-1.135519	0.031158	6
C	1.304242	-0.746849	0.032298	6
N	1.322262	0.725571	-0.051412	7
C	-0.073907	1.178271	0.134848	6
H	-0.472668	-2.159569	-0.005202	1
H	1.793452	-1.076339	0.954108	1
H	1.831762	-1.184119	-0.821252	1
H	1.618722	0.986131	-0.992072	1
H	-0.348318	1.884951	-0.655772	1
H	-0.168548	1.681101	1.103488	1
Es	-0.588549	-0.559070	-0.261903	99
Es	-0.347303	-1.802685	0.008493	99
Es	-0.151290	1.499399	0.778268	99
Es	1.674434	-1.049854	-0.537648	99
Es	1.462815	0.851833	-0.602120	99
Es	-2.927290	-0.355043	0.149002	99
Es	-0.905366	-0.051113	0.089956	99
Es	-3.461710	-0.051209	0.089937	99
Es	-0.268182	1.660145	-0.395551	99
Es	-1.646751	-0.047282	0.093142	99
Es	-3.837102	-0.022135	0.091502	99
Es	1.605690	-0.969177	0.643722	99
Es	1.321782	0.725266	-0.051917	99
Es	1.304189	-0.746736	0.032279	99
Es	-0.128494	-1.135584	0.031164	99
Es	-2.925748	0.228102	0.174062	99
Es	-2.310757	-0.051250	0.089929	99
Es	-0.555602	0.550721	0.112966	99
Es	-0.073820	1.178163	0.134814	99
Es	1.327346	0.068546	-0.019761	99
Es	1.541177	0.877048	0.151833	99
Es	0.581770	-0.983209	0.029327	99
Es	-0.578622	-0.587021	0.381164	99
Es	0.697984	0.916733	0.015431	99
Es	-2.929632	-0.046260	-0.055434	99
38
Properties=species:S:1:pos:R:3:Z:I:1 energy=-301.7972685172118 field_type=dipole dipole="0.000000 0.000000 0.000000" charge=0
N	-3.462158	-0.051209	0.089938	7
C	-2.311148	-0.051209	0.089938	6
C	-0.905148	-0.051209	0.089938	6
C	-0.128548	-1.135519	0.031158	6
C	1.304242	-0.746849	0.032298	6
N	1.322262	0.725571	-0.051412	7
C	-0.073907	1.178271	0.134848	6
H	-0.472668	-2.159569	-0.005202	1
H	1.793452	-1.076339	0.954108	1
H	1.831762	-1.184119	-0.821252	1
H	1.618722	0.986131	-0.992072	1
H	-0.348318	1.884951	-0.655772	1
H	-0.168548	1.681101	1.103488	1
Es	0.697835	0.916341	0.015328	99
Es	-0.905365	-0.051114	0.089946	99
Es	-1.646790	-0.047181	0.093086	99
Es	1.321729	0.725239	-0.051996	99
Es	0.581661	-0.983480	0.029337	99
Es	1.328345	0.068156	-0.018514	99
Es	1.457905	0.848015	-0.599261	99
Es	-3.836993	-0.021546	0.091898	99
Es	1.603887	-0.968249	0.641716	99
Es	-2.310757	-0.051253	0.089931	99
Es	-2.925881	0.228677	0.169901	99
Es	-0.578507	-0.587032	0.381753	99
Es	-0.150996	1.498729	0.777130	99
Es	-0.073817	1.178159	0.134810	99
Es	-0.346869	-1.801267	0.008381	99
Es	-0.556188	0.549792	0.113729	99
Es	1.545312	0.880869	0.147970	99
Es	-0.588408	-0.558925	-0.262373	99
Es	-0.268687	1.660672	-0.395177	99
Es	-2.929681	-0.047795	-0.052853	99
Es	1.304188	-0.746737	0.032278	99
Es	1.676429	-1.050441	-0.535820	99
Es	-3.461710	-0.051208	0.089937	99
Es	-0.128495	-1.135585	0.031161	99
Es	-2.927181	-0.354508	0.150362	99
38
Properties=species:S:1:pos:R:3:Z:I:1 energy=-301.7972685172118 field_type=dipole dipole="0.000000 0.000000 0.000000" charge=0
N	-3.462158	-0.051209	0.089938	7
C	-2.311148	-0.051209	0.089938	6
C	-0.905148	-0.051209	0.089938	6
C	-0.128548	-1.135519	0.031158	6
C	1.304242	-0.746849	0.032298	6
N	1.322262	0.725571	-0.051412	7
C	-0.073907	1.178271	0.134848	6
H	-0.472668	-2.159569	-0.005202	1
H	1.793452	-1.076339	0.954108	1
H	1.831762	-1.184119	-0.821252	1
H	1.618722	0.986131	-0.992072	1
H	-0.348318	1.884951	-0.655772	1
H	-0.168548	1.681101	1.103488	1
Es	1.604265	-0.968271	0.642288	99
Es	1.321724	0.725251	-0.051983	99
Es	-2.310757	-0.051258	0.089929	99
Es	-0.151014	1.498274	0.776767	99
Es	-0.588368	-0.558315	-0.263364	99
Es	-2.930458	-0.048704	-0.013423	99
Es	-0.557636	0.548307	0.113388	99
Es	1.304189	-0.746737	0.032276	99
Es	-3.461708	-0.051208	0.089937	99
Es	-0.346289	-1.799641	0.008485	99
Es	-2.925799	0.233068	0.153651	99
Es	-0.073816	1.178162	0.134813	99
Es	-2.926395	-0.357771	0.127093	99
Es	0.697664	0.915976	0.015183	99
Es	1.328684	0.067204	-0.018194	99
Es	1.542622	0.879046	0.149321	99
Es	1.460418	0.849777	-0.600723	99
Es	-0.577901	-0.587204	0.382722	99
Es	-0.268516	1.661075	-0.394653	99
Es	-1.646771	-0.046966	0.093226	99
Es	-0.128495	-1.135584	0.031162	99
Es	-0.905366	-0.051111	0.089954	99
Es	1.676291	-1.050015	-0.536202	99
Es	0.581505	-0.983257	0.029207	99
Es	-3.837106	-0.021772	0.091800	99
38
Properties=species:S:1:pos:R:3:Z:I:1 energy=-301.7972685172118 field_type=dipole dipole="0.000000 0.000000 0.000000" charge=0
N	-3.462158	-0.051209	0.089938	7
C	-2.311148	-0.051209	0.089938	6
C	-0.905148	-0.051209	0.089938	6
C	-0.128548	-1.135519	0.031158	6
C	1.304242	-0.746849	0.032298	6
N	1.322262	0.725571	-0.051412	7
C	-0.073907	1.178271	0.134848	6
H	-0.472668	-2.159569	-0.005202	1
H	1.793452	-1.076339	0.954108	1
H	1.831762	-1.184119	-0.821252	1
H	1.618722	0.986131	-0.992072	1
H	-0.348318	1.884951	-0.655772	1
H	-0.168548	1.681101	1.103488	1
Es	-0.270011	1.667831	-0.388574	99
Es	-0.905365	-0.051116	0.089962	99
Es	-0.577260	-0.587295	0.380751	99
Es	1.593671	-0.963744	0.626825	99
Es	-2.926667	0.239247	0.086128	99
Es	1.565551	0.898807	0.117146	99
Es	-2.310760	-0.051269	0.089924	99
Es	1.432385	0.828651	-0.572956	99
Es	-3.461708	-0.051208	0.089937	99
Es	1.686249	-1.055588	-0.521386	99
Es	0.698544	0.918428	0.016612	99
Es	-0.347776	-1.802901	0.008807	99
Es	-0.149590	1.491612	0.768579	99
Es	-2.927191	-0.212518	-0.136331	99
Es	-0.073816	1.178166	0.134830	99
Es	-2.928727	-0.199677	0.317245	99
Es	-0.589245	-0.558028	-0.261060	99
Es	1.333064	0.068607	-0.015033	99
Es	-1.647066	-0.048171	0.092704	99
Es	1.304191	-0.746734	0.032283	99
Es	-0.128495	-1.135585	0.031162	99
Es	1.321743	0.725246	-0.051974	99
Es	0.581723	-0.984005	0.029614	99
Es	-3.836787	-0.020878	0.092787	99
Es	-0.555691	0.550452	0.114676	99
38
Properties=species:S:1:pos:R:3:Z:I:1 energy=-301.7972685172118 field_type=dipole dipole="0.000000 0.000000 0.000000" charge=0
N	-3.462158	-0.051209	0.089938	7
C	-2.311148	-0.051209	0.089938	6
C	-0.905148	-0.051209	0.089938	6
C	-0.128548	-1.135519	0.031158	6
C	1.304242	-0.746849	0.032298	6
N	1.322262	0.725571	-0.051412	7
C	-0.073907	1.178271	0.134848	6
H	-0.472668	-2.159569	-0.005202	1
H	1.793452	-1.076339	0.954108	1
H	1.831762	-1.184119	-0.821252	1
H	1.618722	0.986131	-0.992072	1
H	-0.348318	1.884951	-0.655772	1
H	-0.168548	1.681101	1.103488	1
Es	-0.345700	-1.797848	0.008738	99
Es	-3.837068	-0.021485	0.092050	99
Es	1.548385	0.883833	0.144314	99
Es	-0.577549	-0.586218	0.383898	99
Es	-0.905367	-0.051114	0.089957	99
Es	1.304189	-0.746735	0.032278	99
Es	1.601308	-0.966705	0.638745	99
Es	-0.128495	-1.135584	0.031161	99
Es	-2.925836	-0.353635	0.028388	99
Es	0.697550	0.915776	0.015218	99
Es	0.581355	-0.983131	0.029231	99
Es	-2.926037	0.236393	0.044562	99
Es	-0.073818	1.178164	0.134812	99
Es	-3.461708	-0.051206	0.089938	99
Es	-0.558722	0.546686	0.113743	99
Es	1.321756	0.725246	-0.051965	99
Es	-0.587961	-0.558724	-0.264243	99
Es	-2.310757	-0.051254	0.089922	99
Es	-1.646801	-0.046841	0.093088	99
Es	1.453969	0.844856	-0.596282	99
Es	1.679455	-1.051204	-0.532725	99
Es	-0.269125	1.661889	-0.394078	99
Es	-2.930775	-0.056257	0.194218	99
Es	-0.150760	1.497236	0.775276	99
Es	1.329479	0.066193	-0.017584	99
38
Properties=species:S:1:pos:R:3:Z:I:1 energy=-301.7972685172118 field_type=dipole dipole="0.000000 0.000000 0.000000" charge=0
N	-3.462158	-0.051209	0.089938	7
C	-2.311148	-0.051209	0.089938	6
C	-0.905148	-0.051209	0.089938	6
C	-0.128548	-1.135519	0.031158	6
C	1.304242	-0.746849	0.032298	6
N	1.322262	0.725571	-0.051412	7
C	-0.073907	1.178271	0.134848	6
H	-0.472668	-2.159569	-0.005202	1
H	1.793452	-1.076339	0.954108	1
H	1.831762	-1.184119	-0.821252	1
H	1.618722	0.986131	-0.992072	1
H	-0.348318	1.884951	-0.655772	1
H	-0.168548	1.681101	1.103488	1
Es	1.329963	0.065587	-0.016709	99
Es	-2.310757	-0.051256	0.089937	99
Es	1.451885	0.843159	-0.594923	99
Es	0.581308	-0.982949	0.029244	99
Es	-0.345432	-1.797073	0.008671	99
Es	1.600445	-0.966168	0.637507	99
Es	1.304190	-0.746734	0.032280	99
Es	-3.461708	-0.051207	0.089937	99
Es	-3.836974	-0.021082	0.092451	99
Es	-2.926094	0.232194	0.152422	99
Es	1.321734	0.725237	-0.052039	99
Es	-0.073815	1.178159	0.134823	99
Es	-0.128501	-1.135593	0.031161	99
Es	-0.577173	-0.586737	0.384184	99
Es	-0.588176	-0.558143	-0.264360	99
Es	-0.559271	0.546056	0.114009	99
Es	-2.926207	-0.357046	0.128846	99
Es	1.680470	-1.051454	-0.531566	99
Es	-0.150614	1.496680	0.774410	99
Es	-0.269188	1.662419	-0.393545	99
Es	-0.905366	-0.051113	0.089952	99
Es	-1.646784	-0.046666	0.093060	99
Es	-2.930448	-0.049068	-0.014419	99
Es	1.549927	0.885269	0.141800	99
Es	0.697553	0.915859	0.015525	99
38
Properties=species:S:1:pos:R:3:Z:I:1 energy=-301.7972685172118 field_type=dipole dipole="0.000000 0.000000 0.000000" charge=0
N	-3.462158	-0.051209	0.089938	7
C	-2.311148	-0.051209	0.089938	6
C	-0.905148	-0.051209	0.089938	6
C	-0.128548	-1.135519	0.031158	6
C	1.304242	-0.746849	0.032298	6
N	1.322262	0.725571	-0.051412	7
C	-0.073907	1.178271	0.134848	6
H	-0.472668	-2.159569	-0.005202	1
H	1.793452	-1.076339	0.954108	1
H	1.831762	-1.184119	-0.821252	1
H	1.618722	0.986131	-0.992072	1
H	-0.348318	1.884951	-0.655772	1
H	-0.168548	1.681101	1.103488	1
Es	1.569144	0.901108	0.113494	99
Es	-0.149845	1.492687	0.769769	99
Es	1.332686	0.067147	-0.015743	99
Es	-3.461708	-0.051208	0.089937	99
Es	1.321763	0.725252	-0.051942	99
Es	-2.310756	-0.051252	0.089931	99
Es	-0.346734	-1.799929	0.008790	99
Es	-3.836059	-0.017917	0.093559	99
Es	1.429390	0.826376	-0.568773	99
Es	1.688512	-1.055986	-0.518034	99
Es	-2.927915	-0.360797	0.095467	99
Es	-0.588986	-0.557941	-0.262428	99
Es	-0.556969	0.548530	0.114849	99
Es	1.304189	-0.746737	0.032279	99
Es	-2.927453	0.089602	-0.126696	99
Es	-1.646858	-0.047059	0.092914	99
Es	0.581495	-0.983995	0.029468	99
Es	-0.128496	-1.135584	0.031160	99
Es	-0.073816	1.178163	0.134822	99
Es	1.591802	-0.962711	0.623491	99
Es	0.698290	0.917807	0.016835	99
Es	-0.270167	1.666501	-0.389963	99
Es	-0.577065	-0.587338	0.382214	99
Es	-0.905366	-0.051114	0.089955	99
Es	-2.928111	0.094725	0.297305	99
38
Properties=species:S:1:pos:R:3:Z:I:1 energy=-301.7972685172118 field_type=dipole dipole="0.000000 0.000000 0.000000" charge=0
N	-3.462158	-0.051209	0.089938	7
C	-2.311148	-0.051209	0.089938	6
C	-0.905148	-0.051209	0.089938	6
C	-0.128548	-1.135519	0.031158	6
C	1.304242	-0.746849	0.032298	6
N	1.322262	0.725571	-0.051412	7
C	-0.073907	1.178271	0.134848	6
H	-0.472668	-2.159569	-0.005202	1
H	1.793452	-1.076339	0.954108	1
H	1.831762	-1.184119	-0.821252	1
H	1.618722	0.986131	-0.992072	1
H	-0.348318	1.884951	-0.655772	1
H	-0.168548	1.681101	1.103488	1
Es	-0.576797	-0.587150	0.384582	99
Es	-0.344975	-1.795547	0.008648	99
Es	-0.150633	1.496514	0.774384	99
Es	1.321798	0.725272	-0.051903	99
Es	1.446967	0.839926	-0.589919	99
Es	-1.646817	-0.046656	0.093178	99
Es	-2.310757	-0.051259	0.089928	99
Es	0.697473	0.915687	0.015708	99
Es	-2.926281	0.232870	0.146686	99
Es	-2.926262	-0.354570	0.143246	99
Es	-3.461709	-0.051208	0.089938	99
Es	-0.588139	-0.557425	-0.265113	99
Es	-0.073816	1.178158	0.134815	99
Es	1.304191	-0.746733	0.032278	99
Es	-0.128495	-1.135583	0.031161	99
Es	1.597921	-0.964972	0.633850	99
Es	1.328850	0.064726	-0.019186	99
Es	-0.905366	-0.051112	0.089936	99
Es	-0.269614	1.662442	-0.393560	99
Es	1.683060	-1.052527	-0.528116	99
Es	-2.930255	-0.052427	-0.023242	99
Es	1.555959	0.888444	0.138917	99
Es	-0.559698	0.545001	0.114484	99
Es	0.581208	-0.982985	0.029227	99
Es	-3.836846	-0.020556	0.092735	99
38
Properties=species:S:1:pos:R:3:Z:I:1 energy=-301.7972685172118 field_type=dipole dipole="0.000000 0.000000 0.000000" charge=0
N	-3.462158	-0.051209	0.089938	7
C	-2.311148	-0.051209	0.089938	6
C	-0.905148	-0.051209	0.089938	6
C	-0.128548	-1.135519	0.031158	6
C	1.304242	-0.746849	0.032298	6
N	1.322262	0.725571	-0.051412	7
C	-0.073907	1.178271	0.134848	6
H	-0.472668	-2.159569	-0.005202	1
H	1.793452	-1.076339	0.954108	1
H	1.831762	-1.184119	-0.821252	1
H	1.618722	0.986131	-0.992072	1
H	-0.348318	1.884951	-0.655772	1
H	-0.168548	1.681101	1.103488	1
Es	-2.310757	-0.051258	0.089932	99
Es	1.684632	-1.053134	-0.525808	99
Es	1.596381	-0.964318	0.631566	99
Es	1.559242	0.892411	0.131965	99
Es	0.697497	0.915780	0.015789	99
Es	-0.128495	-1.135584	0.031160	99
Es	-3.836849	-0.020539	0.092746	99
Es	1.330504	0.064761	-0.016328	99
Es	-0.150280	1.495451	0.772684	99
Es	1.304189	-0.746736	0.032279	99
Es	-3.461709	-0.051207	0.089937	99
Es	-0.576970	-0.586580	0.384842	99
Es	-0.587913	-0.557964	-0.265191	99
Es	-0.560025	0.544822	0.114940	99
Es	-2.926636	0.229195	0.018803	99
Es	-0.269754	1.663538	-0.392649	99
Es	-0.073816	1.178158	0.134815	99
Es	-0.344914	-1.795485	0.008791	99
Es	1.442036	0.835702	-0.585708	99
Es	-0.905367	-0.051111	0.089953	99
Es	-2.925949	-0.351322	0.018962	99
Es	1.321743	0.725232	-0.051964	99
Es	0.581196	-0.982874	0.029172	99
Es	-1.646835	-0.046684	0.093133	99
Es	-2.930186	-0.051923	0.228838	99
38
Properties=species:S:1:pos:R:3:Z:I:1 energy=-301.7972685172118 field_type=dipole dipole="0.000000 0.000000 0.000000" charge=0
N	-3.462158	-0.051209	0.089938	7
C	-2.311148	-0.051209	0.089938	6
C	-0.905148	-0.051209	0.089938	6
C	-0.128548	-1.135519	0.031158	6
C	1.304242	-0.746849	0.032298	6
N	1.322262	0.725571	-0.051412	7
C	-0.073907	1.178271	0.134848	6
H	-0.472668	-2.159569	-0.005202	1
H	1.793452	-1.076339	0.954108	1
H	1.831762	-1.184119	-0.821252	1
H	1.618722	0.986131	-0.992072	1
H	-0.348318	1.884951	-0.655772	1
H	-0.168548	1.681101	1.103488	1
Es	-1.646828	-0.046630	0.093082	99
Es	0.697363	0.915422	0.015742	99
Es	-0.128496	-1.135584	0.031153	99
Es	-0.560995	0.543739	0.115051	99
Es	1.683980	-1.052542	-0.527016	99
Es	-2.310757	-0.051260	0.089930	99
Es	-0.269696	1.662809	-0.393265	99
Es	0.581166	-0.982696	0.029155	99
Es	-0.905366	-0.051112	0.089952	99
Es	-0.073817	1.178162	0.134814	99
Es	-3.461708	-0.051207	0.089939	99
Es	-3.836996	-0.021026	0.092559	99
Es	-2.925603	-0.353249	0.029687	99
Es	1.444417	0.837502	-0.588293	99
Es	-2.926310	0.234962	0.041760	99
Es	1.556250	0.890729	0.133975	99
Es	-0.150292	1.496099	0.772968	99
Es	-0.588474	-0.556644	-0.265385	99
Es	1.331203	0.064356	-0.015647	99
Es	1.304189	-0.746736	0.032279	99
Es	1.597162	-0.964671	0.632842	99
Es	-2.930747	-0.055394	0.195418	99
Es	-0.344549	-1.794538	0.008747	99
Es	-0.575871	-0.587400	0.385180	99
Es	1.321743	0.725236	-0.051966	99
38
Properties=species:S:1:pos:R:3:Z:I:1 energy=-301.7972685172118 field_type=dipole dipole="0.000000 0.000000 0.000000" charge=0
N	-3.462158	-0.051209	0.089938	7
C	-2.311148	-0.051209	0.089938	6
C	-0.905148	-0.051209	0.089938	6
C	-0.128548	-1.135519	0.031158	6
C	1.304242	-0.746849	0.032298	6
N	1.322262	0.725571	-0.051412	7
C	-0.073907	1.178271	0.134848	6
H	-0.472668	-2.159569	-0.005202	1
H	1.793452	-1.076339	0.954108	1
H	1.831762	-1.184119	-0.821252	1
H	1.618722	0.986131	-0.992072	1
H	-0.348318	1.884951	-0.655772	1
H	-0.168548	1.681101	1.103488	1
Es	-2.926543	0.231641	0.027625	99
Es	-0.561175	0.543437	0.114815	99
Es	-0.587193	-0.558651	-0.265925	99
Es	-0.073815	1.178164	0.134815	99
Es	-0.576901	-0.585121	0.385905	99
Es	-0.905366	-0.051110	0.089964	99
Es	1.559895	0.893860	0.128679	99
Es	-2.310757	-0.051260	0.089932	99
Es	-0.269860	1.663702	-0.392424	99
Es	-1.646839	-0.046642	0.092990	99
Es	1.331682	0.064450	-0.014731	99
Es	1.440290	0.834178	-0.584002	99
Es	-2.925734	-0.351707	0.021956	99
Es	-0.344538	-1.794327	0.008898	99
Es	1.304189	-0.746739	0.032278	99
Es	-3.836936	-0.020832	0.092741	99
Es	0.581146	-0.983024	0.029220	99
Es	-0.150202	1.495184	0.772115	99
Es	0.697410	0.915558	0.015932	99
Es	1.685041	-1.053026	-0.525346	99
Es	1.321660	0.725189	-0.052141	99
Es	-0.128506	-1.135603	0.031157	99
Es	1.596135	-0.964107	0.631125	99
Es	-3.461709	-0.051207	0.089937	99
Es	-2.930405	-0.053681	0.217144	99
38
Properties=species:S:1:pos:R:3:Z:I:1 energy=-301.7972685172118 field_type=dipole dipole="0.000000 0.000000 0.000000" charge=0
N	-3.462158	-0.051209	0.089938	7
C	-2.311148	-0.051209	0.089938	6
C	-0.905148	-0.051209	0.089938	6
C	-0.128548	-1.135519	0.031158	6
C	1.304242	-0.746849	0.032298	6
N	1.322262	0.725571	-0.051412	7
C	-0.073907	1.178271	0.134848	6
H	-0.472668	-2.159569	-0.005202	1
H	1.793452	-1.076339	0.954108	1
H	1.831762	-1.184119	-0.821252	1
H	1.618722	0.986131	-0.992072	1
H	-0.348318	1.884951	-0.655772	1
H	-0.168548	1.681101	1.103488	1
Es	-2.310757	-0.051260	0.089938	99
Es	-0.269772	1.662834	-0.393167	99
Es	-0.128495	-1.135584	0.031161	99
Es	-3.461709	-0.051208	0.089937	99
Es	-0.576669	-0.585377	0.386303	99
Es	-0.344149	-1.793478	0.008815	99
Es	1.321859	0.725309	-0.051843	99
Es	-2.925712	-0.356877	0.122766	99
Es	-0.561798	0.542593	0.114864	99
Es	0.697202	0.915109	0.015538	99
Es	1.330788	0.063554	-0.016207	99
Es	-2.930766	-0.052322	0.010497	99
Es	1.596674	-0.964253	0.632031	99
Es	1.684644	-1.052608	-0.526185	99
Es	-2.926246	0.235231	0.133548	99
Es	-0.587074	-0.558116	-0.266517	99
Es	1.304189	-0.746736	0.032279	99
Es	-0.150407	1.496006	0.773009	99
Es	-3.836949	-0.020786	0.092572	99
Es	1.444711	0.837721	-0.588479	99
Es	-0.905366	-0.051114	0.089961	99
Es	0.581129	-0.982355	0.029175	99
Es	1.556269	0.890423	0.134728	99
Es	-1.646815	-0.046536	0.093111	99
Es	-0.073814	1.178161	0.134823	99
