47
Properties=species:S:1:pos:R:3:Z:I:1 energy=-305.286200939358 field_type=dipole dipole="0.000000 0.000000 0.000000" charge=0
N	-0.874797	-2.130314	-1.467269	7
C	-0.690257	-1.653794	-0.101079	6
C	0.156103	-0.389404	-0.091279	6
C	-0.497837	0.911206	-0.635619	6
C	0.091173	1.676436	0.565481	6
N	1.401263	2.217896	0.202771	7
C	0.275513	0.324326	1.282571	6
H	-1.437387	-2.980144	-1.455099	1
H	0.026593	-2.394504	-1.862989	1
H	-0.202447	-2.436203	0.490721	1
H	-1.672717	-1.467594	0.346431	1
H	1.146373	-0.572544	-0.534309	1
H	-1.595147	0.891966	-0.626569	1
H	-0.174757	1.221287	-1.634679	1
H	-0.574677	2.393527	1.051541	1
H	2.004773	1.586316	-0.321409	1
H	1.948013	2.539056	0.999811	1
H	1.217043	0.164836	1.817921	1
H	-0.546827	0.097646	1.973051	1
Es	-1.027925	-1.884310	-1.669760	99
Es	-0.297190	0.161446	1.746886	99
Es	-0.272668	1.128455	-1.314363	99
Es	0.925970	0.221139	1.652619	99
Es	0.855706	1.962285	0.378450	99
Es	1.356493	2.493485	-0.003273	99
Es	-1.364912	-1.522083	0.206209	99
Es	-0.690261	-1.653836	-0.101222	99
Es	-1.202516	-2.654701	-1.444628	99
Es	-0.497816	0.911179	-0.635567	99
Es	0.156088	-0.389374	-0.091251	99
Es	-0.228776	1.368531	-0.070442	99
Es	0.091321	1.676441	0.565433	99
Es	-0.193228	0.217338	-0.438484	99
Es	-1.245367	0.890355	-0.615160	99
Es	1.725023	2.383134	0.703036	99
Es	0.193142	1.027586	1.011270	99
Es	0.242205	-0.109161	0.636964	99
Es	1.401375	2.217463	0.203092	99
Es	-0.783844	-1.948114	-0.871485	99
Es	-0.267216	-1.025129	-0.099543	99
Es	-0.874553	-2.130702	-1.466950	99
Es	-0.355913	2.178851	0.903394	99
Es	0.836969	-0.516196	-0.398820	99
Es	0.275495	0.324299	1.282537	99
Es	-0.321749	-2.302138	-1.686554	99
Es	1.750609	1.804121	-0.088125	99
Es	-0.347365	-2.192116	0.318820	99
47
Properties=species:S:1:pos:R:3:Z:I:1 energy=-305.286200939358 field_type=dipole dipole="0.000000 0.000000 0.000000" charge=0
N	-0.874797	-2.130314	-1.467269	7
C	-0.690257	-1.653794	-0.101079	6
C	0.156103	-0.389404	-0.091279	6
C	-0.497837	0.911206	-0.635619	6
C	0.091173	1.676436	0.565481	6
N	1.401263	2.217896	0.202771	7
C	0.275513	0.324326	1.282571	6
H	-1.437387	-2.980144	-1.455099	1
H	0.026593	-2.394504	-1.862989	1
H	-0.202447	-2.436203	0.490721	1
H	-1.672717	-1.467594	0.346431	1
H	1.146373	-0.572544	-0.534309	1
H	-1.595147	0.891966	-0.626569	1
H	-0.174757	1.221287	-1.634679	1
H	-0.574677	2.393527	1.051541	1
H	2.004773	1.586316	-0.321409	1
H	1.948013	2.539056	0.999811	1
H	1.217043	0.164836	1.817921	1
H	-0.546827	0.097646	1.973051	1
Es	-0.297825	0.161487	1.747127	99
Es	-0.346807	-2.191825	0.318551	99
Es	-0.193341	0.217553	-0.438134	99
Es	-0.497815	0.911180	-0.635567	99
Es	0.091319	1.676439	0.565433	99
Es	-1.028044	-1.884779	-1.669380	99
Es	-1.365545	-1.521713	0.206727	99
Es	-0.690261	-1.653836	-0.101221	99
Es	-0.356194	2.178949	0.903528	99
Es	0.241714	-0.108855	0.636888	99
Es	-0.228581	1.367964	-0.070575	99
Es	-0.874604	-2.130615	-1.467007	99
Es	1.724639	2.382008	0.702999	99
Es	0.837788	-0.516719	-0.399180	99
Es	0.926365	0.221312	1.652488	99
Es	1.401307	2.217597	0.202996	99
Es	0.193261	1.026982	1.010951	99
Es	-0.784447	-1.948046	-0.871578	99
Es	-0.320533	-2.303150	-1.686910	99
Es	-1.202665	-2.653227	-1.444578	99
Es	-0.267339	-1.025026	-0.099528	99
Es	0.853592	1.963933	0.377250	99
Es	-0.272242	1.128519	-1.314354	99
Es	-1.246051	0.890350	-0.614954	99
Es	1.358439	2.492270	0.000593	99
Es	1.751383	1.804570	-0.090767	99
Es	0.156088	-0.389374	-0.091251	99
Es	0.275495	0.324297	1.282537	99
47
Properties=species:S:1:pos:R:3:Z:I:1 energy=-305.286200939358 field_type=dipole dipole="0.000000 0.000000 0.000000" charge=0
N	-0.874797	-2.130314	-1.467269	7
C	-0.690257	-1.653794	-0.101079	6
C	0.156103	-0.389404	-0.091279	6
C	-0.497837	0.911206	-0.635619	6
C	0.091173	1.676436	0.565481	6
N	1.401263	2.217896	0.202771	7
C	0.275513	0.324326	1.282571	6
H	-1.437387	-2.980144	-1.455099	1
H	0.026593	-2.394504	-1.862989	1
H	-0.202447	-2.436203	0.490721	1
H	-1.672717	-1.467594	0.346431	1
H	1.146373	-0.572544	-0.534309	1
H	-1.595147	0.891966	-0.626569	1
H	-0.174757	1.221287	-1.634679	1
H	-0.574677	2.393527	1.051541	1
H	2.004773	1.586316	-0.321409	1
H	1.948013	2.539056	0.999811	1
H	1.217043	0.164836	1.817921	1
H	-0.546827	0.097646	1.973051	1
Es	-0.267140	-1.025028	-0.099430	99
Es	0.091320	1.676440	0.565433	99
Es	0.853033	1.964212	0.376949	99
Es	-1.029830	-1.885337	-1.668375	99
Es	-0.298241	0.161478	1.747207	99
Es	-0.319737	-2.302611	-1.688570	99
Es	-1.246562	0.890448	-0.614852	99
Es	-0.497816	0.911182	-0.635567	99
Es	1.751769	1.805163	-0.092391	99
Es	0.156088	-0.389373	-0.091250	99
Es	-1.365968	-1.521383	0.206958	99
Es	-0.271908	1.128601	-1.314243	99
Es	0.838214	-0.517018	-0.399407	99
Es	-1.201564	-2.652646	-1.444020	99
Es	-0.193500	0.217667	-0.437922	99
Es	-0.228405	1.367505	-0.070752	99
Es	0.275495	0.324298	1.282536	99
Es	-0.690260	-1.653837	-0.101222	99
Es	0.241403	-0.108681	0.637023	99
Es	1.401364	2.217390	0.203151	99
Es	1.724506	2.381142	0.702923	99
Es	-0.874571	-2.130669	-1.466967	99
Es	-0.784296	-1.948384	-0.871612	99
Es	-0.346633	-2.191712	0.318390	99
Es	0.193346	1.026599	1.010731	99
Es	1.358719	2.492399	0.002377	99
Es	-0.356430	2.179049	0.903569	99
Es	0.926700	0.221353	1.652415	99
47
Properties=species:S:1:pos:R:3:Z:I:1 energy=-305.286200939358 field_type=dipole dipole="0.000000 0.000000 0.000000" charge=0
N	-0.874797	-2.130314	-1.467269	7
C	-0.690257	-1.653794	-0.101079	6
C	0.156103	-0.389404	-0.091279	6
C	-0.497837	0.911206	-0.635619	6
C	0.091173	1.676436	0.565481	6
N	1.401263	2.217896	0.202771	7
C	0.275513	0.324326	1.282571	6
H	-1.437387	-2.980144	-1.455099	1
H	0.026593	-2.394504	-1.862989	1
H	-0.202447	-2.436203	0.490721	1
H	-1.672717	-1.467594	0.346431	1
H	1.146373	-0.572544	-0.534309	1
H	-1.595147	0.891966	-0.626569	1
H	-0.174757	1.221287	-1.634679	1
H	-0.574677	2.393527	1.051541	1
H	2.004773	1.586316	-0.321409	1
H	1.948013	2.539056	0.999811	1
H	1.217043	0.164836	1.817921	1
H	-0.546827	0.097646	1.973051	1
Es	-0.874537	-2.130725	-1.466929	99
Es	0.852394	1.964812	0.376350	99
Es	0.838498	-0.517251	-0.399538	99
Es	-1.031004	-1.885432	-1.668444	99
Es	-1.366202	-1.521201	0.207191	99
Es	0.926825	0.221430	1.652344	99
Es	-0.319442	-2.302534	-1.689046	99
Es	-0.193803	0.217705	-0.437735	99
Es	-0.228340	1.367146	-0.070771	99
Es	-0.356520	2.179064	0.903603	99
Es	-0.497815	0.911181	-0.635567	99
Es	1.724278	2.380567	0.702964	99
Es	-0.298475	0.161723	1.747380	99
Es	1.359406	2.492091	0.003795	99
Es	0.091319	1.676438	0.565434	99
Es	-0.346294	-2.191551	0.318318	99
Es	-1.246718	0.890635	-0.614613	99
Es	0.275495	0.324297	1.282537	99
Es	-1.200530	-2.652235	-1.443708	99
Es	0.241131	-0.108706	0.636856	99
Es	0.156089	-0.389373	-0.091252	99
Es	1.752071	1.805386	-0.093346	99
Es	-0.267177	-1.024956	-0.099559	99
Es	-0.784429	-1.948733	-0.871361	99
Es	0.193471	1.026227	1.010686	99
Es	-0.271692	1.128666	-1.314421	99
Es	-0.690261	-1.653836	-0.101221	99
Es	1.401358	2.217408	0.203135	99
47
Properties=species:S:1:pos:R:3:Z:I:1 energy=-305.286200939358 field_type=dipole dipole="0.000000 0.000000 0.000000" charge=0
N	-0.874797	-2.130314	-1.467269	7
C	-0.690257	-1.653794	-0.101079	6
C	0.156103	-0.389404	-0.091279	6
C	-0.497837	0.911206	-0.635619	6
C	0.091173	1.676436	0.565481	6
N	1.401263	2.217896	0.202771	7
C	0.275513	0.324326	1.282571	6
H	-1.437387	-2.980144	-1.455099	1
H	0.026593	-2.394504	-1.862989	1
H	-0.202447	-2.436203	0.490721	1
H	-1.672717	-1.467594	0.346431	1
H	1.146373	-0.572544	-0.534309	1
H	-1.595147	0.891966	-0.626569	1
H	-0.174757	1.221287	-1.634679	1
H	-0.574677	2.393527	1.051541	1
H	2.004773	1.586316	-0.321409	1
H	1.948013	2.539056	0.999811	1
H	1.217043	0.164836	1.817921	1
H	-0.546827	0.097646	1.973051	1
Es	0.927005	0.221397	1.652344	99
Es	-1.247046	0.890492	-0.614602	99
Es	0.193596	1.025954	1.010616	99
Es	-0.267191	-1.024987	-0.099564	99
Es	-0.497816	0.911180	-0.635567	99
Es	-0.690261	-1.653836	-0.101221	99
Es	-0.356623	2.179147	0.903628	99
Es	-0.271544	1.128733	-1.314300	99
Es	0.091319	1.676438	0.565433	99
Es	0.156088	-0.389376	-0.091251	99
Es	-0.874572	-2.130671	-1.466959	99
Es	-1.366376	-1.520975	0.207229	99
Es	1.401354	2.217425	0.203115	99
Es	-0.298744	0.161784	1.747385	99
Es	1.752139	1.805233	-0.093463	99
Es	1.359687	2.491534	0.004100	99
Es	0.838724	-0.517378	-0.399669	99
Es	-1.200834	-2.651390	-1.443930	99
Es	0.240904	-0.108480	0.636927	99
Es	-0.784189	-1.949601	-0.871353	99
Es	-0.319248	-2.303320	-1.689007	99
Es	-1.030961	-1.884543	-1.668250	99
Es	1.724270	2.380841	0.702915	99
Es	-0.193709	0.217788	-0.437729	99
Es	-0.346143	-2.191576	0.318323	99
Es	0.275496	0.324297	1.282537	99
Es	-0.228253	1.366976	-0.070793	99
Es	0.852028	1.965161	0.376189	99
47
Properties=species:S:1:pos:R:3:Z:I:1 energy=-305.286200939358 field_type=dipole dipole="0.000000 0.000000 0.000000" charge=0
N	-0.874797	-2.130314	-1.467269	7
C	-0.690257	-1.653794	-0.101079	6
C	0.156103	-0.389404	-0.091279	6
C	-0.497837	0.911206	-0.635619	6
C	0.091173	1.676436	0.565481	6
N	1.401263	2.217896	0.202771	7
C	0.275513	0.324326	1.282571	6
H	-1.437387	-2.980144	-1.455099	1
H	0.026593	-2.394504	-1.862989	1
H	-0.202447	-2.436203	0.490721	1
H	-1.672717	-1.467594	0.346431	1
H	1.146373	-0.572544	-0.534309	1
H	-1.595147	0.891966	-0.626569	1
H	-0.174757	1.221287	-1.634679	1
H	-0.574677	2.393527	1.051541	1
H	2.004773	1.586316	-0.321409	1
H	1.948013	2.539056	0.999811	1
H	1.217043	0.164836	1.817921	1
H	-0.546827	0.097646	1.973051	1
Es	-0.228102	1.366710	-0.070999	99
Es	0.851372	1.965713	0.375832	99
Es	-0.298864	0.161770	1.747354	99
Es	1.360407	2.491604	0.004870	99
Es	-1.031415	-1.885354	-1.668078	99
Es	0.275493	0.324297	1.282537	99
Es	-1.366513	-1.520875	0.207346	99
Es	-0.497816	0.911180	-0.635567	99
Es	1.724213	2.380060	0.702915	99
Es	-0.874538	-2.130723	-1.466940	99
Es	-1.200437	-2.651219	-1.443579	99
Es	0.838893	-0.517516	-0.399727	99
Es	0.927210	0.221463	1.652363	99
Es	-0.271481	1.128712	-1.314363	99
Es	1.401383	2.217392	0.203159	99
Es	-0.690261	-1.653836	-0.101220	99
Es	1.752111	1.805392	-0.093922	99
Es	-0.193973	0.217824	-0.437659	99
Es	0.091318	1.676436	0.565433	99
Es	-0.784337	-1.949000	-0.871400	99
Es	-0.267114	-1.024939	-0.099534	99
Es	0.193561	1.025827	1.010516	99
Es	-0.345921	-2.191490	0.318290	99
Es	-0.318984	-2.303166	-1.689544	99
Es	-1.247208	0.890631	-0.614402	99
Es	0.240747	-0.108463	0.636985	99
Es	-0.356733	2.179189	0.903668	99
Es	0.156088	-0.389374	-0.091251	99
47
Properties=species:S:1:pos:R:3:Z:I:1 energy=-305.286200939358 field_type=dipole dipole="0.000000 0.000000 0.000000" charge=0
N	-0.874797	-2.130314	-1.467269	7
C	-0.690257	-1.653794	-0.101079	6
C	0.156103	-0.389404	-0.091279	6
C	-0.497837	0.911206	-0.635619	6
C	0.091173	1.676436	0.565481	6
N	1.401263	2.217896	0.202771	7
C	0.275513	0.324326	1.282571	6
H	-1.437387	-2.980144	-1.455099	1
H	0.026593	-2.394504	-1.862989	1
H	-0.202447	-2.436203	0.490721	1
H	-1.672717	-1.467594	0.346431	1
H	1.146373	-0.572544	-0.534309	1
H	-1.595147	0.891966	-0.626569	1
H	-0.174757	1.221287	-1.634679	1
H	-0.574677	2.393527	1.051541	1
H	2.004773	1.586316	-0.321409	1
H	1.948013	2.539056	0.999811	1
H	1.217043	0.164836	1.817921	1
H	-0.546827	0.097646	1.973051	1
Es	-0.271384	1.128748	-1.314385	99
Es	1.752293	1.805475	-0.094351	99
Es	-0.193965	0.217863	-0.437536	99
Es	-0.497816	0.911179	-0.635567	99
Es	-0.690261	-1.653836	-0.101222	99
Es	0.091319	1.676438	0.565434	99
Es	-1.031611	-1.884898	-1.667928	99
Es	-0.318865	-2.303284	-1.689616	99
Es	0.838962	-0.517602	-0.399863	99
Es	0.927253	0.221504	1.652301	99
Es	-0.267138	-1.024923	-0.099580	99
Es	0.275495	0.324297	1.282538	99
Es	-0.784305	-1.949569	-0.871335	99
Es	-0.299019	0.161791	1.747433	99
Es	0.240719	-0.108404	0.637052	99
Es	-0.345820	-2.191538	0.318336	99
Es	-0.228089	1.366601	-0.071050	99
Es	0.193618	1.025648	1.010512	99
Es	1.724023	2.379610	0.702910	99
Es	-0.874540	-2.130730	-1.466923	99
Es	0.156088	-0.389373	-0.091250	99
Es	-0.356781	2.179264	0.903654	99
Es	1.360910	2.491476	0.005686	99
Es	-1.247328	0.890587	-0.614347	99
Es	0.850928	1.966001	0.375547	99
Es	-1.366554	-1.520717	0.207352	99
Es	1.401322	2.217534	0.203042	99
Es	-1.200357	-2.650898	-1.443760	99
47
Properties=species:S:1:pos:R:3:Z:I:1 energy=-305.286200939358 field_type=dipole dipole="0.000000 0.000000 0.000000" charge=0
N	-0.874797	-2.130314	-1.467269	7
C	-0.690257	-1.653794	-0.101079	6
C	0.156103	-0.389404	-0.091279	6
C	-0.497837	0.911206	-0.635619	6
C	0.091173	1.676436	0.565481	6
N	1.401263	2.217896	0.202771	7
C	0.275513	0.324326	1.282571	6
H	-1.437387	-2.980144	-1.455099	1
H	0.026593	-2.394504	-1.862989	1
H	-0.202447	-2.436203	0.490721	1
H	-1.672717	-1.467594	0.346431	1
H	1.146373	-0.572544	-0.534309	1
H	-1.595147	0.891966	-0.626569	1
H	-0.174757	1.221287	-1.634679	1
H	-0.574677	2.393527	1.051541	1
H	2.004773	1.586316	-0.321409	1
H	1.948013	2.539056	0.999811	1
H	1.217043	0.164836	1.817921	1
H	-0.546827	0.097646	1.973051	1
Es	0.851099	1.965934	0.375739	99
Es	-0.267172	-1.024908	-0.099623	99
Es	0.839029	-0.517688	-0.399963	99
Es	-0.356801	2.179249	0.903597	99
Es	0.275494	0.324295	1.282538	99
Es	-0.228094	1.366518	-0.071075	99
Es	1.724133	2.379611	0.702793	99
Es	-0.271321	1.128775	-1.314393	99
Es	-0.318710	-2.303080	-1.689984	99
Es	-1.199809	-2.650856	-1.443443	99
Es	1.752321	1.805629	-0.094849	99
Es	-0.345669	-2.191425	0.318279	99
Es	1.401361	2.217412	0.203138	99
Es	0.927465	0.221467	1.652273	99
Es	0.156088	-0.389374	-0.091250	99
Es	-0.784330	-1.949421	-0.871331	99
Es	-1.032192	-1.885287	-1.667868	99
Es	-0.497816	0.911180	-0.635567	99
Es	-0.299123	0.161835	1.747426	99
Es	1.360604	2.491520	0.005971	99
Es	-0.690262	-1.653835	-0.101221	99
Es	0.240591	-0.108366	0.637141	99
Es	0.193580	1.025466	1.010501	99
Es	-0.194034	0.217929	-0.437410	99
Es	-1.247420	0.890623	-0.614286	99
Es	-1.366684	-1.520671	0.207457	99
Es	-0.874551	-2.130727	-1.466936	99
Es	0.091320	1.676441	0.565431	99
47
Properties=species:S:1:pos:R:3:Z:I:1 energy=-305.286200939358 field_type=dipole dipole="0.000000 0.000000 0.000000" charge=0
N	-0.874797	-2.130314	-1.467269	7
C	-0.690257	-1.653794	-0.101079	6
C	0.156103	-0.389404	-0.091279	6
C	-0.497837	0.911206	-0.635619	6
C	0.091173	1.676436	0.565481	6
N	1.401263	2.217896	0.202771	7
C	0.275513	0.324326	1.282571	6
H	-1.437387	-2.980144	-1.455099	1
H	0.026593	-2.394504	-1.862989	1
H	-0.202447	-2.436203	0.490721	1
H	-1.672717	-1.467594	0.346431	1
H	1.146373	-0.572544	-0.534309	1
H	-1.595147	0.891966	-0.626569	1
H	-0.174757	1.221287	-1.634679	1
H	-0.574677	2.393527	1.051541	1
H	2.004773	1.586316	-0.321409	1
H	1.948013	2.539056	0.999811	1
H	1.217043	0.164836	1.817921	1
H	-0.546827	0.097646	1.973051	1
Es	-0.228132	1.366471	-0.071210	99
Es	-0.356811	2.179224	0.903694	99
Es	-1.031748	-1.884760	-1.667744	99
Es	0.927469	0.221509	1.652300	99
Es	1.360368	2.491594	0.006366	99
Es	-0.318622	-2.303845	-1.689814	99
Es	-0.271258	1.128792	-1.314369	99
Es	-1.200288	-2.650020	-1.443964	99
Es	0.156089	-0.389374	-0.091250	99
Es	-1.247458	0.890678	-0.614301	99
Es	0.851151	1.965622	0.375950	99
Es	0.091319	1.676439	0.565433	99
Es	-1.366771	-1.520595	0.207427	99
Es	0.240476	-0.108333	0.637097	99
Es	0.193620	1.025412	1.010363	99
Es	-0.874553	-2.130672	-1.466942	99
Es	1.752550	1.805965	-0.095250	99
Es	1.401379	2.217396	0.203147	99
Es	-0.784273	-1.950074	-0.871105	99
Es	-0.690262	-1.653837	-0.101221	99
Es	-0.345687	-2.191393	0.318302	99
Es	-0.267102	-1.024903	-0.099577	99
Es	1.724078	2.379514	0.702660	99
Es	-0.497816	0.911182	-0.635568	99
Es	-0.299243	0.161838	1.747418	99
Es	-0.194069	0.217874	-0.437437	99
Es	0.839197	-0.517753	-0.399861	99
Es	0.275495	0.324297	1.282537	99
47
Properties=species:S:1:pos:R:3:Z:I:1 energy=-305.286200939358 field_type=dipole dipole="0.000000 0.000000 0.000000" charge=0
N	-0.874797	-2.130314	-1.467269	7
C	-0.690257	-1.653794	-0.101079	6
C	0.156103	-0.389404	-0.091279	6
C	-0.497837	0.911206	-0.635619	6
C	0.091173	1.676436	0.565481	6
N	1.401263	2.217896	0.202771	7
C	0.275513	0.324326	1.282571	6
H	-1.437387	-2.980144	-1.455099	1
H	0.026593	-2.394504	-1.862989	1
H	-0.202447	-2.436203	0.490721	1
H	-1.672717	-1.467594	0.346431	1
H	1.146373	-0.572544	-0.534309	1
H	-1.595147	0.891966	-0.626569	1
H	-0.174757	1.221287	-1.634679	1
H	-0.574677	2.393527	1.051541	1
H	2.004773	1.586316	-0.321409	1
H	1.948013	2.539056	0.999811	1
H	1.217043	0.164836	1.817921	1
H	-0.546827	0.097646	1.973051	1
Es	-1.247562	0.890787	-0.614121	99
Es	0.275495	0.324298	1.282537	99
Es	0.850519	1.966309	0.375262	99
Es	0.927463	0.221418	1.652328	99
Es	-0.356806	2.179216	0.903698	99
Es	-0.299344	0.161974	1.747411	99
Es	-0.271149	1.128779	-1.314474	99
Es	-0.345585	-2.191364	0.318307	99
Es	-0.267161	-1.024876	-0.099591	99
Es	-0.784197	-1.950171	-0.871224	99
Es	-0.228084	1.366248	-0.071250	99
Es	1.723978	2.378708	0.702887	99
Es	-0.497816	0.911172	-0.635566	99
Es	-1.032205	-1.884663	-1.667743	99
Es	-1.366792	-1.520488	0.207492	99
Es	1.361335	2.491711	0.006800	99
Es	0.839221	-0.517904	-0.399922	99
Es	1.401357	2.217411	0.203149	99
Es	0.156089	-0.389374	-0.091250	99
Es	-0.194172	0.217917	-0.437431	99
Es	-0.318604	-2.303616	-1.689960	99
Es	0.240391	-0.108248	0.637071	99
Es	0.091319	1.676439	0.565431	99
Es	-0.690261	-1.653837	-0.101220	99
Es	-1.199924	-2.650172	-1.443752	99
Es	0.193751	1.025343	1.010450	99
Es	-0.874545	-2.130723	-1.466934	99
Es	1.752386	1.805951	-0.095301	99
47
Properties=species:S:1:pos:R:3:Z:I:1 energy=-305.286200939358 field_type=dipole dipole="0.000000 0.000000 0.000000" charge=0
N	-0.874797	-2.130314	-1.467269	7
C	-0.690257	-1.653794	-0.101079	6
C	0.156103	-0.389404	-0.091279	6
C	-0.497837	0.911206	-0.635619	6
C	0.091173	1.676436	0.565481	6
N	1.401263	2.217896	0.202771	7
C	0.275513	0.324326	1.282571	6
H	-1.437387	-2.980144	-1.455099	1
H	0.026593	-2.394504	-1.862989	1
H	-0.202447	-2.436203	0.490721	1
H	-1.672717	-1.467594	0.346431	1
H	1.146373	-0.572544	-0.534309	1
H	-1.595147	0.891966	-0.626569	1
H	-0.174757	1.221287	-1.634679	1
H	-0.574677	2.393527	1.051541	1
H	2.004773	1.586316	-0.321409	1
H	1.948013	2.539056	0.999811	1
H	1.217043	0.164836	1.817921	1
H	-0.546827	0.097646	1.973051	1
Es	0.193687	1.025279	1.010508	99
Es	1.401370	2.217378	0.203154	99
Es	0.240385	-0.108158	0.636900	99
Es	-0.271156	1.128794	-1.314445	99
Es	-0.356843	2.179229	0.903710	99
Es	-1.366869	-1.520516	0.207546	99
Es	-0.784177	-1.950100	-0.871254	99
Es	-0.874548	-2.130680	-1.466968	99
Es	-1.199221	-2.650150	-1.443336	99
Es	-0.194184	0.218013	-0.437411	99
Es	0.927540	0.221488	1.652243	99
Es	0.275496	0.324298	1.282538	99
Es	0.156089	-0.389375	-0.091250	99
Es	-0.267127	-1.024926	-0.099511	99
Es	-0.299355	0.161874	1.747470	99
Es	1.752418	1.806057	-0.095678	99
Es	1.723945	2.378420	0.702939	99
Es	0.839296	-0.517865	-0.399933	99
Es	-0.228083	1.366252	-0.071315	99
Es	0.850430	1.966421	0.375204	99
Es	-0.345502	-2.191310	0.318259	99
Es	0.091319	1.676438	0.565432	99
Es	-0.690261	-1.653835	-0.101220	99
Es	-0.497815	0.911180	-0.635566	99
Es	-0.318519	-2.303468	-1.690154	99
Es	1.361393	2.491799	0.007236	99
Es	-1.247645	0.890641	-0.614127	99
Es	-1.032966	-1.884932	-1.667885	99
47
Properties=species:S:1:pos:R:3:Z:I:1 energy=-305.286200939358 field_type=dipole dipole="0.000000 0.000000 0.000000" charge=0
N	-0.874797	-2.130314	-1.467269	7
C	-0.690257	-1.653794	-0.101079	6
C	0.156103	-0.389404	-0.091279	6
C	-0.497837	0.911206	-0.635619	6
C	0.091173	1.676436	0.565481	6
N	1.401263	2.217896	0.202771	7
C	0.275513	0.324326	1.282571	6
H	-1.437387	-2.980144	-1.455099	1
H	0.026593	-2.394504	-1.862989	1
H	-0.202447	-2.436203	0.490721	1
H	-1.672717	-1.467594	0.346431	1
H	1.146373	-0.572544	-0.534309	1
H	-1.595147	0.891966	-0.626569	1
H	-0.174757	1.221287	-1.634679	1
H	-0.574677	2.393527	1.051541	1
H	2.004773	1.586316	-0.321409	1
H	1.948013	2.539056	0.999811	1
H	1.217043	0.164836	1.817921	1
H	-0.546827	0.097646	1.973051	1
Es	-0.318429	-2.303495	-1.690080	99
Es	0.193737	1.025162	1.010463	99
Es	-0.266927	-1.024873	-0.099497	99
Es	-0.227983	1.366173	-0.071258	99
Es	-0.690261	-1.653836	-0.101221	99
Es	0.091319	1.676438	0.565432	99
Es	-0.356905	2.179245	0.903681	99
Es	-1.199062	-2.650180	-1.443193	99
Es	1.723948	2.378617	0.702879	99
Es	-0.497816	0.911179	-0.635567	99
Es	0.240252	-0.108204	0.637008	99
Es	0.927604	0.221448	1.652321	99
Es	-1.247703	0.890684	-0.614049	99
Es	-0.874572	-2.130652	-1.466972	99
Es	0.839330	-0.517933	-0.399994	99
Es	-0.345495	-2.191349	0.318147	99
Es	-1.033028	-1.885161	-1.668085	99
Es	-0.784370	-1.949759	-0.871245	99
Es	-0.271118	1.128827	-1.314478	99
Es	1.401373	2.217434	0.203134	99
Es	0.156089	-0.389373	-0.091250	99
Es	-1.366914	-1.520446	0.207643	99
Es	0.275495	0.324297	1.282537	99
Es	-0.299374	0.162000	1.747411	99
Es	0.850199	1.966681	0.375096	99
Es	-0.194317	0.217971	-0.437455	99
Es	1.752407	1.805876	-0.095475	99
Es	1.361617	2.491475	0.007152	99
47
Properties=species:S:1:pos:R:3:Z:I:1 energy=-305.286200939358 field_type=dipole dipole="0.000000 0.000000 0.000000" charge=0
N	-0.874797	-2.130314	-1.467269	7
C	-0.690257	-1.653794	-0.101079	6
C	0.156103	-0.389404	-0.091279	6
C	-0.497837	0.911206	-0.635619	6
C	0.091173	1.676436	0.565481	6
N	1.401263	2.217896	0.202771	7
C	0.275513	0.324326	1.282571	6
H	-1.437387	-2.980144	-1.455099	1
H	0.026593	-2.394504	-1.862989	1
H	-0.202447	-2.436203	0.490721	1
H	-1.672717	-1.467594	0.346431	1
H	1.146373	-0.572544	-0.534309	1
H	-1.595147	0.891966	-0.626569	1
H	-0.174757	1.221287	-1.634679	1
H	-0.574677	2.393527	1.051541	1
H	2.004773	1.586316	-0.321409	1
H	1.948013	2.539056	0.999811	1
H	1.217043	0.164836	1.817921	1
H	-0.546827	0.097646	1.973051	1
Es	1.401365	2.217398	0.203144	99
Es	-1.247738	0.890715	-0.614052	99
Es	0.850093	1.966641	0.375094	99
Es	1.723985	2.379001	0.702829	99
Es	1.361552	2.491028	0.007376	99
Es	-0.267071	-1.024830	-0.099627	99
Es	-0.356909	2.179241	0.903653	99
Es	0.156088	-0.389373	-0.091250	99
Es	-1.199123	-2.649916	-1.443291	99
Es	-0.497816	0.911180	-0.635567	99
Es	0.240293	-0.108297	0.637139	99
Es	-0.228065	1.366078	-0.071347	99
Es	1.752542	1.806015	-0.095665	99
Es	0.193685	1.025126	1.010406	99
Es	-0.874560	-2.130753	-1.466935	99
Es	0.927660	0.221600	1.652228	99
Es	-0.271054	1.128835	-1.314468	99
Es	-1.366910	-1.520432	0.207609	99
Es	-0.194273	0.218042	-0.437304	99
Es	-0.690261	-1.653835	-0.101221	99
Es	0.839371	-0.517943	-0.400004	99
Es	-0.299455	0.161892	1.747511	99
Es	-0.318427	-2.303703	-1.690089	99
Es	0.275495	0.324297	1.282537	99
Es	-0.345373	-2.191327	0.318236	99
Es	0.091319	1.676438	0.565432	99
Es	-1.033000	-1.884797	-1.668038	99
Es	-0.784316	-1.950077	-0.871254	99
