37
Properties=species:S:1:pos:R:3:Z:I:1 energy=-317.77789032584155 field_type=dipole dipole="0.000000 0.000000 0.000000" charge=0
N	-3.467985	-0.496821	0.064167	7
C	-2.306265	-0.465801	0.097047	6
C	-0.877925	-0.363771	0.127757	6
N	-0.187465	-1.459391	0.139037	7
N	1.107705	-1.050071	0.208197	7
C	1.253255	0.352529	-0.178433	6
C	-0.121615	0.911589	0.149967	6
H	1.751315	-1.677271	-0.279693	1
H	1.451985	0.429289	-1.253393	1
H	2.053985	0.855489	0.370017	1
H	-0.487595	1.618469	-0.597643	1
H	-0.169395	1.345759	1.152977	1
Es	1.169444	-0.448339	0.014690	99
Es	-0.276078	-1.815628	0.133663	99
Es	-2.940217	-0.350630	0.355963	99
Es	1.107376	-1.050035	0.207526	99
Es	-2.305907	-0.465788	0.097055	99
Es	-0.187246	-1.458774	0.139047	99
Es	0.464191	-1.237832	0.123472	99
Es	-2.918130	-0.789675	0.053667	99
Es	1.385050	0.403952	-0.916348	99
Es	-3.834297	-0.508087	0.053195	99
Es	-0.552114	-0.922982	-0.159011	99
Es	-0.121624	0.911501	0.149956	99
Es	-0.551013	-0.935505	0.409243	99
Es	-0.546015	0.283635	0.134764	99
Es	-0.368631	1.382353	-0.349852	99
Es	-3.467524	-0.496807	0.064180	99
Es	-0.154864	1.193961	0.822737	99
Es	0.570882	0.658818	-0.013041	99
Es	1.104232	-1.072904	0.519603	99
Es	1.253195	0.352397	-0.178385	99
Es	-1.631348	-0.410248	0.117432	99
Es	-2.926806	-0.305225	-0.171808	99
Es	1.478857	-1.420474	-0.101603	99
Es	-0.878095	-0.363782	0.127772	99
Es	1.797377	0.689416	0.192427	99
37
Properties=species:S:1:pos:R:3:Z:I:1 energy=-317.77789032584155 field_type=dipole dipole="0.000000 0.000000 0.000000" charge=0
N	-3.467985	-0.496821	0.064167	7
C	-2.306265	-0.465801	0.097047	6
C	-0.877925	-0.363771	0.127757	6
N	-0.187465	-1.459391	0.139037	7
N	1.107705	-1.050071	0.208197	7
C	1.253255	0.352529	-0.178433	6
C	-0.121615	0.911589	0.149967	6
H	1.751315	-1.677271	-0.279693	1
H	1.451985	0.429289	-1.253393	1
H	2.053985	0.855489	0.370017	1
H	-0.487595	1.618469	-0.597643	1
H	-0.169395	1.345759	1.152977	1
Es	1.090235	-1.064014	0.488430	99
Es	-1.632657	-0.413743	0.117160	99
Es	0.572258	0.660817	-0.014134	99
Es	-0.546465	0.283006	0.137283	99
Es	1.107322	-1.050037	0.207453	99
Es	-2.931963	-0.217848	-0.059427	99
Es	1.253198	0.352401	-0.178388	99
Es	-0.187236	-1.458761	0.139047	99
Es	-2.914965	-0.746663	-0.071717	99
Es	-0.371205	1.382895	-0.347386	99
Es	1.800947	0.688200	0.190365	99
Es	-3.467527	-0.496806	0.064179	99
Es	0.464220	-1.244487	0.128493	99
Es	1.171888	-0.447412	0.017567	99
Es	-0.878099	-0.363779	0.127781	99
Es	-2.305886	-0.465791	0.097058	99
Es	1.384988	0.401357	-0.910815	99
Es	-0.552802	-0.937477	0.409545	99
Es	-3.839875	-0.498108	0.052457	99
Es	-0.157300	1.191308	0.817851	99
Es	-0.553008	-0.922574	-0.159223	99
Es	-2.934075	-0.486792	0.369102	99
Es	1.496478	-1.428442	-0.079957	99
Es	-0.276153	-1.805433	0.133664	99
Es	-0.121624	0.911503	0.149960	99
37
Properties=species:S:1:pos:R:3:Z:I:1 energy=-317.77789032584155 field_type=dipole dipole="0.000000 0.000000 0.000000" charge=0
N	-3.467985	-0.496821	0.064167	7
C	-2.306265	-0.465801	0.097047	6
C	-0.877925	-0.363771	0.127757	6
N	-0.187465	-1.459391	0.139037	7
N	1.107705	-1.050071	0.208197	7
C	1.253255	0.352529	-0.178433	6
C	-0.121615	0.911589	0.149967	6
H	1.751315	-1.677271	-0.279693	1
H	1.451985	0.429289	-1.253393	1
H	2.053985	0.855489	0.370017	1
H	-0.487595	1.618469	-0.597643	1
H	-0.169395	1.345759	1.152977	1
Es	1.082662	-1.061686	0.465200	99
Es	1.505416	-1.430853	-0.064138	99
Es	-0.546879	0.282146	0.138928	99
Es	-0.187236	-1.458751	0.139047	99
Es	1.173064	-0.446677	0.020942	99
Es	-3.467527	-0.496806	0.064179	99
Es	-2.917918	-0.461095	-0.196784	99
Es	1.107321	-1.050032	0.207469	99
Es	-0.554991	-0.938771	0.411281	99
Es	-2.939388	-0.230981	0.235476	99
Es	-0.878100	-0.363777	0.127781	99
Es	-0.274784	-1.797008	0.133038	99
Es	1.803872	0.687572	0.188769	99
Es	-0.158364	1.189287	0.814361	99
Es	-0.372633	1.383334	-0.346075	99
Es	0.572775	0.661640	-0.014670	99
Es	0.464244	-1.248350	0.131036	99
Es	1.383884	0.399854	-0.906161	99
Es	-1.633347	-0.415291	0.117005	99
Es	-0.553231	-0.923550	-0.160639	99
Es	-0.121624	0.911501	0.149957	99
Es	-2.305885	-0.465801	0.097051	99
Es	1.253194	0.352395	-0.178386	99
Es	-3.841243	-0.494207	0.050982	99
Es	-2.922594	-0.760774	0.200698	99
37
Properties=species:S:1:pos:R:3:Z:I:1 energy=-317.77789032584155 field_type=dipole dipole="0.000000 0.000000 0.000000" charge=0
N	-3.467985	-0.496821	0.064167	7
C	-2.306265	-0.465801	0.097047	6
C	-0.877925	-0.363771	0.127757	6
N	-0.187465	-1.459391	0.139037	7
N	1.107705	-1.050071	0.208197	7
C	1.253255	0.352529	-0.178433	6
C	-0.121615	0.911589	0.149967	6
H	1.751315	-1.677271	-0.279693	1
H	1.451985	0.429289	-1.253393	1
H	2.053985	0.855489	0.370017	1
H	-0.487595	1.618469	-0.597643	1
H	-0.169395	1.345759	1.152977	1
Es	1.253197	0.352399	-0.178385	99
Es	-2.938478	-0.281868	0.290034	99
Es	-2.305881	-0.465816	0.097057	99
Es	-0.273012	-1.789928	0.132960	99
Es	-0.554489	-0.923445	-0.162533	99
Es	-0.158547	1.187389	0.811259	99
Es	1.078122	-1.061774	0.445918	99
Es	1.510734	-1.431291	-0.051692	99
Es	-0.547579	0.281255	0.140331	99
Es	1.806041	0.686954	0.187327	99
Es	-0.555725	-0.941269	0.412833	99
Es	-0.373689	1.384109	-0.344859	99
Es	-3.467529	-0.496806	0.064180	99
Es	1.106942	-1.050064	0.207477	99
Es	1.382810	0.398918	-0.902389	99
Es	-1.633745	-0.415647	0.117028	99
Es	-0.187243	-1.458751	0.139045	99
Es	-0.121624	0.911502	0.149960	99
Es	1.174029	-0.445696	0.024809	99
Es	-2.919461	-0.784219	0.122981	99
Es	-0.878103	-0.363773	0.127770	99
Es	-2.921564	-0.389101	-0.173449	99
Es	-3.841716	-0.490827	0.050798	99
Es	0.464158	-1.250951	0.132950	99
Es	0.573043	0.662020	-0.015063	99
37
Properties=species:S:1:pos:R:3:Z:I:1 energy=-317.77789032584155 field_type=dipole dipole="0.000000 0.000000 0.000000" charge=0
N	-3.467985	-0.496821	0.064167	7
C	-2.306265	-0.465801	0.097047	6
C	-0.877925	-0.363771	0.127757	6
N	-0.187465	-1.459391	0.139037	7
N	1.107705	-1.050071	0.208197	7
C	1.253255	0.352529	-0.178433	6
C	-0.121615	0.911589	0.149967	6
H	1.751315	-1.677271	-0.279693	1
H	1.451985	0.429289	-1.253393	1
H	2.053985	0.855489	0.370017	1
H	-0.487595	1.618469	-0.597643	1
H	-0.169395	1.345759	1.152977	1
Es	1.107589	-1.050070	0.208200	99
Es	-0.554862	-0.923780	-0.164078	99
Es	-0.271476	-1.784139	0.132632	99
Es	-0.878104	-0.363775	0.127798	99
Es	-0.547930	0.280344	0.141973	99
Es	1.381723	0.398169	-0.898835	99
Es	-0.374715	1.384695	-0.344105	99
Es	1.513952	-1.430926	-0.042788	99
Es	1.174373	-0.445488	0.027318	99
Es	-0.121624	0.911501	0.149958	99
Es	-2.934075	-0.199897	0.005306	99
Es	-2.932371	-0.536963	0.339289	99
Es	-0.158618	1.185825	0.808575	99
Es	-2.912884	-0.719532	-0.106449	99
Es	1.074765	-1.062055	0.431619	99
Es	-3.467526	-0.496806	0.064179	99
Es	-3.841923	-0.488998	0.051967	99
Es	0.463983	-1.252753	0.134188	99
Es	0.573192	0.662433	-0.015296	99
Es	1.253195	0.352398	-0.178384	99
Es	-0.187227	-1.458745	0.139047	99
Es	1.807931	0.686431	0.185786	99
Es	-1.633999	-0.415842	0.117330	99
Es	-0.556797	-0.942893	0.414070	99
Es	-2.305880	-0.465816	0.097049	99
37
Properties=species:S:1:pos:R:3:Z:I:1 energy=-317.77789032584155 field_type=dipole dipole="0.000000 0.000000 0.000000" charge=0
N	-3.467985	-0.496821	0.064167	7
C	-2.306265	-0.465801	0.097047	6
C	-0.877925	-0.363771	0.127757	6
N	-0.187465	-1.459391	0.139037	7
N	1.107705	-1.050071	0.208197	7
C	1.253255	0.352529	-0.178433	6
C	-0.121615	0.911589	0.149967	6
H	1.751315	-1.677271	-0.279693	1
H	1.451985	0.429289	-1.253393	1
H	2.053985	0.855489	0.370017	1
H	-0.487595	1.618469	-0.597643	1
H	-0.169395	1.345759	1.152977	1
Es	-0.121624	0.911502	0.149959	99
Es	-2.925263	-0.343329	-0.141798	99
Es	-1.634133	-0.415868	0.116905	99
Es	-0.375227	1.385513	-0.343020	99
Es	-0.158396	1.184381	0.806300	99
Es	-2.937469	-0.326147	0.316859	99
Es	-0.270262	-1.779232	0.132219	99
Es	-0.548576	0.279609	0.143151	99
Es	-2.916604	-0.788122	0.064099	99
Es	1.516061	-1.430267	-0.036247	99
Es	1.174632	-0.445498	0.029301	99
Es	-0.878103	-0.363776	0.127797	99
Es	0.463817	-1.254427	0.135429	99
Es	1.253195	0.352399	-0.178384	99
Es	1.073305	-1.062630	0.421727	99
Es	1.380470	0.397757	-0.895331	99
Es	-2.305879	-0.465828	0.097057	99
Es	-0.554698	-0.924590	-0.165224	99
Es	-0.187245	-1.458745	0.139043	99
Es	-3.467527	-0.496806	0.064179	99
Es	1.809694	0.685869	0.183923	99
Es	-3.841924	-0.487226	0.051505	99
Es	1.107277	-1.050039	0.207391	99
Es	0.573239	0.662561	-0.015536	99
Es	-0.558068	-0.943743	0.415041	99
37
Properties=species:S:1:pos:R:3:Z:I:1 energy=-317.77789032584155 field_type=dipole dipole="0.000000 0.000000 0.000000" charge=0
N	-3.467985	-0.496821	0.064167	7
C	-2.306265	-0.465801	0.097047	6
C	-0.877925	-0.363771	0.127757	6
N	-0.187465	-1.459391	0.139037	7
N	1.107705	-1.050071	0.208197	7
C	1.253255	0.352529	-0.178433	6
C	-0.121615	0.911589	0.149967	6
H	1.751315	-1.677271	-0.279693	1
H	1.451985	0.429289	-1.253393	1
H	2.053985	0.855489	0.370017	1
H	-0.487595	1.618469	-0.597643	1
H	-0.169395	1.345759	1.152977	1
Es	-2.932748	-0.531573	0.324452	99
Es	1.517460	-1.429370	-0.032345	99
Es	1.810899	0.684962	0.183080	99
Es	1.072313	-1.062715	0.415378	99
Es	-0.376049	1.385781	-0.342555	99
Es	-0.187218	-1.458794	0.139051	99
Es	-2.934323	-0.199101	0.012956	99
Es	1.253195	0.352396	-0.178383	99
Es	-2.305879	-0.465828	0.097061	99
Es	1.107508	-1.050040	0.207835	99
Es	1.174199	-0.445685	0.030101	99
Es	-2.912107	-0.726743	-0.099391	99
Es	-0.158434	1.183356	0.804811	99
Es	-0.554879	-0.925642	-0.166841	99
Es	-1.634265	-0.415994	0.117367	99
Es	0.573304	0.662619	-0.015519	99
Es	-0.559082	-0.944851	0.416636	99
Es	-3.467527	-0.496805	0.064180	99
Es	0.463649	-1.255119	0.135970	99
Es	-0.548795	0.278914	0.143799	99
Es	-0.878103	-0.363775	0.127788	99
Es	-0.121624	0.911501	0.149959	99
Es	-0.268585	-1.774464	0.132038	99
Es	-3.842066	-0.487072	0.052276	99
Es	1.379849	0.397361	-0.893360	99
37
Properties=species:S:1:pos:R:3:Z:I:1 energy=-317.77789032584155 field_type=dipole dipole="0.000000 0.000000 0.000000" charge=0
N	-3.467985	-0.496821	0.064167	7
C	-2.306265	-0.465801	0.097047	6
C	-0.877925	-0.363771	0.127757	6
N	-0.187465	-1.459391	0.139037	7
N	1.107705	-1.050071	0.208197	7
C	1.253255	0.352529	-0.178433	6
C	-0.121615	0.911589	0.149967	6
H	1.751315	-1.677271	-0.279693	1
H	1.451985	0.429289	-1.253393	1
H	2.053985	0.855489	0.370017	1
H	-0.487595	1.618469	-0.597643	1
H	-0.169395	1.345759	1.152977	1
Es	-2.911828	-0.739112	-0.084451	99
Es	-0.559906	-0.945953	0.417713	99
Es	0.463548	-1.255733	0.136351	99
Es	0.573298	0.662579	-0.015604	99
Es	-1.634337	-0.416031	0.117325	99
Es	-2.933279	-0.511966	0.324979	99
Es	-2.305878	-0.465831	0.097061	99
Es	-3.842048	-0.486122	0.052516	99
Es	-0.267266	-1.770640	0.131822	99
Es	-0.878105	-0.363775	0.127783	99
Es	1.379037	0.397119	-0.890943	99
Es	-0.187231	-1.458728	0.139044	99
Es	-0.376481	1.386263	-0.341807	99
Es	-0.554891	-0.926169	-0.168380	99
Es	1.107022	-1.050060	0.207374	99
Es	1.518516	-1.428619	-0.029067	99
Es	1.175051	-0.444683	0.034271	99
Es	-3.467526	-0.496806	0.064180	99
Es	1.812045	0.684363	0.181691	99
Es	1.253196	0.352399	-0.178384	99
Es	-0.549371	0.278198	0.144825	99
Es	-0.158278	1.182364	0.803322	99
Es	1.071101	-1.064259	0.407372	99
Es	-2.934072	-0.206979	-0.002603	99
Es	-0.121624	0.911501	0.149957	99
37
Properties=species:S:1:pos:R:3:Z:I:1 energy=-317.77789032584155 field_type=dipole dipole="0.000000 0.000000 0.000000" charge=0
N	-3.467985	-0.496821	0.064167	7
C	-2.306265	-0.465801	0.097047	6
C	-0.877925	-0.363771	0.127757	6
N	-0.187465	-1.459391	0.139037	7
N	1.107705	-1.050071	0.208197	7
C	1.253255	0.352529	-0.178433	6
C	-0.121615	0.911589	0.149967	6
H	1.751315	-1.677271	-0.279693	1
H	1.451985	0.429289	-1.253393	1
H	2.053985	0.855489	0.370017	1
H	-0.487595	1.618469	-0.597643	1
H	-0.169395	1.345759	1.152977	1
Es	-1.634377	-0.415961	0.116959	99
Es	1.070862	-1.063851	0.403711	99
Es	1.174410	-0.445209	0.033295	99
Es	-0.549687	0.277674	0.145148	99
Es	0.573349	0.662564	-0.015306	99
Es	-0.187257	-1.458759	0.139041	99
Es	1.378402	0.396915	-0.889230	99
Es	-0.555953	-0.925931	-0.169275	99
Es	-0.157944	1.180900	0.801265	99
Es	-2.937887	-0.279647	0.285857	99
Es	1.519307	-1.428024	-0.026105	99
Es	-3.842069	-0.485862	0.052156	99
Es	1.107303	-1.050039	0.207402	99
Es	-2.916407	-0.788145	0.089364	99
Es	-0.878105	-0.363769	0.127781	99
Es	-0.559597	-0.947866	0.418740	99
Es	1.253196	0.352399	-0.178385	99
Es	-2.305878	-0.465831	0.097056	99
Es	-3.467527	-0.496806	0.064180	99
Es	-0.377128	1.387315	-0.340879	99
Es	1.812918	0.683772	0.180448	99
Es	-0.121625	0.911503	0.149959	99
Es	-0.266164	-1.767197	0.132012	99
Es	0.463403	-1.256592	0.137577	99
Es	-2.924852	-0.390234	-0.136426	99
37
Properties=species:S:1:pos:R:3:Z:I:1 energy=-317.77789032584155 field_type=dipole dipole="0.000000 0.000000 0.000000" charge=0
N	-3.467985	-0.496821	0.064167	7
C	-2.306265	-0.465801	0.097047	6
C	-0.877925	-0.363771	0.127757	6
N	-0.187465	-1.459391	0.139037	7
N	1.107705	-1.050071	0.208197	7
C	1.253255	0.352529	-0.178433	6
C	-0.121615	0.911589	0.149967	6
H	1.751315	-1.677271	-0.279693	1
H	1.451985	0.429289	-1.253393	1
H	2.053985	0.855489	0.370017	1
H	-0.487595	1.618469	-0.597643	1
H	-0.169395	1.345759	1.152977	1
Es	-0.158016	1.180860	0.800772	99
Es	-3.842150	-0.485881	0.052386	99
Es	-0.549736	0.277151	0.146039	99
Es	-0.560689	-0.947972	0.419562	99
Es	-1.634428	-0.416058	0.116906	99
Es	-0.121626	0.911503	0.149960	99
Es	1.173965	-0.445229	0.033829	99
Es	0.463303	-1.257096	0.137817	99
Es	0.573329	0.662557	-0.015430	99
Es	-0.187240	-1.458993	0.139053	99
Es	1.378178	0.396620	-0.888142	99
Es	-3.467527	-0.496806	0.064179	99
Es	-2.924438	-0.410435	-0.133885	99
Es	-2.938096	-0.260251	0.266507	99
Es	1.253195	0.352398	-0.178384	99
Es	1.813518	0.682980	0.180001	99
Es	-2.305878	-0.465832	0.097057	99
Es	-0.377600	1.386861	-0.340994	99
Es	-0.878106	-0.363772	0.127781	99
Es	-0.555495	-0.927175	-0.170533	99
Es	1.106950	-1.050069	0.207370	99
Es	1.519997	-1.427180	-0.024603	99
Es	-0.265157	-1.763864	0.131911	99
Es	-2.916511	-0.787070	0.106010	99
Es	1.070950	-1.063927	0.401180	99
37
Properties=species:S:1:pos:R:3:Z:I:1 energy=-317.77789032584155 field_type=dipole dipole="0.000000 0.000000 0.000000" charge=0
N	-3.467985	-0.496821	0.064167	7
C	-2.306265	-0.465801	0.097047	6
C	-0.877925	-0.363771	0.127757	6
N	-0.187465	-1.459391	0.139037	7
N	1.107705	-1.050071	0.208197	7
C	1.253255	0.352529	-0.178433	6
C	-0.121615	0.911589	0.149967	6
H	1.751315	-1.677271	-0.279693	1
H	1.451985	0.429289	-1.253393	1
H	2.053985	0.855489	0.370017	1
H	-0.487595	1.618469	-0.597643	1
H	-0.169395	1.345759	1.152977	1
Es	-0.549958	0.276770	0.146995	99
Es	-0.555702	-0.927085	-0.171424	99
Es	1.520498	-1.426682	-0.022617	99
Es	-2.305879	-0.465837	0.097056	99
Es	1.069571	-1.064790	0.396511	99
Es	-2.933149	-0.527520	0.300895	99
Es	-0.157759	1.180005	0.799482	99
Es	1.253196	0.352399	-0.178383	99
Es	1.814245	0.682528	0.178820	99
Es	-1.634450	-0.415958	0.117275	99
Es	-0.561065	-0.949396	0.420168	99
Es	1.174499	-0.445017	0.035855	99
Es	-2.934956	-0.196904	0.028717	99
Es	1.377521	0.396740	-0.886046	99
Es	-0.264274	-1.761471	0.131671	99
Es	-2.910999	-0.733991	-0.091883	99
Es	0.463293	-1.257287	0.137693	99
Es	-0.121624	0.911502	0.149960	99
Es	-0.187218	-1.458724	0.139049	99
Es	1.107432	-1.050019	0.207583	99
Es	-3.467527	-0.496806	0.064179	99
Es	-0.878104	-0.363773	0.127796	99
Es	0.573294	0.662489	-0.015530	99
Es	-3.842098	-0.485255	0.052922	99
Es	-0.378095	1.387402	-0.340400	99
37
Properties=species:S:1:pos:R:3:Z:I:1 energy=-317.77789032584155 field_type=dipole dipole="0.000000 0.000000 0.000000" charge=0
N	-3.467985	-0.496821	0.064167	7
C	-2.306265	-0.465801	0.097047	6
C	-0.877925	-0.363771	0.127757	6
N	-0.187465	-1.459391	0.139037	7
N	1.107705	-1.050071	0.208197	7
C	1.253255	0.352529	-0.178433	6
C	-0.121615	0.911589	0.149967	6
H	1.751315	-1.677271	-0.279693	1
H	1.451985	0.429289	-1.253393	1
H	2.053985	0.855489	0.370017	1
H	-0.487595	1.618469	-0.597643	1
H	-0.169395	1.345759	1.152977	1
Es	-3.842108	-0.485149	0.053122	99
Es	-0.121626	0.911498	0.149957	99
Es	1.174146	-0.445015	0.035943	99
Es	-0.550645	0.276155	0.146982	99
Es	-0.263700	-1.759636	0.131674	99
Es	-2.933107	-0.531236	0.294413	99
Es	1.377113	0.396381	-0.884627	99
Es	-2.935179	-0.194896	0.037619	99
Es	-2.910797	-0.732266	-0.094464	99
Es	-1.634469	-0.415903	0.117186	99
Es	1.069513	-1.064741	0.394643	99
Es	-2.305878	-0.465832	0.097059	99
Es	1.520925	-1.426262	-0.020813	99
Es	0.573263	0.662412	-0.015493	99
Es	-0.561370	-0.949461	0.420979	99
Es	-0.187223	-1.458720	0.139046	99
Es	0.463261	-1.257439	0.137816	99
Es	1.253195	0.352397	-0.178383	99
Es	-0.157616	1.179192	0.798364	99
Es	-0.878106	-0.363774	0.127796	99
Es	-0.378090	1.388090	-0.339666	99
Es	-3.467527	-0.496805	0.064179	99
Es	-0.555530	-0.927663	-0.172024	99
Es	1.107345	-1.050041	0.207442	99
Es	1.814902	0.682032	0.177599	99
37
Properties=species:S:1:pos:R:3:Z:I:1 energy=-317.77789032584155 field_type=dipole dipole="0.000000 0.000000 0.000000" charge=0
N	-3.467985	-0.496821	0.064167	7
C	-2.306265	-0.465801	0.097047	6
C	-0.877925	-0.363771	0.127757	6
N	-0.187465	-1.459391	0.139037	7
N	1.107705	-1.050071	0.208197	7
C	1.253255	0.352529	-0.178433	6
C	-0.121615	0.911589	0.149967	6
H	1.751315	-1.677271	-0.279693	1
H	1.451985	0.429289	-1.253393	1
H	2.053985	0.855489	0.370017	1
H	-0.487595	1.618469	-0.597643	1
H	-0.169395	1.345759	1.152977	1
Es	1.069158	-1.065264	0.391110	99
Es	-0.550387	0.276081	0.147657	99
Es	-0.378838	1.388461	-0.339242	99
Es	-0.121627	0.911499	0.149957	99
Es	1.521260	-1.425801	-0.019889	99
Es	1.107182	-1.050051	0.207282	99
Es	-0.555883	-0.927711	-0.172514	99
Es	0.463161	-1.257899	0.138517	99
Es	-0.263024	-1.757439	0.131556	99
Es	-0.157380	1.178439	0.797126	99
Es	-2.915697	-0.787936	0.093963	99
Es	0.573299	0.662429	-0.015322	99
Es	-0.187228	-1.458717	0.139046	99
Es	1.174312	-0.444493	0.037837	99
Es	-0.878106	-0.363772	0.127778	99
Es	-3.842127	-0.485139	0.052807	99
Es	-1.634508	-0.416065	0.116937	99
Es	1.815363	0.681487	0.176828	99
Es	1.376832	0.396197	-0.883791	99
Es	1.253195	0.352393	-0.178396	99
Es	-2.925352	-0.409238	-0.122695	99
Es	-2.305877	-0.465833	0.097055	99
Es	-3.467527	-0.496806	0.064179	99
Es	-0.561523	-0.950551	0.421438	99
Es	-2.937985	-0.260951	0.267121	99
37
Properties=species:S:1:pos:R:3:Z:I:1 energy=-317.77789032584155 field_type=dipole dipole="0.000000 0.000000 0.000000" charge=0
N	-3.467985	-0.496821	0.064167	7
C	-2.306265	-0.465801	0.097047	6
C	-0.877925	-0.363771	0.127757	6
N	-0.187465	-1.459391	0.139037	7
N	1.107705	-1.050071	0.208197	7
C	1.253255	0.352529	-0.178433	6
C	-0.121615	0.911589	0.149967	6
H	1.751315	-1.677271	-0.279693	1
H	1.451985	0.429289	-1.253393	1
H	2.053985	0.855489	0.370017	1
H	-0.487595	1.618469	-0.597643	1
H	-0.169395	1.345759	1.152977	1
Es	1.253195	0.352397	-0.178383	99
Es	-0.555641	-0.927987	-0.172960	99
Es	-0.550486	0.275743	0.148070	99
Es	-0.121625	0.911504	0.149960	99
Es	-0.187224	-1.458717	0.139046	99
Es	-2.305878	-0.465834	0.097059	99
Es	-2.932802	-0.541967	0.289575	99
Es	1.521607	-1.425452	-0.017776	99
Es	-0.157200	1.177540	0.795823	99
Es	-0.878106	-0.363773	0.127787	99
Es	-3.467530	-0.496804	0.064179	99
Es	-0.262836	-1.756697	0.131707	99
Es	-3.842091	-0.484731	0.053513	99
Es	1.174598	-0.444396	0.038556	99
Es	0.463139	-1.258052	0.138590	99
Es	-2.935627	-0.192904	0.052570	99
Es	-2.910647	-0.723745	-0.104870	99
Es	0.573287	0.662441	-0.015420	99
Es	-1.634508	-0.415936	0.117226	99
Es	1.815893	0.681214	0.175629	99
Es	-0.561613	-0.950210	0.421750	99
Es	-0.379364	1.389044	-0.338646	99
Es	1.376324	0.396356	-0.881691	99
Es	1.068923	-1.065639	0.387690	99
Es	1.106904	-1.050077	0.207363	99
37
Properties=species:S:1:pos:R:3:Z:I:1 energy=-317.77789032584155 field_type=dipole dipole="0.000000 0.000000 0.000000" charge=0
N	-3.467985	-0.496821	0.064167	7
C	-2.306265	-0.465801	0.097047	6
C	-0.877925	-0.363771	0.127757	6
N	-0.187465	-1.459391	0.139037	7
N	1.107705	-1.050071	0.208197	7
C	1.253255	0.352529	-0.178433	6
C	-0.121615	0.911589	0.149967	6
H	1.751315	-1.677271	-0.279693	1
H	1.451985	0.429289	-1.253393	1
H	2.053985	0.855489	0.370017	1
H	-0.487595	1.618469	-0.597643	1
H	-0.169395	1.345759	1.152977	1
Es	-0.878106	-0.363772	0.127776	99
Es	-0.121625	0.911500	0.149957	99
Es	-2.305878	-0.465837	0.097055	99
Es	-0.562535	-0.949277	0.422235	99
Es	1.175050	-0.443847	0.041082	99
Es	-3.842028	-0.484326	0.053326	99
Es	-2.926372	-0.376600	-0.123475	99
Es	-0.262515	-1.755524	0.131356	99
Es	1.083757	-1.058314	0.288042	99
Es	-0.157080	1.177717	0.795848	99
Es	-0.550397	0.275690	0.148357	99
Es	1.376336	0.396310	-0.882230	99
Es	1.253196	0.352399	-0.178383	99
Es	1.815894	0.680978	0.175622	99
Es	-0.187214	-1.458738	0.139052	99
Es	1.091427	-1.057956	0.298774	99
Es	-2.914934	-0.787943	0.067005	99
Es	0.573237	0.662286	-0.015215	99
Es	-0.379672	1.388921	-0.338851	99
Es	0.462880	-1.258741	0.141725	99
Es	-0.554841	-0.929374	-0.172937	99
Es	-1.634530	-0.416122	0.116742	99
Es	-3.467528	-0.496806	0.064179	99
Es	1.521975	-1.425107	-0.015367	99
Es	-2.937804	-0.294199	0.294671	99
37
Properties=species:S:1:pos:R:3:Z:I:1 energy=-317.77789032584155 field_type=dipole dipole="0.000000 0.000000 0.000000" charge=0
N	-3.467985	-0.496821	0.064167	7
C	-2.306265	-0.465801	0.097047	6
C	-0.877925	-0.363771	0.127757	6
N	-0.187465	-1.459391	0.139037	7
N	1.107705	-1.050071	0.208197	7
C	1.253255	0.352529	-0.178433	6
C	-0.121615	0.911589	0.149967	6
H	1.751315	-1.677271	-0.279693	1
H	1.451985	0.429289	-1.253393	1
H	2.053985	0.855489	0.370017	1
H	-0.487595	1.618469	-0.597643	1
H	-0.169395	1.345759	1.152977	1
Es	1.069727	-1.064756	0.389553	99
Es	-3.842171	-0.484986	0.053141	99
Es	-0.261384	-1.752635	0.131346	99
Es	-2.926087	-0.421802	-0.105988	99
Es	-2.914911	-0.788304	0.092048	99
Es	0.463079	-1.258251	0.138969	99
Es	-0.562145	-0.952358	0.423176	99
Es	-0.121624	0.911501	0.149958	99
Es	0.573216	0.662169	-0.015219	99
Es	-0.187215	-1.458736	0.139048	99
Es	-0.379442	1.388885	-0.338474	99
Es	1.173337	-0.445072	0.036236	99
Es	1.522046	-1.424596	-0.017709	99
Es	1.106869	-1.050090	0.207202	99
Es	-0.555938	-0.928196	-0.174627	99
Es	1.253199	0.352402	-0.178389	99
Es	1.376130	0.396091	-0.881343	99
Es	-0.878106	-0.363773	0.127789	99
Es	-3.467527	-0.496806	0.064179	99
Es	-0.157116	1.177478	0.795514	99
Es	1.816339	0.680190	0.175134	99
Es	-0.551184	0.274814	0.148715	99
Es	-1.634539	-0.416006	0.116994	99
Es	-2.937979	-0.247999	0.252041	99
Es	-2.305881	-0.465847	0.097053	99
37
Properties=species:S:1:pos:R:3:Z:I:1 energy=-317.77789032584155 field_type=dipole dipole="0.000000 0.000000 0.000000" charge=0
N	-3.467985	-0.496821	0.064167	7
C	-2.306265	-0.465801	0.097047	6
C	-0.877925	-0.363771	0.127757	6
N	-0.187465	-1.459391	0.139037	7
N	1.107705	-1.050071	0.208197	7
C	1.253255	0.352529	-0.178433	6
C	-0.121615	0.911589	0.149967	6
H	1.751315	-1.677271	-0.279693	1
H	1.451985	0.429289	-1.253393	1
H	2.053985	0.855489	0.370017	1
H	-0.487595	1.618469	-0.597643	1
H	-0.169395	1.345759	1.152977	1
Es	-0.550599	0.274937	0.149288	99
Es	-1.634505	-0.415733	0.117132	99
Es	-0.121624	0.911501	0.149956	99
Es	-0.187219	-1.458732	0.139046	99
Es	1.816734	0.679827	0.174240	99
Es	-0.156851	1.176662	0.794029	99
Es	-3.842061	-0.484269	0.053363	99
Es	-0.261289	-1.752001	0.131517	99
Es	-2.910448	-0.734028	-0.091739	99
Es	-2.935452	-0.193228	0.049657	99
Es	-0.380478	1.389218	-0.338109	99
Es	-2.305878	-0.465838	0.097058	99
Es	-0.555408	-0.929553	-0.174456	99
Es	1.375786	0.396193	-0.879833	99
Es	-3.467526	-0.496806	0.064179	99
Es	0.573238	0.662271	-0.015267	99
Es	1.107374	-1.050039	0.207481	99
Es	-2.933215	-0.531770	0.279628	99
Es	-0.878107	-0.363773	0.127796	99
Es	1.174887	-0.443568	0.041764	99
Es	1.253194	0.352395	-0.178383	99
Es	1.067474	-1.066479	0.382429	99
Es	0.463100	-1.258398	0.138439	99
Es	1.522239	-1.424426	-0.016199	99
Es	-0.562673	-0.951045	0.423332	99
37
Properties=species:S:1:pos:R:3:Z:I:1 energy=-317.77789032584155 field_type=dipole dipole="0.000000 0.000000 0.000000" charge=0
N	-3.467985	-0.496821	0.064167	7
C	-2.306265	-0.465801	0.097047	6
C	-0.877925	-0.363771	0.127757	6
N	-0.187465	-1.459391	0.139037	7
N	1.107705	-1.050071	0.208197	7
C	1.253255	0.352529	-0.178433	6
C	-0.121615	0.911589	0.149967	6
H	1.751315	-1.677271	-0.279693	1
H	1.451985	0.429289	-1.253393	1
H	2.053985	0.855489	0.370017	1
H	-0.487595	1.618469	-0.597643	1
H	-0.169395	1.345759	1.152977	1
Es	1.816750	0.679203	0.174670	99
Es	-0.187308	-1.459392	0.139048	99
Es	0.573178	0.662038	-0.015212	99
Es	-2.926338	-0.428509	-0.098180	99
Es	-0.379968	1.388808	-0.338347	99
Es	-0.562837	-0.952066	0.423811	99
Es	1.522378	-1.423972	-0.017220	99
Es	1.173130	-0.445001	0.036234	99
Es	1.105870	-1.050288	0.208676	99
Es	-2.914665	-0.788198	0.092734	99
Es	-0.121625	0.911501	0.149959	99
Es	1.375856	0.396226	-0.880193	99
Es	-2.305878	-0.465839	0.097054	99
Es	-0.878106	-0.363772	0.127769	99
Es	1.070633	-1.064645	0.386806	99
Es	-0.156942	1.177159	0.794580	99
Es	-0.551354	0.274311	0.149546	99
Es	-0.555519	-0.929463	-0.175543	99
Es	-0.260598	-1.749838	0.131474	99
Es	1.253195	0.352396	-0.178386	99
Es	-3.467527	-0.496806	0.064179	99
Es	0.463053	-1.258257	0.139178	99
Es	-2.937944	-0.241351	0.243361	99
Es	-1.634539	-0.415920	0.116980	99
Es	-3.842205	-0.485007	0.053368	99
37
Properties=species:S:1:pos:R:3:Z:I:1 energy=-317.77789032584155 field_type=dipole dipole="0.000000 0.000000 0.000000" charge=0
N	-3.467985	-0.496821	0.064167	7
C	-2.306265	-0.465801	0.097047	6
C	-0.877925	-0.363771	0.127757	6
N	-0.187465	-1.459391	0.139037	7
N	1.107705	-1.050071	0.208197	7
C	1.253255	0.352529	-0.178433	6
C	-0.121615	0.911589	0.149967	6
H	1.751315	-1.677271	-0.279693	1
H	1.451985	0.429289	-1.253393	1
H	2.053985	0.855489	0.370017	1
H	-0.487595	1.618469	-0.597643	1
H	-0.169395	1.345759	1.152977	1
Es	-0.156671	1.175835	0.792667	99
Es	1.253197	0.352400	-0.178384	99
Es	0.463020	-1.258452	0.139255	99
Es	1.068078	-1.065654	0.382741	99
Es	1.817240	0.679225	0.172986	99
Es	1.375372	0.396179	-0.878245	99
Es	-0.554874	-0.931219	-0.174808	99
Es	-2.914359	-0.788629	0.079921	99
Es	-0.380666	1.389862	-0.337325	99
Es	-2.938009	-0.256212	0.260886	99
Es	-2.926647	-0.413630	-0.102852	99
Es	-0.260405	-1.749601	0.131526	99
Es	-0.878105	-0.363773	0.127762	99
Es	-3.467527	-0.496805	0.064180	99
Es	-0.187461	-1.459331	0.139013	99
Es	1.173748	-0.444501	0.038512	99
Es	1.522544	-1.423936	-0.015214	99
Es	0.573284	0.662372	-0.015149	99
Es	-0.121624	0.911500	0.149957	99
Es	-2.305878	-0.465838	0.097055	99
Es	-3.842139	-0.484613	0.053386	99
Es	1.107612	-1.050079	0.208369	99
Es	-1.634531	-0.415876	0.116769	99
Es	-0.563421	-0.950373	0.424006	99
Es	-0.551084	0.274468	0.149331	99
37
Properties=species:S:1:pos:R:3:Z:I:1 energy=-317.77789032584155 field_type=dipole dipole="0.000000 0.000000 0.000000" charge=0
N	-3.467985	-0.496821	0.064167	7
C	-2.306265	-0.465801	0.097047	6
C	-0.877925	-0.363771	0.127757	6
N	-0.187465	-1.459391	0.139037	7
N	1.107705	-1.050071	0.208197	7
C	1.253255	0.352529	-0.178433	6
C	-0.121615	0.911589	0.149967	6
H	1.751315	-1.677271	-0.279693	1
H	1.451985	0.429289	-1.253393	1
H	2.053985	0.855489	0.370017	1
H	-0.487595	1.618469	-0.597643	1
H	-0.169395	1.345759	1.152977	1
Es	-2.933509	-0.524129	0.268698	99
Es	-3.467527	-0.496805	0.064179	99
Es	-0.121626	0.911498	0.149958	99
Es	-0.878107	-0.363772	0.127787	99
Es	1.106490	-1.050158	0.207643	99
Es	-2.910085	-0.741509	-0.081450	99
Es	-0.554345	-0.931906	-0.175109	99
Es	-3.842074	-0.484247	0.053273	99
Es	-0.564255	-0.950165	0.423454	99
Es	-0.156864	1.176031	0.793190	99
Es	-2.935518	-0.193401	0.050443	99
Es	1.173684	-0.444662	0.038362	99
Es	-0.187282	-1.458815	0.139036	99
Es	0.573204	0.662154	-0.015095	99
Es	-2.305878	-0.465839	0.097057	99
Es	1.522739	-1.423529	-0.015026	99
Es	-0.260291	-1.749068	0.131424	99
Es	-0.380556	1.389528	-0.337550	99
Es	1.375295	0.396341	-0.877753	99
Es	1.069106	-1.065604	0.383553	99
Es	-1.634504	-0.415610	0.117098	99
Es	1.817373	0.678643	0.173100	99
Es	1.253197	0.352400	-0.178385	99
Es	-0.551033	0.274226	0.149832	99
Es	0.463057	-1.258283	0.138628	99
37
Properties=species:S:1:pos:R:3:Z:I:1 energy=-317.77789032584155 field_type=dipole dipole="0.000000 0.000000 0.000000" charge=0
N	-3.467985	-0.496821	0.064167	7
C	-2.306265	-0.465801	0.097047	6
C	-0.877925	-0.363771	0.127757	6
N	-0.187465	-1.459391	0.139037	7
N	1.107705	-1.050071	0.208197	7
C	1.253255	0.352529	-0.178433	6
C	-0.121615	0.911589	0.149967	6
H	1.751315	-1.677271	-0.279693	1
H	1.451985	0.429289	-1.253393	1
H	2.053985	0.855489	0.370017	1
H	-0.487595	1.618469	-0.597643	1
H	-0.169395	1.345759	1.152977	1
Es	-2.926497	-0.422215	-0.099869	99
Es	-3.467527	-0.496806	0.064179	99
Es	-0.554877	-0.931126	-0.175819	99
Es	-0.878106	-0.363772	0.127786	99
Es	-1.634560	-0.415904	0.116916	99
Es	1.375252	0.396236	-0.877694	99
Es	-0.187236	-1.458722	0.139045	99
Es	-0.121627	0.911496	0.149958	99
Es	1.817444	0.678528	0.172830	99
Es	-2.305878	-0.465836	0.097053	99
Es	0.573155	0.662026	-0.015193	99
Es	-0.563654	-0.951200	0.424125	99
Es	1.173631	-0.444438	0.038685	99
Es	-2.937963	-0.247787	0.251323	99
Es	1.522844	-1.423372	-0.014672	99
Es	-2.914516	-0.788290	0.086533	99
Es	1.107563	-1.050345	0.211557	99
Es	-0.380789	1.389714	-0.337195	99
Es	1.253194	0.352393	-0.178388	99
Es	-3.842162	-0.484674	0.053368	99
Es	1.068028	-1.065426	0.378235	99
Es	-0.551375	0.273979	0.150222	99
Es	-0.156592	1.175789	0.792413	99
Es	-0.260049	-1.748165	0.131513	99
Es	0.462990	-1.258764	0.139435	99
37
Properties=species:S:1:pos:R:3:Z:I:1 energy=-317.77789032584155 field_type=dipole dipole="0.000000 0.000000 0.000000" charge=0
N	-3.467985	-0.496821	0.064167	7
C	-2.306265	-0.465801	0.097047	6
C	-0.877925	-0.363771	0.127757	6
N	-0.187465	-1.459391	0.139037	7
N	1.107705	-1.050071	0.208197	7
C	1.253255	0.352529	-0.178433	6
C	-0.121615	0.911589	0.149967	6
H	1.751315	-1.677271	-0.279693	1
H	1.451985	0.429289	-1.253393	1
H	2.053985	0.855489	0.370017	1
H	-0.487595	1.618469	-0.597643	1
H	-0.169395	1.345759	1.152977	1
Es	-0.121624	0.911501	0.149957	99
Es	-2.935680	-0.194410	0.049499	99
Es	1.522907	-1.423250	-0.014425	99
Es	-2.933510	-0.522746	0.268806	99
Es	-0.555583	-0.929822	-0.176537	99
Es	1.066747	-1.066956	0.377696	99
Es	1.375165	0.396154	-0.877039	99
Es	1.174873	-0.443358	0.043733	99
Es	-0.156597	1.175299	0.792003	99
Es	0.573190	0.662166	-0.015309	99
Es	-3.842075	-0.484083	0.053649	99
Es	1.107434	-1.050043	0.207594	99
Es	0.463060	-1.258406	0.138635	99
Es	1.253194	0.352396	-0.178385	99
Es	-0.878107	-0.363773	0.127798	99
Es	-0.551047	0.273879	0.150547	99
Es	-2.909901	-0.741902	-0.080889	99
Es	-0.187222	-1.458711	0.139046	99
Es	-1.634531	-0.415696	0.117213	99
Es	-2.305877	-0.465836	0.097058	99
Es	-0.259790	-1.747445	0.131519	99
Es	1.817606	0.678233	0.172531	99
Es	-0.563149	-0.952951	0.424340	99
Es	-0.381264	1.389886	-0.336875	99
Es	-3.467526	-0.496806	0.064179	99
37
Properties=species:S:1:pos:R:3:Z:I:1 energy=-317.77789032584155 field_type=dipole dipole="0.000000 0.000000 0.000000" charge=0
N	-3.467985	-0.496821	0.064167	7
C	-2.306265	-0.465801	0.097047	6
C	-0.877925	-0.363771	0.127757	6
N	-0.187465	-1.459391	0.139037	7
N	1.107705	-1.050071	0.208197	7
C	1.253255	0.352529	-0.178433	6
C	-0.121615	0.911589	0.149967	6
H	1.751315	-1.677271	-0.279693	1
H	1.451985	0.429289	-1.253393	1
H	2.053985	0.855489	0.370017	1
H	-0.487595	1.618469	-0.597643	1
H	-0.169395	1.345759	1.152977	1
Es	-2.937812	-0.240545	0.242532	99
Es	-0.381020	1.389767	-0.337086	99
Es	-0.187267	-1.458769	0.139038	99
Es	1.172631	-0.444815	0.036384	99
Es	-2.305878	-0.465839	0.097063	99
Es	-0.563688	-0.952191	0.424961	99
Es	1.375159	0.395947	-0.877180	99
Es	-0.121624	0.911501	0.149958	99
Es	0.463008	-1.258564	0.139420	99
Es	-3.467527	-0.496806	0.064179	99
Es	1.523038	-1.422991	-0.014218	99
Es	-0.156540	1.175524	0.791890	99
Es	1.107519	-1.050050	0.207852	99
Es	-2.927094	-0.429353	-0.086088	99
Es	-0.555060	-0.931046	-0.176501	99
Es	-3.842191	-0.484717	0.053587	99
Es	0.573165	0.662033	-0.015130	99
Es	-0.259450	-1.746627	0.131396	99
Es	-2.914061	-0.788432	0.081318	99
Es	1.068752	-1.065008	0.383969	99
Es	1.817713	0.677952	0.172281	99
Es	-1.634545	-0.415817	0.116869	99
Es	1.253194	0.352393	-0.178388	99
Es	-0.878107	-0.363773	0.127790	99
Es	-0.551623	0.273547	0.150451	99
37
Properties=species:S:1:pos:R:3:Z:I:1 energy=-317.77789032584155 field_type=dipole dipole="0.000000 0.000000 0.000000" charge=0
N	-3.467985	-0.496821	0.064167	7
C	-2.306265	-0.465801	0.097047	6
C	-0.877925	-0.363771	0.127757	6
N	-0.187465	-1.459391	0.139037	7
N	1.107705	-1.050071	0.208197	7
C	1.253255	0.352529	-0.178433	6
C	-0.121615	0.911589	0.149967	6
H	1.751315	-1.677271	-0.279693	1
H	1.451985	0.429289	-1.253393	1
H	2.053985	0.855489	0.370017	1
H	-0.487595	1.618469	-0.597643	1
H	-0.169395	1.345759	1.152977	1
Es	-2.933381	-0.529487	0.262054	99
Es	0.573180	0.662091	-0.015067	99
Es	-0.551323	0.273683	0.150596	99
Es	-0.381542	1.390387	-0.336443	99
Es	-1.634539	-0.415703	0.117004	99
Es	-2.935859	-0.192223	0.062932	99
Es	1.817907	0.677938	0.171683	99
Es	1.174224	-0.444056	0.041228	99
Es	-2.909843	-0.737308	-0.087502	99
Es	-0.156339	1.174649	0.790544	99
Es	1.523138	-1.422920	-0.012920	99
Es	-2.305877	-0.465832	0.097057	99
Es	-0.563879	-0.951446	0.424875	99
Es	-3.842084	-0.484121	0.053586	99
Es	-0.187217	-1.458716	0.139048	99
Es	-0.554873	-0.931702	-0.176243	99
Es	-0.259489	-1.746314	0.131545	99
Es	-0.121623	0.911502	0.149963	99
Es	0.463002	-1.258680	0.139201	99
Es	1.107453	-1.050039	0.207638	99
Es	1.067235	-1.066528	0.377776	99
Es	-0.878107	-0.363773	0.127797	99
Es	1.253201	0.352405	-0.178396	99
Es	-3.467527	-0.496806	0.064179	99
Es	1.374854	0.396317	-0.875789	99
