47
Properties=species:S:1:pos:R:3:Z:I:1 energy=-305.284737292046 field_type=dipole dipole="0.000000 0.000000 0.000000" charge=0
N	-3.091966	0.451841	-0.117941	7
C	-1.745376	0.178061	-0.604661	6
C	-0.832996	-0.250859	0.544049	6
C	0.556114	-0.573499	0.009229	6
C	1.455314	0.609551	-0.423411	6
C	2.576643	-0.169739	0.282979	6
N	1.532173	-0.818599	1.106269	7
H	-3.662606	0.814421	-0.880301	1
H	-3.058696	1.185421	0.589279	1
H	-1.346496	1.074211	-1.092541	1
H	-1.792676	-0.610999	-1.363191	1
H	-1.252406	-1.138459	1.035299	1
H	-0.785236	0.544161	1.299839	1
H	0.540664	-1.390259	-0.726421	1
H	1.215374	1.569811	0.048549	1
H	1.576243	0.755481	-1.499501	1
H	3.120564	-0.864119	-0.368121	1
H	3.294724	0.434521	0.843179	1
H	1.700644	-1.800949	1.317419	1
Es	2.080216	0.278694	-0.113775	99
Es	-3.422780	0.687401	-0.585593	99
Es	0.545059	-1.134903	-0.503284	99
Es	2.576522	-0.169794	0.283036	99
Es	-3.091697	0.452378	-0.118190	99
Es	1.639149	-1.423632	1.215282	99
Es	-1.115227	-0.859653	0.873866	99
Es	1.532318	-0.818893	1.105766	99
Es	-0.799574	0.299985	1.052684	99
Es	1.287802	1.256952	-0.094792	99
Es	1.537419	0.712831	-1.164346	99
Es	-0.833002	-0.250853	0.543997	99
Es	-1.776543	-0.365346	-1.126832	99
Es	-2.507525	0.358555	-0.336199	99
Es	2.038882	-0.584493	0.776305	99
Es	0.556211	-0.573495	0.009334	99
Es	2.945410	-0.651135	-0.172406	99
Es	-3.056424	0.910868	0.295685	99
Es	-3.240729	0.162363	0.019064	99
Es	-1.457221	0.798699	-0.942970	99
Es	3.078866	0.242155	0.667572	99
Es	1.455326	0.609501	-0.423395	99
Es	-1.745494	0.178083	-0.604595	99
Es	1.450008	-0.618209	1.390330	99
Es	0.937170	0.057639	-0.268408	99
Es	-1.291931	-0.035322	-0.031440	99
Es	-0.147715	-0.410021	0.269490	99
Es	1.085426	-0.777985	0.643581	99
47
Properties=species:S:1:pos:R:3:Z:I:1 energy=-305.284737292046 field_type=dipole dipole="0.000000 0.000000 0.000000" charge=0
N	-3.091966	0.451841	-0.117941	7
C	-1.745376	0.178061	-0.604661	6
C	-0.832996	-0.250859	0.544049	6
C	0.556114	-0.573499	0.009229	6
C	1.455314	0.609551	-0.423411	6
C	2.576643	-0.169739	0.282979	6
N	1.532173	-0.818599	1.106269	7
H	-3.662606	0.814421	-0.880301	1
H	-3.058696	1.185421	0.589279	1
H	-1.346496	1.074211	-1.092541	1
H	-1.792676	-0.610999	-1.363191	1
H	-1.252406	-1.138459	1.035299	1
H	-0.785236	0.544161	1.299839	1
H	0.540664	-1.390259	-0.726421	1
H	1.215374	1.569811	0.048549	1
H	1.576243	0.755481	-1.499501	1
H	3.120564	-0.864119	-0.368121	1
H	3.294724	0.434521	0.843179	1
H	1.700644	-1.800949	1.317419	1
Es	1.449333	-0.616781	1.390988	99
Es	1.532318	-0.818894	1.105772	99
Es	0.556211	-0.573495	0.009334	99
Es	-1.291686	-0.035178	-0.031550	99
Es	-3.421946	0.687689	-0.585492	99
Es	2.038267	-0.585037	0.776249	99
Es	-3.091736	0.452311	-0.118159	99
Es	3.078670	0.242136	0.667517	99
Es	0.544816	-1.135119	-0.503401	99
Es	-1.115339	-0.860247	0.873841	99
Es	1.086487	-0.778509	0.643073	99
Es	-1.457202	0.798934	-0.942863	99
Es	2.079781	0.278778	-0.113926	99
Es	-1.776679	-0.365575	-1.126987	99
Es	1.287796	1.257216	-0.094440	99
Es	0.937454	0.057798	-0.268259	99
Es	-1.745496	0.178083	-0.604595	99
Es	-2.507833	0.359100	-0.336274	99
Es	-3.056169	0.911293	0.295770	99
Es	1.537468	0.712652	-1.164568	99
Es	1.639316	-1.423913	1.215290	99
Es	2.576517	-0.169797	0.283036	99
Es	-3.241147	0.161131	0.018934	99
Es	2.945588	-0.651236	-0.172477	99
Es	-0.147830	-0.409840	0.269622	99
Es	1.455326	0.609501	-0.423395	99
Es	-0.833003	-0.250853	0.543998	99
Es	-0.799357	0.300226	1.052727	99
47
Properties=species:S:1:pos:R:3:Z:I:1 energy=-305.284737292046 field_type=dipole dipole="0.000000 0.000000 0.000000" charge=0
N	-3.091966	0.451841	-0.117941	7
C	-1.745376	0.178061	-0.604661	6
C	-0.832996	-0.250859	0.544049	6
C	0.556114	-0.573499	0.009229	6
C	1.455314	0.609551	-0.423411	6
C	2.576643	-0.169739	0.282979	6
N	1.532173	-0.818599	1.106269	7
H	-3.662606	0.814421	-0.880301	1
H	-3.058696	1.185421	0.589279	1
H	-1.346496	1.074211	-1.092541	1
H	-1.792676	-0.610999	-1.363191	1
H	-1.252406	-1.138459	1.035299	1
H	-0.785236	0.544161	1.299839	1
H	0.540664	-1.390259	-0.726421	1
H	1.215374	1.569811	0.048549	1
H	1.576243	0.755481	-1.499501	1
H	3.120564	-0.864119	-0.368121	1
H	3.294724	0.434521	0.843179	1
H	1.700644	-1.800949	1.317419	1
Es	-3.241164	0.160819	0.018566	99
Es	-3.421564	0.688138	-0.585919	99
Es	2.079455	0.278904	-0.113832	99
Es	-1.745495	0.178084	-0.604595	99
Es	1.449173	-0.616586	1.391007	99
Es	2.576519	-0.169794	0.283036	99
Es	2.038047	-0.584996	0.776263	99
Es	-0.799155	0.300550	1.052759	99
Es	-2.508139	0.359203	-0.335810	99
Es	0.556212	-0.573495	0.009334	99
Es	-3.091770	0.452261	-0.118139	99
Es	0.937618	0.058004	-0.268062	99
Es	-1.291708	-0.035290	-0.031773	99
Es	1.639354	-1.424366	1.215140	99
Es	1.532315	-0.818879	1.105773	99
Es	1.455325	0.609501	-0.423395	99
Es	2.945628	-0.651219	-0.172553	99
Es	1.287699	1.257445	-0.094280	99
Es	1.537587	0.712428	-1.164732	99
Es	-0.147951	-0.409900	0.269674	99
Es	-1.776786	-0.365774	-1.127200	99
Es	3.078604	0.241999	0.667515	99
Es	-1.457172	0.799028	-0.942680	99
Es	-0.833002	-0.250853	0.543998	99
Es	1.086768	-0.778284	0.643243	99
Es	0.544739	-1.135316	-0.503621	99
Es	-3.055965	0.911149	0.296149	99
Es	-1.115248	-0.860390	0.873901	99
47
Properties=species:S:1:pos:R:3:Z:I:1 energy=-305.284737292046 field_type=dipole dipole="0.000000 0.000000 0.000000" charge=0
N	-3.091966	0.451841	-0.117941	7
C	-1.745376	0.178061	-0.604661	6
C	-0.832996	-0.250859	0.544049	6
C	0.556114	-0.573499	0.009229	6
C	1.455314	0.609551	-0.423411	6
C	2.576643	-0.169739	0.282979	6
N	1.532173	-0.818599	1.106269	7
H	-3.662606	0.814421	-0.880301	1
H	-3.058696	1.185421	0.589279	1
H	-1.346496	1.074211	-1.092541	1
H	-1.792676	-0.610999	-1.363191	1
H	-1.252406	-1.138459	1.035299	1
H	-0.785236	0.544161	1.299839	1
H	0.540664	-1.390259	-0.726421	1
H	1.215374	1.569811	0.048549	1
H	1.576243	0.755481	-1.499501	1
H	3.120564	-0.864119	-0.368121	1
H	3.294724	0.434521	0.843179	1
H	1.700644	-1.800949	1.317419	1
Es	-0.148026	-0.409871	0.269688	99
Es	1.537646	0.712348	-1.164874	99
Es	1.639545	-1.424620	1.215395	99
Es	1.455327	0.609501	-0.423394	99
Es	2.576519	-0.169794	0.283036	99
Es	-0.799052	0.300669	1.052862	99
Es	0.937734	0.058089	-0.268045	99
Es	-1.457218	0.799103	-0.942778	99
Es	2.945736	-0.651203	-0.172498	99
Es	1.449156	-0.615242	1.391298	99
Es	2.079154	0.278841	-0.113968	99
Es	0.556213	-0.573495	0.009333	99
Es	1.532292	-0.818837	1.105843	99
Es	-3.241837	0.159764	0.018754	99
Es	2.037285	-0.585872	0.776051	99
Es	-3.091757	0.452316	-0.118149	99
Es	1.087405	-0.778604	0.642903	99
Es	1.287715	1.257559	-0.094079	99
Es	0.544625	-1.135353	-0.503656	99
Es	-3.420734	0.688407	-0.585815	99
Es	3.078503	0.242036	0.667544	99
Es	-1.776801	-0.365859	-1.127123	99
Es	-0.833002	-0.250853	0.543998	99
Es	-1.115144	-0.860508	0.873856	99
Es	-2.508361	0.359494	-0.335882	99
Es	-3.055798	0.911531	0.295809	99
Es	-1.745495	0.178083	-0.604595	99
Es	-1.291709	-0.035261	-0.031750	99
47
Properties=species:S:1:pos:R:3:Z:I:1 energy=-305.284737292046 field_type=dipole dipole="0.000000 0.000000 0.000000" charge=0
N	-3.091966	0.451841	-0.117941	7
C	-1.745376	0.178061	-0.604661	6
C	-0.832996	-0.250859	0.544049	6
C	0.556114	-0.573499	0.009229	6
C	1.455314	0.609551	-0.423411	6
C	2.576643	-0.169739	0.282979	6
N	1.532173	-0.818599	1.106269	7
H	-3.662606	0.814421	-0.880301	1
H	-3.058696	1.185421	0.589279	1
H	-1.346496	1.074211	-1.092541	1
H	-1.792676	-0.610999	-1.363191	1
H	-1.252406	-1.138459	1.035299	1
H	-0.785236	0.544161	1.299839	1
H	0.540664	-1.390259	-0.726421	1
H	1.215374	1.569811	0.048549	1
H	1.576243	0.755481	-1.499501	1
H	3.120564	-0.864119	-0.368121	1
H	3.294724	0.434521	0.843179	1
H	1.700644	-1.800949	1.317419	1
Es	1.537699	0.712325	-1.165118	99
Es	-3.055637	0.911565	0.296145	99
Es	1.449043	-0.614820	1.391159	99
Es	0.937835	0.058262	-0.267957	99
Es	-3.241801	0.159605	0.018494	99
Es	1.532315	-0.818892	1.105768	99
Es	-3.420613	0.688523	-0.585902	99
Es	1.087678	-0.778550	0.643082	99
Es	2.576519	-0.169794	0.283036	99
Es	1.287744	1.257531	-0.093924	99
Es	-0.147968	-0.409844	0.269697	99
Es	1.455326	0.609502	-0.423395	99
Es	-1.457231	0.799189	-0.942793	99
Es	1.639543	-1.424942	1.215616	99
Es	2.945815	-0.651253	-0.172634	99
Es	2.037049	-0.585873	0.776045	99
Es	-1.776875	-0.365902	-1.127137	99
Es	-0.799015	0.300655	1.052894	99
Es	-1.291662	-0.035204	-0.031792	99
Es	2.078982	0.278874	-0.113810	99
Es	-0.833002	-0.250852	0.543998	99
Es	0.556212	-0.573496	0.009334	99
Es	3.078382	0.241974	0.667385	99
Es	0.544573	-1.135461	-0.503689	99
Es	-1.745495	0.178083	-0.604594	99
Es	-3.091742	0.452327	-0.118158	99
Es	-2.508583	0.359460	-0.335807	99
Es	-1.115164	-0.860622	0.873825	99
47
Properties=species:S:1:pos:R:3:Z:I:1 energy=-305.284737292046 field_type=dipole dipole="0.000000 0.000000 0.000000" charge=0
N	-3.091966	0.451841	-0.117941	7
C	-1.745376	0.178061	-0.604661	6
C	-0.832996	-0.250859	0.544049	6
C	0.556114	-0.573499	0.009229	6
C	1.455314	0.609551	-0.423411	6
C	2.576643	-0.169739	0.282979	6
N	1.532173	-0.818599	1.106269	7
H	-3.662606	0.814421	-0.880301	1
H	-3.058696	1.185421	0.589279	1
H	-1.346496	1.074211	-1.092541	1
H	-1.792676	-0.610999	-1.363191	1
H	-1.252406	-1.138459	1.035299	1
H	-0.785236	0.544161	1.299839	1
H	0.540664	-1.390259	-0.726421	1
H	1.215374	1.569811	0.048549	1
H	1.576243	0.755481	-1.499501	1
H	3.120564	-0.864119	-0.368121	1
H	3.294724	0.434521	0.843179	1
H	1.700644	-1.800949	1.317419	1
Es	-3.055285	0.911887	0.295850	99
Es	0.556211	-0.573495	0.009333	99
Es	-1.457211	0.799280	-0.942764	99
Es	-1.745496	0.178083	-0.604594	99
Es	1.639542	-1.425128	1.215811	99
Es	-1.291678	-0.035206	-0.031864	99
Es	1.537712	0.712205	-1.165127	99
Es	-3.091713	0.452345	-0.118171	99
Es	-0.833008	-0.250852	0.543994	99
Es	2.078813	0.279060	-0.113972	99
Es	-1.776933	-0.365971	-1.127169	99
Es	0.544463	-1.135484	-0.503730	99
Es	1.455325	0.609502	-0.423395	99
Es	0.938004	0.058241	-0.267928	99
Es	1.287645	1.257683	-0.093827	99
Es	-1.115041	-0.860837	0.873762	99
Es	2.036863	-0.586109	0.775804	99
Es	-3.420759	0.688298	-0.586188	99
Es	-2.508778	0.359185	-0.335648	99
Es	3.078334	0.241890	0.667433	99
Es	2.945871	-0.651261	-0.172557	99
Es	1.532309	-0.818866	1.105791	99
Es	-3.241725	0.159746	0.018932	99
Es	2.576519	-0.169794	0.283036	99
Es	1.087804	-0.778605	0.643181	99
Es	1.449132	-0.614433	1.391059	99
Es	-0.798911	0.300733	1.052998	99
Es	-0.148085	-0.409725	0.269715	99
47
Properties=species:S:1:pos:R:3:Z:I:1 energy=-305.284737292046 field_type=dipole dipole="0.000000 0.000000 0.000000" charge=0
N	-3.091966	0.451841	-0.117941	7
C	-1.745376	0.178061	-0.604661	6
C	-0.832996	-0.250859	0.544049	6
C	0.556114	-0.573499	0.009229	6
C	1.455314	0.609551	-0.423411	6
C	2.576643	-0.169739	0.282979	6
N	1.532173	-0.818599	1.106269	7
H	-3.662606	0.814421	-0.880301	1
H	-3.058696	1.185421	0.589279	1
H	-1.346496	1.074211	-1.092541	1
H	-1.792676	-0.610999	-1.363191	1
H	-1.252406	-1.138459	1.035299	1
H	-0.785236	0.544161	1.299839	1
H	0.540664	-1.390259	-0.726421	1
H	1.215374	1.569811	0.048549	1
H	1.576243	0.755481	-1.499501	1
H	3.120564	-0.864119	-0.368121	1
H	3.294724	0.434521	0.843179	1
H	1.700644	-1.800949	1.317419	1
Es	1.537650	0.712201	-1.165156	99
Es	1.639496	-1.425145	1.215551	99
Es	2.078782	0.279008	-0.114038	99
Es	-0.148150	-0.409811	0.269839	99
Es	1.532306	-0.818887	1.105770	99
Es	-1.776920	-0.366010	-1.127124	99
Es	-1.457169	0.799314	-0.942787	99
Es	3.078353	0.241813	0.667401	99
Es	-3.091729	0.452322	-0.118163	99
Es	-3.242054	0.159101	0.017978	99
Es	1.088288	-0.778780	0.643090	99
Es	-3.420016	0.689085	-0.586179	99
Es	2.036810	-0.586312	0.775749	99
Es	2.945844	-0.651218	-0.172519	99
Es	-3.055512	0.911401	0.296616	99
Es	2.576521	-0.169794	0.283037	99
Es	0.556212	-0.573496	0.009334	99
Es	-0.798754	0.300779	1.052947	99
Es	0.544427	-1.135616	-0.503729	99
Es	-0.833002	-0.250853	0.543998	99
Es	-1.291733	-0.035176	-0.032061	99
Es	1.455324	0.609502	-0.423395	99
Es	0.938076	0.058451	-0.267963	99
Es	-2.508943	0.359548	-0.335494	99
Es	1.448701	-0.613997	1.391517	99
Es	-1.745496	0.178084	-0.604594	99
Es	1.287624	1.257714	-0.093722	99
Es	-1.115011	-0.860856	0.873864	99
47
Properties=species:S:1:pos:R:3:Z:I:1 energy=-305.284737292046 field_type=dipole dipole="0.000000 0.000000 0.000000" charge=0
N	-3.091966	0.451841	-0.117941	7
C	-1.745376	0.178061	-0.604661	6
C	-0.832996	-0.250859	0.544049	6
C	0.556114	-0.573499	0.009229	6
C	1.455314	0.609551	-0.423411	6
C	2.576643	-0.169739	0.282979	6
N	1.532173	-0.818599	1.106269	7
H	-3.662606	0.814421	-0.880301	1
H	-3.058696	1.185421	0.589279	1
H	-1.346496	1.074211	-1.092541	1
H	-1.792676	-0.610999	-1.363191	1
H	-1.252406	-1.138459	1.035299	1
H	-0.785236	0.544161	1.299839	1
H	0.540664	-1.390259	-0.726421	1
H	1.215374	1.569811	0.048549	1
H	1.576243	0.755481	-1.499501	1
H	3.120564	-0.864119	-0.368121	1
H	3.294724	0.434521	0.843179	1
H	1.700644	-1.800949	1.317419	1
Es	1.287717	1.257768	-0.093667	99
Es	2.945951	-0.651229	-0.172572	99
Es	0.544366	-1.135562	-0.503805	99
Es	1.537712	0.712096	-1.165319	99
Es	-3.091751	0.452300	-0.118142	99
Es	1.639743	-1.425285	1.215865	99
Es	-0.148127	-0.409752	0.269819	99
Es	-1.457243	0.799335	-0.942762	99
Es	1.448709	-0.613691	1.391276	99
Es	-1.745494	0.178084	-0.604595	99
Es	1.532308	-0.818858	1.105806	99
Es	1.088390	-0.779005	0.643096	99
Es	-3.242276	0.158922	0.018316	99
Es	0.556212	-0.573496	0.009334	99
Es	2.576519	-0.169794	0.283036	99
Es	2.036474	-0.586355	0.775726	99
Es	-1.114990	-0.860908	0.873817	99
Es	2.078608	0.278911	-0.113961	99
Es	-3.419857	0.689043	-0.586164	99
Es	-0.798798	0.300873	1.052983	99
Es	-1.776997	-0.365976	-1.127203	99
Es	-3.055283	0.911692	0.296245	99
Es	-2.508978	0.359481	-0.335555	99
Es	1.455325	0.609502	-0.423395	99
Es	-0.833003	-0.250853	0.543998	99
Es	0.938084	0.058562	-0.267820	99
Es	-1.291631	-0.035293	-0.031923	99
Es	3.078231	0.241857	0.667332	99
47
Properties=species:S:1:pos:R:3:Z:I:1 energy=-305.284737292046 field_type=dipole dipole="0.000000 0.000000 0.000000" charge=0
N	-3.091966	0.451841	-0.117941	7
C	-1.745376	0.178061	-0.604661	6
C	-0.832996	-0.250859	0.544049	6
C	0.556114	-0.573499	0.009229	6
C	1.455314	0.609551	-0.423411	6
C	2.576643	-0.169739	0.282979	6
N	1.532173	-0.818599	1.106269	7
H	-3.662606	0.814421	-0.880301	1
H	-3.058696	1.185421	0.589279	1
H	-1.346496	1.074211	-1.092541	1
H	-1.792676	-0.610999	-1.363191	1
H	-1.252406	-1.138459	1.035299	1
H	-0.785236	0.544161	1.299839	1
H	0.540664	-1.390259	-0.726421	1
H	1.215374	1.569811	0.048549	1
H	1.576243	0.755481	-1.499501	1
H	3.120564	-0.864119	-0.368121	1
H	3.294724	0.434521	0.843179	1
H	1.700644	-1.800949	1.317419	1
Es	-1.777069	-0.366068	-1.127131	99
Es	2.036308	-0.586546	0.775870	99
Es	1.287649	1.258010	-0.093573	99
Es	-2.508966	0.359513	-0.335475	99
Es	2.576519	-0.169794	0.283036	99
Es	-3.242199	0.158844	0.018255	99
Es	-0.148149	-0.409694	0.269757	99
Es	-1.114954	-0.861083	0.873881	99
Es	0.544359	-1.135506	-0.503734	99
Es	-3.419842	0.689041	-0.586291	99
Es	2.946040	-0.651279	-0.172610	99
Es	1.537812	0.711990	-1.165152	99
Es	-1.457249	0.799445	-0.942850	99
Es	0.938115	0.058581	-0.268068	99
Es	1.455326	0.609500	-0.423395	99
Es	1.532326	-0.818888	1.105786	99
Es	1.088366	-0.778759	0.643063	99
Es	-1.291674	-0.035213	-0.031882	99
Es	-0.798795	0.300834	1.052920	99
Es	2.078472	0.278964	-0.114013	99
Es	-0.833002	-0.250853	0.543998	99
Es	1.639743	-1.425379	1.215444	99
Es	3.078132	0.241756	0.667330	99
Es	-3.055274	0.911685	0.296343	99
Es	-1.745496	0.178084	-0.604594	99
Es	1.448931	-0.613629	1.391669	99
Es	0.556212	-0.573495	0.009334	99
Es	-3.091717	0.452309	-0.118152	99
47
Properties=species:S:1:pos:R:3:Z:I:1 energy=-305.284737292046 field_type=dipole dipole="0.000000 0.000000 0.000000" charge=0
N	-3.091966	0.451841	-0.117941	7
C	-1.745376	0.178061	-0.604661	6
C	-0.832996	-0.250859	0.544049	6
C	0.556114	-0.573499	0.009229	6
C	1.455314	0.609551	-0.423411	6
C	2.576643	-0.169739	0.282979	6
N	1.532173	-0.818599	1.106269	7
H	-3.662606	0.814421	-0.880301	1
H	-3.058696	1.185421	0.589279	1
H	-1.346496	1.074211	-1.092541	1
H	-1.792676	-0.610999	-1.363191	1
H	-1.252406	-1.138459	1.035299	1
H	-0.785236	0.544161	1.299839	1
H	0.540664	-1.390259	-0.726421	1
H	1.215374	1.569811	0.048549	1
H	1.576243	0.755481	-1.499501	1
H	3.120564	-0.864119	-0.368121	1
H	3.294724	0.434521	0.843179	1
H	1.700644	-1.800949	1.317419	1
Es	-2.509444	0.359284	-0.335538	99
Es	-1.745495	0.178083	-0.604595	99
Es	1.639649	-1.425539	1.215962	99
Es	-1.291643	-0.035302	-0.031966	99
Es	1.088631	-0.778863	0.643020	99
Es	1.532319	-0.818892	1.105767	99
Es	-3.054846	0.911704	0.296658	99
Es	0.544365	-1.135589	-0.503740	99
Es	3.078084	0.241751	0.667271	99
Es	-0.148260	-0.409905	0.269791	99
Es	-0.798655	0.300979	1.053013	99
Es	1.448734	-0.613264	1.391256	99
Es	1.537781	0.712086	-1.165274	99
Es	1.287626	1.257841	-0.093578	99
Es	0.556211	-0.573496	0.009335	99
Es	-3.242251	0.158785	0.018040	99
Es	-3.091732	0.452326	-0.118167	99
Es	0.938174	0.058665	-0.268010	99
Es	2.036291	-0.586524	0.775833	99
Es	-3.419744	0.689300	-0.586283	99
Es	1.455325	0.609502	-0.423394	99
Es	2.576519	-0.169795	0.283036	99
Es	2.946087	-0.651349	-0.172509	99
Es	-1.115032	-0.860953	0.873818	99
Es	-1.457182	0.799477	-0.942931	99
Es	-1.777091	-0.366061	-1.127029	99
Es	-0.833003	-0.250853	0.543998	99
Es	2.078505	0.278972	-0.114019	99
47
Properties=species:S:1:pos:R:3:Z:I:1 energy=-305.284737292046 field_type=dipole dipole="0.000000 0.000000 0.000000" charge=0
N	-3.091966	0.451841	-0.117941	7
C	-1.745376	0.178061	-0.604661	6
C	-0.832996	-0.250859	0.544049	6
C	0.556114	-0.573499	0.009229	6
C	1.455314	0.609551	-0.423411	6
C	2.576643	-0.169739	0.282979	6
N	1.532173	-0.818599	1.106269	7
H	-3.662606	0.814421	-0.880301	1
H	-3.058696	1.185421	0.589279	1
H	-1.346496	1.074211	-1.092541	1
H	-1.792676	-0.610999	-1.363191	1
H	-1.252406	-1.138459	1.035299	1
H	-0.785236	0.544161	1.299839	1
H	0.540664	-1.390259	-0.726421	1
H	1.215374	1.569811	0.048549	1
H	1.576243	0.755481	-1.499501	1
H	3.120564	-0.864119	-0.368121	1
H	3.294724	0.434521	0.843179	1
H	1.700644	-1.800949	1.317419	1
Es	-1.291537	-0.035158	-0.032004	99
Es	0.938159	0.058635	-0.267942	99
Es	-3.419474	0.689276	-0.586183	99
Es	1.532320	-0.818899	1.105749	99
Es	2.946034	-0.651283	-0.172489	99
Es	-3.091728	0.452340	-0.118170	99
Es	-0.148227	-0.409653	0.269768	99
Es	-2.508987	0.359498	-0.335416	99
Es	-1.457272	0.799444	-0.942860	99
Es	1.455326	0.609500	-0.423395	99
Es	-1.777115	-0.366121	-1.127145	99
Es	2.078392	0.279014	-0.114076	99
Es	-0.833003	-0.250853	0.543998	99
Es	1.639711	-1.425566	1.215873	99
Es	2.036063	-0.586857	0.775758	99
Es	1.287685	1.257861	-0.093525	99
Es	-3.055293	0.911666	0.296528	99
Es	0.556212	-0.573495	0.009333	99
Es	2.576521	-0.169793	0.283036	99
Es	-0.798649	0.300942	1.053020	99
Es	0.544264	-1.135642	-0.503777	99
Es	1.088725	-0.778894	0.643076	99
Es	-1.745495	0.178084	-0.604594	99
Es	-3.242466	0.158635	0.017983	99
Es	3.078130	0.241716	0.667256	99
Es	1.448820	-0.612928	1.391512	99
Es	-1.114979	-0.861156	0.873804	99
Es	1.537785	0.712059	-1.165351	99
