45
Properties=species:S:1:pos:R:3:Z:I:1 energy=-288.1142354881005 field_type=dipole dipole="0.000000 0.000000 0.000000" charge=0
N	-1.358872	-0.250946	1.804792	7
C	-0.328002	-0.004846	0.791752	6
C	-0.719501	-0.695706	-0.536138	6
C	0.352458	-0.613536	-1.593878	6
C	0.970438	-1.676076	-2.127228	6
C	-0.194192	1.487324	0.645492	6
C	0.931898	2.176014	0.874432	6
H	-1.047092	0.156584	2.685942	1
H	-1.429892	-1.253406	1.970192	1
H	0.613628	-0.437666	1.153362	1
H	-1.636162	-0.247916	-0.942008	1
H	-0.954292	-1.750386	-0.336758	1
H	0.617578	0.381364	-1.946538	1
H	0.735838	-2.689726	-1.819528	1
H	1.728248	-1.547726	-2.894458	1
H	-1.086092	2.026994	0.331882	1
H	1.847758	1.685344	1.188752	1
H	0.956248	3.254304	0.749942	1
Es	0.814180	-2.367673	-1.919728	99
Es	-0.802145	1.843481	0.430349	99
Es	0.329168	-0.297780	1.031446	99
Es	0.352381	-0.613454	-1.593807	99
Es	-0.255230	0.748747	0.710297	99
Es	-1.379307	-0.860233	1.904660	99
Es	0.900563	-1.141008	-1.633650	99
Es	-0.898523	-0.154848	1.374801	99
Es	-0.328137	-0.004837	0.791797	99
Es	-1.673331	-0.116265	1.705660	99
Es	0.292658	1.871755	1.078759	99
Es	1.555906	1.847267	1.088382	99
Es	1.485743	-1.597443	-2.648684	99
Es	0.437684	-1.176268	-2.093991	99
Es	-0.517396	-0.338278	0.114185	99
Es	-1.151286	-0.014649	2.334470	99
Es	-1.358497	-0.251103	1.804891	99
Es	-1.331876	-0.385302	-0.812785	99
Es	-0.194270	1.487252	0.645475	99
Es	0.970482	-1.676160	-2.127273	99
Es	0.467353	1.798082	0.451849	99
Es	-0.719443	-0.695683	-0.536141	99
Es	0.525990	0.063450	-1.826657	99
Es	-0.173024	-0.652682	-1.059167	99
Es	-0.872325	-1.416595	-0.392509	99
Es	0.931986	2.176064	0.874444	99
Es	0.956513	2.907540	0.792343	99
45
Properties=species:S:1:pos:R:3:Z:I:1 energy=-288.1142354881005 field_type=dipole dipole="0.000000 0.000000 0.000000" charge=0
N	-1.358872	-0.250946	1.804792	7
C	-0.328002	-0.004846	0.791752	6
C	-0.719501	-0.695706	-0.536138	6
C	0.352458	-0.613536	-1.593878	6
C	0.970438	-1.676076	-2.127228	6
C	-0.194192	1.487324	0.645492	6
C	0.931898	2.176014	0.874432	6
H	-1.047092	0.156584	2.685942	1
H	-1.429892	-1.253406	1.970192	1
H	0.613628	-0.437666	1.153362	1
H	-1.636162	-0.247916	-0.942008	1
H	-0.954292	-1.750386	-0.336758	1
H	0.617578	0.381364	-1.946538	1
H	0.735838	-2.689726	-1.819528	1
H	1.728248	-1.547726	-2.894458	1
H	-1.086092	2.026994	0.331882	1
H	1.847758	1.685344	1.188752	1
H	0.956248	3.254304	0.749942	1
Es	0.931994	2.176068	0.874447	99
Es	0.328811	-0.297872	1.031674	99
Es	-0.897440	-0.156036	1.377130	99
Es	-1.381232	-0.861566	1.904258	99
Es	-0.194270	1.487253	0.645474	99
Es	0.970482	-1.676160	-2.127272	99
Es	1.486023	-1.597561	-2.647662	99
Es	-0.173383	-0.652429	-1.059578	99
Es	-1.358365	-0.251159	1.804943	99
Es	-0.802160	1.843694	0.431220	99
Es	-0.517437	-0.338347	0.114305	99
Es	-0.254815	0.748743	0.709195	99
Es	0.955985	2.908202	0.794203	99
Es	0.438152	-1.175321	-2.095747	99
Es	-0.328136	-0.004837	0.791795	99
Es	-0.719444	-0.695684	-0.536142	99
Es	0.900425	-1.141861	-1.632004	99
Es	-1.671164	-0.114842	1.702847	99
Es	-1.152463	-0.013418	2.334834	99
Es	0.352384	-0.613456	-1.593808	99
Es	-1.331443	-0.385354	-0.812968	99
Es	-0.872495	-1.416959	-0.392674	99
Es	0.812674	-2.367923	-1.921434	99
Es	0.466496	1.799394	0.451796	99
Es	1.555892	1.847003	1.087495	99
Es	0.293756	1.870349	1.078267	99
Es	0.526988	0.063458	-1.825177	99
45
Properties=species:S:1:pos:R:3:Z:I:1 energy=-288.1142354881005 field_type=dipole dipole="0.000000 0.000000 0.000000" charge=0
N	-1.358872	-0.250946	1.804792	7
C	-0.328002	-0.004846	0.791752	6
C	-0.719501	-0.695706	-0.536138	6
C	0.352458	-0.613536	-1.593878	6
C	0.970438	-1.676076	-2.127228	6
C	-0.194192	1.487324	0.645492	6
C	0.931898	2.176014	0.874432	6
H	-1.047092	0.156584	2.685942	1
H	-1.429892	-1.253406	1.970192	1
H	0.613628	-0.437666	1.153362	1
H	-1.636162	-0.247916	-0.942008	1
H	-0.954292	-1.750386	-0.336758	1
H	0.617578	0.381364	-1.946538	1
H	0.735838	-2.689726	-1.819528	1
H	1.728248	-1.547726	-2.894458	1
H	-1.086092	2.026994	0.331882	1
H	1.847758	1.685344	1.188752	1
H	0.956248	3.254304	0.749942	1
Es	-0.719443	-0.695684	-0.536140	99
Es	0.527945	0.063413	-1.823943	99
Es	0.294761	1.869075	1.077637	99
Es	-1.669689	-0.113752	1.700435	99
Es	0.931984	2.176066	0.874460	99
Es	-1.331151	-0.385493	-0.812949	99
Es	-0.328140	-0.004838	0.791796	99
Es	1.556197	1.846786	1.086600	99
Es	0.465741	1.800520	0.452050	99
Es	-1.382554	-0.862274	1.903998	99
Es	1.486528	-1.597560	-2.646705	99
Es	0.328633	-0.297912	1.031719	99
Es	-0.896211	-0.157221	1.379205	99
Es	-1.358354	-0.251165	1.804938	99
Es	-0.173840	-0.652332	-1.060278	99
Es	0.811762	-2.367961	-1.922604	99
Es	0.352383	-0.613457	-1.593812	99
Es	-0.802319	1.844075	0.432205	99
Es	0.955339	2.908559	0.795462	99
Es	0.970482	-1.676162	-2.127274	99
Es	-0.254596	0.748780	0.708423	99
Es	-0.194268	1.487253	0.645469	99
Es	0.438474	-1.174534	-2.097248	99
Es	-0.517628	-0.338383	0.114373	99
Es	0.899860	-1.142715	-1.630819	99
Es	-1.153441	-0.012584	2.335104	99
Es	-0.872641	-1.417120	-0.392686	99
45
Properties=species:S:1:pos:R:3:Z:I:1 energy=-288.1142354881005 field_type=dipole dipole="0.000000 0.000000 0.000000" charge=0
N	-1.358872	-0.250946	1.804792	7
C	-0.328002	-0.004846	0.791752	6
C	-0.719501	-0.695706	-0.536138	6
C	0.352458	-0.613536	-1.593878	6
C	0.970438	-1.676076	-2.127228	6
C	-0.194192	1.487324	0.645492	6
C	0.931898	2.176014	0.874432	6
H	-1.047092	0.156584	2.685942	1
H	-1.429892	-1.253406	1.970192	1
H	0.613628	-0.437666	1.153362	1
H	-1.636162	-0.247916	-0.942008	1
H	-0.954292	-1.750386	-0.336758	1
H	0.617578	0.381364	-1.946538	1
H	0.735838	-2.689726	-1.819528	1
H	1.728248	-1.547726	-2.894458	1
H	-1.086092	2.026994	0.331882	1
H	1.847758	1.685344	1.188752	1
H	0.956248	3.254304	0.749942	1
Es	-1.668647	-0.112367	1.698700	99
Es	0.465029	1.801598	0.452185	99
Es	-0.802412	1.844187	0.433061	99
Es	0.352379	-0.613455	-1.593809	99
Es	-0.328138	-0.004838	0.791799	99
Es	0.970482	-1.676162	-2.127276	99
Es	0.328451	-0.298006	1.031799	99
Es	-1.153946	-0.012541	2.335234	99
Es	-0.517728	-0.338383	0.114498	99
Es	0.954944	2.908842	0.796527	99
Es	-0.895262	-0.158088	1.380948	99
Es	0.438983	-1.173811	-2.098008	99
Es	-0.872749	-1.417319	-0.392757	99
Es	-1.383850	-0.862787	1.903552	99
Es	1.486893	-1.597566	-2.646156	99
Es	-0.254267	0.748821	0.707718	99
Es	0.899513	-1.143469	-1.629980	99
Es	0.810866	-2.367911	-1.923559	99
Es	0.528638	0.063410	-1.823010	99
Es	0.931987	2.176069	0.874457	99
Es	-0.174251	-0.652394	-1.060645	99
Es	0.295508	1.868137	1.077374	99
Es	-1.358357	-0.251156	1.804930	99
Es	-0.719446	-0.695682	-0.536141	99
Es	-0.194273	1.487251	0.645474	99
Es	1.556366	1.846512	1.085604	99
Es	-1.330897	-0.385514	-0.813102	99
45
Properties=species:S:1:pos:R:3:Z:I:1 energy=-288.1142354881005 field_type=dipole dipole="0.000000 0.000000 0.000000" charge=0
N	-1.358872	-0.250946	1.804792	7
C	-0.328002	-0.004846	0.791752	6
C	-0.719501	-0.695706	-0.536138	6
C	0.352458	-0.613536	-1.593878	6
C	0.970438	-1.676076	-2.127228	6
C	-0.194192	1.487324	0.645492	6
C	0.931898	2.176014	0.874432	6
H	-1.047092	0.156584	2.685942	1
H	-1.429892	-1.253406	1.970192	1
H	0.613628	-0.437666	1.153362	1
H	-1.636162	-0.247916	-0.942008	1
H	-0.954292	-1.750386	-0.336758	1
H	0.617578	0.381364	-1.946538	1
H	0.735838	-2.689726	-1.819528	1
H	1.728248	-1.547726	-2.894458	1
H	-1.086092	2.026994	0.331882	1
H	1.847758	1.685344	1.188752	1
H	0.956248	3.254304	0.749942	1
Es	-1.666483	-0.111952	1.696592	99
Es	0.439456	-1.173280	-2.098852	99
Es	-0.517884	-0.338412	0.114443	99
Es	0.931993	2.176066	0.874457	99
Es	-0.802455	1.844481	0.433798	99
Es	-0.328135	-0.004838	0.791797	99
Es	-1.330889	-0.385623	-0.813168	99
Es	0.296179	1.867300	1.076860	99
Es	1.556532	1.846234	1.084916	99
Es	0.352383	-0.613454	-1.593805	99
Es	-0.872749	-1.417254	-0.392640	99
Es	-1.358398	-0.251143	1.804922	99
Es	-0.894083	-0.159489	1.382323	99
Es	0.529355	0.063225	-1.822389	99
Es	-0.194274	1.487250	0.645479	99
Es	0.810136	-2.367954	-1.924373	99
Es	-1.155250	-0.011295	2.335517	99
Es	0.970485	-1.676164	-2.127273	99
Es	-0.174468	-0.652348	-1.060913	99
Es	0.898845	-1.144078	-1.629410	99
Es	-1.385622	-0.863041	1.903699	99
Es	-0.719444	-0.695686	-0.536142	99
Es	0.328314	-0.298046	1.031871	99
Es	1.487381	-1.597454	-2.645376	99
Es	0.464537	1.802419	0.452339	99
Es	-0.254215	0.748882	0.707300	99
Es	0.954567	2.909028	0.797445	99
45
Properties=species:S:1:pos:R:3:Z:I:1 energy=-288.1142354881005 field_type=dipole dipole="0.000000 0.000000 0.000000" charge=0
N	-1.358872	-0.250946	1.804792	7
C	-0.328002	-0.004846	0.791752	6
C	-0.719501	-0.695706	-0.536138	6
C	0.352458	-0.613536	-1.593878	6
C	0.970438	-1.676076	-2.127228	6
C	-0.194192	1.487324	0.645492	6
C	0.931898	2.176014	0.874432	6
H	-1.047092	0.156584	2.685942	1
H	-1.429892	-1.253406	1.970192	1
H	0.613628	-0.437666	1.153362	1
H	-1.636162	-0.247916	-0.942008	1
H	-0.954292	-1.750386	-0.336758	1
H	0.617578	0.381364	-1.946538	1
H	0.735838	-2.689726	-1.819528	1
H	1.728248	-1.547726	-2.894458	1
H	-1.086092	2.026994	0.331882	1
H	1.847758	1.685344	1.188752	1
H	0.956248	3.254304	0.749942	1
Es	-0.873003	-1.417397	-0.392767	99
Es	-0.517957	-0.338450	0.114584	99
Es	-1.358312	-0.251171	1.804932	99
Es	1.556721	1.845910	1.084176	99
Es	-0.893234	-0.159949	1.383493	99
Es	0.352385	-0.613455	-1.593804	99
Es	-0.194271	1.487250	0.645472	99
Es	0.954230	2.909192	0.798204	99
Es	-0.174962	-0.652255	-1.061231	99
Es	-1.386761	-0.863390	1.903348	99
Es	1.487842	-1.597479	-2.644849	99
Es	-0.254047	0.748930	0.706777	99
Es	-1.330560	-0.385590	-0.813163	99
Es	0.439943	-1.172719	-2.099491	99
Es	0.296848	1.866540	1.076410	99
Es	-1.665500	-0.111022	1.695496	99
Es	0.809402	-2.367798	-1.925064	99
Es	0.898464	-1.144683	-1.628774	99
Es	-0.802570	1.844770	0.434535	99
Es	-1.155833	-0.011300	2.335535	99
Es	0.463975	1.803179	0.452668	99
Es	0.931984	2.176068	0.874455	99
Es	-0.328134	-0.004837	0.791794	99
Es	0.970483	-1.676156	-2.127275	99
Es	0.529918	0.062979	-1.821813	99
Es	-0.719445	-0.695684	-0.536141	99
Es	0.328206	-0.298106	1.031908	99
45
Properties=species:S:1:pos:R:3:Z:I:1 energy=-288.1142354881005 field_type=dipole dipole="0.000000 0.000000 0.000000" charge=0
N	-1.358872	-0.250946	1.804792	7
C	-0.328002	-0.004846	0.791752	6
C	-0.719501	-0.695706	-0.536138	6
C	0.352458	-0.613536	-1.593878	6
C	0.970438	-1.676076	-2.127228	6
C	-0.194192	1.487324	0.645492	6
C	0.931898	2.176014	0.874432	6
H	-1.047092	0.156584	2.685942	1
H	-1.429892	-1.253406	1.970192	1
H	0.613628	-0.437666	1.153362	1
H	-1.636162	-0.247916	-0.942008	1
H	-0.954292	-1.750386	-0.336758	1
H	0.617578	0.381364	-1.946538	1
H	0.735838	-2.689726	-1.819528	1
H	1.728248	-1.547726	-2.894458	1
H	-1.086092	2.026994	0.331882	1
H	1.847758	1.685344	1.188752	1
H	0.956248	3.254304	0.749942	1
Es	-1.156634	-0.010432	2.335725	99
Es	0.953827	2.909348	0.799016	99
Es	0.440277	-1.172271	-2.100162	99
Es	-1.664331	-0.110987	1.694148	99
Es	0.897850	-1.145285	-1.628255	99
Es	0.931985	2.176066	0.874444	99
Es	0.297478	1.865672	1.076022	99
Es	1.556843	1.845754	1.083426	99
Es	-1.330362	-0.385556	-0.813205	99
Es	-0.719445	-0.695685	-0.536141	99
Es	-1.358363	-0.251149	1.804909	99
Es	-0.174970	-0.652278	-1.061573	99
Es	-0.892723	-0.160642	1.384345	99
Es	0.530460	0.062920	-1.821171	99
Es	1.488345	-1.597386	-2.644262	99
Es	-0.802723	1.844958	0.435311	99
Es	-0.328137	-0.004837	0.791796	99
Es	0.352385	-0.613455	-1.593805	99
Es	0.463598	1.803925	0.452721	99
Es	-0.518219	-0.338549	0.114627	99
Es	0.808834	-2.367695	-1.925680	99
Es	-0.253974	0.748983	0.706362	99
Es	0.970480	-1.676167	-2.127277	99
Es	-0.873207	-1.417434	-0.392778	99
Es	0.328228	-0.298132	1.032003	99
Es	-1.387412	-0.863562	1.903390	99
Es	-0.194276	1.487252	0.645482	99
45
Properties=species:S:1:pos:R:3:Z:I:1 energy=-288.1142354881005 field_type=dipole dipole="0.000000 0.000000 0.000000" charge=0
N	-1.358872	-0.250946	1.804792	7
C	-0.328002	-0.004846	0.791752	6
C	-0.719501	-0.695706	-0.536138	6
C	0.352458	-0.613536	-1.593878	6
C	0.970438	-1.676076	-2.127228	6
C	-0.194192	1.487324	0.645492	6
C	0.931898	2.176014	0.874432	6
H	-1.047092	0.156584	2.685942	1
H	-1.429892	-1.253406	1.970192	1
H	0.613628	-0.437666	1.153362	1
H	-1.636162	-0.247916	-0.942008	1
H	-0.954292	-1.750386	-0.336758	1
H	0.617578	0.381364	-1.946538	1
H	0.735838	-2.689726	-1.819528	1
H	1.728248	-1.547726	-2.894458	1
H	-1.086092	2.026994	0.331882	1
H	1.847758	1.685344	1.188752	1
H	0.956248	3.254304	0.749942	1
Es	-0.253806	0.749094	0.706077	99
Es	-0.873117	-1.417398	-0.392730	99
Es	-1.157593	-0.010375	2.335915	99
Es	0.970484	-1.676163	-2.127274	99
Es	0.440829	-1.171776	-2.100686	99
Es	1.556965	1.845537	1.082757	99
Es	0.931987	2.176071	0.874456	99
Es	-0.891585	-0.161114	1.385553	99
Es	0.897417	-1.145768	-1.627871	99
Es	-0.328137	-0.004837	0.791797	99
Es	0.953641	2.909435	0.799408	99
Es	-0.802813	1.845183	0.435825	99
Es	-1.388708	-0.863765	1.902961	99
Es	-1.330445	-0.385623	-0.813283	99
Es	0.463149	1.804400	0.453135	99
Es	0.530930	0.062706	-1.820739	99
Es	-0.518306	-0.338684	0.114577	99
Es	-0.719445	-0.695685	-0.536142	99
Es	-0.175321	-0.652291	-1.061726	99
Es	1.488757	-1.597360	-2.643690	99
Es	-0.194273	1.487250	0.645476	99
Es	-1.358383	-0.251140	1.804919	99
Es	0.808163	-2.367605	-1.926279	99
Es	0.328051	-0.298123	1.032040	99
Es	-1.662931	-0.110304	1.692911	99
Es	0.352382	-0.613455	-1.593807	99
Es	0.297923	1.865166	1.075838	99
45
Properties=species:S:1:pos:R:3:Z:I:1 energy=-288.1142354881005 field_type=dipole dipole="0.000000 0.000000 0.000000" charge=0
N	-1.358872	-0.250946	1.804792	7
C	-0.328002	-0.004846	0.791752	6
C	-0.719501	-0.695706	-0.536138	6
C	0.352458	-0.613536	-1.593878	6
C	0.970438	-1.676076	-2.127228	6
C	-0.194192	1.487324	0.645492	6
C	0.931898	2.176014	0.874432	6
H	-1.047092	0.156584	2.685942	1
H	-1.429892	-1.253406	1.970192	1
H	0.613628	-0.437666	1.153362	1
H	-1.636162	-0.247916	-0.942008	1
H	-0.954292	-1.750386	-0.336758	1
H	0.617578	0.381364	-1.946538	1
H	0.735838	-2.689726	-1.819528	1
H	1.728248	-1.547726	-2.894458	1
H	-1.086092	2.026994	0.331882	1
H	1.847758	1.685344	1.188752	1
H	0.956248	3.254304	0.749942	1
Es	0.896850	-1.146109	-1.627577	99
Es	0.352383	-0.613454	-1.593803	99
Es	-1.390125	-0.863835	1.902727	99
Es	-0.802829	1.845367	0.436342	99
Es	0.441203	-1.171465	-2.101190	99
Es	-0.328136	-0.004838	0.791796	99
Es	-0.518547	-0.338735	0.114630	99
Es	-1.358330	-0.251138	1.804882	99
Es	1.557262	1.845356	1.082146	99
Es	0.328038	-0.298118	1.032049	99
Es	-0.175507	-0.652327	-1.062026	99
Es	-1.330373	-0.385722	-0.813275	99
Es	-0.873159	-1.417375	-0.392687	99
Es	0.931990	2.176069	0.874451	99
Es	0.462731	1.804969	0.453452	99
Es	-1.661560	-0.109719	1.691857	99
Es	0.970486	-1.676163	-2.127272	99
Es	-0.719445	-0.695684	-0.536141	99
Es	1.489116	-1.597311	-2.643281	99
Es	-0.890690	-0.161920	1.386454	99
Es	0.807785	-2.367518	-1.926623	99
Es	0.298407	1.864709	1.075434	99
Es	0.953208	2.909433	0.799948	99
Es	-0.253861	0.749125	0.705886	99
Es	-1.158210	-0.010057	2.336052	99
Es	-0.194271	1.487250	0.645472	99
Es	0.531396	0.062586	-1.820284	99
45
Properties=species:S:1:pos:R:3:Z:I:1 energy=-288.1142354881005 field_type=dipole dipole="0.000000 0.000000 0.000000" charge=0
N	-1.358872	-0.250946	1.804792	7
C	-0.328002	-0.004846	0.791752	6
C	-0.719501	-0.695706	-0.536138	6
C	0.352458	-0.613536	-1.593878	6
C	0.970438	-1.676076	-2.127228	6
C	-0.194192	1.487324	0.645492	6
C	0.931898	2.176014	0.874432	6
H	-1.047092	0.156584	2.685942	1
H	-1.429892	-1.253406	1.970192	1
H	0.613628	-0.437666	1.153362	1
H	-1.636162	-0.247916	-0.942008	1
H	-0.954292	-1.750386	-0.336758	1
H	0.617578	0.381364	-1.946538	1
H	0.735838	-2.689726	-1.819528	1
H	1.728248	-1.547726	-2.894458	1
H	-1.086092	2.026994	0.331882	1
H	1.847758	1.685344	1.188752	1
H	0.956248	3.254304	0.749942	1
Es	-1.330252	-0.385711	-0.813342	99
Es	0.462453	1.805548	0.453596	99
Es	0.931991	2.176068	0.874450	99
Es	-0.328138	-0.004837	0.791797	99
Es	-0.253681	0.749196	0.705639	99
Es	0.298740	1.864126	1.075058	99
Es	1.489466	-1.597209	-2.642799	99
Es	-1.391459	-0.863996	1.902538	99
Es	1.557319	1.845111	1.081731	99
Es	0.531696	0.062392	-1.820017	99
Es	0.807291	-2.367425	-1.927165	99
Es	-1.358338	-0.251156	1.804917	99
Es	-0.873283	-1.417377	-0.392694	99
Es	0.327908	-0.298178	1.032104	99
Es	-0.194272	1.487250	0.645478	99
Es	-0.889914	-0.162624	1.387470	99
Es	-0.175677	-0.652275	-1.062234	99
Es	-0.518581	-0.338689	0.114606	99
Es	0.352383	-0.613455	-1.593805	99
Es	-0.802928	1.845614	0.436899	99
Es	0.970486	-1.676162	-2.127272	99
Es	0.896652	-1.146669	-1.627214	99
Es	0.953054	2.909464	0.800492	99
Es	-0.719445	-0.695683	-0.536141	99
Es	-1.159362	-0.009474	2.336174	99
Es	0.441519	-1.171035	-2.101426	99
Es	-1.659812	-0.109437	1.690577	99
45
Properties=species:S:1:pos:R:3:Z:I:1 energy=-288.1142354881005 field_type=dipole dipole="0.000000 0.000000 0.000000" charge=0
N	-1.358872	-0.250946	1.804792	7
C	-0.328002	-0.004846	0.791752	6
C	-0.719501	-0.695706	-0.536138	6
C	0.352458	-0.613536	-1.593878	6
C	0.970438	-1.676076	-2.127228	6
C	-0.194192	1.487324	0.645492	6
C	0.931898	2.176014	0.874432	6
H	-1.047092	0.156584	2.685942	1
H	-1.429892	-1.253406	1.970192	1
H	0.613628	-0.437666	1.153362	1
H	-1.636162	-0.247916	-0.942008	1
H	-0.954292	-1.750386	-0.336758	1
H	0.617578	0.381364	-1.946538	1
H	0.735838	-2.689726	-1.819528	1
H	1.728248	-1.547726	-2.894458	1
H	-1.086092	2.026994	0.331882	1
H	1.847758	1.685344	1.188752	1
H	0.956248	3.254304	0.749942	1
Es	0.299217	1.863780	1.074707	99
Es	0.896207	-1.147155	-1.626988	99
Es	1.489829	-1.597149	-2.642470	99
Es	0.931990	2.176070	0.874453	99
Es	0.462081	1.805900	0.453940	99
Es	-0.194272	1.487249	0.645472	99
Es	-0.518823	-0.338949	0.114590	99
Es	0.970481	-1.676164	-2.127279	99
Es	-1.358383	-0.251142	1.804906	99
Es	0.806747	-2.367286	-1.927603	99
Es	0.952715	2.909518	0.800938	99
Es	0.441985	-1.170648	-2.101587	99
Es	-1.330247	-0.385746	-0.813343	99
Es	-0.719445	-0.695684	-0.536143	99
Es	-1.160059	-0.009240	2.336160	99
Es	0.532142	0.062230	-1.819658	99
Es	-0.328137	-0.004837	0.791795	99
Es	0.327862	-0.298095	1.032182	99
Es	-1.392411	-0.864053	1.902416	99
Es	-0.175865	-0.652266	-1.062476	99
Es	-0.803033	1.845723	0.437274	99
Es	-1.658711	-0.109152	1.689857	99
Es	1.557475	1.844963	1.081215	99
Es	-0.888942	-0.162995	1.388006	99
Es	0.352382	-0.613455	-1.593806	99
Es	-0.873304	-1.417335	-0.392664	99
Es	-0.253668	0.749295	0.705523	99
45
Properties=species:S:1:pos:R:3:Z:I:1 energy=-288.1142354881005 field_type=dipole dipole="0.000000 0.000000 0.000000" charge=0
N	-1.358872	-0.250946	1.804792	7
C	-0.328002	-0.004846	0.791752	6
C	-0.719501	-0.695706	-0.536138	6
C	0.352458	-0.613536	-1.593878	6
C	0.970438	-1.676076	-2.127228	6
C	-0.194192	1.487324	0.645492	6
C	0.931898	2.176014	0.874432	6
H	-1.047092	0.156584	2.685942	1
H	-1.429892	-1.253406	1.970192	1
H	0.613628	-0.437666	1.153362	1
H	-1.636162	-0.247916	-0.942008	1
H	-0.954292	-1.750386	-0.336758	1
H	0.617578	0.381364	-1.946538	1
H	0.735838	-2.689726	-1.819528	1
H	1.728248	-1.547726	-2.894458	1
H	-1.086092	2.026994	0.331882	1
H	1.847758	1.685344	1.188752	1
H	0.956248	3.254304	0.749942	1
Es	-0.176100	-0.652317	-1.062672	99
Es	0.806462	-2.367170	-1.927899	99
Es	-0.719444	-0.695687	-0.536141	99
Es	0.970494	-1.676163	-2.127267	99
Es	-0.194272	1.487251	0.645475	99
Es	-0.887600	-0.163512	1.389072	99
Es	-0.328137	-0.004837	0.791796	99
Es	1.557573	1.844805	1.080832	99
Es	-0.253817	0.749396	0.705458	99
Es	1.490153	-1.597082	-2.642133	99
Es	0.532446	0.062143	-1.819286	99
Es	-0.803094	1.845966	0.437669	99
Es	0.931990	2.176070	0.874453	99
Es	0.299540	1.863407	1.074421	99
Es	0.895756	-1.147450	-1.626817	99
Es	0.952559	2.909534	0.801206	99
Es	-1.161607	-0.008619	2.336266	99
Es	-1.330324	-0.385777	-0.813263	99
Es	-0.873235	-1.417341	-0.392671	99
Es	0.442231	-1.170401	-2.101980	99
Es	0.327956	-0.298176	1.032129	99
Es	0.461858	1.806136	0.454247	99
Es	-1.358311	-0.251112	1.804821	99
Es	-1.393685	-0.864063	1.902178	99
Es	0.352384	-0.613454	-1.593806	99
Es	-1.656928	-0.109179	1.688671	99
Es	-0.519034	-0.338994	0.114659	99
45
Properties=species:S:1:pos:R:3:Z:I:1 energy=-288.1142354881005 field_type=dipole dipole="0.000000 0.000000 0.000000" charge=0
N	-1.358872	-0.250946	1.804792	7
C	-0.328002	-0.004846	0.791752	6
C	-0.719501	-0.695706	-0.536138	6
C	0.352458	-0.613536	-1.593878	6
C	0.970438	-1.676076	-2.127228	6
C	-0.194192	1.487324	0.645492	6
C	0.931898	2.176014	0.874432	6
H	-1.047092	0.156584	2.685942	1
H	-1.429892	-1.253406	1.970192	1
H	0.613628	-0.437666	1.153362	1
H	-1.636162	-0.247916	-0.942008	1
H	-0.954292	-1.750386	-0.336758	1
H	0.617578	0.381364	-1.946538	1
H	0.735838	-2.689726	-1.819528	1
H	1.728248	-1.547726	-2.894458	1
H	-1.086092	2.026994	0.331882	1
H	1.847758	1.685344	1.188752	1
H	0.956248	3.254304	0.749942	1
Es	0.895334	-1.147717	-1.626616	99
Es	-1.656233	-0.108387	1.688525	99
Es	-0.886965	-0.163737	1.389278	99
Es	-1.161492	-0.008935	2.336091	99
Es	1.490462	-1.597064	-2.641758	99
Es	-0.176199	-0.652349	-1.062746	99
Es	-0.253673	0.749434	0.705309	99
Es	-1.394815	-0.864132	1.901926	99
Es	-1.358353	-0.251135	1.804883	99
Es	-0.803172	1.846126	0.438192	99
Es	-0.873322	-1.417290	-0.392642	99
Es	0.442673	-1.170133	-2.102327	99
Es	0.931990	2.176070	0.874453	99
Es	1.557643	1.844644	1.080332	99
Es	-0.519322	-0.339120	0.114681	99
Es	-0.719444	-0.695685	-0.536142	99
Es	0.352383	-0.613454	-1.593805	99
Es	-0.328137	-0.004838	0.791796	99
Es	-1.330237	-0.385802	-0.813387	99
Es	0.952286	2.909608	0.801682	99
Es	0.327836	-0.298152	1.032161	99
Es	-0.194273	1.487250	0.645474	99
Es	0.532806	0.061956	-1.819005	99
Es	0.299983	1.862922	1.074011	99
Es	0.806014	-2.367085	-1.928190	99
Es	0.970488	-1.676162	-2.127271	99
Es	0.461555	1.806543	0.454512	99
45
Properties=species:S:1:pos:R:3:Z:I:1 energy=-288.1142354881005 field_type=dipole dipole="0.000000 0.000000 0.000000" charge=0
N	-1.358872	-0.250946	1.804792	7
C	-0.328002	-0.004846	0.791752	6
C	-0.719501	-0.695706	-0.536138	6
C	0.352458	-0.613536	-1.593878	6
C	0.970438	-1.676076	-2.127228	6
C	-0.194192	1.487324	0.645492	6
C	0.931898	2.176014	0.874432	6
H	-1.047092	0.156584	2.685942	1
H	-1.429892	-1.253406	1.970192	1
H	0.613628	-0.437666	1.153362	1
H	-1.636162	-0.247916	-0.942008	1
H	-0.954292	-1.750386	-0.336758	1
H	0.617578	0.381364	-1.946538	1
H	0.735838	-2.689726	-1.819528	1
H	1.728248	-1.547726	-2.894458	1
H	-1.086092	2.026994	0.331882	1
H	1.847758	1.685344	1.188752	1
H	0.956248	3.254304	0.749942	1
Es	1.557805	1.844625	1.080116	99
Es	-0.253649	0.749479	0.705303	99
Es	1.490724	-1.597083	-2.641474	99
Es	0.931990	2.176070	0.874451	99
Es	-0.519528	-0.339198	0.114722	99
Es	-1.358308	-0.251119	1.804831	99
Es	0.300174	1.862662	1.073822	99
Es	-0.176313	-0.652329	-1.062962	99
Es	-0.803200	1.846140	0.438548	99
Es	-0.873388	-1.417201	-0.392555	99
Es	-0.328136	-0.004837	0.791794	99
Es	0.533070	0.061769	-1.818855	99
Es	0.461451	1.806831	0.454547	99
Es	0.442966	-1.169878	-2.102454	99
Es	-1.654850	-0.108288	1.688056	99
Es	0.970487	-1.676163	-2.127272	99
Es	-0.719445	-0.695685	-0.536142	99
Es	0.352383	-0.613454	-1.593803	99
Es	0.895121	-1.148045	-1.626401	99
Es	-1.395978	-0.864140	1.901564	99
Es	-0.194274	1.487251	0.645480	99
Es	0.327769	-0.298193	1.032146	99
Es	-1.162146	-0.008577	2.336084	99
Es	0.951983	2.909584	0.801939	99
Es	0.805658	-2.366946	-1.928439	99
Es	-1.330216	-0.385822	-0.813400	99
Es	-0.886336	-0.164076	1.389772	99
45
Properties=species:S:1:pos:R:3:Z:I:1 energy=-288.1142354881005 field_type=dipole dipole="0.000000 0.000000 0.000000" charge=0
N	-1.358872	-0.250946	1.804792	7
C	-0.328002	-0.004846	0.791752	6
C	-0.719501	-0.695706	-0.536138	6
C	0.352458	-0.613536	-1.593878	6
C	0.970438	-1.676076	-2.127228	6
C	-0.194192	1.487324	0.645492	6
C	0.931898	2.176014	0.874432	6
H	-1.047092	0.156584	2.685942	1
H	-1.429892	-1.253406	1.970192	1
H	0.613628	-0.437666	1.153362	1
H	-1.636162	-0.247916	-0.942008	1
H	-0.954292	-1.750386	-0.336758	1
H	0.617578	0.381364	-1.946538	1
H	0.735838	-2.689726	-1.819528	1
H	1.728248	-1.547726	-2.894458	1
H	-1.086092	2.026994	0.331882	1
H	1.847758	1.685344	1.188752	1
H	0.956248	3.254304	0.749942	1
Es	1.557880	1.844495	1.079782	99
Es	-1.654705	-0.107905	1.687792	99
Es	-0.253656	0.749564	0.705284	99
Es	0.951817	2.909578	0.802247	99
Es	-0.719446	-0.695684	-0.536140	99
Es	-1.358329	-0.251138	1.804880	99
Es	-0.328136	-0.004838	0.791798	99
Es	0.931990	2.176071	0.874452	99
Es	-0.803243	1.846251	0.439023	99
Es	-1.396375	-0.864069	1.901505	99
Es	0.327653	-0.298176	1.032128	99
Es	0.443290	-1.169668	-2.102509	99
Es	-0.194274	1.487251	0.645477	99
Es	-0.873497	-1.417224	-0.392602	99
Es	0.461237	1.807094	0.454801	99
Es	0.300454	1.862326	1.073541	99
Es	-1.330059	-0.385871	-0.813376	99
Es	-0.885428	-0.164139	1.389922	99
Es	-0.176365	-0.652342	-1.063066	99
Es	0.533434	0.061703	-1.818551	99
Es	-0.519768	-0.339307	0.114774	99
Es	0.805319	-2.366896	-1.928727	99
Es	0.970485	-1.676164	-2.127274	99
Es	0.894720	-1.148321	-1.626355	99
Es	-1.162473	-0.008770	2.335702	99
Es	1.490908	-1.596989	-2.641286	99
Es	0.352382	-0.613455	-1.593804	99
45
Properties=species:S:1:pos:R:3:Z:I:1 energy=-288.1142354881005 field_type=dipole dipole="0.000000 0.000000 0.000000" charge=0
N	-1.358872	-0.250946	1.804792	7
C	-0.328002	-0.004846	0.791752	6
C	-0.719501	-0.695706	-0.536138	6
C	0.352458	-0.613536	-1.593878	6
C	0.970438	-1.676076	-2.127228	6
C	-0.194192	1.487324	0.645492	6
C	0.931898	2.176014	0.874432	6
H	-1.047092	0.156584	2.685942	1
H	-1.429892	-1.253406	1.970192	1
H	0.613628	-0.437666	1.153362	1
H	-1.636162	-0.247916	-0.942008	1
H	-0.954292	-1.750386	-0.336758	1
H	0.617578	0.381364	-1.946538	1
H	0.735838	-2.689726	-1.819528	1
H	1.728248	-1.547726	-2.894458	1
H	-1.086092	2.026994	0.331882	1
H	1.847758	1.685344	1.188752	1
H	0.956248	3.254304	0.749942	1
Es	1.490890	-1.596960	-2.641349	99
Es	0.533370	0.061564	-1.818491	99
Es	-0.719446	-0.695684	-0.536140	99
Es	-0.873542	-1.417151	-0.392582	99
Es	-0.328138	-0.004837	0.791797	99
Es	-0.176294	-0.652345	-1.062982	99
Es	0.300322	1.862318	1.073657	99
Es	0.461356	1.807130	0.454567	99
Es	-1.358354	-0.251128	1.804872	99
Es	-0.519721	-0.339408	0.114668	99
Es	0.894870	-1.148359	-1.626327	99
Es	-1.653212	-0.108705	1.686866	99
Es	1.557841	1.844516	1.079872	99
Es	-0.194275	1.487250	0.645480	99
Es	0.970484	-1.676164	-2.127274	99
Es	-0.884912	-0.164663	1.390419	99
Es	-1.330142	-0.386070	-0.812149	99
Es	-1.163823	-0.007641	2.336033	99
Es	0.951898	2.909553	0.802226	99
Es	0.805402	-2.366844	-1.928791	99
Es	-0.253709	0.749553	0.705344	99
Es	-0.803298	1.846147	0.439042	99
Es	0.443095	-1.169641	-2.102590	99
Es	-1.396925	-0.863597	1.900436	99
Es	0.352385	-0.613454	-1.593805	99
Es	0.327703	-0.298070	1.032164	99
Es	0.931990	2.176070	0.874453	99
45
Properties=species:S:1:pos:R:3:Z:I:1 energy=-288.1142354881005 field_type=dipole dipole="0.000000 0.000000 0.000000" charge=0
N	-1.358872	-0.250946	1.804792	7
C	-0.328002	-0.004846	0.791752	6
C	-0.719501	-0.695706	-0.536138	6
C	0.352458	-0.613536	-1.593878	6
C	0.970438	-1.676076	-2.127228	6
C	-0.194192	1.487324	0.645492	6
C	0.931898	2.176014	0.874432	6
H	-1.047092	0.156584	2.685942	1
H	-1.429892	-1.253406	1.970192	1
H	0.613628	-0.437666	1.153362	1
H	-1.636162	-0.247916	-0.942008	1
H	-0.954292	-1.750386	-0.336758	1
H	0.617578	0.381364	-1.946538	1
H	0.735838	-2.689726	-1.819528	1
H	1.728248	-1.547726	-2.894458	1
H	-1.086092	2.026994	0.331882	1
H	1.847758	1.685344	1.188752	1
H	0.956248	3.254304	0.749942	1
Es	0.443290	-1.169547	-2.102676	99
Es	0.931988	2.176070	0.874458	99
Es	-1.330241	-0.386313	-0.811062	99
Es	0.461239	1.807175	0.454466	99
Es	-1.652868	-0.108947	1.687010	99
Es	0.951897	2.909513	0.802398	99
Es	0.300416	1.862345	1.073748	99
Es	0.894784	-1.148380	-1.626239	99
Es	-0.885268	-0.164688	1.390229	99
Es	-0.873510	-1.417060	-0.392624	99
Es	0.352382	-0.613455	-1.593805	99
Es	0.970487	-1.676164	-2.127271	99
Es	1.557819	1.844510	1.079814	99
Es	-0.194273	1.487250	0.645476	99
Es	0.327622	-0.298070	1.032181	99
Es	-1.358329	-0.251138	1.804878	99
Es	-0.328137	-0.004838	0.791798	99
Es	-0.719444	-0.695686	-0.536140	99
Es	0.533533	0.061487	-1.818421	99
Es	-0.803345	1.846053	0.439054	99
Es	-1.163822	-0.007356	2.336153	99
Es	-0.253519	0.749575	0.705299	99
Es	-0.176388	-0.652378	-1.062999	99
Es	-0.519618	-0.339379	0.114576	99
Es	1.490952	-1.597114	-2.641371	99
Es	-1.397034	-0.863420	1.899343	99
Es	0.805204	-2.366668	-1.928858	99
45
Properties=species:S:1:pos:R:3:Z:I:1 energy=-288.1142354881005 field_type=dipole dipole="0.000000 0.000000 0.000000" charge=0
N	-1.358872	-0.250946	1.804792	7
C	-0.328002	-0.004846	0.791752	6
C	-0.719501	-0.695706	-0.536138	6
C	0.352458	-0.613536	-1.593878	6
C	0.970438	-1.676076	-2.127228	6
C	-0.194192	1.487324	0.645492	6
C	0.931898	2.176014	0.874432	6
H	-1.047092	0.156584	2.685942	1
H	-1.429892	-1.253406	1.970192	1
H	0.613628	-0.437666	1.153362	1
H	-1.636162	-0.247916	-0.942008	1
H	-0.954292	-1.750386	-0.336758	1
H	0.617578	0.381364	-1.946538	1
H	0.735838	-2.689726	-1.819528	1
H	1.728248	-1.547726	-2.894458	1
H	-1.086092	2.026994	0.331882	1
H	1.847758	1.685344	1.188752	1
H	0.956248	3.254304	0.749942	1
Es	-0.519910	-0.339370	0.115018	99
Es	-1.397252	-0.863258	1.898342	99
Es	-0.328136	-0.004837	0.791796	99
Es	0.352379	-0.613456	-1.593810	99
Es	0.461250	1.807112	0.454397	99
Es	0.327726	-0.298004	1.032160	99
Es	-1.330122	-0.386635	-0.810380	99
Es	0.931989	2.176069	0.874457	99
Es	-1.652511	-0.109298	1.686801	99
Es	-0.176307	-0.652363	-1.063021	99
Es	0.443293	-1.169596	-2.102593	99
Es	-0.719445	-0.695685	-0.536142	99
Es	-0.803281	1.846042	0.439166	99
Es	-0.253741	0.749506	0.705280	99
Es	0.970487	-1.676163	-2.127272	99
Es	0.951821	2.909425	0.802377	99
Es	0.300447	1.862359	1.073801	99
Es	1.557911	1.844614	1.079777	99
Es	0.533507	0.061404	-1.818406	99
Es	-0.873421	-1.416910	-0.392552	99
Es	-1.164248	-0.006936	2.336223	99
Es	1.490901	-1.597192	-2.641581	99
Es	0.805061	-2.366586	-1.928874	99
Es	-1.358279	-0.251141	1.804855	99
Es	-0.884958	-0.164631	1.390314	99
Es	0.894928	-1.148345	-1.626191	99
Es	-0.194273	1.487250	0.645476	99
