45
Properties=species:S:1:pos:R:3:Z:I:1 energy=-288.1226783671917 field_type=dipole dipole="0.000000 0.000000 0.000000" charge=0
N	-3.334553	-0.871112	0.222982	7
C	-1.892693	-1.007182	0.420562	6
C	-1.201213	0.360708	0.400802	6
C	0.283037	0.230138	0.610112	6
C	1.199097	0.599528	-0.297458	6
C	2.618097	0.473708	-0.070198	6
C	3.535477	0.848668	-0.969058	6
H	-3.756913	-1.798432	0.192462	1
H	-3.515363	-0.447682	-0.686698	1
H	-1.482053	-1.651112	-0.365648	1
H	-1.714803	-1.505552	1.380472	1
H	-1.607513	0.995548	1.197552	1
H	-1.412513	0.868678	-0.548238	1
H	0.596716	-0.178412	1.568982	1
H	0.879157	1.015448	-1.251008	1
H	2.948057	0.056118	0.878932	1
H	3.264177	1.272918	-1.930458	1
H	4.593807	0.738028	-0.754098	1
Es	0.778517	0.713417	0.275254	99
Es	-3.574676	-1.439515	0.189696	99
Es	3.060956	0.369214	-0.654077	99
Es	-3.482902	-0.675221	0.477823	99
Es	4.256232	0.776628	-0.830910	99
Es	0.282933	0.230101	0.610184	99
Es	1.909514	0.535879	-0.183205	99
Es	0.766386	0.117406	0.018752	99
Es	3.071044	0.958060	-0.397870	99
Es	-1.201166	0.360668	0.400802	99
Es	-1.768427	-1.347704	1.080123	99
Es	2.618014	0.473679	-0.070130	99
Es	-1.536208	-0.318048	0.411034	99
Es	0.492035	-0.051319	1.263775	99
Es	-0.454319	0.289819	0.500608	99
Es	-1.343441	0.701792	-0.253838	99
Es	-3.334301	-0.871437	0.222544	99
Es	-2.708581	-0.940167	0.287427	99
Es	-1.892825	-1.007123	0.420547	99
Es	3.535550	0.848698	-0.969130	99
Es	0.987549	0.883144	-0.948130	99
Es	-3.427343	-0.629573	-0.339220	99
Es	3.353167	1.136943	-1.623088	99
Es	1.199180	0.599551	-0.297522	99
Es	-1.598492	-1.448630	-0.123598	99
Es	-1.467527	0.785621	0.942823	99
Es	2.831684	0.188899	0.577179	99
45
Properties=species:S:1:pos:R:3:Z:I:1 energy=-288.1226783671917 field_type=dipole dipole="0.000000 0.000000 0.000000" charge=0
N	-3.334553	-0.871112	0.222982	7
C	-1.892693	-1.007182	0.420562	6
C	-1.201213	0.360708	0.400802	6
C	0.283037	0.230138	0.610112	6
C	1.199097	0.599528	-0.297458	6
C	2.618097	0.473708	-0.070198	6
C	3.535477	0.848668	-0.969058	6
H	-3.756913	-1.798432	0.192462	1
H	-3.515363	-0.447682	-0.686698	1
H	-1.482053	-1.651112	-0.365648	1
H	-1.714803	-1.505552	1.380472	1
H	-1.607513	0.995548	1.197552	1
H	-1.412513	0.868678	-0.548238	1
H	0.596716	-0.178412	1.568982	1
H	0.879157	1.015448	-1.251008	1
H	2.948057	0.056118	0.878932	1
H	3.264177	1.272918	-1.930458	1
H	4.593807	0.738028	-0.754098	1
Es	0.765890	0.116450	0.017954	99
Es	-3.477064	-0.668758	0.473132	99
Es	1.909671	0.535927	-0.183088	99
Es	-0.453740	0.289097	0.501324	99
Es	-3.426904	-0.634530	-0.339484	99
Es	-1.467992	0.785553	0.942208	99
Es	3.535553	0.848691	-0.969134	99
Es	-2.708360	-0.943287	0.284473	99
Es	0.987962	0.882637	-0.946529	99
Es	-3.334304	-0.871416	0.222573	99
Es	2.618010	0.473678	-0.070127	99
Es	3.353201	1.136558	-1.621824	99
Es	-1.892824	-1.007123	0.420545	99
Es	-1.767610	-1.347629	1.080033	99
Es	4.256893	0.777006	-0.831597	99
Es	-1.201161	0.360666	0.400800	99
Es	2.831177	0.189444	0.575568	99
Es	3.061140	0.367696	-0.654608	99
Es	3.071458	0.959322	-0.397065	99
Es	0.778416	0.714920	0.275482	99
Es	-1.598719	-1.448264	-0.123503	99
Es	0.282930	0.230118	0.610191	99
Es	0.492066	-0.051016	1.262178	99
Es	-3.581738	-1.438099	0.198118	99
Es	1.199183	0.599551	-0.297523	99
Es	-1.536700	-0.317442	0.410816	99
Es	-1.343884	0.701031	-0.253058	99
45
Properties=species:S:1:pos:R:3:Z:I:1 energy=-288.1226783671917 field_type=dipole dipole="0.000000 0.000000 0.000000" charge=0
N	-3.334553	-0.871112	0.222982	7
C	-1.892693	-1.007182	0.420562	6
C	-1.201213	0.360708	0.400802	6
C	0.283037	0.230138	0.610112	6
C	1.199097	0.599528	-0.297458	6
C	2.618097	0.473708	-0.070198	6
C	3.535477	0.848668	-0.969058	6
H	-3.756913	-1.798432	0.192462	1
H	-3.515363	-0.447682	-0.686698	1
H	-1.482053	-1.651112	-0.365648	1
H	-1.714803	-1.505552	1.380472	1
H	-1.607513	0.995548	1.197552	1
H	-1.412513	0.868678	-0.548238	1
H	0.596716	-0.178412	1.568982	1
H	0.879157	1.015448	-1.251008	1
H	2.948057	0.056118	0.878932	1
H	3.264177	1.272918	-1.930458	1
H	4.593807	0.738028	-0.754098	1
Es	3.071635	0.960314	-0.396449	99
Es	0.765847	0.115812	0.017413	99
Es	0.492495	-0.050251	1.260742	99
Es	-1.537257	-0.316966	0.410705	99
Es	-1.892821	-1.007124	0.420546	99
Es	1.199185	0.599550	-0.297523	99
Es	-3.426777	-0.639117	-0.339826	99
Es	2.618013	0.473680	-0.070128	99
Es	-1.468425	0.785445	0.942242	99
Es	3.352752	1.135750	-1.620983	99
Es	-1.598573	-1.447847	-0.124012	99
Es	-1.766713	-1.347332	1.079883	99
Es	-0.453576	0.288416	0.502379	99
Es	-2.708619	-0.946471	0.281863	99
Es	3.061531	0.366645	-0.654768	99
Es	0.987816	0.881762	-0.945368	99
Es	-1.344255	0.700456	-0.252536	99
Es	-3.462791	-0.665605	0.457940	99
Es	-1.201166	0.360667	0.400803	99
Es	-3.334275	-0.871427	0.222547	99
Es	0.778128	0.716040	0.275749	99
Es	-3.596337	-1.433762	0.217135	99
Es	4.257426	0.777117	-0.832713	99
Es	0.282930	0.230113	0.610189	99
Es	3.535553	0.848695	-0.969136	99
Es	1.909597	0.535752	-0.182909	99
Es	2.831227	0.190470	0.574067	99
45
Properties=species:S:1:pos:R:3:Z:I:1 energy=-288.1226783671917 field_type=dipole dipole="0.000000 0.000000 0.000000" charge=0
N	-3.334553	-0.871112	0.222982	7
C	-1.892693	-1.007182	0.420562	6
C	-1.201213	0.360708	0.400802	6
C	0.283037	0.230138	0.610112	6
C	1.199097	0.599528	-0.297458	6
C	2.618097	0.473708	-0.070198	6
C	3.535477	0.848668	-0.969058	6
H	-3.756913	-1.798432	0.192462	1
H	-3.515363	-0.447682	-0.686698	1
H	-1.482053	-1.651112	-0.365648	1
H	-1.714803	-1.505552	1.380472	1
H	-1.607513	0.995548	1.197552	1
H	-1.412513	0.868678	-0.548238	1
H	0.596716	-0.178412	1.568982	1
H	0.879157	1.015448	-1.251008	1
H	2.948057	0.056118	0.878932	1
H	3.264177	1.272918	-1.930458	1
H	4.593807	0.738028	-0.754098	1
Es	-0.453960	0.288037	0.503450	99
Es	-3.426580	-0.643324	-0.339535	99
Es	-3.617869	-1.414509	0.251867	99
Es	0.777830	0.717372	0.276118	99
Es	-3.441051	-0.678319	0.426601	99
Es	0.282930	0.230110	0.610185	99
Es	-1.344556	0.699631	-0.251885	99
Es	0.765928	0.114727	0.016866	99
Es	-1.469649	0.785458	0.943547	99
Es	0.987599	0.880522	-0.944021	99
Es	-1.892821	-1.007124	0.420543	99
Es	0.493043	-0.049000	1.258940	99
Es	4.257474	0.777097	-0.833944	99
Es	3.352543	1.134813	-1.620386	99
Es	3.535555	0.848693	-0.969134	99
Es	-1.766401	-1.346776	1.079576	99
Es	2.831459	0.191600	0.572641	99
Es	3.061739	0.365327	-0.655126	99
Es	-3.334269	-0.871426	0.222540	99
Es	1.199184	0.599553	-0.297524	99
Es	3.071741	0.961690	-0.395782	99
Es	-2.709076	-0.948943	0.279067	99
Es	1.909633	0.535727	-0.182830	99
Es	2.618010	0.473678	-0.070131	99
Es	-1.598048	-1.447858	-0.124956	99
Es	-1.201168	0.360668	0.400807	99
Es	-1.536669	-0.316642	0.410357	99
45
Properties=species:S:1:pos:R:3:Z:I:1 energy=-288.1226783671917 field_type=dipole dipole="0.000000 0.000000 0.000000" charge=0
N	-3.334553	-0.871112	0.222982	7
C	-1.892693	-1.007182	0.420562	6
C	-1.201213	0.360708	0.400802	6
C	0.283037	0.230138	0.610112	6
C	1.199097	0.599528	-0.297458	6
C	2.618097	0.473708	-0.070198	6
C	3.535477	0.848668	-0.969058	6
H	-3.756913	-1.798432	0.192462	1
H	-3.515363	-0.447682	-0.686698	1
H	-1.482053	-1.651112	-0.365648	1
H	-1.714803	-1.505552	1.380472	1
H	-1.607513	0.995548	1.197552	1
H	-1.412513	0.868678	-0.548238	1
H	0.596716	-0.178412	1.568982	1
H	0.879157	1.015448	-1.251008	1
H	2.948057	0.056118	0.878932	1
H	3.264177	1.272918	-1.930458	1
H	4.593807	0.738028	-0.754098	1
Es	1.909695	0.535636	-0.182918	99
Es	2.618014	0.473679	-0.070126	99
Es	-2.710206	-0.950961	0.277111	99
Es	2.831667	0.192726	0.570548	99
Es	-1.892822	-1.007124	0.420544	99
Es	3.352498	1.134196	-1.619684	99
Es	0.777668	0.719127	0.276663	99
Es	-1.470551	0.785709	0.944869	99
Es	-3.633832	-1.381914	0.287218	99
Es	1.199188	0.599553	-0.297521	99
Es	3.071839	0.963556	-0.394981	99
Es	-1.536295	-0.316552	0.410048	99
Es	0.987259	0.879421	-0.941930	99
Es	0.493688	-0.047403	1.255886	99
Es	-1.597565	-1.447937	-0.125927	99
Es	-3.425852	-0.646195	-0.338992	99
Es	-1.201167	0.360668	0.400803	99
Es	-1.344194	0.699138	-0.251344	99
Es	3.061880	0.363489	-0.655699	99
Es	0.282927	0.230115	0.610186	99
Es	-3.334281	-0.871437	0.222522	99
Es	4.257264	0.777425	-0.835053	99
Es	-3.424476	-0.706548	0.393782	99
Es	-1.766258	-1.346241	1.078874	99
Es	-0.455006	0.286862	0.505960	99
Es	3.535553	0.848699	-0.969137	99
Es	0.765914	0.113093	0.016151	99
45
Properties=species:S:1:pos:R:3:Z:I:1 energy=-288.1226783671917 field_type=dipole dipole="0.000000 0.000000 0.000000" charge=0
N	-3.334553	-0.871112	0.222982	7
C	-1.892693	-1.007182	0.420562	6
C	-1.201213	0.360708	0.400802	6
C	0.283037	0.230138	0.610112	6
C	1.199097	0.599528	-0.297458	6
C	2.618097	0.473708	-0.070198	6
C	3.535477	0.848668	-0.969058	6
H	-3.756913	-1.798432	0.192462	1
H	-3.515363	-0.447682	-0.686698	1
H	-1.482053	-1.651112	-0.365648	1
H	-1.714803	-1.505552	1.380472	1
H	-1.607513	0.995548	1.197552	1
H	-1.412513	0.868678	-0.548238	1
H	0.596716	-0.178412	1.568982	1
H	0.879157	1.015448	-1.251008	1
H	2.948057	0.056118	0.878932	1
H	3.264177	1.272918	-1.930458	1
H	4.593807	0.738028	-0.754098	1
Es	3.352797	1.134324	-1.619719	99
Es	0.282928	0.230110	0.610180	99
Es	0.986721	0.878197	-0.939105	99
Es	-2.715093	-0.953485	0.281534	99
Es	3.535556	0.848697	-0.969133	99
Es	0.777752	0.720336	0.277024	99
Es	-1.536182	-0.316524	0.409978	99
Es	-3.415215	-0.736219	0.368951	99
Es	-1.892823	-1.007123	0.420545	99
Es	-0.457584	0.282360	0.515898	99
Es	-1.765665	-1.345524	1.077254	99
Es	2.618011	0.473678	-0.070133	99
Es	4.256658	0.777601	-0.835207	99
Es	-3.334283	-0.871416	0.222511	99
Es	3.061907	0.362271	-0.656131	99
Es	1.199185	0.599553	-0.297521	99
Es	-3.422118	-0.646494	-0.343205	99
Es	0.494062	-0.044084	1.247708	99
Es	1.909388	0.535010	-0.181385	99
Es	-3.642260	-1.350314	0.313675	99
Es	-1.470503	0.786132	0.945265	99
Es	-1.201166	0.360668	0.400803	99
Es	-1.597736	-1.448145	-0.126202	99
Es	0.765703	0.112192	0.015748	99
Es	2.832490	0.194617	0.566192	99
Es	3.071975	0.964523	-0.394493	99
Es	-1.341954	0.699840	-0.253179	99
45
Properties=species:S:1:pos:R:3:Z:I:1 energy=-288.1226783671917 field_type=dipole dipole="0.000000 0.000000 0.000000" charge=0
N	-3.334553	-0.871112	0.222982	7
C	-1.892693	-1.007182	0.420562	6
C	-1.201213	0.360708	0.400802	6
C	0.283037	0.230138	0.610112	6
C	1.199097	0.599528	-0.297458	6
C	2.618097	0.473708	-0.070198	6
C	3.535477	0.848668	-0.969058	6
H	-3.756913	-1.798432	0.192462	1
H	-3.515363	-0.447682	-0.686698	1
H	-1.482053	-1.651112	-0.365648	1
H	-1.714803	-1.505552	1.380472	1
H	-1.607513	0.995548	1.197552	1
H	-1.412513	0.868678	-0.548238	1
H	0.596716	-0.178412	1.568982	1
H	0.879157	1.015448	-1.251008	1
H	2.948057	0.056118	0.878932	1
H	3.264177	1.272918	-1.930458	1
H	4.593807	0.738028	-0.754098	1
Es	-1.764488	-1.343617	1.073529	99
Es	-1.536285	-0.316579	0.409831	99
Es	0.777583	0.720275	0.277051	99
Es	1.909532	0.534761	-0.180592	99
Es	-3.410580	-0.646160	-0.350390	99
Es	0.492575	-0.040607	1.239387	99
Es	2.618006	0.473682	-0.070134	99
Es	4.257730	0.778512	-0.836989	99
Es	-1.470433	0.786053	0.945176	99
Es	-1.338676	0.700920	-0.255561	99
Es	3.072008	0.964682	-0.394393	99
Es	-1.892821	-1.007124	0.420546	99
Es	0.986398	0.877491	-0.936921	99
Es	-0.459359	0.277785	0.526610	99
Es	0.282928	0.230112	0.610181	99
Es	0.765830	0.112047	0.015597	99
Es	3.351716	1.133690	-1.617836	99
Es	-2.727418	-0.955755	0.292859	99
Es	-1.597828	-1.448063	-0.126141	99
Es	1.199186	0.599551	-0.297520	99
Es	3.535555	0.848698	-0.969134	99
Es	-3.410513	-0.764270	0.348900	99
Es	3.061894	0.362161	-0.656194	99
Es	-1.201165	0.360669	0.400806	99
Es	2.832673	0.195668	0.563249	99
Es	-3.334296	-0.871424	0.222484	99
Es	-3.647201	-1.322376	0.333455	99
45
Properties=species:S:1:pos:R:3:Z:I:1 energy=-288.1226783671917 field_type=dipole dipole="0.000000 0.000000 0.000000" charge=0
N	-3.334553	-0.871112	0.222982	7
C	-1.892693	-1.007182	0.420562	6
C	-1.201213	0.360708	0.400802	6
C	0.283037	0.230138	0.610112	6
C	1.199097	0.599528	-0.297458	6
C	2.618097	0.473708	-0.070198	6
C	3.535477	0.848668	-0.969058	6
H	-3.756913	-1.798432	0.192462	1
H	-3.515363	-0.447682	-0.686698	1
H	-1.482053	-1.651112	-0.365648	1
H	-1.714803	-1.505552	1.380472	1
H	-1.607513	0.995548	1.197552	1
H	-1.412513	0.868678	-0.548238	1
H	0.596716	-0.178412	1.568982	1
H	0.879157	1.015448	-1.251008	1
H	2.948057	0.056118	0.878932	1
H	3.264177	1.272918	-1.930458	1
H	4.593807	0.738028	-0.754098	1
Es	0.282930	0.230111	0.610183	99
Es	3.061843	0.362487	-0.656145	99
Es	-3.334306	-0.871460	0.222521	99
Es	-3.408342	-0.787712	0.333596	99
Es	2.618010	0.473681	-0.070133	99
Es	0.492298	-0.040315	1.238089	99
Es	-0.457359	0.277616	0.526970	99
Es	1.909633	0.534569	-0.180275	99
Es	-1.598212	-1.448087	-0.125720	99
Es	4.258416	0.779018	-0.838220	99
Es	-1.892824	-1.007122	0.420543	99
Es	2.832761	0.196108	0.561769	99
Es	-1.764208	-1.341422	1.069198	99
Es	-1.340336	0.700626	-0.254656	99
Es	3.535555	0.848698	-0.969134	99
Es	-1.470110	0.785966	0.944712	99
Es	1.199186	0.599559	-0.297517	99
Es	-1.536399	-0.316422	0.409718	99
Es	0.777780	0.719923	0.277013	99
Es	-2.743986	-0.955497	0.301208	99
Es	3.351013	1.133435	-1.616537	99
Es	0.986208	0.877267	-0.935751	99
Es	0.765622	0.112412	0.015629	99
Es	-3.649983	-1.300439	0.347502	99
Es	-3.393570	-0.647211	-0.353101	99
Es	-1.201165	0.360668	0.400805	99
Es	3.072099	0.964324	-0.394413	99
45
Properties=species:S:1:pos:R:3:Z:I:1 energy=-288.1226783671917 field_type=dipole dipole="0.000000 0.000000 0.000000" charge=0
N	-3.334553	-0.871112	0.222982	7
C	-1.892693	-1.007182	0.420562	6
C	-1.201213	0.360708	0.400802	6
C	0.283037	0.230138	0.610112	6
C	1.199097	0.599528	-0.297458	6
C	2.618097	0.473708	-0.070198	6
C	3.535477	0.848668	-0.969058	6
H	-3.756913	-1.798432	0.192462	1
H	-3.515363	-0.447682	-0.686698	1
H	-1.482053	-1.651112	-0.365648	1
H	-1.714803	-1.505552	1.380472	1
H	-1.607513	0.995548	1.197552	1
H	-1.412513	0.868678	-0.548238	1
H	0.596716	-0.178412	1.568982	1
H	0.879157	1.015448	-1.251008	1
H	2.948057	0.056118	0.878932	1
H	3.264177	1.272918	-1.930458	1
H	4.593807	0.738028	-0.754098	1
Es	-3.652068	-1.279103	0.360061	99
Es	1.199190	0.599541	-0.297519	99
Es	0.282929	0.230111	0.610182	99
Es	-1.764382	-1.340524	1.067072	99
Es	4.258903	0.779554	-0.839026	99
Es	3.072119	0.964075	-0.394475	99
Es	1.909731	0.534852	-0.180835	99
Es	-1.892824	-1.007121	0.420547	99
Es	-1.201165	0.360668	0.400806	99
Es	-1.598736	-1.448149	-0.125182	99
Es	0.492175	-0.040261	1.237540	99
Es	0.986130	0.876977	-0.934560	99
Es	0.765597	0.112615	0.015638	99
Es	2.618009	0.473680	-0.070134	99
Es	-0.456202	0.277617	0.526751	99
Es	-3.406433	-0.810865	0.320160	99
Es	-3.379746	-0.647961	-0.351931	99
Es	-2.757488	-0.954020	0.302962	99
Es	-3.334288	-0.871416	0.222552	99
Es	2.832786	0.196111	0.561181	99
Es	3.061790	0.362737	-0.656116	99
Es	3.535554	0.848698	-0.969134	99
Es	-1.341369	0.700476	-0.253941	99
Es	0.777740	0.719669	0.276916	99
Es	-1.469786	0.785891	0.944340	99
Es	3.350623	1.133262	-1.615490	99
Es	-1.536239	-0.316331	0.409488	99
45
Properties=species:S:1:pos:R:3:Z:I:1 energy=-288.1226783671917 field_type=dipole dipole="0.000000 0.000000 0.000000" charge=0
N	-3.334553	-0.871112	0.222982	7
C	-1.892693	-1.007182	0.420562	6
C	-1.201213	0.360708	0.400802	6
C	0.283037	0.230138	0.610112	6
C	1.199097	0.599528	-0.297458	6
C	2.618097	0.473708	-0.070198	6
C	3.535477	0.848668	-0.969058	6
H	-3.756913	-1.798432	0.192462	1
H	-3.515363	-0.447682	-0.686698	1
H	-1.482053	-1.651112	-0.365648	1
H	-1.714803	-1.505552	1.380472	1
H	-1.607513	0.995548	1.197552	1
H	-1.412513	0.868678	-0.548238	1
H	0.596716	-0.178412	1.568982	1
H	0.879157	1.015448	-1.251008	1
H	2.948057	0.056118	0.878932	1
H	3.264177	1.272918	-1.930458	1
H	4.593807	0.738028	-0.754098	1
Es	-1.468799	0.786203	0.943889	99
Es	-0.472217	0.273895	0.534921	99
Es	0.491510	-0.038797	1.234942	99
Es	-3.405844	-0.831127	0.308455	99
Es	-3.651401	-1.261527	0.372061	99
Es	0.986591	0.878634	-0.940095	99
Es	3.071551	0.964163	-0.395072	99
Es	-1.892823	-1.007124	0.420544	99
Es	3.355660	1.135948	-1.623360	99
Es	-2.703333	-0.927062	0.218755	99
Es	1.909169	0.534604	-0.179852	99
Es	3.535555	0.848698	-0.969133	99
Es	3.062320	0.362753	-0.655518	99
Es	-1.774404	-1.349295	1.083942	99
Es	-1.324560	0.702219	-0.259589	99
Es	2.832877	0.194723	0.565737	99
Es	0.765376	0.112667	0.016454	99
Es	-3.424938	-0.663446	-0.284599	99
Es	-1.537156	-0.317022	0.410387	99
Es	2.618010	0.473682	-0.070130	99
Es	-1.201167	0.360670	0.400804	99
Es	-1.598578	-1.447907	-0.125448	99
Es	4.253474	0.777329	-0.831372	99
Es	0.777891	0.719762	0.276081	99
Es	0.282925	0.230110	0.610176	99
Es	-3.334327	-0.871523	0.222391	99
Es	1.199189	0.599555	-0.297518	99
