42
Properties=species:S:1:pos:R:3:Z:I:1 energy=-286.91093901857414 field_type=dipole dipole="0.000000 0.000000 0.000000" charge=0
N	-2.850263	-1.065587	0.330229	7
C	-1.390363	-1.026777	0.382529	6
C	-0.871823	0.410683	0.261939	6
C	0.629647	0.460923	0.322699	6
C	1.402916	0.914463	-0.673751	6
C	2.818577	0.942793	-0.556721	6
C	4.013717	0.968483	-0.461821	6
H	-3.161553	-2.034967	0.383789	1
H	-3.169613	-0.715407	-0.572381	1
H	-0.985523	-1.645627	-0.426661	1
H	-1.060463	-1.467447	1.330219	1
H	-1.271303	1.020893	1.081459	1
H	-1.234123	0.858063	-0.672371	1
H	1.088227	0.113483	1.247099	1
H	0.966256	1.274333	-1.600611	1
H	5.075686	0.991693	-0.375641	1
Es	-2.993819	-0.874273	0.590320	99
Es	-2.850025	-1.065893	0.329790	99
Es	3.413274	0.619321	-0.386099	99
Es	-1.161957	-1.326379	1.032711	99
Es	0.629568	0.460898	0.322762	99
Es	-1.115560	0.710365	-0.381799	99
Es	-3.025796	-0.866724	-0.228790	99
Es	1.076617	0.400507	-0.325020	99
Es	3.387620	1.219412	-0.273879	99
Es	1.403085	0.914501	-0.673815	99
Es	3.451021	1.024361	-0.859471	99
Es	-0.112684	0.432068	0.284046	99
Es	-1.390496	-1.026727	0.382523	99
Es	-3.023312	-1.657786	0.346742	99
Es	2.134926	0.931728	-0.619039	99
Es	2.818322	0.942776	-0.556755	99
Es	-1.117991	-0.299588	0.321234	99
Es	0.931713	0.222106	0.948692	99
Es	-0.871762	0.410652	0.261935	99
Es	-2.216062	-1.059023	0.332310	99
Es	1.121751	1.157039	-1.297224	99
Es	4.013974	0.968488	-0.461799	99
Es	-1.129138	0.819383	0.817445	99
Es	1.043142	0.996152	-0.077880	99
Es	-1.100361	-1.448557	-0.178258	99
Es	4.706741	0.983296	-0.405494	99
42
Properties=species:S:1:pos:R:3:Z:I:1 energy=-286.91093901857414 field_type=dipole dipole="0.000000 0.000000 0.000000" charge=0
N	-2.850263	-1.065587	0.330229	7
C	-1.390363	-1.026777	0.382529	6
C	-0.871823	0.410683	0.261939	6
C	0.629647	0.460923	0.322699	6
C	1.402916	0.914463	-0.673751	6
C	2.818577	0.942793	-0.556721	6
C	4.013717	0.968483	-0.461821	6
H	-3.161553	-2.034967	0.383789	1
H	-3.169613	-0.715407	-0.572381	1
H	-0.985523	-1.645627	-0.426661	1
H	-1.060463	-1.467447	1.330219	1
H	-1.271303	1.020893	1.081459	1
H	-1.234123	0.858063	-0.672371	1
H	1.088227	0.113483	1.247099	1
H	0.966256	1.274333	-1.600611	1
H	5.075686	0.991693	-0.375641	1
Es	2.818314	0.942794	-0.556744	99
Es	-1.390497	-1.026726	0.382522	99
Es	-1.100104	-1.447510	-0.177085	99
Es	-3.030076	-1.654802	0.353409	99
Es	-0.110983	0.432542	0.284308	99
Es	-0.871763	0.410651	0.261936	99
Es	3.387471	1.155703	-0.227696	99
Es	-2.850012	-1.065900	0.329777	99
Es	2.136962	0.930434	-0.615179	99
Es	-3.028933	-0.868419	-0.225378	99
Es	-1.160647	-1.325760	1.031012	99
Es	1.076200	0.404296	-0.323637	99
Es	1.043232	0.992415	-0.079448	99
Es	1.403090	0.914504	-0.673819	99
Es	3.417040	0.614442	-0.450890	99
Es	4.708904	0.985131	-0.409407	99
Es	3.447101	1.092582	-0.841017	99
Es	-2.212075	-1.058586	0.333094	99
Es	-1.117340	0.709134	-0.379169	99
Es	0.932197	0.223162	0.945954	99
Es	4.013971	0.968494	-0.461794	99
Es	0.629564	0.460890	0.322763	99
Es	-1.118865	-0.298285	0.321486	99
Es	1.120951	1.155813	-1.294462	99
Es	-2.990487	-0.876180	0.579953	99
Es	-1.130426	0.817288	0.814700	99
42
Properties=species:S:1:pos:R:3:Z:I:1 energy=-286.91093901857414 field_type=dipole dipole="0.000000 0.000000 0.000000" charge=0
N	-2.850263	-1.065587	0.330229	7
C	-1.390363	-1.026777	0.382529	6
C	-0.871823	0.410683	0.261939	6
C	0.629647	0.460923	0.322699	6
C	1.402916	0.914463	-0.673751	6
C	2.818577	0.942793	-0.556721	6
C	4.013717	0.968483	-0.461821	6
H	-3.161553	-2.034967	0.383789	1
H	-3.169613	-0.715407	-0.572381	1
H	-0.985523	-1.645627	-0.426661	1
H	-1.060463	-1.467447	1.330219	1
H	-1.271303	1.020893	1.081459	1
H	-1.234123	0.858063	-0.672371	1
H	1.088227	0.113483	1.247099	1
H	0.966256	1.274333	-1.600611	1
H	5.075686	0.991693	-0.375641	1
Es	1.076312	0.405569	-0.323155	99
Es	1.121028	1.154462	-1.292171	99
Es	-2.985387	-0.876998	0.570371	99
Es	2.138065	0.929577	-0.614156	99
Es	4.709583	0.985430	-0.412479	99
Es	-0.871762	0.410652	0.261935	99
Es	-2.850004	-1.065906	0.329779	99
Es	-1.390494	-1.026729	0.382523	99
Es	-1.130941	0.816316	0.813020	99
Es	-1.118094	0.707928	-0.377139	99
Es	3.389905	1.014471	-0.155806	99
Es	1.403091	0.914509	-0.673818	99
Es	-3.036587	-1.652579	0.361264	99
Es	0.931856	0.224253	0.943697	99
Es	0.629565	0.460893	0.322763	99
Es	1.043115	0.991523	-0.079679	99
Es	-2.210647	-1.058848	0.333168	99
Es	2.818314	0.942765	-0.556739	99
Es	-3.030118	-0.869811	-0.223082	99
Es	-1.160154	-1.325000	1.029623	99
Es	3.437784	1.198299	-0.773135	99
Es	-1.099930	-1.447149	-0.176333	99
Es	4.013976	0.968486	-0.461803	99
Es	3.423744	0.650582	-0.589708	99
Es	-0.110122	0.432672	0.284524	99
Es	-1.119311	-0.297261	0.321726	99
42
Properties=species:S:1:pos:R:3:Z:I:1 energy=-286.91093901857414 field_type=dipole dipole="0.000000 0.000000 0.000000" charge=0
N	-2.850263	-1.065587	0.330229	7
C	-1.390363	-1.026777	0.382529	6
C	-0.871823	0.410683	0.261939	6
C	0.629647	0.460923	0.322699	6
C	1.402916	0.914463	-0.673751	6
C	2.818577	0.942793	-0.556721	6
C	4.013717	0.968483	-0.461821	6
H	-3.161553	-2.034967	0.383789	1
H	-3.169613	-0.715407	-0.572381	1
H	-0.985523	-1.645627	-0.426661	1
H	-1.060463	-1.467447	1.330219	1
H	-1.271303	1.020893	1.081459	1
H	-1.234123	0.858063	-0.672371	1
H	1.088227	0.113483	1.247099	1
H	0.966256	1.274333	-1.600611	1
H	5.075686	0.991693	-0.375641	1
Es	0.629564	0.460892	0.322762	99
Es	1.121758	1.152667	-1.290485	99
Es	0.931073	0.225664	0.941863	99
Es	-2.979745	-0.877630	0.559575	99
Es	-1.119734	-0.296840	0.321708	99
Es	-0.871762	0.410651	0.261935	99
Es	-1.160209	-1.323982	1.028463	99
Es	4.709760	0.986936	-0.413476	99
Es	-1.390499	-1.026725	0.382523	99
Es	3.450012	0.965073	-0.868245	99
Es	-0.109711	0.432908	0.284635	99
Es	-1.131785	0.815824	0.812234	99
Es	2.818306	0.942783	-0.556729	99
Es	-2.849990	-1.065929	0.329761	99
Es	3.407090	0.682123	-0.272791	99
Es	1.403094	0.914498	-0.673825	99
Es	2.138678	0.929417	-0.613666	99
Es	4.013979	0.968493	-0.461809	99
Es	1.076965	0.405792	-0.323015	99
Es	-1.117973	0.706894	-0.375231	99
Es	3.394368	1.214862	-0.377817	99
Es	-3.044006	-1.649627	0.370935	99
Es	-3.029769	-0.872144	-0.220943	99
Es	-1.099232	-1.447162	-0.176244	99
Es	-2.209858	-1.058975	0.332755	99
Es	1.042417	0.991644	-0.079684	99
42
Properties=species:S:1:pos:R:3:Z:I:1 energy=-286.91093901857414 field_type=dipole dipole="0.000000 0.000000 0.000000" charge=0
N	-2.850263	-1.065587	0.330229	7
C	-1.390363	-1.026777	0.382529	6
C	-0.871823	0.410683	0.261939	6
C	0.629647	0.460923	0.322699	6
C	1.402916	0.914463	-0.673751	6
C	2.818577	0.942793	-0.556721	6
C	4.013717	0.968483	-0.461821	6
H	-3.161553	-2.034967	0.383789	1
H	-3.169613	-0.715407	-0.572381	1
H	-0.985523	-1.645627	-0.426661	1
H	-1.060463	-1.467447	1.330219	1
H	-1.271303	1.020893	1.081459	1
H	-1.234123	0.858063	-0.672371	1
H	1.088227	0.113483	1.247099	1
H	0.966256	1.274333	-1.600611	1
H	5.075686	0.991693	-0.375641	1
Es	-1.160552	-1.323137	1.027273	99
Es	3.405564	0.697123	-0.254988	99
Es	1.122530	1.151290	-1.288815	99
Es	-0.109488	0.433169	0.284386	99
Es	-2.970924	-0.882116	0.544609	99
Es	-1.390500	-1.026723	0.382522	99
Es	3.450058	0.960654	-0.868480	99
Es	0.929997	0.226752	0.940171	99
Es	4.709897	0.986869	-0.414102	99
Es	4.013980	0.968500	-0.461802	99
Es	-1.119903	-0.296532	0.321735	99
Es	-3.029217	-0.873427	-0.219010	99
Es	1.077550	0.405589	-0.323010	99
Es	-1.117506	0.705884	-0.373483	99
Es	-0.871763	0.410652	0.261934	99
Es	2.818305	0.942784	-0.556730	99
Es	1.042003	0.992095	-0.079470	99
Es	0.629563	0.460898	0.322764	99
Es	-1.132700	0.815752	0.811925	99
Es	3.395830	1.204295	-0.395361	99
Es	1.403094	0.914497	-0.673823	99
Es	-2.209430	-1.059282	0.332496	99
Es	-2.849973	-1.065959	0.329716	99
Es	-3.054189	-1.643599	0.384823	99
Es	-1.098526	-1.447284	-0.176312	99
Es	2.139092	0.929363	-0.613778	99
42
Properties=species:S:1:pos:R:3:Z:I:1 energy=-286.91093901857414 field_type=dipole dipole="0.000000 0.000000 0.000000" charge=0
N	-2.850263	-1.065587	0.330229	7
C	-1.390363	-1.026777	0.382529	6
C	-0.871823	0.410683	0.261939	6
C	0.629647	0.460923	0.322699	6
C	1.402916	0.914463	-0.673751	6
C	2.818577	0.942793	-0.556721	6
C	4.013717	0.968483	-0.461821	6
H	-3.161553	-2.034967	0.383789	1
H	-3.169613	-0.715407	-0.572381	1
H	-0.985523	-1.645627	-0.426661	1
H	-1.060463	-1.467447	1.330219	1
H	-1.271303	1.020893	1.081459	1
H	-1.234123	0.858063	-0.672371	1
H	1.088227	0.113483	1.247099	1
H	0.966256	1.274333	-1.600611	1
H	5.075686	0.991693	-0.375641	1
Es	3.440614	1.174319	-0.794395	99
Es	-1.390501	-1.026723	0.382522	99
Es	-1.161130	-1.322657	1.026142	99
Es	-1.119452	-0.295853	0.321657	99
Es	-3.030205	-0.870923	-0.216375	99
Es	-2.209218	-1.059874	0.331567	99
Es	-3.064637	-1.634326	0.398909	99
Es	-2.959919	-0.893141	0.529240	99
Es	-0.109416	0.433386	0.284285	99
Es	1.042131	0.992863	-0.078577	99
Es	-1.133413	0.816019	0.811489	99
Es	0.928775	0.227128	0.938255	99
Es	2.818305	0.942782	-0.556722	99
Es	4.013981	0.968490	-0.461814	99
Es	3.389820	0.988641	-0.148639	99
Es	-0.871762	0.410653	0.261934	99
Es	-2.849946	-1.066059	0.329653	99
Es	-1.098407	-1.447809	-0.175759	99
Es	1.123656	1.151087	-1.286799	99
Es	-1.116935	0.704932	-0.372304	99
Es	3.420993	0.700019	-0.575156	99
Es	0.629563	0.460895	0.322763	99
Es	1.077493	0.404811	-0.323710	99
Es	4.710038	0.985396	-0.414889	99
Es	1.403093	0.914498	-0.673822	99
Es	2.139270	0.929551	-0.614265	99
42
Properties=species:S:1:pos:R:3:Z:I:1 energy=-286.91093901857414 field_type=dipole dipole="0.000000 0.000000 0.000000" charge=0
N	-2.850263	-1.065587	0.330229	7
C	-1.390363	-1.026777	0.382529	6
C	-0.871823	0.410683	0.261939	6
C	0.629647	0.460923	0.322699	6
C	1.402916	0.914463	-0.673751	6
C	2.818577	0.942793	-0.556721	6
C	4.013717	0.968483	-0.461821	6
H	-3.161553	-2.034967	0.383789	1
H	-3.169613	-0.715407	-0.572381	1
H	-0.985523	-1.645627	-0.426661	1
H	-1.060463	-1.467447	1.330219	1
H	-1.271303	1.020893	1.081459	1
H	-1.234123	0.858063	-0.672371	1
H	1.088227	0.113483	1.247099	1
H	0.966256	1.274333	-1.600611	1
H	5.075686	0.991693	-0.375641	1
Es	2.818304	0.942784	-0.556723	99
Es	0.629562	0.460895	0.322762	99
Es	-3.076214	-1.618923	0.416607	99
Es	-1.119340	-0.295473	0.321783	99
Es	2.139380	0.929553	-0.614533	99
Es	1.124532	1.150610	-1.285516	99
Es	1.078297	0.404392	-0.324329	99
Es	3.389220	1.008823	-0.153124	99
Es	3.441679	1.163814	-0.801318	99
Es	0.927805	0.227862	0.937007	99
Es	-2.849954	-1.066012	0.329678	99
Es	-3.030342	-0.869207	-0.214206	99
Es	-2.948450	-0.910031	0.509876	99
Es	-1.097658	-1.448167	-0.175855	99
Es	-1.134316	0.816029	0.811409	99
Es	-0.109328	0.433480	0.284243	99
Es	1.403095	0.914504	-0.673820	99
Es	-2.209075	-1.060120	0.331219	99
Es	3.420533	0.690440	-0.563696	99
Es	-1.116382	0.704272	-0.371365	99
Es	-1.161762	-1.322001	1.025282	99
Es	4.710102	0.985062	-0.414906	99
Es	-1.390500	-1.026725	0.382520	99
Es	1.041382	0.993104	-0.077927	99
Es	4.013983	0.968488	-0.461814	99
Es	-0.871762	0.410652	0.261936	99
42
Properties=species:S:1:pos:R:3:Z:I:1 energy=-286.91093901857414 field_type=dipole dipole="0.000000 0.000000 0.000000" charge=0
N	-2.850263	-1.065587	0.330229	7
C	-1.390363	-1.026777	0.382529	6
C	-0.871823	0.410683	0.261939	6
C	0.629647	0.460923	0.322699	6
C	1.402916	0.914463	-0.673751	6
C	2.818577	0.942793	-0.556721	6
C	4.013717	0.968483	-0.461821	6
H	-3.161553	-2.034967	0.383789	1
H	-3.169613	-0.715407	-0.572381	1
H	-0.985523	-1.645627	-0.426661	1
H	-1.060463	-1.467447	1.330219	1
H	-1.271303	1.020893	1.081459	1
H	-1.234123	0.858063	-0.672371	1
H	1.088227	0.113483	1.247099	1
H	0.966256	1.274333	-1.600611	1
H	5.075686	0.991693	-0.375641	1
Es	-1.097111	-1.448396	-0.175876	99
Es	3.389183	1.006954	-0.152904	99
Es	1.125628	1.149611	-1.284369	99
Es	-2.849956	-1.066013	0.329678	99
Es	1.040673	0.994034	-0.077506	99
Es	-1.135202	0.816390	0.811318	99
Es	-1.390501	-1.026721	0.382523	99
Es	1.403095	0.914499	-0.673821	99
Es	1.079023	0.403657	-0.324509	99
Es	-0.871762	0.410652	0.261935	99
Es	-2.941130	-0.924619	0.496490	99
Es	-2.208985	-1.060096	0.331416	99
Es	-1.115576	0.703612	-0.370429	99
Es	-3.029978	-0.867408	-0.211925	99
Es	-0.109318	0.433473	0.284082	99
Es	4.013981	0.968478	-0.461804	99
Es	-1.162258	-1.321529	1.024523	99
Es	0.629562	0.460908	0.322767	99
Es	-1.119353	-0.295312	0.321744	99
Es	-3.084064	-1.606163	0.427666	99
Es	3.420721	0.690353	-0.566405	99
Es	0.926680	0.228712	0.935674	99
Es	2.818304	0.942783	-0.556727	99
Es	4.710160	0.984936	-0.414711	99
Es	2.139450	0.929609	-0.614738	99
Es	3.441525	1.165703	-0.798902	99
42
Properties=species:S:1:pos:R:3:Z:I:1 energy=-286.91093901857414 field_type=dipole dipole="0.000000 0.000000 0.000000" charge=0
N	-2.850263	-1.065587	0.330229	7
C	-1.390363	-1.026777	0.382529	6
C	-0.871823	0.410683	0.261939	6
C	0.629647	0.460923	0.322699	6
C	1.402916	0.914463	-0.673751	6
C	2.818577	0.942793	-0.556721	6
C	4.013717	0.968483	-0.461821	6
H	-3.161553	-2.034967	0.383789	1
H	-3.169613	-0.715407	-0.572381	1
H	-0.985523	-1.645627	-0.426661	1
H	-1.060463	-1.467447	1.330219	1
H	-1.271303	1.020893	1.081459	1
H	-1.234123	0.858063	-0.672371	1
H	1.088227	0.113483	1.247099	1
H	0.966256	1.274333	-1.600611	1
H	5.075686	0.991693	-0.375641	1
Es	-1.162126	-1.321712	1.024563	99
Es	-3.027704	-0.869091	-0.211291	99
Es	-2.849965	-1.065995	0.329700	99
Es	2.139491	0.929248	-0.614662	99
Es	-3.098176	-1.569893	0.455711	99
Es	-0.109296	0.433535	0.284236	99
Es	-1.119043	-0.295293	0.321773	99
Es	0.927069	0.229402	0.936334	99
Es	-1.135711	0.815619	0.811876	99
Es	-0.871762	0.410652	0.261934	99
Es	-1.390500	-1.026724	0.382525	99
Es	2.818304	0.942781	-0.556724	99
Es	-2.929434	-0.959637	0.466552	99
Es	1.125235	1.148404	-1.285167	99
Es	4.013982	0.968490	-0.461810	99
Es	1.039140	0.993070	-0.078160	99
Es	-1.096794	-1.447808	-0.176502	99
Es	3.388769	1.176249	-0.268243	99
Es	-1.115839	0.703782	-0.370592	99
Es	3.449006	1.041237	-0.857216	99
Es	-2.208852	-1.059652	0.332648	99
Es	0.629562	0.460895	0.322764	99
Es	1.080550	0.404958	-0.323860	99
Es	1.403095	0.914498	-0.673822	99
Es	3.413624	0.645341	-0.393242	99
Es	4.710165	0.985750	-0.414138	99
42
Properties=species:S:1:pos:R:3:Z:I:1 energy=-286.91093901857414 field_type=dipole dipole="0.000000 0.000000 0.000000" charge=0
N	-2.850263	-1.065587	0.330229	7
C	-1.390363	-1.026777	0.382529	6
C	-0.871823	0.410683	0.261939	6
C	0.629647	0.460923	0.322699	6
C	1.402916	0.914463	-0.673751	6
C	2.818577	0.942793	-0.556721	6
C	4.013717	0.968483	-0.461821	6
H	-3.161553	-2.034967	0.383789	1
H	-3.169613	-0.715407	-0.572381	1
H	-0.985523	-1.645627	-0.426661	1
H	-1.060463	-1.467447	1.330219	1
H	-1.271303	1.020893	1.081459	1
H	-1.234123	0.858063	-0.672371	1
H	1.088227	0.113483	1.247099	1
H	0.966256	1.274333	-1.600611	1
H	5.075686	0.991693	-0.375641	1
Es	3.450126	0.931059	-0.864622	99
Es	4.710224	0.985603	-0.413950	99
Es	1.080153	0.402488	-0.323749	99
Es	0.629562	0.460889	0.322760	99
Es	-3.026136	-0.868022	-0.207602	99
Es	1.403095	0.914496	-0.673824	99
Es	2.818304	0.942779	-0.556729	99
Es	1.039501	0.996108	-0.077737	99
Es	-2.208815	-1.059850	0.332247	99
Es	-1.096093	-1.448934	-0.175774	99
Es	-0.109299	0.433749	0.283940	99
Es	-1.163540	-1.320871	1.022821	99
Es	-1.114362	0.703037	-0.368888	99
Es	3.403818	0.718753	-0.237844	99
Es	3.397496	1.212550	-0.415933	99
Es	0.925109	0.230224	0.933900	99
Es	-1.136313	0.816531	0.811001	99
Es	-0.871762	0.410650	0.261933	99
Es	-1.390501	-1.026722	0.382523	99
Es	-1.119246	-0.295228	0.322054	99
Es	-3.097243	-1.580832	0.444022	99
Es	-2.931951	-0.949762	0.474817	99
Es	-2.850054	-1.065839	0.329876	99
Es	1.127226	1.147075	-1.283073	99
Es	4.013982	0.968486	-0.461814	99
Es	2.139510	0.929688	-0.615167	99
