45
Properties=species:S:1:pos:R:3:Z:I:1 energy=-288.11850269204507 field_type=dipole dipole="0.000000 0.000000 0.000000" charge=0
N	-2.752478	-0.363297	-0.146322	7
C	-1.321068	-0.674197	-0.175672	6
C	-0.480938	0.597273	-0.355062	6
C	1.007672	0.306483	-0.385322	6
C	1.655332	0.221853	-1.560482	6
C	1.758571	0.151613	0.853378	6
C	1.271631	0.223303	2.099178	6
H	-3.280578	-1.233907	-0.089022	1
H	-3.023498	0.076063	-1.025672	1
H	-1.127588	-1.372047	-0.998962	1
H	-1.058048	-1.186177	0.755858	1
H	-0.711788	1.329193	0.428878	1
H	-0.777208	1.085513	-1.294262	1
H	1.132242	0.342463	-2.503802	1
H	2.722131	0.027943	-1.621752	1
H	2.827082	-0.036797	0.749598	1
H	0.226072	0.408973	2.318248	1
H	1.932462	0.095753	2.951198	1
Es	1.559091	0.507408	1.467527	99
Es	1.302259	0.304002	-2.205254	99
Es	-0.480890	0.597226	-0.355068	99
Es	1.007604	0.306492	-0.385206	99
Es	-1.140666	-1.022232	0.461656	99
Es	-1.321190	-0.674116	-0.175679	99
Es	-2.136214	-0.506426	-0.180293	99
Es	-1.176667	-1.152944	-0.747815	99
Es	1.285834	-0.056767	-0.971550	99
Es	1.406550	0.576076	-0.954045	99
Es	-0.886909	-0.034434	-0.261891	99
Es	-2.904435	-0.113747	-0.692653	99
Es	1.445424	-0.127973	1.460278	99
Es	1.758594	0.151605	0.853266	99
Es	-2.834793	-0.149729	0.124661	99
Es	1.714817	0.137434	2.680160	99
Es	-0.681696	0.921212	-1.002737	99
Es	1.271597	0.223323	2.099271	99
Es	2.380460	0.088443	-1.603965	99
Es	-0.629151	1.084259	0.182291	99
Es	2.483050	0.023162	0.771122	99
Es	-2.752346	-0.363637	-0.146768	99
Es	1.655381	0.221847	-1.560577	99
Es	0.269834	0.444412	-0.359875	99
Es	1.368314	0.227095	0.243162	99
Es	0.564108	0.348189	2.249057	99
Es	-3.059925	-0.898976	-0.128766	99
45
Properties=species:S:1:pos:R:3:Z:I:1 energy=-288.11850269204507 field_type=dipole dipole="0.000000 0.000000 0.000000" charge=0
N	-2.752478	-0.363297	-0.146322	7
C	-1.321068	-0.674197	-0.175672	6
C	-0.480938	0.597273	-0.355062	6
C	1.007672	0.306483	-0.385322	6
C	1.655332	0.221853	-1.560482	6
C	1.758571	0.151613	0.853378	6
C	1.271631	0.223303	2.099178	6
H	-3.280578	-1.233907	-0.089022	1
H	-3.023498	0.076063	-1.025672	1
H	-1.127588	-1.372047	-0.998962	1
H	-1.058048	-1.186177	0.755858	1
H	-0.711788	1.329193	0.428878	1
H	-0.777208	1.085513	-1.294262	1
H	1.132242	0.342463	-2.503802	1
H	2.722131	0.027943	-1.621752	1
H	2.827082	-0.036797	0.749598	1
H	0.226072	0.408973	2.318248	1
H	1.932462	0.095753	2.951198	1
Es	-0.886399	-0.033952	-0.262461	99
Es	1.271593	0.223308	2.099273	99
Es	-2.752340	-0.363623	-0.146781	99
Es	-1.176005	-1.152637	-0.750799	99
Es	-2.836546	-0.141765	0.138865	99
Es	1.559621	0.508998	1.467649	99
Es	1.714197	0.136856	2.680470	99
Es	-3.051895	-0.894374	-0.132512	99
Es	1.285514	-0.058169	-0.971766	99
Es	-2.902441	-0.121494	-0.698610	99
Es	1.758596	0.151626	0.853266	99
Es	-1.139803	-1.021179	0.464448	99
Es	-0.681519	0.920243	-1.006016	99
Es	2.481563	0.024275	0.771480	99
Es	0.564796	0.347388	2.249019	99
Es	-0.480891	0.597229	-0.355067	99
Es	1.302817	0.304455	-2.207097	99
Es	1.368604	0.227145	0.243807	99
Es	-2.142655	-0.510627	-0.184814	99
Es	1.445533	-0.129811	1.460561	99
Es	1.406457	0.577170	-0.954549	99
Es	-1.321194	-0.674111	-0.175676	99
Es	2.378441	0.089543	-1.603100	99
Es	-0.629750	1.084425	0.186224	99
Es	1.655384	0.221843	-1.560582	99
Es	0.268752	0.441953	-0.359721	99
Es	1.007603	0.306491	-0.385202	99
45
Properties=species:S:1:pos:R:3:Z:I:1 energy=-288.11850269204507 field_type=dipole dipole="0.000000 0.000000 0.000000" charge=0
N	-2.752478	-0.363297	-0.146322	7
C	-1.321068	-0.674197	-0.175672	6
C	-0.480938	0.597273	-0.355062	6
C	1.007672	0.306483	-0.385322	6
C	1.655332	0.221853	-1.560482	6
C	1.758571	0.151613	0.853378	6
C	1.271631	0.223303	2.099178	6
H	-3.280578	-1.233907	-0.089022	1
H	-3.023498	0.076063	-1.025672	1
H	-1.127588	-1.372047	-0.998962	1
H	-1.058048	-1.186177	0.755858	1
H	-0.711788	1.329193	0.428878	1
H	-0.777208	1.085513	-1.294262	1
H	1.132242	0.342463	-2.503802	1
H	2.722131	0.027943	-1.621752	1
H	2.827082	-0.036797	0.749598	1
H	0.226072	0.408973	2.318248	1
H	1.932462	0.095753	2.951198	1
Es	-2.900328	-0.126067	-0.702854	99
Es	1.559693	0.509831	1.467567	99
Es	1.406185	0.577798	-0.954976	99
Es	2.377148	0.090822	-1.602118	99
Es	1.285417	-0.059099	-0.971815	99
Es	1.758593	0.151610	0.853268	99
Es	1.303845	0.305031	-2.208335	99
Es	-3.043584	-0.887631	-0.138181	99
Es	1.271592	0.223307	2.099273	99
Es	-0.886028	-0.033843	-0.262881	99
Es	-2.752348	-0.363638	-0.146809	99
Es	1.368583	0.227098	0.244161	99
Es	-0.631034	1.083416	0.189217	99
Es	1.007603	0.306497	-0.385202	99
Es	0.564410	0.346186	2.249455	99
Es	2.480910	0.025431	0.771952	99
Es	-1.321191	-0.674116	-0.175676	99
Es	-0.680274	0.919565	-1.008411	99
Es	-2.840381	-0.141402	0.149944	99
Es	1.446008	-0.130605	1.460907	99
Es	-1.139646	-1.020490	0.466386	99
Es	1.655383	0.221838	-1.560583	99
Es	-0.480890	0.597229	-0.355068	99
Es	-1.175027	-1.151343	-0.753386	99
Es	-2.147462	-0.512808	-0.186229	99
Es	1.713821	0.136351	2.679872	99
Es	0.267036	0.440238	-0.359173	99
45
Properties=species:S:1:pos:R:3:Z:I:1 energy=-288.11850269204507 field_type=dipole dipole="0.000000 0.000000 0.000000" charge=0
N	-2.752478	-0.363297	-0.146322	7
C	-1.321068	-0.674197	-0.175672	6
C	-0.480938	0.597273	-0.355062	6
C	1.007672	0.306483	-0.385322	6
C	1.655332	0.221853	-1.560482	6
C	1.758571	0.151613	0.853378	6
C	1.271631	0.223303	2.099178	6
H	-3.280578	-1.233907	-0.089022	1
H	-3.023498	0.076063	-1.025672	1
H	-1.127588	-1.372047	-0.998962	1
H	-1.058048	-1.186177	0.755858	1
H	-0.711788	1.329193	0.428878	1
H	-0.777208	1.085513	-1.294262	1
H	1.132242	0.342463	-2.503802	1
H	2.722131	0.027943	-1.621752	1
H	2.827082	-0.036797	0.749598	1
H	0.226072	0.408973	2.318248	1
H	1.932462	0.095753	2.951198	1
Es	0.563639	0.345124	2.250741	99
Es	-0.678654	0.919142	-1.010089	99
Es	-0.885330	-0.033337	-0.263289	99
Es	1.285591	-0.060059	-0.971667	99
Es	1.758591	0.151610	0.853267	99
Es	-1.140020	-1.020120	0.467435	99
Es	2.376372	0.092330	-1.601266	99
Es	1.446494	-0.131329	1.461193	99
Es	1.368176	0.227145	0.244842	99
Es	-1.321191	-0.674116	-0.175676	99
Es	1.655384	0.221842	-1.560584	99
Es	2.481002	0.026665	0.771821	99
Es	-0.480889	0.597226	-0.355067	99
Es	-0.632644	1.081577	0.191759	99
Es	1.304956	0.305580	-2.209080	99
Es	1.559686	0.510320	1.467480	99
Es	1.271592	0.223304	2.099274	99
Es	0.265037	0.438990	-0.358603	99
Es	-1.173804	-1.149711	-0.755353	99
Es	1.007606	0.306496	-0.385203	99
Es	-2.153472	-0.513580	-0.185445	99
Es	1.405549	0.578307	-0.955515	99
Es	-3.031884	-0.876909	-0.146895	99
Es	-2.752349	-0.363611	-0.146787	99
Es	-2.895899	-0.130140	-0.707045	99
Es	1.713564	0.135852	2.678250	99
Es	-2.849067	-0.147392	0.161812	99
45
Properties=species:S:1:pos:R:3:Z:I:1 energy=-288.11850269204507 field_type=dipole dipole="0.000000 0.000000 0.000000" charge=0
N	-2.752478	-0.363297	-0.146322	7
C	-1.321068	-0.674197	-0.175672	6
C	-0.480938	0.597273	-0.355062	6
C	1.007672	0.306483	-0.385322	6
C	1.655332	0.221853	-1.560482	6
C	1.758571	0.151613	0.853378	6
C	1.271631	0.223303	2.099178	6
H	-3.280578	-1.233907	-0.089022	1
H	-3.023498	0.076063	-1.025672	1
H	-1.127588	-1.372047	-0.998962	1
H	-1.058048	-1.186177	0.755858	1
H	-0.711788	1.329193	0.428878	1
H	-0.777208	1.085513	-1.294262	1
H	1.132242	0.342463	-2.503802	1
H	2.722131	0.027943	-1.621752	1
H	2.827082	-0.036797	0.749598	1
H	0.226072	0.408973	2.318248	1
H	1.932462	0.095753	2.951198	1
Es	-2.890755	-0.133061	-0.709907	99
Es	1.306190	0.305766	-2.209848	99
Es	1.559476	0.510732	1.467299	99
Es	-1.321193	-0.674112	-0.175677	99
Es	1.713363	0.135727	2.676163	99
Es	-3.017464	-0.862380	-0.156574	99
Es	1.655384	0.221843	-1.560583	99
Es	1.007603	0.306487	-0.385202	99
Es	-0.675085	0.918832	-1.011711	99
Es	-1.172774	-1.148329	-0.756684	99
Es	1.285865	-0.060480	-0.971533	99
Es	0.261638	0.438172	-0.357643	99
Es	1.367790	0.227200	0.245357	99
Es	-1.141359	-1.019932	0.468372	99
Es	-2.752367	-0.363570	-0.146699	99
Es	-0.884956	-0.033190	-0.263631	99
Es	1.758592	0.151612	0.853268	99
Es	2.481170	0.027660	0.771868	99
Es	-2.157942	-0.511953	-0.184089	99
Es	-0.480891	0.597226	-0.355067	99
Es	1.446997	-0.131736	1.461493	99
Es	0.562862	0.344015	2.252432	99
Es	-0.634090	1.079955	0.193369	99
Es	1.405135	0.578575	-0.955801	99
Es	2.375601	0.093531	-1.600263	99
Es	-2.862348	-0.160689	0.172326	99
Es	1.271591	0.223304	2.099275	99
45
Properties=species:S:1:pos:R:3:Z:I:1 energy=-288.11850269204507 field_type=dipole dipole="0.000000 0.000000 0.000000" charge=0
N	-2.752478	-0.363297	-0.146322	7
C	-1.321068	-0.674197	-0.175672	6
C	-0.480938	0.597273	-0.355062	6
C	1.007672	0.306483	-0.385322	6
C	1.655332	0.221853	-1.560482	6
C	1.758571	0.151613	0.853378	6
C	1.271631	0.223303	2.099178	6
H	-3.280578	-1.233907	-0.089022	1
H	-3.023498	0.076063	-1.025672	1
H	-1.127588	-1.372047	-0.998962	1
H	-1.058048	-1.186177	0.755858	1
H	-0.711788	1.329193	0.428878	1
H	-0.777208	1.085513	-1.294262	1
H	1.132242	0.342463	-2.503802	1
H	2.722131	0.027943	-1.621752	1
H	2.827082	-0.036797	0.749598	1
H	0.226072	0.408973	2.318248	1
H	1.932462	0.095753	2.951198	1
Es	1.447384	-0.131914	1.461690	99
Es	-1.321192	-0.674113	-0.175676	99
Es	-0.671498	0.918274	-1.012902	99
Es	-2.873556	-0.174240	0.179234	99
Es	-2.165418	-0.509752	-0.182272	99
Es	1.713226	0.135761	2.673746	99
Es	-0.635113	1.078720	0.194441	99
Es	1.306869	0.305848	-2.210153	99
Es	-1.142224	-1.019866	0.468801	99
Es	-2.752360	-0.363606	-0.146803	99
Es	-0.884543	-0.032964	-0.263812	99
Es	1.367422	0.227223	0.246003	99
Es	1.286070	-0.060653	-0.971416	99
Es	1.404668	0.578577	-0.956101	99
Es	1.758595	0.151610	0.853269	99
Es	1.559187	0.510794	1.467132	99
Es	0.257867	0.438009	-0.356769	99
Es	-2.882970	-0.137015	-0.712703	99
Es	1.007600	0.306486	-0.385205	99
Es	-3.005421	-0.847215	-0.162644	99
Es	2.481658	0.028464	0.771472	99
Es	0.562366	0.343196	2.254556	99
Es	2.375400	0.094432	-1.599680	99
Es	1.655385	0.221849	-1.560583	99
Es	1.271590	0.223304	2.099275	99
Es	-1.172072	-1.147228	-0.757526	99
Es	-0.480889	0.597226	-0.355068	99
45
Properties=species:S:1:pos:R:3:Z:I:1 energy=-288.11850269204507 field_type=dipole dipole="0.000000 0.000000 0.000000" charge=0
N	-2.752478	-0.363297	-0.146322	7
C	-1.321068	-0.674197	-0.175672	6
C	-0.480938	0.597273	-0.355062	6
C	1.007672	0.306483	-0.385322	6
C	1.655332	0.221853	-1.560482	6
C	1.758571	0.151613	0.853378	6
C	1.271631	0.223303	2.099178	6
H	-3.280578	-1.233907	-0.089022	1
H	-3.023498	0.076063	-1.025672	1
H	-1.127588	-1.372047	-0.998962	1
H	-1.058048	-1.186177	0.755858	1
H	-0.711788	1.329193	0.428878	1
H	-0.777208	1.085513	-1.294262	1
H	1.132242	0.342463	-2.503802	1
H	2.722131	0.027943	-1.621752	1
H	2.827082	-0.036797	0.749598	1
H	0.226072	0.408973	2.318248	1
H	1.932462	0.095753	2.951198	1
Es	2.375288	0.095005	-1.599387	99
Es	-2.172592	-0.506631	-0.180786	99
Es	0.253995	0.438107	-0.355970	99
Es	-1.171759	-1.146853	-0.757835	99
Es	1.307196	0.305748	-2.210301	99
Es	1.447699	-0.131976	1.461937	99
Es	-0.635391	1.078377	0.194771	99
Es	1.558960	0.511073	1.466912	99
Es	1.286081	-0.060437	-0.971502	99
Es	1.712881	0.135917	2.671796	99
Es	-0.884508	-0.033080	-0.263801	99
Es	-1.143076	-1.019770	0.469098	99
Es	-1.321191	-0.674115	-0.175675	99
Es	1.655384	0.221845	-1.560584	99
Es	1.404631	0.578513	-0.956025	99
Es	-2.875067	-0.140803	-0.714519	99
Es	-2.752340	-0.363597	-0.146789	99
Es	-0.480889	0.597226	-0.355066	99
Es	-2.992409	-0.829201	-0.167851	99
Es	1.007602	0.306491	-0.385203	99
Es	-0.667719	0.917647	-1.013755	99
Es	-2.886425	-0.191721	0.184484	99
Es	2.482121	0.028971	0.770967	99
Es	0.562231	0.342520	2.256273	99
Es	1.758594	0.151612	0.853269	99
Es	1.367144	0.227033	0.246577	99
Es	1.271591	0.223304	2.099274	99
45
Properties=species:S:1:pos:R:3:Z:I:1 energy=-288.11850269204507 field_type=dipole dipole="0.000000 0.000000 0.000000" charge=0
N	-2.752478	-0.363297	-0.146322	7
C	-1.321068	-0.674197	-0.175672	6
C	-0.480938	0.597273	-0.355062	6
C	1.007672	0.306483	-0.385322	6
C	1.655332	0.221853	-1.560482	6
C	1.758571	0.151613	0.853378	6
C	1.271631	0.223303	2.099178	6
H	-3.280578	-1.233907	-0.089022	1
H	-3.023498	0.076063	-1.025672	1
H	-1.127588	-1.372047	-0.998962	1
H	-1.058048	-1.186177	0.755858	1
H	-0.711788	1.329193	0.428878	1
H	-0.777208	1.085513	-1.294262	1
H	1.132242	0.342463	-2.503802	1
H	2.722131	0.027943	-1.621752	1
H	2.827082	-0.036797	0.749598	1
H	0.226072	0.408973	2.318248	1
H	1.932462	0.095753	2.951198	1
Es	1.007601	0.306485	-0.385205	99
Es	-0.664517	0.916981	-1.014291	99
Es	-0.635598	1.077962	0.195166	99
Es	1.307321	0.305663	-2.210345	99
Es	-1.143348	-1.019694	0.469189	99
Es	-2.983051	-0.814560	-0.170381	99
Es	1.558757	0.510926	1.466762	99
Es	2.375337	0.095422	-1.599219	99
Es	1.286340	-0.060427	-0.971322	99
Es	0.562211	0.342063	2.257657	99
Es	-2.895518	-0.204929	0.187206	99
Es	1.271591	0.223302	2.099274	99
Es	1.655386	0.221849	-1.560583	99
Es	-1.171625	-1.146697	-0.757965	99
Es	1.447955	-0.131799	1.462102	99
Es	-0.480890	0.597227	-0.355067	99
Es	-2.752365	-0.363579	-0.146756	99
Es	-2.867198	-0.145424	-0.715690	99
Es	-0.884277	-0.032733	-0.263974	99
Es	-2.180401	-0.503522	-0.179906	99
Es	1.758591	0.151613	0.853265	99
Es	1.712704	0.136023	2.670295	99
Es	-1.321191	-0.674115	-0.175675	99
Es	1.367247	0.227110	0.246694	99
Es	1.404239	0.578431	-0.956272	99
Es	2.482399	0.029384	0.770654	99
Es	0.250331	0.438245	-0.355307	99
45
Properties=species:S:1:pos:R:3:Z:I:1 energy=-288.11850269204507 field_type=dipole dipole="0.000000 0.000000 0.000000" charge=0
N	-2.752478	-0.363297	-0.146322	7
C	-1.321068	-0.674197	-0.175672	6
C	-0.480938	0.597273	-0.355062	6
C	1.007672	0.306483	-0.385322	6
C	1.655332	0.221853	-1.560482	6
C	1.758571	0.151613	0.853378	6
C	1.271631	0.223303	2.099178	6
H	-3.280578	-1.233907	-0.089022	1
H	-3.023498	0.076063	-1.025672	1
H	-1.127588	-1.372047	-0.998962	1
H	-1.058048	-1.186177	0.755858	1
H	-0.711788	1.329193	0.428878	1
H	-0.777208	1.085513	-1.294262	1
H	1.132242	0.342463	-2.503802	1
H	2.722131	0.027943	-1.621752	1
H	2.827082	-0.036797	0.749598	1
H	0.226072	0.408973	2.318248	1
H	1.932462	0.095753	2.951198	1
Es	1.758592	0.151609	0.853269	99
Es	0.562203	0.341574	2.258711	99
Es	-2.187615	-0.500908	-0.179800	99
Es	1.404049	0.578143	-0.956369	99
Es	0.247346	0.438327	-0.354947	99
Es	1.448234	-0.131538	1.462226	99
Es	-2.976540	-0.803344	-0.171679	99
Es	2.375545	0.095774	-1.599156	99
Es	2.482658	0.029672	0.770430	99
Es	-2.860032	-0.149272	-0.716101	99
Es	1.271590	0.223298	2.099273	99
Es	1.307230	0.305666	-2.210306	99
Es	-2.901779	-0.214914	0.188822	99
Es	1.712534	0.136196	2.669121	99
Es	-2.752348	-0.363607	-0.146807	99
Es	-0.883958	-0.032225	-0.264143	99
Es	-1.143555	-1.019655	0.469231	99
Es	-0.636116	1.077208	0.195648	99
Es	1.007602	0.306485	-0.385205	99
Es	1.558516	0.510834	1.466662	99
Es	-1.171362	-1.146294	-0.758213	99
Es	-0.480891	0.597230	-0.355067	99
Es	1.367217	0.227073	0.246848	99
Es	-1.321190	-0.674117	-0.175676	99
Es	-0.661812	0.916371	-1.014664	99
Es	1.286529	-0.060225	-0.971214	99
Es	1.655386	0.221845	-1.560583	99
45
Properties=species:S:1:pos:R:3:Z:I:1 energy=-288.11850269204507 field_type=dipole dipole="0.000000 0.000000 0.000000" charge=0
N	-2.752478	-0.363297	-0.146322	7
C	-1.321068	-0.674197	-0.175672	6
C	-0.480938	0.597273	-0.355062	6
C	1.007672	0.306483	-0.385322	6
C	1.655332	0.221853	-1.560482	6
C	1.758571	0.151613	0.853378	6
C	1.271631	0.223303	2.099178	6
H	-3.280578	-1.233907	-0.089022	1
H	-3.023498	0.076063	-1.025672	1
H	-1.127588	-1.372047	-0.998962	1
H	-1.058048	-1.186177	0.755858	1
H	-0.711788	1.329193	0.428878	1
H	-0.777208	1.085513	-1.294262	1
H	1.132242	0.342463	-2.503802	1
H	2.722131	0.027943	-1.621752	1
H	2.827082	-0.036797	0.749598	1
H	0.226072	0.408973	2.318248	1
H	1.932462	0.095753	2.951198	1
Es	-2.752322	-0.363577	-0.146738	99
Es	1.307339	0.305497	-2.210366	99
Es	-0.659991	0.915903	-1.014761	99
Es	1.403750	0.578044	-0.956557	99
Es	-1.143879	-1.019580	0.469252	99
Es	-0.635848	1.077647	0.195492	99
Es	1.655384	0.221849	-1.560582	99
Es	2.482793	0.029956	0.770333	99
Es	1.367151	0.227196	0.247022	99
Es	2.375563	0.096041	-1.599000	99
Es	-2.910005	-0.228000	0.190047	99
Es	-2.193930	-0.498145	-0.179672	99
Es	1.448459	-0.131774	1.462269	99
Es	1.286768	-0.060290	-0.971046	99
Es	-0.884354	-0.032700	-0.263895	99
Es	-2.968608	-0.789620	-0.173187	99
Es	1.758593	0.151612	0.853268	99
Es	-0.480890	0.597227	-0.355067	99
Es	1.271591	0.223304	2.099275	99
Es	-2.853183	-0.152783	-0.716081	99
Es	-1.321192	-0.674113	-0.175677	99
Es	1.712454	0.136506	2.669089	99
Es	0.245550	0.438501	-0.354887	99
Es	1.007600	0.306483	-0.385207	99
Es	0.562172	0.341510	2.258690	99
Es	-1.171230	-1.146236	-0.758298	99
Es	1.558297	0.510745	1.466594	99
45
Properties=species:S:1:pos:R:3:Z:I:1 energy=-288.11850269204507 field_type=dipole dipole="0.000000 0.000000 0.000000" charge=0
N	-2.752478	-0.363297	-0.146322	7
C	-1.321068	-0.674197	-0.175672	6
C	-0.480938	0.597273	-0.355062	6
C	1.007672	0.306483	-0.385322	6
C	1.655332	0.221853	-1.560482	6
C	1.758571	0.151613	0.853378	6
C	1.271631	0.223303	2.099178	6
H	-3.280578	-1.233907	-0.089022	1
H	-3.023498	0.076063	-1.025672	1
H	-1.127588	-1.372047	-0.998962	1
H	-1.058048	-1.186177	0.755858	1
H	-0.711788	1.329193	0.428878	1
H	-0.777208	1.085513	-1.294262	1
H	1.132242	0.342463	-2.503802	1
H	2.722131	0.027943	-1.621752	1
H	2.827082	-0.036797	0.749598	1
H	0.226072	0.408973	2.318248	1
H	1.932462	0.095753	2.951198	1
Es	1.307243	0.305276	-2.210304	99
Es	-2.963159	-0.779610	-0.173777	99
Es	1.286803	-0.060015	-0.971086	99
Es	1.367113	0.227129	0.247073	99
Es	1.007598	0.306485	-0.385210	99
Es	1.271592	0.223299	2.099275	99
Es	1.712459	0.136626	2.668757	99
Es	-0.480889	0.597227	-0.355066	99
Es	0.562158	0.341317	2.258996	99
Es	1.403742	0.577999	-0.956484	99
Es	-2.752355	-0.363574	-0.146755	99
Es	-0.635774	1.077479	0.195736	99
Es	-2.848250	-0.155969	-0.716027	99
Es	1.758592	0.151614	0.853268	99
Es	-1.171055	-1.145941	-0.758484	99
Es	2.375661	0.096192	-1.599043	99
Es	1.558112	0.510636	1.466394	99
Es	-0.884432	-0.032805	-0.263865	99
Es	-0.657677	0.915353	-1.014892	99
Es	-2.198943	-0.495939	-0.179403	99
Es	0.242948	0.438807	-0.354817	99
Es	-1.143550	-1.019572	0.469113	99
Es	1.655385	0.221846	-1.560585	99
Es	1.448595	-0.131577	1.462445	99
Es	-1.321191	-0.674113	-0.175677	99
Es	-2.915585	-0.237100	0.190509	99
Es	2.482894	0.030140	0.770217	99
45
Properties=species:S:1:pos:R:3:Z:I:1 energy=-288.11850269204507 field_type=dipole dipole="0.000000 0.000000 0.000000" charge=0
N	-2.752478	-0.363297	-0.146322	7
C	-1.321068	-0.674197	-0.175672	6
C	-0.480938	0.597273	-0.355062	6
C	1.007672	0.306483	-0.385322	6
C	1.655332	0.221853	-1.560482	6
C	1.758571	0.151613	0.853378	6
C	1.271631	0.223303	2.099178	6
H	-3.280578	-1.233907	-0.089022	1
H	-3.023498	0.076063	-1.025672	1
H	-1.127588	-1.372047	-0.998962	1
H	-1.058048	-1.186177	0.755858	1
H	-0.711788	1.329193	0.428878	1
H	-0.777208	1.085513	-1.294262	1
H	1.132242	0.342463	-2.503802	1
H	2.722131	0.027943	-1.621752	1
H	2.827082	-0.036797	0.749598	1
H	0.226072	0.408973	2.318248	1
H	1.932462	0.095753	2.951198	1
Es	-1.143709	-1.019543	0.469117	99
Es	1.655385	0.221845	-1.560583	99
Es	1.286913	-0.059820	-0.970993	99
Es	-1.170919	-1.145802	-0.758548	99
Es	1.758592	0.151608	0.853269	99
Es	-2.959313	-0.771661	-0.173841	99
Es	0.562165	0.341186	2.259089	99
Es	-1.321191	-0.674115	-0.175675	99
Es	-2.752350	-0.363584	-0.146808	99
Es	-0.884255	-0.032537	-0.263936	99
Es	-0.656236	0.914978	-1.014979	99
Es	2.482958	0.030330	0.770247	99
Es	-2.919497	-0.243638	0.190723	99
Es	0.241397	0.438929	-0.354670	99
Es	-2.843134	-0.159233	-0.715767	99
Es	-2.203904	-0.494110	-0.179808	99
Es	1.448753	-0.131580	1.462461	99
Es	1.557963	0.510556	1.466367	99
Es	1.367206	0.227118	0.246971	99
Es	1.403579	0.577739	-0.956584	99
Es	1.007602	0.306484	-0.385206	99
Es	1.271583	0.223299	2.099275	99
Es	1.712440	0.136760	2.668641	99
Es	-0.636090	1.077123	0.195893	99
Es	-0.480890	0.597225	-0.355067	99
Es	2.375794	0.096379	-1.598980	99
Es	1.307192	0.305268	-2.210297	99
45
Properties=species:S:1:pos:R:3:Z:I:1 energy=-288.11850269204507 field_type=dipole dipole="0.000000 0.000000 0.000000" charge=0
N	-2.752478	-0.363297	-0.146322	7
C	-1.321068	-0.674197	-0.175672	6
C	-0.480938	0.597273	-0.355062	6
C	1.007672	0.306483	-0.385322	6
C	1.655332	0.221853	-1.560482	6
C	1.758571	0.151613	0.853378	6
C	1.271631	0.223303	2.099178	6
H	-3.280578	-1.233907	-0.089022	1
H	-3.023498	0.076063	-1.025672	1
H	-1.127588	-1.372047	-0.998962	1
H	-1.058048	-1.186177	0.755858	1
H	-0.711788	1.329193	0.428878	1
H	-0.777208	1.085513	-1.294262	1
H	1.132242	0.342463	-2.503802	1
H	2.722131	0.027943	-1.621752	1
H	2.827082	-0.036797	0.749598	1
H	0.226072	0.408973	2.318248	1
H	1.932462	0.095753	2.951198	1
Es	1.367232	0.227078	0.247016	99
Es	-0.635994	1.077231	0.195933	99
Es	-0.652860	0.913970	-1.015062	99
Es	-2.752344	-0.363582	-0.146800	99
Es	-1.144012	-1.019398	0.469255	99
Es	1.758594	0.151615	0.853269	99
Es	-1.321191	-0.674114	-0.175676	99
Es	0.562130	0.341023	2.259302	99
Es	1.655385	0.221846	-1.560584	99
Es	2.375901	0.096466	-1.598934	99
Es	-2.955303	-0.763768	-0.173988	99
Es	-2.841804	-0.161523	-0.715882	99
Es	-1.170991	-1.145980	-0.758494	99
Es	2.483118	0.030411	0.770148	99
Es	1.448845	-0.131244	1.462609	99
Es	1.007602	0.306481	-0.385207	99
Es	-2.923717	-0.250276	0.190674	99
Es	1.712462	0.136818	2.668403	99
Es	1.271591	0.223302	2.099274	99
Es	-2.204693	-0.493130	-0.179613	99
Es	1.307127	0.305187	-2.210302	99
Es	-0.884235	-0.032270	-0.263988	99
Es	0.237800	0.439495	-0.354594	99
Es	-0.480890	0.597227	-0.355066	99
Es	1.286999	-0.059593	-0.970937	99
Es	1.403479	0.577517	-0.956636	99
Es	1.557802	0.510415	1.466187	99
45
Properties=species:S:1:pos:R:3:Z:I:1 energy=-288.11850269204507 field_type=dipole dipole="0.000000 0.000000 0.000000" charge=0
N	-2.752478	-0.363297	-0.146322	7
C	-1.321068	-0.674197	-0.175672	6
C	-0.480938	0.597273	-0.355062	6
C	1.007672	0.306483	-0.385322	6
C	1.655332	0.221853	-1.560482	6
C	1.758571	0.151613	0.853378	6
C	1.271631	0.223303	2.099178	6
H	-3.280578	-1.233907	-0.089022	1
H	-3.023498	0.076063	-1.025672	1
H	-1.127588	-1.372047	-0.998962	1
H	-1.058048	-1.186177	0.755858	1
H	-0.711788	1.329193	0.428878	1
H	-0.777208	1.085513	-1.294262	1
H	1.132242	0.342463	-2.503802	1
H	2.722131	0.027943	-1.621752	1
H	2.827082	-0.036797	0.749598	1
H	0.226072	0.408973	2.318248	1
H	1.932462	0.095753	2.951198	1
Es	-2.926227	-0.255514	0.190894	99
Es	-2.952573	-0.758201	-0.174083	99
Es	1.307079	0.305060	-2.210290	99
Es	0.562183	0.340962	2.259598	99
Es	2.483058	0.030520	0.770204	99
Es	-0.480891	0.597227	-0.355067	99
Es	1.655386	0.221849	-1.560583	99
Es	1.448949	-0.131330	1.462476	99
Es	1.286764	-0.058631	-0.971260	99
Es	1.758594	0.151615	0.853269	99
Es	-0.651839	0.913703	-1.015065	99
Es	1.367490	0.227070	0.246688	99
Es	1.007600	0.306484	-0.385207	99
Es	1.271587	0.223303	2.099274	99
Es	-1.143654	-1.019471	0.469105	99
Es	-2.752354	-0.363589	-0.146805	99
Es	1.557742	0.510406	1.466335	99
Es	-0.884169	-0.032262	-0.264014	99
Es	1.712424	0.136879	2.668106	99
Es	-2.208919	-0.491652	-0.179928	99
Es	0.236484	0.439604	-0.354383	99
Es	-0.636095	1.076903	0.196185	99
Es	1.403628	0.576766	-0.956341	99
Es	2.375935	0.096564	-1.598939	99
Es	-2.838106	-0.163303	-0.715520	99
Es	-1.170852	-1.145642	-0.758662	99
Es	-1.321191	-0.674114	-0.175676	99
45
Properties=species:S:1:pos:R:3:Z:I:1 energy=-288.11850269204507 field_type=dipole dipole="0.000000 0.000000 0.000000" charge=0
N	-2.752478	-0.363297	-0.146322	7
C	-1.321068	-0.674197	-0.175672	6
C	-0.480938	0.597273	-0.355062	6
C	1.007672	0.306483	-0.385322	6
C	1.655332	0.221853	-1.560482	6
C	1.758571	0.151613	0.853378	6
C	1.271631	0.223303	2.099178	6
H	-3.280578	-1.233907	-0.089022	1
H	-3.023498	0.076063	-1.025672	1
H	-1.127588	-1.372047	-0.998962	1
H	-1.058048	-1.186177	0.755858	1
H	-0.711788	1.329193	0.428878	1
H	-0.777208	1.085513	-1.294262	1
H	1.132242	0.342463	-2.503802	1
H	2.722131	0.027943	-1.621752	1
H	2.827082	-0.036797	0.749598	1
H	0.226072	0.408973	2.318248	1
H	1.932462	0.095753	2.951198	1
Es	2.376160	0.096612	-1.599072	99
Es	-2.211032	-0.490314	-0.179929	99
Es	-0.480890	0.597228	-0.355068	99
Es	0.234728	0.439987	-0.354450	99
Es	-2.835327	-0.165451	-0.715255	99
Es	-1.143892	-1.019310	0.469219	99
Es	1.367412	0.227050	0.246766	99
Es	1.655384	0.221846	-1.560585	99
Es	1.557591	0.510272	1.466116	99
Es	1.712575	0.137004	2.668500	99
Es	1.403390	0.577131	-0.956574	99
Es	-0.884294	-0.032451	-0.263906	99
Es	1.449049	-0.131171	1.462662	99
Es	1.271591	0.223304	2.099275	99
Es	1.758593	0.151614	0.853267	99
Es	-1.170659	-1.145560	-0.758691	99
Es	0.562077	0.340957	2.259213	99
Es	1.306823	0.304983	-2.210159	99
Es	-2.949478	-0.752002	-0.174168	99
Es	-0.636211	1.076986	0.196088	99
Es	-2.752352	-0.363601	-0.146818	99
Es	1.007600	0.306484	-0.385205	99
Es	-2.929782	-0.260971	0.190604	99
Es	-0.650060	0.913104	-1.015070	99
Es	-1.321191	-0.674114	-0.175677	99
Es	2.483132	0.030584	0.770183	99
Es	1.287098	-0.058998	-0.970957	99
45
Properties=species:S:1:pos:R:3:Z:I:1 energy=-288.11850269204507 field_type=dipole dipole="0.000000 0.000000 0.000000" charge=0
N	-2.752478	-0.363297	-0.146322	7
C	-1.321068	-0.674197	-0.175672	6
C	-0.480938	0.597273	-0.355062	6
C	1.007672	0.306483	-0.385322	6
C	1.655332	0.221853	-1.560482	6
C	1.758571	0.151613	0.853378	6
C	1.271631	0.223303	2.099178	6
H	-3.280578	-1.233907	-0.089022	1
H	-3.023498	0.076063	-1.025672	1
H	-1.127588	-1.372047	-0.998962	1
H	-1.058048	-1.186177	0.755858	1
H	-0.711788	1.329193	0.428878	1
H	-0.777208	1.085513	-1.294262	1
H	1.132242	0.342463	-2.503802	1
H	2.722131	0.027943	-1.621752	1
H	2.827082	-0.036797	0.749598	1
H	0.226072	0.408973	2.318248	1
H	1.932462	0.095753	2.951198	1
Es	1.449114	-0.131074	1.462722	99
Es	0.562081	0.340799	2.259408	99
Es	-0.636437	1.076487	0.196375	99
Es	-1.170619	-1.145405	-0.758762	99
Es	-2.752372	-0.363575	-0.146807	99
Es	1.557515	0.510200	1.466051	99
Es	2.483169	0.030708	0.770219	99
Es	-2.930961	-0.264069	0.190819	99
Es	1.655385	0.221844	-1.560583	99
Es	1.712519	0.137037	2.668260	99
Es	-0.649902	0.913115	-1.015061	99
Es	-2.947865	-0.748255	-0.174059	99
Es	-2.831575	-0.167436	-0.714796	99
Es	1.403404	0.576477	-0.956437	99
Es	1.286918	-0.058292	-0.971171	99
Es	-1.143150	-1.019337	0.468986	99
Es	-1.321191	-0.674114	-0.175675	99
Es	1.271601	0.223301	2.099284	99
Es	1.758593	0.151616	0.853268	99
Es	1.367393	0.227047	0.246874	99
Es	1.306985	0.304886	-2.210292	99
Es	0.234646	0.439862	-0.354575	99
Es	-0.884135	-0.032153	-0.264157	99
Es	-0.480889	0.597223	-0.355066	99
Es	-2.215855	-0.488953	-0.180430	99
Es	1.007600	0.306485	-0.385205	99
Es	2.376060	0.096783	-1.598883	99
45
Properties=species:S:1:pos:R:3:Z:I:1 energy=-288.11850269204507 field_type=dipole dipole="0.000000 0.000000 0.000000" charge=0
N	-2.752478	-0.363297	-0.146322	7
C	-1.321068	-0.674197	-0.175672	6
C	-0.480938	0.597273	-0.355062	6
C	1.007672	0.306483	-0.385322	6
C	1.655332	0.221853	-1.560482	6
C	1.758571	0.151613	0.853378	6
C	1.271631	0.223303	2.099178	6
H	-3.280578	-1.233907	-0.089022	1
H	-3.023498	0.076063	-1.025672	1
H	-1.127588	-1.372047	-0.998962	1
H	-1.058048	-1.186177	0.755858	1
H	-0.711788	1.329193	0.428878	1
H	-0.777208	1.085513	-1.294262	1
H	1.132242	0.342463	-2.503802	1
H	2.722131	0.027943	-1.621752	1
H	2.827082	-0.036797	0.749598	1
H	0.226072	0.408973	2.318248	1
H	1.932462	0.095753	2.951198	1
Es	-0.648750	0.912634	-1.015065	99
Es	1.403167	0.577185	-0.956749	99
Es	-2.944598	-0.741145	-0.173934	99
Es	1.271590	0.223302	2.099274	99
Es	1.758595	0.151615	0.853269	99
Es	1.449203	-0.130984	1.462744	99
Es	-2.216769	-0.487840	-0.180501	99
Es	1.007600	0.306478	-0.385208	99
Es	-0.884514	-0.032540	-0.263854	99
Es	-2.934411	-0.269849	0.190483	99
Es	-2.752354	-0.363600	-0.146809	99
Es	-2.829879	-0.169892	-0.714753	99
Es	1.655385	0.221845	-1.560584	99
Es	1.557352	0.510107	1.465988	99
Es	0.233187	0.440101	-0.354580	99
Es	1.367417	0.227077	0.246881	99
Es	0.562066	0.340766	2.259412	99
Es	-1.170595	-1.145446	-0.758782	99
Es	1.287351	-0.059078	-0.970739	99
Es	-0.480890	0.597224	-0.355066	99
Es	-0.635946	1.077056	0.196190	99
Es	2.376205	0.096735	-1.599063	99
Es	1.306712	0.304856	-2.210177	99
Es	2.483236	0.030807	0.770092	99
Es	1.712649	0.137121	2.668299	99
Es	-1.143786	-1.019216	0.469216	99
Es	-1.321191	-0.674113	-0.175676	99
45
Properties=species:S:1:pos:R:3:Z:I:1 energy=-288.11850269204507 field_type=dipole dipole="0.000000 0.000000 0.000000" charge=0
N	-2.752478	-0.363297	-0.146322	7
C	-1.321068	-0.674197	-0.175672	6
C	-0.480938	0.597273	-0.355062	6
C	1.007672	0.306483	-0.385322	6
C	1.655332	0.221853	-1.560482	6
C	1.758571	0.151613	0.853378	6
C	1.271631	0.223303	2.099178	6
H	-3.280578	-1.233907	-0.089022	1
H	-3.023498	0.076063	-1.025672	1
H	-1.127588	-1.372047	-0.998962	1
H	-1.058048	-1.186177	0.755858	1
H	-0.711788	1.329193	0.428878	1
H	-0.777208	1.085513	-1.294262	1
H	1.132242	0.342463	-2.503802	1
H	2.722131	0.027943	-1.621752	1
H	2.827082	-0.036797	0.749598	1
H	0.226072	0.408973	2.318248	1
H	1.932462	0.095753	2.951198	1
Es	-0.648115	0.912511	-1.015032	99
Es	-2.935090	-0.271656	0.190597	99
Es	2.376126	0.096971	-1.598831	99
Es	-2.219861	-0.487336	-0.181088	99
Es	-2.943804	-0.739080	-0.173784	99
Es	1.287022	-0.057871	-0.971147	99
Es	1.758593	0.151617	0.853269	99
Es	1.007602	0.306485	-0.385207	99
Es	1.306951	0.304795	-2.210295	99
Es	2.483265	0.030829	0.770185	99
Es	1.712675	0.137206	2.668356	99
Es	-1.170500	-1.145299	-0.758822	99
Es	1.403327	0.575906	-0.956429	99
Es	-2.827314	-0.170670	-0.714275	99
Es	-0.884265	-0.032281	-0.264040	99
Es	0.232609	0.440180	-0.354724	99
Es	1.449236	-0.130648	1.462970	99
Es	0.562035	0.340744	2.259346	99
Es	1.367401	0.227020	0.246923	99
Es	1.655387	0.221850	-1.560583	99
Es	-0.636286	1.076566	0.196410	99
Es	-1.321191	-0.674112	-0.175676	99
Es	1.271590	0.223301	2.099274	99
Es	-0.480891	0.597227	-0.355068	99
Es	-2.752360	-0.363585	-0.146805	99
Es	-1.143372	-1.019245	0.469054	99
Es	1.557262	0.509781	1.465731	99
45
Properties=species:S:1:pos:R:3:Z:I:1 energy=-288.11850269204507 field_type=dipole dipole="0.000000 0.000000 0.000000" charge=0
N	-2.752478	-0.363297	-0.146322	7
C	-1.321068	-0.674197	-0.175672	6
C	-0.480938	0.597273	-0.355062	6
C	1.007672	0.306483	-0.385322	6
C	1.655332	0.221853	-1.560482	6
C	1.758571	0.151613	0.853378	6
C	1.271631	0.223303	2.099178	6
H	-3.280578	-1.233907	-0.089022	1
H	-3.023498	0.076063	-1.025672	1
H	-1.127588	-1.372047	-0.998962	1
H	-1.058048	-1.186177	0.755858	1
H	-0.711788	1.329193	0.428878	1
H	-0.777208	1.085513	-1.294262	1
H	1.132242	0.342463	-2.503802	1
H	2.722131	0.027943	-1.621752	1
H	2.827082	-0.036797	0.749598	1
H	0.226072	0.408973	2.318248	1
H	1.932462	0.095753	2.951198	1
Es	2.483205	0.030871	0.770284	99
Es	1.367307	0.226999	0.246739	99
Es	-2.221452	-0.486614	-0.180744	99
Es	0.561956	0.340678	2.259057	99
Es	1.007600	0.306481	-0.385207	99
Es	1.306710	0.304654	-2.210232	99
Es	1.758592	0.151611	0.853269	99
Es	-0.884095	-0.031896	-0.264163	99
Es	-2.826424	-0.171668	-0.714201	99
Es	1.271590	0.223301	2.099274	99
Es	2.376292	0.096934	-1.598924	99
Es	1.287249	-0.058117	-0.970926	99
Es	-1.321191	-0.674114	-0.175676	99
Es	0.230385	0.440643	-0.354832	99
Es	-2.941773	-0.734883	-0.173835	99
Es	-0.636474	1.076304	0.196556	99
Es	1.557241	0.509961	1.465891	99
Es	1.449404	-0.130814	1.462882	99
Es	-1.142718	-1.019307	0.468732	99
Es	-2.937061	-0.275600	0.190496	99
Es	-0.645865	0.911875	-1.014916	99
Es	1.712732	0.137263	2.668621	99
Es	1.403202	0.576418	-0.956590	99
Es	1.655385	0.221843	-1.560584	99
Es	-2.752370	-0.363564	-0.146759	99
Es	-0.480891	0.597228	-0.355068	99
Es	-1.170501	-1.145282	-0.758835	99
45
Properties=species:S:1:pos:R:3:Z:I:1 energy=-288.11850269204507 field_type=dipole dipole="0.000000 0.000000 0.000000" charge=0
N	-2.752478	-0.363297	-0.146322	7
C	-1.321068	-0.674197	-0.175672	6
C	-0.480938	0.597273	-0.355062	6
C	1.007672	0.306483	-0.385322	6
C	1.655332	0.221853	-1.560482	6
C	1.758571	0.151613	0.853378	6
C	1.271631	0.223303	2.099178	6
H	-3.280578	-1.233907	-0.089022	1
H	-3.023498	0.076063	-1.025672	1
H	-1.127588	-1.372047	-0.998962	1
H	-1.058048	-1.186177	0.755858	1
H	-0.711788	1.329193	0.428878	1
H	-0.777208	1.085513	-1.294262	1
H	1.132242	0.342463	-2.503802	1
H	2.722131	0.027943	-1.621752	1
H	2.827082	-0.036797	0.749598	1
H	0.226072	0.408973	2.318248	1
H	1.932462	0.095753	2.951198	1
Es	-2.822468	-0.174089	-0.713555	99
Es	-2.939206	-0.728975	-0.173505	99
Es	-1.321191	-0.674113	-0.175676	99
Es	-0.480890	0.597225	-0.355066	99
Es	1.403183	0.576137	-0.956514	99
Es	-2.225001	-0.484993	-0.181292	99
Es	1.655385	0.221849	-1.560583	99
Es	-0.635913	1.076947	0.196325	99
Es	1.712779	0.137357	2.668554	99
Es	2.483201	0.030827	0.770256	99
Es	1.557183	0.509915	1.465827	99
Es	1.287151	-0.057905	-0.971054	99
Es	1.007601	0.306489	-0.385207	99
Es	-2.752387	-0.363693	-0.146923	99
Es	-1.170540	-1.145413	-0.758800	99
Es	1.449407	-0.130728	1.462932	99
Es	-2.939810	-0.280624	0.190160	99
Es	1.271591	0.223301	2.099274	99
Es	1.307115	0.304529	-2.210540	99
Es	2.375877	0.096920	-1.598628	99
Es	-0.647476	0.912238	-1.015019	99
Es	1.367317	0.227061	0.246882	99
Es	-1.142928	-1.019218	0.468799	99
Es	0.561974	0.340689	2.259150	99
Es	1.758594	0.151614	0.853269	99
Es	-0.884486	-0.032363	-0.263886	99
Es	0.231969	0.440220	-0.354871	99
45
Properties=species:S:1:pos:R:3:Z:I:1 energy=-288.11850269204507 field_type=dipole dipole="0.000000 0.000000 0.000000" charge=0
N	-2.752478	-0.363297	-0.146322	7
C	-1.321068	-0.674197	-0.175672	6
C	-0.480938	0.597273	-0.355062	6
C	1.007672	0.306483	-0.385322	6
C	1.655332	0.221853	-1.560482	6
C	1.758571	0.151613	0.853378	6
C	1.271631	0.223303	2.099178	6
H	-3.280578	-1.233907	-0.089022	1
H	-3.023498	0.076063	-1.025672	1
H	-1.127588	-1.372047	-0.998962	1
H	-1.058048	-1.186177	0.755858	1
H	-0.711788	1.329193	0.428878	1
H	-0.777208	1.085513	-1.294262	1
H	1.132242	0.342463	-2.503802	1
H	2.722131	0.027943	-1.621752	1
H	2.827082	-0.036797	0.749598	1
H	0.226072	0.408973	2.318248	1
H	1.932462	0.095753	2.951198	1
Es	1.306675	0.304591	-2.210209	99
Es	-0.884173	-0.031868	-0.264089	99
Es	1.712857	0.137360	2.668842	99
Es	-2.222920	-0.485684	-0.181059	99
Es	0.561917	0.340712	2.258871	99
Es	-2.938442	-0.727061	-0.173470	99
Es	1.655384	0.221843	-1.560584	99
Es	1.403130	0.575945	-0.956544	99
Es	1.007603	0.306494	-0.385208	99
Es	-0.480890	0.597224	-0.355066	99
Es	-2.823982	-0.174145	-0.713908	99
Es	-1.321191	-0.674114	-0.175676	99
Es	1.449382	-0.130805	1.462804	99
Es	1.271591	0.223304	2.099274	99
Es	-0.644211	0.911249	-1.014843	99
Es	1.367542	0.227115	0.246631	99
Es	1.287226	-0.057745	-0.970978	99
Es	-2.752367	-0.363580	-0.146823	99
Es	-1.170398	-1.145278	-0.758817	99
Es	1.557124	0.509938	1.465900	99
Es	-1.143343	-1.019194	0.468957	99
Es	-0.636239	1.076415	0.196633	99
Es	0.228405	0.440947	-0.354862	99
Es	2.376337	0.097006	-1.598930	99
Es	-2.940819	-0.281951	0.189945	99
Es	2.483243	0.030873	0.770251	99
Es	1.758592	0.151614	0.853268	99
45
Properties=species:S:1:pos:R:3:Z:I:1 energy=-288.11850269204507 field_type=dipole dipole="0.000000 0.000000 0.000000" charge=0
N	-2.752478	-0.363297	-0.146322	7
C	-1.321068	-0.674197	-0.175672	6
C	-0.480938	0.597273	-0.355062	6
C	1.007672	0.306483	-0.385322	6
C	1.655332	0.221853	-1.560482	6
C	1.758571	0.151613	0.853378	6
C	1.271631	0.223303	2.099178	6
H	-3.280578	-1.233907	-0.089022	1
H	-3.023498	0.076063	-1.025672	1
H	-1.127588	-1.372047	-0.998962	1
H	-1.058048	-1.186177	0.755858	1
H	-0.711788	1.329193	0.428878	1
H	-0.777208	1.085513	-1.294262	1
H	1.132242	0.342463	-2.503802	1
H	2.722131	0.027943	-1.621752	1
H	2.827082	-0.036797	0.749598	1
H	0.226072	0.408973	2.318248	1
H	1.932462	0.095753	2.951198	1
Es	-2.942203	-0.284562	0.189796	99
Es	1.287542	-0.058436	-0.970639	99
Es	-0.480890	0.597227	-0.355067	99
Es	-2.226364	-0.484222	-0.181198	99
Es	1.758593	0.151614	0.853266	99
Es	1.367446	0.227030	0.246623	99
Es	-2.752363	-0.363575	-0.146751	99
Es	2.483231	0.030967	0.770455	99
Es	-1.142812	-1.019151	0.468770	99
Es	1.402894	0.576700	-0.956839	99
Es	1.007601	0.306485	-0.385207	99
Es	0.561936	0.340622	2.259027	99
Es	1.712858	0.137396	2.668681	99
Es	-0.645036	0.911339	-1.014963	99
Es	1.557014	0.509726	1.465670	99
Es	-2.821053	-0.176494	-0.713458	99
Es	1.306864	0.304522	-2.210404	99
Es	-2.936935	-0.723572	-0.173423	99
Es	1.271593	0.223305	2.099276	99
Es	-0.884093	-0.031811	-0.264077	99
Es	-0.636235	1.076442	0.196614	99
Es	0.229213	0.440709	-0.355012	99
Es	-1.321191	-0.674114	-0.175677	99
Es	2.376122	0.097085	-1.598736	99
Es	1.655385	0.221843	-1.560584	99
Es	1.449443	-0.130539	1.463008	99
Es	-1.170526	-1.145331	-0.758842	99
