44
Properties=species:S:1:pos:R:3:Z:I:1 energy=-304.0825224427119 field_type=dipole dipole="0.000000 0.000000 0.000000" charge=0
N	-1.062006	-2.074230	-0.996577	7
C	-1.639667	-1.369501	0.154043	6
C	-1.151447	0.089280	0.255203	6
N	0.312704	0.172889	0.162253	7
C	0.758314	1.559459	0.259753	6
C	2.222814	1.611429	0.164653	6
C	3.421063	1.656909	0.091473	6
H	-1.424476	-3.027061	-1.010267	1
H	-0.059797	-2.170161	-0.824317	1
H	-1.370697	-1.911620	1.068183	1
H	-2.731776	-1.380240	0.073713	1
H	-1.497277	0.507470	1.207693	1
H	-1.607677	0.671769	-0.555227	1
H	0.581404	-0.183221	-0.756177	1
H	0.444873	1.992440	1.216583	1
H	0.319374	2.162839	-0.543347	1
H	4.484273	1.691550	0.032363	1
Es	0.312422	0.173252	0.161797	99
Es	3.421292	1.656917	0.091454	99
Es	4.114952	1.680050	0.051777	99
Es	2.813050	1.994272	0.087329	99
Es	-1.639596	-1.369526	0.153918	99
Es	0.556429	1.849267	0.902824	99
Es	-1.123624	-1.902762	-1.305998	99
Es	0.500876	0.794734	0.186704	99
Es	0.463876	-0.023485	-0.399406	99
Es	-1.278679	-2.650487	-0.985127	99
Es	1.522816	1.587821	0.206864	99
Es	2.818678	1.421625	-0.166893	99
Es	-0.460596	-2.137384	-0.877585	99
Es	-1.456071	-1.737498	0.791651	99
Es	-1.304656	-1.779868	-0.488052	99
Es	-1.468454	0.496081	-0.304398	99
Es	2.222549	1.611422	0.164664	99
Es	2.864585	1.491899	0.452511	99
Es	-1.151310	0.089246	0.255200	99
Es	-0.324587	0.158015	0.187628	99
Es	-1.061909	-2.074482	-0.996065	99
Es	-1.385208	-0.640177	0.197982	99
Es	0.471995	1.973648	-0.287316	99
Es	-2.388635	-1.373581	0.097816	99
Es	0.461846	-0.022105	0.419081	99
Es	-1.384164	0.377982	0.908979	99
Es	0.758425	1.559334	0.259733	99
44
Properties=species:S:1:pos:R:3:Z:I:1 energy=-304.0825224427119 field_type=dipole dipole="0.000000 0.000000 0.000000" charge=0
N	-1.062006	-2.074230	-0.996577	7
C	-1.639667	-1.369501	0.154043	6
C	-1.151447	0.089280	0.255203	6
N	0.312704	0.172889	0.162253	7
C	0.758314	1.559459	0.259753	6
C	2.222814	1.611429	0.164653	6
C	3.421063	1.656909	0.091473	6
H	-1.424476	-3.027061	-1.010267	1
H	-0.059797	-2.170161	-0.824317	1
H	-1.370697	-1.911620	1.068183	1
H	-2.731776	-1.380240	0.073713	1
H	-1.497277	0.507470	1.207693	1
H	-1.607677	0.671769	-0.555227	1
H	0.581404	-0.183221	-0.756177	1
H	0.444873	1.992440	1.216583	1
H	0.319374	2.162839	-0.543347	1
H	4.484273	1.691550	0.032363	1
Es	-0.327674	0.156087	0.189681	99
Es	0.555037	1.848435	0.900569	99
Es	0.461396	-0.017855	0.413326	99
Es	2.813782	1.992962	0.110206	99
Es	0.758424	1.559334	0.259731	99
Es	0.466659	-0.023927	-0.396630	99
Es	1.524884	1.588656	0.207007	99
Es	-1.061913	-2.074459	-0.996117	99
Es	-1.454870	-1.735841	0.789338	99
Es	2.818229	1.442782	-0.175161	99
Es	4.116638	1.679854	0.051414	99
Es	-1.306552	-1.777804	-0.489800	99
Es	-1.468847	0.495667	-0.303470	99
Es	-1.126405	-1.909564	-1.294890	99
Es	-0.452620	-2.134072	-0.883233	99
Es	-1.639596	-1.369525	0.153917	99
Es	-2.392189	-1.373772	0.098566	99
Es	3.421309	1.656918	0.091448	99
Es	-1.384914	0.377370	0.907890	99
Es	0.471048	1.972474	-0.285243	99
Es	-1.151311	0.089247	0.255198	99
Es	2.222536	1.611423	0.164665	99
Es	-1.384707	-0.640982	0.198713	99
Es	0.312396	0.173248	0.161782	99
Es	0.502582	0.794150	0.187958	99
Es	2.864003	1.472054	0.438020	99
Es	-1.281022	-2.648650	-0.987814	99
44
Properties=species:S:1:pos:R:3:Z:I:1 energy=-304.0825224427119 field_type=dipole dipole="0.000000 0.000000 0.000000" charge=0
N	-1.062006	-2.074230	-0.996577	7
C	-1.639667	-1.369501	0.154043	6
C	-1.151447	0.089280	0.255203	6
N	0.312704	0.172889	0.162253	7
C	0.758314	1.559459	0.259753	6
C	2.222814	1.611429	0.164653	6
C	3.421063	1.656909	0.091473	6
H	-1.424476	-3.027061	-1.010267	1
H	-0.059797	-2.170161	-0.824317	1
H	-1.370697	-1.911620	1.068183	1
H	-2.731776	-1.380240	0.073713	1
H	-1.497277	0.507470	1.207693	1
H	-1.607677	0.671769	-0.555227	1
H	0.581404	-0.183221	-0.756177	1
H	0.444873	1.992440	1.216583	1
H	0.319374	2.162839	-0.543347	1
H	4.484273	1.691550	0.032363	1
Es	-1.385044	0.376893	0.907130	99
Es	-1.151311	0.089247	0.255198	99
Es	-0.329089	0.155614	0.190491	99
Es	0.470375	1.971882	-0.284167	99
Es	-1.307890	-1.775904	-0.491238	99
Es	-1.126195	-1.914070	-1.287076	99
Es	0.312484	0.173178	0.161930	99
Es	2.863399	1.456292	0.427986	99
Es	-1.061898	-2.074493	-0.996064	99
Es	1.525918	1.589347	0.207179	99
Es	-1.469331	0.495506	-0.303161	99
Es	-1.454300	-1.734774	0.787929	99
Es	-2.393995	-1.373806	0.099024	99
Es	0.467921	-0.024064	-0.394980	99
Es	3.421314	1.656911	0.091452	99
Es	0.461067	-0.015670	0.410673	99
Es	2.817984	1.460914	-0.182242	99
Es	2.814518	1.990678	0.127562	99
Es	-1.282940	-2.647429	-0.990149	99
Es	2.222540	1.611427	0.164664	99
Es	0.554480	1.847686	0.899012	99
Es	-1.384361	-0.641601	0.199431	99
Es	-0.449042	-2.132301	-0.886644	99
Es	0.758425	1.559334	0.259735	99
Es	-1.639597	-1.369524	0.153918	99
Es	4.117336	1.679551	0.051178	99
Es	0.503535	0.793388	0.188301	99
44
Properties=species:S:1:pos:R:3:Z:I:1 energy=-304.0825224427119 field_type=dipole dipole="0.000000 0.000000 0.000000" charge=0
N	-1.062006	-2.074230	-0.996577	7
C	-1.639667	-1.369501	0.154043	6
C	-1.151447	0.089280	0.255203	6
N	0.312704	0.172889	0.162253	7
C	0.758314	1.559459	0.259753	6
C	2.222814	1.611429	0.164653	6
C	3.421063	1.656909	0.091473	6
H	-1.424476	-3.027061	-1.010267	1
H	-0.059797	-2.170161	-0.824317	1
H	-1.370697	-1.911620	1.068183	1
H	-2.731776	-1.380240	0.073713	1
H	-1.497277	0.507470	1.207693	1
H	-1.607677	0.671769	-0.555227	1
H	0.581404	-0.183221	-0.756177	1
H	0.444873	1.992440	1.216583	1
H	0.319374	2.162839	-0.543347	1
H	4.484273	1.691550	0.032363	1
Es	-2.395124	-1.373845	0.099522	99
Es	-1.126314	-1.917178	-1.282608	99
Es	2.863479	1.467657	0.433735	99
Es	-1.469692	0.495416	-0.302951	99
Es	0.504201	0.792992	0.188792	99
Es	-1.454008	-1.733890	0.786741	99
Es	0.312457	0.173224	0.161849	99
Es	-0.447097	-2.131056	-0.888914	99
Es	-1.308806	-1.774958	-0.492125	99
Es	0.460765	-0.014372	0.408683	99
Es	1.526595	1.589765	0.207317	99
Es	-1.385137	0.376458	0.906634	99
Es	0.554250	1.847095	0.897956	99
Es	2.813900	1.989873	0.111108	99
Es	-1.384128	-0.642001	0.199977	99
Es	2.222535	1.611424	0.164669	99
Es	2.818476	1.450063	-0.171576	99
Es	-1.283428	-2.646269	-0.991043	99
Es	-1.151309	0.089246	0.255201	99
Es	-0.329904	0.155145	0.191028	99
Es	0.468668	-0.023914	-0.393769	99
Es	0.469950	1.971544	-0.283335	99
Es	0.758425	1.559334	0.259737	99
Es	4.117703	1.679559	0.051136	99
Es	3.421319	1.656917	0.091449	99
Es	-1.639596	-1.369525	0.153915	99
Es	-1.061877	-2.074496	-0.996054	99
44
Properties=species:S:1:pos:R:3:Z:I:1 energy=-304.0825224427119 field_type=dipole dipole="0.000000 0.000000 0.000000" charge=0
N	-1.062006	-2.074230	-0.996577	7
C	-1.639667	-1.369501	0.154043	6
C	-1.151447	0.089280	0.255203	6
N	0.312704	0.172889	0.162253	7
C	0.758314	1.559459	0.259753	6
C	2.222814	1.611429	0.164653	6
C	3.421063	1.656909	0.091473	6
H	-1.424476	-3.027061	-1.010267	1
H	-0.059797	-2.170161	-0.824317	1
H	-1.370697	-1.911620	1.068183	1
H	-2.731776	-1.380240	0.073713	1
H	-1.497277	0.507470	1.207693	1
H	-1.607677	0.671769	-0.555227	1
H	0.581404	-0.183221	-0.756177	1
H	0.444873	1.992440	1.216583	1
H	0.319374	2.162839	-0.543347	1
H	4.484273	1.691550	0.032363	1
Es	2.863130	1.459293	0.429701	99
Es	-1.151307	0.089245	0.255201	99
Es	4.117937	1.679363	0.051047	99
Es	-1.383926	-0.642364	0.200413	99
Es	-1.125369	-1.919820	-1.277677	99
Es	-1.061900	-2.074468	-0.996100	99
Es	-0.330442	0.154963	0.191442	99
Es	3.421319	1.656914	0.091449	99
Es	-2.395873	-1.373820	0.099944	99
Es	-0.445751	-2.130175	-0.890791	99
Es	2.818418	1.460358	-0.175337	99
Es	-1.284437	-2.645410	-0.992828	99
Es	0.469486	1.971310	-0.282729	99
Es	0.504703	0.792629	0.189164	99
Es	2.222533	1.611432	0.164661	99
Es	0.312494	0.173169	0.161942	99
Es	-1.309781	-1.773852	-0.493043	99
Es	-1.385135	0.376021	0.906197	99
Es	0.758426	1.559335	0.259733	99
Es	0.554260	1.846585	0.896920	99
Es	-1.470033	0.495420	-0.302811	99
Es	1.527084	1.590007	0.207319	99
Es	-1.453816	-1.733251	0.785818	99
Es	0.468805	-0.023486	-0.392750	99
Es	-1.639597	-1.369525	0.153916	99
Es	2.814287	1.988046	0.119111	99
Es	0.460788	-0.013707	0.407161	99
44
Properties=species:S:1:pos:R:3:Z:I:1 energy=-304.0825224427119 field_type=dipole dipole="0.000000 0.000000 0.000000" charge=0
N	-1.062006	-2.074230	-0.996577	7
C	-1.639667	-1.369501	0.154043	6
C	-1.151447	0.089280	0.255203	6
N	0.312704	0.172889	0.162253	7
C	0.758314	1.559459	0.259753	6
C	2.222814	1.611429	0.164653	6
C	3.421063	1.656909	0.091473	6
H	-1.424476	-3.027061	-1.010267	1
H	-0.059797	-2.170161	-0.824317	1
H	-1.370697	-1.911620	1.068183	1
H	-2.731776	-1.380240	0.073713	1
H	-1.497277	0.507470	1.207693	1
H	-1.607677	0.671769	-0.555227	1
H	0.581404	-0.183221	-0.756177	1
H	0.444873	1.992440	1.216583	1
H	0.319374	2.162839	-0.543347	1
H	4.484273	1.691550	0.032363	1
Es	-1.639598	-1.369525	0.153919	99
Es	0.469133	1.971302	-0.282281	99
Es	-0.444817	-2.129505	-0.892311	99
Es	2.811861	1.975374	0.024446	99
Es	-1.151307	0.089245	0.255200	99
Es	2.222532	1.611432	0.164668	99
Es	4.118086	1.679121	0.051006	99
Es	-1.310639	-1.772442	-0.494180	99
Es	-1.385286	0.375804	0.906037	99
Es	-2.396408	-1.373728	0.100221	99
Es	-1.061889	-2.074498	-0.996044	99
Es	0.312386	0.173272	0.161767	99
Es	-1.284961	-2.644563	-0.993703	99
Es	-1.124546	-1.922480	-1.273988	99
Es	-1.383765	-0.642560	0.200858	99
Es	0.504952	0.792518	0.188641	99
Es	-1.453757	-1.732703	0.785103	99
Es	0.460030	-0.011871	0.406718	99
Es	0.470020	-0.024741	-0.391768	99
Es	0.554178	1.845946	0.896369	99
Es	-1.470268	0.495200	-0.302848	99
Es	3.421321	1.656922	0.091461	99
Es	1.527396	1.590318	0.207615	99
Es	-0.330740	0.154808	0.191510	99
Es	2.820819	1.387844	-0.113539	99
Es	2.863144	1.544385	0.462465	99
Es	0.758426	1.559335	0.259734	99
44
Properties=species:S:1:pos:R:3:Z:I:1 energy=-304.0825224427119 field_type=dipole dipole="0.000000 0.000000 0.000000" charge=0
N	-1.062006	-2.074230	-0.996577	7
C	-1.639667	-1.369501	0.154043	6
C	-1.151447	0.089280	0.255203	6
N	0.312704	0.172889	0.162253	7
C	0.758314	1.559459	0.259753	6
C	2.222814	1.611429	0.164653	6
C	3.421063	1.656909	0.091473	6
H	-1.424476	-3.027061	-1.010267	1
H	-0.059797	-2.170161	-0.824317	1
H	-1.370697	-1.911620	1.068183	1
H	-2.731776	-1.380240	0.073713	1
H	-1.497277	0.507470	1.207693	1
H	-1.607677	0.671769	-0.555227	1
H	0.581404	-0.183221	-0.756177	1
H	0.444873	1.992440	1.216583	1
H	0.319374	2.162839	-0.543347	1
H	4.484273	1.691550	0.032363	1
Es	-1.385100	0.375120	0.905715	99
Es	3.421322	1.656914	0.091453	99
Es	2.812404	1.874001	-0.135291	99
Es	2.831666	1.296842	0.058447	99
Es	0.468716	1.971179	-0.282148	99
Es	-1.383552	-0.642645	0.201175	99
Es	-1.061894	-2.074499	-0.996051	99
Es	0.505131	0.792066	0.189333	99
Es	-2.396775	-1.373596	0.100533	99
Es	-0.330967	0.155275	0.190815	99
Es	0.554313	1.845619	0.895625	99
Es	1.527607	1.590743	0.207794	99
Es	0.758426	1.559337	0.259733	99
Es	-1.470854	0.495457	-0.302956	99
Es	4.118235	1.678634	0.051511	99
Es	0.460646	-0.012946	0.406765	99
Es	-1.453573	-1.732302	0.784645	99
Es	-1.639598	-1.369525	0.153916	99
Es	0.469642	-0.023388	-0.391295	99
Es	-0.444269	-2.129278	-0.893152	99
Es	-1.151308	0.089245	0.255199	99
Es	2.222530	1.611424	0.164678	99
Es	0.312381	0.173274	0.161767	99
Es	-1.123222	-1.924727	-1.270624	99
Es	2.851720	1.736805	0.449749	99
Es	-1.311956	-1.771042	-0.495220	99
Es	-1.285368	-2.643776	-0.995044	99
44
Properties=species:S:1:pos:R:3:Z:I:1 energy=-304.0825224427119 field_type=dipole dipole="0.000000 0.000000 0.000000" charge=0
N	-1.062006	-2.074230	-0.996577	7
C	-1.639667	-1.369501	0.154043	6
C	-1.151447	0.089280	0.255203	6
N	0.312704	0.172889	0.162253	7
C	0.758314	1.559459	0.259753	6
C	2.222814	1.611429	0.164653	6
C	3.421063	1.656909	0.091473	6
H	-1.424476	-3.027061	-1.010267	1
H	-0.059797	-2.170161	-0.824317	1
H	-1.370697	-1.911620	1.068183	1
H	-2.731776	-1.380240	0.073713	1
H	-1.497277	0.507470	1.207693	1
H	-1.607677	0.671769	-0.555227	1
H	0.581404	-0.183221	-0.756177	1
H	0.444873	1.992440	1.216583	1
H	0.319374	2.162839	-0.543347	1
H	4.484273	1.691550	0.032363	1
Es	-0.331186	0.154510	0.191716	99
Es	-2.397133	-1.373778	0.100799	99
Es	3.421322	1.656916	0.091449	99
Es	0.312388	0.173272	0.161770	99
Es	2.863001	1.469750	0.437035	99
Es	2.813643	1.985315	0.098840	99
Es	-1.285917	-2.643605	-0.995721	99
Es	-0.443589	-2.127793	-0.895093	99
Es	-1.151308	0.089252	0.255188	99
Es	-1.061889	-2.074507	-0.996041	99
Es	0.460219	-0.011713	0.405091	99
Es	-1.383408	-0.642812	0.201686	99
Es	0.554506	1.845322	0.894952	99
Es	0.468421	1.971021	-0.281605	99
Es	-1.123066	-1.926486	-1.267134	99
Es	-1.385145	0.374987	0.905393	99
Es	0.505407	0.791962	0.189777	99
Es	-1.639598	-1.369524	0.153918	99
Es	0.758424	1.559333	0.259728	99
Es	2.819160	1.452331	-0.162225	99
Es	4.118278	1.679388	0.051024	99
Es	0.470013	-0.023538	-0.390684	99
Es	-1.471008	0.495260	-0.302907	99
Es	2.222530	1.611425	0.164663	99
Es	-1.453663	-1.731826	0.783826	99
Es	1.527851	1.590456	0.207446	99
Es	-1.311950	-1.770707	-0.495820	99
