44
Properties=species:S:1:pos:R:3:Z:I:1 energy=-304.15325208925776 field_type=dipole dipole="0.000000 0.000000 0.000000" charge=0
N	-0.657417	-2.843416	-0.160474	7
C	-0.959427	-1.716966	0.380306	6
N	-0.323897	-0.537576	0.162696	7
C	-0.701937	0.729804	0.761006	6
C	0.071723	1.764294	-0.050924	6
C	1.329263	1.011054	-0.452404	6
C	0.808663	-0.394666	-0.740494	6
H	-1.299587	-3.565956	0.180966	1
H	-1.800847	-1.640686	1.092036	1
H	-0.393947	0.749964	1.812236	1
H	-1.780657	0.908614	0.703586	1
H	-0.498327	2.043424	-0.945454	1
H	0.281983	2.673104	0.519436	1
H	1.836343	1.454764	-1.313264	1
H	2.033893	0.986254	0.387336	1
H	0.469353	-0.476966	-1.779314	1
H	1.584813	-1.145046	-0.557274	1
Es	-0.657736	-2.843280	-0.160159	99
Es	0.710506	1.412989	-0.254949	99
Es	-0.319858	1.948817	-0.663381	99
Es	-0.324067	-0.537617	0.162558	99
Es	1.329219	1.011042	-0.452400	99
Es	-0.302376	-0.857935	0.421785	99
Es	-0.491481	0.745375	1.486414	99
Es	0.152033	-0.489856	-0.224659	99
Es	-0.701885	0.729659	0.760919	99
Es	1.081031	0.306705	-0.606109	99
Es	0.212120	2.383659	0.341890	99
Es	-1.442681	0.844746	0.725004	99
Es	-0.670005	-0.840510	0.034002	99
Es	-0.329063	1.256429	0.367922	99
Es	-0.961735	-2.355544	-0.155038	99
Es	-0.959382	-1.716784	0.380325	99
Es	-0.505591	-0.006475	0.421521	99
Es	-1.053629	-3.268528	0.055963	99
Es	-0.611234	-2.463592	0.271707	99
Es	-1.534353	-1.650461	0.869490	99
Es	0.071718	1.764254	-0.050906	99
Es	0.808521	-0.394640	-0.740362	99
Es	-0.389221	-2.908547	-0.397696	99
Es	0.575617	-0.447585	-1.452493	99
Es	1.806952	0.992353	0.126858	99
Es	1.674689	1.312339	-1.041157	99
Es	1.332590	-0.903215	-0.613459	99
44
Properties=species:S:1:pos:R:3:Z:I:1 energy=-304.15325208925776 field_type=dipole dipole="0.000000 0.000000 0.000000" charge=0
N	-0.657417	-2.843416	-0.160474	7
C	-0.959427	-1.716966	0.380306	6
N	-0.323897	-0.537576	0.162696	7
C	-0.701937	0.729804	0.761006	6
C	0.071723	1.764294	-0.050924	6
C	1.329263	1.011054	-0.452404	6
C	0.808663	-0.394666	-0.740494	6
H	-1.299587	-3.565956	0.180966	1
H	-1.800847	-1.640686	1.092036	1
H	-0.393947	0.749964	1.812236	1
H	-1.780657	0.908614	0.703586	1
H	-0.498327	2.043424	-0.945454	1
H	0.281983	2.673104	0.519436	1
H	1.836343	1.454764	-1.313264	1
H	2.033893	0.986254	0.387336	1
H	0.469353	-0.476966	-1.779314	1
H	1.584813	-1.145046	-0.557274	1
Es	-1.051788	-3.272713	0.055312	99
Es	-0.676421	-0.963632	0.113723	99
Es	-0.959386	-1.716772	0.380323	99
Es	-0.329350	1.257170	0.366990	99
Es	1.806196	0.993371	0.125611	99
Es	1.329223	1.011044	-0.452402	99
Es	-1.440973	0.844607	0.725558	99
Es	-0.657773	-2.843262	-0.160140	99
Es	-0.607658	-2.466188	0.271613	99
Es	0.575330	-0.448047	-1.451049	99
Es	0.071717	1.764254	-0.050905	99
Es	0.140514	-0.489866	-0.238178	99
Es	1.674714	1.312932	-1.039822	99
Es	-0.963348	-2.352481	-0.156362	99
Es	-0.492418	0.745484	1.486216	99
Es	1.332009	-0.904438	-0.613655	99
Es	0.709893	1.413572	-0.254936	99
Es	-0.392970	-2.905429	-0.394927	99
Es	1.081247	0.306136	-0.606640	99
Es	0.808523	-0.394640	-0.740364	99
Es	-0.517565	-0.004186	0.411452	99
Es	-0.271960	-0.738395	0.364499	99
Es	-0.701884	0.729662	0.760920	99
Es	0.212533	2.385600	0.342430	99
Es	-0.318994	1.947574	-0.662722	99
Es	-0.324558	-0.537721	0.162132	99
Es	-1.534155	-1.649840	0.868913	99
44
Properties=species:S:1:pos:R:3:Z:I:1 energy=-304.15325208925776 field_type=dipole dipole="0.000000 0.000000 0.000000" charge=0
N	-0.657417	-2.843416	-0.160474	7
C	-0.959427	-1.716966	0.380306	6
N	-0.323897	-0.537576	0.162696	7
C	-0.701937	0.729804	0.761006	6
C	0.071723	1.764294	-0.050924	6
C	1.329263	1.011054	-0.452404	6
C	0.808663	-0.394666	-0.740494	6
H	-1.299587	-3.565956	0.180966	1
H	-1.800847	-1.640686	1.092036	1
H	-0.393947	0.749964	1.812236	1
H	-1.780657	0.908614	0.703586	1
H	-0.498327	2.043424	-0.945454	1
H	0.281983	2.673104	0.519436	1
H	1.836343	1.454764	-1.313264	1
H	2.033893	0.986254	0.387336	1
H	0.469353	-0.476966	-1.779314	1
H	1.584813	-1.145046	-0.557274	1
Es	0.071717	1.764253	-0.050907	99
Es	1.331203	-0.904331	-0.613803	99
Es	0.172206	-0.500718	-0.199769	99
Es	-0.506134	-1.049974	0.348250	99
Es	0.574453	-0.448658	-1.451188	99
Es	1.807687	0.994239	0.125898	99
Es	-1.441574	0.845152	0.725417	99
Es	-1.052937	-3.273783	0.051393	99
Es	-0.396624	-2.903827	-0.393880	99
Es	-0.959381	-1.716770	0.380327	99
Es	-0.962143	-2.354453	-0.158985	99
Es	1.329224	1.011043	-0.452399	99
Es	0.709307	1.413717	-0.255775	99
Es	-0.323535	-0.537830	0.163276	99
Es	-0.329007	1.256702	0.366015	99
Es	-0.501379	-0.633816	0.054448	99
Es	-0.489276	-0.012207	0.447893	99
Es	-0.701884	0.729661	0.760920	99
Es	1.081551	0.305925	-0.607719	99
Es	-0.491875	0.746390	1.485918	99
Es	-0.319060	1.946506	-0.662554	99
Es	0.212698	2.386905	0.343534	99
Es	-0.657781	-2.843264	-0.160127	99
Es	1.673019	1.312098	-1.037615	99
Es	-1.532980	-1.649787	0.869531	99
Es	0.808525	-0.394640	-0.740365	99
Es	-0.605321	-2.464734	0.275851	99
44
Properties=species:S:1:pos:R:3:Z:I:1 energy=-304.15325208925776 field_type=dipole dipole="0.000000 0.000000 0.000000" charge=0
N	-0.657417	-2.843416	-0.160474	7
C	-0.959427	-1.716966	0.380306	6
N	-0.323897	-0.537576	0.162696	7
C	-0.701937	0.729804	0.761006	6
C	0.071723	1.764294	-0.050924	6
C	1.329263	1.011054	-0.452404	6
C	0.808663	-0.394666	-0.740494	6
H	-1.299587	-3.565956	0.180966	1
H	-1.800847	-1.640686	1.092036	1
H	-0.393947	0.749964	1.812236	1
H	-1.780657	0.908614	0.703586	1
H	-0.498327	2.043424	-0.945454	1
H	0.281983	2.673104	0.519436	1
H	1.836343	1.454764	-1.313264	1
H	2.033893	0.986254	0.387336	1
H	0.469353	-0.476966	-1.779314	1
H	1.584813	-1.145046	-0.557274	1
Es	1.806754	0.994318	0.125085	99
Es	-0.396340	-2.902138	-0.389682	99
Es	0.071718	1.764253	-0.050905	99
Es	-0.965261	-2.351204	-0.160680	99
Es	0.708932	1.414286	-0.255165	99
Es	-1.048809	-3.276949	0.052796	99
Es	-0.605397	-2.467088	0.273445	99
Es	1.329224	1.011044	-0.452399	99
Es	-0.283541	-0.689796	0.314031	99
Es	0.212653	2.386816	0.343317	99
Es	1.081183	0.305706	-0.607260	99
Es	0.133876	-0.490163	-0.244537	99
Es	0.808523	-0.394640	-0.740363	99
Es	-0.324591	-0.537620	0.162031	99
Es	-0.518969	-0.003394	0.412197	99
Es	-0.656165	-1.013128	0.168517	99
Es	-0.959382	-1.716773	0.380325	99
Es	-1.533446	-1.649499	0.868303	99
Es	1.331751	-0.905787	-0.613364	99
Es	-0.701884	0.729660	0.760918	99
Es	-0.319175	1.946488	-0.662769	99
Es	1.673713	1.312336	-1.037873	99
Es	-0.492776	0.746092	1.486604	99
Es	-0.657783	-2.843264	-0.160132	99
Es	-1.439493	0.844630	0.725559	99
Es	0.574632	-0.448104	-1.450322	99
Es	-0.329251	1.257714	0.365912	99
44
Properties=species:S:1:pos:R:3:Z:I:1 energy=-304.15325208925776 field_type=dipole dipole="0.000000 0.000000 0.000000" charge=0
N	-0.657417	-2.843416	-0.160474	7
C	-0.959427	-1.716966	0.380306	6
N	-0.323897	-0.537576	0.162696	7
C	-0.701937	0.729804	0.761006	6
C	0.071723	1.764294	-0.050924	6
C	1.329263	1.011054	-0.452404	6
C	0.808663	-0.394666	-0.740494	6
H	-1.299587	-3.565956	0.180966	1
H	-1.800847	-1.640686	1.092036	1
H	-0.393947	0.749964	1.812236	1
H	-1.780657	0.908614	0.703586	1
H	-0.498327	2.043424	-0.945454	1
H	0.281983	2.673104	0.519436	1
H	1.836343	1.454764	-1.313264	1
H	2.033893	0.986254	0.387336	1
H	0.469353	-0.476966	-1.779314	1
H	1.584813	-1.145046	-0.557274	1
Es	-0.335076	-0.578771	0.183643	99
Es	-0.369159	-0.597168	0.163641	99
Es	-1.532531	-1.649201	0.868771	99
Es	1.080574	0.305931	-0.607861	99
Es	-0.657770	-2.843237	-0.160136	99
Es	1.808695	0.994685	0.126421	99
Es	-0.959384	-1.716769	0.380323	99
Es	1.331559	-0.905466	-0.612608	99
Es	0.158071	-0.495672	-0.225356	99
Es	-0.602405	-2.465813	0.277570	99
Es	0.071718	1.764254	-0.050906	99
Es	-0.701885	0.729661	0.760918	99
Es	0.708406	1.414063	-0.255748	99
Es	1.671996	1.311230	-1.036367	99
Es	-0.328432	1.256784	0.365453	99
Es	-0.595899	-1.057595	0.259091	99
Es	-1.440320	0.845525	0.724799	99
Es	0.573739	-0.448522	-1.451537	99
Es	-0.491698	0.746930	1.487240	99
Es	1.329223	1.011044	-0.452402	99
Es	-0.399978	-2.901519	-0.387084	99
Es	-1.048269	-3.277438	0.049725	99
Es	0.213042	2.386440	0.344461	99
Es	-0.966147	-2.352643	-0.165037	99
Es	-0.320290	1.946431	-0.663935	99
Es	-0.505604	-0.004727	0.430872	99
Es	0.808524	-0.394641	-0.740364	99
44
Properties=species:S:1:pos:R:3:Z:I:1 energy=-304.15325208925776 field_type=dipole dipole="0.000000 0.000000 0.000000" charge=0
N	-0.657417	-2.843416	-0.160474	7
C	-0.959427	-1.716966	0.380306	6
N	-0.323897	-0.537576	0.162696	7
C	-0.701937	0.729804	0.761006	6
C	0.071723	1.764294	-0.050924	6
C	1.329263	1.011054	-0.452404	6
C	0.808663	-0.394666	-0.740494	6
H	-1.299587	-3.565956	0.180966	1
H	-1.800847	-1.640686	1.092036	1
H	-0.393947	0.749964	1.812236	1
H	-1.780657	0.908614	0.703586	1
H	-0.498327	2.043424	-0.945454	1
H	0.281983	2.673104	0.519436	1
H	1.836343	1.454764	-1.313264	1
H	2.033893	0.986254	0.387336	1
H	0.469353	-0.476966	-1.779314	1
H	1.584813	-1.145046	-0.557274	1
Es	-0.964389	-2.354895	-0.162684	99
Es	-0.323491	-0.537847	0.163338	99
Es	-0.959383	-1.716770	0.380325	99
Es	0.708440	1.414410	-0.256259	99
Es	-0.491815	0.747051	1.486522	99
Es	-0.541581	-1.060048	0.316769	99
Es	-1.532041	-1.649704	0.869087	99
Es	-0.319423	1.945549	-0.662690	99
Es	0.573631	-0.448980	-1.450964	99
Es	-0.701891	0.729657	0.760915	99
Es	0.212774	2.387781	0.344542	99
Es	-0.400871	-2.899835	-0.389140	99
Es	1.081294	0.305744	-0.608461	99
Es	1.808638	0.995111	0.125672	99
Es	1.330889	-0.905278	-0.613144	99
Es	1.329224	1.011044	-0.452400	99
Es	-0.492444	-0.009762	0.444729	99
Es	-1.440528	0.845672	0.725089	99
Es	0.808524	-0.394639	-0.740366	99
Es	0.071718	1.764255	-0.050906	99
Es	1.671649	1.311073	-1.035204	99
Es	-0.328660	1.256751	0.365087	99
Es	-0.460816	-0.626174	0.090972	99
Es	0.170923	-0.500613	-0.203226	99
Es	-0.657770	-2.843291	-0.160174	99
Es	-1.049495	-3.278172	0.048148	99
Es	-0.602408	-2.464294	0.278010	99
44
Properties=species:S:1:pos:R:3:Z:I:1 energy=-304.15325208925776 field_type=dipole dipole="0.000000 0.000000 0.000000" charge=0
N	-0.657417	-2.843416	-0.160474	7
C	-0.959427	-1.716966	0.380306	6
N	-0.323897	-0.537576	0.162696	7
C	-0.701937	0.729804	0.761006	6
C	0.071723	1.764294	-0.050924	6
C	1.329263	1.011054	-0.452404	6
C	0.808663	-0.394666	-0.740494	6
H	-1.299587	-3.565956	0.180966	1
H	-1.800847	-1.640686	1.092036	1
H	-0.393947	0.749964	1.812236	1
H	-1.780657	0.908614	0.703586	1
H	-0.498327	2.043424	-0.945454	1
H	0.281983	2.673104	0.519436	1
H	1.836343	1.454764	-1.313264	1
H	2.033893	0.986254	0.387336	1
H	0.469353	-0.476966	-1.779314	1
H	1.584813	-1.145046	-0.557274	1
Es	0.808525	-0.394639	-0.740366	99
Es	-0.402243	-2.899698	-0.384885	99
Es	1.329224	1.011043	-0.452399	99
Es	-0.328337	1.256909	0.364917	99
Es	-0.959384	-1.716770	0.380323	99
Es	1.808909	0.994971	0.126133	99
Es	0.708062	1.414496	-0.255977	99
Es	1.671581	1.310772	-1.035195	99
Es	-0.337842	-0.584635	0.185548	99
Es	0.071719	1.764253	-0.050906	99
Es	0.573358	-0.448620	-1.451146	99
Es	-0.701884	0.729659	0.760918	99
Es	-1.439871	0.845692	0.724736	99
Es	1.331308	-0.906008	-0.612498	99
Es	-0.966391	-2.352213	-0.166305	99
Es	-1.047133	-3.279407	0.048147	99
Es	0.212961	2.386918	0.344897	99
Es	-0.657770	-2.843238	-0.160136	99
Es	-0.601009	-2.466272	0.278189	99
Es	-0.491776	0.747255	1.487295	99
Es	-0.320270	1.945981	-0.663773	99
Es	-0.505504	-0.004487	0.430436	99
Es	-1.532162	-1.649261	0.868446	99
Es	-0.365964	-0.591396	0.162536	99
Es	1.080598	0.305900	-0.608281	99
Es	0.156827	-0.495323	-0.226564	99
Es	-0.594831	-1.058084	0.259500	99
44
Properties=species:S:1:pos:R:3:Z:I:1 energy=-304.15325208925776 field_type=dipole dipole="0.000000 0.000000 0.000000" charge=0
N	-0.657417	-2.843416	-0.160474	7
C	-0.959427	-1.716966	0.380306	6
N	-0.323897	-0.537576	0.162696	7
C	-0.701937	0.729804	0.761006	6
C	0.071723	1.764294	-0.050924	6
C	1.329263	1.011054	-0.452404	6
C	0.808663	-0.394666	-0.740494	6
H	-1.299587	-3.565956	0.180966	1
H	-1.800847	-1.640686	1.092036	1
H	-0.393947	0.749964	1.812236	1
H	-1.780657	0.908614	0.703586	1
H	-0.498327	2.043424	-0.945454	1
H	0.281983	2.673104	0.519436	1
H	1.836343	1.454764	-1.313264	1
H	2.033893	0.986254	0.387336	1
H	0.469353	-0.476966	-1.779314	1
H	1.584813	-1.145046	-0.557274	1
Es	-1.532637	-1.649514	0.867857	99
Es	-0.701886	0.729662	0.760919	99
Es	1.672846	1.311261	-1.035477	99
Es	-1.438622	0.844883	0.725496	99
Es	-1.045728	-3.280477	0.050361	99
Es	0.071718	1.764254	-0.050906	99
Es	0.212444	2.387821	0.344195	99
Es	0.573917	-0.448305	-1.449636	99
Es	1.331393	-0.906970	-0.612885	99
Es	-0.329128	1.258140	0.364782	99
Es	-0.296072	-0.672456	0.287201	99
Es	1.329224	1.011044	-0.452400	99
Es	-0.959384	-1.716767	0.380322	99
Es	-0.657788	-2.843254	-0.160125	99
Es	1.080974	0.305591	-0.608199	99
Es	-0.966851	-2.351768	-0.165162	99
Es	-0.517370	-0.002831	0.414286	99
Es	-0.324564	-0.537610	0.162052	99
Es	-0.604631	-2.466212	0.274957	99
Es	0.808524	-0.394639	-0.740365	99
Es	0.131220	-0.490234	-0.246520	99
Es	1.807251	0.994908	0.124631	99
Es	-0.319369	1.945477	-0.662566	99
Es	-0.492758	0.746857	1.486759	99
Es	-0.398639	-2.899262	-0.384491	99
Es	-0.641670	-1.030897	0.194164	99
Es	0.708284	1.415095	-0.255663	99
44
Properties=species:S:1:pos:R:3:Z:I:1 energy=-304.15325208925776 field_type=dipole dipole="0.000000 0.000000 0.000000" charge=0
N	-0.657417	-2.843416	-0.160474	7
C	-0.959427	-1.716966	0.380306	6
N	-0.323897	-0.537576	0.162696	7
C	-0.701937	0.729804	0.761006	6
C	0.071723	1.764294	-0.050924	6
C	1.329263	1.011054	-0.452404	6
C	0.808663	-0.394666	-0.740494	6
H	-1.299587	-3.565956	0.180966	1
H	-1.800847	-1.640686	1.092036	1
H	-0.393947	0.749964	1.812236	1
H	-1.780657	0.908614	0.703586	1
H	-0.498327	2.043424	-0.945454	1
H	0.281983	2.673104	0.519436	1
H	1.836343	1.454764	-1.313264	1
H	2.033893	0.986254	0.387336	1
H	0.469353	-0.476966	-1.779314	1
H	1.584813	-1.145046	-0.557274	1
Es	-0.701886	0.729658	0.760917	99
Es	-0.959383	-1.716769	0.380325	99
Es	-0.491601	0.747523	1.487354	99
Es	-1.439694	0.845724	0.724778	99
Es	-1.046255	-3.280070	0.047096	99
Es	1.331153	-0.906191	-0.612203	99
Es	-0.591758	-1.059137	0.262504	99
Es	0.808525	-0.394641	-0.740365	99
Es	-0.504538	-0.004417	0.431005	99
Es	-0.328387	1.257319	0.364487	99
Es	-0.657794	-2.843247	-0.160122	99
Es	1.671188	1.310149	-1.034222	99
Es	-0.323464	-0.537879	0.163390	99
Es	-0.402856	-2.898688	-0.384619	99
Es	-0.966926	-2.351759	-0.166191	99
Es	1.329223	1.011043	-0.452399	99
Es	1.080451	0.305858	-0.608459	99
Es	-0.600607	-2.467143	0.278734	99
Es	-1.531942	-1.649273	0.868271	99
Es	0.212828	2.387183	0.345256	99
Es	0.071718	1.764253	-0.050905	99
Es	-0.384185	-0.637178	0.180465	99
Es	-0.320464	1.945614	-0.663728	99
Es	1.809208	0.995195	0.126058	99
Es	0.157070	-0.495265	-0.226383	99
Es	0.707977	1.414651	-0.256275	99
Es	0.573097	-0.448717	-1.451178	99
44
Properties=species:S:1:pos:R:3:Z:I:1 energy=-304.15325208925776 field_type=dipole dipole="0.000000 0.000000 0.000000" charge=0
N	-0.657417	-2.843416	-0.160474	7
C	-0.959427	-1.716966	0.380306	6
N	-0.323897	-0.537576	0.162696	7
C	-0.701937	0.729804	0.761006	6
C	0.071723	1.764294	-0.050924	6
C	1.329263	1.011054	-0.452404	6
C	0.808663	-0.394666	-0.740494	6
H	-1.299587	-3.565956	0.180966	1
H	-1.800847	-1.640686	1.092036	1
H	-0.393947	0.749964	1.812236	1
H	-1.780657	0.908614	0.703586	1
H	-0.498327	2.043424	-0.945454	1
H	0.281983	2.673104	0.519436	1
H	1.836343	1.454764	-1.313264	1
H	2.033893	0.986254	0.387336	1
H	0.469353	-0.476966	-1.779314	1
H	1.584813	-1.145046	-0.557274	1
Es	0.168828	-0.499745	-0.207111	99
Es	1.671087	1.310340	-1.033646	99
Es	1.081236	0.305615	-0.608794	99
Es	-0.554931	-1.062092	0.302741	99
Es	-0.491766	0.747596	1.486968	99
Es	-1.531463	-1.649731	0.868716	99
Es	-1.439611	0.845728	0.724978	99
Es	0.573056	-0.449087	-1.450758	99
Es	-0.601516	-2.465282	0.278671	99
Es	0.071717	1.764253	-0.050905	99
Es	-0.324269	-0.537516	0.162256	99
Es	-0.657771	-2.843228	-0.160132	99
Es	-0.328685	1.257167	0.364254	99
Es	-0.319646	1.944891	-0.662772	99
Es	1.330688	-0.905898	-0.612781	99
Es	-0.965631	-2.353994	-0.164259	99
Es	-0.402688	-2.897590	-0.386304	99
Es	1.329225	1.011044	-0.452401	99
Es	-0.494238	-0.008324	0.442213	99
Es	0.212676	2.388277	0.345104	99
Es	0.707872	1.414819	-0.256495	99
Es	0.808524	-0.394640	-0.740365	99
Es	-1.047308	-3.280632	0.046175	99
Es	-0.442299	-0.626611	0.111541	99
Es	-0.959383	-1.716770	0.380324	99
Es	1.808879	0.995546	0.125449	99
Es	-0.701884	0.729661	0.760918	99
44
Properties=species:S:1:pos:R:3:Z:I:1 energy=-304.15325208925776 field_type=dipole dipole="0.000000 0.000000 0.000000" charge=0
N	-0.657417	-2.843416	-0.160474	7
C	-0.959427	-1.716966	0.380306	6
N	-0.323897	-0.537576	0.162696	7
C	-0.701937	0.729804	0.761006	6
C	0.071723	1.764294	-0.050924	6
C	1.329263	1.011054	-0.452404	6
C	0.808663	-0.394666	-0.740494	6
H	-1.299587	-3.565956	0.180966	1
H	-1.800847	-1.640686	1.092036	1
H	-0.393947	0.749964	1.812236	1
H	-1.780657	0.908614	0.703586	1
H	-0.498327	2.043424	-0.945454	1
H	0.281983	2.673104	0.519436	1
H	1.836343	1.454764	-1.313264	1
H	2.033893	0.986254	0.387336	1
H	0.469353	-0.476966	-1.779314	1
H	1.584813	-1.145046	-0.557274	1
Es	-0.329173	1.258355	0.364299	99
Es	-1.532363	-1.649542	0.867662	99
Es	-0.492792	0.747125	1.486938	99
Es	-1.043929	-3.282655	0.048361	99
Es	0.071718	1.764253	-0.050906	99
Es	0.808526	-0.394639	-0.740365	99
Es	0.708026	1.415423	-0.255754	99
Es	0.573556	-0.448365	-1.449471	99
Es	-0.516489	-0.002624	0.415146	99
Es	0.212304	2.388174	0.344540	99
Es	1.329224	1.011043	-0.452399	99
Es	-0.636742	-1.035442	0.201633	99
Es	1.331241	-0.907365	-0.612687	99
Es	1.080822	0.305604	-0.608284	99
Es	1.672469	1.310755	-1.034673	99
Es	-0.324917	-0.537764	0.161807	99
Es	-0.400203	-2.896810	-0.383207	99
Es	1.807506	0.995095	0.124389	99
Es	-0.301775	-0.667633	0.278350	99
Es	-1.438197	0.844904	0.725422	99
Es	0.132010	-0.490459	-0.246301	99
Es	-0.319389	1.945094	-0.662498	99
Es	-0.657788	-2.843238	-0.160121	99
Es	-0.604222	-2.467209	0.275425	99
Es	-0.967455	-2.351176	-0.164960	99
Es	-0.701885	0.729661	0.760918	99
Es	-0.959386	-1.716769	0.380323	99
44
Properties=species:S:1:pos:R:3:Z:I:1 energy=-304.15325208925776 field_type=dipole dipole="0.000000 0.000000 0.000000" charge=0
N	-0.657417	-2.843416	-0.160474	7
C	-0.959427	-1.716966	0.380306	6
N	-0.323897	-0.537576	0.162696	7
C	-0.701937	0.729804	0.761006	6
C	0.071723	1.764294	-0.050924	6
C	1.329263	1.011054	-0.452404	6
C	0.808663	-0.394666	-0.740494	6
H	-1.299587	-3.565956	0.180966	1
H	-1.800847	-1.640686	1.092036	1
H	-0.393947	0.749964	1.812236	1
H	-1.780657	0.908614	0.703586	1
H	-0.498327	2.043424	-0.945454	1
H	0.281983	2.673104	0.519436	1
H	1.836343	1.454764	-1.313264	1
H	2.033893	0.986254	0.387336	1
H	0.469353	-0.476966	-1.779314	1
H	1.584813	-1.145046	-0.557274	1
Es	-0.329245	1.258206	0.364120	99
Es	-0.325489	-0.538077	0.161478	99
Es	-0.492654	0.747280	1.487037	99
Es	1.080787	0.305502	-0.608335	99
Es	-0.603436	-2.467631	0.275819	99
Es	-0.319378	1.945113	-0.662610	99
Es	0.071718	1.764254	-0.050906	99
Es	0.707863	1.415719	-0.255959	99
Es	-0.400826	-2.897045	-0.382941	99
Es	-0.306201	-0.664259	0.272065	99
Es	0.808523	-0.394639	-0.740366	99
Es	-0.516047	-0.002657	0.415914	99
Es	-0.967263	-2.350732	-0.165364	99
Es	0.133224	-0.490562	-0.245573	99
Es	-0.657785	-2.843246	-0.160126	99
Es	1.331213	-0.907409	-0.612627	99
Es	1.672270	1.310372	-1.034198	99
Es	-1.532318	-1.649508	0.867604	99
Es	-0.633343	-1.038387	0.206665	99
Es	0.573463	-0.448301	-1.449586	99
Es	-1.044238	-3.282456	0.048092	99
Es	-1.438130	0.845000	0.725384	99
Es	-0.959386	-1.716768	0.380321	99
Es	-0.701884	0.729660	0.760917	99
Es	1.807699	0.995176	0.124441	99
Es	1.329223	1.011043	-0.452399	99
Es	0.212341	2.388152	0.344721	99
44
Properties=species:S:1:pos:R:3:Z:I:1 energy=-304.15325208925776 field_type=dipole dipole="0.000000 0.000000 0.000000" charge=0
N	-0.657417	-2.843416	-0.160474	7
C	-0.959427	-1.716966	0.380306	6
N	-0.323897	-0.537576	0.162696	7
C	-0.701937	0.729804	0.761006	6
C	0.071723	1.764294	-0.050924	6
C	1.329263	1.011054	-0.452404	6
C	0.808663	-0.394666	-0.740494	6
H	-1.299587	-3.565956	0.180966	1
H	-1.800847	-1.640686	1.092036	1
H	-0.393947	0.749964	1.812236	1
H	-1.780657	0.908614	0.703586	1
H	-0.498327	2.043424	-0.945454	1
H	0.281983	2.673104	0.519436	1
H	1.836343	1.454764	-1.313264	1
H	2.033893	0.986254	0.387336	1
H	0.469353	-0.476966	-1.779314	1
H	1.584813	-1.145046	-0.557274	1
Es	1.331152	-0.907401	-0.612441	99
Es	-1.044272	-3.282367	0.047888	99
Es	-0.319670	1.945042	-0.662772	99
Es	0.071717	1.764252	-0.050903	99
Es	-0.514930	-0.002613	0.417398	99
Es	1.671901	1.310173	-1.033816	99
Es	1.808053	0.995258	0.124556	99
Es	0.808524	-0.394639	-0.740368	99
Es	-0.657781	-2.843251	-0.160130	99
Es	0.134986	-0.490802	-0.244718	99
Es	-0.967352	-2.350199	-0.165103	99
Es	-1.532242	-1.649482	0.867489	99
Es	0.212327	2.388082	0.344826	99
Es	1.329225	1.011044	-0.452400	99
Es	-0.492515	0.747355	1.487108	99
Es	-1.438370	0.845307	0.725184	99
Es	-0.602078	-2.468346	0.276195	99
Es	-0.959389	-1.716770	0.380322	99
Es	0.573321	-0.448389	-1.449744	99
Es	0.707927	1.415504	-0.255972	99
Es	1.080747	0.305534	-0.608513	99
Es	-0.314730	-0.660436	0.261581	99
Es	-0.701885	0.729658	0.760917	99
Es	-0.628234	-1.042340	0.214206	99
Es	-0.324636	-0.537642	0.161993	99
Es	-0.402158	-2.896970	-0.383406	99
Es	-0.328938	1.258236	0.364210	99
44
Properties=species:S:1:pos:R:3:Z:I:1 energy=-304.15325208925776 field_type=dipole dipole="0.000000 0.000000 0.000000" charge=0
N	-0.657417	-2.843416	-0.160474	7
C	-0.959427	-1.716966	0.380306	6
N	-0.323897	-0.537576	0.162696	7
C	-0.701937	0.729804	0.761006	6
C	0.071723	1.764294	-0.050924	6
C	1.329263	1.011054	-0.452404	6
C	0.808663	-0.394666	-0.740494	6
H	-1.299587	-3.565956	0.180966	1
H	-1.800847	-1.640686	1.092036	1
H	-0.393947	0.749964	1.812236	1
H	-1.780657	0.908614	0.703586	1
H	-0.498327	2.043424	-0.945454	1
H	0.281983	2.673104	0.519436	1
H	1.836343	1.454764	-1.313264	1
H	2.033893	0.986254	0.387336	1
H	0.469353	-0.476966	-1.779314	1
H	1.584813	-1.145046	-0.557274	1
Es	-1.531228	-1.649941	0.868731	99
Es	-0.492033	0.747688	1.486885	99
Es	1.329224	1.011044	-0.452403	99
Es	0.071718	1.764254	-0.050906	99
Es	-0.657803	-2.843252	-0.160133	99
Es	-0.959383	-1.716769	0.380326	99
Es	0.169649	-0.500277	-0.204471	99
Es	0.572952	-0.449276	-1.450302	99
Es	-0.319256	1.944304	-0.661925	99
Es	1.330352	-0.906189	-0.612807	99
Es	-0.493336	-0.008728	0.442868	99
Es	-0.404116	-2.895391	-0.386162	99
Es	-0.547617	-1.061695	0.309487	99
Es	0.707824	1.415202	-0.256817	99
Es	-0.701884	0.729659	0.760918	99
Es	-0.323356	-0.538087	0.163666	99
Es	-0.452205	-0.625697	0.099847	99
Es	0.212405	2.389052	0.345139	99
Es	-1.046571	-3.282380	0.044513	99
Es	1.808867	0.995745	0.124818	99
Es	-0.965283	-2.355044	-0.163342	99
Es	-0.328855	1.257566	0.363758	99
Es	1.081445	0.305595	-0.609142	99
Es	-0.601145	-2.464632	0.278897	99
Es	0.808522	-0.394639	-0.740366	99
Es	-1.438960	0.845677	0.725142	99
Es	1.670772	1.310009	-1.032634	99
44
Properties=species:S:1:pos:R:3:Z:I:1 energy=-304.15325208925776 field_type=dipole dipole="0.000000 0.000000 0.000000" charge=0
N	-0.657417	-2.843416	-0.160474	7
C	-0.959427	-1.716966	0.380306	6
N	-0.323897	-0.537576	0.162696	7
C	-0.701937	0.729804	0.761006	6
C	0.071723	1.764294	-0.050924	6
C	1.329263	1.011054	-0.452404	6
C	0.808663	-0.394666	-0.740494	6
H	-1.299587	-3.565956	0.180966	1
H	-1.800847	-1.640686	1.092036	1
H	-0.393947	0.749964	1.812236	1
H	-1.780657	0.908614	0.703586	1
H	-0.498327	2.043424	-0.945454	1
H	0.281983	2.673104	0.519436	1
H	1.836343	1.454764	-1.313264	1
H	2.033893	0.986254	0.387336	1
H	0.469353	-0.476966	-1.779314	1
H	1.584813	-1.145046	-0.557274	1
Es	-0.602911	-2.468778	0.275359	99
Es	1.080873	0.305460	-0.608563	99
Es	0.573387	-0.448366	-1.449192	99
Es	-1.044035	-3.282876	0.047975	99
Es	-0.701886	0.729658	0.760917	99
Es	0.707871	1.415681	-0.255955	99
Es	-0.516012	-0.002578	0.415666	99
Es	-0.633860	-1.037993	0.205837	99
Es	0.808523	-0.394639	-0.740366	99
Es	-0.959385	-1.716768	0.380321	99
Es	1.807625	0.995320	0.123979	99
Es	1.329224	1.011043	-0.452397	99
Es	0.130634	-0.490275	-0.246989	99
Es	1.331121	-0.907697	-0.612633	99
Es	-0.303956	-0.665495	0.273830	99
Es	0.071718	1.764254	-0.050905	99
Es	0.212208	2.388515	0.344710	99
Es	-1.437833	0.844936	0.725436	99
Es	1.672096	1.310255	-1.033662	99
Es	-0.401611	-2.896550	-0.382889	99
Es	-0.967186	-2.349645	-0.164778	99
Es	-0.657689	-2.843303	-0.160225	99
Es	-0.329219	1.258755	0.363909	99
Es	-0.319377	1.944771	-0.662237	99
Es	-1.532218	-1.649613	0.867428	99
Es	-0.492854	0.747300	1.486977	99
Es	-0.324548	-0.537575	0.162035	99
44
Properties=species:S:1:pos:R:3:Z:I:1 energy=-304.15325208925776 field_type=dipole dipole="0.000000 0.000000 0.000000" charge=0
N	-0.657417	-2.843416	-0.160474	7
C	-0.959427	-1.716966	0.380306	6
N	-0.323897	-0.537576	0.162696	7
C	-0.701937	0.729804	0.761006	6
C	0.071723	1.764294	-0.050924	6
C	1.329263	1.011054	-0.452404	6
C	0.808663	-0.394666	-0.740494	6
H	-1.299587	-3.565956	0.180966	1
H	-1.800847	-1.640686	1.092036	1
H	-0.393947	0.749964	1.812236	1
H	-1.780657	0.908614	0.703586	1
H	-0.498327	2.043424	-0.945454	1
H	0.281983	2.673104	0.519436	1
H	1.836343	1.454764	-1.313264	1
H	2.033893	0.986254	0.387336	1
H	0.469353	-0.476966	-1.779314	1
H	1.584813	-1.145046	-0.557274	1
Es	1.329223	1.011043	-0.452399	99
Es	-1.046000	-3.282603	0.044504	99
Es	-1.531172	-1.649881	0.868611	99
Es	-0.494490	-0.008040	0.441453	99
Es	-0.404745	-2.895287	-0.385602	99
Es	0.572783	-0.449291	-1.450352	99
Es	0.168200	-0.499472	-0.207558	99
Es	-0.965801	-2.354769	-0.163974	99
Es	-0.328804	1.257682	0.363628	99
Es	-0.600501	-2.464848	0.279058	99
Es	1.670588	1.309707	-1.032184	99
Es	1.081458	0.305497	-0.609270	99
Es	-0.443746	-0.626609	0.110214	99
Es	-1.438860	0.845710	0.725122	99
Es	-0.491938	0.747794	1.486977	99
Es	-0.553163	-1.062395	0.303728	99
Es	0.071718	1.764254	-0.050905	99
Es	-0.323503	-0.537832	0.163314	99
Es	1.330354	-0.906308	-0.612649	99
Es	0.707656	1.415358	-0.256809	99
Es	0.808525	-0.394639	-0.740366	99
Es	0.212433	2.388947	0.345341	99
Es	-0.657788	-2.843259	-0.160128	99
Es	-0.319438	1.944289	-0.662207	99
Es	1.808977	0.995855	0.124799	99
Es	-0.701886	0.729662	0.760920	99
Es	-0.959383	-1.716769	0.380324	99
