41
Properties=species:S:1:pos:R:3:Z:I:1 energy=-302.9284703082205 field_type=dipole dipole="0.000000 0.000000 0.000000" charge=0
N	-1.889220	-1.599834	0.619376	7
N	-0.659010	-1.645014	0.057016	7
C	-0.032370	-0.506104	-0.007554	6
C	1.343040	-0.437694	-0.629504	6
C	1.591900	1.031366	-0.533374	6
C	0.599650	1.702176	0.061236	6
C	-0.534380	0.831466	0.494236	6
H	-2.209250	-2.556364	0.794866	1
H	-2.572140	-1.222564	-0.044374	1
H	1.315530	-0.783934	-1.664544	1
H	2.060770	-1.013394	-0.039794	1
H	2.494840	1.494246	-0.911854	1
H	0.602990	2.772366	0.222166	1
H	-0.644300	0.822266	1.581556	1
H	-1.468050	1.111016	0.000546	1
Es	-0.534328	0.831437	0.494191	99
Es	-0.032362	-0.506062	-0.007602	99
Es	0.013726	1.297980	0.290637	99
Es	0.655746	-0.484644	-0.321145	99
Es	2.209630	1.339031	-0.793107	99
Es	1.243842	1.334893	0.051971	99
Es	-0.603928	0.822006	1.215438	99
Es	1.324003	-0.664973	-1.322255	99
Es	-2.281678	-1.372809	0.202990	99
Es	-1.878279	-1.404962	0.916012	99
Es	-0.517255	-1.981929	-0.052790	99
Es	0.599538	1.702223	0.061290	99
Es	1.504251	0.294413	-0.599911	99
Es	0.956517	1.423252	-0.528547	99
Es	-0.659277	-1.644499	0.057217	99
Es	-2.080076	-2.181287	0.705894	99
Es	1.591990	1.031287	-0.533422	99
Es	-1.889163	-1.600186	0.618802	99
Es	-1.288728	-1.611155	0.325989	99
Es	-0.526191	-1.103916	-0.233174	99
Es	-1.160652	1.015637	0.159308	99
Es	0.593727	2.430401	0.175093	99
Es	1.342998	-0.437640	-0.629476	99
Es	-0.282017	-1.184269	0.290426	99
Es	-0.305163	0.155948	0.246735	99
Es	1.821429	-0.818405	-0.233070	99
41
Properties=species:S:1:pos:R:3:Z:I:1 energy=-302.9284703082205 field_type=dipole dipole="0.000000 0.000000 0.000000" charge=0
N	-1.889220	-1.599834	0.619376	7
N	-0.659010	-1.645014	0.057016	7
C	-0.032370	-0.506104	-0.007554	6
C	1.343040	-0.437694	-0.629504	6
C	1.591900	1.031366	-0.533374	6
C	0.599650	1.702176	0.061236	6
C	-0.534380	0.831466	0.494236	6
H	-2.209250	-2.556364	0.794866	1
H	-2.572140	-1.222564	-0.044374	1
H	1.315530	-0.783934	-1.664544	1
H	2.060770	-1.013394	-0.039794	1
H	2.494840	1.494246	-0.911854	1
H	0.602990	2.772366	0.222166	1
H	-0.644300	0.822266	1.581556	1
H	-1.468050	1.111016	0.000546	1
Es	-0.659272	-1.644490	0.057210	99
Es	-1.160745	1.015205	0.161223	99
Es	-0.525516	-1.104409	-0.228114	99
Es	1.820774	-0.817884	-0.235472	99
Es	1.342998	-0.437639	-0.629474	99
Es	0.594420	2.430883	0.174328	99
Es	1.325167	-0.664851	-1.319989	99
Es	0.654611	-0.486585	-0.320428	99
Es	-0.514734	-1.982736	-0.055009	99
Es	-0.534328	0.831437	0.494191	99
Es	-0.284421	-1.182631	0.286977	99
Es	-0.604305	0.821873	1.212652	99
Es	-0.306276	0.154376	0.247775	99
Es	0.599535	1.702224	0.061297	99
Es	-2.280323	-1.371723	0.206082	99
Es	-1.879557	-1.406208	0.912187	99
Es	0.958247	1.422767	-0.524810	99
Es	-1.287823	-1.609626	0.326086	99
Es	2.210922	1.340362	-0.792723	99
Es	-1.889170	-1.600174	0.618815	99
Es	-0.032359	-0.506062	-0.007598	99
Es	1.591988	1.031282	-0.533432	99
Es	1.242100	1.334653	0.048968	99
Es	1.505253	0.295065	-0.600192	99
Es	-2.082419	-2.182515	0.706768	99
Es	0.013537	1.299175	0.290177	99
41
Properties=species:S:1:pos:R:3:Z:I:1 energy=-302.9284703082205 field_type=dipole dipole="0.000000 0.000000 0.000000" charge=0
N	-1.889220	-1.599834	0.619376	7
N	-0.659010	-1.645014	0.057016	7
C	-0.032370	-0.506104	-0.007554	6
C	1.343040	-0.437694	-0.629504	6
C	1.591900	1.031366	-0.533374	6
C	0.599650	1.702176	0.061236	6
C	-0.534380	0.831466	0.494236	6
H	-2.209250	-2.556364	0.794866	1
H	-2.572140	-1.222564	-0.044374	1
H	1.315530	-0.783934	-1.664544	1
H	2.060770	-1.013394	-0.039794	1
H	2.494840	1.494246	-0.911854	1
H	0.602990	2.772366	0.222166	1
H	-0.644300	0.822266	1.581556	1
H	-1.468050	1.111016	0.000546	1
Es	1.505755	0.295484	-0.600394	99
Es	0.959243	1.422608	-0.522835	99
Es	-0.285921	-1.181998	0.284755	99
Es	-0.525151	-1.104383	-0.224157	99
Es	-2.084478	-2.183120	0.706181	99
Es	-0.604465	0.821925	1.210440	99
Es	-0.659281	-1.644495	0.057214	99
Es	-1.160862	1.015143	0.162393	99
Es	-1.286966	-1.608653	0.326616	99
Es	-2.278803	-1.370838	0.208425	99
Es	2.211818	1.340891	-0.792348	99
Es	1.326085	-0.664799	-1.318508	99
Es	0.594936	2.431183	0.174137	99
Es	-1.889162	-1.600165	0.618836	99
Es	0.013646	1.299677	0.290570	99
Es	0.653966	-0.487864	-0.320109	99
Es	1.591990	1.031284	-0.533430	99
Es	0.599537	1.702224	0.061299	99
Es	1.819975	-0.817411	-0.236937	99
Es	-0.032357	-0.506061	-0.007596	99
Es	-0.534328	0.831437	0.494192	99
Es	-0.306954	0.153182	0.248604	99
Es	-1.880647	-1.407433	0.910104	99
Es	-0.513171	-1.982977	-0.057286	99
Es	1.343000	-0.437641	-0.629475	99
Es	1.240896	1.334568	0.046806	99
41
Properties=species:S:1:pos:R:3:Z:I:1 energy=-302.9284703082205 field_type=dipole dipole="0.000000 0.000000 0.000000" charge=0
N	-1.889220	-1.599834	0.619376	7
N	-0.659010	-1.645014	0.057016	7
C	-0.032370	-0.506104	-0.007554	6
C	1.343040	-0.437694	-0.629504	6
C	1.591900	1.031366	-0.533374	6
C	0.599650	1.702176	0.061236	6
C	-0.534380	0.831466	0.494236	6
H	-2.209250	-2.556364	0.794866	1
H	-2.572140	-1.222564	-0.044374	1
H	1.315530	-0.783934	-1.664544	1
H	2.060770	-1.013394	-0.039794	1
H	2.494840	1.494246	-0.911854	1
H	0.602990	2.772366	0.222166	1
H	-0.644300	0.822266	1.581556	1
H	-1.468050	1.111016	0.000546	1
Es	-0.524653	-1.104664	-0.221059	99
Es	1.240214	1.334489	0.045487	99
Es	-2.277844	-1.370305	0.210421	99
Es	2.212293	1.341320	-0.792254	99
Es	-1.161165	1.015160	0.163490	99
Es	-0.534328	0.831436	0.494191	99
Es	1.591990	1.031282	-0.533425	99
Es	-1.889159	-1.600186	0.618806	99
Es	-0.604253	0.821829	1.208688	99
Es	-0.032356	-0.506060	-0.007595	99
Es	0.013558	1.300260	0.290678	99
Es	-0.307616	0.152448	0.249174	99
Es	1.506460	0.295788	-0.600466	99
Es	-0.511941	-1.983181	-0.058791	99
Es	-1.286769	-1.607698	0.326340	99
Es	0.599534	1.702224	0.061295	99
Es	0.653402	-0.488795	-0.319937	99
Es	0.595392	2.431263	0.173921	99
Es	-1.881130	-1.408356	0.909035	99
Es	-0.659281	-1.644509	0.057209	99
Es	-0.286970	-1.181559	0.283179	99
Es	1.819282	-0.816942	-0.238207	99
Es	-2.085807	-2.183381	0.705477	99
Es	1.326666	-0.664809	-1.317200	99
Es	1.342998	-0.437640	-0.629476	99
Es	0.959788	1.422356	-0.521485	99
41
Properties=species:S:1:pos:R:3:Z:I:1 energy=-302.9284703082205 field_type=dipole dipole="0.000000 0.000000 0.000000" charge=0
N	-1.889220	-1.599834	0.619376	7
N	-0.659010	-1.645014	0.057016	7
C	-0.032370	-0.506104	-0.007554	6
C	1.343040	-0.437694	-0.629504	6
C	1.591900	1.031366	-0.533374	6
C	0.599650	1.702176	0.061236	6
C	-0.534380	0.831466	0.494236	6
H	-2.209250	-2.556364	0.794866	1
H	-2.572140	-1.222564	-0.044374	1
H	1.315530	-0.783934	-1.664544	1
H	2.060770	-1.013394	-0.039794	1
H	2.494840	1.494246	-0.911854	1
H	0.602990	2.772366	0.222166	1
H	-0.644300	0.822266	1.581556	1
H	-1.468050	1.111016	0.000546	1
Es	1.591990	1.031280	-0.533431	99
Es	-0.603547	0.821652	1.206979	99
Es	0.595761	2.431332	0.173836	99
Es	-1.881280	-1.408904	0.908240	99
Es	1.239673	1.334497	0.044443	99
Es	2.212595	1.341613	-0.792151	99
Es	1.818826	-0.816665	-0.239085	99
Es	-0.534328	0.831437	0.494191	99
Es	-0.659284	-1.644498	0.057213	99
Es	1.342998	-0.437640	-0.629476	99
Es	-1.161835	1.015456	0.164719	99
Es	-1.286756	-1.607345	0.326156	99
Es	-2.276878	-1.369973	0.212086	99
Es	-0.510771	-1.983233	-0.060088	99
Es	1.506879	0.295794	-0.600559	99
Es	0.599535	1.702223	0.061297	99
Es	-0.032356	-0.506060	-0.007595	99
Es	-0.308124	0.151828	0.249684	99
Es	-2.087033	-2.183567	0.704964	99
Es	1.327098	-0.664625	-1.316341	99
Es	-0.524491	-1.104877	-0.218480	99
Es	0.653062	-0.489538	-0.319864	99
Es	-0.288024	-1.180965	0.281426	99
Es	0.013535	1.300478	0.290932	99
Es	0.960217	1.422195	-0.520486	99
Es	-1.889158	-1.600126	0.618886	99
41
Properties=species:S:1:pos:R:3:Z:I:1 energy=-302.9284703082205 field_type=dipole dipole="0.000000 0.000000 0.000000" charge=0
N	-1.889220	-1.599834	0.619376	7
N	-0.659010	-1.645014	0.057016	7
C	-0.032370	-0.506104	-0.007554	6
C	1.343040	-0.437694	-0.629504	6
C	1.591900	1.031366	-0.533374	6
C	0.599650	1.702176	0.061236	6
C	-0.534380	0.831466	0.494236	6
H	-2.209250	-2.556364	0.794866	1
H	-2.572140	-1.222564	-0.044374	1
H	1.315530	-0.783934	-1.664544	1
H	2.060770	-1.013394	-0.039794	1
H	2.494840	1.494246	-0.911854	1
H	0.602990	2.772366	0.222166	1
H	-0.644300	0.822266	1.581556	1
H	-1.468050	1.111016	0.000546	1
Es	-0.288786	-1.180613	0.280117	99
Es	1.591993	1.031283	-0.533424	99
Es	-1.889156	-1.600188	0.618794	99
Es	1.818239	-0.816163	-0.239711	99
Es	0.595869	2.431433	0.173589	99
Es	-0.509935	-1.983477	-0.061136	99
Es	-0.524222	-1.105237	-0.216301	99
Es	-0.534328	0.831437	0.494191	99
Es	-0.603043	0.821496	1.205501	99
Es	-1.286437	-1.606390	0.326508	99
Es	-2.088141	-2.183746	0.704758	99
Es	-1.882498	-1.408086	0.907565	99
Es	0.652757	-0.490087	-0.319807	99
Es	-0.308442	0.151422	0.250023	99
Es	0.599535	1.702223	0.061297	99
Es	1.507313	0.295879	-0.600487	99
Es	-0.032356	-0.506060	-0.007595	99
Es	-0.659284	-1.644513	0.057214	99
Es	1.342999	-0.437640	-0.629476	99
Es	1.327581	-0.664743	-1.315735	99
Es	0.013461	1.300823	0.291006	99
Es	-1.162393	1.015548	0.165701	99
Es	0.960451	1.421995	-0.519717	99
Es	-2.275155	-1.371050	0.212893	99
Es	2.212839	1.341739	-0.792147	99
Es	1.239444	1.334487	0.043878	99
41
Properties=species:S:1:pos:R:3:Z:I:1 energy=-302.9284703082205 field_type=dipole dipole="0.000000 0.000000 0.000000" charge=0
N	-1.889220	-1.599834	0.619376	7
N	-0.659010	-1.645014	0.057016	7
C	-0.032370	-0.506104	-0.007554	6
C	1.343040	-0.437694	-0.629504	6
C	1.591900	1.031366	-0.533374	6
C	0.599650	1.702176	0.061236	6
C	-0.534380	0.831466	0.494236	6
H	-2.209250	-2.556364	0.794866	1
H	-2.572140	-1.222564	-0.044374	1
H	1.315530	-0.783934	-1.664544	1
H	2.060770	-1.013394	-0.039794	1
H	2.494840	1.494246	-0.911854	1
H	0.602990	2.772366	0.222166	1
H	-0.644300	0.822266	1.581556	1
H	-1.468050	1.111016	0.000546	1
Es	0.596007	2.431371	0.173473	99
Es	1.507511	0.295978	-0.600672	99
Es	1.817932	-0.815818	-0.240310	99
Es	-0.534327	0.831437	0.494192	99
Es	-2.274552	-1.369957	0.214807	99
Es	-0.289565	-1.180089	0.279081	99
Es	0.013459	1.301050	0.291456	99
Es	-1.889152	-1.600211	0.618765	99
Es	0.599534	1.702224	0.061295	99
Es	-1.286532	-1.606135	0.326061	99
Es	-0.308796	0.151124	0.250113	99
Es	2.213024	1.341908	-0.792199	99
Es	0.960729	1.421918	-0.519189	99
Es	1.591992	1.031282	-0.533429	99
Es	-0.524048	-1.105583	-0.214414	99
Es	-1.162725	1.015728	0.166505	99
Es	-1.881941	-1.409152	0.906533	99
Es	1.342999	-0.437640	-0.629476	99
Es	-0.032356	-0.506060	-0.007595	99
Es	-0.602695	0.821217	1.204399	99
Es	-0.659283	-1.644488	0.057213	99
Es	-2.089454	-2.183877	0.704315	99
Es	1.327852	-0.664735	-1.315123	99
Es	0.652593	-0.490605	-0.319686	99
Es	-0.509069	-1.983593	-0.062028	99
Es	1.239166	1.334475	0.043406	99
41
Properties=species:S:1:pos:R:3:Z:I:1 energy=-302.9284703082205 field_type=dipole dipole="0.000000 0.000000 0.000000" charge=0
N	-1.889220	-1.599834	0.619376	7
N	-0.659010	-1.645014	0.057016	7
C	-0.032370	-0.506104	-0.007554	6
C	1.343040	-0.437694	-0.629504	6
C	1.591900	1.031366	-0.533374	6
C	0.599650	1.702176	0.061236	6
C	-0.534380	0.831466	0.494236	6
H	-2.209250	-2.556364	0.794866	1
H	-2.572140	-1.222564	-0.044374	1
H	1.315530	-0.783934	-1.664544	1
H	2.060770	-1.013394	-0.039794	1
H	2.494840	1.494246	-0.911854	1
H	0.602990	2.772366	0.222166	1
H	-0.644300	0.822266	1.581556	1
H	-1.468050	1.111016	0.000546	1
Es	-0.534328	0.831437	0.494190	99
Es	-2.273847	-1.369701	0.215913	99
Es	1.238959	1.334490	0.042970	99
Es	0.013403	1.301221	0.291406	99
Es	0.599535	1.702224	0.061299	99
Es	0.596223	2.431350	0.173493	99
Es	-0.508488	-1.983661	-0.062590	99
Es	-1.286527	-1.605833	0.325974	99
Es	-2.090301	-2.183809	0.703356	99
Es	-1.163448	1.015871	0.167621	99
Es	-1.889159	-1.600199	0.618791	99
Es	2.213202	1.341929	-0.792259	99
Es	1.328172	-0.664808	-1.314635	99
Es	1.342999	-0.437640	-0.629476	99
Es	-0.659284	-1.644484	0.057214	99
Es	-0.032357	-0.506058	-0.007597	99
Es	1.817564	-0.815438	-0.240728	99
Es	-0.290097	-1.179670	0.278125	99
Es	-0.523874	-1.105999	-0.213056	99
Es	0.960897	1.421834	-0.518786	99
Es	0.652405	-0.490964	-0.319698	99
Es	-0.601915	0.821097	1.203064	99
Es	1.591993	1.031282	-0.533430	99
Es	-1.881942	-1.409586	0.906617	99
Es	1.507670	0.296074	-0.600757	99
Es	-0.309151	0.150811	0.250475	99
41
Properties=species:S:1:pos:R:3:Z:I:1 energy=-302.9284703082205 field_type=dipole dipole="0.000000 0.000000 0.000000" charge=0
N	-1.889220	-1.599834	0.619376	7
N	-0.659010	-1.645014	0.057016	7
C	-0.032370	-0.506104	-0.007554	6
C	1.343040	-0.437694	-0.629504	6
C	1.591900	1.031366	-0.533374	6
C	0.599650	1.702176	0.061236	6
C	-0.534380	0.831466	0.494236	6
H	-2.209250	-2.556364	0.794866	1
H	-2.572140	-1.222564	-0.044374	1
H	1.315530	-0.783934	-1.664544	1
H	2.060770	-1.013394	-0.039794	1
H	2.494840	1.494246	-0.911854	1
H	0.602990	2.772366	0.222166	1
H	-0.644300	0.822266	1.581556	1
H	-1.468050	1.111016	0.000546	1
Es	-0.601267	0.820938	1.201951	99
Es	-1.889158	-1.600209	0.618771	99
Es	-2.273141	-1.369584	0.216826	99
Es	-1.286378	-1.605505	0.326168	99
Es	-2.091108	-2.183745	0.702825	99
Es	-0.534328	0.831437	0.494191	99
Es	-0.309458	0.150615	0.250582	99
Es	0.652266	-0.491354	-0.319693	99
Es	1.238867	1.334528	0.042713	99
Es	0.596363	2.431304	0.173436	99
Es	1.328575	-0.664958	-1.314360	99
Es	0.013355	1.301412	0.291409	99
Es	-1.882150	-1.409938	0.906177	99
Es	1.817077	-0.814999	-0.241072	99
Es	-0.523744	-1.106130	-0.211799	99
Es	1.342998	-0.437640	-0.629478	99
Es	-1.163999	1.016038	0.168646	99
Es	-0.507642	-1.983766	-0.062978	99
Es	1.507851	0.296094	-0.600798	99
Es	0.599532	1.702225	0.061294	99
Es	-0.032357	-0.506060	-0.007597	99
Es	-0.290875	-1.179438	0.277180	99
Es	2.213276	1.342029	-0.792327	99
Es	0.961045	1.421681	-0.518358	99
Es	1.591991	1.031280	-0.533427	99
Es	-0.659288	-1.644486	0.057217	99
41
Properties=species:S:1:pos:R:3:Z:I:1 energy=-302.9284703082205 field_type=dipole dipole="0.000000 0.000000 0.000000" charge=0
N	-1.889220	-1.599834	0.619376	7
N	-0.659010	-1.645014	0.057016	7
C	-0.032370	-0.506104	-0.007554	6
C	1.343040	-0.437694	-0.629504	6
C	1.591900	1.031366	-0.533374	6
C	0.599650	1.702176	0.061236	6
C	-0.534380	0.831466	0.494236	6
H	-2.209250	-2.556364	0.794866	1
H	-2.572140	-1.222564	-0.044374	1
H	1.315530	-0.783934	-1.664544	1
H	2.060770	-1.013394	-0.039794	1
H	2.494840	1.494246	-0.911854	1
H	0.602990	2.772366	0.222166	1
H	-0.644300	0.822266	1.581556	1
H	-1.468050	1.111016	0.000546	1
Es	-0.507078	-1.983928	-0.063390	99
Es	0.596435	2.431209	0.173355	99
Es	-0.659294	-1.644481	0.057221	99
Es	-0.032356	-0.506058	-0.007596	99
Es	1.816485	-0.814665	-0.241445	99
Es	0.013335	1.301517	0.291786	99
Es	-1.286252	-1.605092	0.326223	99
Es	-0.309633	0.150365	0.250762	99
Es	-0.534329	0.831437	0.494191	99
Es	0.599535	1.702224	0.061298	99
Es	-1.164731	1.016267	0.169741	99
Es	-2.091674	-2.183738	0.703023	99
Es	1.343001	-0.437642	-0.629474	99
Es	-0.600542	0.820718	1.200589	99
Es	-0.291468	-1.179323	0.276317	99
Es	2.213476	1.341966	-0.792261	99
Es	0.961102	1.421762	-0.518350	99
Es	-1.882744	-1.409285	0.905662	99
Es	1.238693	1.334551	0.042410	99
Es	1.508257	0.296139	-0.600636	99
Es	-0.523596	-1.106148	-0.210645	99
Es	1.328864	-0.665124	-1.314155	99
Es	-2.272162	-1.370402	0.217276	99
Es	0.652163	-0.491561	-0.319649	99
Es	1.591990	1.031282	-0.533433	99
Es	-1.889175	-1.600222	0.618675	99
41
Properties=species:S:1:pos:R:3:Z:I:1 energy=-302.9284703082205 field_type=dipole dipole="0.000000 0.000000 0.000000" charge=0
N	-1.889220	-1.599834	0.619376	7
N	-0.659010	-1.645014	0.057016	7
C	-0.032370	-0.506104	-0.007554	6
C	1.343040	-0.437694	-0.629504	6
C	1.591900	1.031366	-0.533374	6
C	0.599650	1.702176	0.061236	6
C	-0.534380	0.831466	0.494236	6
H	-2.209250	-2.556364	0.794866	1
H	-2.572140	-1.222564	-0.044374	1
H	1.315530	-0.783934	-1.664544	1
H	2.060770	-1.013394	-0.039794	1
H	2.494840	1.494246	-0.911854	1
H	0.602990	2.772366	0.222166	1
H	-0.644300	0.822266	1.581556	1
H	-1.468050	1.111016	0.000546	1
Es	-0.291618	-1.178945	0.275800	99
Es	-1.880600	-1.412756	0.904681	99
Es	2.213485	1.342103	-0.792419	99
Es	-0.534328	0.831437	0.494191	99
Es	-0.309825	0.150248	0.250890	99
Es	1.238561	1.334486	0.042255	99
Es	-1.165140	1.016381	0.170599	99
Es	-0.523629	-1.106491	-0.209433	99
Es	0.961241	1.421579	-0.518018	99
Es	1.329370	-0.665655	-1.314224	99
Es	-0.032354	-0.506060	-0.007591	99
Es	-0.600053	0.820525	1.199756	99
Es	1.591993	1.031282	-0.533429	99
Es	-2.092436	-2.183636	0.702145	99
Es	-2.273431	-1.367068	0.219606	99
Es	0.596595	2.431221	0.173464	99
Es	0.599534	1.702225	0.061297	99
Es	-1.286456	-1.605204	0.325803	99
Es	-0.506779	-1.983705	-0.064283	99
Es	-0.659279	-1.644502	0.057218	99
Es	0.652164	-0.491870	-0.319566	99
Es	-1.889156	-1.600185	0.618785	99
Es	1.508404	0.296221	-0.600672	99
Es	1.815745	-0.813914	-0.241671	99
Es	0.013298	1.301693	0.291789	99
Es	1.342998	-0.437640	-0.629476	99
41
Properties=species:S:1:pos:R:3:Z:I:1 energy=-302.9284703082205 field_type=dipole dipole="0.000000 0.000000 0.000000" charge=0
N	-1.889220	-1.599834	0.619376	7
N	-0.659010	-1.645014	0.057016	7
C	-0.032370	-0.506104	-0.007554	6
C	1.343040	-0.437694	-0.629504	6
C	1.591900	1.031366	-0.533374	6
C	0.599650	1.702176	0.061236	6
C	-0.534380	0.831466	0.494236	6
H	-2.209250	-2.556364	0.794866	1
H	-2.572140	-1.222564	-0.044374	1
H	1.315530	-0.783934	-1.664544	1
H	2.060770	-1.013394	-0.039794	1
H	2.494840	1.494246	-0.911854	1
H	0.602990	2.772366	0.222166	1
H	-0.644300	0.822266	1.581556	1
H	-1.468050	1.111016	0.000546	1
Es	1.238582	1.334522	0.042211	99
Es	-2.092911	-2.183610	0.702748	99
Es	0.596590	2.431154	0.173280	99
Es	0.961173	1.421520	-0.517980	99
Es	2.213582	1.342047	-0.792452	99
Es	-1.286498	-1.605033	0.325705	99
Es	-0.292154	-1.178904	0.275231	99
Es	-0.659292	-1.644489	0.057216	99
Es	-0.310107	0.150093	0.250931	99
Es	-1.889161	-1.600227	0.618690	99
Es	1.342998	-0.437641	-0.629478	99
Es	-1.883046	-1.408399	0.905495	99
Es	1.329336	-0.665366	-1.313635	99
Es	-0.599010	0.820332	1.197965	99
Es	-0.523313	-1.106584	-0.209041	99
Es	0.651967	-0.491901	-0.319702	99
Es	0.013264	1.301789	0.291853	99
Es	-2.270531	-1.371307	0.218477	99
Es	-0.032356	-0.506059	-0.007595	99
Es	1.591990	1.031282	-0.533433	99
Es	0.599535	1.702224	0.061298	99
Es	-0.534328	0.831437	0.494191	99
Es	-1.166201	1.016651	0.172120	99
Es	-0.506312	-1.983900	-0.063981	99
Es	1.815969	-0.814091	-0.241804	99
Es	1.508538	0.296229	-0.600816	99
41
Properties=species:S:1:pos:R:3:Z:I:1 energy=-302.9284703082205 field_type=dipole dipole="0.000000 0.000000 0.000000" charge=0
N	-1.889220	-1.599834	0.619376	7
N	-0.659010	-1.645014	0.057016	7
C	-0.032370	-0.506104	-0.007554	6
C	1.343040	-0.437694	-0.629504	6
C	1.591900	1.031366	-0.533374	6
C	0.599650	1.702176	0.061236	6
C	-0.534380	0.831466	0.494236	6
H	-2.209250	-2.556364	0.794866	1
H	-2.572140	-1.222564	-0.044374	1
H	1.315530	-0.783934	-1.664544	1
H	2.060770	-1.013394	-0.039794	1
H	2.494840	1.494246	-0.911854	1
H	0.602990	2.772366	0.222166	1
H	-0.644300	0.822266	1.581556	1
H	-1.468050	1.111016	0.000546	1
Es	1.815418	-0.813666	-0.242032	99
Es	-0.310188	0.150091	0.250890	99
Es	0.961278	1.421386	-0.517753	99
Es	1.238394	1.334606	0.041898	99
Es	2.213589	1.342156	-0.792572	99
Es	-1.889162	-1.600220	0.618754	99
Es	1.508718	0.296242	-0.600770	99
Es	-0.032355	-0.506059	-0.007595	99
Es	1.591991	1.031282	-0.533431	99
Es	-0.659285	-1.644491	0.057212	99
Es	-0.598442	0.820080	1.197085	99
Es	-0.505954	-1.983801	-0.064538	99
Es	1.343003	-0.437643	-0.629476	99
Es	-2.093511	-2.183487	0.701849	99
Es	-0.292419	-1.178794	0.274835	99
Es	-1.881828	-1.410744	0.904926	99
Es	-0.523260	-1.106675	-0.208055	99
Es	0.651982	-0.492023	-0.319629	99
Es	0.599537	1.702223	0.061304	99
Es	0.013295	1.301751	0.292100	99
Es	1.329584	-0.665680	-1.313777	99
Es	0.596727	2.431152	0.173402	99
Es	-0.534329	0.831438	0.494190	99
Es	-1.166757	1.016809	0.173042	99
Es	-2.271223	-1.369188	0.219987	99
Es	-1.286496	-1.604978	0.325648	99
41
Properties=species:S:1:pos:R:3:Z:I:1 energy=-302.9284703082205 field_type=dipole dipole="0.000000 0.000000 0.000000" charge=0
N	-1.889220	-1.599834	0.619376	7
N	-0.659010	-1.645014	0.057016	7
C	-0.032370	-0.506104	-0.007554	6
C	1.343040	-0.437694	-0.629504	6
C	1.591900	1.031366	-0.533374	6
C	0.599650	1.702176	0.061236	6
C	-0.534380	0.831466	0.494236	6
H	-2.209250	-2.556364	0.794866	1
H	-2.572140	-1.222564	-0.044374	1
H	1.315530	-0.783934	-1.664544	1
H	2.060770	-1.013394	-0.039794	1
H	2.494840	1.494246	-0.911854	1
H	0.602990	2.772366	0.222166	1
H	-0.644300	0.822266	1.581556	1
H	-1.468050	1.111016	0.000546	1
Es	1.329423	-0.665364	-1.313317	99
Es	-1.286223	-1.604845	0.326173	99
Es	0.651905	-0.492208	-0.319761	99
Es	-1.889152	-1.600167	0.618815	99
Es	-2.093426	-2.183485	0.702659	99
Es	-2.268009	-1.374631	0.217757	99
Es	-0.523051	-1.106558	-0.208020	99
Es	-0.534328	0.831437	0.494191	99
Es	-1.167821	1.017170	0.174793	99
Es	1.815736	-0.813851	-0.242229	99
Es	0.596638	2.431068	0.173155	99
Es	-0.659283	-1.644480	0.057217	99
Es	-0.597381	0.819846	1.195194	99
Es	0.013285	1.301809	0.292007	99
Es	1.238549	1.334608	0.041967	99
Es	-0.505499	-1.983911	-0.063927	99
Es	0.961173	1.421306	-0.517755	99
Es	1.342998	-0.437640	-0.629476	99
Es	-0.032356	-0.506059	-0.007596	99
Es	1.508769	0.296303	-0.600802	99
Es	-0.310453	0.150002	0.250894	99
Es	0.599535	1.702224	0.061300	99
Es	-0.292918	-1.178836	0.274379	99
Es	2.213655	1.342147	-0.792552	99
Es	1.591993	1.031282	-0.533429	99
Es	-1.885456	-1.405395	0.905859	99
41
Properties=species:S:1:pos:R:3:Z:I:1 energy=-302.9284703082205 field_type=dipole dipole="0.000000 0.000000 0.000000" charge=0
N	-1.889220	-1.599834	0.619376	7
N	-0.659010	-1.645014	0.057016	7
C	-0.032370	-0.506104	-0.007554	6
C	1.343040	-0.437694	-0.629504	6
C	1.591900	1.031366	-0.533374	6
C	0.599650	1.702176	0.061236	6
C	-0.534380	0.831466	0.494236	6
H	-2.209250	-2.556364	0.794866	1
H	-2.572140	-1.222564	-0.044374	1
H	1.315530	-0.783934	-1.664544	1
H	2.060770	-1.013394	-0.039794	1
H	2.494840	1.494246	-0.911854	1
H	0.602990	2.772366	0.222166	1
H	-0.644300	0.822266	1.581556	1
H	-1.468050	1.111016	0.000546	1
Es	0.596783	2.431021	0.173256	99
Es	-0.534328	0.831437	0.494191	99
Es	0.013202	1.302020	0.292270	99
Es	1.814530	-0.812686	-0.242112	99
Es	-0.597199	0.819669	1.194634	99
Es	1.238437	1.334639	0.041918	99
Es	-0.523072	-1.106888	-0.207347	99
Es	1.591993	1.031281	-0.533428	99
Es	1.508916	0.296257	-0.600709	99
Es	-0.659290	-1.644493	0.057215	99
Es	0.961295	1.421348	-0.517684	99
Es	1.330359	-0.666429	-1.313807	99
Es	2.213685	1.342063	-0.792716	99
Es	-1.889171	-1.600233	0.618636	99
Es	0.599537	1.702224	0.061303	99
Es	-1.167903	1.017161	0.175415	99
Es	-1.882492	-1.410006	0.904657	99
Es	1.342998	-0.437640	-0.629476	99
Es	-0.032356	-0.506059	-0.007596	99
Es	-0.310451	0.149947	0.250888	99
Es	-2.094191	-2.183359	0.701798	99
Es	-0.505131	-1.983894	-0.064316	99
Es	-0.293250	-1.178480	0.273803	99
Es	-1.286378	-1.604774	0.325894	99
Es	-2.270082	-1.370093	0.220372	99
Es	0.651864	-0.492262	-0.319564	99
