41
Properties=species:S:1:pos:R:3:Z:I:1 energy=-306.82127625049895 field_type=dipole dipole="0.000000 0.000000 0.000000" charge=0
C	-2.092426	-0.045789	0.112666	6
C	-0.606256	-0.071019	0.033176	6
C	0.171484	-1.159679	-0.024314	6
C	1.629823	-0.847289	-0.099094	6
C	1.575214	0.662971	-0.080894	6
O	2.574904	1.374731	-0.133044	8
C	0.169194	1.210371	0.009366	6
H	-2.513786	-1.056309	0.108406	1
H	-2.510276	0.496731	-0.741144	1
H	-2.416246	0.450851	1.032636	1
H	-0.199576	-2.177009	-0.018744	1
H	2.165814	-1.221289	0.775486	1
H	2.069224	-1.203119	-1.033064	1
H	-0.060836	1.807891	-0.875544	1
H	0.043744	1.777961	0.934106	1
Es	-2.374019	-0.732397	0.109787	99
Es	2.231505	1.117120	0.136490	99
Es	-1.351104	-0.061301	0.072977	99
Es	-2.299174	0.293591	0.733504	99
Es	0.089535	1.583770	0.625301	99
Es	-0.076878	-1.854520	-0.020935	99
Es	0.019600	1.603921	-0.580729	99
Es	2.843245	1.209884	-0.149394	99
Es	0.171579	-1.159765	-0.024313	99
Es	-0.249930	0.592251	0.023644	99
Es	1.629770	-0.847251	-0.099090	99
Es	2.504966	1.682927	-0.125998	99
Es	1.922783	-1.076115	-0.721562	99
Es	1.575200	0.662965	-0.080893	99
Es	2.202282	1.121076	-0.366518	99
Es	2.574595	1.374575	-0.133027	99
Es	-0.606337	-0.070887	0.033196	99
Es	-2.092386	-0.045783	0.112664	99
Es	0.865717	0.948305	-0.035079	99
Es	1.987040	-1.088072	0.484039	99
Es	-0.233358	-0.625353	-0.325234	99
Es	-2.362914	0.324598	-0.464741	99
Es	1.608808	-0.101069	-0.090413	99
Es	0.169216	1.210314	0.009364	99
Es	0.910370	-1.044648	-0.062637	99
Es	-0.198140	-0.634837	0.333390	99
41
Properties=species:S:1:pos:R:3:Z:I:1 energy=-306.82127625049895 field_type=dipole dipole="0.000000 0.000000 0.000000" charge=0
C	-2.092426	-0.045789	0.112666	6
C	-0.606256	-0.071019	0.033176	6
C	0.171484	-1.159679	-0.024314	6
C	1.629823	-0.847289	-0.099094	6
C	1.575214	0.662971	-0.080894	6
O	2.574904	1.374731	-0.133044	8
C	0.169194	1.210371	0.009366	6
H	-2.513786	-1.056309	0.108406	1
H	-2.510276	0.496731	-0.741144	1
H	-2.416246	0.450851	1.032636	1
H	-0.199576	-2.177009	-0.018744	1
H	2.165814	-1.221289	0.775486	1
H	2.069224	-1.203119	-1.033064	1
H	-0.060836	1.807891	-0.875544	1
H	0.043744	1.777961	0.934106	1
Es	-2.092388	-0.045781	0.112667	99
Es	2.846274	1.203751	-0.150380	99
Es	1.986793	-1.088525	0.482342	99
Es	2.502040	1.687120	-0.125401	99
Es	0.019097	1.603812	-0.578969	99
Es	-1.350303	-0.060988	0.073039	99
Es	0.169216	1.210314	0.009364	99
Es	-0.077443	-1.855010	-0.020703	99
Es	0.867623	0.948977	-0.035209	99
Es	0.910649	-1.045339	-0.062558	99
Es	1.575198	0.662963	-0.080894	99
Es	-0.606342	-0.070884	0.033184	99
Es	0.171581	-1.159765	-0.024321	99
Es	2.202367	1.122371	-0.358384	99
Es	-2.362579	0.324431	-0.463208	99
Es	1.629768	-0.847251	-0.099090	99
Es	1.609799	-0.099453	-0.090510	99
Es	-0.198162	-0.634700	0.331340	99
Es	2.231059	1.117589	0.128782	99
Es	1.922517	-1.076590	-0.719893	99
Es	0.088938	1.583687	0.623576	99
Es	-0.233091	-0.625349	-0.323481	99
Es	-2.375425	-0.733072	0.109879	99
Es	-2.299303	0.293882	0.731868	99
Es	-0.250582	0.592551	0.023798	99
Es	2.574670	1.374559	-0.133047	99
41
Properties=species:S:1:pos:R:3:Z:I:1 energy=-306.82127625049895 field_type=dipole dipole="0.000000 0.000000 0.000000" charge=0
C	-2.092426	-0.045789	0.112666	6
C	-0.606256	-0.071019	0.033176	6
C	0.171484	-1.159679	-0.024314	6
C	1.629823	-0.847289	-0.099094	6
C	1.575214	0.662971	-0.080894	6
O	2.574904	1.374731	-0.133044	8
C	0.169194	1.210371	0.009366	6
H	-2.513786	-1.056309	0.108406	1
H	-2.510276	0.496731	-0.741144	1
H	-2.416246	0.450851	1.032636	1
H	-0.199576	-2.177009	-0.018744	1
H	2.165814	-1.221289	0.775486	1
H	2.069224	-1.203119	-1.033064	1
H	-0.060836	1.807891	-0.875544	1
H	0.043744	1.777961	0.934106	1
Es	-2.376058	-0.733425	0.109872	99
Es	-0.198041	-0.634594	0.330400	99
Es	0.910690	-1.045783	-0.062534	99
Es	1.610635	-0.098566	-0.090367	99
Es	0.868678	0.949374	-0.035337	99
Es	1.922504	-1.076936	-0.718875	99
Es	0.169215	1.210315	0.009363	99
Es	0.088471	1.583725	0.622571	99
Es	-2.299093	0.293441	0.730934	99
Es	1.575199	0.662963	-0.080894	99
Es	2.846830	1.197393	-0.150209	99
Es	2.574678	1.374578	-0.133030	99
Es	-2.092386	-0.045782	0.112665	99
Es	0.171583	-1.159768	-0.024327	99
Es	2.500875	1.691087	-0.125994	99
Es	-0.233004	-0.625344	-0.322350	99
Es	2.230819	1.119251	0.122429	99
Es	1.986427	-1.088651	0.481137	99
Es	1.629768	-0.847252	-0.099091	99
Es	0.018907	1.603557	-0.577872	99
Es	2.202968	1.122943	-0.351621	99
Es	-0.250893	0.592735	0.023635	99
Es	-2.362819	0.324762	-0.462240	99
Es	-1.349954	-0.060547	0.073054	99
Es	-0.606341	-0.070885	0.033181	99
Es	-0.077689	-1.855292	-0.020706	99
41
Properties=species:S:1:pos:R:3:Z:I:1 energy=-306.82127625049895 field_type=dipole dipole="0.000000 0.000000 0.000000" charge=0
C	-2.092426	-0.045789	0.112666	6
C	-0.606256	-0.071019	0.033176	6
C	0.171484	-1.159679	-0.024314	6
C	1.629823	-0.847289	-0.099094	6
C	1.575214	0.662971	-0.080894	6
O	2.574904	1.374731	-0.133044	8
C	0.169194	1.210371	0.009366	6
H	-2.513786	-1.056309	0.108406	1
H	-2.510276	0.496731	-0.741144	1
H	-2.416246	0.450851	1.032636	1
H	-0.199576	-2.177009	-0.018744	1
H	2.165814	-1.221289	0.775486	1
H	2.069224	-1.203119	-1.033064	1
H	-0.060836	1.807891	-0.875544	1
H	0.043744	1.777961	0.934106	1
Es	-0.232910	-0.625328	-0.321585	99
Es	1.629769	-0.847251	-0.099090	99
Es	2.574704	1.374589	-0.133033	99
Es	-2.376626	-0.733635	0.109975	99
Es	-1.349619	-0.060293	0.073187	99
Es	-0.077885	-1.855562	-0.020698	99
Es	0.910970	-1.046005	-0.062557	99
Es	1.985936	-1.088748	0.480393	99
Es	-0.198011	-0.634558	0.329529	99
Es	2.849194	1.195972	-0.151734	99
Es	0.869579	0.949654	-0.035350	99
Es	-2.299143	0.293488	0.730128	99
Es	1.611176	-0.097790	-0.090490	99
Es	1.575197	0.662962	-0.080897	99
Es	-2.362694	0.324652	-0.461619	99
Es	2.204234	1.123335	-0.346063	99
Es	-2.092386	-0.045783	0.112664	99
Es	1.922531	-1.077371	-0.717942	99
Es	2.232190	1.118305	0.117447	99
Es	0.088155	1.583455	0.621741	99
Es	0.018720	1.603595	-0.576965	99
Es	0.171583	-1.159767	-0.024309	99
Es	0.169215	1.210314	0.009363	99
Es	-0.251197	0.593059	0.023498	99
Es	2.495628	1.692895	-0.124988	99
Es	-0.606340	-0.070885	0.033190	99
41
Properties=species:S:1:pos:R:3:Z:I:1 energy=-306.82127625049895 field_type=dipole dipole="0.000000 0.000000 0.000000" charge=0
C	-2.092426	-0.045789	0.112666	6
C	-0.606256	-0.071019	0.033176	6
C	0.171484	-1.159679	-0.024314	6
C	1.629823	-0.847289	-0.099094	6
C	1.575214	0.662971	-0.080894	6
O	2.574904	1.374731	-0.133044	8
C	0.169194	1.210371	0.009366	6
H	-2.513786	-1.056309	0.108406	1
H	-2.510276	0.496731	-0.741144	1
H	-2.416246	0.450851	1.032636	1
H	-0.199576	-2.177009	-0.018744	1
H	2.165814	-1.221289	0.775486	1
H	2.069224	-1.203119	-1.033064	1
H	-0.060836	1.807891	-0.875544	1
H	0.043744	1.777961	0.934106	1
Es	0.911112	-1.046286	-0.062585	99
Es	1.575197	0.662963	-0.080886	99
Es	2.494058	1.695044	-0.124907	99
Es	0.169215	1.210315	0.009363	99
Es	-2.362606	0.324673	-0.461007	99
Es	-1.349357	-0.060085	0.073218	99
Es	-0.078053	-1.855647	-0.020734	99
Es	-0.606342	-0.070884	0.033185	99
Es	-0.197998	-0.634517	0.329042	99
Es	-2.092386	-0.045783	0.112664	99
Es	2.849462	1.192034	-0.150271	99
Es	-0.251327	0.593338	0.023563	99
Es	2.574623	1.374499	-0.133030	99
Es	1.985774	-1.088914	0.479767	99
Es	0.171585	-1.159768	-0.024319	99
Es	2.207205	1.124964	-0.342395	99
Es	-2.299115	0.293416	0.729581	99
Es	1.629770	-0.847251	-0.099090	99
Es	2.230382	1.118428	0.112016	99
Es	0.018549	1.603439	-0.576329	99
Es	0.087872	1.583380	0.621077	99
Es	-2.377109	-0.733781	0.109923	99
Es	1.922403	-1.077475	-0.717410	99
Es	1.611644	-0.097353	-0.090324	99
Es	-0.232828	-0.625313	-0.321084	99
Es	0.870243	0.949864	-0.035235	99
41
Properties=species:S:1:pos:R:3:Z:I:1 energy=-306.82127625049895 field_type=dipole dipole="0.000000 0.000000 0.000000" charge=0
C	-2.092426	-0.045789	0.112666	6
C	-0.606256	-0.071019	0.033176	6
C	0.171484	-1.159679	-0.024314	6
C	1.629823	-0.847289	-0.099094	6
C	1.575214	0.662971	-0.080894	6
O	2.574904	1.374731	-0.133044	8
C	0.169194	1.210371	0.009366	6
H	-2.513786	-1.056309	0.108406	1
H	-2.510276	0.496731	-0.741144	1
H	-2.416246	0.450851	1.032636	1
H	-0.199576	-2.177009	-0.018744	1
H	2.165814	-1.221289	0.775486	1
H	2.069224	-1.203119	-1.033064	1
H	-0.060836	1.807891	-0.875544	1
H	0.043744	1.777961	0.934106	1
Es	0.087874	1.583256	0.620620	99
Es	-2.298893	0.293158	0.729212	99
Es	1.985802	-1.089055	0.479150	99
Es	-2.377436	-0.733904	0.109876	99
Es	-2.092390	-0.045786	0.112664	99
Es	0.018415	1.603418	-0.575674	99
Es	2.849644	1.188701	-0.151219	99
Es	0.911222	-1.046646	-0.062693	99
Es	-0.606342	-0.070884	0.033184	99
Es	0.171583	-1.159767	-0.024320	99
Es	2.492084	1.696591	-0.125118	99
Es	-1.349265	-0.059816	0.073072	99
Es	-2.362750	0.324858	-0.460439	99
Es	2.232427	1.120054	0.108610	99
Es	-0.251531	0.593509	0.023577	99
Es	-0.078168	-1.855760	-0.020722	99
Es	-0.232829	-0.625318	-0.320571	99
Es	2.206732	1.124911	-0.337569	99
Es	1.922192	-1.077413	-0.716852	99
Es	2.574672	1.374565	-0.133033	99
Es	1.575198	0.662964	-0.080904	99
Es	1.629772	-0.847250	-0.099090	99
Es	0.169215	1.210314	0.009364	99
Es	-0.197876	-0.634452	0.328685	99
Es	1.611925	-0.096948	-0.090463	99
Es	0.870693	0.950000	-0.035554	99
41
Properties=species:S:1:pos:R:3:Z:I:1 energy=-306.82127625049895 field_type=dipole dipole="0.000000 0.000000 0.000000" charge=0
C	-2.092426	-0.045789	0.112666	6
C	-0.606256	-0.071019	0.033176	6
C	0.171484	-1.159679	-0.024314	6
C	1.629823	-0.847289	-0.099094	6
C	1.575214	0.662971	-0.080894	6
O	2.574904	1.374731	-0.133044	8
C	0.169194	1.210371	0.009366	6
H	-2.513786	-1.056309	0.108406	1
H	-2.510276	0.496731	-0.741144	1
H	-2.416246	0.450851	1.032636	1
H	-0.199576	-2.177009	-0.018744	1
H	2.165814	-1.221289	0.775486	1
H	2.069224	-1.203119	-1.033064	1
H	-0.060836	1.807891	-0.875544	1
H	0.043744	1.777961	0.934106	1
Es	-0.232766	-0.625244	-0.320346	99
Es	-0.078253	-1.855882	-0.020743	99
Es	-0.606341	-0.070885	0.033174	99
Es	2.233444	1.120235	0.104908	99
Es	-0.197811	-0.634468	0.328339	99
Es	1.575197	0.662961	-0.080893	99
Es	-2.298986	0.293247	0.728697	99
Es	0.171586	-1.159771	-0.024313	99
Es	0.911313	-1.046881	-0.062575	99
Es	-0.251805	0.593722	0.023780	99
Es	1.629770	-0.847250	-0.099091	99
Es	-2.362671	0.324661	-0.460173	99
Es	1.922360	-1.077644	-0.716377	99
Es	1.612223	-0.096636	-0.090420	99
Es	2.574641	1.374517	-0.133031	99
Es	2.207810	1.125287	-0.334246	99
Es	0.169216	1.210314	0.009364	99
Es	0.871065	0.950137	-0.035385	99
Es	2.489143	1.697571	-0.124529	99
Es	1.985444	-1.088910	0.478670	99
Es	2.850349	1.187105	-0.151497	99
Es	-1.349006	-0.059660	0.073145	99
Es	-2.092386	-0.045783	0.112664	99
Es	-2.377695	-0.733993	0.110038	99
Es	0.018374	1.603300	-0.575410	99
Es	0.087759	1.583250	0.620042	99
41
Properties=species:S:1:pos:R:3:Z:I:1 energy=-306.82127625049895 field_type=dipole dipole="0.000000 0.000000 0.000000" charge=0
C	-2.092426	-0.045789	0.112666	6
C	-0.606256	-0.071019	0.033176	6
C	0.171484	-1.159679	-0.024314	6
C	1.629823	-0.847289	-0.099094	6
C	1.575214	0.662971	-0.080894	6
O	2.574904	1.374731	-0.133044	8
C	0.169194	1.210371	0.009366	6
H	-2.513786	-1.056309	0.108406	1
H	-2.510276	0.496731	-0.741144	1
H	-2.416246	0.450851	1.032636	1
H	-0.199576	-2.177009	-0.018744	1
H	2.165814	-1.221289	0.775486	1
H	2.069224	-1.203119	-1.033064	1
H	-0.060836	1.807891	-0.875544	1
H	0.043744	1.777961	0.934106	1
Es	-2.298941	0.293287	0.728352	99
Es	-2.362637	0.324574	-0.459853	99
Es	-1.348918	-0.059584	0.073108	99
Es	0.871408	0.950177	-0.035349	99
Es	2.209555	1.125765	-0.331898	99
Es	0.018297	1.603574	-0.574911	99
Es	-2.092385	-0.045782	0.112663	99
Es	-0.197884	-0.634437	0.328026	99
Es	-0.232677	-0.625234	-0.319971	99
Es	0.087800	1.582861	0.619647	99
Es	1.629771	-0.847252	-0.099091	99
Es	-2.377927	-0.734111	0.110122	99
Es	-0.606341	-0.070884	0.033185	99
Es	1.612325	-0.096362	-0.090446	99
Es	0.911456	-1.047035	-0.062437	99
Es	2.574659	1.374548	-0.133047	99
Es	0.169216	1.210314	0.009364	99
Es	2.233761	1.119855	0.101906	99
Es	2.486010	1.698001	-0.124035	99
Es	1.922253	-1.077737	-0.716062	99
Es	1.575196	0.662962	-0.080893	99
Es	-0.078258	-1.855996	-0.020827	99
Es	2.851289	1.186438	-0.151357	99
Es	-0.252020	0.594033	0.023667	99
Es	1.985382	-1.088906	0.478252	99
Es	0.171584	-1.159769	-0.024321	99
41
Properties=species:S:1:pos:R:3:Z:I:1 energy=-306.82127625049895 field_type=dipole dipole="0.000000 0.000000 0.000000" charge=0
C	-2.092426	-0.045789	0.112666	6
C	-0.606256	-0.071019	0.033176	6
C	0.171484	-1.159679	-0.024314	6
C	1.629823	-0.847289	-0.099094	6
C	1.575214	0.662971	-0.080894	6
O	2.574904	1.374731	-0.133044	8
C	0.169194	1.210371	0.009366	6
H	-2.513786	-1.056309	0.108406	1
H	-2.510276	0.496731	-0.741144	1
H	-2.416246	0.450851	1.032636	1
H	-0.199576	-2.177009	-0.018744	1
H	2.165814	-1.221289	0.775486	1
H	2.069224	-1.203119	-1.033064	1
H	-0.060836	1.807891	-0.875544	1
H	0.043744	1.777961	0.934106	1
Es	-0.606342	-0.070883	0.033183	99
Es	1.985052	-1.088771	0.478051	99
Es	-2.092387	-0.045783	0.112664	99
Es	1.922467	-1.077933	-0.715728	99
Es	2.850911	1.184172	-0.150655	99
Es	-2.298802	0.292969	0.728030	99
Es	0.171584	-1.159769	-0.024325	99
Es	1.612507	-0.096173	-0.090490	99
Es	-0.078450	-1.855979	-0.020859	99
Es	0.018178	1.603560	-0.574571	99
Es	-1.348817	-0.059476	0.073165	99
Es	1.629770	-0.847251	-0.099090	99
Es	2.212897	1.128217	-0.329887	99
Es	0.169216	1.210314	0.009364	99
Es	-0.232548	-0.625201	-0.319674	99
Es	0.911645	-1.047228	-0.062547	99
Es	2.574744	1.374621	-0.133083	99
Es	-0.252085	0.594105	0.023772	99
Es	-0.197911	-0.634456	0.327752	99
Es	2.484850	1.698926	-0.123018	99
Es	-2.362619	0.324879	-0.459473	99
Es	1.575196	0.662962	-0.080894	99
Es	-2.378260	-0.734167	0.109945	99
Es	0.871645	0.950311	-0.035507	99
Es	0.087791	1.582761	0.619402	99
Es	2.231738	1.118573	0.098267	99
41
Properties=species:S:1:pos:R:3:Z:I:1 energy=-306.82127625049895 field_type=dipole dipole="0.000000 0.000000 0.000000" charge=0
C	-2.092426	-0.045789	0.112666	6
C	-0.606256	-0.071019	0.033176	6
C	0.171484	-1.159679	-0.024314	6
C	1.629823	-0.847289	-0.099094	6
C	1.575214	0.662971	-0.080894	6
O	2.574904	1.374731	-0.133044	8
C	0.169194	1.210371	0.009366	6
H	-2.513786	-1.056309	0.108406	1
H	-2.510276	0.496731	-0.741144	1
H	-2.416246	0.450851	1.032636	1
H	-0.199576	-2.177009	-0.018744	1
H	2.165814	-1.221289	0.775486	1
H	2.069224	-1.203119	-1.033064	1
H	-0.060836	1.807891	-0.875544	1
H	0.043744	1.777961	0.934106	1
Es	-0.252131	0.594200	0.023720	99
Es	2.481954	1.699079	-0.124887	99
Es	1.629770	-0.847251	-0.099090	99
Es	2.574657	1.374543	-0.133031	99
Es	-0.197910	-0.634405	0.327589	99
Es	-2.362656	0.324779	-0.459136	99
Es	-0.606342	-0.070884	0.033184	99
Es	-0.078399	-1.856124	-0.020721	99
Es	2.851827	1.183488	-0.151340	99
Es	1.922479	-1.078053	-0.715301	99
Es	0.911557	-1.047398	-0.062596	99
Es	0.169216	1.210317	0.009362	99
Es	-1.348643	-0.059248	0.073046	99
Es	2.235728	1.121671	0.097274	99
Es	0.087601	1.582809	0.619060	99
Es	-2.378435	-0.734238	0.110006	99
Es	0.171584	-1.159769	-0.024318	99
Es	1.612774	-0.095941	-0.090665	99
Es	0.018202	1.603359	-0.574275	99
Es	1.575196	0.662962	-0.080890	99
Es	1.984878	-1.088677	0.477670	99
Es	0.871935	0.950503	-0.035450	99
Es	-2.298767	0.292958	0.727758	99
Es	-0.232550	-0.625248	-0.319550	99
Es	-2.092386	-0.045783	0.112664	99
Es	2.210834	1.125651	-0.326288	99
41
Properties=species:S:1:pos:R:3:Z:I:1 energy=-306.82127625049895 field_type=dipole dipole="0.000000 0.000000 0.000000" charge=0
C	-2.092426	-0.045789	0.112666	6
C	-0.606256	-0.071019	0.033176	6
C	0.171484	-1.159679	-0.024314	6
C	1.629823	-0.847289	-0.099094	6
C	1.575214	0.662971	-0.080894	6
O	2.574904	1.374731	-0.133044	8
C	0.169194	1.210371	0.009366	6
H	-2.513786	-1.056309	0.108406	1
H	-2.510276	0.496731	-0.741144	1
H	-2.416246	0.450851	1.032636	1
H	-0.199576	-2.177009	-0.018744	1
H	2.165814	-1.221289	0.775486	1
H	2.069224	-1.203119	-1.033064	1
H	-0.060836	1.807891	-0.875544	1
H	0.043744	1.777961	0.934106	1
Es	1.575196	0.662961	-0.080892	99
Es	-1.348526	-0.059318	0.073026	99
Es	0.018132	1.603350	-0.574028	99
Es	0.171584	-1.159769	-0.024320	99
Es	-2.298651	0.292783	0.727375	99
Es	2.851225	1.181008	-0.151690	99
Es	0.087656	1.582746	0.618780	99
Es	0.911667	-1.047291	-0.062393	99
Es	1.629771	-0.847252	-0.099093	99
Es	1.984776	-1.088588	0.477353	99
Es	-0.078350	-1.856251	-0.020784	99
Es	-2.378741	-0.734233	0.110043	99
Es	2.574690	1.374580	-0.133037	99
Es	2.481400	1.699813	-0.123958	99
Es	-0.252285	0.594374	0.023730	99
Es	2.236684	1.122476	0.094638	99
Es	-2.092386	-0.045783	0.112664	99
Es	0.169216	1.210314	0.009365	99
Es	-0.197830	-0.634405	0.327386	99
Es	-0.606342	-0.070885	0.033187	99
Es	-0.232567	-0.625220	-0.319071	99
Es	1.922455	-1.078208	-0.715294	99
Es	2.210915	1.126497	-0.324345	99
Es	0.872113	0.950529	-0.035524	99
Es	-2.362680	0.324894	-0.458850	99
Es	1.612850	-0.095823	-0.090476	99
41
Properties=species:S:1:pos:R:3:Z:I:1 energy=-306.82127625049895 field_type=dipole dipole="0.000000 0.000000 0.000000" charge=0
C	-2.092426	-0.045789	0.112666	6
C	-0.606256	-0.071019	0.033176	6
C	0.171484	-1.159679	-0.024314	6
C	1.629823	-0.847289	-0.099094	6
C	1.575214	0.662971	-0.080894	6
O	2.574904	1.374731	-0.133044	8
C	0.169194	1.210371	0.009366	6
H	-2.513786	-1.056309	0.108406	1
H	-2.510276	0.496731	-0.741144	1
H	-2.416246	0.450851	1.032636	1
H	-0.199576	-2.177009	-0.018744	1
H	2.165814	-1.221289	0.775486	1
H	2.069224	-1.203119	-1.033064	1
H	-0.060836	1.807891	-0.875544	1
H	0.043744	1.777961	0.934106	1
Es	2.851266	1.180253	-0.151617	99
Es	0.171584	-1.159769	-0.024318	99
Es	2.236512	1.122124	0.092790	99
Es	2.574649	1.374559	-0.133028	99
Es	0.018192	1.603388	-0.573759	99
Es	1.575196	0.662961	-0.080891	99
Es	0.169216	1.210314	0.009365	99
Es	-0.606343	-0.070882	0.033182	99
Es	-2.378778	-0.734373	0.110121	99
Es	-0.252425	0.594425	0.023672	99
Es	2.212401	1.127124	-0.322648	99
Es	1.922525	-1.078180	-0.714888	99
Es	2.479935	1.700210	-0.123861	99
Es	0.087521	1.582583	0.618480	99
Es	-1.348518	-0.059070	0.073133	99
Es	-0.232529	-0.625213	-0.319071	99
Es	1.629770	-0.847251	-0.099090	99
Es	-2.362648	0.324788	-0.458728	99
Es	-0.078522	-1.856190	-0.020754	99
Es	0.911829	-1.047669	-0.062548	99
Es	0.872345	0.950690	-0.035335	99
Es	-2.298668	0.292835	0.727159	99
Es	-0.197795	-0.634371	0.327183	99
Es	1.984601	-1.088591	0.477073	99
Es	1.613045	-0.095617	-0.090495	99
Es	-2.092388	-0.045780	0.112665	99
41
Properties=species:S:1:pos:R:3:Z:I:1 energy=-306.82127625049895 field_type=dipole dipole="0.000000 0.000000 0.000000" charge=0
C	-2.092426	-0.045789	0.112666	6
C	-0.606256	-0.071019	0.033176	6
C	0.171484	-1.159679	-0.024314	6
C	1.629823	-0.847289	-0.099094	6
C	1.575214	0.662971	-0.080894	6
O	2.574904	1.374731	-0.133044	8
C	0.169194	1.210371	0.009366	6
H	-2.513786	-1.056309	0.108406	1
H	-2.510276	0.496731	-0.741144	1
H	-2.416246	0.450851	1.032636	1
H	-0.199576	-2.177009	-0.018744	1
H	2.165814	-1.221289	0.775486	1
H	2.069224	-1.203119	-1.033064	1
H	-0.060836	1.807891	-0.875544	1
H	0.043744	1.777961	0.934106	1
Es	-2.379015	-0.734313	0.110165	99
Es	2.479586	1.700511	-0.123861	99
Es	-1.348422	-0.059030	0.073201	99
Es	-0.078558	-1.856262	-0.020697	99
Es	1.575196	0.662961	-0.080894	99
Es	-2.298341	0.292425	0.726900	99
Es	-0.252452	0.594469	0.023627	99
Es	-0.197744	-0.634290	0.327024	99
Es	0.087627	1.582298	0.618308	99
Es	2.242056	1.125724	0.091582	99
Es	-0.232526	-0.625276	-0.318832	99
Es	0.171585	-1.159768	-0.024322	99
Es	0.872448	0.950703	-0.035382	99
Es	0.169216	1.210315	0.009365	99
Es	-2.362896	0.325170	-0.458486	99
Es	2.850755	1.178393	-0.154322	99
Es	1.629771	-0.847252	-0.099090	99
Es	0.018098	1.603631	-0.573579	99
Es	1.613063	-0.095480	-0.090414	99
Es	-2.092386	-0.045781	0.112666	99
Es	2.574659	1.374557	-0.133023	99
Es	2.207629	1.125032	-0.318743	99
Es	1.984453	-1.088537	0.476828	99
Es	0.911915	-1.047798	-0.062690	99
Es	1.922599	-1.078220	-0.714722	99
Es	-0.606343	-0.070884	0.033183	99
41
Properties=species:S:1:pos:R:3:Z:I:1 energy=-306.82127625049895 field_type=dipole dipole="0.000000 0.000000 0.000000" charge=0
C	-2.092426	-0.045789	0.112666	6
C	-0.606256	-0.071019	0.033176	6
C	0.171484	-1.159679	-0.024314	6
C	1.629823	-0.847289	-0.099094	6
C	1.575214	0.662971	-0.080894	6
O	2.574904	1.374731	-0.133044	8
C	0.169194	1.210371	0.009366	6
H	-2.513786	-1.056309	0.108406	1
H	-2.510276	0.496731	-0.741144	1
H	-2.416246	0.450851	1.032636	1
H	-0.199576	-2.177009	-0.018744	1
H	2.165814	-1.221289	0.775486	1
H	2.069224	-1.203119	-1.033064	1
H	-0.060836	1.807891	-0.875544	1
H	0.043744	1.777961	0.934106	1
Es	1.575196	0.662962	-0.080900	99
Es	0.169215	1.210314	0.009365	99
Es	2.235795	1.123325	0.089375	99
Es	0.087436	1.582620	0.618064	99
Es	2.479774	1.701316	-0.124350	99
Es	0.018247	1.603182	-0.573272	99
Es	-0.232433	-0.625233	-0.318767	99
Es	-0.252547	0.594569	0.023712	99
Es	-1.348370	-0.058829	0.073152	99
Es	2.849935	1.176032	-0.150723	99
Es	0.912057	-1.047879	-0.062555	99
Es	1.984142	-1.088359	0.476657	99
Es	-0.078608	-1.856224	-0.020791	99
Es	1.922754	-1.078459	-0.714399	99
Es	1.629770	-0.847251	-0.099090	99
Es	1.613253	-0.095322	-0.090563	99
Es	-2.298412	0.292494	0.726688	99
Es	-2.092386	-0.045782	0.112665	99
Es	-0.197916	-0.634403	0.326786	99
Es	2.574676	1.374579	-0.133034	99
Es	-2.379183	-0.734369	0.110135	99
Es	-2.362769	0.325037	-0.458252	99
Es	0.872656	0.950739	-0.035498	99
Es	0.171585	-1.159769	-0.024323	99
Es	2.214450	1.128890	-0.319473	99
Es	-0.606344	-0.070881	0.033183	99
41
Properties=species:S:1:pos:R:3:Z:I:1 energy=-306.82127625049895 field_type=dipole dipole="0.000000 0.000000 0.000000" charge=0
C	-2.092426	-0.045789	0.112666	6
C	-0.606256	-0.071019	0.033176	6
C	0.171484	-1.159679	-0.024314	6
C	1.629823	-0.847289	-0.099094	6
C	1.575214	0.662971	-0.080894	6
O	2.574904	1.374731	-0.133044	8
C	0.169194	1.210371	0.009366	6
H	-2.513786	-1.056309	0.108406	1
H	-2.510276	0.496731	-0.741144	1
H	-2.416246	0.450851	1.032636	1
H	-0.199576	-2.177009	-0.018744	1
H	2.165814	-1.221289	0.775486	1
H	2.069224	-1.203119	-1.033064	1
H	-0.060836	1.807891	-0.875544	1
H	0.043744	1.777961	0.934106	1
Es	-0.198159	-0.634285	0.326566	99
Es	0.912024	-1.047983	-0.062421	99
Es	-2.379249	-0.734405	0.110200	99
Es	1.613346	-0.095257	-0.090615	99
Es	-2.362915	0.325195	-0.458133	99
Es	-0.606342	-0.070883	0.033182	99
Es	0.087726	1.582245	0.617768	99
Es	-0.252647	0.594593	0.023917	99
Es	0.171585	-1.159770	-0.024310	99
Es	-2.298257	0.292289	0.726501	99
Es	0.169216	1.210315	0.009364	99
Es	-2.092386	-0.045782	0.112664	99
Es	1.983799	-1.087977	0.476409	99
Es	0.872741	0.950829	-0.035540	99
Es	2.241081	1.126703	0.088031	99
Es	1.629770	-0.847251	-0.099090	99
Es	1.923064	-1.078789	-0.714326	99
Es	-0.232084	-0.625268	-0.318577	99
Es	-1.348320	-0.058805	0.073197	99
Es	-0.078659	-1.856310	-0.020674	99
Es	2.477939	1.701357	-0.124777	99
Es	2.574669	1.374567	-0.133032	99
Es	1.575196	0.662962	-0.080892	99
Es	0.017963	1.603499	-0.573141	99
Es	2.210739	1.126357	-0.316326	99
Es	2.850131	1.175154	-0.152148	99
41
Properties=species:S:1:pos:R:3:Z:I:1 energy=-306.82127625049895 field_type=dipole dipole="0.000000 0.000000 0.000000" charge=0
C	-2.092426	-0.045789	0.112666	6
C	-0.606256	-0.071019	0.033176	6
C	0.171484	-1.159679	-0.024314	6
C	1.629823	-0.847289	-0.099094	6
C	1.575214	0.662971	-0.080894	6
O	2.574904	1.374731	-0.133044	8
C	0.169194	1.210371	0.009366	6
H	-2.513786	-1.056309	0.108406	1
H	-2.510276	0.496731	-0.741144	1
H	-2.416246	0.450851	1.032636	1
H	-0.199576	-2.177009	-0.018744	1
H	2.165814	-1.221289	0.775486	1
H	2.069224	-1.203119	-1.033064	1
H	-0.060836	1.807891	-0.875544	1
H	0.043744	1.777961	0.934106	1
Es	2.478069	1.701534	-0.122491	99
Es	0.018324	1.602927	-0.572902	99
Es	2.574665	1.374552	-0.133035	99
Es	2.235199	1.122649	0.085666	99
Es	-2.379376	-0.734416	0.110133	99
Es	2.216743	1.131675	-0.316912	99
Es	-1.348248	-0.058752	0.073208	99
Es	2.849785	1.173662	-0.151501	99
Es	0.872858	0.950870	-0.035564	99
Es	-0.232248	-0.625182	-0.318479	99
Es	1.629770	-0.847253	-0.099091	99
Es	-0.252725	0.594701	0.023753	99
Es	0.171585	-1.159769	-0.024322	99
Es	0.912004	-1.048078	-0.062507	99
Es	0.169215	1.210315	0.009364	99
Es	1.613463	-0.095178	-0.090416	99
Es	-2.363118	0.325517	-0.457882	99
Es	-2.298045	0.291891	0.726288	99
Es	-2.092386	-0.045782	0.112664	99
Es	1.984261	-1.088505	0.476236	99
Es	-0.606343	-0.070883	0.033184	99
Es	1.922541	-1.078236	-0.714106	99
Es	1.575196	0.662961	-0.080893	99
Es	-0.078650	-1.856368	-0.020830	99
Es	0.087404	1.582768	0.617777	99
Es	-0.197972	-0.634322	0.326454	99
41
Properties=species:S:1:pos:R:3:Z:I:1 energy=-306.82127625049895 field_type=dipole dipole="0.000000 0.000000 0.000000" charge=0
C	-2.092426	-0.045789	0.112666	6
C	-0.606256	-0.071019	0.033176	6
C	0.171484	-1.159679	-0.024314	6
C	1.629823	-0.847289	-0.099094	6
C	1.575214	0.662971	-0.080894	6
O	2.574904	1.374731	-0.133044	8
C	0.169194	1.210371	0.009366	6
H	-2.513786	-1.056309	0.108406	1
H	-2.510276	0.496731	-0.741144	1
H	-2.416246	0.450851	1.032636	1
H	-0.199576	-2.177009	-0.018744	1
H	2.165814	-1.221289	0.775486	1
H	2.069224	-1.203119	-1.033064	1
H	-0.060836	1.807891	-0.875544	1
H	0.043744	1.777961	0.934106	1
Es	2.215736	1.129800	-0.315463	99
Es	-0.606343	-0.070883	0.033183	99
Es	-0.078587	-1.856439	-0.020795	99
Es	-1.348238	-0.058684	0.073128	99
Es	1.923513	-1.079165	-0.713942	99
Es	-0.232708	-0.625188	-0.318214	99
Es	2.850310	1.173841	-0.151284	99
Es	1.613465	-0.095128	-0.090637	99
Es	-2.297922	0.291785	0.726134	99
Es	0.018096	1.603334	-0.572778	99
Es	0.912016	-1.048064	-0.062361	99
Es	2.475810	1.701466	-0.123316	99
Es	-2.363129	0.325628	-0.457699	99
Es	-2.092387	-0.045782	0.112664	99
Es	1.575196	0.662961	-0.080892	99
Es	-2.379484	-0.734529	0.110120	99
Es	2.574681	1.374574	-0.133039	99
Es	0.087520	1.582262	0.617493	99
Es	-0.197558	-0.634391	0.326366	99
Es	1.629770	-0.847251	-0.099091	99
Es	-0.252775	0.594771	0.023730	99
Es	0.169215	1.210315	0.009364	99
Es	1.983265	-1.087521	0.476057	99
Es	0.873017	0.951055	-0.035556	99
Es	2.237908	1.124303	0.084943	99
Es	0.171585	-1.159769	-0.024320	99
41
Properties=species:S:1:pos:R:3:Z:I:1 energy=-306.82127625049895 field_type=dipole dipole="0.000000 0.000000 0.000000" charge=0
C	-2.092426	-0.045789	0.112666	6
C	-0.606256	-0.071019	0.033176	6
C	0.171484	-1.159679	-0.024314	6
C	1.629823	-0.847289	-0.099094	6
C	1.575214	0.662971	-0.080894	6
O	2.574904	1.374731	-0.133044	8
C	0.169194	1.210371	0.009366	6
H	-2.513786	-1.056309	0.108406	1
H	-2.510276	0.496731	-0.741144	1
H	-2.416246	0.450851	1.032636	1
H	-0.199576	-2.177009	-0.018744	1
H	2.165814	-1.221289	0.775486	1
H	2.069224	-1.203119	-1.033064	1
H	-0.060836	1.807891	-0.875544	1
H	0.043744	1.777961	0.934106	1
Es	-2.297525	0.291170	0.725818	99
Es	0.018312	1.602899	-0.572591	99
Es	1.629770	-0.847251	-0.099091	99
Es	1.613618	-0.095054	-0.090624	99
Es	-0.197981	-0.634303	0.326141	99
Es	2.218568	1.131818	-0.314707	99
Es	-1.348228	-0.058547	0.073242	99
Es	0.171584	-1.159769	-0.024320	99
Es	1.575195	0.662961	-0.080895	99
Es	-0.252914	0.594864	0.023834	99
Es	0.087473	1.582702	0.617471	99
Es	2.235903	1.122664	0.083044	99
Es	2.850180	1.173249	-0.150975	99
Es	1.983468	-1.087778	0.475964	99
Es	-2.092386	-0.045782	0.112664	99
Es	-2.379562	-0.734544	0.110177	99
Es	-0.232118	-0.625185	-0.318134	99
Es	1.923198	-1.078988	-0.713873	99
Es	2.574689	1.374579	-0.133036	99
Es	-2.363539	0.326165	-0.457507	99
Es	0.873023	0.950916	-0.035695	99
Es	-0.606343	-0.070883	0.033184	99
Es	0.912099	-1.048115	-0.062370	99
Es	2.475024	1.701649	-0.122465	99
Es	-0.078751	-1.856450	-0.020829	99
Es	0.169216	1.210315	0.009364	99
41
Properties=species:S:1:pos:R:3:Z:I:1 energy=-306.82127625049895 field_type=dipole dipole="0.000000 0.000000 0.000000" charge=0
C	-2.092426	-0.045789	0.112666	6
C	-0.606256	-0.071019	0.033176	6
C	0.171484	-1.159679	-0.024314	6
C	1.629823	-0.847289	-0.099094	6
C	1.575214	0.662971	-0.080894	6
O	2.574904	1.374731	-0.133044	8
C	0.169194	1.210371	0.009366	6
H	-2.513786	-1.056309	0.108406	1
H	-2.510276	0.496731	-0.741144	1
H	-2.416246	0.450851	1.032636	1
H	-0.199576	-2.177009	-0.018744	1
H	2.165814	-1.221289	0.775486	1
H	2.069224	-1.203119	-1.033064	1
H	-0.060836	1.807891	-0.875544	1
H	0.043744	1.777961	0.934106	1
Es	-2.379731	-0.734522	0.110167	99
Es	0.169216	1.210315	0.009365	99
Es	0.171584	-1.159770	-0.024320	99
Es	-0.606343	-0.070883	0.033184	99
Es	1.924757	-1.080170	-0.713531	99
Es	-2.363838	0.326656	-0.457249	99
Es	2.242550	1.127460	0.083170	99
Es	2.474487	1.701793	-0.123644	99
Es	0.087827	1.581406	0.617220	99
Es	1.981846	-1.086562	0.475655	99
Es	0.912156	-1.048361	-0.062564	99
Es	2.574680	1.374580	-0.133029	99
Es	-1.348122	-0.058564	0.073170	99
Es	0.873167	0.950966	-0.035531	99
Es	2.850003	1.172753	-0.151937	99
Es	1.629770	-0.847251	-0.099091	99
Es	1.575196	0.662961	-0.080894	99
Es	-2.297100	0.290710	0.725691	99
Es	-0.232143	-0.625247	-0.318211	99
Es	-2.092386	-0.045782	0.112664	99
Es	2.212581	1.127360	-0.312834	99
Es	-0.078776	-1.856363	-0.020736	99
Es	1.613709	-0.094955	-0.090525	99
Es	-0.252901	0.594936	0.023785	99
Es	-0.198025	-0.634273	0.326240	99
Es	0.017808	1.604107	-0.572423	99
41
Properties=species:S:1:pos:R:3:Z:I:1 energy=-306.82127625049895 field_type=dipole dipole="0.000000 0.000000 0.000000" charge=0
C	-2.092426	-0.045789	0.112666	6
C	-0.606256	-0.071019	0.033176	6
C	0.171484	-1.159679	-0.024314	6
C	1.629823	-0.847289	-0.099094	6
C	1.575214	0.662971	-0.080894	6
O	2.574904	1.374731	-0.133044	8
C	0.169194	1.210371	0.009366	6
H	-2.513786	-1.056309	0.108406	1
H	-2.510276	0.496731	-0.741144	1
H	-2.416246	0.450851	1.032636	1
H	-0.199576	-2.177009	-0.018744	1
H	2.165814	-1.221289	0.775486	1
H	2.069224	-1.203119	-1.033064	1
H	-0.060836	1.807891	-0.875544	1
H	0.043744	1.777961	0.934106	1
Es	-2.297204	0.290828	0.725686	99
Es	1.575196	0.662962	-0.080893	99
Es	-1.348158	-0.058473	0.073283	99
Es	-0.078692	-1.856445	-0.020670	99
Es	1.613727	-0.094976	-0.090662	99
Es	-2.092386	-0.045782	0.112664	99
Es	2.850333	1.172959	-0.153144	99
Es	-0.232098	-0.625306	-0.318183	99
Es	1.925362	-1.080865	-0.713457	99
Es	2.574685	1.374579	-0.133026	99
Es	-0.252855	0.594767	0.023947	99
Es	0.912094	-1.048269	-0.062428	99
Es	1.981246	-1.085856	0.475523	99
Es	0.171584	-1.159769	-0.024322	99
Es	2.207978	1.123364	-0.308390	99
Es	1.629771	-0.847251	-0.099092	99
Es	0.169215	1.210314	0.009364	99
Es	2.472696	1.701697	-0.124306	99
Es	-2.363843	0.326500	-0.457385	99
Es	-2.379606	-0.734539	0.110282	99
Es	0.088255	1.580429	0.617041	99
Es	-0.606343	-0.070882	0.033184	99
Es	0.873123	0.951092	-0.035433	99
Es	-0.198073	-0.634224	0.326200	99
Es	0.017401	1.605118	-0.572453	99
Es	2.248565	1.131330	0.080461	99
41
Properties=species:S:1:pos:R:3:Z:I:1 energy=-306.82127625049895 field_type=dipole dipole="0.000000 0.000000 0.000000" charge=0
C	-2.092426	-0.045789	0.112666	6
C	-0.606256	-0.071019	0.033176	6
C	0.171484	-1.159679	-0.024314	6
C	1.629823	-0.847289	-0.099094	6
C	1.575214	0.662971	-0.080894	6
O	2.574904	1.374731	-0.133044	8
C	0.169194	1.210371	0.009366	6
H	-2.513786	-1.056309	0.108406	1
H	-2.510276	0.496731	-0.741144	1
H	-2.416246	0.450851	1.032636	1
H	-0.199576	-2.177009	-0.018744	1
H	2.165814	-1.221289	0.775486	1
H	2.069224	-1.203119	-1.033064	1
H	-0.060836	1.807891	-0.875544	1
H	0.043744	1.777961	0.934106	1
Es	1.984103	-1.088758	0.475943	99
Es	0.171585	-1.159769	-0.024321	99
Es	-0.197987	-0.634437	0.326230	99
Es	1.922406	-1.078102	-0.713409	99
Es	2.849973	1.171523	-0.149734	99
Es	0.086464	1.584530	0.617473	99
Es	2.574693	1.374581	-0.133036	99
Es	1.613803	-0.094900	-0.090649	99
Es	0.873219	0.951239	-0.035763	99
Es	0.912154	-1.048170	-0.062825	99
Es	-2.092388	-0.045780	0.112663	99
Es	2.473642	1.701803	-0.120787	99
Es	-0.606342	-0.070884	0.033185	99
Es	2.227653	1.117272	0.075009	99
Es	0.169215	1.210315	0.009365	99
Es	-0.252770	0.594837	0.023575	99
Es	-1.347949	-0.058685	0.073195	99
Es	-2.297081	0.290501	0.725537	99
Es	0.019036	1.600917	-0.572342	99
Es	-0.078696	-1.856489	-0.020983	99
Es	1.575195	0.662961	-0.080895	99
Es	2.228261	1.138677	-0.309291	99
Es	-0.232245	-0.625156	-0.318125	99
Es	1.629770	-0.847251	-0.099090	99
Es	-2.379916	-0.734331	0.110045	99
Es	-2.363828	0.326853	-0.457177	99
41
Properties=species:S:1:pos:R:3:Z:I:1 energy=-306.82127625049895 field_type=dipole dipole="0.000000 0.000000 0.000000" charge=0
C	-2.092426	-0.045789	0.112666	6
C	-0.606256	-0.071019	0.033176	6
C	0.171484	-1.159679	-0.024314	6
C	1.629823	-0.847289	-0.099094	6
C	1.575214	0.662971	-0.080894	6
O	2.574904	1.374731	-0.133044	8
C	0.169194	1.210371	0.009366	6
H	-2.513786	-1.056309	0.108406	1
H	-2.510276	0.496731	-0.741144	1
H	-2.416246	0.450851	1.032636	1
H	-0.199576	-2.177009	-0.018744	1
H	2.165814	-1.221289	0.775486	1
H	2.069224	-1.203119	-1.033064	1
H	-0.060836	1.807891	-0.875544	1
H	0.043744	1.777961	0.934106	1
Es	2.210477	1.125868	-0.308856	99
Es	2.574731	1.374606	-0.133047	99
Es	-0.078800	-1.856447	-0.020772	99
Es	0.171584	-1.159769	-0.024321	99
Es	-2.296100	0.289370	0.725132	99
Es	-2.364764	0.327936	-0.456672	99
Es	1.979908	-1.085056	0.475082	99
Es	-0.606343	-0.070884	0.033183	99
Es	0.873308	0.951000	-0.035593	99
Es	2.247185	1.130033	0.079415	99
Es	-0.232037	-0.625277	-0.317976	99
Es	1.575195	0.662962	-0.080896	99
Es	1.629776	-0.847255	-0.099090	99
Es	-2.092387	-0.045782	0.112665	99
Es	0.169216	1.210314	0.009365	99
Es	2.849749	1.171351	-0.153042	99
Es	-0.198097	-0.634248	0.326008	99
Es	2.472091	1.702020	-0.122722	99
Es	-1.348095	-0.058408	0.073180	99
Es	0.017313	1.605447	-0.572003	99
Es	0.088373	1.579981	0.616819	99
Es	1.926575	-1.081710	-0.713131	99
Es	1.613654	-0.094814	-0.090441	99
Es	0.912365	-1.048377	-0.062558	99
Es	-0.253007	0.594996	0.023853	99
Es	-2.379901	-0.734555	0.110211	99
41
Properties=species:S:1:pos:R:3:Z:I:1 energy=-306.82127625049895 field_type=dipole dipole="0.000000 0.000000 0.000000" charge=0
C	-2.092426	-0.045789	0.112666	6
C	-0.606256	-0.071019	0.033176	6
C	0.171484	-1.159679	-0.024314	6
C	1.629823	-0.847289	-0.099094	6
C	1.575214	0.662971	-0.080894	6
O	2.574904	1.374731	-0.133044	8
C	0.169194	1.210371	0.009366	6
H	-2.513786	-1.056309	0.108406	1
H	-2.510276	0.496731	-0.741144	1
H	-2.416246	0.450851	1.032636	1
H	-0.199576	-2.177009	-0.018744	1
H	2.165814	-1.221289	0.775486	1
H	2.069224	-1.203119	-1.033064	1
H	-0.060836	1.807891	-0.875544	1
H	0.043744	1.777961	0.934106	1
Es	0.169216	1.210315	0.009364	99
Es	1.980767	-1.085716	0.475153	99
Es	-0.253079	0.594985	0.023893	99
Es	-2.379926	-0.734534	0.110214	99
Es	0.018623	1.601956	-0.572103	99
Es	-0.232499	-0.625150	-0.317816	99
Es	0.171584	-1.159769	-0.024321	99
Es	1.613817	-0.094796	-0.090521	99
Es	0.912239	-1.048487	-0.062569	99
Es	1.629770	-0.847251	-0.099091	99
Es	-1.348030	-0.058404	0.073114	99
Es	-2.092386	-0.045783	0.112664	99
Es	2.574650	1.374550	-0.133038	99
Es	1.925729	-1.080952	-0.713103	99
Es	-2.294984	0.287676	0.724454	99
Es	-0.078819	-1.856513	-0.020877	99
Es	-2.365939	0.329550	-0.456039	99
Es	0.087085	1.583414	0.616956	99
Es	2.220458	1.132736	-0.311249	99
Es	-0.606344	-0.070882	0.033180	99
Es	0.873385	0.951169	-0.035627	99
Es	2.849980	1.171030	-0.150698	99
Es	2.471356	1.702002	-0.121385	99
Es	1.575195	0.662961	-0.080895	99
Es	2.237701	1.123506	0.078225	99
Es	-0.197576	-0.634316	0.325906	99
41
Properties=species:S:1:pos:R:3:Z:I:1 energy=-306.82127625049895 field_type=dipole dipole="0.000000 0.000000 0.000000" charge=0
C	-2.092426	-0.045789	0.112666	6
C	-0.606256	-0.071019	0.033176	6
C	0.171484	-1.159679	-0.024314	6
C	1.629823	-0.847289	-0.099094	6
C	1.575214	0.662971	-0.080894	6
O	2.574904	1.374731	-0.133044	8
C	0.169194	1.210371	0.009366	6
H	-2.513786	-1.056309	0.108406	1
H	-2.510276	0.496731	-0.741144	1
H	-2.416246	0.450851	1.032636	1
H	-0.199576	-2.177009	-0.018744	1
H	2.165814	-1.221289	0.775486	1
H	2.069224	-1.203119	-1.033064	1
H	-0.060836	1.807891	-0.875544	1
H	0.043744	1.777961	0.934106	1
Es	1.979415	-1.084661	0.474894	99
Es	-0.078813	-1.856534	-0.020877	99
Es	-2.295154	0.287838	0.724346	99
Es	0.087480	1.582310	0.616884	99
Es	2.470930	1.702064	-0.122374	99
Es	2.218967	1.131303	-0.310406	99
Es	-0.253023	0.595041	0.023861	99
Es	1.629771	-0.847251	-0.099091	99
Es	-0.232085	-0.625145	-0.317730	99
Es	1.927045	-1.082035	-0.712681	99
Es	0.169216	1.210314	0.009364	99
Es	0.912325	-1.048463	-0.062484	99
Es	-0.606342	-0.070884	0.033185	99
Es	2.849806	1.170251	-0.150336	99
Es	-2.379987	-0.734593	0.110217	99
Es	2.574704	1.374590	-0.133034	99
Es	-0.198051	-0.634361	0.325782	99
Es	0.873443	0.951191	-0.035757	99
Es	0.018187	1.603011	-0.571975	99
Es	-2.365716	0.329384	-0.456122	99
Es	0.171584	-1.159769	-0.024319	99
Es	2.239734	1.125583	0.078145	99
Es	1.575196	0.662961	-0.080895	99
Es	1.613787	-0.094740	-0.090658	99
Es	-1.348056	-0.058328	0.073194	99
Es	-2.092390	-0.045780	0.112659	99
41
Properties=species:S:1:pos:R:3:Z:I:1 energy=-306.82127625049895 field_type=dipole dipole="0.000000 0.000000 0.000000" charge=0
C	-2.092426	-0.045789	0.112666	6
C	-0.606256	-0.071019	0.033176	6
C	0.171484	-1.159679	-0.024314	6
C	1.629823	-0.847289	-0.099094	6
C	1.575214	0.662971	-0.080894	6
O	2.574904	1.374731	-0.133044	8
C	0.169194	1.210371	0.009366	6
H	-2.513786	-1.056309	0.108406	1
H	-2.510276	0.496731	-0.741144	1
H	-2.416246	0.450851	1.032636	1
H	-0.199576	-2.177009	-0.018744	1
H	2.165814	-1.221289	0.775486	1
H	2.069224	-1.203119	-1.033064	1
H	-0.060836	1.807891	-0.875544	1
H	0.043744	1.777961	0.934106	1
Es	-0.198461	-0.634200	0.325762	99
Es	2.472183	1.702248	-0.123778	99
Es	0.088583	1.579217	0.616502	99
Es	1.613881	-0.094798	-0.090523	99
Es	2.208467	1.124297	-0.305960	99
Es	0.016949	1.606142	-0.571932	99
Es	2.249512	1.133272	0.076221	99
Es	2.849213	1.169383	-0.151693	99
Es	1.629772	-0.847252	-0.099094	99
Es	-0.231648	-0.625304	-0.317892	99
Es	0.873396	0.951149	-0.035505	99
Es	0.171584	-1.159769	-0.024319	99
Es	-2.365185	0.328537	-0.456573	99
Es	-0.606342	-0.070884	0.033183	99
Es	-2.295693	0.288766	0.724807	99
Es	2.574698	1.374584	-0.133034	99
Es	-2.379909	-0.734544	0.110315	99
Es	-2.092385	-0.045782	0.112664	99
Es	0.912268	-1.048308	-0.062520	99
Es	1.977677	-1.083295	0.474442	99
Es	1.575196	0.662961	-0.080892	99
Es	-0.252941	0.595009	0.023899	99
Es	1.928749	-1.083513	-0.712303	99
Es	-0.078713	-1.856540	-0.020682	99
Es	-1.348094	-0.058393	0.073332	99
Es	0.169215	1.210315	0.009365	99
41
Properties=species:S:1:pos:R:3:Z:I:1 energy=-306.82127625049895 field_type=dipole dipole="0.000000 0.000000 0.000000" charge=0
C	-2.092426	-0.045789	0.112666	6
C	-0.606256	-0.071019	0.033176	6
C	0.171484	-1.159679	-0.024314	6
C	1.629823	-0.847289	-0.099094	6
C	1.575214	0.662971	-0.080894	6
O	2.574904	1.374731	-0.133044	8
C	0.169194	1.210371	0.009366	6
H	-2.513786	-1.056309	0.108406	1
H	-2.510276	0.496731	-0.741144	1
H	-2.416246	0.450851	1.032636	1
H	-0.199576	-2.177009	-0.018744	1
H	2.165814	-1.221289	0.775486	1
H	2.069224	-1.203119	-1.033064	1
H	-0.060836	1.807891	-0.875544	1
H	0.043744	1.777961	0.934106	1
Es	-0.606342	-0.070883	0.033183	99
Es	1.929039	-1.083886	-0.712486	99
Es	-2.092386	-0.045782	0.112664	99
Es	2.849578	1.170344	-0.153119	99
Es	-1.348036	-0.058533	0.073145	99
Es	-0.197869	-0.634161	0.326314	99
Es	-0.252877	0.595133	0.023876	99
Es	1.613653	-0.094792	-0.090348	99
Es	-2.379663	-0.734473	0.110381	99
Es	0.016587	1.606824	-0.572115	99
Es	-0.232175	-0.625308	-0.318054	99
Es	1.575195	0.662961	-0.080891	99
Es	1.977402	-1.083027	0.474407	99
Es	2.471319	1.702080	-0.124911	99
Es	-2.365134	0.328152	-0.456838	99
Es	0.912449	-1.048274	-0.062600	99
Es	-0.078679	-1.856497	-0.020584	99
Es	2.255596	1.137396	0.071484	99
Es	2.574707	1.374588	-0.133031	99
Es	0.873333	0.951091	-0.035335	99
Es	-2.295955	0.289109	0.725141	99
Es	0.171585	-1.159770	-0.024320	99
Es	0.169216	1.210314	0.009364	99
Es	2.202871	1.119368	-0.298933	99
Es	1.629771	-0.847253	-0.099087	99
Es	0.088786	1.578579	0.616487	99
