37
Properties=species:S:1:pos:R:3:Z:I:1 energy=-268.5113736377575 field_type=dipole dipole="0.000000 0.000000 0.000000" charge=0
C	-1.598124	-1.872834	2.101331	6
C	-1.238474	-1.570695	0.995201	6
C	-0.799864	-1.209525	-0.359089	6
C	-0.237964	0.180335	-0.358909	6
C	1.033536	0.475296	-0.666799	6
C	1.502866	1.800645	-0.666799	6
C	1.900146	2.922545	-0.666799	6
H	-1.914304	-2.137694	3.084221	1
H	-1.648004	-1.249315	-1.051709	1
H	-0.060924	-1.935915	-0.716439	1
H	-0.930314	0.980536	-0.102769	1
H	1.737176	-0.310395	-0.926389	1
H	2.254246	3.927016	-0.665049	1
Es	-1.804243	-2.045690	2.741763	99
Es	1.510739	-0.041631	-0.841770	99
Es	-0.304528	-1.694112	-0.583527	99
Es	-1.026674	-1.390227	0.341122	99
Es	-0.238055	0.180253	-0.358871	99
Es	-1.262947	-1.429015	1.684406	99
Es	0.350674	0.382122	-0.834270	99
Es	-1.367251	-1.229977	-0.804708	99
Es	1.918588	2.277244	-0.401029	99
Es	1.279387	1.155288	-0.667515	99
Es	-1.236711	-2.027882	1.530067	99
Es	-1.763890	-1.710574	1.452888	99
Es	1.370708	2.483490	-0.595288	99
Es	1.033657	0.475404	-0.666821	99
Es	1.805593	2.319210	-1.003505	99
Es	-0.517714	-0.525845	-0.348066	99
Es	1.900235	2.922790	-0.666799	99
Es	-1.598185	-1.872882	2.101528	99
Es	0.514092	0.322588	-0.211769	99
Es	-1.238417	-1.570643	0.994932	99
Es	-0.709915	0.710649	-0.185722	99
Es	-0.799891	-1.209507	-0.358959	99
Es	1.502782	1.800390	-0.666801	99
Es	2.131240	3.578386	-0.665875	99
37
Properties=species:S:1:pos:R:3:Z:I:1 energy=-268.5113736377575 field_type=dipole dipole="0.000000 0.000000 0.000000" charge=0
C	-1.598124	-1.872834	2.101331	6
C	-1.238474	-1.570695	0.995201	6
C	-0.799864	-1.209525	-0.359089	6
C	-0.237964	0.180335	-0.358909	6
C	1.033536	0.475296	-0.666799	6
C	1.502866	1.800645	-0.666799	6
C	1.900146	2.922545	-0.666799	6
H	-1.914304	-2.137694	3.084221	1
H	-1.648004	-1.249315	-1.051709	1
H	-0.060924	-1.935915	-0.716439	1
H	-0.930314	0.980536	-0.102769	1
H	1.737176	-0.310395	-0.926389	1
H	2.254246	3.927016	-0.665049	1
Es	0.351901	0.383058	-0.833595	99
Es	-1.103240	-1.814817	1.638347	99
Es	1.629450	2.380301	-0.316788	99
Es	1.033659	0.475408	-0.666827	99
Es	1.450750	2.444163	-0.877513	99
Es	1.900230	2.922795	-0.666801	99
Es	-0.705239	0.707765	-0.183377	99
Es	-1.598195	-1.872890	2.101550	99
Es	-1.362267	-1.231981	-0.802694	99
Es	-0.799890	-1.209508	-0.358956	99
Es	2.013098	2.256114	-0.803574	99
Es	1.505389	-0.038250	-0.844721	99
Es	-1.809983	-2.051353	2.738793	99
Es	0.513956	0.320144	-0.210089	99
Es	2.137242	3.577437	-0.671451	99
Es	-1.650552	-1.970868	1.412682	99
Es	-0.516737	-0.523883	-0.348374	99
Es	1.502770	1.800390	-0.666795	99
Es	-0.238062	0.180252	-0.358883	99
Es	-1.238360	-1.570619	0.994940	99
Es	-1.509659	-1.381430	1.616111	99
Es	-1.023591	-1.388629	0.345243	99
Es	-0.309749	-1.692378	-0.583325	99
Es	1.276350	1.158607	-0.668490	99
37
Properties=species:S:1:pos:R:3:Z:I:1 energy=-268.5113736377575 field_type=dipole dipole="0.000000 0.000000 0.000000" charge=0
C	-1.598124	-1.872834	2.101331	6
C	-1.238474	-1.570695	0.995201	6
C	-0.799864	-1.209525	-0.359089	6
C	-0.237964	0.180335	-0.358909	6
C	1.033536	0.475296	-0.666799	6
C	1.502866	1.800645	-0.666799	6
C	1.900146	2.922545	-0.666799	6
H	-1.914304	-2.137694	3.084221	1
H	-1.648004	-1.249315	-1.051709	1
H	-0.060924	-1.935915	-0.716439	1
H	-0.930314	0.980536	-0.102769	1
H	1.737176	-0.310395	-0.926389	1
H	2.254246	3.927016	-0.665049	1
Es	1.448392	2.446123	-0.850676	99
Es	-1.160993	-1.882808	1.600008	99
Es	0.513836	0.318675	-0.209412	99
Es	1.502769	1.800387	-0.666797	99
Es	-1.402143	-1.370084	1.655328	99
Es	-1.238369	-1.570610	0.994933	99
Es	-0.516002	-0.523059	-0.348893	99
Es	2.139710	3.576516	-0.674213	99
Es	-1.699271	-1.912320	1.412974	99
Es	1.275202	1.160189	-0.668068	99
Es	-1.022605	-1.388341	0.347585	99
Es	1.033659	0.475408	-0.666828	99
Es	0.352311	0.384158	-0.833276	99
Es	-1.358966	-1.232630	-0.801414	99
Es	-1.813671	-2.055820	2.735462	99
Es	-1.598204	-1.872907	2.101549	99
Es	1.502157	-0.036189	-0.845629	99
Es	1.900241	2.922801	-0.666807	99
Es	-0.238064	0.180251	-0.358886	99
Es	-0.312936	-1.690745	-0.582921	99
Es	2.002355	2.258844	-0.831734	99
Es	-0.799890	-1.209507	-0.358959	99
Es	1.642495	2.375596	-0.315255	99
Es	-0.702740	0.705896	-0.182660	99
37
Properties=species:S:1:pos:R:3:Z:I:1 energy=-268.5113736377575 field_type=dipole dipole="0.000000 0.000000 0.000000" charge=0
C	-1.598124	-1.872834	2.101331	6
C	-1.238474	-1.570695	0.995201	6
C	-0.799864	-1.209525	-0.359089	6
C	-0.237964	0.180335	-0.358909	6
C	1.033536	0.475296	-0.666799	6
C	1.502866	1.800645	-0.666799	6
C	1.900146	2.922545	-0.666799	6
H	-1.914304	-2.137694	3.084221	1
H	-1.648004	-1.249315	-1.051709	1
H	-0.060924	-1.935915	-0.716439	1
H	-0.930314	0.980536	-0.102769	1
H	1.737176	-0.310395	-0.926389	1
H	2.254246	3.927016	-0.665049	1
Es	-0.314951	-1.690069	-0.582833	99
Es	-1.023501	-1.387677	0.348921	99
Es	-0.799890	-1.209505	-0.358957	99
Es	1.502764	1.800389	-0.666796	99
Es	0.513580	0.317213	-0.209402	99
Es	-1.356113	-1.376948	1.669379	99
Es	2.014270	2.255325	-0.801908	99
Es	2.140865	3.575942	-0.676056	99
Es	-1.598191	-1.872904	2.101547	99
Es	-1.355723	-1.232573	-0.799813	99
Es	1.033658	0.475409	-0.666827	99
Es	1.275117	1.160827	-0.667802	99
Es	-0.515727	-0.522540	-0.349371	99
Es	1.900252	2.922796	-0.666812	99
Es	-0.238063	0.180249	-0.358879	99
Es	1.476392	2.433684	-0.872321	99
Es	-0.700830	0.704661	-0.182065	99
Es	-1.194592	-1.894713	1.585195	99
Es	1.602171	2.391792	-0.323302	99
Es	0.352832	0.385020	-0.832998	99
Es	-1.710402	-1.892549	1.414872	99
Es	-1.238383	-1.570621	0.994933	99
Es	1.499940	-0.034485	-0.846007	99
Es	-1.816203	-2.058895	2.732717	99
37
Properties=species:S:1:pos:R:3:Z:I:1 energy=-268.5113736377575 field_type=dipole dipole="0.000000 0.000000 0.000000" charge=0
C	-1.598124	-1.872834	2.101331	6
C	-1.238474	-1.570695	0.995201	6
C	-0.799864	-1.209525	-0.359089	6
C	-0.237964	0.180335	-0.358909	6
C	1.033536	0.475296	-0.666799	6
C	1.502866	1.800645	-0.666799	6
C	1.900146	2.922545	-0.666799	6
H	-1.914304	-2.137694	3.084221	1
H	-1.648004	-1.249315	-1.051709	1
H	-0.060924	-1.935915	-0.716439	1
H	-0.930314	0.980536	-0.102769	1
H	1.737176	-0.310395	-0.926389	1
H	2.254246	3.927016	-0.665049	1
Es	1.033655	0.475411	-0.666838	99
Es	-1.201895	-1.877766	1.588318	99
Es	1.502754	1.800395	-0.666810	99
Es	-0.799888	-1.209506	-0.358956	99
Es	-1.359782	-1.376483	1.668335	99
Es	1.468974	2.437610	-0.851338	99
Es	-0.515438	-0.522306	-0.349825	99
Es	-1.353424	-1.232643	-0.799078	99
Es	1.498586	-0.033648	-0.845833	99
Es	-1.238363	-1.570615	0.994934	99
Es	-1.023706	-1.386743	0.350423	99
Es	2.142043	3.575232	-0.677188	99
Es	-1.598214	-1.872912	2.101542	99
Es	-1.698789	-1.909955	1.413259	99
Es	1.618081	2.385358	-0.320981	99
Es	-0.316421	-1.689257	-0.582261	99
Es	2.005781	2.257792	-0.825393	99
Es	-0.699742	0.703751	-0.182293	99
Es	0.352951	0.385397	-0.832825	99
Es	-0.238062	0.180251	-0.358878	99
Es	1.900250	2.922800	-0.666813	99
Es	0.513510	0.316977	-0.209113	99
Es	-1.818329	-2.060789	2.730335	99
Es	1.274742	1.161474	-0.667312	99
37
Properties=species:S:1:pos:R:3:Z:I:1 energy=-268.5113736377575 field_type=dipole dipole="0.000000 0.000000 0.000000" charge=0
C	-1.598124	-1.872834	2.101331	6
C	-1.238474	-1.570695	0.995201	6
C	-0.799864	-1.209525	-0.359089	6
C	-0.237964	0.180335	-0.358909	6
C	1.033536	0.475296	-0.666799	6
C	1.502866	1.800645	-0.666799	6
C	1.900146	2.922545	-0.666799	6
H	-1.914304	-2.137694	3.084221	1
H	-1.648004	-1.249315	-1.051709	1
H	-0.060924	-1.935915	-0.716439	1
H	-0.930314	0.980536	-0.102769	1
H	1.737176	-0.310395	-0.926389	1
H	2.254246	3.927016	-0.665049	1
Es	-0.698300	0.702575	-0.181920	99
Es	-0.515138	-0.522223	-0.350134	99
Es	-0.317950	-1.688350	-0.582147	99
Es	1.850189	2.298039	-0.414869	99
Es	1.502750	1.800396	-0.666802	99
Es	-1.238364	-1.570609	0.994937	99
Es	0.352942	0.386368	-0.832956	99
Es	-1.225652	-1.863967	1.584781	99
Es	-1.351529	-1.232472	-0.798101	99
Es	1.371058	2.484726	-0.607453	99
Es	2.142891	3.574656	-0.677948	99
Es	-1.024309	-1.386767	0.351144	99
Es	-1.819439	-2.061707	2.729236	99
Es	1.871749	2.297647	-0.976395	99
Es	-0.799890	-1.209507	-0.358955	99
Es	1.900237	2.922804	-0.666812	99
Es	-0.238060	0.180250	-0.358877	99
Es	-1.341781	-1.381143	1.672787	99
Es	0.513535	0.315896	-0.208612	99
Es	1.496928	-0.032271	-0.846250	99
Es	1.033650	0.475412	-0.666852	99
Es	-1.692465	-1.919154	1.412641	99
Es	1.274421	1.162128	-0.666581	99
Es	-1.598201	-1.872900	2.101551	99
37
Properties=species:S:1:pos:R:3:Z:I:1 energy=-268.5113736377575 field_type=dipole dipole="0.000000 0.000000 0.000000" charge=0
C	-1.598124	-1.872834	2.101331	6
C	-1.238474	-1.570695	0.995201	6
C	-0.799864	-1.209525	-0.359089	6
C	-0.237964	0.180335	-0.358909	6
C	1.033536	0.475296	-0.666799	6
C	1.502866	1.800645	-0.666799	6
C	1.900146	2.922545	-0.666799	6
H	-1.914304	-2.137694	3.084221	1
H	-1.648004	-1.249315	-1.051709	1
H	-0.060924	-1.935915	-0.716439	1
H	-0.930314	0.980536	-0.102769	1
H	1.737176	-0.310395	-0.926389	1
H	2.254246	3.927016	-0.665049	1
Es	0.353673	0.385884	-0.832563	99
Es	-1.145173	-1.526052	1.701790	99
Es	-0.515220	-0.521940	-0.350396	99
Es	1.485257	2.430653	-0.854297	99
Es	0.513089	0.316074	-0.209042	99
Es	1.597604	2.393450	-0.326855	99
Es	1.496822	-0.032028	-0.845509	99
Es	-1.024713	-1.384482	0.353108	99
Es	-1.617957	-1.581451	1.533854	99
Es	2.142753	3.574597	-0.679087	99
Es	-1.598214	-1.872903	2.101548	99
Es	-1.238361	-1.570598	0.994942	99
Es	1.502752	1.800392	-0.666773	99
Es	1.274801	1.162090	-0.666497	99
Es	-0.238062	0.180249	-0.358878	99
Es	-1.820615	-2.063708	2.727010	99
Es	1.900249	2.922801	-0.666814	99
Es	-0.799889	-1.209506	-0.358957	99
Es	-0.698339	0.702464	-0.182432	99
Es	-1.496331	-2.057641	1.434175	99
Es	-0.318295	-1.688107	-0.582002	99
Es	1.033658	0.475411	-0.666834	99
Es	-1.349925	-1.232577	-0.797263	99
Es	2.009710	2.256755	-0.816817	99
37
Properties=species:S:1:pos:R:3:Z:I:1 energy=-268.5113736377575 field_type=dipole dipole="0.000000 0.000000 0.000000" charge=0
C	-1.598124	-1.872834	2.101331	6
C	-1.238474	-1.570695	0.995201	6
C	-0.799864	-1.209525	-0.359089	6
C	-0.237964	0.180335	-0.358909	6
C	1.033536	0.475296	-0.666799	6
C	1.502866	1.800645	-0.666799	6
C	1.900146	2.922545	-0.666799	6
H	-1.914304	-2.137694	3.084221	1
H	-1.648004	-1.249315	-1.051709	1
H	-0.060924	-1.935915	-0.716439	1
H	-0.930314	0.980536	-0.102769	1
H	1.737176	-0.310395	-0.926389	1
H	2.254246	3.927016	-0.665049	1
Es	-0.799888	-1.209505	-0.358957	99
Es	-0.697324	0.701504	-0.182429	99
Es	-0.238063	0.180248	-0.358878	99
Es	-1.024995	-1.385659	0.352662	99
Es	2.143537	3.574036	-0.679538	99
Es	-1.238375	-1.570604	0.994935	99
Es	1.495368	-0.030659	-0.845611	99
Es	-0.514991	-0.521979	-0.350754	99
Es	1.274853	1.162340	-0.666188	99
Es	-1.328085	-1.386550	1.675830	99
Es	-1.349155	-1.232813	-0.797285	99
Es	1.861178	2.301176	-0.981543	99
Es	0.513692	0.315346	-0.208077	99
Es	1.502759	1.800386	-0.666787	99
Es	-1.598219	-1.872915	2.101542	99
Es	1.033654	0.475411	-0.666841	99
Es	-1.820774	-2.064396	2.726479	99
Es	-1.688587	-1.921941	1.413439	99
Es	1.900239	2.922808	-0.666819	99
Es	1.374070	2.483495	-0.574851	99
Es	-1.242592	-1.855513	1.581608	99
Es	-0.319555	-1.686823	-0.581347	99
Es	0.353132	0.386424	-0.833197	99
Es	1.857394	2.296011	-0.441981	99
37
Properties=species:S:1:pos:R:3:Z:I:1 energy=-268.5113736377575 field_type=dipole dipole="0.000000 0.000000 0.000000" charge=0
C	-1.598124	-1.872834	2.101331	6
C	-1.238474	-1.570695	0.995201	6
C	-0.799864	-1.209525	-0.359089	6
C	-0.237964	0.180335	-0.358909	6
C	1.033536	0.475296	-0.666799	6
C	1.502866	1.800645	-0.666799	6
C	1.900146	2.922545	-0.666799	6
H	-1.914304	-2.137694	3.084221	1
H	-1.648004	-1.249315	-1.051709	1
H	-0.060924	-1.935915	-0.716439	1
H	-0.930314	0.980536	-0.102769	1
H	1.737176	-0.310395	-0.926389	1
H	2.254246	3.927016	-0.665049	1
Es	-1.598218	-1.872910	2.101545	99
Es	1.494788	-0.030201	-0.845718	99
Es	-1.821034	-2.065132	2.725871	99
Es	-0.799890	-1.209505	-0.358957	99
Es	1.033655	0.475409	-0.666836	99
Es	-1.347852	-1.232632	-0.796501	99
Es	1.274796	1.162475	-0.666202	99
Es	1.848103	2.298761	-0.436955	99
Es	-1.155046	-1.512773	1.701116	99
Es	0.513582	0.315092	-0.208024	99
Es	2.143549	3.573841	-0.680415	99
Es	-1.025459	-1.384968	0.353608	99
Es	1.371995	2.484092	-0.586390	99
Es	0.353375	0.386677	-0.832940	99
Es	1.872592	2.297882	-0.974743	99
Es	-1.238355	-1.570593	0.994942	99
Es	1.900253	2.922799	-0.666819	99
Es	-0.514787	-0.521964	-0.350864	99
Es	-1.591360	-1.600082	1.538059	99
Es	-0.238058	0.180248	-0.358871	99
Es	-0.696779	0.701014	-0.182432	99
Es	-1.513025	-2.051724	1.431050	99
Es	1.502755	1.800390	-0.666776	99
Es	-0.320306	-1.686370	-0.581338	99
37
Properties=species:S:1:pos:R:3:Z:I:1 energy=-268.5113736377575 field_type=dipole dipole="0.000000 0.000000 0.000000" charge=0
C	-1.598124	-1.872834	2.101331	6
C	-1.238474	-1.570695	0.995201	6
C	-0.799864	-1.209525	-0.359089	6
C	-0.237964	0.180335	-0.358909	6
C	1.033536	0.475296	-0.666799	6
C	1.502866	1.800645	-0.666799	6
C	1.900146	2.922545	-0.666799	6
H	-1.914304	-2.137694	3.084221	1
H	-1.648004	-1.249315	-1.051709	1
H	-0.060924	-1.935915	-0.716439	1
H	-0.930314	0.980536	-0.102769	1
H	1.737176	-0.310395	-0.926389	1
H	2.254246	3.927016	-0.665049	1
Es	-1.821674	-2.066027	2.724606	99
Es	-0.799884	-1.209507	-0.358955	99
Es	-0.238060	0.180247	-0.358873	99
Es	1.374905	2.482955	-0.568932	99
Es	-0.320863	-1.685807	-0.581133	99
Es	-1.253496	-1.848441	1.580093	99
Es	-1.320626	-1.390060	1.677108	99
Es	1.494407	-0.029641	-0.845283	99
Es	-1.025563	-1.385223	0.353602	99
Es	2.143861	3.573663	-0.680551	99
Es	1.852327	2.297644	-0.450288	99
Es	-1.238386	-1.570632	0.994940	99
Es	1.865337	2.300202	-0.978825	99
Es	-1.684718	-1.925361	1.414104	99
Es	1.502755	1.800388	-0.666781	99
Es	-0.696461	0.700553	-0.182640	99
Es	1.274991	1.162504	-0.665957	99
Es	-1.347456	-1.232638	-0.796440	99
Es	-0.514606	-0.522029	-0.350938	99
Es	1.033654	0.475411	-0.666838	99
Es	1.900253	2.922793	-0.666847	99
Es	0.353214	0.386803	-0.833396	99
Es	0.513574	0.314948	-0.207908	99
Es	-1.598211	-1.872915	2.101547	99
37
Properties=species:S:1:pos:R:3:Z:I:1 energy=-268.5113736377575 field_type=dipole dipole="0.000000 0.000000 0.000000" charge=0
C	-1.598124	-1.872834	2.101331	6
C	-1.238474	-1.570695	0.995201	6
C	-0.799864	-1.209525	-0.359089	6
C	-0.237964	0.180335	-0.358909	6
C	1.033536	0.475296	-0.666799	6
C	1.502866	1.800645	-0.666799	6
C	1.900146	2.922545	-0.666799	6
H	-1.914304	-2.137694	3.084221	1
H	-1.648004	-1.249315	-1.051709	1
H	-0.060924	-1.935915	-0.716439	1
H	-0.930314	0.980536	-0.102769	1
H	1.737176	-0.310395	-0.926389	1
H	2.254246	3.927016	-0.665049	1
Es	-0.799890	-1.209505	-0.358955	99
Es	1.501516	2.423976	-0.852084	99
Es	-1.685532	-1.921640	1.415568	99
Es	1.033655	0.475411	-0.666841	99
Es	0.512601	0.314954	-0.209070	99
Es	1.579332	2.400549	-0.333207	99
Es	-1.346119	-1.232328	-0.795410	99
Es	2.143734	3.573800	-0.680472	99
Es	-0.238060	0.180247	-0.358873	99
Es	1.502757	1.800388	-0.666784	99
Es	-0.514860	-0.521811	-0.351072	99
Es	1.900251	2.922800	-0.666823	99
Es	-1.026104	-1.384088	0.354506	99
Es	-1.325408	-1.389281	1.675655	99
Es	-1.823156	-2.067364	2.722245	99
Es	1.494865	-0.030206	-0.844956	99
Es	0.354261	0.386617	-0.832570	99
Es	-1.238362	-1.570599	0.994938	99
Es	2.011539	2.256382	-0.812839	99
Es	-0.320649	-1.686368	-0.581449	99
Es	1.275061	1.162509	-0.665846	99
Es	-1.247141	-1.852801	1.580882	99
Es	-1.598239	-1.872945	2.101516	99
Es	-0.696777	0.701132	-0.182650	99
37
Properties=species:S:1:pos:R:3:Z:I:1 energy=-268.5113736377575 field_type=dipole dipole="0.000000 0.000000 0.000000" charge=0
C	-1.598124	-1.872834	2.101331	6
C	-1.238474	-1.570695	0.995201	6
C	-0.799864	-1.209525	-0.359089	6
C	-0.237964	0.180335	-0.358909	6
C	1.033536	0.475296	-0.666799	6
C	1.502866	1.800645	-0.666799	6
C	1.900146	2.922545	-0.666799	6
H	-1.914304	-2.137694	3.084221	1
H	-1.648004	-1.249315	-1.051709	1
H	-0.060924	-1.935915	-0.716439	1
H	-0.930314	0.980536	-0.102769	1
H	1.737176	-0.310395	-0.926389	1
H	2.254246	3.927016	-0.665049	1
Es	1.493735	-0.029054	-0.845120	99
Es	2.143905	3.573358	-0.681648	99
Es	0.353842	0.386847	-0.833002	99
Es	-1.821894	-2.067309	2.723543	99
Es	-1.238370	-1.570598	0.994935	99
Es	1.874966	2.297459	-0.972408	99
Es	-1.026169	-1.384341	0.354783	99
Es	-0.514535	-0.521926	-0.351146	99
Es	1.372582	2.483632	-0.578868	99
Es	1.845003	2.299776	-0.446607	99
Es	-1.524118	-2.046071	1.429791	99
Es	-1.598214	-1.872903	2.101546	99
Es	-1.161611	-1.505900	1.700004	99
Es	1.900247	2.922799	-0.666830	99
Es	1.502753	1.800390	-0.666775	99
Es	-0.321535	-1.685347	-0.581016	99
Es	-1.345663	-1.232508	-0.795401	99
Es	-1.573587	-1.612151	1.540878	99
Es	1.033655	0.475410	-0.666839	99
Es	-0.799892	-1.209506	-0.358964	99
Es	1.275077	1.162642	-0.665842	99
Es	-0.238061	0.180247	-0.358873	99
Es	0.513211	0.314518	-0.208154	99
Es	-0.696051	0.700361	-0.182573	99
37
Properties=species:S:1:pos:R:3:Z:I:1 energy=-268.5113736377575 field_type=dipole dipole="0.000000 0.000000 0.000000" charge=0
C	-1.598124	-1.872834	2.101331	6
C	-1.238474	-1.570695	0.995201	6
C	-0.799864	-1.209525	-0.359089	6
C	-0.237964	0.180335	-0.358909	6
C	1.033536	0.475296	-0.666799	6
C	1.502866	1.800645	-0.666799	6
C	1.900146	2.922545	-0.666799	6
H	-1.914304	-2.137694	3.084221	1
H	-1.648004	-1.249315	-1.051709	1
H	-0.060924	-1.935915	-0.716439	1
H	-0.930314	0.980536	-0.102769	1
H	1.737176	-0.310395	-0.926389	1
H	2.254246	3.927016	-0.665049	1
Es	-0.799889	-1.209505	-0.358957	99
Es	1.493503	-0.029147	-0.845668	99
Es	-1.238361	-1.570593	0.994941	99
Es	1.892781	2.292076	-0.961299	99
Es	0.513106	0.314132	-0.208540	99
Es	-1.598221	-1.872918	2.101541	99
Es	1.033657	0.475411	-0.666832	99
Es	1.369149	2.484789	-0.605016	99
Es	1.830561	2.304027	-0.431687	99
Es	-1.532917	-2.042479	1.428179	99
Es	-0.695794	0.700424	-0.182018	99
Es	-0.321670	-1.685635	-0.581484	99
Es	-1.560136	-1.621030	1.542994	99
Es	1.900246	2.922803	-0.666826	99
Es	-1.166186	-1.500641	1.699504	99
Es	2.143928	3.573258	-0.681867	99
Es	-1.027083	-1.384627	0.354435	99
Es	-1.822191	-2.067195	2.723492	99
Es	1.274952	1.162729	-0.665860	99
Es	1.502751	1.800392	-0.666772	99
Es	-0.514624	-0.521840	-0.351361	99
Es	0.353978	0.387245	-0.832515	99
Es	-0.238057	0.180248	-0.358869	99
Es	-1.344210	-1.232097	-0.794104	99
