39
Properties=species:S:1:pos:R:3:Z:I:1 energy=-342.6481753591959 field_type=dipole dipole="0.000000 0.000000 0.000000" charge=0
C	-1.848308	-0.202315	-0.002891	6
C	-0.368908	-0.157005	-0.000081	6
C	0.437162	0.957945	-0.001041	6
O	0.215542	2.255685	-0.004311	8
O	1.748432	0.628425	0.001939	8
C	1.802252	-0.729605	0.004799	6
C	0.532092	-1.259575	0.003749	6
H	-2.281188	0.803425	0.006969	1
H	-2.215618	-0.737045	0.878379	1
H	-2.212388	-0.718535	-0.896491	1
H	1.113692	2.630075	-0.003641	1
H	2.794342	-1.159455	0.007299	1
H	0.282892	-2.312024	0.005319	1
Es	1.721882	0.624064	-0.246187	99
Es	-1.848243	-0.202314	-0.002891	99
Es	0.089896	2.296716	-0.259053	99
Es	0.356116	-1.966062	0.004724	99
Es	1.927344	0.791958	0.178254	99
Es	0.532077	-1.259600	0.003745	99
Es	2.470208	-1.017087	0.006707	99
Es	1.763427	0.125111	0.035952	99
Es	-0.368911	-0.156976	-0.000095	99
Es	0.690246	2.441180	-0.004599	99
Es	0.012083	0.324344	-0.327393	99
Es	1.802323	-0.729294	0.004799	99
Es	0.215840	2.255482	-0.004323	99
Es	1.748101	0.628177	0.001900	99
Es	0.314565	1.749084	-0.004083	99
Es	1.177740	-1.010659	-0.321664	99
Es	-2.090437	-0.566657	0.593476	99
Es	0.010669	0.327973	0.325791	99
Es	1.253048	0.742969	0.040462	99
Es	-2.134554	0.478010	0.003597	99
Es	0.437472	0.958228	-0.001036	99
Es	1.177376	-1.009460	0.329700	99
Es	-1.101528	-0.178104	-0.001181	99
Es	0.090065	2.296647	0.251712	99
Es	0.038990	-0.745789	0.002153	99
Es	-2.088179	-0.554219	-0.607507	99
39
Properties=species:S:1:pos:R:3:Z:I:1 energy=-342.6481753591959 field_type=dipole dipole="0.000000 0.000000 0.000000" charge=0
C	-1.848308	-0.202315	-0.002891	6
C	-0.368908	-0.157005	-0.000081	6
C	0.437162	0.957945	-0.001041	6
O	0.215542	2.255685	-0.004311	8
O	1.748432	0.628425	0.001939	8
C	1.802252	-0.729605	0.004799	6
C	0.532092	-1.259575	0.003749	6
H	-2.281188	0.803425	0.006969	1
H	-2.215618	-0.737045	0.878379	1
H	-2.212388	-0.718535	-0.896491	1
H	1.113692	2.630075	-0.003641	1
H	2.794342	-1.159455	0.007299	1
H	0.282892	-2.312024	0.005319	1
Es	1.176897	-1.010416	-0.317099	99
Es	0.356080	-1.968224	0.004702	99
Es	0.437473	0.958236	-0.001048	99
Es	0.072997	2.311144	0.231828	99
Es	0.693026	2.449926	-0.002727	99
Es	0.215741	2.255539	-0.004310	99
Es	1.994807	0.848513	0.004024	99
Es	1.175567	-1.008327	0.326082	99
Es	0.011914	0.325808	-0.323256	99
Es	1.245143	0.753288	0.003399	99
Es	-2.090473	-0.566719	0.590774	99
Es	-2.088075	-0.553892	-0.604680	99
Es	0.010994	0.325874	0.322758	99
Es	1.748119	0.628169	0.001933	99
Es	-0.368919	-0.156984	-0.000087	99
Es	1.655924	0.566852	-0.004741	99
Es	-2.137007	0.478735	0.003596	99
Es	0.041871	-0.744753	0.001202	99
Es	1.770572	0.116653	0.005044	99
Es	-1.100588	-0.178917	-0.001584	99
Es	0.306969	1.742849	0.004528	99
Es	-1.848246	-0.202314	-0.002890	99
Es	0.532070	-1.259604	0.003746	99
Es	0.111883	2.279774	-0.249775	99
Es	1.802329	-0.729285	0.004795	99
Es	2.470547	-1.018206	0.006752	99
39
Properties=species:S:1:pos:R:3:Z:I:1 energy=-342.6481753591959 field_type=dipole dipole="0.000000 0.000000 0.000000" charge=0
C	-1.848308	-0.202315	-0.002891	6
C	-0.368908	-0.157005	-0.000081	6
C	0.437162	0.957945	-0.001041	6
O	0.215542	2.255685	-0.004311	8
O	1.748432	0.628425	0.001939	8
C	1.802252	-0.729605	0.004799	6
C	0.532092	-1.259575	0.003749	6
H	-2.281188	0.803425	0.006969	1
H	-2.215618	-0.737045	0.878379	1
H	-2.212388	-0.718535	-0.896491	1
H	1.113692	2.630075	-0.003641	1
H	2.794342	-1.159455	0.007299	1
H	0.282892	-2.312024	0.005319	1
Es	-0.049514	2.395347	0.063150	99
Es	-1.100495	-0.179140	-0.001963	99
Es	2.470066	-1.017744	0.007471	99
Es	0.295781	1.738199	0.018391	99
Es	-1.848245	-0.202315	-0.002890	99
Es	0.245817	2.191444	-0.101777	99
Es	1.175078	-1.010291	-0.318308	99
Es	0.013056	0.327082	-0.324056	99
Es	1.802329	-0.729287	0.004811	99
Es	1.246351	0.751203	-0.000930	99
Es	-2.088522	-0.553923	-0.605264	99
Es	0.215904	2.255439	-0.004252	99
Es	0.693086	2.458722	0.004013	99
Es	0.437474	0.958235	-0.001041	99
Es	0.355038	-1.968715	0.004579	99
Es	0.012030	0.323850	0.323523	99
Es	1.768356	0.117056	0.007938	99
Es	-0.368921	-0.156985	-0.000081	99
Es	1.747979	0.628110	0.002116	99
Es	1.657324	0.568171	-0.007984	99
Es	1.174032	-1.008362	0.326903	99
Es	0.042978	-0.744487	0.001311	99
Es	0.532072	-1.259604	0.003748	99
Es	1.995842	0.850406	0.008660	99
Es	-2.090665	-0.566407	0.591241	99
Es	-2.136616	0.477719	0.003654	99
39
Properties=species:S:1:pos:R:3:Z:I:1 energy=-342.6481753591959 field_type=dipole dipole="0.000000 0.000000 0.000000" charge=0
C	-1.848308	-0.202315	-0.002891	6
C	-0.368908	-0.157005	-0.000081	6
C	0.437162	0.957945	-0.001041	6
O	0.215542	2.255685	-0.004311	8
O	1.748432	0.628425	0.001939	8
C	1.802252	-0.729605	0.004799	6
C	0.532092	-1.259575	0.003749	6
H	-2.281188	0.803425	0.006969	1
H	-2.215618	-0.737045	0.878379	1
H	-2.212388	-0.718535	-0.896491	1
H	1.113692	2.630075	-0.003641	1
H	2.794342	-1.159455	0.007299	1
H	0.282892	-2.312024	0.005319	1
Es	1.174290	-1.009570	-0.317700	99
Es	1.173053	-1.008594	0.326347	99
Es	-0.368924	-0.156988	-0.000097	99
Es	1.996466	0.851534	-0.000286	99
Es	0.012443	0.326473	0.322906	99
Es	1.747986	0.628086	0.001644	99
Es	0.252979	2.190334	0.022378	99
Es	1.657643	0.569038	0.003434	99
Es	-1.848245	-0.202315	-0.002891	99
Es	1.246946	0.749705	0.003146	99
Es	0.013441	0.323718	-0.323471	99
Es	0.532069	-1.259606	0.003746	99
Es	1.802328	-0.729287	0.004812	99
Es	0.354591	-1.969240	0.004858	99
Es	-2.088447	-0.553421	-0.604605	99
Es	0.293192	1.735941	-0.008390	99
Es	-0.055183	2.398557	-0.022707	99
Es	0.693149	2.460923	-0.005884	99
Es	-1.100187	-0.179478	-0.001446	99
Es	1.767413	0.117455	0.001596	99
Es	0.437476	0.958236	-0.001040	99
Es	0.044168	-0.744026	0.001717	99
Es	0.217098	2.253374	-0.005799	99
Es	-2.137126	0.477381	0.003633	99
Es	2.469955	-1.017857	0.006293	99
Es	-2.090961	-0.566651	0.590766	99
39
Properties=species:S:1:pos:R:3:Z:I:1 energy=-342.6481753591959 field_type=dipole dipole="0.000000 0.000000 0.000000" charge=0
C	-1.848308	-0.202315	-0.002891	6
C	-0.368908	-0.157005	-0.000081	6
C	0.437162	0.957945	-0.001041	6
O	0.215542	2.255685	-0.004311	8
O	1.748432	0.628425	0.001939	8
C	1.802252	-0.729605	0.004799	6
C	0.532092	-1.259575	0.003749	6
H	-2.281188	0.803425	0.006969	1
H	-2.215618	-0.737045	0.878379	1
H	-2.212388	-0.718535	-0.896491	1
H	1.113692	2.630075	-0.003641	1
H	2.794342	-1.159455	0.007299	1
H	0.282892	-2.312024	0.005319	1
Es	2.470041	-1.018101	0.006430	99
Es	-0.054285	2.397740	-0.006998	99
Es	1.802329	-0.729283	0.004806	99
Es	-0.368919	-0.156987	-0.000088	99
Es	0.012651	0.325242	0.321836	99
Es	1.247730	0.748874	0.000350	99
Es	0.254084	2.189308	0.001987	99
Es	1.172466	-1.008265	0.325358	99
Es	0.045385	-0.743611	0.001963	99
Es	0.291788	1.735720	-0.005242	99
Es	-2.137946	0.477272	0.003607	99
Es	-2.091028	-0.566600	0.589857	99
Es	1.658147	0.569647	0.003857	99
Es	1.173534	-1.009535	-0.316649	99
Es	-1.099805	-0.179748	-0.001471	99
Es	1.747857	0.628008	0.001571	99
Es	-1.848245	-0.202316	-0.002894	99
Es	0.216684	2.254090	-0.006139	99
Es	0.437477	0.958240	-0.001046	99
Es	1.997098	0.852108	0.001921	99
Es	0.013711	0.324370	-0.322597	99
Es	1.765950	0.117776	0.001841	99
Es	0.354150	-1.969642	0.004772	99
Es	0.532068	-1.259606	0.003749	99
Es	0.693032	2.462281	-0.004079	99
Es	-2.088342	-0.553262	-0.603741	99
39
Properties=species:S:1:pos:R:3:Z:I:1 energy=-342.6481753591959 field_type=dipole dipole="0.000000 0.000000 0.000000" charge=0
C	-1.848308	-0.202315	-0.002891	6
C	-0.368908	-0.157005	-0.000081	6
C	0.437162	0.957945	-0.001041	6
O	0.215542	2.255685	-0.004311	8
O	1.748432	0.628425	0.001939	8
C	1.802252	-0.729605	0.004799	6
C	0.532092	-1.259575	0.003749	6
H	-2.281188	0.803425	0.006969	1
H	-2.215618	-0.737045	0.878379	1
H	-2.212388	-0.718535	-0.896491	1
H	1.113692	2.630075	-0.003641	1
H	2.794342	-1.159455	0.007299	1
H	0.282892	-2.312024	0.005319	1
Es	-2.088399	-0.553389	-0.602931	99
Es	0.532068	-1.259606	0.003755	99
Es	0.012708	0.325295	0.320861	99
Es	1.765029	0.118122	0.004722	99
Es	1.802327	-0.729288	0.004793	99
Es	-1.848244	-0.202315	-0.002891	99
Es	2.470037	-1.018417	0.006568	99
Es	1.173093	-1.009409	-0.315649	99
Es	0.254950	2.187958	-0.004803	99
Es	0.215907	2.255450	-0.004331	99
Es	-0.052263	2.397377	-0.004938	99
Es	-0.368923	-0.156986	-0.000085	99
Es	1.171845	-1.007948	0.324278	99
Es	0.013787	0.323873	-0.321630	99
Es	1.658217	0.569924	-0.003200	99
Es	1.997608	0.852319	0.003102	99
Es	-1.099516	-0.180076	-0.001524	99
Es	0.046510	-0.743023	0.001858	99
Es	0.693099	2.462930	-0.003188	99
Es	0.437475	0.958238	-0.001043	99
Es	-2.138637	0.477043	0.003449	99
Es	1.248254	0.748403	0.002828	99
Es	-2.090920	-0.566276	0.589255	99
Es	0.289642	1.735415	-0.003186	99
Es	1.748044	0.628131	0.002134	99
Es	0.353917	-1.970023	0.004757	99
39
Properties=species:S:1:pos:R:3:Z:I:1 energy=-342.6481753591959 field_type=dipole dipole="0.000000 0.000000 0.000000" charge=0
C	-1.848308	-0.202315	-0.002891	6
C	-0.368908	-0.157005	-0.000081	6
C	0.437162	0.957945	-0.001041	6
O	0.215542	2.255685	-0.004311	8
O	1.748432	0.628425	0.001939	8
C	1.802252	-0.729605	0.004799	6
C	0.532092	-1.259575	0.003749	6
H	-2.281188	0.803425	0.006969	1
H	-2.215618	-0.737045	0.878379	1
H	-2.212388	-0.718535	-0.896491	1
H	1.113692	2.630075	-0.003641	1
H	2.794342	-1.159455	0.007299	1
H	0.282892	-2.312024	0.005319	1
Es	-0.368923	-0.156987	-0.000082	99
Es	0.014210	0.320398	-0.320903	99
Es	1.658409	0.570181	0.000588	99
Es	1.171365	-1.007682	0.323624	99
Es	1.764409	0.118265	0.002869	99
Es	1.248747	0.747928	0.001081	99
Es	-1.848246	-0.202315	-0.002891	99
Es	0.217576	2.252563	-0.001871	99
Es	0.288690	1.735400	-0.003661	99
Es	-0.051265	2.396727	-0.006210	99
Es	-2.091525	-0.567343	0.588420	99
Es	1.802327	-0.729286	0.004774	99
Es	-1.099284	-0.180324	-0.001522	99
Es	0.693038	2.463623	-0.003634	99
Es	-2.139394	0.476981	0.003464	99
Es	0.047341	-0.742665	0.001785	99
Es	0.012700	0.328373	0.319955	99
Es	0.532068	-1.259608	0.003748	99
Es	1.172608	-1.009327	-0.314842	99
Es	1.997825	0.852651	0.003061	99
Es	0.353629	-1.970261	0.004878	99
Es	0.437475	0.958238	-0.001040	99
Es	0.253321	2.190823	-0.005150	99
Es	-2.087579	-0.552165	-0.602054	99
Es	1.748067	0.628193	0.002003	99
Es	2.470026	-1.018660	0.006570	99
39
Properties=species:S:1:pos:R:3:Z:I:1 energy=-342.6481753591959 field_type=dipole dipole="0.000000 0.000000 0.000000" charge=0
C	-1.848308	-0.202315	-0.002891	6
C	-0.368908	-0.157005	-0.000081	6
C	0.437162	0.957945	-0.001041	6
O	0.215542	2.255685	-0.004311	8
O	1.748432	0.628425	0.001939	8
C	1.802252	-0.729605	0.004799	6
C	0.532092	-1.259575	0.003749	6
H	-2.281188	0.803425	0.006969	1
H	-2.215618	-0.737045	0.878379	1
H	-2.212388	-0.718535	-0.896491	1
H	1.113692	2.630075	-0.003641	1
H	2.794342	-1.159455	0.007299	1
H	0.282892	-2.312024	0.005319	1
Es	1.764293	0.118614	0.002448	99
Es	2.470040	-1.018862	0.006457	99
Es	0.216074	2.255153	-0.004901	99
Es	-2.140122	0.476855	0.003606	99
Es	0.353403	-1.970464	0.004828	99
Es	1.658963	0.570662	0.001454	99
Es	-0.368924	-0.156989	-0.000069	99
Es	0.014040	0.323268	-0.320095	99
Es	0.048145	-0.742125	0.001730	99
Es	0.437475	0.958239	-0.001038	99
Es	0.254868	2.188224	-0.001819	99
Es	-0.049907	2.396213	-0.007401	99
Es	0.532068	-1.259608	0.003750	99
Es	1.171802	-1.008697	-0.314172	99
Es	-2.090965	-0.566717	0.587672	99
Es	-1.099039	-0.180607	-0.001602	99
Es	-1.848246	-0.202316	-0.002891	99
Es	1.747717	0.627949	0.001419	99
Es	0.692896	2.464303	-0.003589	99
Es	0.013030	0.325206	0.319575	99
Es	1.248889	0.747121	0.001137	99
Es	0.287464	1.735208	-0.002707	99
Es	1.802328	-0.729286	0.004798	99
Es	-2.087896	-0.552633	-0.601415	99
Es	1.171364	-1.008146	0.322641	99
Es	1.997853	0.853154	0.003147	99
39
Properties=species:S:1:pos:R:3:Z:I:1 energy=-342.6481753591959 field_type=dipole dipole="0.000000 0.000000 0.000000" charge=0
C	-1.848308	-0.202315	-0.002891	6
C	-0.368908	-0.157005	-0.000081	6
C	0.437162	0.957945	-0.001041	6
O	0.215542	2.255685	-0.004311	8
O	1.748432	0.628425	0.001939	8
C	1.802252	-0.729605	0.004799	6
C	0.532092	-1.259575	0.003749	6
H	-2.281188	0.803425	0.006969	1
H	-2.215618	-0.737045	0.878379	1
H	-2.212388	-0.718535	-0.896491	1
H	1.113692	2.630075	-0.003641	1
H	2.794342	-1.159455	0.007299	1
H	0.282892	-2.312024	0.005319	1
Es	0.437475	0.958238	-0.001033	99
Es	-2.140697	0.476734	0.003668	99
Es	0.692892	2.464671	-0.003091	99
Es	0.048900	-0.741731	0.001248	99
Es	1.748087	0.628140	0.001808	99
Es	-0.048845	2.395912	-0.004405	99
Es	0.286383	1.735167	-0.004785	99
Es	0.216336	2.254710	-0.005266	99
Es	1.170788	-1.007621	0.322105	99
Es	-0.368924	-0.156987	-0.000083	99
Es	-1.848244	-0.202314	-0.002891	99
Es	1.763661	0.118773	0.000597	99
Es	0.254667	2.188650	-0.002843	99
Es	0.532068	-1.259607	0.003760	99
Es	-2.092406	-0.568917	0.586645	99
Es	0.013304	0.323063	0.319065	99
Es	1.802329	-0.729284	0.004797	99
Es	0.013879	0.325046	-0.319159	99
Es	1.658744	0.570675	0.003974	99
Es	-1.098860	-0.180847	-0.001612	99
Es	0.353194	-1.970619	0.004576	99
Es	2.470031	-1.019087	0.006616	99
Es	-2.086280	-0.550250	-0.600619	99
Es	1.171715	-1.008971	-0.313389	99
Es	1.249291	0.746944	-0.000973	99
Es	1.998126	0.853234	0.004250	99
39
Properties=species:S:1:pos:R:3:Z:I:1 energy=-342.6481753591959 field_type=dipole dipole="0.000000 0.000000 0.000000" charge=0
C	-1.848308	-0.202315	-0.002891	6
C	-0.368908	-0.157005	-0.000081	6
C	0.437162	0.957945	-0.001041	6
O	0.215542	2.255685	-0.004311	8
O	1.748432	0.628425	0.001939	8
C	1.802252	-0.729605	0.004799	6
C	0.532092	-1.259575	0.003749	6
H	-2.281188	0.803425	0.006969	1
H	-2.215618	-0.737045	0.878379	1
H	-2.212388	-0.718535	-0.896491	1
H	1.113692	2.630075	-0.003641	1
H	2.794342	-1.159455	0.007299	1
H	0.282892	-2.312024	0.005319	1
Es	0.352875	-1.970539	0.005165	99
Es	1.249620	0.747112	-0.003112	99
Es	0.049142	-0.741701	0.003587	99
Es	-2.083855	-0.546715	-0.599390	99
Es	0.016201	0.289376	-0.310125	99
Es	1.998635	0.852925	0.001812	99
Es	0.254614	2.188700	-0.000082	99
Es	0.692709	2.465245	-0.003909	99
Es	-2.095030	-0.572455	0.586250	99
Es	1.748097	0.628180	0.001925	99
Es	0.216365	2.254675	-0.005339	99
Es	0.285656	1.735132	0.001998	99
Es	0.010705	0.358115	0.307568	99
Es	1.170891	-1.007824	0.322044	99
Es	-0.368924	-0.156987	-0.000078	99
Es	1.658760	0.570844	0.002066	99
Es	0.437475	0.958239	-0.001047	99
Es	-1.098830	-0.180721	-0.001674	99
Es	-0.047835	2.395331	-0.013322	99
Es	0.532068	-1.259606	0.003749	99
Es	-1.848245	-0.202315	-0.002891	99
Es	1.802328	-0.729286	0.004801	99
Es	1.762855	0.118869	0.006781	99
Es	1.171882	-1.008254	-0.314119	99
Es	2.469977	-1.018964	0.007261	99
Es	-2.140522	0.476345	0.003039	99
39
Properties=species:S:1:pos:R:3:Z:I:1 energy=-342.6481753591959 field_type=dipole dipole="0.000000 0.000000 0.000000" charge=0
C	-1.848308	-0.202315	-0.002891	6
C	-0.368908	-0.157005	-0.000081	6
C	0.437162	0.957945	-0.001041	6
O	0.215542	2.255685	-0.004311	8
O	1.748432	0.628425	0.001939	8
C	1.802252	-0.729605	0.004799	6
C	0.532092	-1.259575	0.003749	6
H	-2.281188	0.803425	0.006969	1
H	-2.215618	-0.737045	0.878379	1
H	-2.212388	-0.718535	-0.896491	1
H	1.113692	2.630075	-0.003641	1
H	2.794342	-1.159455	0.007299	1
H	0.282892	-2.312024	0.005319	1
Es	0.692797	2.465368	-0.004233	99
Es	2.469928	-1.018863	0.007079	99
Es	0.009619	0.372618	0.295650	99
Es	0.254886	2.188100	0.003579	99
Es	1.171006	-1.007619	0.322327	99
Es	-1.098866	-0.180659	-0.001919	99
Es	-2.083674	-0.546371	-0.599115	99
Es	-2.095394	-0.572800	0.586742	99
Es	-2.140329	0.476012	0.002659	99
Es	0.049319	-0.741652	0.004679	99
Es	1.802328	-0.729284	0.004794	99
Es	-1.848245	-0.202315	-0.002891	99
Es	1.762871	0.118964	0.009187	99
Es	1.658724	0.571061	0.004054	99
Es	1.249933	0.746467	-0.005417	99
Es	0.532068	-1.259607	0.003750	99
Es	1.748117	0.628138	0.001995	99
Es	0.215933	2.255405	-0.004104	99
Es	-0.368923	-0.156985	-0.000052	99
Es	0.284606	1.735198	0.004513	99
Es	0.437475	0.958239	-0.001036	99
Es	0.352620	-1.970481	0.005418	99
Es	0.016996	0.274150	-0.299187	99
Es	-0.046700	2.394971	-0.020498	99
Es	1.172145	-1.007829	-0.314555	99
Es	1.998375	0.853494	-0.000458	99
39
Properties=species:S:1:pos:R:3:Z:I:1 energy=-342.6481753591959 field_type=dipole dipole="0.000000 0.000000 0.000000" charge=0
C	-1.848308	-0.202315	-0.002891	6
C	-0.368908	-0.157005	-0.000081	6
C	0.437162	0.957945	-0.001041	6
O	0.215542	2.255685	-0.004311	8
O	1.748432	0.628425	0.001939	8
C	1.802252	-0.729605	0.004799	6
C	0.532092	-1.259575	0.003749	6
H	-2.281188	0.803425	0.006969	1
H	-2.215618	-0.737045	0.878379	1
H	-2.212388	-0.718535	-0.896491	1
H	1.113692	2.630075	-0.003641	1
H	2.794342	-1.159455	0.007299	1
H	0.282892	-2.312024	0.005319	1
Es	1.171769	-1.008480	-0.313955	99
Es	-2.091970	-0.558296	-0.601237	99
Es	0.254852	2.188076	-0.013479	99
Es	0.016691	0.264521	0.288463	99
Es	-1.098791	-0.180650	-0.001544	99
Es	-0.368922	-0.156985	-0.000109	99
Es	1.250153	0.746108	0.006160	99
Es	-0.046272	2.394827	0.014823	99
Es	-2.087306	-0.560785	0.586597	99
Es	1.747728	0.627961	0.002361	99
Es	-1.848245	-0.202315	-0.002891	99
Es	1.998353	0.853748	0.007382	99
Es	0.009612	0.381621	-0.285184	99
Es	1.762688	0.119111	-0.005487	99
Es	0.692810	2.465371	-0.002303	99
Es	0.352323	-1.970435	0.003841	99
Es	0.532068	-1.259607	0.003750	99
Es	0.215919	2.255440	-0.004354	99
Es	0.284280	1.735311	-0.014732	99
Es	1.659134	0.571425	-0.000471	99
Es	0.437475	0.958240	-0.001041	99
Es	1.171690	-1.006501	0.323751	99
Es	0.049643	-0.741731	-0.002282	99
Es	2.469791	-1.018716	0.006001	99
Es	1.802327	-0.729282	0.004802	99
Es	-2.140189	0.475742	0.004097	99
39
Properties=species:S:1:pos:R:3:Z:I:1 energy=-342.6481753591959 field_type=dipole dipole="0.000000 0.000000 0.000000" charge=0
C	-1.848308	-0.202315	-0.002891	6
C	-0.368908	-0.157005	-0.000081	6
C	0.437162	0.957945	-0.001041	6
O	0.215542	2.255685	-0.004311	8
O	1.748432	0.628425	0.001939	8
C	1.802252	-0.729605	0.004799	6
C	0.532092	-1.259575	0.003749	6
H	-2.281188	0.803425	0.006969	1
H	-2.215618	-0.737045	0.878379	1
H	-2.212388	-0.718535	-0.896491	1
H	1.113692	2.630075	-0.003641	1
H	2.794342	-1.159455	0.007299	1
H	0.282892	-2.312024	0.005319	1
Es	0.254753	2.188245	0.006387	99
Es	0.532068	-1.259607	0.003748	99
Es	0.049707	-0.741648	0.005858	99
Es	-2.096419	-0.574023	0.586284	99
Es	2.469754	-1.018756	0.007468	99
Es	-1.848244	-0.202317	-0.002890	99
Es	0.008682	0.385088	0.281426	99
Es	-2.140291	0.475517	0.002506	99
Es	1.249976	0.746057	-0.003745	99
Es	0.692430	2.466178	-0.004525	99
Es	1.659061	0.571417	0.001191	99
Es	0.215966	2.255357	-0.004630	99
Es	1.171180	-1.007578	0.322440	99
Es	0.437475	0.958239	-0.001044	99
Es	0.352172	-1.970419	0.005529	99
Es	-2.082799	-0.545114	-0.598641	99
Es	1.172202	-1.007011	-0.315207	99
Es	-0.368924	-0.156987	-0.000086	99
Es	0.017741	0.260694	-0.285813	99
Es	-1.098798	-0.180543	-0.001879	99
Es	1.802328	-0.729283	0.004795	99
Es	-0.045753	2.394067	-0.024704	99
Es	1.998636	0.853604	-0.000500	99
Es	1.747845	0.628018	0.001556	99
Es	1.762630	0.119371	0.010811	99
Es	0.284235	1.735156	0.006629	99
39
Properties=species:S:1:pos:R:3:Z:I:1 energy=-342.6481753591959 field_type=dipole dipole="0.000000 0.000000 0.000000" charge=0
C	-1.848308	-0.202315	-0.002891	6
C	-0.368908	-0.157005	-0.000081	6
C	0.437162	0.957945	-0.001041	6
O	0.215542	2.255685	-0.004311	8
O	1.748432	0.628425	0.001939	8
C	1.802252	-0.729605	0.004799	6
C	0.532092	-1.259575	0.003749	6
H	-2.281188	0.803425	0.006969	1
H	-2.215618	-0.737045	0.878379	1
H	-2.212388	-0.718535	-0.896491	1
H	1.113692	2.630075	-0.003641	1
H	2.794342	-1.159455	0.007299	1
H	0.282892	-2.312024	0.005319	1
Es	1.802329	-0.729288	0.004801	99
Es	0.351985	-1.970332	0.005609	99
Es	1.172572	-1.007027	-0.315740	99
Es	1.658675	0.571480	0.004065	99
Es	1.761961	0.119375	0.013284	99
Es	0.217470	2.252800	-0.006158	99
Es	0.008206	0.391707	0.272209	99
Es	1.171302	-1.007215	0.322863	99
Es	0.017927	0.253487	-0.277121	99
Es	2.469655	-1.018600	0.007542	99
Es	-2.082912	-0.544956	-0.598985	99
Es	-0.368923	-0.156987	-0.000081	99
Es	1.748109	0.628174	0.001943	99
Es	0.283231	1.735030	0.005621	99
Es	-2.096550	-0.574174	0.586527	99
Es	-1.848245	-0.202316	-0.002890	99
Es	0.532067	-1.259608	0.003750	99
Es	0.253240	2.190836	0.008639	99
Es	0.049765	-0.741646	0.006273	99
Es	-0.044986	2.394546	-0.024171	99
Es	0.437475	0.958238	-0.001043	99
Es	1.250415	0.746408	-0.006897	99
Es	0.692700	2.465767	-0.004839	99
Es	-1.098852	-0.180460	-0.001812	99
Es	1.998965	0.853215	-0.003093	99
Es	-2.139967	0.475264	0.002664	99
39
Properties=species:S:1:pos:R:3:Z:I:1 energy=-342.6481753591959 field_type=dipole dipole="0.000000 0.000000 0.000000" charge=0
C	-1.848308	-0.202315	-0.002891	6
C	-0.368908	-0.157005	-0.000081	6
C	0.437162	0.957945	-0.001041	6
O	0.215542	2.255685	-0.004311	8
O	1.748432	0.628425	0.001939	8
C	1.802252	-0.729605	0.004799	6
C	0.532092	-1.259575	0.003749	6
H	-2.281188	0.803425	0.006969	1
H	-2.215618	-0.737045	0.878379	1
H	-2.212388	-0.718535	-0.896491	1
H	1.113692	2.630075	-0.003641	1
H	2.794342	-1.159455	0.007299	1
H	0.282892	-2.312024	0.005319	1
Es	1.998441	0.854071	0.007309	99
Es	0.008589	0.396197	-0.264319	99
Es	-0.044932	2.394110	0.017083	99
Es	0.351689	-1.970279	0.003613	99
Es	1.802328	-0.729285	0.004797	99
Es	-1.098820	-0.180704	-0.001462	99
Es	-2.086946	-0.560073	0.586526	99
Es	-2.139878	0.475116	0.004381	99
Es	0.254786	2.188185	-0.015871	99
Es	0.017365	0.248513	0.269040	99
Es	0.437475	0.958238	-0.001039	99
Es	0.692580	2.466036	-0.001415	99
Es	-2.092654	-0.558965	-0.601691	99
Es	1.748087	0.628156	0.002039	99
Es	1.172538	-1.009029	-0.314116	99
Es	1.762481	0.119447	-0.006802	99
Es	1.250414	0.745418	0.008785	99
Es	0.283378	1.735259	-0.015319	99
Es	0.215922	2.255424	-0.004415	99
Es	0.050075	-0.741506	-0.004015	99
Es	-0.368924	-0.156986	-0.000094	99
Es	-1.848245	-0.202315	-0.002891	99
Es	0.532068	-1.259607	0.003758	99
Es	1.171527	-1.004794	0.324490	99
Es	1.658667	0.571680	-0.001303	99
Es	2.469600	-1.018587	0.005892	99
39
Properties=species:S:1:pos:R:3:Z:I:1 energy=-342.6481753591959 field_type=dipole dipole="0.000000 0.000000 0.000000" charge=0
C	-1.848308	-0.202315	-0.002891	6
C	-0.368908	-0.157005	-0.000081	6
C	0.437162	0.957945	-0.001041	6
O	0.215542	2.255685	-0.004311	8
O	1.748432	0.628425	0.001939	8
C	1.802252	-0.729605	0.004799	6
C	0.532092	-1.259575	0.003749	6
H	-2.281188	0.803425	0.006969	1
H	-2.215618	-0.737045	0.878379	1
H	-2.212388	-0.718535	-0.896491	1
H	1.113692	2.630075	-0.003641	1
H	2.794342	-1.159455	0.007299	1
H	0.282892	-2.312024	0.005319	1
Es	-2.097244	-0.575101	0.586167	99
Es	2.469581	-1.018542	0.007197	99
Es	1.658851	0.571683	0.003618	99
Es	0.049999	-0.741621	0.006525	99
Es	1.171444	-1.007146	0.323152	99
Es	0.254172	2.189070	0.010704	99
Es	0.017961	0.246923	-0.267906	99
Es	1.747977	0.628066	0.001696	99
Es	0.216329	2.254745	-0.005091	99
Es	1.250238	0.745125	-0.007105	99
Es	-2.139834	0.474925	0.002716	99
Es	-1.848245	-0.202316	-0.002890	99
Es	1.802328	-0.729285	0.004807	99
Es	-2.082424	-0.543945	-0.598593	99
Es	0.532067	-1.259608	0.003756	99
Es	-0.043855	2.393307	-0.029283	99
Es	-0.368924	-0.156986	-0.000073	99
Es	1.762714	0.119702	0.012710	99
Es	0.007834	0.397639	0.262788	99
Es	0.351712	-1.970291	0.005672	99
Es	1.172718	-1.006364	-0.315952	99
Es	1.998435	0.854200	-0.001646	99
Es	0.282914	1.735001	0.007427	99
Es	0.437475	0.958238	-0.001042	99
Es	-1.098782	-0.180534	-0.001750	99
Es	0.692173	2.466837	-0.004643	99
39
Properties=species:S:1:pos:R:3:Z:I:1 energy=-342.6481753591959 field_type=dipole dipole="0.000000 0.000000 0.000000" charge=0
C	-1.848308	-0.202315	-0.002891	6
C	-0.368908	-0.157005	-0.000081	6
C	0.437162	0.957945	-0.001041	6
O	0.215542	2.255685	-0.004311	8
O	1.748432	0.628425	0.001939	8
C	1.802252	-0.729605	0.004799	6
C	0.532092	-1.259575	0.003749	6
H	-2.281188	0.803425	0.006969	1
H	-2.215618	-0.737045	0.878379	1
H	-2.212388	-0.718535	-0.896491	1
H	1.113692	2.630075	-0.003641	1
H	2.794342	-1.159455	0.007299	1
H	0.282892	-2.312024	0.005319	1
Es	0.692400	2.466505	-0.001101	99
Es	1.250892	0.745603	0.008183	99
Es	1.748072	0.628159	0.002037	99
Es	0.351525	-1.970226	0.003479	99
Es	0.215925	2.255421	-0.004419	99
Es	1.998600	0.854015	0.009082	99
Es	-2.139681	0.474666	0.004662	99
Es	1.761835	0.119448	-0.008797	99
Es	0.050283	-0.741559	-0.004704	99
Es	1.172849	-1.009011	-0.314297	99
Es	-0.043639	2.393631	0.018760	99
Es	0.007953	0.402980	-0.252262	99
Es	0.282299	1.735215	-0.017296	99
Es	0.437475	0.958238	-0.001036	99
Es	1.658702	0.571784	-0.000462	99
Es	1.802328	-0.729285	0.004797	99
Es	-1.098783	-0.180571	-0.001546	99
Es	0.532068	-1.259607	0.003747	99
Es	-1.848244	-0.202316	-0.002889	99
Es	1.171756	-1.004092	0.325046	99
Es	2.469530	-1.018433	0.005909	99
Es	-0.368923	-0.156986	-0.000093	99
Es	-2.087785	-0.561450	0.587032	99
Es	0.254782	2.188162	-0.015817	99
Es	-2.092036	-0.557536	-0.602435	99
Es	0.017432	0.240968	0.257380	99
39
Properties=species:S:1:pos:R:3:Z:I:1 energy=-342.6481753591959 field_type=dipole dipole="0.000000 0.000000 0.000000" charge=0
C	-1.848308	-0.202315	-0.002891	6
C	-0.368908	-0.157005	-0.000081	6
C	0.437162	0.957945	-0.001041	6
O	0.215542	2.255685	-0.004311	8
O	1.748432	0.628425	0.001939	8
C	1.802252	-0.729605	0.004799	6
C	0.532092	-1.259575	0.003749	6
H	-2.281188	0.803425	0.006969	1
H	-2.215618	-0.737045	0.878379	1
H	-2.212388	-0.718535	-0.896491	1
H	1.113692	2.630075	-0.003641	1
H	2.794342	-1.159455	0.007299	1
H	0.282892	-2.312024	0.005319	1
Es	1.658638	0.571807	0.003311	99
Es	0.007439	0.403343	0.252532	99
Es	1.172870	-1.005982	-0.316462	99
Es	-1.848246	-0.202315	-0.002891	99
Es	-2.139610	0.474519	0.002442	99
Es	1.761839	0.119543	0.014034	99
Es	-0.368924	-0.156985	-0.000068	99
Es	0.281745	1.735174	0.008927	99
Es	0.437475	0.958238	-0.001045	99
Es	1.171697	-1.007039	0.323244	99
Es	0.351424	-1.970205	0.005741	99
Es	0.692528	2.466473	-0.005548	99
Es	-0.043142	2.393617	-0.027086	99
Es	0.018053	0.240540	-0.258069	99
Es	0.532068	-1.259607	0.003751	99
Es	-2.097162	-0.574477	0.586795	99
Es	-1.098783	-0.180398	-0.001648	99
Es	0.050283	-0.741636	0.006948	99
Es	1.250889	0.745508	-0.007669	99
Es	0.254563	2.188615	0.005770	99
Es	2.469490	-1.018428	0.007618	99
Es	1.998729	0.854004	-0.002291	99
Es	-2.082736	-0.544516	-0.599032	99
Es	1.802328	-0.729284	0.004810	99
Es	0.216069	2.255044	-0.003015	99
Es	1.748091	0.628168	0.001862	99
39
Properties=species:S:1:pos:R:3:Z:I:1 energy=-342.6481753591959 field_type=dipole dipole="0.000000 0.000000 0.000000" charge=0
C	-1.848308	-0.202315	-0.002891	6
C	-0.368908	-0.157005	-0.000081	6
C	0.437162	0.957945	-0.001041	6
O	0.215542	2.255685	-0.004311	8
O	1.748432	0.628425	0.001939	8
C	1.802252	-0.729605	0.004799	6
C	0.532092	-1.259575	0.003749	6
H	-2.281188	0.803425	0.006969	1
H	-2.215618	-0.737045	0.878379	1
H	-2.212388	-0.718535	-0.896491	1
H	1.113692	2.630075	-0.003641	1
H	2.794342	-1.159455	0.007299	1
H	0.282892	-2.312024	0.005319	1
Es	1.998659	0.854050	0.007031	99
Es	-1.098741	-0.180533	-0.001712	99
Es	0.532068	-1.259607	0.003748	99
Es	0.437475	0.958238	-0.001034	99
Es	0.050437	-0.741513	-0.003816	99
Es	0.351279	-1.970185	0.003564	99
Es	-0.368923	-0.156986	-0.000090	99
Es	0.008004	0.405695	-0.246959	99
Es	2.469458	-1.018397	0.005786	99
Es	1.658684	0.571726	0.002817	99
Es	1.748095	0.628194	0.001927	99
Es	0.281159	1.735227	-0.017171	99
Es	1.171903	-1.004261	0.325064	99
Es	0.218012	2.251886	-0.002484	99
Es	0.017330	0.237847	0.251619	99
Es	-2.139776	0.474517	0.004726	99
Es	-2.086532	-0.559686	0.586475	99
Es	0.252841	2.191538	-0.014858	99
Es	-2.093250	-0.559318	-0.601830	99
Es	1.802328	-0.729285	0.004797	99
Es	1.172842	-1.008548	-0.314597	99
Es	0.692497	2.466586	-0.001629	99
Es	1.251138	0.745677	0.008936	99
Es	-0.042724	2.393674	0.016234	99
Es	-1.848245	-0.202316	-0.002891	99
Es	1.761597	0.119498	-0.010690	99
39
Properties=species:S:1:pos:R:3:Z:I:1 energy=-342.6481753591959 field_type=dipole dipole="0.000000 0.000000 0.000000" charge=0
C	-1.848308	-0.202315	-0.002891	6
C	-0.368908	-0.157005	-0.000081	6
C	0.437162	0.957945	-0.001041	6
O	0.215542	2.255685	-0.004311	8
O	1.748432	0.628425	0.001939	8
C	1.802252	-0.729605	0.004799	6
C	0.532092	-1.259575	0.003749	6
H	-2.281188	0.803425	0.006969	1
H	-2.215618	-0.737045	0.878379	1
H	-2.212388	-0.718535	-0.896491	1
H	1.113692	2.630075	-0.003641	1
H	2.794342	-1.159455	0.007299	1
H	0.282892	-2.312024	0.005319	1
Es	0.007736	0.407003	-0.244235	99
Es	0.692288	2.466942	-0.001642	99
Es	0.437474	0.958238	-0.001021	99
Es	2.469421	-1.018423	0.005878	99
Es	0.281362	1.735033	-0.015104	99
Es	0.050681	-0.741412	-0.004725	99
Es	1.172932	-1.008752	-0.314402	99
Es	0.216244	2.254871	-0.003528	99
Es	-0.042550	2.393306	0.017607	99
Es	1.761728	0.119698	-0.009841	99
Es	1.658666	0.571900	-0.000180	99
Es	-1.098708	-0.180684	-0.001346	99
Es	-2.139656	0.474392	0.004530	99
Es	1.802328	-0.729285	0.004801	99
Es	0.532069	-1.259602	0.003751	99
Es	0.351119	-1.970172	0.003495	99
Es	0.254462	2.188755	-0.017217	99
Es	1.171724	-1.003851	0.325079	99
Es	1.251054	0.745293	0.010353	99
Es	-0.368923	-0.156986	-0.000098	99
Es	1.748103	0.628166	0.001879	99
Es	0.017534	0.236389	0.249348	99
Es	-1.848245	-0.202316	-0.002891	99
Es	1.998720	0.854118	0.007872	99
Es	-2.086775	-0.559587	0.586515	99
Es	-2.093174	-0.559315	-0.601917	99
39
Properties=species:S:1:pos:R:3:Z:I:1 energy=-342.6481753591959 field_type=dipole dipole="0.000000 0.000000 0.000000" charge=0
C	-1.848308	-0.202315	-0.002891	6
C	-0.368908	-0.157005	-0.000081	6
C	0.437162	0.957945	-0.001041	6
O	0.215542	2.255685	-0.004311	8
O	1.748432	0.628425	0.001939	8
C	1.802252	-0.729605	0.004799	6
C	0.532092	-1.259575	0.003749	6
H	-2.281188	0.803425	0.006969	1
H	-2.215618	-0.737045	0.878379	1
H	-2.212388	-0.718535	-0.896491	1
H	1.113692	2.630075	-0.003641	1
H	2.794342	-1.159455	0.007299	1
H	0.282892	-2.312024	0.005319	1
Es	-1.848245	-0.202316	-0.002890	99
Es	1.761524	0.119672	0.013663	99
Es	-0.368924	-0.156988	-0.000068	99
Es	0.532067	-1.259608	0.003752	99
Es	0.351068	-1.970142	0.005759	99
Es	-0.041717	2.393036	-0.030508	99
Es	0.018057	0.236436	-0.250967	99
Es	0.437475	0.958238	-0.001041	99
Es	-2.098000	-0.575675	0.586127	99
Es	0.692322	2.467011	-0.004342	99
Es	1.998908	0.853971	-0.002662	99
Es	1.748013	0.628110	0.001588	99
Es	1.173098	-1.005770	-0.316538	99
Es	2.469444	-1.018436	0.007491	99
Es	1.658746	0.572035	0.004847	99
Es	0.050551	-0.741404	0.006991	99
Es	0.215932	2.255425	-0.004358	99
Es	0.280725	1.735013	0.007732	99
Es	0.254559	2.188414	0.010533	99
Es	-2.081965	-0.543276	-0.598314	99
Es	1.251092	0.745376	-0.008209	99
Es	1.802329	-0.729285	0.004802	99
Es	1.171621	-1.006760	0.323329	99
Es	-1.098738	-0.180486	-0.001747	99
Es	-2.139629	0.474269	0.002424	99
Es	0.007300	0.406862	0.245569	99
39
Properties=species:S:1:pos:R:3:Z:I:1 energy=-342.6481753591959 field_type=dipole dipole="0.000000 0.000000 0.000000" charge=0
C	-1.848308	-0.202315	-0.002891	6
C	-0.368908	-0.157005	-0.000081	6
C	0.437162	0.957945	-0.001041	6
O	0.215542	2.255685	-0.004311	8
O	1.748432	0.628425	0.001939	8
C	1.802252	-0.729605	0.004799	6
C	0.532092	-1.259575	0.003749	6
H	-2.281188	0.803425	0.006969	1
H	-2.215618	-0.737045	0.878379	1
H	-2.212388	-0.718535	-0.896491	1
H	1.113692	2.630075	-0.003641	1
H	2.794342	-1.159455	0.007299	1
H	0.282892	-2.312024	0.005319	1
Es	-2.139720	0.474061	0.002536	99
Es	-2.081489	-0.542620	-0.598038	99
Es	1.761468	0.119838	0.014687	99
Es	2.469375	-1.018386	0.007641	99
Es	0.351059	-1.970166	0.005769	99
Es	-0.042285	2.393360	-0.027715	99
Es	1.658683	0.571984	0.001447	99
Es	0.007330	0.407605	0.244199	99
Es	0.532068	-1.259607	0.003749	99
Es	-1.098677	-0.180256	-0.001624	99
Es	1.251120	0.745271	-0.007947	99
Es	1.171665	-1.006724	0.323542	99
Es	-1.848246	-0.202316	-0.002891	99
Es	1.802328	-0.729285	0.004803	99
Es	0.437475	0.958239	-0.001037	99
Es	0.692393	2.466833	-0.004827	99
Es	0.050614	-0.741655	0.006599	99
Es	1.172935	-1.005561	-0.316619	99
Es	-0.368924	-0.156987	-0.000069	99
Es	0.281049	1.734974	0.007839	99
Es	-2.098403	-0.576405	0.585605	99
Es	0.215931	2.255402	-0.004105	99
Es	1.998945	0.854089	-0.000969	99
Es	0.254729	2.188280	0.007851	99
Es	1.748089	0.628144	0.002046	99
Es	0.018103	0.235610	-0.249513	99
39
Properties=species:S:1:pos:R:3:Z:I:1 energy=-342.6481753591959 field_type=dipole dipole="0.000000 0.000000 0.000000" charge=0
C	-1.848308	-0.202315	-0.002891	6
C	-0.368908	-0.157005	-0.000081	6
C	0.437162	0.957945	-0.001041	6
O	0.215542	2.255685	-0.004311	8
O	1.748432	0.628425	0.001939	8
C	1.802252	-0.729605	0.004799	6
C	0.532092	-1.259575	0.003749	6
H	-2.281188	0.803425	0.006969	1
H	-2.215618	-0.737045	0.878379	1
H	-2.212388	-0.718535	-0.896491	1
H	1.113692	2.630075	-0.003641	1
H	2.794342	-1.159455	0.007299	1
H	0.282892	-2.312024	0.005319	1
Es	-2.086650	-0.559485	0.586772	99
Es	0.007446	0.411502	-0.234465	99
Es	1.251595	0.745571	0.012021	99
Es	2.469275	-1.018318	0.005692	99
Es	0.692505	2.466709	-0.002080	99
Es	0.254863	2.188182	-0.011151	99
Es	-0.368924	-0.156986	-0.000095	99
Es	0.437475	0.958238	-0.001039	99
Es	1.173190	-1.008580	-0.314680	99
Es	0.050673	-0.741556	-0.005245	99
Es	-2.093445	-0.559431	-0.602049	99
Es	-1.098684	-0.180331	-0.001503	99
Es	1.998955	0.853948	0.007927	99
Es	0.279997	1.735123	-0.016906	99
Es	0.216123	2.255098	-0.003486	99
Es	1.747849	0.628015	0.002270	99
Es	1.658761	0.572336	-0.002373	99
Es	0.532068	-1.259607	0.003755	99
Es	0.350997	-1.970113	0.003455	99
Es	1.171881	-1.003348	0.325590	99
Es	0.017603	0.231126	0.240051	99
Es	1.802328	-0.729285	0.004797	99
Es	-0.041649	2.393760	0.013764	99
Es	1.761142	0.119546	-0.009762	99
Es	-1.848246	-0.202315	-0.002891	99
Es	-2.139513	0.473921	0.004593	99
39
Properties=species:S:1:pos:R:3:Z:I:1 energy=-342.6481753591959 field_type=dipole dipole="0.000000 0.000000 0.000000" charge=0
C	-1.848308	-0.202315	-0.002891	6
C	-0.368908	-0.157005	-0.000081	6
C	0.437162	0.957945	-0.001041	6
O	0.215542	2.255685	-0.004311	8
O	1.748432	0.628425	0.001939	8
C	1.802252	-0.729605	0.004799	6
C	0.532092	-1.259575	0.003749	6
H	-2.281188	0.803425	0.006969	1
H	-2.215618	-0.737045	0.878379	1
H	-2.212388	-0.718535	-0.896491	1
H	1.113692	2.630075	-0.003641	1
H	2.794342	-1.159455	0.007299	1
H	0.282892	-2.312024	0.005319	1
Es	-0.041649	2.393149	0.016927	99
Es	1.999008	0.853928	0.008753	99
Es	1.250958	0.745148	0.011004	99
Es	0.007559	0.411823	-0.233849	99
Es	1.761636	0.119997	-0.009987	99
Es	0.216046	2.255201	-0.003586	99
Es	1.658588	0.572161	-0.001663	99
Es	-1.848246	-0.202315	-0.002891	99
Es	-2.085949	-0.558219	0.586376	99
Es	1.172191	-1.004088	0.325659	99
Es	0.017646	0.230969	0.238629	99
Es	-0.368920	-0.156986	-0.000092	99
Es	0.280483	1.735021	-0.015302	99
Es	0.532068	-1.259607	0.003748	99
Es	0.254724	2.188361	-0.015853	99
Es	0.050907	-0.741509	-0.004265	99
Es	-1.098690	-0.180440	-0.001294	99
Es	2.469300	-1.018320	0.005554	99
Es	1.802328	-0.729287	0.004801	99
Es	0.437475	0.958238	-0.001037	99
Es	0.350798	-1.970097	0.003562	99
Es	-2.094204	-0.560672	-0.601562	99
Es	1.172643	-1.007934	-0.315003	99
Es	-2.139458	0.473878	0.004455	99
Es	0.692272	2.467145	-0.002031	99
Es	1.748102	0.628174	0.001908	99
