39
Properties=species:S:1:pos:R:3:Z:I:1 energy=-342.6855894516418 field_type=dipole dipole="0.000000 0.000000 0.000000" charge=0
C	-1.773780	0.004752	0.015042	6
C	-0.291230	-0.056548	-0.002208	6
C	0.475610	-1.140418	-0.097048	6
C	1.862420	-0.678278	-0.070748	6
O	2.837460	-1.402988	-0.137928	8
O	1.880420	0.677992	0.039812	8
C	0.538760	1.162832	0.090482	6
H	-2.218320	-0.992758	-0.063498	1
H	-2.140970	0.604222	-0.823808	1
H	-2.126400	0.458362	0.946582	1
H	0.196510	-2.175198	-0.179208	1
H	0.372390	1.841842	-0.751048	1
H	0.387130	1.696182	1.033572	1
Es	0.135609	-0.662789	0.262551	99
Es	1.862411	-0.678009	-0.070727	99
Es	-1.027110	-0.020360	0.006864	99
Es	-2.065322	-0.668303	-0.038194	99
Es	-0.291319	-0.056411	-0.002189	99
Es	2.837196	-1.402779	-0.137910	99
Es	-1.993389	0.313088	0.640436	99
Es	2.735419	-1.689971	-0.162768	99
Es	1.843654	0.168589	-0.010289	99
Es	2.503429	-1.125460	-0.364817	99
Es	1.165755	-0.933912	-0.085854	99
Es	-2.003058	0.411153	-0.547631	99
Es	1.992231	0.690146	0.298980	99
Es	0.095009	0.567050	0.045438	99
Es	0.416924	1.610320	-0.477134	99
Es	3.108918	-1.256526	-0.125913	99
Es	0.426889	1.512018	0.725093	99
Es	2.010958	0.757954	-0.203100	99
Es	1.880050	0.677649	0.039961	99
Es	0.288843	-1.830919	-0.151871	99
Es	0.475698	-1.140444	-0.097050	99
Es	2.505152	-1.169586	0.136112	99
Es	0.130377	-0.611235	-0.368788	99
Es	-1.773712	0.004762	0.015042	99
Es	0.538973	1.162716	0.090471	99
Es	1.366623	0.840581	0.055234	99
39
Properties=species:S:1:pos:R:3:Z:I:1 energy=-342.6855894516418 field_type=dipole dipole="0.000000 0.000000 0.000000" charge=0
C	-1.773780	0.004752	0.015042	6
C	-0.291230	-0.056548	-0.002208	6
C	0.475610	-1.140418	-0.097048	6
C	1.862420	-0.678278	-0.070748	6
O	2.837460	-1.402988	-0.137928	8
O	1.880420	0.677992	0.039812	8
C	0.538760	1.162832	0.090482	6
H	-2.218320	-0.992758	-0.063498	1
H	-2.140970	0.604222	-0.823808	1
H	-2.126400	0.458362	0.946582	1
H	0.196510	-2.175198	-0.179208	1
H	0.372390	1.841842	-0.751048	1
H	0.387130	1.696182	1.033572	1
Es	2.763554	-1.709064	-0.162488	99
Es	0.136339	-0.662828	0.263381	99
Es	-1.994168	0.312589	0.639345	99
Es	2.837199	-1.402740	-0.137906	99
Es	-0.291320	-0.056411	-0.002190	99
Es	-1.025418	-0.019422	0.006831	99
Es	-2.066013	-0.666054	-0.037758	99
Es	2.506326	-1.168566	0.135238	99
Es	1.166048	-0.932883	-0.085985	99
Es	0.475698	-1.140441	-0.097052	99
Es	1.856323	0.157652	0.003886	99
Es	1.862408	-0.677999	-0.070725	99
Es	-2.004288	0.410549	-0.546732	99
Es	0.538979	1.162716	0.090468	99
Es	0.094814	0.566001	0.045539	99
Es	1.983362	0.729285	-0.191892	99
Es	0.290026	-1.830953	-0.151819	99
Es	0.425814	1.511994	0.724487	99
Es	-1.773713	0.004764	0.015042	99
Es	1.880090	0.677694	0.039696	99
Es	0.130894	-0.611312	-0.369424	99
Es	2.009707	0.716235	0.269535	99
Es	3.081700	-1.236319	-0.126754	99
Es	2.501749	-1.127761	-0.363443	99
Es	1.364298	0.852706	0.059422	99
Es	0.415799	1.609890	-0.476758	99
39
Properties=species:S:1:pos:R:3:Z:I:1 energy=-342.6855894516418 field_type=dipole dipole="0.000000 0.000000 0.000000" charge=0
C	-1.773780	0.004752	0.015042	6
C	-0.291230	-0.056548	-0.002208	6
C	0.475610	-1.140418	-0.097048	6
C	1.862420	-0.678278	-0.070748	6
O	2.837460	-1.402988	-0.137928	8
O	1.880420	0.677992	0.039812	8
C	0.538760	1.162832	0.090482	6
H	-2.218320	-0.992758	-0.063498	1
H	-2.140970	0.604222	-0.823808	1
H	-2.126400	0.458362	0.946582	1
H	0.196510	-2.175198	-0.179208	1
H	0.372390	1.841842	-0.751048	1
H	0.387130	1.696182	1.033572	1
Es	1.862408	-0.677998	-0.070724	99
Es	1.365676	0.860309	0.051369	99
Es	-1.024522	-0.018806	0.006710	99
Es	1.880092	0.677724	0.039755	99
Es	-0.291322	-0.056409	-0.002200	99
Es	0.475699	-1.140448	-0.097050	99
Es	-1.995126	0.312501	0.638448	99
Es	1.166807	-0.932379	-0.085637	99
Es	-2.066538	-0.664243	-0.037702	99
Es	2.875026	-1.716164	-0.163603	99
Es	2.502724	-1.178274	0.136268	99
Es	2.837099	-1.402818	-0.137910	99
Es	2.069882	0.813877	-0.113148	99
Es	0.137903	-0.663632	0.262477	99
Es	2.983134	-1.211325	-0.125011	99
Es	0.290170	-1.830644	-0.152727	99
Es	0.425172	1.512946	0.724312	99
Es	0.415696	1.608650	-0.475919	99
Es	0.094566	0.564509	0.045170	99
Es	-1.773713	0.004765	0.015043	99
Es	2.492808	-1.135830	-0.364562	99
Es	1.868544	0.158568	-0.028878	99
Es	-2.004559	0.409823	-0.546044	99
Es	0.538976	1.162717	0.090471	99
Es	1.909745	0.622096	0.231826	99
Es	0.129859	-0.610193	-0.368787	99
39
Properties=species:S:1:pos:R:3:Z:I:1 energy=-342.6855894516418 field_type=dipole dipole="0.000000 0.000000 0.000000" charge=0
C	-1.773780	0.004752	0.015042	6
C	-0.291230	-0.056548	-0.002208	6
C	0.475610	-1.140418	-0.097048	6
C	1.862420	-0.678278	-0.070748	6
O	2.837460	-1.402988	-0.137928	8
O	1.880420	0.677992	0.039812	8
C	0.538760	1.162832	0.090482	6
H	-2.218320	-0.992758	-0.063498	1
H	-2.140970	0.604222	-0.823808	1
H	-2.126400	0.458362	0.946582	1
H	0.196510	-2.175198	-0.179208	1
H	0.372390	1.841842	-0.751048	1
H	0.387130	1.696182	1.033572	1
Es	2.944727	-1.693813	-0.162389	99
Es	0.290822	-1.830875	-0.152255	99
Es	1.848675	0.585198	0.068829	99
Es	-1.024285	-0.018568	0.006920	99
Es	2.837078	-1.402817	-0.137914	99
Es	2.505574	-1.174909	0.140208	99
Es	0.415052	1.609359	-0.476261	99
Es	0.137874	-0.663033	0.263647	99
Es	0.094853	0.563908	0.045210	99
Es	2.907447	-1.242331	-0.125972	99
Es	-2.004922	0.409907	-0.546245	99
Es	1.862408	-0.677998	-0.070725	99
Es	-1.773714	0.004764	0.015042	99
Es	-0.291320	-0.056412	-0.002197	99
Es	1.166390	-0.932115	-0.085820	99
Es	0.130464	-0.610412	-0.369690	99
Es	-2.066364	-0.662936	-0.037629	99
Es	0.424887	1.511870	0.724286	99
Es	0.475699	-1.140446	-0.097052	99
Es	1.366907	0.863832	0.057422	99
Es	1.880081	0.677748	0.039812	99
Es	1.879761	0.155596	-0.012402	99
Es	-1.995202	0.312160	0.638753	99
Es	0.538971	1.162718	0.090469	99
Es	2.118324	0.849500	0.026952	99
Es	2.496019	-1.130573	-0.369055	99
39
Properties=species:S:1:pos:R:3:Z:I:1 energy=-342.6855894516418 field_type=dipole dipole="0.000000 0.000000 0.000000" charge=0
C	-1.773780	0.004752	0.015042	6
C	-0.291230	-0.056548	-0.002208	6
C	0.475610	-1.140418	-0.097048	6
C	1.862420	-0.678278	-0.070748	6
O	2.837460	-1.402988	-0.137928	8
O	1.880420	0.677992	0.039812	8
C	0.538760	1.162832	0.090482	6
H	-2.218320	-0.992758	-0.063498	1
H	-2.140970	0.604222	-0.823808	1
H	-2.126400	0.458362	0.946582	1
H	0.196510	-2.175198	-0.179208	1
H	0.372390	1.841842	-0.751048	1
H	0.387130	1.696182	1.033572	1
Es	-1.994763	0.312184	0.637705	99
Es	1.862408	-0.677997	-0.070722	99
Es	2.837141	-1.402766	-0.137908	99
Es	2.979914	-1.675266	-0.160515	99
Es	0.094491	0.563400	0.045260	99
Es	2.866089	-1.269230	-0.127076	99
Es	2.503400	-1.167265	0.139828	99
Es	1.880033	0.677718	0.039726	99
Es	0.425168	1.512053	0.723374	99
Es	0.131223	-0.610809	-0.368692	99
Es	-1.023822	-0.017748	0.006795	99
Es	0.538977	1.162717	0.090470	99
Es	-1.773715	0.004765	0.015045	99
Es	0.291104	-1.831817	-0.151921	99
Es	-0.291321	-0.056410	-0.002196	99
Es	2.504269	-1.129940	-0.369626	99
Es	0.415267	1.609482	-0.475561	99
Es	1.882151	0.154945	-0.004883	99
Es	0.137292	-0.662694	0.262382	99
Es	0.475697	-1.140450	-0.097058	99
Es	1.847015	0.586785	0.038664	99
Es	1.166044	-0.931311	-0.085510	99
Es	2.116123	0.846030	0.047964	99
Es	-2.067353	-0.663302	-0.037530	99
Es	-2.004960	0.410070	-0.545167	99
Es	1.368333	0.866178	0.059096	99
39
Properties=species:S:1:pos:R:3:Z:I:1 energy=-342.6855894516418 field_type=dipole dipole="0.000000 0.000000 0.000000" charge=0
C	-1.773780	0.004752	0.015042	6
C	-0.291230	-0.056548	-0.002208	6
C	0.475610	-1.140418	-0.097048	6
C	1.862420	-0.678278	-0.070748	6
O	2.837460	-1.402988	-0.137928	8
O	1.880420	0.677992	0.039812	8
C	0.538760	1.162832	0.090482	6
H	-2.218320	-0.992758	-0.063498	1
H	-2.140970	0.604222	-0.823808	1
H	-2.126400	0.458362	0.946582	1
H	0.196510	-2.175198	-0.179208	1
H	0.372390	1.841842	-0.751048	1
H	0.387130	1.696182	1.033572	1
Es	1.862409	-0.677996	-0.070726	99
Es	2.485364	-1.103959	-0.354951	99
Es	0.425055	1.512654	0.723153	99
Es	2.837200	-1.402686	-0.137881	99
Es	-1.023400	-0.017293	0.006985	99
Es	0.291480	-1.832271	-0.152406	99
Es	-1.995546	0.313272	0.637407	99
Es	-1.773714	0.004764	0.015042	99
Es	1.885814	0.155985	-0.008184	99
Es	1.165762	-0.930743	-0.086100	99
Es	1.847045	0.586455	0.041131	99
Es	2.527159	-1.187820	0.131141	99
Es	0.415514	1.608899	-0.474849	99
Es	0.538981	1.162718	0.090471	99
Es	1.880137	0.677789	0.039803	99
Es	-0.291322	-0.056411	-0.002197	99
Es	0.135254	-0.611823	-0.367911	99
Es	0.133492	-0.661645	0.261874	99
Es	0.094210	0.562811	0.045127	99
Es	2.851207	-1.281448	-0.127596	99
Es	2.111169	0.843334	0.047224	99
Es	2.989924	-1.668529	-0.165948	99
Es	1.369330	0.867680	0.060526	99
Es	-2.004093	0.408924	-0.544429	99
Es	0.475702	-1.140442	-0.097051	99
Es	-2.067928	-0.662898	-0.037711	99
39
Properties=species:S:1:pos:R:3:Z:I:1 energy=-342.6855894516418 field_type=dipole dipole="0.000000 0.000000 0.000000" charge=0
C	-1.773780	0.004752	0.015042	6
C	-0.291230	-0.056548	-0.002208	6
C	0.475610	-1.140418	-0.097048	6
C	1.862420	-0.678278	-0.070748	6
O	2.837460	-1.402988	-0.137928	8
O	1.880420	0.677992	0.039812	8
C	0.538760	1.162832	0.090482	6
H	-2.218320	-0.992758	-0.063498	1
H	-2.140970	0.604222	-0.823808	1
H	-2.126400	0.458362	0.946582	1
H	0.196510	-2.175198	-0.179208	1
H	0.372390	1.841842	-0.751048	1
H	0.387130	1.696182	1.033572	1
Es	1.888496	0.156682	-0.008448	99
Es	-2.067569	-0.661968	-0.037966	99
Es	1.862405	-0.678003	-0.070729	99
Es	2.837270	-1.402607	-0.137885	99
Es	2.107701	0.841292	0.047600	99
Es	-2.002324	0.406414	-0.544549	99
Es	-1.773716	0.004763	0.015042	99
Es	0.538977	1.162718	0.090470	99
Es	0.415318	1.607609	-0.475223	99
Es	0.094690	0.562550	0.045063	99
Es	0.132342	-0.611138	-0.368479	99
Es	2.551569	-1.210726	0.092082	99
Es	1.880045	0.677717	0.039879	99
Es	-1.023354	-0.017221	0.007030	99
Es	1.165287	-0.930753	-0.086952	99
Es	1.369966	0.868627	0.061853	99
Es	1.847003	0.586516	0.039500	99
Es	2.840509	-1.290779	-0.127709	99
Es	-0.291322	-0.056412	-0.002193	99
Es	0.136628	-0.662242	0.263468	99
Es	2.996064	-1.663582	-0.171399	99
Es	0.475700	-1.140444	-0.097054	99
Es	0.292028	-1.832263	-0.152847	99
Es	2.465478	-1.076713	-0.310371	99
Es	-1.997583	0.315640	0.638085	99
Es	0.424596	1.513644	0.723678	99
39
Properties=species:S:1:pos:R:3:Z:I:1 energy=-342.6855894516418 field_type=dipole dipole="0.000000 0.000000 0.000000" charge=0
C	-1.773780	0.004752	0.015042	6
C	-0.291230	-0.056548	-0.002208	6
C	0.475610	-1.140418	-0.097048	6
C	1.862420	-0.678278	-0.070748	6
O	2.837460	-1.402988	-0.137928	8
O	1.880420	0.677992	0.039812	8
C	0.538760	1.162832	0.090482	6
H	-2.218320	-0.992758	-0.063498	1
H	-2.140970	0.604222	-0.823808	1
H	-2.126400	0.458362	0.946582	1
H	0.196510	-2.175198	-0.179208	1
H	0.372390	1.841842	-0.751048	1
H	0.387130	1.696182	1.033572	1
Es	2.837043	-1.402843	-0.137930	99
Es	2.839680	-1.291857	-0.128484	99
Es	-0.291323	-0.056411	-0.002196	99
Es	0.136467	-0.662193	0.264320	99
Es	0.132826	-0.610826	-0.369460	99
Es	2.995333	-1.664193	-0.171658	99
Es	2.104270	0.839665	0.039413	99
Es	1.880013	0.677511	0.040453	99
Es	0.424134	1.514109	0.724143	99
Es	1.862409	-0.677996	-0.070725	99
Es	0.095090	0.562238	0.045095	99
Es	0.475698	-1.140448	-0.097048	99
Es	0.538979	1.162719	0.090470	99
Es	-2.002687	0.406513	-0.545156	99
Es	-1.773714	0.004764	0.015043	99
Es	0.415024	1.606775	-0.475669	99
Es	1.370682	0.869787	0.062247	99
Es	-1.997571	0.315390	0.638543	99
Es	1.164752	-0.930812	-0.086863	99
Es	2.564521	-1.219170	0.053009	99
Es	-1.023313	-0.017500	0.006895	99
Es	1.890573	0.157554	-0.010789	99
Es	1.847499	0.585942	0.049072	99
Es	0.292634	-1.832290	-0.152935	99
Es	2.454355	-1.066316	-0.270123	99
Es	-2.067164	-0.660794	-0.037722	99
39
Properties=species:S:1:pos:R:3:Z:I:1 energy=-342.6855894516418 field_type=dipole dipole="0.000000 0.000000 0.000000" charge=0
C	-1.773780	0.004752	0.015042	6
C	-0.291230	-0.056548	-0.002208	6
C	0.475610	-1.140418	-0.097048	6
C	1.862420	-0.678278	-0.070748	6
O	2.837460	-1.402988	-0.137928	8
O	1.880420	0.677992	0.039812	8
C	0.538760	1.162832	0.090482	6
H	-2.218320	-0.992758	-0.063498	1
H	-2.140970	0.604222	-0.823808	1
H	-2.126400	0.458362	0.946582	1
H	0.196510	-2.175198	-0.179208	1
H	0.372390	1.841842	-0.751048	1
H	0.387130	1.696182	1.033572	1
Es	1.892069	0.157950	-0.010286	99
Es	2.837020	-1.402865	-0.137916	99
Es	3.000368	-1.660672	-0.171041	99
Es	2.102348	0.837633	0.046650	99
Es	-2.066567	-0.660230	-0.037796	99
Es	-1.023444	-0.017327	0.007065	99
Es	1.879986	0.677608	0.039161	99
Es	0.538982	1.162722	0.090462	99
Es	1.847162	0.586176	0.043642	99
Es	-2.003455	0.407531	-0.545838	99
Es	0.293266	-1.832379	-0.152739	99
Es	-0.291324	-0.056411	-0.002195	99
Es	0.423808	1.512170	0.724801	99
Es	1.862410	-0.677996	-0.070726	99
Es	2.573020	-1.224860	0.007061	99
Es	1.164108	-0.930855	-0.086762	99
Es	2.448380	-1.057837	-0.224403	99
Es	-1.773714	0.004765	0.015041	99
Es	0.475698	-1.140446	-0.097056	99
Es	0.134080	-0.611021	-0.370409	99
Es	-1.997102	0.314226	0.639219	99
Es	0.095757	0.562299	0.044869	99
Es	0.414541	1.608267	-0.476176	99
Es	2.832155	-1.298124	-0.128899	99
Es	0.135348	-0.661877	0.264991	99
Es	1.371308	0.870875	0.061228	99
39
Properties=species:S:1:pos:R:3:Z:I:1 energy=-342.6855894516418 field_type=dipole dipole="0.000000 0.000000 0.000000" charge=0
C	-1.773780	0.004752	0.015042	6
C	-0.291230	-0.056548	-0.002208	6
C	0.475610	-1.140418	-0.097048	6
C	1.862420	-0.678278	-0.070748	6
O	2.837460	-1.402988	-0.137928	8
O	1.880420	0.677992	0.039812	8
C	0.538760	1.162832	0.090482	6
H	-2.218320	-0.992758	-0.063498	1
H	-2.140970	0.604222	-0.823808	1
H	-2.126400	0.458362	0.946582	1
H	0.196510	-2.175198	-0.179208	1
H	0.372390	1.841842	-0.751048	1
H	0.387130	1.696182	1.033572	1
Es	1.371884	0.871897	0.058282	99
Es	1.163926	-0.931047	-0.084634	99
Es	-2.066423	-0.659632	-0.036872	99
Es	0.424134	1.510054	0.724206	99
Es	2.447419	-1.068702	-0.020598	99
Es	3.002039	-1.661281	-0.152002	99
Es	-1.993934	0.310169	0.638213	99
Es	2.829138	-1.300755	-0.129735	99
Es	0.096064	0.562066	0.045124	99
Es	2.836982	-1.402889	-0.137914	99
Es	0.139238	-0.662818	0.264560	99
Es	0.475699	-1.140447	-0.097051	99
Es	-2.006762	0.411664	-0.546557	99
Es	1.846926	0.586981	0.032351	99
Es	0.130373	-0.609789	-0.371398	99
Es	2.100375	0.835899	0.049916	99
Es	1.862409	-0.677996	-0.070725	99
Es	1.880095	0.677728	0.039731	99
Es	0.538974	1.162718	0.090472	99
Es	1.893373	0.157412	0.000193	99
Es	2.575362	-1.210728	-0.215088	99
Es	0.293538	-1.832517	-0.151589	99
Es	-1.773713	0.004764	0.015042	99
Es	-1.023380	-0.017280	0.007078	99
Es	0.413794	1.610263	-0.476864	99
Es	-0.291323	-0.056413	-0.002198	99
39
Properties=species:S:1:pos:R:3:Z:I:1 energy=-342.6855894516418 field_type=dipole dipole="0.000000 0.000000 0.000000" charge=0
C	-1.773780	0.004752	0.015042	6
C	-0.291230	-0.056548	-0.002208	6
C	0.475610	-1.140418	-0.097048	6
C	1.862420	-0.678278	-0.070748	6
O	2.837460	-1.402988	-0.137928	8
O	1.880420	0.677992	0.039812	8
C	0.538760	1.162832	0.090482	6
H	-2.218320	-0.992758	-0.063498	1
H	-2.140970	0.604222	-0.823808	1
H	-2.126400	0.458362	0.946582	1
H	0.196510	-2.175198	-0.179208	1
H	0.372390	1.841842	-0.751048	1
H	0.387130	1.696182	1.033572	1
Es	-2.004137	0.408170	-0.546277	99
Es	1.163555	-0.930738	-0.086306	99
Es	0.293898	-1.832641	-0.152489	99
Es	0.423667	1.512146	0.724771	99
Es	1.894443	0.158173	-0.004436	99
Es	0.475699	-1.140445	-0.097049	99
Es	1.879926	0.677514	0.039165	99
Es	0.133858	-0.610717	-0.370995	99
Es	0.096023	0.561779	0.044992	99
Es	1.862410	-0.677992	-0.070724	99
Es	2.578774	-1.226220	-0.051716	99
Es	2.446841	-1.051482	-0.169963	99
Es	2.822506	-1.306592	-0.129742	99
Es	1.372203	0.872008	0.061691	99
Es	-2.066448	-0.659204	-0.037418	99
Es	-1.773713	0.004764	0.015043	99
Es	2.098951	0.834798	0.051843	99
Es	2.837325	-1.402519	-0.137904	99
Es	-1.023284	-0.017169	0.007062	99
Es	0.135919	-0.661853	0.265359	99
Es	0.414237	1.608087	-0.476523	99
Es	-0.291323	-0.056412	-0.002196	99
Es	-1.996593	0.313540	0.639186	99
Es	0.538977	1.162718	0.090471	99
Es	1.847000	0.587160	0.032076	99
Es	3.005492	-1.657551	-0.165974	99
39
Properties=species:S:1:pos:R:3:Z:I:1 energy=-342.6855894516418 field_type=dipole dipole="0.000000 0.000000 0.000000" charge=0
C	-1.773780	0.004752	0.015042	6
C	-0.291230	-0.056548	-0.002208	6
C	0.475610	-1.140418	-0.097048	6
C	1.862420	-0.678278	-0.070748	6
O	2.837460	-1.402988	-0.137928	8
O	1.880420	0.677992	0.039812	8
C	0.538760	1.162832	0.090482	6
H	-2.218320	-0.992758	-0.063498	1
H	-2.140970	0.604222	-0.823808	1
H	-2.126400	0.458362	0.946582	1
H	0.196510	-2.175198	-0.179208	1
H	0.372390	1.841842	-0.751048	1
H	0.387130	1.696182	1.033572	1
Es	1.847272	0.587885	0.031720	99
Es	0.131936	-0.610135	-0.371337	99
Es	2.097029	0.833705	0.051055	99
Es	2.837164	-1.402740	-0.137904	99
Es	0.096020	0.561363	0.044958	99
Es	-1.773715	0.004764	0.015043	99
Es	-2.006102	0.410880	-0.546328	99
Es	1.163183	-0.930490	-0.085244	99
Es	-1.994652	0.310878	0.638584	99
Es	-1.023107	-0.016982	0.007047	99
Es	1.862410	-0.677996	-0.070726	99
Es	-0.291326	-0.056415	-0.002195	99
Es	0.475699	-1.140446	-0.097051	99
Es	3.006233	-1.657904	-0.156383	99
Es	0.538978	1.162718	0.090470	99
Es	1.895866	0.158443	-0.001235	99
Es	2.821578	-1.307285	-0.129910	99
Es	0.137873	-0.662345	0.264972	99
Es	2.579497	-1.218789	-0.162086	99
Es	1.372523	0.872719	0.058635	99
Es	0.423939	1.510398	0.724338	99
Es	-2.066520	-0.658815	-0.037158	99
Es	0.413876	1.609832	-0.476599	99
Es	1.879718	0.676737	0.040184	99
Es	2.446435	-1.057687	-0.069019	99
Es	0.294399	-1.832971	-0.151885	99
39
Properties=species:S:1:pos:R:3:Z:I:1 energy=-342.6855894516418 field_type=dipole dipole="0.000000 0.000000 0.000000" charge=0
C	-1.773780	0.004752	0.015042	6
C	-0.291230	-0.056548	-0.002208	6
C	0.475610	-1.140418	-0.097048	6
C	1.862420	-0.678278	-0.070748	6
O	2.837460	-1.402988	-0.137928	8
O	1.880420	0.677992	0.039812	8
C	0.538760	1.162832	0.090482	6
H	-2.218320	-0.992758	-0.063498	1
H	-2.140970	0.604222	-0.823808	1
H	-2.126400	0.458362	0.946582	1
H	0.196510	-2.175198	-0.179208	1
H	0.372390	1.841842	-0.751048	1
H	0.387130	1.696182	1.033572	1
Es	-1.773714	0.004764	0.015043	99
Es	2.818319	-1.310042	-0.130247	99
Es	-0.291322	-0.056412	-0.002201	99
Es	1.880096	0.677682	0.040207	99
Es	1.896491	0.158673	-0.001501	99
Es	0.475701	-1.140442	-0.097052	99
Es	2.837100	-1.402807	-0.137908	99
Es	1.163056	-0.930289	-0.085781	99
Es	2.095634	0.832271	0.054004	99
Es	0.138106	-0.662266	0.265053	99
Es	0.294545	-1.833112	-0.152135	99
Es	0.095916	0.560845	0.045109	99
Es	1.373125	0.873364	0.060394	99
Es	0.538980	1.162719	0.090469	99
Es	0.413921	1.609351	-0.476550	99
Es	-1.022906	-0.016942	0.007059	99
Es	3.008159	-1.656011	-0.161372	99
Es	2.446748	-1.051756	-0.113901	99
Es	-1.995717	0.312537	0.638699	99
Es	0.423944	1.510915	0.724245	99
Es	2.580596	-1.223768	-0.111969	99
Es	1.846938	0.587335	0.027237	99
Es	-2.004892	0.409295	-0.546145	99
Es	1.862410	-0.677996	-0.070724	99
Es	-2.066808	-0.658368	-0.037186	99
Es	0.131781	-0.610220	-0.370901	99
39
Properties=species:S:1:pos:R:3:Z:I:1 energy=-342.6855894516418 field_type=dipole dipole="0.000000 0.000000 0.000000" charge=0
C	-1.773780	0.004752	0.015042	6
C	-0.291230	-0.056548	-0.002208	6
C	0.475610	-1.140418	-0.097048	6
C	1.862420	-0.678278	-0.070748	6
O	2.837460	-1.402988	-0.137928	8
O	1.880420	0.677992	0.039812	8
C	0.538760	1.162832	0.090482	6
H	-2.218320	-0.992758	-0.063498	1
H	-2.140970	0.604222	-0.823808	1
H	-2.126400	0.458362	0.946582	1
H	0.196510	-2.175198	-0.179208	1
H	0.372390	1.841842	-0.751048	1
H	0.387130	1.696182	1.033572	1
Es	0.132779	-0.610373	-0.370714	99
Es	3.009475	-1.655197	-0.158898	99
Es	0.475697	-1.140452	-0.097053	99
Es	-1.995164	0.311783	0.638239	99
Es	2.093958	0.831699	0.049352	99
Es	0.095742	0.560473	0.044871	99
Es	0.423959	1.511228	0.724115	99
Es	1.897844	0.159266	-0.002143	99
Es	1.862410	-0.677995	-0.070725	99
Es	2.447495	-1.052444	-0.098259	99
Es	-1.773714	0.004765	0.015042	99
Es	0.538970	1.162716	0.090473	99
Es	2.580447	-1.222304	-0.129909	99
Es	1.373399	0.873742	0.059520	99
Es	2.816509	-1.311584	-0.130284	99
Es	1.162628	-0.929870	-0.085475	99
Es	-0.291322	-0.056413	-0.002196	99
Es	-2.005407	0.410069	-0.545848	99
Es	1.846947	0.586667	0.033791	99
Es	0.137120	-0.662050	0.264466	99
Es	0.295047	-1.833487	-0.152121	99
Es	1.880025	0.677706	0.039820	99
Es	2.836990	-1.402884	-0.137910	99
Es	0.414115	1.609139	-0.476196	99
Es	-1.022686	-0.016688	0.007135	99
Es	-2.067058	-0.658191	-0.037151	99
39
Properties=species:S:1:pos:R:3:Z:I:1 energy=-342.6855894516418 field_type=dipole dipole="0.000000 0.000000 0.000000" charge=0
C	-1.773780	0.004752	0.015042	6
C	-0.291230	-0.056548	-0.002208	6
C	0.475610	-1.140418	-0.097048	6
C	1.862420	-0.678278	-0.070748	6
O	2.837460	-1.402988	-0.137928	8
O	1.880420	0.677992	0.039812	8
C	0.538760	1.162832	0.090482	6
H	-2.218320	-0.992758	-0.063498	1
H	-2.140970	0.604222	-0.823808	1
H	-2.126400	0.458362	0.946582	1
H	0.196510	-2.175198	-0.179208	1
H	0.372390	1.841842	-0.751048	1
H	0.387130	1.696182	1.033572	1
Es	0.137649	-0.662062	0.264240	99
Es	1.846943	0.586914	0.030389	99
Es	2.580578	-1.223405	-0.116719	99
Es	1.899176	0.159831	-0.001720	99
Es	1.373809	0.874137	0.060763	99
Es	0.423917	1.511293	0.723940	99
Es	1.862409	-0.677998	-0.070726	99
Es	1.162943	-0.929684	-0.085627	99
Es	0.095529	0.559947	0.044732	99
Es	1.880007	0.677696	0.039584	99
Es	2.818592	-1.310001	-0.130188	99
Es	0.294978	-1.833520	-0.152132	99
Es	0.475699	-1.140446	-0.097050	99
Es	0.538975	1.162717	0.090471	99
Es	-1.995561	0.312458	0.638022	99
Es	-0.291321	-0.056412	-0.002196	99
Es	-2.005000	0.409366	-0.545546	99
Es	-1.022434	-0.016677	0.007053	99
Es	0.132283	-0.610318	-0.370293	99
Es	2.092155	0.830429	0.051292	99
Es	2.837091	-1.402827	-0.137912	99
Es	3.006990	-1.657027	-0.160149	99
Es	2.447629	-1.051201	-0.110326	99
Es	-1.773714	0.004765	0.015042	99
Es	-2.067306	-0.657720	-0.037063	99
Es	0.414192	1.609067	-0.475938	99
39
Properties=species:S:1:pos:R:3:Z:I:1 energy=-342.6855894516418 field_type=dipole dipole="0.000000 0.000000 0.000000" charge=0
C	-1.773780	0.004752	0.015042	6
C	-0.291230	-0.056548	-0.002208	6
C	0.475610	-1.140418	-0.097048	6
C	1.862420	-0.678278	-0.070748	6
O	2.837460	-1.402988	-0.137928	8
O	1.880420	0.677992	0.039812	8
C	0.538760	1.162832	0.090482	6
H	-2.218320	-0.992758	-0.063498	1
H	-2.140970	0.604222	-0.823808	1
H	-2.126400	0.458362	0.946582	1
H	0.196510	-2.175198	-0.179208	1
H	0.372390	1.841842	-0.751048	1
H	0.387130	1.696182	1.033572	1
Es	2.837382	-1.402258	-0.137861	99
Es	1.862410	-0.677996	-0.070724	99
Es	0.095309	0.559696	0.044800	99
Es	-2.004744	0.409261	-0.545207	99
Es	2.090662	0.829547	0.048518	99
Es	1.846974	0.586552	0.034460	99
Es	2.580573	-1.223481	-0.116198	99
Es	0.140130	-0.662513	0.263801	99
Es	-1.773714	0.004764	0.015042	99
Es	-2.067575	-0.657815	-0.037202	99
Es	3.010028	-1.654595	-0.160810	99
Es	2.814269	-1.313880	-0.130071	99
Es	-0.291323	-0.056413	-0.002196	99
Es	0.475700	-1.140444	-0.097054	99
Es	0.414287	1.608956	-0.475714	99
Es	0.424079	1.511544	0.723579	99
Es	1.162560	-0.929453	-0.085643	99
Es	-1.022303	-0.016371	0.007118	99
Es	1.900090	0.160296	-0.002947	99
Es	-1.995651	0.312641	0.637851	99
Es	0.295242	-1.833792	-0.152152	99
Es	1.880012	0.677683	0.039916	99
Es	0.129907	-0.609811	-0.369740	99
Es	0.538974	1.162718	0.090472	99
Es	1.374317	0.874746	0.060350	99
Es	2.448613	-1.050261	-0.110441	99
39
Properties=species:S:1:pos:R:3:Z:I:1 energy=-342.6855894516418 field_type=dipole dipole="0.000000 0.000000 0.000000" charge=0
C	-1.773780	0.004752	0.015042	6
C	-0.291230	-0.056548	-0.002208	6
C	0.475610	-1.140418	-0.097048	6
C	1.862420	-0.678278	-0.070748	6
O	2.837460	-1.402988	-0.137928	8
O	1.880420	0.677992	0.039812	8
C	0.538760	1.162832	0.090482	6
H	-2.218320	-0.992758	-0.063498	1
H	-2.140970	0.604222	-0.823808	1
H	-2.126400	0.458362	0.946582	1
H	0.196510	-2.175198	-0.179208	1
H	0.372390	1.841842	-0.751048	1
H	0.387130	1.696182	1.033572	1
Es	1.862410	-0.677995	-0.070725	99
Es	0.475697	-1.140449	-0.097043	99
Es	-1.022076	-0.016125	0.007158	99
Es	1.900633	0.160553	-0.002831	99
Es	-0.291321	-0.056412	-0.002196	99
Es	0.414339	1.608933	-0.475535	99
Es	0.295757	-1.834075	-0.152202	99
Es	2.836747	-1.402962	-0.137916	99
Es	-1.773711	0.004765	0.015042	99
Es	2.814218	-1.313753	-0.130575	99
Es	-2.067810	-0.657600	-0.037098	99
Es	0.131936	-0.610192	-0.369609	99
Es	0.424260	1.511691	0.723222	99
Es	2.089697	0.828642	0.050764	99
Es	1.879996	0.677630	0.039561	99
Es	2.449078	-1.050483	-0.102974	99
Es	3.010292	-1.654464	-0.159955	99
Es	0.538980	1.162719	0.090472	99
Es	-2.005662	0.410474	-0.544839	99
Es	1.162248	-0.929044	-0.085447	99
Es	1.846999	0.586734	0.032340	99
Es	0.095009	0.559184	0.044997	99
Es	2.580532	-1.222820	-0.123939	99
Es	0.138076	-0.662093	0.263510	99
Es	1.374582	0.875037	0.060432	99
Es	-1.994699	0.311424	0.637331	99
39
Properties=species:S:1:pos:R:3:Z:I:1 energy=-342.6855894516418 field_type=dipole dipole="0.000000 0.000000 0.000000" charge=0
C	-1.773780	0.004752	0.015042	6
C	-0.291230	-0.056548	-0.002208	6
C	0.475610	-1.140418	-0.097048	6
C	1.862420	-0.678278	-0.070748	6
O	2.837460	-1.402988	-0.137928	8
O	1.880420	0.677992	0.039812	8
C	0.538760	1.162832	0.090482	6
H	-2.218320	-0.992758	-0.063498	1
H	-2.140970	0.604222	-0.823808	1
H	-2.126400	0.458362	0.946582	1
H	0.196510	-2.175198	-0.179208	1
H	0.372390	1.841842	-0.751048	1
H	0.387130	1.696182	1.033572	1
Es	0.094857	0.558912	0.044821	99
Es	1.847644	0.587893	0.037489	99
Es	2.580502	-1.222567	-0.126969	99
Es	1.862410	-0.677992	-0.070725	99
Es	1.374870	0.875315	0.061060	99
Es	2.837109	-1.402779	-0.137933	99
Es	2.088186	0.828428	0.041002	99
Es	0.538977	1.162718	0.090473	99
Es	2.815786	-1.312374	-0.130450	99
Es	0.145600	-0.663647	0.261864	99
Es	-1.021932	-0.016485	0.007081	99
Es	1.879553	0.676093	0.041617	99
Es	0.414512	1.608221	-0.475357	99
Es	-1.996163	0.313540	0.637331	99
Es	1.901590	0.160800	-0.000862	99
Es	1.162296	-0.928999	-0.085696	99
Es	-1.773715	0.004764	0.015042	99
Es	-0.291319	-0.056412	-0.002196	99
Es	0.424202	1.512443	0.723143	99
Es	3.008571	-1.655842	-0.159724	99
Es	0.295668	-1.834107	-0.152209	99
Es	2.448878	-1.050945	-0.100275	99
Es	0.475700	-1.140444	-0.097052	99
Es	0.124528	-0.608651	-0.367692	99
Es	-2.004137	0.408375	-0.544822	99
Es	-2.067966	-0.656935	-0.037016	99
39
Properties=species:S:1:pos:R:3:Z:I:1 energy=-342.6855894516418 field_type=dipole dipole="0.000000 0.000000 0.000000" charge=0
C	-1.773780	0.004752	0.015042	6
C	-0.291230	-0.056548	-0.002208	6
C	0.475610	-1.140418	-0.097048	6
C	1.862420	-0.678278	-0.070748	6
O	2.837460	-1.402988	-0.137928	8
O	1.880420	0.677992	0.039812	8
C	0.538760	1.162832	0.090482	6
H	-2.218320	-0.992758	-0.063498	1
H	-2.140970	0.604222	-0.823808	1
H	-2.126400	0.458362	0.946582	1
H	0.196510	-2.175198	-0.179208	1
H	0.372390	1.841842	-0.751048	1
H	0.387130	1.696182	1.033572	1
Es	1.880019	0.677708	0.039716	99
Es	0.414857	1.604704	-0.475191	99
Es	1.902276	0.161315	-0.002849	99
Es	-1.773712	0.004765	0.015042	99
Es	3.009387	-1.655162	-0.160139	99
Es	2.580517	-1.222640	-0.125887	99
Es	0.140334	-0.612131	-0.368450	99
Es	0.129786	-0.660096	0.262117	99
Es	2.087417	0.827133	0.050471	99
Es	0.538980	1.162719	0.090470	99
Es	0.094863	0.558747	0.044918	99
Es	-1.989762	0.304725	0.635147	99
Es	1.162042	-0.928834	-0.085338	99
Es	1.862406	-0.678002	-0.070726	99
Es	-0.291323	-0.056413	-0.002197	99
Es	-2.067904	-0.656699	-0.037131	99
Es	1.375057	0.875539	0.061169	99
Es	-1.021880	-0.016425	0.007047	99
Es	0.423794	1.515913	0.723116	99
Es	-2.010599	0.417142	-0.542456	99
Es	0.296078	-1.834198	-0.152384	99
Es	2.814535	-1.313470	-0.130364	99
Es	2.836943	-1.402919	-0.137916	99
Es	1.846948	0.586687	0.031822	99
Es	0.475696	-1.140454	-0.097048	99
Es	2.449453	-1.050333	-0.101014	99
39
Properties=species:S:1:pos:R:3:Z:I:1 energy=-342.6855894516418 field_type=dipole dipole="0.000000 0.000000 0.000000" charge=0
C	-1.773780	0.004752	0.015042	6
C	-0.291230	-0.056548	-0.002208	6
C	0.475610	-1.140418	-0.097048	6
C	1.862420	-0.678278	-0.070748	6
O	2.837460	-1.402988	-0.137928	8
O	1.880420	0.677992	0.039812	8
C	0.538760	1.162832	0.090482	6
H	-2.218320	-0.992758	-0.063498	1
H	-2.140970	0.604222	-0.823808	1
H	-2.126400	0.458362	0.946582	1
H	0.196510	-2.175198	-0.179208	1
H	0.372390	1.841842	-0.751048	1
H	0.387130	1.696182	1.033572	1
Es	0.424464	1.515762	0.722480	99
Es	-1.022201	-0.016327	0.006936	99
Es	2.817532	-1.310482	-0.130566	99
Es	1.376040	0.877152	0.059018	99
Es	0.094232	0.559910	0.045255	99
Es	2.837046	-1.402849	-0.137920	99
Es	-0.291321	-0.056412	-0.002200	99
Es	2.446006	-1.052672	-0.111270	99
Es	0.538979	1.162719	0.090475	99
Es	3.009764	-1.654958	-0.159044	99
Es	0.293873	-1.833542	-0.152223	99
Es	-1.989548	0.304877	0.634312	99
Es	2.580611	-1.223415	-0.116353	99
Es	1.905273	0.162870	-0.004581	99
Es	1.862410	-0.677996	-0.070725	99
Es	0.150330	-0.615146	-0.361860	99
Es	0.415319	1.605403	-0.474630	99
Es	-1.773716	0.004763	0.015043	99
Es	1.980730	0.749569	0.053911	99
Es	1.163925	-0.929518	-0.084968	99
Es	1.983474	0.752216	0.047862	99
Es	1.847064	0.587728	0.024219	99
Es	-2.068467	-0.659336	-0.037111	99
Es	0.475697	-1.140449	-0.097051	99
Es	0.119189	-0.657613	0.254883	99
Es	-2.010498	0.417067	-0.541946	99
39
Properties=species:S:1:pos:R:3:Z:I:1 energy=-342.6855894516418 field_type=dipole dipole="0.000000 0.000000 0.000000" charge=0
C	-1.773780	0.004752	0.015042	6
C	-0.291230	-0.056548	-0.002208	6
C	0.475610	-1.140418	-0.097048	6
C	1.862420	-0.678278	-0.070748	6
O	2.837460	-1.402988	-0.137928	8
O	1.880420	0.677992	0.039812	8
C	0.538760	1.162832	0.090482	6
H	-2.218320	-0.992758	-0.063498	1
H	-2.140970	0.604222	-0.823808	1
H	-2.126400	0.458362	0.946582	1
H	0.196510	-2.175198	-0.179208	1
H	0.372390	1.841842	-0.751048	1
H	0.387130	1.696182	1.033572	1
Es	2.450380	-1.049498	-0.100817	99
Es	2.811835	-1.315693	-0.130684	99
Es	-1.987707	0.302164	0.633610	99
Es	2.085944	0.825432	0.055693	99
Es	0.094937	0.558373	0.044932	99
Es	1.862410	-0.677997	-0.070723	99
Es	-1.021739	-0.016103	0.006957	99
Es	2.837069	-1.402834	-0.137913	99
Es	1.375700	0.876371	0.060388	99
Es	0.538975	1.162718	0.090471	99
Es	1.847087	0.587149	0.029566	99
Es	1.161685	-0.928730	-0.085274	99
Es	0.123660	-0.658402	0.259193	99
Es	0.475699	-1.140445	-0.097050	99
Es	-2.067891	-0.656443	-0.037027	99
Es	0.296488	-1.834313	-0.152233	99
Es	-1.773714	0.004765	0.015042	99
Es	-0.291319	-0.056412	-0.002196	99
Es	2.580507	-1.222656	-0.125805	99
Es	0.146451	-0.613768	-0.365727	99
Es	0.423614	1.516865	0.722984	99
Es	-2.012638	0.419727	-0.540895	99
Es	1.880016	0.677575	0.038826	99
Es	1.902878	0.161696	-0.004146	99
Es	0.414859	1.603657	-0.475131	99
Es	3.011020	-1.653874	-0.160096	99
39
Properties=species:S:1:pos:R:3:Z:I:1 energy=-342.6855894516418 field_type=dipole dipole="0.000000 0.000000 0.000000" charge=0
C	-1.773780	0.004752	0.015042	6
C	-0.291230	-0.056548	-0.002208	6
C	0.475610	-1.140418	-0.097048	6
C	1.862420	-0.678278	-0.070748	6
O	2.837460	-1.402988	-0.137928	8
O	1.880420	0.677992	0.039812	8
C	0.538760	1.162832	0.090482	6
H	-2.218320	-0.992758	-0.063498	1
H	-2.140970	0.604222	-0.823808	1
H	-2.126400	0.458362	0.946582	1
H	0.196510	-2.175198	-0.179208	1
H	0.372390	1.841842	-0.751048	1
H	0.387130	1.696182	1.033572	1
Es	0.423234	1.519629	0.722544	99
Es	0.296864	-1.834451	-0.152445	99
Es	-1.986218	0.300093	0.632295	99
Es	0.475699	-1.140445	-0.097051	99
Es	1.862407	-0.678002	-0.070725	99
Es	-1.021718	-0.016056	0.006919	99
Es	0.415145	1.600832	-0.474550	99
Es	0.125040	-0.658721	0.260103	99
Es	-0.291320	-0.056412	-0.002196	99
Es	2.580563	-1.222990	-0.121856	99
Es	1.903096	0.161859	-0.004737	99
Es	2.450742	-1.048802	-0.104559	99
Es	1.879660	0.676632	0.040641	99
Es	0.538982	1.162719	0.090470	99
Es	-1.773718	0.004762	0.015042	99
Es	0.094930	0.558108	0.044843	99
Es	1.161271	-0.928609	-0.085331	99
Es	2.836854	-1.402902	-0.137923	99
Es	2.085709	0.825860	0.049203	99
Es	-2.014106	0.421793	-0.539294	99
Es	1.847349	0.587451	0.034257	99
Es	3.011610	-1.653365	-0.160506	99
Es	0.145239	-0.613369	-0.366381	99
Es	2.811040	-1.316490	-0.130556	99
Es	-2.067876	-0.656142	-0.037186	99
Es	1.375730	0.876339	0.060922	99
