43
Properties=species:S:1:pos:R:3:Z:I:1 energy=-270.90940144749425 field_type=dipole dipole="0.000000 0.000000 0.000000" charge=0
C	-2.136741	-1.245207	0.512037	6
C	-0.652651	-1.060497	0.533636	6
C	0.048229	0.074893	0.332946	6
C	-0.567370	1.430203	0.099206	6
C	1.564540	0.061673	0.376586	6
C	2.126789	0.277523	-0.965043	6
C	2.591919	0.452943	-2.059034	6
H	-2.388981	-2.084027	-0.145024	1
H	-2.682311	-0.373617	0.145756	1
H	-2.496171	-1.482307	1.517926	1
H	-0.101531	-1.983117	0.716326	1
H	-1.642691	1.454783	0.288946	1
H	-0.401251	1.753823	-0.933113	1
H	-0.116550	2.170173	0.769557	1
H	1.936549	-0.890997	0.773066	1
H	1.917939	0.836673	1.066987	1
H	3.000279	0.607083	-3.030763	1
Es	0.824370	0.069261	0.341026	99
Es	-0.450631	1.640050	-0.592580	99
Es	1.801316	0.588446	0.821983	99
Es	-0.567349	1.430162	0.099219	99
Es	2.592005	0.452975	-2.059250	99
Es	2.049758	0.276903	-1.669943	99
Es	-0.296578	-0.553962	0.108727	99
Es	-0.264877	0.749681	0.213440	99
Es	-0.252845	1.922661	0.555555	99
Es	-2.136697	-1.245204	0.512040	99
Es	-2.298369	-1.813377	0.068962	99
Es	1.564562	0.061703	0.376451	99
Es	-1.296605	1.437514	0.227522	99
Es	2.432027	0.710342	-1.445072	99
Es	-0.278047	-1.692829	0.660463	99
Es	-0.652735	-1.060584	0.533645	99
Es	-1.398238	-1.133639	0.520714	99
Es	1.852548	0.179463	-0.320786	99
Es	1.816000	-0.577604	0.625264	99
Es	-2.370691	-1.404392	1.192914	99
Es	2.858675	0.553613	-2.693820	99
Es	-0.310473	-0.433016	0.766236	99
Es	2.610766	0.116176	-1.457851	99
Es	2.126688	0.277487	-0.964789	99
Es	0.048340	0.075020	0.332924	99
Es	-2.501602	-0.649037	0.265906	99
43
Properties=species:S:1:pos:R:3:Z:I:1 energy=-270.90940144749425 field_type=dipole dipole="0.000000 0.000000 0.000000" charge=0
C	-2.136741	-1.245207	0.512037	6
C	-0.652651	-1.060497	0.533636	6
C	0.048229	0.074893	0.332946	6
C	-0.567370	1.430203	0.099206	6
C	1.564540	0.061673	0.376586	6
C	2.126789	0.277523	-0.965043	6
C	2.591919	0.452943	-2.059034	6
H	-2.388981	-2.084027	-0.145024	1
H	-2.682311	-0.373617	0.145756	1
H	-2.496171	-1.482307	1.517926	1
H	-0.101531	-1.983117	0.716326	1
H	-1.642691	1.454783	0.288946	1
H	-0.401251	1.753823	-0.933113	1
H	-0.116550	2.170173	0.769557	1
H	1.936549	-0.890997	0.773066	1
H	1.917939	0.836673	1.066987	1
H	3.000279	0.607083	-3.030763	1
Es	-2.373097	-1.405157	1.196523	99
Es	1.852586	0.177037	-0.323839	99
Es	2.592017	0.452983	-2.059259	99
Es	1.799836	0.586786	0.822784	99
Es	0.825123	0.069372	0.338806	99
Es	-0.652735	-1.060582	0.533652	99
Es	-0.253681	1.920148	0.555906	99
Es	-0.449478	1.641132	-0.596012	99
Es	2.673125	0.281281	-1.405926	99
Es	0.048337	0.075016	0.332919	99
Es	1.814320	-0.576442	0.626112	99
Es	-2.136696	-1.245203	0.512041	99
Es	2.861666	0.558012	-2.693299	99
Es	-0.264227	0.750286	0.212153	99
Es	-0.567348	1.430162	0.099219	99
Es	1.564562	0.061703	0.376452	99
Es	2.145729	0.108103	-1.659330	99
Es	-1.398248	-1.133370	0.522377	99
Es	2.272004	0.712785	-1.508201	99
Es	-2.297494	-1.810768	0.067689	99
Es	-2.499361	-0.651842	0.265497	99
Es	-0.310166	-0.432496	0.770803	99
Es	-1.295898	1.436615	0.229477	99
Es	2.126682	0.277476	-0.964785	99
Es	-0.279869	-1.690402	0.663318	99
Es	-0.296370	-0.554821	0.103827	99
43
Properties=species:S:1:pos:R:3:Z:I:1 energy=-270.90940144749425 field_type=dipole dipole="0.000000 0.000000 0.000000" charge=0
C	-2.136741	-1.245207	0.512037	6
C	-0.652651	-1.060497	0.533636	6
C	0.048229	0.074893	0.332946	6
C	-0.567370	1.430203	0.099206	6
C	1.564540	0.061673	0.376586	6
C	2.126789	0.277523	-0.965043	6
C	2.591919	0.452943	-2.059034	6
H	-2.388981	-2.084027	-0.145024	1
H	-2.682311	-0.373617	0.145756	1
H	-2.496171	-1.482307	1.517926	1
H	-0.101531	-1.983117	0.716326	1
H	-1.642691	1.454783	0.288946	1
H	-0.401251	1.753823	-0.933113	1
H	-0.116550	2.170173	0.769557	1
H	1.936549	-0.890997	0.773066	1
H	1.917939	0.836673	1.066987	1
H	3.000279	0.607083	-3.030763	1
Es	1.798623	0.585622	0.823090	99
Es	-0.296335	-0.555679	0.101315	99
Es	-0.448365	1.641867	-0.597601	99
Es	2.592020	0.452959	-2.059258	99
Es	-0.264091	0.750948	0.211323	99
Es	-1.398154	-1.133169	0.523443	99
Es	-0.309807	-0.432079	0.772719	99
Es	-0.280645	-1.688331	0.664742	99
Es	-0.254320	1.918445	0.556372	99
Es	2.283189	0.715812	-1.502520	99
Es	-2.297027	-1.808932	0.067076	99
Es	1.813438	-0.575831	0.626620	99
Es	1.852796	0.175639	-0.325512	99
Es	2.148572	0.101647	-1.659063	99
Es	0.048342	0.075015	0.332910	99
Es	1.564561	0.061703	0.376451	99
Es	2.658103	0.284191	-1.412436	99
Es	2.863314	0.560676	-2.692473	99
Es	2.126667	0.277470	-0.964785	99
Es	-2.498010	-0.654075	0.265647	99
Es	-0.652736	-1.060582	0.533655	99
Es	-2.136696	-1.245204	0.512042	99
Es	-0.567349	1.430163	0.099219	99
Es	0.825603	0.069431	0.337475	99
Es	-1.295648	1.435737	0.230313	99
Es	-2.374727	-1.405627	1.198139	99
43
Properties=species:S:1:pos:R:3:Z:I:1 energy=-270.90940144749425 field_type=dipole dipole="0.000000 0.000000 0.000000" charge=0
C	-2.136741	-1.245207	0.512037	6
C	-0.652651	-1.060497	0.533636	6
C	0.048229	0.074893	0.332946	6
C	-0.567370	1.430203	0.099206	6
C	1.564540	0.061673	0.376586	6
C	2.126789	0.277523	-0.965043	6
C	2.591919	0.452943	-2.059034	6
H	-2.388981	-2.084027	-0.145024	1
H	-2.682311	-0.373617	0.145756	1
H	-2.496171	-1.482307	1.517926	1
H	-0.101531	-1.983117	0.716326	1
H	-1.642691	1.454783	0.288946	1
H	-0.401251	1.753823	-0.933113	1
H	-0.116550	2.170173	0.769557	1
H	1.936549	-0.890997	0.773066	1
H	1.917939	0.836673	1.066987	1
H	3.000279	0.607083	-3.030763	1
Es	1.797663	0.584447	0.822745	99
Es	2.592020	0.452987	-2.059261	99
Es	-0.567350	1.430164	0.099219	99
Es	1.564561	0.061704	0.376450	99
Es	1.813031	-0.575824	0.627216	99
Es	-0.652735	-1.060581	0.533656	99
Es	2.621660	0.254116	-1.433523	99
Es	-0.255017	1.916638	0.555962	99
Es	-2.136697	-1.245205	0.512041	99
Es	-0.296277	-0.556111	0.100611	99
Es	-0.263839	0.751468	0.210439	99
Es	2.126669	0.277470	-0.964783	99
Es	-1.397884	-1.132873	0.524047	99
Es	2.863910	0.562000	-2.692102	99
Es	-0.447328	1.642865	-0.598371	99
Es	-0.309753	-0.431792	0.773176	99
Es	-2.296454	-1.807310	0.067322	99
Es	-2.497735	-0.655369	0.265610	99
Es	1.852659	0.175075	-0.326647	99
Es	0.825969	0.069502	0.336450	99
Es	-0.280912	-1.686990	0.665955	99
Es	2.339680	0.727478	-1.476547	99
Es	2.128718	0.120172	-1.663804	99
Es	-1.295913	1.435287	0.231274	99
Es	-2.375668	-1.406520	1.198855	99
Es	0.048339	0.075016	0.332912	99
43
Properties=species:S:1:pos:R:3:Z:I:1 energy=-270.90940144749425 field_type=dipole dipole="0.000000 0.000000 0.000000" charge=0
C	-2.136741	-1.245207	0.512037	6
C	-0.652651	-1.060497	0.533636	6
C	0.048229	0.074893	0.332946	6
C	-0.567370	1.430203	0.099206	6
C	1.564540	0.061673	0.376586	6
C	2.126789	0.277523	-0.965043	6
C	2.591919	0.452943	-2.059034	6
H	-2.388981	-2.084027	-0.145024	1
H	-2.682311	-0.373617	0.145756	1
H	-2.496171	-1.482307	1.517926	1
H	-0.101531	-1.983117	0.716326	1
H	-1.642691	1.454783	0.288946	1
H	-0.401251	1.753823	-0.933113	1
H	-0.116550	2.170173	0.769557	1
H	1.936549	-0.890997	0.773066	1
H	1.917939	0.836673	1.066987	1
H	3.000279	0.607083	-3.030763	1
Es	-2.136698	-1.245205	0.512041	99
Es	-0.255495	1.915281	0.555462	99
Es	-2.295993	-1.806068	0.067425	99
Es	-1.296124	1.434904	0.232141	99
Es	-0.567347	1.430162	0.099220	99
Es	0.048337	0.075013	0.332904	99
Es	-2.497467	-0.656594	0.265766	99
Es	-0.281104	-1.685894	0.666728	99
Es	-2.376498	-1.407223	1.199234	99
Es	2.864370	0.563286	-2.691656	99
Es	1.796867	0.583529	0.822377	99
Es	2.601952	0.256990	-1.442022	99
Es	2.126671	0.277467	-0.964782	99
Es	-0.446623	1.643593	-0.598833	99
Es	1.564561	0.061703	0.376450	99
Es	-0.296205	-0.556492	0.100137	99
Es	2.592020	0.452988	-2.059262	99
Es	-1.397731	-1.132323	0.524715	99
Es	1.852895	0.174858	-0.327282	99
Es	-0.263783	0.751704	0.209868	99
Es	0.826544	0.070091	0.335520	99
Es	2.356776	0.728377	-1.468874	99
Es	2.131116	0.116089	-1.663167	99
Es	1.812530	-0.576100	0.627806	99
Es	-0.652737	-1.060579	0.533667	99
Es	-0.309517	-0.431742	0.773320	99
43
Properties=species:S:1:pos:R:3:Z:I:1 energy=-270.90940144749425 field_type=dipole dipole="0.000000 0.000000 0.000000" charge=0
C	-2.136741	-1.245207	0.512037	6
C	-0.652651	-1.060497	0.533636	6
C	0.048229	0.074893	0.332946	6
C	-0.567370	1.430203	0.099206	6
C	1.564540	0.061673	0.376586	6
C	2.126789	0.277523	-0.965043	6
C	2.591919	0.452943	-2.059034	6
H	-2.388981	-2.084027	-0.145024	1
H	-2.682311	-0.373617	0.145756	1
H	-2.496171	-1.482307	1.517926	1
H	-0.101531	-1.983117	0.716326	1
H	-1.642691	1.454783	0.288946	1
H	-0.401251	1.753823	-0.933113	1
H	-0.116550	2.170173	0.769557	1
H	1.936549	-0.890997	0.773066	1
H	1.917939	0.836673	1.066987	1
H	3.000279	0.607083	-3.030763	1
Es	1.812299	-0.576144	0.628153	99
Es	2.126676	0.277467	-0.964780	99
Es	-2.136697	-1.245205	0.512042	99
Es	-0.281225	-1.684884	0.667372	99
Es	-1.397571	-1.132290	0.525006	99
Es	2.137750	0.108132	-1.661396	99
Es	2.586679	0.264772	-1.447710	99
Es	2.365409	0.728368	-1.464967	99
Es	-0.652738	-1.060579	0.533665	99
Es	-0.567347	1.430167	0.099222	99
Es	2.864670	0.564268	-2.691300	99
Es	-1.296219	1.434672	0.232609	99
Es	-2.497253	-0.657387	0.265852	99
Es	-0.263721	0.752102	0.209495	99
Es	-0.445915	1.644105	-0.599151	99
Es	-0.255995	1.914248	0.555109	99
Es	-2.377123	-1.407889	1.199456	99
Es	1.564559	0.061702	0.376451	99
Es	-0.296110	-0.556764	0.099914	99
Es	-2.295690	-1.804938	0.067675	99
Es	0.048339	0.075014	0.332909	99
Es	0.826709	0.070149	0.335133	99
Es	1.796403	0.582687	0.821967	99
Es	1.852951	0.174677	-0.327861	99
Es	-0.309542	-0.431626	0.773300	99
Es	2.592019	0.452988	-2.059264	99
43
Properties=species:S:1:pos:R:3:Z:I:1 energy=-270.90940144749425 field_type=dipole dipole="0.000000 0.000000 0.000000" charge=0
C	-2.136741	-1.245207	0.512037	6
C	-0.652651	-1.060497	0.533636	6
C	0.048229	0.074893	0.332946	6
C	-0.567370	1.430203	0.099206	6
C	1.564540	0.061673	0.376586	6
C	2.126789	0.277523	-0.965043	6
C	2.591919	0.452943	-2.059034	6
H	-2.388981	-2.084027	-0.145024	1
H	-2.682311	-0.373617	0.145756	1
H	-2.496171	-1.482307	1.517926	1
H	-0.101531	-1.983117	0.716326	1
H	-1.642691	1.454783	0.288946	1
H	-0.401251	1.753823	-0.933113	1
H	-0.116550	2.170173	0.769557	1
H	1.936549	-0.890997	0.773066	1
H	1.917939	0.836673	1.066987	1
H	3.000279	0.607083	-3.030763	1
Es	-0.652738	-1.060580	0.533664	99
Es	2.142531	0.102774	-1.659987	99
Es	1.852972	0.174688	-0.328167	99
Es	-2.497314	-0.657955	0.265738	99
Es	-0.263628	0.752324	0.209025	99
Es	0.826927	0.070228	0.334593	99
Es	-2.377547	-1.408457	1.199574	99
Es	-0.309504	-0.431620	0.773103	99
Es	2.864776	0.564984	-2.691078	99
Es	-1.296387	1.434388	0.233209	99
Es	2.569958	0.270594	-1.454277	99
Es	-2.136697	-1.245205	0.512042	99
Es	1.812289	-0.576280	0.628585	99
Es	-0.256450	1.913269	0.554593	99
Es	2.592025	0.453000	-2.059261	99
Es	-0.567348	1.430162	0.099219	99
Es	-0.281180	-1.684244	0.667870	99
Es	2.377470	0.727691	-1.459811	99
Es	1.795849	0.582175	0.821547	99
Es	-1.397409	-1.132128	0.525300	99
Es	-2.295347	-1.804052	0.068160	99
Es	1.564559	0.061703	0.376447	99
Es	2.126653	0.277470	-0.964788	99
Es	0.048338	0.075013	0.332917	99
Es	-0.296047	-0.556873	0.099992	99
Es	-0.445429	1.644741	-0.599305	99
43
Properties=species:S:1:pos:R:3:Z:I:1 energy=-270.90940144749425 field_type=dipole dipole="0.000000 0.000000 0.000000" charge=0
C	-2.136741	-1.245207	0.512037	6
C	-0.652651	-1.060497	0.533636	6
C	0.048229	0.074893	0.332946	6
C	-0.567370	1.430203	0.099206	6
C	1.564540	0.061673	0.376586	6
C	2.126789	0.277523	-0.965043	6
C	2.591919	0.452943	-2.059034	6
H	-2.388981	-2.084027	-0.145024	1
H	-2.682311	-0.373617	0.145756	1
H	-2.496171	-1.482307	1.517926	1
H	-0.101531	-1.983117	0.716326	1
H	-1.642691	1.454783	0.288946	1
H	-0.401251	1.753823	-0.933113	1
H	-0.116550	2.170173	0.769557	1
H	1.936549	-0.890997	0.773066	1
H	1.917939	0.836673	1.066987	1
H	3.000279	0.607083	-3.030763	1
Es	2.126673	0.277462	-0.964781	99
Es	-0.263521	0.752378	0.208799	99
Es	0.048340	0.075013	0.332909	99
Es	-2.295062	-1.803426	0.068349	99
Es	2.864062	0.566103	-2.691098	99
Es	2.334427	0.004498	-1.594708	99
Es	1.564561	0.061701	0.376450	99
Es	2.584716	0.625558	-1.389043	99
Es	1.852307	0.175320	-0.328620	99
Es	-0.296081	-0.556962	0.099914	99
Es	-2.377845	-1.408922	1.199645	99
Es	0.827405	0.070787	0.334055	99
Es	-1.296529	1.434221	0.233696	99
Es	2.592016	0.452992	-2.059266	99
Es	1.795497	0.581576	0.821219	99
Es	-0.444877	1.645630	-0.599279	99
Es	1.811758	-0.576635	0.628966	99
Es	-2.497330	-0.658682	0.265893	99
Es	-0.281179	-1.683637	0.668172	99
Es	-1.397322	-1.131787	0.525448	99
Es	2.172474	0.469702	-1.589930	99
Es	-2.136702	-1.245206	0.512039	99
Es	-0.652737	-1.060580	0.533662	99
Es	-0.256957	1.912158	0.554135	99
Es	-0.567347	1.430162	0.099219	99
Es	-0.309430	-0.431613	0.773058	99
43
Properties=species:S:1:pos:R:3:Z:I:1 energy=-270.90940144749425 field_type=dipole dipole="0.000000 0.000000 0.000000" charge=0
C	-2.136741	-1.245207	0.512037	6
C	-0.652651	-1.060497	0.533636	6
C	0.048229	0.074893	0.332946	6
C	-0.567370	1.430203	0.099206	6
C	1.564540	0.061673	0.376586	6
C	2.126789	0.277523	-0.965043	6
C	2.591919	0.452943	-2.059034	6
H	-2.388981	-2.084027	-0.145024	1
H	-2.682311	-0.373617	0.145756	1
H	-2.496171	-1.482307	1.517926	1
H	-0.101531	-1.983117	0.716326	1
H	-1.642691	1.454783	0.288946	1
H	-0.401251	1.753823	-0.933113	1
H	-0.116550	2.170173	0.769557	1
H	1.936549	-0.890997	0.773066	1
H	1.917939	0.836673	1.066987	1
H	3.000279	0.607083	-3.030763	1
Es	-1.397200	-1.131866	0.525571	99
Es	-1.296735	1.433867	0.234059	99
Es	1.795218	0.580991	0.820802	99
Es	-0.295943	-0.557066	0.100055	99
Es	-2.136694	-1.245203	0.512042	99
Es	-0.567348	1.430162	0.099219	99
Es	2.592016	0.452995	-2.059266	99
Es	1.852551	0.175178	-0.328805	99
Es	2.864189	0.566472	-2.690941	99
Es	2.330584	0.005149	-1.596020	99
Es	-0.652737	-1.060581	0.533653	99
Es	0.827394	0.070834	0.333866	99
Es	2.126678	0.277468	-0.964779	99
Es	2.185348	0.460099	-1.586369	99
Es	-2.497299	-0.659061	0.265920	99
Es	2.575572	0.634709	-1.391266	99
Es	-0.263520	0.752721	0.208370	99
Es	-0.444546	1.645879	-0.599316	99
Es	-2.294911	-1.802642	0.068682	99
Es	0.048338	0.075012	0.332898	99
Es	-0.257125	1.911621	0.553890	99
Es	-0.309465	-0.431605	0.772901	99
Es	1.811829	-0.576599	0.629192	99
Es	-2.378198	-1.409433	1.199648	99
Es	1.564561	0.061702	0.376451	99
Es	-0.281239	-1.682992	0.668446	99
43
Properties=species:S:1:pos:R:3:Z:I:1 energy=-270.90940144749425 field_type=dipole dipole="0.000000 0.000000 0.000000" charge=0
C	-2.136741	-1.245207	0.512037	6
C	-0.652651	-1.060497	0.533636	6
C	0.048229	0.074893	0.332946	6
C	-0.567370	1.430203	0.099206	6
C	1.564540	0.061673	0.376586	6
C	2.126789	0.277523	-0.965043	6
C	2.591919	0.452943	-2.059034	6
H	-2.388981	-2.084027	-0.145024	1
H	-2.682311	-0.373617	0.145756	1
H	-2.496171	-1.482307	1.517926	1
H	-0.101531	-1.983117	0.716326	1
H	-1.642691	1.454783	0.288946	1
H	-0.401251	1.753823	-0.933113	1
H	-0.116550	2.170173	0.769557	1
H	1.936549	-0.890997	0.773066	1
H	1.917939	0.836673	1.066987	1
H	3.000279	0.607083	-3.030763	1
Es	-2.294646	-1.802247	0.068764	99
Es	2.126669	0.277463	-0.964782	99
Es	1.794912	0.580596	0.820710	99
Es	-0.281162	-1.682131	0.668690	99
Es	-0.567348	1.430162	0.099219	99
Es	-2.136698	-1.245206	0.512041	99
Es	-0.263342	0.753244	0.208040	99
Es	-0.309594	-0.431449	0.772882	99
Es	2.543104	0.284358	-1.464049	99
Es	-1.397152	-1.131737	0.525675	99
Es	0.828061	0.071219	0.333588	99
Es	1.811155	-0.577172	0.629465	99
Es	0.048333	0.075017	0.332907	99
Es	2.592021	0.452988	-2.059263	99
Es	-2.378435	-1.409754	1.199673	99
Es	2.392006	0.725499	-1.453853	99
Es	-0.444235	1.646249	-0.599415	99
Es	-1.296715	1.433400	0.234311	99
Es	2.865139	0.566483	-2.690450	99
Es	-0.257444	1.911109	0.553774	99
Es	1.853394	0.174905	-0.328732	99
Es	-2.497317	-0.659867	0.266134	99
Es	1.564562	0.061703	0.376450	99
Es	-0.295904	-0.557264	0.099853	99
Es	-0.652738	-1.060579	0.533663	99
Es	2.154690	0.090821	-1.656391	99
43
Properties=species:S:1:pos:R:3:Z:I:1 energy=-270.90940144749425 field_type=dipole dipole="0.000000 0.000000 0.000000" charge=0
C	-2.136741	-1.245207	0.512037	6
C	-0.652651	-1.060497	0.533636	6
C	0.048229	0.074893	0.332946	6
C	-0.567370	1.430203	0.099206	6
C	1.564540	0.061673	0.376586	6
C	2.126789	0.277523	-0.965043	6
C	2.591919	0.452943	-2.059034	6
H	-2.388981	-2.084027	-0.145024	1
H	-2.682311	-0.373617	0.145756	1
H	-2.496171	-1.482307	1.517926	1
H	-0.101531	-1.983117	0.716326	1
H	-1.642691	1.454783	0.288946	1
H	-0.401251	1.753823	-0.933113	1
H	-0.116550	2.170173	0.769557	1
H	1.936549	-0.890997	0.773066	1
H	1.917939	0.836673	1.066987	1
H	3.000279	0.607083	-3.030763	1
Es	1.853496	0.174854	-0.328817	99
Es	1.811036	-0.577268	0.629714	99
Es	-0.443954	1.646580	-0.599423	99
Es	-1.397041	-1.131559	0.525668	99
Es	1.794734	0.580303	0.820425	99
Es	-0.257662	1.910558	0.553445	99
Es	2.592023	0.452997	-2.059263	99
Es	-0.309630	-0.431447	0.772732	99
Es	2.159474	0.086686	-1.654936	99
Es	-2.136698	-1.245205	0.512042	99
Es	-2.294519	-1.801657	0.069107	99
Es	-2.497370	-0.659978	0.266077	99
Es	2.126666	0.277463	-0.964784	99
Es	2.398570	0.724516	-1.451116	99
Es	2.531879	0.289348	-1.468207	99
Es	-0.281216	-1.682014	0.669014	99
Es	0.048341	0.075012	0.332904	99
Es	-0.295792	-0.557312	0.100014	99
Es	-0.263441	0.753148	0.207767	99
Es	-0.567349	1.430163	0.099219	99
Es	1.564557	0.061702	0.376449	99
Es	-0.652737	-1.060580	0.533663	99
Es	-2.378607	-1.410185	1.199662	99
Es	0.828244	0.071576	0.333261	99
Es	2.865121	0.566842	-2.690357	99
Es	-1.296808	1.433271	0.234644	99
43
Properties=species:S:1:pos:R:3:Z:I:1 energy=-270.90940144749425 field_type=dipole dipole="0.000000 0.000000 0.000000" charge=0
C	-2.136741	-1.245207	0.512037	6
C	-0.652651	-1.060497	0.533636	6
C	0.048229	0.074893	0.332946	6
C	-0.567370	1.430203	0.099206	6
C	1.564540	0.061673	0.376586	6
C	2.126789	0.277523	-0.965043	6
C	2.591919	0.452943	-2.059034	6
H	-2.388981	-2.084027	-0.145024	1
H	-2.682311	-0.373617	0.145756	1
H	-2.496171	-1.482307	1.517926	1
H	-0.101531	-1.983117	0.716326	1
H	-1.642691	1.454783	0.288946	1
H	-0.401251	1.753823	-0.933113	1
H	-0.116550	2.170173	0.769557	1
H	1.936549	-0.890997	0.773066	1
H	1.917939	0.836673	1.066987	1
H	3.000279	0.607083	-3.030763	1
Es	-2.294346	-1.801230	0.069488	99
Es	-0.652738	-1.060579	0.533664	99
Es	1.811584	-0.577001	0.629869	99
Es	-0.295728	-0.557240	0.100323	99
Es	-0.263486	0.753103	0.207598	99
Es	-0.309684	-0.431503	0.772425	99
Es	1.564561	0.061701	0.376451	99
Es	-0.443754	1.646874	-0.599413	99
Es	2.517953	0.295122	-1.473403	99
Es	-2.497447	-0.659714	0.265792	99
Es	1.794507	0.579864	0.819928	99
Es	-0.281136	-1.681952	0.669356	99
Es	2.408083	0.722701	-1.447349	99
Es	-1.396980	-1.131759	0.525849	99
Es	-2.136697	-1.245205	0.512042	99
Es	0.827781	0.071344	0.333220	99
Es	1.853611	0.175091	-0.328799	99
Es	2.164153	0.082604	-1.653389	99
Es	2.126666	0.277463	-0.964783	99
Es	-0.257908	1.910117	0.553070	99
Es	0.048337	0.075015	0.332905	99
Es	2.592024	0.452993	-2.059263	99
Es	-1.296863	1.433286	0.234899	99
Es	2.864920	0.567069	-2.690422	99
Es	-2.378745	-1.410512	1.199628	99
Es	-0.567348	1.430162	0.099219	99
43
Properties=species:S:1:pos:R:3:Z:I:1 energy=-270.90940144749425 field_type=dipole dipole="0.000000 0.000000 0.000000" charge=0
C	-2.136741	-1.245207	0.512037	6
C	-0.652651	-1.060497	0.533636	6
C	0.048229	0.074893	0.332946	6
C	-0.567370	1.430203	0.099206	6
C	1.564540	0.061673	0.376586	6
C	2.126789	0.277523	-0.965043	6
C	2.591919	0.452943	-2.059034	6
H	-2.388981	-2.084027	-0.145024	1
H	-2.682311	-0.373617	0.145756	1
H	-2.496171	-1.482307	1.517926	1
H	-0.101531	-1.983117	0.716326	1
H	-1.642691	1.454783	0.288946	1
H	-0.401251	1.753823	-0.933113	1
H	-0.116550	2.170173	0.769557	1
H	1.936549	-0.890997	0.773066	1
H	1.917939	0.836673	1.066987	1
H	3.000279	0.607083	-3.030763	1
Es	-2.294281	-1.800904	0.069571	99
Es	-0.567348	1.430162	0.099218	99
Es	-2.378999	-1.410667	1.199606	99
Es	1.853078	0.175388	-0.329107	99
Es	0.828377	0.071792	0.332766	99
Es	-0.281166	-1.681602	0.669315	99
Es	-1.396884	-1.131623	0.525949	99
Es	-0.295787	-0.557238	0.100294	99
Es	-0.258107	1.909706	0.552838	99
Es	2.864534	0.567569	-2.690445	99
Es	2.126663	0.277469	-0.964784	99
Es	1.794256	0.579670	0.819842	99
Es	2.217233	0.444876	-1.575994	99
Es	2.561908	0.646188	-1.395091	99
Es	1.811079	-0.577279	0.630131	99
Es	-0.652736	-1.060579	0.533666	99
Es	-1.296940	1.433066	0.235157	99
Es	2.312118	0.008732	-1.602750	99
Es	2.592017	0.452997	-2.059266	99
Es	-0.263505	0.753228	0.207617	99
Es	0.048338	0.075014	0.332906	99
Es	-2.497336	-0.660213	0.265945	99
Es	-0.309542	-0.431596	0.772408	99
Es	-2.136697	-1.245205	0.512043	99
Es	-0.443518	1.647159	-0.599386	99
Es	1.564561	0.061701	0.376451	99
43
Properties=species:S:1:pos:R:3:Z:I:1 energy=-270.90940144749425 field_type=dipole dipole="0.000000 0.000000 0.000000" charge=0
C	-2.136741	-1.245207	0.512037	6
C	-0.652651	-1.060497	0.533636	6
C	0.048229	0.074893	0.332946	6
C	-0.567370	1.430203	0.099206	6
C	1.564540	0.061673	0.376586	6
C	2.126789	0.277523	-0.965043	6
C	2.591919	0.452943	-2.059034	6
H	-2.388981	-2.084027	-0.145024	1
H	-2.682311	-0.373617	0.145756	1
H	-2.496171	-1.482307	1.517926	1
H	-0.101531	-1.983117	0.716326	1
H	-1.642691	1.454783	0.288946	1
H	-0.401251	1.753823	-0.933113	1
H	-0.116550	2.170173	0.769557	1
H	1.936549	-0.890997	0.773066	1
H	1.917939	0.836673	1.066987	1
H	3.000279	0.607083	-3.030763	1
Es	-2.294121	-1.800439	0.069902	99
Es	-0.652739	-1.060584	0.533663	99
Es	-0.258285	1.909405	0.552572	99
Es	0.048338	0.075013	0.332905	99
Es	-2.136698	-1.245205	0.512042	99
Es	-1.396727	-1.131575	0.525936	99
Es	-0.295721	-0.557303	0.100370	99
Es	-0.309716	-0.431541	0.772179	99
Es	2.226572	0.440355	-1.572940	99
Es	2.306346	0.009948	-1.604969	99
Es	1.811181	-0.577273	0.630260	99
Es	1.853260	0.175673	-0.329029	99
Es	-2.497434	-0.660401	0.265893	99
Es	0.828196	0.071671	0.332881	99
Es	2.558203	0.649313	-1.396061	99
Es	-0.263386	0.753342	0.207471	99
Es	2.864587	0.567746	-2.690359	99
Es	2.126665	0.277459	-0.964784	99
Es	2.592017	0.452994	-2.059266	99
Es	-0.443327	1.647355	-0.599336	99
Es	-0.567348	1.430162	0.099219	99
Es	1.564561	0.061702	0.376449	99
Es	-0.281112	-1.681367	0.669593	99
Es	-2.379158	-1.411033	1.199548	99
Es	-1.297016	1.433133	0.235276	99
Es	1.794178	0.579264	0.819488	99
43
Properties=species:S:1:pos:R:3:Z:I:1 energy=-270.90940144749425 field_type=dipole dipole="0.000000 0.000000 0.000000" charge=0
C	-2.136741	-1.245207	0.512037	6
C	-0.652651	-1.060497	0.533636	6
C	0.048229	0.074893	0.332946	6
C	-0.567370	1.430203	0.099206	6
C	1.564540	0.061673	0.376586	6
C	2.126789	0.277523	-0.965043	6
C	2.591919	0.452943	-2.059034	6
H	-2.388981	-2.084027	-0.145024	1
H	-2.682311	-0.373617	0.145756	1
H	-2.496171	-1.482307	1.517926	1
H	-0.101531	-1.983117	0.716326	1
H	-1.642691	1.454783	0.288946	1
H	-0.401251	1.753823	-0.933113	1
H	-0.116550	2.170173	0.769557	1
H	1.936549	-0.890997	0.773066	1
H	1.917939	0.836673	1.066987	1
H	3.000279	0.607083	-3.030763	1
Es	-2.136696	-1.245206	0.512043	99
Es	-0.258447	1.909049	0.552435	99
Es	2.414525	0.720999	-1.444849	99
Es	-0.652740	-1.060578	0.533666	99
Es	-1.396694	-1.131383	0.525754	99
Es	2.126669	0.277460	-0.964782	99
Es	-2.379111	-1.411055	1.199640	99
Es	2.592015	0.452996	-2.059265	99
Es	-0.567348	1.430162	0.099218	99
Es	-2.497402	-0.660991	0.266161	99
Es	-0.295718	-0.557329	0.100345	99
Es	0.828734	0.072009	0.332597	99
Es	-0.281123	-1.681000	0.669556	99
Es	1.564561	0.061702	0.376448	99
Es	-0.309658	-0.431464	0.772360	99
Es	2.865058	0.567746	-2.690101	99
Es	1.793975	0.579285	0.819527	99
Es	0.048336	0.075009	0.332900	99
Es	-2.294195	-1.800304	0.069955	99
Es	2.504967	0.301848	-1.478021	99
Es	1.853766	0.175137	-0.329057	99
Es	-0.443204	1.647620	-0.599374	99
Es	1.810854	-0.577594	0.630425	99
Es	2.170568	0.077460	-1.651389	99
Es	-0.263358	0.753633	0.207107	99
Es	-1.297014	1.432599	0.235603	99
