45
Properties=species:S:1:pos:R:3:Z:I:1 energy=-345.00273725736565 field_type=dipole dipole="0.000000 0.000000 0.000000" charge=0
C	-2.237442	0.250225	-0.652861	6
C	-0.725822	0.254125	-0.565401	6
C	-0.165842	1.390025	0.257149	6
O	1.132968	0.912475	0.609679	8
C	0.946048	-0.499085	0.774989	6
C	2.134718	-1.240665	0.196249	6
O	-0.260712	-0.912715	0.120059	8
H	-2.582201	-0.615135	-1.228651	1
H	-2.610142	1.161055	-1.130821	1
H	-2.689042	0.163105	0.341219	1
H	-0.282122	0.246535	-1.566531	1
H	-0.729312	1.558155	1.181869	1
H	-0.091482	2.329785	-0.296731	1
H	0.845878	-0.716785	1.844099	1
H	2.242678	-1.024265	-0.872661	1
H	2.008758	-2.322665	0.300579	1
H	3.063069	-0.934165	0.687759	1
Es	-0.260554	-0.912406	0.120014	99
Es	-0.421765	0.261414	-1.256812	99
Es	1.215187	1.024837	0.881943	99
Es	0.945882	-0.498908	0.774799	99
Es	-0.566558	1.500451	0.888076	99
Es	-0.725789	0.253947	-0.565266	99
Es	-0.463420	-0.962885	0.344100	99
Es	-2.536725	0.200008	0.024334	99
Es	-2.479870	0.874445	-0.978928	99
Es	1.132636	0.912305	0.609704	99
Es	2.759453	-1.032502	0.537885	99
Es	2.134710	-1.240661	0.196261	99
Es	0.634969	1.083800	0.484098	99
Es	-0.165618	1.389950	0.257199	99
Es	1.300785	0.939620	0.354954	99
Es	0.194989	-0.732783	0.355888	99
Es	1.549947	-0.872260	0.481487	99
Es	-0.419835	-0.465501	-0.133859	99
Es	1.036857	0.380570	0.668052	99
Es	-0.181986	-1.121544	-0.087649	99
Es	2.200318	-1.089652	-0.527852	99
Es	-0.117617	2.029086	-0.123159	99
Es	2.044634	-1.972335	0.276730	99
Es	-1.485863	0.254972	-0.607636	99
Es	0.875557	-0.651579	1.515288	99
Es	-2.467191	-0.331834	-1.048280	99
Es	-0.468896	0.844019	-0.161355	99
Es	-2.237411	0.250244	-0.652867	99
45
Properties=species:S:1:pos:R:3:Z:I:1 energy=-345.00273725736565 field_type=dipole dipole="0.000000 0.000000 0.000000" charge=0
C	-2.237442	0.250225	-0.652861	6
C	-0.725822	0.254125	-0.565401	6
C	-0.165842	1.390025	0.257149	6
O	1.132968	0.912475	0.609679	8
C	0.946048	-0.499085	0.774989	6
C	2.134718	-1.240665	0.196249	6
O	-0.260712	-0.912715	0.120059	8
H	-2.582201	-0.615135	-1.228651	1
H	-2.610142	1.161055	-1.130821	1
H	-2.689042	0.163105	0.341219	1
H	-0.282122	0.246535	-1.566531	1
H	-0.729312	1.558155	1.181869	1
H	-0.091482	2.329785	-0.296731	1
H	0.845878	-0.716785	1.844099	1
H	2.242678	-1.024265	-0.872661	1
H	2.008758	-2.322665	0.300579	1
H	3.063069	-0.934165	0.687759	1
Es	-0.260512	-0.912422	0.119972	99
Es	-2.480340	0.875543	-0.979499	99
Es	-0.421803	0.261519	-1.256483	99
Es	-2.237414	0.250241	-0.652870	99
Es	-0.462064	-0.966753	0.341745	99
Es	2.044493	-1.973012	0.277077	99
Es	2.134709	-1.240660	0.196261	99
Es	0.945883	-0.498908	0.774798	99
Es	0.875659	-0.651805	1.515323	99
Es	-0.181071	-1.118168	-0.086395	99
Es	0.634563	1.085490	0.484595	99
Es	2.759083	-1.031994	0.537958	99
Es	-1.486203	0.254504	-0.607482	99
Es	-0.117896	2.029939	-0.123466	99
Es	0.195218	-0.733848	0.357352	99
Es	-2.466789	-0.331945	-1.047579	99
Es	1.037353	0.379434	0.669131	99
Es	-2.536299	0.199569	0.023737	99
Es	-0.165627	1.389952	0.257197	99
Es	-0.725788	0.253948	-0.565266	99
Es	1.550263	-0.872273	0.481062	99
Es	-0.566195	1.499906	0.887453	99
Es	-0.469012	0.843959	-0.160877	99
Es	1.132674	0.912294	0.609653	99
Es	-0.422170	-0.464209	-0.134072	99
Es	2.200300	-1.089381	-0.527790	99
Es	1.216327	1.024789	0.879343	99
Es	1.299483	0.939107	0.356270	99
45
Properties=species:S:1:pos:R:3:Z:I:1 energy=-345.00273725736565 field_type=dipole dipole="0.000000 0.000000 0.000000" charge=0
C	-2.237442	0.250225	-0.652861	6
C	-0.725822	0.254125	-0.565401	6
C	-0.165842	1.390025	0.257149	6
O	1.132968	0.912475	0.609679	8
C	0.946048	-0.499085	0.774989	6
C	2.134718	-1.240665	0.196249	6
O	-0.260712	-0.912715	0.120059	8
H	-2.582201	-0.615135	-1.228651	1
H	-2.610142	1.161055	-1.130821	1
H	-2.689042	0.163105	0.341219	1
H	-0.282122	0.246535	-1.566531	1
H	-0.729312	1.558155	1.181869	1
H	-0.091482	2.329785	-0.296731	1
H	0.845878	-0.716785	1.844099	1
H	2.242678	-1.024265	-0.872661	1
H	2.008758	-2.322665	0.300579	1
H	3.063069	-0.934165	0.687759	1
Es	1.132717	0.912320	0.609635	99
Es	0.875795	-0.651909	1.515374	99
Es	-2.535809	0.199141	0.023275	99
Es	-0.421651	-0.464126	-0.136111	99
Es	2.759049	-1.031879	0.537846	99
Es	0.194694	-0.734521	0.358587	99
Es	-2.466607	-0.332008	-1.047200	99
Es	-2.480851	0.876258	-0.979577	99
Es	2.044311	-1.973330	0.277191	99
Es	-0.165626	1.389952	0.257197	99
Es	0.945883	-0.498909	0.774801	99
Es	-2.237414	0.250241	-0.652870	99
Es	1.301751	0.939631	0.361200	99
Es	-0.421926	0.261580	-1.256235	99
Es	-0.461823	-0.965677	0.340597	99
Es	1.038865	0.378577	0.669615	99
Es	-1.486313	0.254310	-0.607523	99
Es	-0.118130	2.030455	-0.123558	99
Es	0.634926	1.085105	0.478860	99
Es	1.550402	-0.872163	0.481089	99
Es	-0.181111	-1.118848	-0.084495	99
Es	-0.260588	-0.912485	0.120054	99
Es	-0.469166	0.844021	-0.160578	99
Es	2.200136	-1.089215	-0.527720	99
Es	-0.725789	0.253943	-0.565265	99
Es	1.212216	1.025447	0.879524	99
Es	-0.565823	1.499567	0.887177	99
Es	2.134708	-1.240660	0.196262	99
45
Properties=species:S:1:pos:R:3:Z:I:1 energy=-345.00273725736565 field_type=dipole dipole="0.000000 0.000000 0.000000" charge=0
C	-2.237442	0.250225	-0.652861	6
C	-0.725822	0.254125	-0.565401	6
C	-0.165842	1.390025	0.257149	6
O	1.132968	0.912475	0.609679	8
C	0.946048	-0.499085	0.774989	6
C	2.134718	-1.240665	0.196249	6
O	-0.260712	-0.912715	0.120059	8
H	-2.582201	-0.615135	-1.228651	1
H	-2.610142	1.161055	-1.130821	1
H	-2.689042	0.163105	0.341219	1
H	-0.282122	0.246535	-1.566531	1
H	-0.729312	1.558155	1.181869	1
H	-0.091482	2.329785	-0.296731	1
H	0.845878	-0.716785	1.844099	1
H	2.242678	-1.024265	-0.872661	1
H	2.008758	-2.322665	0.300579	1
H	3.063069	-0.934165	0.687759	1
Es	0.875832	-0.651997	1.515402	99
Es	-0.565747	1.499272	0.886861	99
Es	-1.486392	0.254211	-0.607546	99
Es	-0.118303	2.030802	-0.123721	99
Es	0.634886	1.086770	0.480830	99
Es	-0.421978	-0.463993	-0.137293	99
Es	2.044235	-1.973616	0.277358	99
Es	-2.237415	0.250240	-0.652869	99
Es	2.758831	-1.031666	0.537928	99
Es	-0.421927	0.261604	-1.256098	99
Es	-0.165627	1.389952	0.257198	99
Es	-0.183503	-1.121026	-0.082525	99
Es	-0.725789	0.253951	-0.565268	99
Es	2.134709	-1.240661	0.196261	99
Es	1.038111	0.378285	0.669408	99
Es	2.200076	-1.088976	-0.527793	99
Es	-0.460045	-0.962890	0.340819	99
Es	-0.260518	-0.912347	0.120025	99
Es	1.132668	0.912304	0.609653	99
Es	-2.466318	-0.331873	-1.046771	99
Es	0.195580	-0.735551	0.357640	99
Es	-2.535688	0.198873	0.023099	99
Es	-0.469055	0.843992	-0.160390	99
Es	-2.481169	0.876615	-0.979926	99
Es	1.216819	1.026088	0.878556	99
Es	1.297988	0.937621	0.360555	99
Es	0.945882	-0.498909	0.774802	99
Es	1.550681	-0.872258	0.480956	99
45
Properties=species:S:1:pos:R:3:Z:I:1 energy=-345.00273725736565 field_type=dipole dipole="0.000000 0.000000 0.000000" charge=0
C	-2.237442	0.250225	-0.652861	6
C	-0.725822	0.254125	-0.565401	6
C	-0.165842	1.390025	0.257149	6
O	1.132968	0.912475	0.609679	8
C	0.946048	-0.499085	0.774989	6
C	2.134718	-1.240665	0.196249	6
O	-0.260712	-0.912715	0.120059	8
H	-2.582201	-0.615135	-1.228651	1
H	-2.610142	1.161055	-1.130821	1
H	-2.689042	0.163105	0.341219	1
H	-0.282122	0.246535	-1.566531	1
H	-0.729312	1.558155	1.181869	1
H	-0.091482	2.329785	-0.296731	1
H	0.845878	-0.716785	1.844099	1
H	2.242678	-1.024265	-0.872661	1
H	2.008758	-2.322665	0.300579	1
H	3.063069	-0.934165	0.687759	1
Es	-0.422090	0.261574	-1.256040	99
Es	0.634697	1.086753	0.479057	99
Es	-2.237413	0.250241	-0.652870	99
Es	-2.481259	0.876935	-0.980132	99
Es	-0.459860	-0.963872	0.340368	99
Es	1.132683	0.912319	0.609654	99
Es	0.195840	-0.735796	0.357887	99
Es	-0.165629	1.389952	0.257198	99
Es	2.044250	-1.973800	0.277449	99
Es	1.297240	0.936030	0.361534	99
Es	2.134707	-1.240659	0.196260	99
Es	-0.725789	0.253951	-0.565268	99
Es	0.875981	-0.652133	1.515423	99
Es	-0.565691	1.499104	0.886677	99
Es	-0.469020	0.844121	-0.160381	99
Es	1.038879	0.378119	0.672347	99
Es	-0.183378	-1.119858	-0.081859	99
Es	1.216977	1.027883	0.876478	99
Es	-0.422498	-0.463963	-0.137691	99
Es	-2.535449	0.198844	0.022998	99
Es	-0.118337	2.031016	-0.123700	99
Es	2.758738	-1.031537	0.537854	99
Es	0.945884	-0.498908	0.774798	99
Es	-2.466245	-0.331970	-1.046502	99
Es	-0.260542	-0.912425	0.120032	99
Es	1.550690	-0.872281	0.480930	99
Es	2.199953	-1.088841	-0.527808	99
Es	-1.486496	0.254016	-0.607543	99
45
Properties=species:S:1:pos:R:3:Z:I:1 energy=-345.00273725736565 field_type=dipole dipole="0.000000 0.000000 0.000000" charge=0
C	-2.237442	0.250225	-0.652861	6
C	-0.725822	0.254125	-0.565401	6
C	-0.165842	1.390025	0.257149	6
O	1.132968	0.912475	0.609679	8
C	0.946048	-0.499085	0.774989	6
C	2.134718	-1.240665	0.196249	6
O	-0.260712	-0.912715	0.120059	8
H	-2.582201	-0.615135	-1.228651	1
H	-2.610142	1.161055	-1.130821	1
H	-2.689042	0.163105	0.341219	1
H	-0.282122	0.246535	-1.566531	1
H	-0.729312	1.558155	1.181869	1
H	-0.091482	2.329785	-0.296731	1
H	0.845878	-0.716785	1.844099	1
H	2.242678	-1.024265	-0.872661	1
H	2.008758	-2.322665	0.300579	1
H	3.063069	-0.934165	0.687759	1
Es	0.634821	1.087000	0.478796	99
Es	2.758634	-1.031552	0.537856	99
Es	1.132680	0.912303	0.609671	99
Es	-0.260594	-0.912480	0.120044	99
Es	-0.165629	1.389953	0.257196	99
Es	-0.183210	-1.119280	-0.081160	99
Es	-0.118440	2.031205	-0.123878	99
Es	0.875978	-0.652194	1.515528	99
Es	-1.486494	0.253953	-0.607535	99
Es	-2.481462	0.877177	-0.980225	99
Es	-2.466125	-0.331877	-1.046304	99
Es	-2.535378	0.198648	0.022757	99
Es	-0.725789	0.253952	-0.565267	99
Es	-0.422622	-0.463799	-0.138283	99
Es	1.218286	1.028578	0.876249	99
Es	2.200027	-1.088763	-0.527785	99
Es	-0.469010	0.844151	-0.160128	99
Es	2.134711	-1.240663	0.196261	99
Es	0.945883	-0.498908	0.774798	99
Es	0.195799	-0.736172	0.357837	99
Es	-0.422077	0.261600	-1.255897	99
Es	-2.237413	0.250241	-0.652869	99
Es	-0.565579	1.498995	0.886516	99
Es	1.039019	0.377706	0.672115	99
Es	2.044214	-1.973900	0.277464	99
Es	1.550673	-0.872162	0.480912	99
Es	-0.459740	-0.964301	0.340265	99
Es	1.295661	0.935404	0.362217	99
45
Properties=species:S:1:pos:R:3:Z:I:1 energy=-345.00273725736565 field_type=dipole dipole="0.000000 0.000000 0.000000" charge=0
C	-2.237442	0.250225	-0.652861	6
C	-0.725822	0.254125	-0.565401	6
C	-0.165842	1.390025	0.257149	6
O	1.132968	0.912475	0.609679	8
C	0.946048	-0.499085	0.774989	6
C	2.134718	-1.240665	0.196249	6
O	-0.260712	-0.912715	0.120059	8
H	-2.582201	-0.615135	-1.228651	1
H	-2.610142	1.161055	-1.130821	1
H	-2.689042	0.163105	0.341219	1
H	-0.282122	0.246535	-1.566531	1
H	-0.729312	1.558155	1.181869	1
H	-0.091482	2.329785	-0.296731	1
H	0.845878	-0.716785	1.844099	1
H	2.242678	-1.024265	-0.872661	1
H	2.008758	-2.322665	0.300579	1
H	3.063069	-0.934165	0.687759	1
Es	-0.565499	1.498912	0.886425	99
Es	0.945883	-0.498908	0.774797	99
Es	1.550948	-0.872290	0.480892	99
Es	-0.186506	-1.121554	-0.079699	99
Es	0.197515	-0.737200	0.357224	99
Es	-0.423179	-0.463927	-0.138642	99
Es	2.758384	-1.031399	0.537879	99
Es	-2.481458	0.877390	-0.980265	99
Es	1.038981	0.377569	0.673356	99
Es	-0.469091	0.844046	-0.159991	99
Es	-2.465957	-0.331733	-1.046328	99
Es	-2.237412	0.250240	-0.652870	99
Es	-0.725787	0.253946	-0.565265	99
Es	-0.422043	0.261662	-1.255954	99
Es	-2.535388	0.198407	0.022796	99
Es	-0.260527	-0.912395	0.119955	99
Es	2.044186	-1.974080	0.277728	99
Es	0.875974	-0.652187	1.515514	99
Es	1.216692	1.028698	0.875555	99
Es	-0.118501	2.031336	-0.123948	99
Es	-0.457642	-0.960983	0.339862	99
Es	0.635191	1.087083	0.477299	99
Es	1.132633	0.912285	0.609722	99
Es	-0.165625	1.389952	0.257197	99
Es	2.199999	-1.088618	-0.527966	99
Es	2.134710	-1.240661	0.196261	99
Es	-1.486627	0.253845	-0.607486	99
Es	1.296971	0.935380	0.363105	99
45
Properties=species:S:1:pos:R:3:Z:I:1 energy=-345.00273725736565 field_type=dipole dipole="0.000000 0.000000 0.000000" charge=0
C	-2.237442	0.250225	-0.652861	6
C	-0.725822	0.254125	-0.565401	6
C	-0.165842	1.390025	0.257149	6
O	1.132968	0.912475	0.609679	8
C	0.946048	-0.499085	0.774989	6
C	2.134718	-1.240665	0.196249	6
O	-0.260712	-0.912715	0.120059	8
H	-2.582201	-0.615135	-1.228651	1
H	-2.610142	1.161055	-1.130821	1
H	-2.689042	0.163105	0.341219	1
H	-0.282122	0.246535	-1.566531	1
H	-0.729312	1.558155	1.181869	1
H	-0.091482	2.329785	-0.296731	1
H	0.845878	-0.716785	1.844099	1
H	2.242678	-1.024265	-0.872661	1
H	2.008758	-2.322665	0.300579	1
H	3.063069	-0.934165	0.687759	1
Es	2.044154	-1.974211	0.277681	99
Es	2.134708	-1.240660	0.196262	99
Es	-0.423286	-0.463774	-0.139093	99
Es	-2.237414	0.250240	-0.652870	99
Es	2.758356	-1.031334	0.537901	99
Es	2.200007	-1.088540	-0.527867	99
Es	-2.481650	0.877434	-0.980411	99
Es	0.876085	-0.652296	1.515583	99
Es	0.195849	-0.736512	0.358776	99
Es	-0.421978	0.261770	-1.255945	99
Es	-0.459298	-0.965192	0.339039	99
Es	1.294851	0.934614	0.363546	99
Es	-0.725788	0.253949	-0.565267	99
Es	-0.469235	0.843989	-0.159791	99
Es	-1.486595	0.253839	-0.607582	99
Es	-0.165624	1.389952	0.257197	99
Es	-0.118631	2.031549	-0.124001	99
Es	1.550874	-0.872224	0.480723	99
Es	1.218771	1.029118	0.875425	99
Es	-0.565367	1.498751	0.886241	99
Es	0.945885	-0.498908	0.774798	99
Es	1.132660	0.912276	0.609661	99
Es	-0.183023	-1.118234	-0.080028	99
Es	-2.465960	-0.331818	-1.046045	99
Es	1.039401	0.377454	0.672756	99
Es	0.634818	1.087499	0.477681	99
Es	-2.535194	0.198478	0.022718	99
Es	-0.260550	-0.912392	0.120061	99
45
Properties=species:S:1:pos:R:3:Z:I:1 energy=-345.00273725736565 field_type=dipole dipole="0.000000 0.000000 0.000000" charge=0
C	-2.237442	0.250225	-0.652861	6
C	-0.725822	0.254125	-0.565401	6
C	-0.165842	1.390025	0.257149	6
O	1.132968	0.912475	0.609679	8
C	0.946048	-0.499085	0.774989	6
C	2.134718	-1.240665	0.196249	6
O	-0.260712	-0.912715	0.120059	8
H	-2.582201	-0.615135	-1.228651	1
H	-2.610142	1.161055	-1.130821	1
H	-2.689042	0.163105	0.341219	1
H	-0.282122	0.246535	-1.566531	1
H	-0.729312	1.558155	1.181869	1
H	-0.091482	2.329785	-0.296731	1
H	0.845878	-0.716785	1.844099	1
H	2.242678	-1.024265	-0.872661	1
H	2.008758	-2.322665	0.300579	1
H	3.063069	-0.934165	0.687759	1
Es	1.551145	-0.872435	0.480802	99
Es	-0.458686	-0.964947	0.339512	99
Es	-0.469050	0.844076	-0.159795	99
Es	0.945883	-0.498910	0.774799	99
Es	2.044097	-1.974163	0.277851	99
Es	1.293686	0.933466	0.363358	99
Es	-0.565397	1.498653	0.886204	99
Es	-1.486781	0.253851	-0.607433	99
Es	0.634874	1.087676	0.477575	99
Es	1.039315	0.377400	0.674042	99
Es	-0.725787	0.253947	-0.565267	99
Es	1.132670	0.912308	0.609695	99
Es	-0.260518	-0.912401	0.119985	99
Es	2.199831	-1.088462	-0.528097	99
Es	0.196445	-0.736969	0.357899	99
Es	-0.423668	-0.463478	-0.138574	99
Es	2.134709	-1.240660	0.196260	99
Es	2.758333	-1.031264	0.537961	99
Es	-2.465860	-0.331922	-1.046059	99
Es	-0.118665	2.031618	-0.124073	99
Es	-0.165626	1.389954	0.257196	99
Es	0.876045	-0.652272	1.515561	99
Es	-2.535134	0.198410	0.022566	99
Es	-2.237413	0.250241	-0.652871	99
Es	-0.422049	0.261709	-1.255866	99
Es	-0.183838	-1.118344	-0.080066	99
Es	1.219918	1.030111	0.874405	99
Es	-2.481657	0.877625	-0.980419	99
45
Properties=species:S:1:pos:R:3:Z:I:1 energy=-345.00273725736565 field_type=dipole dipole="0.000000 0.000000 0.000000" charge=0
C	-2.237442	0.250225	-0.652861	6
C	-0.725822	0.254125	-0.565401	6
C	-0.165842	1.390025	0.257149	6
O	1.132968	0.912475	0.609679	8
C	0.946048	-0.499085	0.774989	6
C	2.134718	-1.240665	0.196249	6
O	-0.260712	-0.912715	0.120059	8
H	-2.582201	-0.615135	-1.228651	1
H	-2.610142	1.161055	-1.130821	1
H	-2.689042	0.163105	0.341219	1
H	-0.282122	0.246535	-1.566531	1
H	-0.729312	1.558155	1.181869	1
H	-0.091482	2.329785	-0.296731	1
H	0.845878	-0.716785	1.844099	1
H	2.242678	-1.024265	-0.872661	1
H	2.008758	-2.322665	0.300579	1
H	3.063069	-0.934165	0.687759	1
Es	0.945885	-0.498911	0.774802	99
Es	2.758203	-1.031251	0.537940	99
Es	1.295322	0.934200	0.365126	99
Es	-0.182732	-1.117946	-0.079576	99
Es	-2.481766	0.877691	-0.980497	99
Es	-0.118642	2.031681	-0.124027	99
Es	0.876128	-0.652332	1.515578	99
Es	-0.725787	0.253946	-0.565266	99
Es	-2.465852	-0.331917	-1.045899	99
Es	-0.459235	-0.965588	0.339070	99
Es	2.044156	-1.974295	0.277810	99
Es	1.132597	0.912275	0.609650	99
Es	-0.260528	-0.912376	0.120025	99
Es	1.551063	-0.872357	0.480748	99
Es	1.039523	0.377302	0.673545	99
Es	1.218003	1.029202	0.874814	99
Es	-2.535027	0.198400	0.022528	99
Es	2.199924	-1.088367	-0.528022	99
Es	-1.486766	0.253791	-0.607515	99
Es	-0.565293	1.498679	0.886137	99
Es	-0.422121	0.261646	-1.255806	99
Es	-0.165627	1.389952	0.257197	99
Es	-0.469114	0.844134	-0.159811	99
Es	0.635009	1.087922	0.475933	99
Es	-2.237413	0.250241	-0.652870	99
Es	-0.423447	-0.463767	-0.139467	99
Es	0.195652	-0.736477	0.358744	99
Es	2.134710	-1.240661	0.196260	99
45
Properties=species:S:1:pos:R:3:Z:I:1 energy=-345.00273725736565 field_type=dipole dipole="0.000000 0.000000 0.000000" charge=0
C	-2.237442	0.250225	-0.652861	6
C	-0.725822	0.254125	-0.565401	6
C	-0.165842	1.390025	0.257149	6
O	1.132968	0.912475	0.609679	8
C	0.946048	-0.499085	0.774989	6
C	2.134718	-1.240665	0.196249	6
O	-0.260712	-0.912715	0.120059	8
H	-2.582201	-0.615135	-1.228651	1
H	-2.610142	1.161055	-1.130821	1
H	-2.689042	0.163105	0.341219	1
H	-0.282122	0.246535	-1.566531	1
H	-0.729312	1.558155	1.181869	1
H	-0.091482	2.329785	-0.296731	1
H	0.845878	-0.716785	1.844099	1
H	2.242678	-1.024265	-0.872661	1
H	2.008758	-2.322665	0.300579	1
H	3.063069	-0.934165	0.687759	1
Es	1.220061	1.030367	0.873960	99
Es	-0.118678	2.031745	-0.124024	99
Es	-0.260574	-0.912468	0.120055	99
Es	1.132636	0.912266	0.609615	99
Es	0.196083	-0.736852	0.358700	99
Es	1.551082	-0.872363	0.480673	99
Es	-0.565283	1.498613	0.886070	99
Es	1.293199	0.933013	0.364918	99
Es	0.945883	-0.498909	0.774799	99
Es	-0.725787	0.253943	-0.565264	99
Es	2.134710	-1.240661	0.196262	99
Es	-2.237413	0.250243	-0.652870	99
Es	-2.465601	-0.332028	-1.045797	99
Es	1.039561	0.377098	0.674265	99
Es	2.758191	-1.031254	0.537984	99
Es	-0.459410	-0.967324	0.338842	99
Es	2.044121	-1.974262	0.277858	99
Es	0.876070	-0.652366	1.515656	99
Es	-2.481788	0.877794	-0.980719	99
Es	-1.486908	0.253871	-0.607230	99
Es	-0.469065	0.844093	-0.159824	99
Es	-0.165627	1.389953	0.257197	99
Es	-0.182375	-1.116059	-0.079994	99
Es	2.199946	-1.088393	-0.528073	99
Es	-0.423974	-0.463404	-0.138785	99
Es	-2.535084	0.198383	0.022405	99
Es	-0.422121	0.261612	-1.255869	99
Es	0.634965	1.088164	0.476339	99
45
Properties=species:S:1:pos:R:3:Z:I:1 energy=-345.00273725736565 field_type=dipole dipole="0.000000 0.000000 0.000000" charge=0
C	-2.237442	0.250225	-0.652861	6
C	-0.725822	0.254125	-0.565401	6
C	-0.165842	1.390025	0.257149	6
O	1.132968	0.912475	0.609679	8
C	0.946048	-0.499085	0.774989	6
C	2.134718	-1.240665	0.196249	6
O	-0.260712	-0.912715	0.120059	8
H	-2.582201	-0.615135	-1.228651	1
H	-2.610142	1.161055	-1.130821	1
H	-2.689042	0.163105	0.341219	1
H	-0.282122	0.246535	-1.566531	1
H	-0.729312	1.558155	1.181869	1
H	-0.091482	2.329785	-0.296731	1
H	0.845878	-0.716785	1.844099	1
H	2.242678	-1.024265	-0.872661	1
H	2.008758	-2.322665	0.300579	1
H	3.063069	-0.934165	0.687759	1
Es	2.044026	-1.974333	0.277980	99
Es	1.039831	0.376969	0.673268	99
Es	2.134710	-1.240661	0.196261	99
Es	-0.183160	-1.117332	-0.079115	99
Es	1.297296	0.935402	0.366381	99
Es	0.635387	1.087916	0.474702	99
Es	1.215331	1.028316	0.875087	99
Es	-0.118766	2.031816	-0.124080	99
Es	-0.423823	-0.463453	-0.139469	99
Es	-0.469249	0.844123	-0.159621	99
Es	-0.565131	1.498625	0.885908	99
Es	-0.260459	-0.912390	0.119918	99
Es	-1.486752	0.253577	-0.607485	99
Es	-2.237415	0.250241	-0.652871	99
Es	-2.481743	0.877884	-0.980607	99
Es	-0.165632	1.389954	0.257196	99
Es	0.875985	-0.652234	1.515524	99
Es	-0.458774	-0.965883	0.338081	99
Es	0.945882	-0.498906	0.774796	99
Es	1.551314	-0.872539	0.480757	99
Es	2.199922	-1.088336	-0.528141	99
Es	0.195973	-0.737121	0.359372	99
Es	2.758126	-1.031183	0.538029	99
Es	1.132702	0.912311	0.609690	99
Es	-0.422195	0.261641	-1.255837	99
Es	-2.534956	0.198349	0.022467	99
Es	-2.465818	-0.331882	-1.045774	99
Es	-0.725788	0.253948	-0.565267	99
45
Properties=species:S:1:pos:R:3:Z:I:1 energy=-345.00273725736565 field_type=dipole dipole="0.000000 0.000000 0.000000" charge=0
C	-2.237442	0.250225	-0.652861	6
C	-0.725822	0.254125	-0.565401	6
C	-0.165842	1.390025	0.257149	6
O	1.132968	0.912475	0.609679	8
C	0.946048	-0.499085	0.774989	6
C	2.134718	-1.240665	0.196249	6
O	-0.260712	-0.912715	0.120059	8
H	-2.582201	-0.615135	-1.228651	1
H	-2.610142	1.161055	-1.130821	1
H	-2.689042	0.163105	0.341219	1
H	-0.282122	0.246535	-1.566531	1
H	-0.729312	1.558155	1.181869	1
H	-0.091482	2.329785	-0.296731	1
H	0.845878	-0.716785	1.844099	1
H	2.242678	-1.024265	-0.872661	1
H	2.008758	-2.322665	0.300579	1
H	3.063069	-0.934165	0.687759	1
Es	0.196432	-0.737422	0.358638	99
Es	-2.237410	0.250241	-0.652870	99
Es	-0.458906	-0.967437	0.338350	99
Es	2.134710	-1.240661	0.196261	99
Es	2.044022	-1.974381	0.278012	99
Es	-0.260665	-0.912263	0.120273	99
Es	1.293910	0.933287	0.365470	99
Es	-0.424115	-0.463210	-0.138734	99
Es	0.635095	1.088139	0.475602	99
Es	-0.118781	2.031889	-0.124087	99
Es	1.551211	-0.872261	0.480705	99
Es	-0.422172	0.261665	-1.255812	99
Es	-0.469141	0.844092	-0.159685	99
Es	1.132624	0.912292	0.609738	99
Es	-0.165629	1.389954	0.257196	99
Es	0.876154	-0.652432	1.515654	99
Es	-1.486891	0.253707	-0.607427	99
Es	-2.481812	0.877925	-0.980700	99
Es	-2.465696	-0.331915	-1.045709	99
Es	2.199953	-1.088289	-0.528165	99
Es	-0.565167	1.498516	0.885921	99
Es	2.758044	-1.031260	0.537952	99
Es	1.039684	0.377092	0.674137	99
Es	1.219140	1.030100	0.874163	99
Es	-2.534932	0.198316	0.022449	99
Es	0.945883	-0.498908	0.774798	99
Es	-0.182934	-1.115901	-0.079713	99
Es	-0.725785	0.253945	-0.565269	99
45
Properties=species:S:1:pos:R:3:Z:I:1 energy=-345.00273725736565 field_type=dipole dipole="0.000000 0.000000 0.000000" charge=0
C	-2.237442	0.250225	-0.652861	6
C	-0.725822	0.254125	-0.565401	6
C	-0.165842	1.390025	0.257149	6
O	1.132968	0.912475	0.609679	8
C	0.946048	-0.499085	0.774989	6
C	2.134718	-1.240665	0.196249	6
O	-0.260712	-0.912715	0.120059	8
H	-2.582201	-0.615135	-1.228651	1
H	-2.610142	1.161055	-1.130821	1
H	-2.689042	0.163105	0.341219	1
H	-0.282122	0.246535	-1.566531	1
H	-0.729312	1.558155	1.181869	1
H	-0.091482	2.329785	-0.296731	1
H	0.845878	-0.716785	1.844099	1
H	2.242678	-1.024265	-0.872661	1
H	2.008758	-2.322665	0.300579	1
H	3.063069	-0.934165	0.687759	1
Es	0.194846	-0.736777	0.361389	99
Es	-0.460402	-0.970877	0.336255	99
Es	-0.422181	0.261696	-1.255780	99
Es	2.199983	-1.088303	-0.528149	99
Es	-0.423944	-0.463292	-0.139224	99
Es	2.044125	-1.974396	0.278008	99
Es	2.757994	-1.031191	0.537964	99
Es	-1.486904	0.253691	-0.607435	99
Es	1.132700	0.912307	0.609672	99
Es	-0.179991	-1.113070	-0.079867	99
Es	0.876166	-0.652421	1.515635	99
Es	2.134710	-1.240661	0.196261	99
Es	-2.237414	0.250240	-0.652870	99
Es	1.219663	1.029915	0.874227	99
Es	-0.725787	0.253945	-0.565264	99
Es	-0.165627	1.389954	0.257196	99
Es	-0.260703	-0.912229	0.120322	99
Es	1.551134	-0.872356	0.480636	99
Es	0.634914	1.088217	0.476339	99
Es	-0.469175	0.844076	-0.159639	99
Es	-2.481876	0.877992	-0.980746	99
Es	0.945885	-0.498913	0.774799	99
Es	-2.465669	-0.331882	-1.045616	99
Es	1.040198	0.376651	0.673166	99
Es	-2.534887	0.198273	0.022413	99
Es	-0.118809	2.031909	-0.124118	99
Es	1.292994	0.933788	0.365709	99
Es	-0.565120	1.498528	0.885867	99
45
Properties=species:S:1:pos:R:3:Z:I:1 energy=-345.00273725736565 field_type=dipole dipole="0.000000 0.000000 0.000000" charge=0
C	-2.237442	0.250225	-0.652861	6
C	-0.725822	0.254125	-0.565401	6
C	-0.165842	1.390025	0.257149	6
O	1.132968	0.912475	0.609679	8
C	0.946048	-0.499085	0.774989	6
C	2.134718	-1.240665	0.196249	6
O	-0.260712	-0.912715	0.120059	8
H	-2.582201	-0.615135	-1.228651	1
H	-2.610142	1.161055	-1.130821	1
H	-2.689042	0.163105	0.341219	1
H	-0.282122	0.246535	-1.566531	1
H	-0.729312	1.558155	1.181869	1
H	-0.091482	2.329785	-0.296731	1
H	0.845878	-0.716785	1.844099	1
H	2.242678	-1.024265	-0.872661	1
H	2.008758	-2.322665	0.300579	1
H	3.063069	-0.934165	0.687759	1
Es	-0.458366	-0.964586	0.339163	99
Es	-0.565132	1.498482	0.885858	99
Es	2.757993	-1.031225	0.537910	99
Es	1.039532	0.377094	0.675648	99
Es	0.945882	-0.498908	0.774798	99
Es	-0.422148	0.261661	-1.255670	99
Es	0.196729	-0.737528	0.357981	99
Es	-0.260546	-0.912418	0.120021	99
Es	2.044052	-1.974438	0.278054	99
Es	2.134710	-1.240661	0.196261	99
Es	-2.237412	0.250241	-0.652871	99
Es	1.551215	-0.872252	0.480712	99
Es	-0.118805	2.031948	-0.124099	99
Es	-0.184296	-1.118023	-0.078188	99
Es	-2.481867	0.878020	-0.980817	99
Es	-0.725787	0.253946	-0.565265	99
Es	2.199945	-1.088265	-0.528159	99
Es	-0.423666	-0.463684	-0.140145	99
Es	-0.469085	0.844088	-0.159746	99
Es	-0.165627	1.389953	0.257196	99
Es	-2.534856	0.198286	0.022440	99
Es	1.132650	0.912299	0.609682	99
Es	1.220720	1.031598	0.873176	99
Es	0.635264	1.087953	0.475495	99
Es	0.876150	-0.652461	1.515678	99
Es	-1.487111	0.253752	-0.607495	99
Es	-2.465619	-0.331921	-1.045576	99
Es	1.292307	0.931867	0.365108	99
45
Properties=species:S:1:pos:R:3:Z:I:1 energy=-345.00273725736565 field_type=dipole dipole="0.000000 0.000000 0.000000" charge=0
C	-2.237442	0.250225	-0.652861	6
C	-0.725822	0.254125	-0.565401	6
C	-0.165842	1.390025	0.257149	6
O	1.132968	0.912475	0.609679	8
C	0.946048	-0.499085	0.774989	6
C	2.134718	-1.240665	0.196249	6
O	-0.260712	-0.912715	0.120059	8
H	-2.582201	-0.615135	-1.228651	1
H	-2.610142	1.161055	-1.130821	1
H	-2.689042	0.163105	0.341219	1
H	-0.282122	0.246535	-1.566531	1
H	-0.729312	1.558155	1.181869	1
H	-0.091482	2.329785	-0.296731	1
H	0.845878	-0.716785	1.844099	1
H	2.242678	-1.024265	-0.872661	1
H	2.008758	-2.322665	0.300579	1
H	3.063069	-0.934165	0.687759	1
Es	2.757981	-1.031202	0.538016	99
Es	1.551128	-0.872340	0.480690	99
Es	-0.565197	1.498435	0.885794	99
Es	-2.534948	0.198416	0.022396	99
Es	2.199936	-1.088119	-0.528121	99
Es	-1.486980	0.253665	-0.607378	99
Es	1.218664	1.030937	0.872914	99
Es	-0.457464	-0.961656	0.338460	99
Es	-0.423079	-0.463824	-0.141106	99
Es	-0.118873	2.031957	-0.124302	99
Es	-2.465612	-0.331952	-1.045460	99
Es	-0.725787	0.253947	-0.565266	99
Es	-0.422206	0.261715	-1.255704	99
Es	0.876223	-0.652487	1.515723	99
Es	1.039920	0.376957	0.676027	99
Es	0.635271	1.087808	0.475312	99
Es	-0.260582	-0.912339	0.120109	99
Es	1.132728	0.912312	0.609666	99
Es	-2.237413	0.250241	-0.652870	99
Es	-0.468985	0.844108	-0.159486	99
Es	0.197089	-0.738193	0.358398	99
Es	-0.165626	1.389953	0.257196	99
Es	-2.481840	0.877941	-0.980972	99
Es	2.044089	-1.974470	0.277902	99
Es	1.293919	0.932851	0.365261	99
Es	0.945882	-0.498908	0.774797	99
Es	-0.186125	-1.120277	-0.077108	99
Es	2.134710	-1.240661	0.196261	99
45
Properties=species:S:1:pos:R:3:Z:I:1 energy=-345.00273725736565 field_type=dipole dipole="0.000000 0.000000 0.000000" charge=0
C	-2.237442	0.250225	-0.652861	6
C	-0.725822	0.254125	-0.565401	6
C	-0.165842	1.390025	0.257149	6
O	1.132968	0.912475	0.609679	8
C	0.946048	-0.499085	0.774989	6
C	2.134718	-1.240665	0.196249	6
O	-0.260712	-0.912715	0.120059	8
H	-2.582201	-0.615135	-1.228651	1
H	-2.610142	1.161055	-1.130821	1
H	-2.689042	0.163105	0.341219	1
H	-0.282122	0.246535	-1.566531	1
H	-0.729312	1.558155	1.181869	1
H	-0.091482	2.329785	-0.296731	1
H	0.845878	-0.716785	1.844099	1
H	2.242678	-1.024265	-0.872661	1
H	2.008758	-2.322665	0.300579	1
H	3.063069	-0.934165	0.687759	1
Es	-0.182288	-1.114677	-0.078895	99
Es	-0.260602	-0.912461	0.120053	99
Es	2.134707	-1.240661	0.196261	99
Es	0.876249	-0.652510	1.515697	99
Es	1.551329	-0.872381	0.480638	99
Es	0.635006	1.088574	0.475984	99
Es	-0.459028	-0.968383	0.338348	99
Es	0.196318	-0.737350	0.358793	99
Es	0.945882	-0.498909	0.774798	99
Es	-2.465595	-0.331845	-1.045483	99
Es	-0.565082	1.498395	0.885754	99
Es	-2.534826	0.198228	0.022402	99
Es	-0.118882	2.032055	-0.124198	99
Es	-0.422138	0.261711	-1.255842	99
Es	2.757987	-1.031191	0.538064	99
Es	-0.165628	1.389953	0.257197	99
Es	1.292187	0.933416	0.366456	99
Es	1.132644	0.912300	0.609739	99
Es	1.220223	1.030269	0.873537	99
Es	1.040407	0.376298	0.673444	99
Es	-1.486947	0.253563	-0.607441	99
Es	-0.424631	-0.463413	-0.139473	99
Es	-0.469186	0.844076	-0.159450	99
Es	2.043952	-1.974412	0.278077	99
Es	-0.725792	0.253944	-0.565264	99
Es	-2.237413	0.250241	-0.652870	99
Es	-2.481883	0.878127	-0.980887	99
Es	2.199859	-1.088139	-0.528286	99
