44
Properties=species:S:1:pos:R:3:Z:I:1 energy=-307.9350394749015 field_type=dipole dipole="0.000000 0.000000 0.000000" charge=0
C	-2.262699	0.649238	0.041977	6
C	-0.803749	0.807418	-0.334493	6
O	-0.185259	1.886398	0.421727	8
C	0.967710	1.044068	0.683047	6
C	0.188801	-0.213842	0.267037	6
C	0.858860	-1.123512	-0.696583	6
C	1.872241	-1.899432	-0.295543	6
H	-2.688469	-0.239842	-0.434233	1
H	-2.842249	1.517468	-0.288573	1
H	-2.391799	0.549618	1.124967	1
H	-0.683689	0.993128	-1.410053	1
H	1.814570	1.335158	0.051837	1
H	1.264901	1.077968	1.734997	1
H	-0.223479	-0.759852	1.125817	1
H	0.511471	-1.162232	-1.725303	1
H	2.239531	-1.889703	0.726987	1
H	2.363310	-2.572042	-0.993613	1
Es	-2.341573	0.576947	0.776563	99
Es	-0.803672	0.807560	-0.334350	99
Es	0.516584	-0.672653	-0.225171	99
Es	-2.542842	0.041092	-0.287329	99
Es	1.177273	1.065134	1.405241	99
Es	0.271017	1.594339	0.530780	99
Es	1.872322	-1.899497	-0.295505	99
Es	-0.185150	1.886093	0.421640	99
Es	-0.112383	2.130319	0.239764	99
Es	2.122025	-1.893284	0.399651	99
Es	0.615930	-1.139505	-1.391873	99
Es	-0.717497	0.921437	-1.078326	99
Es	1.547881	1.231692	0.244886	99
Es	-0.434017	1.501352	0.120307	99
Es	0.858766	-1.123444	-0.696599	99
Es	-1.543087	0.723511	-0.147447	99
Es	-0.088084	-0.583502	0.845874	99
Es	0.188825	-0.213814	0.266999	99
Es	1.584853	-1.282796	-0.574611	99
Es	1.167916	-1.757933	-0.422485	99
Es	-0.348983	0.220500	-0.070982	99
Es	0.967510	1.044165	0.683006	99
Es	2.212702	-2.357306	-0.762180	99
Es	0.654340	0.346082	0.490121	99
Es	-0.343468	1.898174	0.685353	99
Es	-2.651697	1.238046	-0.185899	99
Es	-2.262687	0.649227	0.041956	99
44
Properties=species:S:1:pos:R:3:Z:I:1 energy=-307.9350394749015 field_type=dipole dipole="0.000000 0.000000 0.000000" charge=0
C	-2.262699	0.649238	0.041977	6
C	-0.803749	0.807418	-0.334493	6
O	-0.185259	1.886398	0.421727	8
C	0.967710	1.044068	0.683047	6
C	0.188801	-0.213842	0.267037	6
C	0.858860	-1.123512	-0.696583	6
C	1.872241	-1.899432	-0.295543	6
H	-2.688469	-0.239842	-0.434233	1
H	-2.842249	1.517468	-0.288573	1
H	-2.391799	0.549618	1.124967	1
H	-0.683689	0.993128	-1.410053	1
H	1.814570	1.335158	0.051837	1
H	1.264901	1.077968	1.734997	1
H	-0.223479	-0.759852	1.125817	1
H	0.511471	-1.162232	-1.725303	1
H	2.239531	-1.889703	0.726987	1
H	2.363310	-2.572042	-0.993613	1
Es	-0.436003	1.503233	0.119367	99
Es	-0.185169	1.886036	0.421657	99
Es	-0.350553	0.220232	-0.072036	99
Es	0.654611	0.345290	0.490212	99
Es	2.122850	-1.892875	0.399778	99
Es	-0.803673	0.807560	-0.334350	99
Es	0.517296	-0.673238	-0.224101	99
Es	-1.543020	0.723224	-0.147683	99
Es	-0.341217	1.894445	0.679170	99
Es	0.967511	1.044163	0.683005	99
Es	1.177966	1.064968	1.405592	99
Es	1.584928	-1.282935	-0.574744	99
Es	0.615295	-1.139765	-1.392004	99
Es	0.188824	-0.213813	0.266999	99
Es	1.872332	-1.899488	-0.295498	99
Es	0.858773	-1.123432	-0.696604	99
Es	-2.262689	0.649226	0.041956	99
Es	1.167731	-1.758181	-0.422021	99
Es	0.273776	1.593438	0.532966	99
Es	-0.717852	0.921991	-1.077389	99
Es	2.212526	-2.356743	-0.762056	99
Es	-2.653545	1.239465	-0.186584	99
Es	-2.341197	0.576013	0.775394	99
Es	-2.541639	0.041649	-0.285828	99
Es	-0.086356	-0.582930	0.844969	99
Es	-0.115767	2.133391	0.244138	99
Es	1.547069	1.231011	0.245080	99
44
Properties=species:S:1:pos:R:3:Z:I:1 energy=-307.9350394749015 field_type=dipole dipole="0.000000 0.000000 0.000000" charge=0
C	-2.262699	0.649238	0.041977	6
C	-0.803749	0.807418	-0.334493	6
O	-0.185259	1.886398	0.421727	8
C	0.967710	1.044068	0.683047	6
C	0.188801	-0.213842	0.267037	6
C	0.858860	-1.123512	-0.696583	6
C	1.872241	-1.899432	-0.295543	6
H	-2.688469	-0.239842	-0.434233	1
H	-2.842249	1.517468	-0.288573	1
H	-2.391799	0.549618	1.124967	1
H	-0.683689	0.993128	-1.410053	1
H	1.814570	1.335158	0.051837	1
H	1.264901	1.077968	1.734997	1
H	-0.223479	-0.759852	1.125817	1
H	0.511471	-1.162232	-1.725303	1
H	2.239531	-1.889703	0.726987	1
H	2.363310	-2.572042	-0.993613	1
Es	-2.340865	0.575514	0.774543	99
Es	0.654671	0.345001	0.490255	99
Es	1.585474	-1.282744	-0.574930	99
Es	-0.085211	-0.582381	0.844095	99
Es	-0.351601	0.219918	-0.072558	99
Es	0.858768	-1.123438	-0.696602	99
Es	2.123281	-1.892864	0.399969	99
Es	-2.654960	1.240242	-0.187185	99
Es	-0.437612	1.503437	0.120452	99
Es	-0.718072	0.922353	-1.076808	99
Es	-0.185130	1.886103	0.421608	99
Es	1.167576	-1.758097	-0.421736	99
Es	-2.262690	0.649226	0.041956	99
Es	-0.803670	0.807563	-0.334349	99
Es	0.517837	-0.673841	-0.223558	99
Es	-1.542939	0.722962	-0.147888	99
Es	-0.341347	1.898923	0.675629	99
Es	0.275057	1.592988	0.536298	99
Es	0.188822	-0.213814	0.266998	99
Es	0.614788	-1.140012	-1.392087	99
Es	1.178518	1.064708	1.405882	99
Es	-0.115658	2.129165	0.243044	99
Es	1.872333	-1.899490	-0.295507	99
Es	2.212226	-2.356375	-0.761799	99
Es	1.546395	1.230593	0.245198	99
Es	0.967509	1.044164	0.683005	99
Es	-2.540696	0.042134	-0.284539	99
44
Properties=species:S:1:pos:R:3:Z:I:1 energy=-307.9350394749015 field_type=dipole dipole="0.000000 0.000000 0.000000" charge=0
C	-2.262699	0.649238	0.041977	6
C	-0.803749	0.807418	-0.334493	6
O	-0.185259	1.886398	0.421727	8
C	0.967710	1.044068	0.683047	6
C	0.188801	-0.213842	0.267037	6
C	0.858860	-1.123512	-0.696583	6
C	1.872241	-1.899432	-0.295543	6
H	-2.688469	-0.239842	-0.434233	1
H	-2.842249	1.517468	-0.288573	1
H	-2.391799	0.549618	1.124967	1
H	-0.683689	0.993128	-1.410053	1
H	1.814570	1.335158	0.051837	1
H	1.264901	1.077968	1.734997	1
H	-0.223479	-0.759852	1.125817	1
H	0.511471	-1.162232	-1.725303	1
H	2.239531	-1.889703	0.726987	1
H	2.363310	-2.572042	-0.993613	1
Es	-2.655970	1.240694	-0.187528	99
Es	-1.542885	0.722765	-0.148045	99
Es	1.872332	-1.899493	-0.295505	99
Es	0.654633	0.344767	0.490080	99
Es	2.212246	-2.356039	-0.761905	99
Es	-0.803672	0.807562	-0.334348	99
Es	1.178905	1.064483	1.406172	99
Es	0.858769	-1.123437	-0.696602	99
Es	2.123701	-1.892611	0.400014	99
Es	-0.339468	1.892667	0.670586	99
Es	0.518216	-0.674427	-0.223097	99
Es	-2.340819	0.574934	0.773931	99
Es	-2.539940	0.042790	-0.283755	99
Es	-2.262690	0.649226	0.041957	99
Es	0.188825	-0.213814	0.266998	99
Es	1.585403	-1.282880	-0.574828	99
Es	-0.352191	0.219765	-0.072816	99
Es	-0.437686	1.505310	0.118472	99
Es	-0.084358	-0.581805	0.843487	99
Es	-0.185071	1.886105	0.421497	99
Es	1.545850	1.230306	0.245346	99
Es	-0.718169	0.922605	-1.076227	99
Es	-0.118263	2.134391	0.247912	99
Es	0.967511	1.044163	0.683005	99
Es	1.167658	-1.758039	-0.421595	99
Es	0.275569	1.592148	0.538322	99
Es	0.614372	-1.140199	-1.392140	99
44
Properties=species:S:1:pos:R:3:Z:I:1 energy=-307.9350394749015 field_type=dipole dipole="0.000000 0.000000 0.000000" charge=0
C	-2.262699	0.649238	0.041977	6
C	-0.803749	0.807418	-0.334493	6
O	-0.185259	1.886398	0.421727	8
C	0.967710	1.044068	0.683047	6
C	0.188801	-0.213842	0.267037	6
C	0.858860	-1.123512	-0.696583	6
C	1.872241	-1.899432	-0.295543	6
H	-2.688469	-0.239842	-0.434233	1
H	-2.842249	1.517468	-0.288573	1
H	-2.391799	0.549618	1.124967	1
H	-0.683689	0.993128	-1.410053	1
H	1.814570	1.335158	0.051837	1
H	1.264901	1.077968	1.734997	1
H	-0.223479	-0.759852	1.125817	1
H	0.511471	-1.162232	-1.725303	1
H	2.239531	-1.889703	0.726987	1
H	2.363310	-2.572042	-0.993613	1
Es	1.167544	-1.757990	-0.421404	99
Es	-0.718204	0.922731	-1.075809	99
Es	-2.656841	1.240975	-0.187959	99
Es	-0.437775	1.506005	0.117620	99
Es	0.188824	-0.213815	0.266998	99
Es	0.614076	-1.140256	-1.392223	99
Es	0.654599	0.344660	0.490170	99
Es	1.545261	1.229958	0.245403	99
Es	-0.338452	1.889674	0.669047	99
Es	0.276676	1.592598	0.537869	99
Es	-0.803672	0.807561	-0.334348	99
Es	-1.542768	0.722718	-0.148010	99
Es	-2.262689	0.649227	0.041956	99
Es	-2.340933	0.574472	0.773372	99
Es	-0.352771	0.219564	-0.072945	99
Es	-0.120503	2.136198	0.250515	99
Es	0.858771	-1.123436	-0.696602	99
Es	0.967505	1.044167	0.683005	99
Es	2.212038	-2.355689	-0.761922	99
Es	-2.539179	0.043415	-0.283057	99
Es	-0.083692	-0.581274	0.842789	99
Es	1.179375	1.064349	1.406413	99
Es	2.124111	-1.892651	0.400096	99
Es	0.518668	-0.674891	-0.222700	99
Es	-0.185027	1.886103	0.421412	99
Es	1.872334	-1.899491	-0.295506	99
Es	1.585531	-1.282946	-0.574793	99
44
Properties=species:S:1:pos:R:3:Z:I:1 energy=-307.9350394749015 field_type=dipole dipole="0.000000 0.000000 0.000000" charge=0
C	-2.262699	0.649238	0.041977	6
C	-0.803749	0.807418	-0.334493	6
O	-0.185259	1.886398	0.421727	8
C	0.967710	1.044068	0.683047	6
C	0.188801	-0.213842	0.267037	6
C	0.858860	-1.123512	-0.696583	6
C	1.872241	-1.899432	-0.295543	6
H	-2.688469	-0.239842	-0.434233	1
H	-2.842249	1.517468	-0.288573	1
H	-2.391799	0.549618	1.124967	1
H	-0.683689	0.993128	-1.410053	1
H	1.814570	1.335158	0.051837	1
H	1.264901	1.077968	1.734997	1
H	-0.223479	-0.759852	1.125817	1
H	0.511471	-1.162232	-1.725303	1
H	2.239531	-1.889703	0.726987	1
H	2.363310	-2.572042	-0.993613	1
Es	1.167752	-1.757830	-0.421496	99
Es	1.872334	-1.899491	-0.295507	99
Es	-0.437983	1.507476	0.115651	99
Es	-0.123831	2.141660	0.255967	99
Es	0.967509	1.044163	0.683007	99
Es	2.124370	-1.892540	0.400213	99
Es	-1.542723	0.722510	-0.148356	99
Es	0.277423	1.592588	0.537932	99
Es	2.211976	-2.355489	-0.762050	99
Es	0.613798	-1.140273	-1.392257	99
Es	-0.083235	-0.580843	0.842346	99
Es	-2.340897	0.574117	0.773159	99
Es	-0.352981	0.219570	-0.073078	99
Es	-0.803672	0.807564	-0.334348	99
Es	-2.657723	1.240915	-0.188365	99
Es	1.544771	1.229801	0.245588	99
Es	0.858766	-1.123442	-0.696601	99
Es	-0.185126	1.886101	0.421567	99
Es	-0.718222	0.922842	-1.075427	99
Es	0.188823	-0.213813	0.266998	99
Es	-2.538539	0.044205	-0.282259	99
Es	0.519077	-0.675353	-0.222300	99
Es	-2.262690	0.649225	0.041955	99
Es	1.179679	1.064083	1.406674	99
Es	-0.335737	1.882713	0.665160	99
Es	0.654460	0.344597	0.489924	99
Es	1.585426	-1.283121	-0.574711	99
44
Properties=species:S:1:pos:R:3:Z:I:1 energy=-307.9350394749015 field_type=dipole dipole="0.000000 0.000000 0.000000" charge=0
C	-2.262699	0.649238	0.041977	6
C	-0.803749	0.807418	-0.334493	6
O	-0.185259	1.886398	0.421727	8
C	0.967710	1.044068	0.683047	6
C	0.188801	-0.213842	0.267037	6
C	0.858860	-1.123512	-0.696583	6
C	1.872241	-1.899432	-0.295543	6
H	-2.688469	-0.239842	-0.434233	1
H	-2.842249	1.517468	-0.288573	1
H	-2.391799	0.549618	1.124967	1
H	-0.683689	0.993128	-1.410053	1
H	1.814570	1.335158	0.051837	1
H	1.264901	1.077968	1.734997	1
H	-0.223479	-0.759852	1.125817	1
H	0.511471	-1.162232	-1.725303	1
H	2.239531	-1.889703	0.726987	1
H	2.363310	-2.572042	-0.993613	1
Es	-0.437516	1.508094	0.114386	99
Es	-0.335479	1.880852	0.663062	99
Es	-2.538090	0.044723	-0.281710	99
Es	-0.124964	2.142593	0.257987	99
Es	1.544328	1.229540	0.245550	99
Es	0.858768	-1.123438	-0.696601	99
Es	-1.542637	0.722445	-0.148457	99
Es	1.180071	1.064051	1.406805	99
Es	-0.803672	0.807561	-0.334349	99
Es	-0.185108	1.886092	0.421566	99
Es	-2.340966	0.573871	0.772785	99
Es	1.167686	-1.757917	-0.421347	99
Es	-0.718184	0.922934	-1.075119	99
Es	0.654373	0.344555	0.489874	99
Es	1.585342	-1.283228	-0.574632	99
Es	0.519349	-0.675766	-0.221980	99
Es	2.212035	-2.355240	-0.762073	99
Es	1.872338	-1.899488	-0.295507	99
Es	-0.353362	0.219406	-0.073125	99
Es	0.188823	-0.213813	0.266998	99
Es	0.967508	1.044166	0.683001	99
Es	2.124574	-1.892450	0.400188	99
Es	-2.658291	1.240993	-0.188655	99
Es	-0.082766	-0.580238	0.841968	99
Es	-2.262688	0.649227	0.041955	99
Es	0.613642	-1.140363	-1.392304	99
Es	0.277693	1.592772	0.539120	99
44
Properties=species:S:1:pos:R:3:Z:I:1 energy=-307.9350394749015 field_type=dipole dipole="0.000000 0.000000 0.000000" charge=0
C	-2.262699	0.649238	0.041977	6
C	-0.803749	0.807418	-0.334493	6
O	-0.185259	1.886398	0.421727	8
C	0.967710	1.044068	0.683047	6
C	0.188801	-0.213842	0.267037	6
C	0.858860	-1.123512	-0.696583	6
C	1.872241	-1.899432	-0.295543	6
H	-2.688469	-0.239842	-0.434233	1
H	-2.842249	1.517468	-0.288573	1
H	-2.391799	0.549618	1.124967	1
H	-0.683689	0.993128	-1.410053	1
H	1.814570	1.335158	0.051837	1
H	1.264901	1.077968	1.734997	1
H	-0.223479	-0.759852	1.125817	1
H	0.511471	-1.162232	-1.725303	1
H	2.239531	-1.889703	0.726987	1
H	2.363310	-2.572042	-0.993613	1
Es	0.519730	-0.675842	-0.221895	99
Es	2.212000	-2.355137	-0.762071	99
Es	0.654124	0.344507	0.490031	99
Es	1.585400	-1.283246	-0.574586	99
Es	0.277977	1.592838	0.540033	99
Es	-2.658836	1.241026	-0.188927	99
Es	-2.537643	0.045189	-0.281212	99
Es	-0.082462	-0.580057	0.841544	99
Es	1.167689	-1.757854	-0.421286	99
Es	1.872335	-1.899491	-0.295507	99
Es	-0.718056	0.922993	-1.074731	99
Es	-1.542799	0.722357	-0.148671	99
Es	-0.437171	1.509035	0.112933	99
Es	-0.335058	1.878832	0.661009	99
Es	0.613535	-1.140414	-1.392331	99
Es	2.124662	-1.892447	0.400241	99
Es	-2.262688	0.649227	0.041956	99
Es	1.543907	1.229282	0.245594	99
Es	1.180409	1.064031	1.406914	99
Es	0.967508	1.044166	0.683001	99
Es	-0.803673	0.807560	-0.334349	99
Es	0.858767	-1.123438	-0.696602	99
Es	-0.185085	1.886103	0.421503	99
Es	-0.126089	2.143548	0.260466	99
Es	0.188822	-0.213812	0.266997	99
Es	-2.340935	0.573654	0.772522	99
Es	-0.353564	0.219327	-0.073192	99
44
Properties=species:S:1:pos:R:3:Z:I:1 energy=-307.9350394749015 field_type=dipole dipole="0.000000 0.000000 0.000000" charge=0
C	-2.262699	0.649238	0.041977	6
C	-0.803749	0.807418	-0.334493	6
O	-0.185259	1.886398	0.421727	8
C	0.967710	1.044068	0.683047	6
C	0.188801	-0.213842	0.267037	6
C	0.858860	-1.123512	-0.696583	6
C	1.872241	-1.899432	-0.295543	6
H	-2.688469	-0.239842	-0.434233	1
H	-2.842249	1.517468	-0.288573	1
H	-2.391799	0.549618	1.124967	1
H	-0.683689	0.993128	-1.410053	1
H	1.814570	1.335158	0.051837	1
H	1.264901	1.077968	1.734997	1
H	-0.223479	-0.759852	1.125817	1
H	0.511471	-1.162232	-1.725303	1
H	2.239531	-1.889703	0.726987	1
H	2.363310	-2.572042	-0.993613	1
Es	0.613359	-1.140432	-1.392375	99
Es	-0.185045	1.886064	0.421402	99
Es	-0.332532	1.873777	0.658092	99
Es	2.212019	-2.354918	-0.762189	99
Es	1.167845	-1.757752	-0.421406	99
Es	-0.718132	0.923052	-1.074681	99
Es	0.967507	1.044164	0.683004	99
Es	-0.129190	2.147695	0.264686	99
Es	0.188824	-0.213813	0.266999	99
Es	-2.340979	0.573643	0.772422	99
Es	0.519907	-0.676327	-0.221564	99
Es	-2.659351	1.240832	-0.189412	99
Es	-0.437247	1.509589	0.112050	99
Es	0.653988	0.344567	0.489916	99
Es	-1.542639	0.722180	-0.148711	99
Es	-2.262689	0.649227	0.041956	99
Es	-0.353824	0.219359	-0.073066	99
Es	-2.537227	0.045706	-0.280554	99
Es	1.180516	1.063825	1.407102	99
Es	1.585248	-1.283421	-0.574474	99
Es	1.543729	1.229132	0.245559	99
Es	0.278514	1.593103	0.539548	99
Es	2.124855	-1.892368	0.400303	99
Es	-0.082074	-0.579579	0.841235	99
Es	1.872335	-1.899491	-0.295507	99
Es	-0.803672	0.807562	-0.334348	99
Es	0.858764	-1.123440	-0.696601	99
44
Properties=species:S:1:pos:R:3:Z:I:1 energy=-307.9350394749015 field_type=dipole dipole="0.000000 0.000000 0.000000" charge=0
C	-2.262699	0.649238	0.041977	6
C	-0.803749	0.807418	-0.334493	6
O	-0.185259	1.886398	0.421727	8
C	0.967710	1.044068	0.683047	6
C	0.188801	-0.213842	0.267037	6
C	0.858860	-1.123512	-0.696583	6
C	1.872241	-1.899432	-0.295543	6
H	-2.688469	-0.239842	-0.434233	1
H	-2.842249	1.517468	-0.288573	1
H	-2.391799	0.549618	1.124967	1
H	-0.683689	0.993128	-1.410053	1
H	1.814570	1.335158	0.051837	1
H	1.264901	1.077968	1.734997	1
H	-0.223479	-0.759852	1.125817	1
H	0.511471	-1.162232	-1.725303	1
H	2.239531	-1.889703	0.726987	1
H	2.363310	-2.572042	-0.993613	1
Es	1.585345	-1.283387	-0.574481	99
Es	2.211915	-2.354873	-0.762122	99
Es	-0.185109	1.886086	0.421546	99
Es	-0.353982	0.219283	-0.073010	99
Es	0.967506	1.044164	0.683003	99
Es	-0.803671	0.807562	-0.334348	99
Es	-0.437678	1.509857	0.111770	99
Es	1.167801	-1.757752	-0.421317	99
Es	-2.659734	1.240912	-0.189524	99
Es	-0.718121	0.923097	-1.074387	99
Es	1.872334	-1.899492	-0.295506	99
Es	-0.128678	2.146810	0.264492	99
Es	0.520195	-0.676481	-0.221592	99
Es	-2.262683	0.649227	0.041956	99
Es	0.613282	-1.140412	-1.392411	99
Es	-2.341038	0.573358	0.772098	99
Es	0.858768	-1.123436	-0.696602	99
Es	0.653904	0.344607	0.489977	99
Es	-1.542627	0.722003	-0.148758	99
Es	1.180848	1.063750	1.407231	99
Es	-0.332587	1.874493	0.657743	99
Es	1.543276	1.228933	0.245665	99
Es	-2.536936	0.046234	-0.280195	99
Es	-0.081779	-0.579348	0.840758	99
Es	0.278509	1.592939	0.540040	99
Es	0.188823	-0.213811	0.266998	99
Es	2.124925	-1.892390	0.400361	99
44
Properties=species:S:1:pos:R:3:Z:I:1 energy=-307.9350394749015 field_type=dipole dipole="0.000000 0.000000 0.000000" charge=0
C	-2.262699	0.649238	0.041977	6
C	-0.803749	0.807418	-0.334493	6
O	-0.185259	1.886398	0.421727	8
C	0.967710	1.044068	0.683047	6
C	0.188801	-0.213842	0.267037	6
C	0.858860	-1.123512	-0.696583	6
C	1.872241	-1.899432	-0.295543	6
H	-2.688469	-0.239842	-0.434233	1
H	-2.842249	1.517468	-0.288573	1
H	-2.391799	0.549618	1.124967	1
H	-0.683689	0.993128	-1.410053	1
H	1.814570	1.335158	0.051837	1
H	1.264901	1.077968	1.734997	1
H	-0.223479	-0.759852	1.125817	1
H	0.511471	-1.162232	-1.725303	1
H	2.239531	-1.889703	0.726987	1
H	2.363310	-2.572042	-0.993613	1
Es	1.872336	-1.899491	-0.295506	99
Es	-0.718046	0.923197	-1.074279	99
Es	-0.081649	-0.579000	0.840508	99
Es	-1.542531	0.721963	-0.148899	99
Es	-0.437958	1.510433	0.111429	99
Es	0.653720	0.344748	0.490128	99
Es	0.278881	1.592862	0.539407	99
Es	1.168015	-1.757361	-0.421349	99
Es	-2.262689	0.649227	0.041956	99
Es	-0.803672	0.807561	-0.334350	99
Es	1.585256	-1.283616	-0.574413	99
Es	0.520421	-0.676810	-0.221272	99
Es	0.613083	-1.140598	-1.392472	99
Es	-2.536506	0.046687	-0.279801	99
Es	2.125041	-1.892323	0.400436	99
Es	-2.660212	1.240709	-0.189814	99
Es	-0.354040	0.219275	-0.073066	99
Es	0.188824	-0.213813	0.266998	99
Es	-2.341115	0.573214	0.771994	99
Es	-0.131078	2.150183	0.267751	99
Es	2.211895	-2.354793	-0.762259	99
Es	-0.330469	1.870475	0.655459	99
Es	1.543132	1.228750	0.245546	99
Es	0.967506	1.044165	0.683006	99
Es	0.858765	-1.123440	-0.696601	99
Es	-0.185081	1.886087	0.421503	99
Es	1.180979	1.063646	1.407345	99
44
Properties=species:S:1:pos:R:3:Z:I:1 energy=-307.9350394749015 field_type=dipole dipole="0.000000 0.000000 0.000000" charge=0
C	-2.262699	0.649238	0.041977	6
C	-0.803749	0.807418	-0.334493	6
O	-0.185259	1.886398	0.421727	8
C	0.967710	1.044068	0.683047	6
C	0.188801	-0.213842	0.267037	6
C	0.858860	-1.123512	-0.696583	6
C	1.872241	-1.899432	-0.295543	6
H	-2.688469	-0.239842	-0.434233	1
H	-2.842249	1.517468	-0.288573	1
H	-2.391799	0.549618	1.124967	1
H	-0.683689	0.993128	-1.410053	1
H	1.814570	1.335158	0.051837	1
H	1.264901	1.077968	1.734997	1
H	-0.223479	-0.759852	1.125817	1
H	0.511471	-1.162232	-1.725303	1
H	2.239531	-1.889703	0.726987	1
H	2.363310	-2.572042	-0.993613	1
Es	-2.341150	0.573082	0.771755	99
Es	1.585201	-1.283582	-0.574338	99
Es	0.520596	-0.677006	-0.221073	99
Es	-0.185130	1.886047	0.421596	99
Es	1.181209	1.063643	1.407339	99
Es	2.211844	-2.354662	-0.762271	99
Es	-0.354207	0.219244	-0.073142	99
Es	1.872336	-1.899490	-0.295506	99
Es	1.542845	1.228669	0.245637	99
Es	-0.718080	0.923257	-1.074122	99
Es	0.967508	1.044166	0.683001	99
Es	-1.542389	0.721838	-0.148979	99
Es	-2.536315	0.047153	-0.279401	99
Es	0.858767	-1.123438	-0.696600	99
Es	-0.081431	-0.578737	0.840217	99
Es	-2.660545	1.240668	-0.189941	99
Es	0.188823	-0.213814	0.267000	99
Es	0.653643	0.344530	0.490085	99
Es	0.613026	-1.140500	-1.392519	99
Es	-0.437582	1.510812	0.110501	99
Es	2.125157	-1.892378	0.400437	99
Es	-0.330463	1.869810	0.654505	99
Es	0.278707	1.592841	0.540177	99
Es	-0.803672	0.807562	-0.334347	99
Es	-2.262690	0.649226	0.041955	99
Es	1.168019	-1.757472	-0.421333	99
Es	-0.131223	2.150469	0.268754	99
44
Properties=species:S:1:pos:R:3:Z:I:1 energy=-307.9350394749015 field_type=dipole dipole="0.000000 0.000000 0.000000" charge=0
C	-2.262699	0.649238	0.041977	6
C	-0.803749	0.807418	-0.334493	6
O	-0.185259	1.886398	0.421727	8
C	0.967710	1.044068	0.683047	6
C	0.188801	-0.213842	0.267037	6
C	0.858860	-1.123512	-0.696583	6
C	1.872241	-1.899432	-0.295543	6
H	-2.688469	-0.239842	-0.434233	1
H	-2.842249	1.517468	-0.288573	1
H	-2.391799	0.549618	1.124967	1
H	-0.683689	0.993128	-1.410053	1
H	1.814570	1.335158	0.051837	1
H	1.264901	1.077968	1.734997	1
H	-0.223479	-0.759852	1.125817	1
H	0.511471	-1.162232	-1.725303	1
H	2.239531	-1.889703	0.726987	1
H	2.363310	-2.572042	-0.993613	1
Es	1.872332	-1.899492	-0.295503	99
Es	-0.081207	-0.578631	0.840069	99
Es	0.520728	-0.677002	-0.221042	99
Es	-0.437258	1.511352	0.109899	99
Es	0.858766	-1.123439	-0.696601	99
Es	2.125193	-1.892300	0.400461	99
Es	0.188824	-0.213805	0.267000	99
Es	0.613066	-1.140531	-1.392559	99
Es	-0.354304	0.219135	-0.073157	99
Es	1.181411	1.063557	1.407417	99
Es	-0.718058	0.923241	-1.073917	99
Es	0.278917	1.592956	0.540654	99
Es	0.967507	1.044165	0.683004	99
Es	-0.185103	1.886073	0.421550	99
Es	1.168029	-1.757486	-0.421282	99
Es	-0.803672	0.807562	-0.334348	99
Es	-2.341082	0.572891	0.771475	99
Es	-0.131638	2.150237	0.269453	99
Es	-2.536222	0.047329	-0.279303	99
Es	2.211867	-2.354639	-0.762295	99
Es	0.653522	0.344686	0.490039	99
Es	-2.660709	1.240847	-0.189834	99
Es	-0.330654	1.869381	0.653793	99
Es	-1.542490	0.721732	-0.148993	99
Es	1.585159	-1.283584	-0.574222	99
Es	-2.262689	0.649227	0.041955	99
Es	1.542572	1.228475	0.245671	99
44
Properties=species:S:1:pos:R:3:Z:I:1 energy=-307.9350394749015 field_type=dipole dipole="0.000000 0.000000 0.000000" charge=0
C	-2.262699	0.649238	0.041977	6
C	-0.803749	0.807418	-0.334493	6
O	-0.185259	1.886398	0.421727	8
C	0.967710	1.044068	0.683047	6
C	0.188801	-0.213842	0.267037	6
C	0.858860	-1.123512	-0.696583	6
C	1.872241	-1.899432	-0.295543	6
H	-2.688469	-0.239842	-0.434233	1
H	-2.842249	1.517468	-0.288573	1
H	-2.391799	0.549618	1.124967	1
H	-0.683689	0.993128	-1.410053	1
H	1.814570	1.335158	0.051837	1
H	1.264901	1.077968	1.734997	1
H	-0.223479	-0.759852	1.125817	1
H	0.511471	-1.162232	-1.725303	1
H	2.239531	-1.889703	0.726987	1
H	2.363310	-2.572042	-0.993613	1
Es	1.585251	-1.283547	-0.574300	99
Es	1.872336	-1.899491	-0.295506	99
Es	0.967506	1.044165	0.683005	99
Es	-0.718017	0.923232	-1.073768	99
Es	1.181641	1.063614	1.407440	99
Es	-0.185161	1.886056	0.421643	99
Es	-1.542329	0.721660	-0.149097	99
Es	-2.341152	0.572896	0.771230	99
Es	0.858771	-1.123436	-0.696601	99
Es	2.125234	-1.892334	0.400456	99
Es	-2.661101	1.240669	-0.190085	99
Es	0.278613	1.592636	0.541344	99
Es	-0.330703	1.867929	0.652689	99
Es	-0.803667	0.807567	-0.334354	99
Es	2.211866	-2.354531	-0.762226	99
Es	1.542357	1.228387	0.245614	99
Es	0.188824	-0.213813	0.266998	99
Es	1.167946	-1.757599	-0.421311	99
Es	-2.262689	0.649227	0.041956	99
Es	-0.436676	1.512340	0.108214	99
Es	0.653464	0.344653	0.490059	99
Es	-0.131888	2.150928	0.271394	99
Es	-0.081133	-0.578267	0.839900	99
Es	0.520926	-0.677454	-0.220921	99
Es	-0.354317	0.219142	-0.073049	99
Es	-2.535964	0.047719	-0.278822	99
Es	0.612872	-1.140413	-1.392516	99
44
Properties=species:S:1:pos:R:3:Z:I:1 energy=-307.9350394749015 field_type=dipole dipole="0.000000 0.000000 0.000000" charge=0
C	-2.262699	0.649238	0.041977	6
C	-0.803749	0.807418	-0.334493	6
O	-0.185259	1.886398	0.421727	8
C	0.967710	1.044068	0.683047	6
C	0.188801	-0.213842	0.267037	6
C	0.858860	-1.123512	-0.696583	6
C	1.872241	-1.899432	-0.295543	6
H	-2.688469	-0.239842	-0.434233	1
H	-2.842249	1.517468	-0.288573	1
H	-2.391799	0.549618	1.124967	1
H	-0.683689	0.993128	-1.410053	1
H	1.814570	1.335158	0.051837	1
H	1.264901	1.077968	1.734997	1
H	-0.223479	-0.759852	1.125817	1
H	0.511471	-1.162232	-1.725303	1
H	2.239531	-1.889703	0.726987	1
H	2.363310	-2.572042	-0.993613	1
Es	-2.535677	0.048171	-0.278723	99
Es	-1.542468	0.721626	-0.149297	99
Es	-0.185077	1.886089	0.421497	99
Es	-0.354431	0.219148	-0.073006	99
Es	1.168084	-1.757429	-0.421293	99
Es	0.188825	-0.213812	0.266999	99
Es	2.211778	-2.354481	-0.762335	99
Es	-2.262691	0.649227	0.041956	99
Es	-0.080939	-0.578113	0.839665	99
Es	1.585106	-1.283701	-0.574230	99
Es	1.542118	1.228306	0.245697	99
Es	0.612883	-1.140493	-1.392575	99
Es	0.279095	1.592983	0.540810	99
Es	-0.438177	1.511491	0.109718	99
Es	0.653265	0.344706	0.490012	99
Es	-0.133013	2.151614	0.271580	99
Es	0.521229	-0.677401	-0.220854	99
Es	1.872332	-1.899495	-0.295504	99
Es	-0.717956	0.923314	-1.073645	99
Es	-0.803670	0.807562	-0.334351	99
Es	1.181777	1.063465	1.407555	99
Es	-0.328719	1.867596	0.651642	99
Es	0.967507	1.044165	0.683005	99
Es	-2.661287	1.240570	-0.190265	99
Es	-2.341187	0.572634	0.771415	99
Es	0.858770	-1.123437	-0.696601	99
Es	2.125331	-1.892371	0.400515	99
44
Properties=species:S:1:pos:R:3:Z:I:1 energy=-307.9350394749015 field_type=dipole dipole="0.000000 0.000000 0.000000" charge=0
C	-2.262699	0.649238	0.041977	6
C	-0.803749	0.807418	-0.334493	6
O	-0.185259	1.886398	0.421727	8
C	0.967710	1.044068	0.683047	6
C	0.188801	-0.213842	0.267037	6
C	0.858860	-1.123512	-0.696583	6
C	1.872241	-1.899432	-0.295543	6
H	-2.688469	-0.239842	-0.434233	1
H	-2.842249	1.517468	-0.288573	1
H	-2.391799	0.549618	1.124967	1
H	-0.683689	0.993128	-1.410053	1
H	1.814570	1.335158	0.051837	1
H	1.264901	1.077968	1.734997	1
H	-0.223479	-0.759852	1.125817	1
H	0.511471	-1.162232	-1.725303	1
H	2.239531	-1.889703	0.726987	1
H	2.363310	-2.572042	-0.993613	1
Es	0.858768	-1.123438	-0.696600	99
Es	-1.542307	0.721576	-0.149293	99
Es	2.125439	-1.892374	0.400513	99
Es	-0.717939	0.923342	-1.073559	99
Es	0.188823	-0.213811	0.266998	99
Es	0.521302	-0.677725	-0.220689	99
Es	1.541929	1.228243	0.245787	99
Es	-0.132425	2.151004	0.271531	99
Es	1.585167	-1.283718	-0.574186	99
Es	0.967505	1.044166	0.683004	99
Es	-2.535538	0.048366	-0.278496	99
Es	-2.661513	1.240525	-0.190326	99
Es	-0.354487	0.219088	-0.073004	99
Es	-0.438313	1.511898	0.109491	99
Es	0.612890	-1.140415	-1.392579	99
Es	-0.328860	1.868287	0.651253	99
Es	-2.341255	0.572601	0.771150	99
Es	-2.262690	0.649227	0.041956	99
Es	1.181899	1.063416	1.407577	99
Es	1.168024	-1.757448	-0.421303	99
Es	0.278707	1.592487	0.541523	99
Es	-0.080853	-0.577818	0.839446	99
Es	2.211716	-2.354412	-0.762334	99
Es	0.653207	0.344703	0.489979	99
Es	1.872336	-1.899488	-0.295505	99
Es	-0.185051	1.886094	0.421399	99
Es	-0.803673	0.807561	-0.334348	99
