49
Properties=species:S:1:pos:R:3:Z:I:1 energy=-273.3101074664716 field_type=dipole dipole="0.000000 0.000000 0.000000" charge=0
C	-2.766281	-1.785955	-1.016484	6
C	-1.328241	-1.513566	-0.717124	6
C	-0.904031	-0.786926	0.328586	6
C	0.544209	-0.516086	0.629226	6
C	0.886169	0.985985	0.652836	6
C	2.331799	1.183695	1.115466	6
C	0.685469	1.645854	-0.714124	6
H	-3.017631	-1.405135	-2.011034	1
H	-3.436801	-1.314496	-0.291264	1
H	-2.951881	-2.864065	-1.003434	1
H	-0.604641	-1.941296	-1.407944	1
H	-1.629241	-0.364235	1.021316	1
H	1.191909	-1.031096	-0.091934	1
H	0.765069	-0.952865	1.611466	1
H	0.229859	1.489774	1.374976	1
H	3.037659	0.703065	0.429836	1
H	2.482789	0.756935	2.112406	1
H	2.581469	2.248544	1.167616	1
H	1.296629	1.160414	-1.482124	1
H	0.966699	2.703735	-0.677554	1
H	-0.360981	1.597725	-1.030714	1
Es	-1.395005	-0.493049	0.804955	99
Es	1.107059	1.309774	-1.235468	99
Es	1.618939	1.082213	0.884388	99
Es	0.689477	-0.810817	1.300716	99
Es	-0.903977	-0.786869	0.328678	99
Es	-1.101511	-1.424377	-0.008214	99
Es	-3.218034	-1.463225	-0.520318	99
Es	2.433338	0.889191	1.797735	99
Es	-2.885245	-2.515731	-1.007938	99
Es	2.500478	1.912846	1.149189	99
Es	2.810537	0.852938	0.642885	99
Es	-0.838472	-1.808165	-1.192556	99
Es	-0.184133	-0.646990	0.471456	99
Es	-2.050876	-1.648581	-0.863831	99
Es	0.702583	0.227230	0.633879	99
Es	0.784329	1.312458	-0.040388	99
Es	2.331793	1.183694	1.115466	99
Es	-1.328312	-1.513636	-0.717226	99
Es	0.881094	2.368862	-0.684263	99
Es	-1.130982	-0.876726	-0.378148	99
Es	-0.026215	1.612074	-0.927884	99
Es	-2.929657	-1.527667	-1.690291	99
Es	0.431873	1.329870	1.150657	99
Es	0.544165	-0.516072	0.629220	99
Es	-2.766247	-1.785952	-1.016483	99
Es	0.985112	-0.864773	0.129395	99
Es	0.886199	0.985961	0.652807	99
Es	0.685478	1.645851	-0.714108	99
49
Properties=species:S:1:pos:R:3:Z:I:1 energy=-273.3101074664716 field_type=dipole dipole="0.000000 0.000000 0.000000" charge=0
C	-2.766281	-1.785955	-1.016484	6
C	-1.328241	-1.513566	-0.717124	6
C	-0.904031	-0.786926	0.328586	6
C	0.544209	-0.516086	0.629226	6
C	0.886169	0.985985	0.652836	6
C	2.331799	1.183695	1.115466	6
C	0.685469	1.645854	-0.714124	6
H	-3.017631	-1.405135	-2.011034	1
H	-3.436801	-1.314496	-0.291264	1
H	-2.951881	-2.864065	-1.003434	1
H	-0.604641	-1.941296	-1.407944	1
H	-1.629241	-0.364235	1.021316	1
H	1.191909	-1.031096	-0.091934	1
H	0.765069	-0.952865	1.611466	1
H	0.229859	1.489774	1.374976	1
H	3.037659	0.703065	0.429836	1
H	2.482789	0.756935	2.112406	1
H	2.581469	2.248544	1.167616	1
H	1.296629	1.160414	-1.482124	1
H	0.966699	2.703735	-0.677554	1
H	-0.360981	1.597725	-1.030714	1
Es	-1.328307	-1.513639	-0.717215	99
Es	-1.101503	-1.425064	-0.007739	99
Es	-2.884990	-2.515581	-1.008052	99
Es	-1.394866	-0.493061	0.804996	99
Es	-3.218199	-1.463105	-0.520084	99
Es	0.886197	0.985963	0.652809	99
Es	0.784193	1.312612	-0.040515	99
Es	-0.903973	-0.786860	0.328682	99
Es	-0.838648	-1.808251	-1.192662	99
Es	-2.766249	-1.785952	-1.016483	99
Es	-0.184250	-0.646772	0.471691	99
Es	-2.050687	-1.648592	-0.864074	99
Es	0.431764	1.330100	1.150776	99
Es	0.702491	0.227019	0.633927	99
Es	2.433086	0.889294	1.797417	99
Es	2.500514	1.913127	1.149368	99
Es	0.689059	-0.810592	1.300595	99
Es	0.985369	-0.865089	0.129171	99
Es	-1.131006	-0.876151	-0.378573	99
Es	-0.025901	1.612060	-0.927275	99
Es	2.331790	1.183695	1.115465	99
Es	1.107063	1.309115	-1.235853	99
Es	2.810679	0.852711	0.643050	99
Es	-2.929471	-1.527877	-1.690409	99
Es	0.544164	-0.516072	0.629223	99
Es	0.881080	2.369272	-0.684032	99
Es	0.685477	1.645851	-0.714109	99
Es	1.618907	1.082170	0.884214	99
49
Properties=species:S:1:pos:R:3:Z:I:1 energy=-273.3101074664716 field_type=dipole dipole="0.000000 0.000000 0.000000" charge=0
C	-2.766281	-1.785955	-1.016484	6
C	-1.328241	-1.513566	-0.717124	6
C	-0.904031	-0.786926	0.328586	6
C	0.544209	-0.516086	0.629226	6
C	0.886169	0.985985	0.652836	6
C	2.331799	1.183695	1.115466	6
C	0.685469	1.645854	-0.714124	6
H	-3.017631	-1.405135	-2.011034	1
H	-3.436801	-1.314496	-0.291264	1
H	-2.951881	-2.864065	-1.003434	1
H	-0.604641	-1.941296	-1.407944	1
H	-1.629241	-0.364235	1.021316	1
H	1.191909	-1.031096	-0.091934	1
H	0.765069	-0.952865	1.611466	1
H	0.229859	1.489774	1.374976	1
H	3.037659	0.703065	0.429836	1
H	2.482789	0.756935	2.112406	1
H	2.581469	2.248544	1.167616	1
H	1.296629	1.160414	-1.482124	1
H	0.966699	2.703735	-0.677554	1
H	-0.360981	1.597725	-1.030714	1
Es	1.106823	1.308454	-1.236261	99
Es	-0.903975	-0.786860	0.328682	99
Es	-1.328310	-1.513639	-0.717222	99
Es	-0.838728	-1.808189	-1.192696	99
Es	0.431582	1.330236	1.150749	99
Es	2.500603	1.913355	1.149650	99
Es	0.685478	1.645850	-0.714109	99
Es	-3.218299	-1.463047	-0.519775	99
Es	2.810770	0.852630	0.643207	99
Es	0.886196	0.985964	0.652810	99
Es	-2.050372	-1.648908	-0.864366	99
Es	1.618787	1.082027	0.884291	99
Es	-0.025557	1.612118	-0.926584	99
Es	0.544164	-0.516072	0.629222	99
Es	-1.394763	-0.492997	0.804971	99
Es	-1.130960	-0.875652	-0.378944	99
Es	-1.101588	-1.425474	-0.007421	99
Es	2.331791	1.183694	1.115465	99
Es	-2.884856	-2.515163	-1.008143	99
Es	0.702381	0.226849	0.633746	99
Es	-2.929464	-1.528115	-1.690574	99
Es	0.985413	-0.865334	0.128943	99
Es	-0.184435	-0.646832	0.472191	99
Es	0.881186	2.369701	-0.683868	99
Es	2.432997	0.889326	1.796989	99
Es	-2.766246	-1.785953	-1.016483	99
Es	0.688942	-0.810354	1.300514	99
Es	0.784225	1.312717	-0.040675	99
49
Properties=species:S:1:pos:R:3:Z:I:1 energy=-273.3101074664716 field_type=dipole dipole="0.000000 0.000000 0.000000" charge=0
C	-2.766281	-1.785955	-1.016484	6
C	-1.328241	-1.513566	-0.717124	6
C	-0.904031	-0.786926	0.328586	6
C	0.544209	-0.516086	0.629226	6
C	0.886169	0.985985	0.652836	6
C	2.331799	1.183695	1.115466	6
C	0.685469	1.645854	-0.714124	6
H	-3.017631	-1.405135	-2.011034	1
H	-3.436801	-1.314496	-0.291264	1
H	-2.951881	-2.864065	-1.003434	1
H	-0.604641	-1.941296	-1.407944	1
H	-1.629241	-0.364235	1.021316	1
H	1.191909	-1.031096	-0.091934	1
H	0.765069	-0.952865	1.611466	1
H	0.229859	1.489774	1.374976	1
H	3.037659	0.703065	0.429836	1
H	2.482789	0.756935	2.112406	1
H	2.581469	2.248544	1.167616	1
H	1.296629	1.160414	-1.482124	1
H	0.966699	2.703735	-0.677554	1
H	-0.360981	1.597725	-1.030714	1
Es	0.881081	2.369960	-0.683570	99
Es	0.886197	0.985963	0.652809	99
Es	-0.025260	1.612119	-0.926047	99
Es	0.784089	1.312947	-0.040642	99
Es	0.685478	1.645849	-0.714108	99
Es	-1.101583	-1.425875	-0.007151	99
Es	-2.766247	-1.785953	-1.016483	99
Es	-0.838781	-1.808013	-1.192652	99
Es	2.500633	1.913553	1.149705	99
Es	-2.050287	-1.649095	-0.864807	99
Es	-0.903973	-0.786858	0.328680	99
Es	-1.394665	-0.493098	0.804981	99
Es	2.810812	0.852537	0.643409	99
Es	0.702454	0.226573	0.633897	99
Es	0.688694	-0.810546	1.300261	99
Es	-1.130947	-0.875247	-0.379242	99
Es	-2.884710	-2.514900	-1.007994	99
Es	-2.929547	-1.528339	-1.690827	99
Es	0.431494	1.330204	1.150731	99
Es	2.432880	0.889397	1.796812	99
Es	2.331792	1.183694	1.115465	99
Es	-0.184568	-0.646553	0.472535	99
Es	1.618857	1.082049	0.884236	99
Es	0.985404	-0.865378	0.128552	99
Es	-1.328307	-1.513640	-0.717226	99
Es	0.544166	-0.516073	0.629222	99
Es	-3.218200	-1.462951	-0.519567	99
Es	1.106829	1.308007	-1.236668	99
49
Properties=species:S:1:pos:R:3:Z:I:1 energy=-273.3101074664716 field_type=dipole dipole="0.000000 0.000000 0.000000" charge=0
C	-2.766281	-1.785955	-1.016484	6
C	-1.328241	-1.513566	-0.717124	6
C	-0.904031	-0.786926	0.328586	6
C	0.544209	-0.516086	0.629226	6
C	0.886169	0.985985	0.652836	6
C	2.331799	1.183695	1.115466	6
C	0.685469	1.645854	-0.714124	6
H	-3.017631	-1.405135	-2.011034	1
H	-3.436801	-1.314496	-0.291264	1
H	-2.951881	-2.864065	-1.003434	1
H	-0.604641	-1.941296	-1.407944	1
H	-1.629241	-0.364235	1.021316	1
H	1.191909	-1.031096	-0.091934	1
H	0.765069	-0.952865	1.611466	1
H	0.229859	1.489774	1.374976	1
H	3.037659	0.703065	0.429836	1
H	2.482789	0.756935	2.112406	1
H	2.581469	2.248544	1.167616	1
H	1.296629	1.160414	-1.482124	1
H	0.966699	2.703735	-0.677554	1
H	-0.360981	1.597725	-1.030714	1
Es	0.544164	-0.516074	0.629224	99
Es	-1.130963	-0.874905	-0.379486	99
Es	-0.184501	-0.646347	0.472848	99
Es	0.783901	1.312847	-0.041113	99
Es	-3.218208	-1.462990	-0.519366	99
Es	-1.328311	-1.513638	-0.717223	99
Es	-2.884446	-2.514353	-1.007738	99
Es	1.106667	1.307511	-1.237116	99
Es	-0.838885	-1.807906	-1.192595	99
Es	2.810946	0.852696	0.643885	99
Es	0.702274	0.226371	0.633924	99
Es	1.618759	1.081819	0.883854	99
Es	-2.929738	-1.528708	-1.691272	99
Es	0.881205	2.370358	-0.682971	99
Es	-0.024889	1.612234	-0.925465	99
Es	2.500771	1.913775	1.150047	99
Es	-2.050135	-1.649278	-0.865068	99
Es	-2.766248	-1.785952	-1.016484	99
Es	0.685477	1.645849	-0.714109	99
Es	2.331788	1.183694	1.115465	99
Es	0.688544	-0.810536	1.300236	99
Es	0.431437	1.330311	1.150695	99
Es	0.985436	-0.865416	0.128271	99
Es	2.432697	0.889290	1.796426	99
Es	-1.394605	-0.493261	0.804909	99
Es	0.886198	0.985963	0.652810	99
Es	-1.101577	-1.426162	-0.006956	99
Es	-0.903973	-0.786860	0.328682	99
49
Properties=species:S:1:pos:R:3:Z:I:1 energy=-273.3101074664716 field_type=dipole dipole="0.000000 0.000000 0.000000" charge=0
C	-2.766281	-1.785955	-1.016484	6
C	-1.328241	-1.513566	-0.717124	6
C	-0.904031	-0.786926	0.328586	6
C	0.544209	-0.516086	0.629226	6
C	0.886169	0.985985	0.652836	6
C	2.331799	1.183695	1.115466	6
C	0.685469	1.645854	-0.714124	6
H	-3.017631	-1.405135	-2.011034	1
H	-3.436801	-1.314496	-0.291264	1
H	-2.951881	-2.864065	-1.003434	1
H	-0.604641	-1.941296	-1.407944	1
H	-1.629241	-0.364235	1.021316	1
H	1.191909	-1.031096	-0.091934	1
H	0.765069	-0.952865	1.611466	1
H	0.229859	1.489774	1.374976	1
H	3.037659	0.703065	0.429836	1
H	2.482789	0.756935	2.112406	1
H	2.581469	2.248544	1.167616	1
H	1.296629	1.160414	-1.482124	1
H	0.966699	2.703735	-0.677554	1
H	-0.360981	1.597725	-1.030714	1
Es	1.106313	1.306945	-1.237691	99
Es	2.432571	0.889036	1.795794	99
Es	0.702243	0.226201	0.633832	99
Es	0.688485	-0.810603	1.300076	99
Es	-2.884164	-2.513694	-1.007319	99
Es	-2.766247	-1.785953	-1.016484	99
Es	2.500922	1.914143	1.150605	99
Es	-0.184448	-0.646227	0.473325	99
Es	-1.130984	-0.874630	-0.379673	99
Es	-0.838961	-1.807742	-1.192610	99
Es	-0.024453	1.612486	-0.924739	99
Es	-2.929978	-1.529186	-1.691861	99
Es	-1.328311	-1.513640	-0.717222	99
Es	0.685477	1.645850	-0.714109	99
Es	0.783736	1.312831	-0.041425	99
Es	2.331791	1.183694	1.115465	99
Es	-0.903972	-0.786861	0.328683	99
Es	1.618770	1.081626	0.883746	99
Es	-2.050053	-1.649449	-0.865348	99
Es	2.810968	0.852853	0.644185	99
Es	0.886198	0.985962	0.652807	99
Es	0.985275	-0.865518	0.127919	99
Es	-1.394501	-0.493446	0.804911	99
Es	-3.218158	-1.462968	-0.519148	99
Es	0.431348	1.330310	1.150608	99
Es	0.544161	-0.516074	0.629223	99
Es	0.881407	2.370689	-0.682397	99
Es	-1.101651	-1.426302	-0.006842	99
49
Properties=species:S:1:pos:R:3:Z:I:1 energy=-273.3101074664716 field_type=dipole dipole="0.000000 0.000000 0.000000" charge=0
C	-2.766281	-1.785955	-1.016484	6
C	-1.328241	-1.513566	-0.717124	6
C	-0.904031	-0.786926	0.328586	6
C	0.544209	-0.516086	0.629226	6
C	0.886169	0.985985	0.652836	6
C	2.331799	1.183695	1.115466	6
C	0.685469	1.645854	-0.714124	6
H	-3.017631	-1.405135	-2.011034	1
H	-3.436801	-1.314496	-0.291264	1
H	-2.951881	-2.864065	-1.003434	1
H	-0.604641	-1.941296	-1.407944	1
H	-1.629241	-0.364235	1.021316	1
H	1.191909	-1.031096	-0.091934	1
H	0.765069	-0.952865	1.611466	1
H	0.229859	1.489774	1.374976	1
H	3.037659	0.703065	0.429836	1
H	2.482789	0.756935	2.112406	1
H	2.581469	2.248544	1.167616	1
H	1.296629	1.160414	-1.482124	1
H	0.966699	2.703735	-0.677554	1
H	-0.360981	1.597725	-1.030714	1
Es	-0.023921	1.612788	-0.923877	99
Es	2.811051	0.853150	0.644773	99
Es	0.783633	1.312850	-0.041741	99
Es	-1.130934	-0.874502	-0.379800	99
Es	0.881575	2.370989	-0.681590	99
Es	0.685477	1.645849	-0.714108	99
Es	2.331792	1.183695	1.115466	99
Es	0.688474	-0.810563	1.300092	99
Es	2.432500	0.888919	1.795251	99
Es	1.618541	1.081379	0.883366	99
Es	-2.766247	-1.785953	-1.016484	99
Es	-0.184245	-0.645732	0.473991	99
Es	-3.217940	-1.462893	-0.518803	99
Es	-1.101588	-1.426616	-0.006652	99
Es	-1.394482	-0.493634	0.804630	99
Es	-0.839020	-1.807518	-1.192409	99
Es	2.501134	1.914329	1.151058	99
Es	0.886197	0.985963	0.652810	99
Es	-2.883788	-2.512854	-1.006663	99
Es	0.544165	-0.516072	0.629222	99
Es	-0.903972	-0.786864	0.328684	99
Es	-2.930385	-1.529811	-1.692674	99
Es	0.985083	-0.865676	0.127424	99
Es	-1.328310	-1.513637	-0.717225	99
Es	0.702036	0.225879	0.633374	99
Es	-2.050207	-1.649808	-0.865895	99
Es	0.431309	1.330221	1.150560	99
Es	1.105855	1.306453	-1.238469	99
49
Properties=species:S:1:pos:R:3:Z:I:1 energy=-273.3101074664716 field_type=dipole dipole="0.000000 0.000000 0.000000" charge=0
C	-2.766281	-1.785955	-1.016484	6
C	-1.328241	-1.513566	-0.717124	6
C	-0.904031	-0.786926	0.328586	6
C	0.544209	-0.516086	0.629226	6
C	0.886169	0.985985	0.652836	6
C	2.331799	1.183695	1.115466	6
C	0.685469	1.645854	-0.714124	6
H	-3.017631	-1.405135	-2.011034	1
H	-3.436801	-1.314496	-0.291264	1
H	-2.951881	-2.864065	-1.003434	1
H	-0.604641	-1.941296	-1.407944	1
H	-1.629241	-0.364235	1.021316	1
H	1.191909	-1.031096	-0.091934	1
H	0.765069	-0.952865	1.611466	1
H	0.229859	1.489774	1.374976	1
H	3.037659	0.703065	0.429836	1
H	2.482789	0.756935	2.112406	1
H	2.581469	2.248544	1.167616	1
H	1.296629	1.160414	-1.482124	1
H	0.966699	2.703735	-0.677554	1
H	-0.360981	1.597725	-1.030714	1
Es	2.331790	1.183694	1.115467	99
Es	-1.131024	-0.874256	-0.379957	99
Es	0.685477	1.645849	-0.714109	99
Es	0.544164	-0.516072	0.629222	99
Es	-2.883185	-2.511479	-1.005540	99
Es	-0.839059	-1.807180	-1.192279	99
Es	-2.766246	-1.785952	-1.016483	99
Es	0.431214	1.330080	1.150321	99
Es	-0.184034	-0.645341	0.474630	99
Es	-0.903970	-0.786862	0.328683	99
Es	0.881920	2.371379	-0.680616	99
Es	-0.023150	1.613220	-0.922793	99
Es	2.432250	0.888492	1.794495	99
Es	-3.217777	-1.462755	-0.518496	99
Es	0.886198	0.985963	0.652810	99
Es	0.984854	-0.865939	0.127009	99
Es	0.688342	-0.810553	1.300034	99
Es	1.618617	1.081222	0.882901	99
Es	1.105113	1.305715	-1.239368	99
Es	0.702014	0.225600	0.633022	99
Es	-2.050197	-1.650228	-0.866459	99
Es	-1.328311	-1.513638	-0.717224	99
Es	2.811079	0.853613	0.645424	99
Es	2.501374	1.914678	1.151874	99
Es	-1.394434	-0.493903	0.804479	99
Es	0.783362	1.312812	-0.042312	99
Es	-1.101588	-1.426766	-0.006538	99
Es	-2.931010	-1.531064	-1.693888	99
49
Properties=species:S:1:pos:R:3:Z:I:1 energy=-273.3101074664716 field_type=dipole dipole="0.000000 0.000000 0.000000" charge=0
C	-2.766281	-1.785955	-1.016484	6
C	-1.328241	-1.513566	-0.717124	6
C	-0.904031	-0.786926	0.328586	6
C	0.544209	-0.516086	0.629226	6
C	0.886169	0.985985	0.652836	6
C	2.331799	1.183695	1.115466	6
C	0.685469	1.645854	-0.714124	6
H	-3.017631	-1.405135	-2.011034	1
H	-3.436801	-1.314496	-0.291264	1
H	-2.951881	-2.864065	-1.003434	1
H	-0.604641	-1.941296	-1.407944	1
H	-1.629241	-0.364235	1.021316	1
H	1.191909	-1.031096	-0.091934	1
H	0.765069	-0.952865	1.611466	1
H	0.229859	1.489774	1.374976	1
H	3.037659	0.703065	0.429836	1
H	2.482789	0.756935	2.112406	1
H	2.581469	2.248544	1.167616	1
H	1.296629	1.160414	-1.482124	1
H	0.966699	2.703735	-0.677554	1
H	-0.360981	1.597725	-1.030714	1
Es	-1.394379	-0.494248	0.804233	99
Es	0.783229	1.312791	-0.042882	99
Es	-1.328312	-1.513638	-0.717222	99
Es	2.432126	0.888095	1.793582	99
Es	-2.050429	-1.650764	-0.867307	99
Es	-0.183778	-0.644783	0.475402	99
Es	-2.882349	-2.509587	-1.004074	99
Es	-3.217427	-1.462537	-0.518023	99
Es	-0.839065	-1.806902	-1.191945	99
Es	-0.903971	-0.786861	0.328682	99
Es	1.618556	1.080762	0.882335	99
Es	0.544164	-0.516072	0.629221	99
Es	2.331791	1.183694	1.115468	99
Es	0.688523	-0.810300	1.300406	99
Es	0.984501	-0.866159	0.126508	99
Es	1.104058	1.304935	-1.240610	99
Es	-0.022069	1.613807	-0.921444	99
Es	-2.931933	-1.532850	-1.695401	99
Es	-1.101544	-1.426946	-0.006461	99
Es	-2.766246	-1.785953	-1.016485	99
Es	2.501608	1.915060	1.152762	99
Es	0.431181	1.330033	1.150102	99
Es	-1.131067	-0.873984	-0.380113	99
Es	2.811060	0.854225	0.646229	99
Es	0.882299	2.371697	-0.679263	99
Es	0.701584	0.225008	0.631909	99
Es	0.685478	1.645847	-0.714106	99
Es	0.886198	0.985965	0.652809	99
