39
Properties=species:S:1:pos:R:3:Z:I:1 energy=-342.60290498083003 field_type=dipole dipole="0.000000 0.000000 0.000000" charge=0
C	-1.052770	-1.865404	-0.530911	6
C	-0.573710	-1.218254	0.541919	6
C	0.515220	-0.175204	0.563279	6
O	1.009670	0.116716	-0.767091	8
C	0.830920	1.478805	-0.816141	6
C	0.277900	1.968786	0.273579	6
O	0.001940	1.011896	1.219599	8
H	-1.846130	-2.599204	-0.429811	1
H	-0.670990	-1.674374	-1.529601	1
H	-0.998350	-1.448434	1.516089	1
H	1.357870	-0.548584	1.159149	1
H	1.141570	1.973006	-1.717641	1
H	0.006860	2.980255	0.517579	1
Es	0.277794	1.968665	0.273845	99
Es	0.181314	1.068489	1.446765	99
Es	-0.578920	-1.771349	0.049134	99
Es	0.515151	-0.174931	0.563119	99
Es	0.815424	0.024292	-0.260558	99
Es	0.870229	1.815727	-0.153489	99
Es	-0.803020	-1.744666	-1.203657	99
Es	0.830999	1.478522	-0.816237	99
Es	0.197932	0.570430	0.952560	99
Es	0.096826	2.646677	0.437905	99
Es	0.810360	0.010826	-0.957481	99
Es	0.002091	1.011877	1.219217	99
Es	-1.588200	-2.362359	-0.465397	99
Es	-0.573644	-1.218182	0.541997	99
Es	-1.029601	-1.301241	-0.035715	99
Es	1.040110	1.809766	-1.420827	99
Es	-0.035223	-0.699498	0.534519	99
Es	-1.052792	-1.865449	-0.530964	99
Es	0.941077	0.639505	-0.777544	99
Es	-0.848824	-1.365461	1.206771	99
Es	0.114029	1.374269	0.853440	99
Es	-0.294133	0.991137	1.222502	99
Es	1.087560	-0.432816	0.970241	99
Es	1.302635	0.070210	-0.766553	99
Es	0.251542	1.721487	-0.425073	99
Es	1.009693	0.117054	-0.766709	99
39
Properties=species:S:1:pos:R:3:Z:I:1 energy=-342.60290498083003 field_type=dipole dipole="0.000000 0.000000 0.000000" charge=0
C	-1.052770	-1.865404	-0.530911	6
C	-0.573710	-1.218254	0.541919	6
C	0.515220	-0.175204	0.563279	6
O	1.009670	0.116716	-0.767091	8
C	0.830920	1.478805	-0.816141	6
C	0.277900	1.968786	0.273579	6
O	0.001940	1.011896	1.219599	8
H	-1.846130	-2.599204	-0.429811	1
H	-0.670990	-1.674374	-1.529601	1
H	-0.998350	-1.448434	1.516089	1
H	1.357870	-0.548584	1.159149	1
H	1.141570	1.973006	-1.717641	1
H	0.006860	2.980255	0.517579	1
Es	0.939674	0.637804	-0.778996	99
Es	0.814441	0.024702	-0.260027	99
Es	0.515150	-0.174932	0.563121	99
Es	1.009439	0.116972	-0.766840	99
Es	-0.851105	-1.363328	1.207677	99
Es	1.288970	0.094345	-0.745966	99
Es	1.037966	1.809702	-1.421828	99
Es	0.002150	1.011863	1.219304	99
Es	-0.579444	-1.771320	0.048826	99
Es	0.826472	-0.012009	-0.978422	99
Es	1.086764	-0.432729	0.969678	99
Es	0.099285	2.647727	0.439101	99
Es	0.252072	1.720622	-0.424512	99
Es	-0.800739	-1.747100	-1.204988	99
Es	0.277804	1.968667	0.273856	99
Es	0.116470	1.373654	0.857146	99
Es	-1.029616	-1.300915	-0.035337	99
Es	0.196836	0.568164	0.950687	99
Es	-0.037316	-0.699089	0.534353	99
Es	0.158536	1.068058	1.479134	99
Es	-1.052798	-1.865448	-0.530969	99
Es	-0.272523	0.995725	1.188954	99
Es	0.869364	1.814473	-0.153391	99
Es	0.831005	1.478516	-0.816241	99
Es	-1.584806	-2.362962	-0.464512	99
Es	-0.573643	-1.218183	0.541997	99
39
Properties=species:S:1:pos:R:3:Z:I:1 energy=-342.60290498083003 field_type=dipole dipole="0.000000 0.000000 0.000000" charge=0
C	-1.052770	-1.865404	-0.530911	6
C	-0.573710	-1.218254	0.541919	6
C	0.515220	-0.175204	0.563279	6
O	1.009670	0.116716	-0.767091	8
C	0.830920	1.478805	-0.816141	6
C	0.277900	1.968786	0.273579	6
O	0.001940	1.011896	1.219599	8
H	-1.846130	-2.599204	-0.429811	1
H	-0.670990	-1.674374	-1.529601	1
H	-0.998350	-1.448434	1.516089	1
H	1.357870	-0.548584	1.159149	1
H	1.141570	1.973006	-1.717641	1
H	0.006860	2.980255	0.517579	1
Es	0.937165	0.635359	-0.780882	99
Es	-1.029306	-1.300804	-0.035192	99
Es	-0.038629	-0.699187	0.533949	99
Es	0.100074	2.648122	0.439574	99
Es	0.002241	1.011904	1.219268	99
Es	0.515151	-0.174929	0.563120	99
Es	-0.262656	0.997442	1.180112	99
Es	0.150393	1.069054	1.488797	99
Es	0.277806	1.968667	0.273858	99
Es	-1.052796	-1.865450	-0.530968	99
Es	-0.573646	-1.218171	0.542000	99
Es	1.086198	-0.432757	0.969271	99
Es	-1.582856	-2.362852	-0.463984	99
Es	0.869059	1.813707	-0.153202	99
Es	-0.579877	-1.771382	0.048731	99
Es	0.115311	1.372335	0.858322	99
Es	1.009543	0.116916	-0.766876	99
Es	0.252109	1.720122	-0.424332	99
Es	0.196285	0.567589	0.949119	99
Es	1.273947	0.113555	-0.731241	99
Es	0.812358	0.025433	-0.259496	99
Es	-0.799382	-1.748758	-1.205602	99
Es	-0.852575	-1.361701	1.208257	99
Es	0.846020	-0.029372	-0.992470	99
Es	0.831006	1.478520	-0.816239	99
Es	1.037467	1.809618	-1.422085	99
39
Properties=species:S:1:pos:R:3:Z:I:1 energy=-342.60290498083003 field_type=dipole dipole="0.000000 0.000000 0.000000" charge=0
C	-1.052770	-1.865404	-0.530911	6
C	-0.573710	-1.218254	0.541919	6
C	0.515220	-0.175204	0.563279	6
O	1.009670	0.116716	-0.767091	8
C	0.830920	1.478805	-0.816141	6
C	0.277900	1.968786	0.273579	6
O	0.001940	1.011896	1.219599	8
H	-1.846130	-2.599204	-0.429811	1
H	-0.670990	-1.674374	-1.529601	1
H	-0.998350	-1.448434	1.516089	1
H	1.357870	-0.548584	1.159149	1
H	1.141570	1.973006	-1.717641	1
H	0.006860	2.980255	0.517579	1
Es	0.251698	1.719813	-0.424385	99
Es	-0.580195	-1.771652	0.048857	99
Es	-0.039072	-0.699444	0.534050	99
Es	-0.798597	-1.749665	-1.205846	99
Es	0.002236	1.011887	1.219260	99
Es	-1.029080	-1.300627	-0.035214	99
Es	-1.052794	-1.865452	-0.530969	99
Es	0.932630	0.633086	-0.782496	99
Es	0.197696	0.567658	0.948182	99
Es	0.515149	-0.174933	0.563121	99
Es	1.086003	-0.432586	0.969093	99
Es	0.869751	-0.045144	-1.003175	99
Es	0.132138	1.067503	1.502293	99
Es	0.831006	1.478514	-0.816242	99
Es	-1.582108	-2.362410	-0.463865	99
Es	1.009330	0.116991	-0.766881	99
Es	-0.853393	-1.360965	1.208299	99
Es	1.257224	0.131497	-0.718891	99
Es	0.120907	1.370605	0.863091	99
Es	0.100173	2.648104	0.439818	99
Es	0.869308	1.813439	-0.152966	99
Es	-0.251462	1.001178	1.162805	99
Es	1.037529	1.809473	-1.422008	99
Es	0.277807	1.968668	0.273858	99
Es	-0.573648	-1.218176	0.541998	99
Es	0.810171	0.025618	-0.259982	99
39
Properties=species:S:1:pos:R:3:Z:I:1 energy=-342.60290498083003 field_type=dipole dipole="0.000000 0.000000 0.000000" charge=0
C	-1.052770	-1.865404	-0.530911	6
C	-0.573710	-1.218254	0.541919	6
C	0.515220	-0.175204	0.563279	6
O	1.009670	0.116716	-0.767091	8
C	0.830920	1.478805	-0.816141	6
C	0.277900	1.968786	0.273579	6
O	0.001940	1.011896	1.219599	8
H	-1.846130	-2.599204	-0.429811	1
H	-0.670990	-1.674374	-1.529601	1
H	-0.998350	-1.448434	1.516089	1
H	1.357870	-0.548584	1.159149	1
H	1.141570	1.973006	-1.717641	1
H	0.006860	2.980255	0.517579	1
Es	0.869591	1.813289	-0.152805	99
Es	0.002278	1.011909	1.219278	99
Es	-1.052792	-1.865454	-0.530967	99
Es	1.085793	-0.432595	0.968969	99
Es	0.831004	1.478515	-0.816242	99
Es	0.808823	0.026684	-0.259682	99
Es	0.251408	1.719448	-0.424353	99
Es	1.037338	1.809294	-1.422010	99
Es	0.515144	-0.174930	0.563117	99
Es	-1.581478	-2.362094	-0.463711	99
Es	-0.853840	-1.360368	1.208366	99
Es	0.123608	1.067119	1.507924	99
Es	-0.039489	-0.699531	0.533937	99
Es	-0.798261	-1.750249	-1.206078	99
Es	0.932921	0.631575	-0.783139	99
Es	1.246909	0.138182	-0.714256	99
Es	0.277806	1.968668	0.273859	99
Es	0.100329	2.648135	0.440116	99
Es	0.123107	1.369157	0.865666	99
Es	-0.573645	-1.218177	0.541999	99
Es	-0.580274	-1.771877	0.048935	99
Es	-1.029014	-1.300589	-0.035170	99
Es	1.009053	0.117078	-0.766905	99
Es	0.198754	0.568153	0.947318	99
Es	0.881501	-0.051307	-1.007786	99
Es	-0.246162	1.002944	1.155429	99
39
Properties=species:S:1:pos:R:3:Z:I:1 energy=-342.60290498083003 field_type=dipole dipole="0.000000 0.000000 0.000000" charge=0
C	-1.052770	-1.865404	-0.530911	6
C	-0.573710	-1.218254	0.541919	6
C	0.515220	-0.175204	0.563279	6
O	1.009670	0.116716	-0.767091	8
C	0.830920	1.478805	-0.816141	6
C	0.277900	1.968786	0.273579	6
O	0.001940	1.011896	1.219599	8
H	-1.846130	-2.599204	-0.429811	1
H	-0.670990	-1.674374	-1.529601	1
H	-0.998350	-1.448434	1.516089	1
H	1.357870	-0.548584	1.159149	1
H	1.141570	1.973006	-1.717641	1
H	0.006860	2.980255	0.517579	1
Es	1.085675	-0.432471	0.968836	99
Es	0.929164	0.629258	-0.784927	99
Es	0.120578	1.068237	1.510640	99
Es	-0.242815	1.003449	1.152733	99
Es	0.002201	1.011916	1.219291	99
Es	-0.039442	-0.699757	0.533980	99
Es	-1.052788	-1.865459	-0.530967	99
Es	0.831003	1.478515	-0.816242	99
Es	0.251041	1.719310	-0.424464	99
Es	-0.797928	-1.750650	-1.206130	99
Es	0.515153	-0.174932	0.563123	99
Es	-0.580669	-1.771785	0.048896	99
Es	0.869860	1.813108	-0.152611	99
Es	0.199357	0.568623	0.946199	99
Es	1.236658	0.147432	-0.709746	99
Es	-1.028673	-1.300546	-0.035213	99
Es	1.009594	0.116998	-0.766766	99
Es	0.277813	1.968663	0.273867	99
Es	-0.854254	-1.360078	1.208378	99
Es	-1.581332	-2.361960	-0.463579	99
Es	0.100492	2.648023	0.440295	99
Es	1.037350	1.809195	-1.421967	99
Es	0.895648	-0.058937	-1.011174	99
Es	0.122234	1.367414	0.866769	99
Es	-0.573649	-1.218169	0.542000	99
Es	0.808137	0.027585	-0.259413	99
39
Properties=species:S:1:pos:R:3:Z:I:1 energy=-342.60290498083003 field_type=dipole dipole="0.000000 0.000000 0.000000" charge=0
C	-1.052770	-1.865404	-0.530911	6
C	-0.573710	-1.218254	0.541919	6
C	0.515220	-0.175204	0.563279	6
O	1.009670	0.116716	-0.767091	8
C	0.830920	1.478805	-0.816141	6
C	0.277900	1.968786	0.273579	6
O	0.001940	1.011896	1.219599	8
H	-1.846130	-2.599204	-0.429811	1
H	-0.670990	-1.674374	-1.529601	1
H	-0.998350	-1.448434	1.516089	1
H	1.357870	-0.548584	1.159149	1
H	1.141570	1.973006	-1.717641	1
H	0.006860	2.980255	0.517579	1
Es	1.085488	-0.432377	0.968667	99
Es	0.515148	-0.174932	0.563120	99
Es	0.932650	0.628459	-0.783672	99
Es	0.831003	1.478515	-0.816243	99
Es	-0.580732	-1.771940	0.048923	99
Es	1.236036	0.145580	-0.710085	99
Es	0.870099	1.813066	-0.152527	99
Es	0.113420	1.068169	1.514385	99
Es	-1.580892	-2.361740	-0.463418	99
Es	0.250933	1.719193	-0.424471	99
Es	1.037105	1.808981	-1.421943	99
Es	0.100597	2.648070	0.440530	99
Es	-0.237813	1.004657	1.147612	99
Es	1.009392	0.116974	-0.766847	99
Es	0.277814	1.968667	0.273865	99
Es	-0.797635	-1.751210	-1.206232	99
Es	-0.039782	-0.700001	0.533901	99
Es	0.807732	0.028804	-0.259078	99
Es	-1.052792	-1.865454	-0.530967	99
Es	-1.028560	-1.300437	-0.035229	99
Es	0.002163	1.011898	1.219286	99
Es	-0.573654	-1.218164	0.541999	99
Es	0.123630	1.366410	0.868194	99
Es	0.893445	-0.057446	-1.012517	99
Es	0.200197	0.568762	0.946113	99
Es	-0.854585	-1.359523	1.208442	99
39
Properties=species:S:1:pos:R:3:Z:I:1 energy=-342.60290498083003 field_type=dipole dipole="0.000000 0.000000 0.000000" charge=0
C	-1.052770	-1.865404	-0.530911	6
C	-0.573710	-1.218254	0.541919	6
C	0.515220	-0.175204	0.563279	6
O	1.009670	0.116716	-0.767091	8
C	0.830920	1.478805	-0.816141	6
C	0.277900	1.968786	0.273579	6
O	0.001940	1.011896	1.219599	8
H	-1.846130	-2.599204	-0.429811	1
H	-0.670990	-1.674374	-1.529601	1
H	-0.998350	-1.448434	1.516089	1
H	1.357870	-0.548584	1.159149	1
H	1.141570	1.973006	-1.717641	1
H	0.006860	2.980255	0.517579	1
Es	-0.237652	1.006658	1.147554	99
Es	-0.580774	-1.772045	0.048972	99
Es	0.515150	-0.174929	0.563119	99
Es	-1.028662	-1.300373	-0.035205	99
Es	-0.573647	-1.218171	0.542000	99
Es	1.085432	-0.432404	0.968689	99
Es	0.198045	0.568625	0.943896	99
Es	0.002235	1.011963	1.219258	99
Es	0.806523	0.029062	-0.259105	99
Es	0.124309	1.364727	0.870081	99
Es	-0.797558	-1.751458	-1.206379	99
Es	0.831010	1.478515	-0.816241	99
Es	0.114588	1.068179	1.514772	99
Es	-0.039917	-0.700133	0.533787	99
Es	0.934311	0.628206	-0.783386	99
Es	0.277807	1.968668	0.273860	99
Es	0.900101	-0.059502	-1.014751	99
Es	0.870074	1.812811	-0.152442	99
Es	-1.580552	-2.361437	-0.463411	99
Es	-0.854663	-1.359335	1.208579	99
Es	0.100633	2.648065	0.440592	99
Es	1.037335	1.808973	-1.421925	99
Es	-1.052794	-1.865450	-0.530967	99
Es	1.009362	0.116980	-0.766876	99
Es	1.229042	0.147757	-0.708153	99
Es	0.250670	1.719026	-0.424509	99
39
Properties=species:S:1:pos:R:3:Z:I:1 energy=-342.60290498083003 field_type=dipole dipole="0.000000 0.000000 0.000000" charge=0
C	-1.052770	-1.865404	-0.530911	6
C	-0.573710	-1.218254	0.541919	6
C	0.515220	-0.175204	0.563279	6
O	1.009670	0.116716	-0.767091	8
C	0.830920	1.478805	-0.816141	6
C	0.277900	1.968786	0.273579	6
O	0.001940	1.011896	1.219599	8
H	-1.846130	-2.599204	-0.429811	1
H	-0.670990	-1.674374	-1.529601	1
H	-0.998350	-1.448434	1.516089	1
H	1.357870	-0.548584	1.159149	1
H	1.141570	1.973006	-1.717641	1
H	0.006860	2.980255	0.517579	1
Es	-1.052795	-1.865452	-0.530969	99
Es	0.933410	0.626520	-0.783387	99
Es	1.229757	0.148846	-0.707832	99
Es	1.009402	0.116986	-0.766881	99
Es	0.200531	0.568918	0.944216	99
Es	0.250460	1.719048	-0.424616	99
Es	-0.797339	-1.751518	-1.206256	99
Es	0.277813	1.968667	0.273863	99
Es	0.515151	-0.174936	0.563124	99
Es	0.105985	1.069040	1.518346	99
Es	1.085339	-0.432299	0.968540	99
Es	-0.230896	1.006438	1.142942	99
Es	-0.573645	-1.218176	0.542000	99
Es	-0.039914	-0.700186	0.533901	99
Es	-0.580920	-1.772092	0.049007	99
Es	0.831004	1.478514	-0.816243	99
Es	0.870162	1.812586	-0.152310	99
Es	-0.854944	-1.359176	1.208442	99
Es	-1.028441	-1.300359	-0.035236	99
Es	0.002354	1.011955	1.219267	99
Es	0.900533	-0.059545	-1.015349	99
Es	0.806174	0.029742	-0.258955	99
Es	-1.580626	-2.361521	-0.463462	99
Es	1.037226	1.808879	-1.421920	99
Es	0.100924	2.648077	0.440903	99
Es	0.123704	1.364023	0.870673	99
39
Properties=species:S:1:pos:R:3:Z:I:1 energy=-342.60290498083003 field_type=dipole dipole="0.000000 0.000000 0.000000" charge=0
C	-1.052770	-1.865404	-0.530911	6
C	-0.573710	-1.218254	0.541919	6
C	0.515220	-0.175204	0.563279	6
O	1.009670	0.116716	-0.767091	8
C	0.830920	1.478805	-0.816141	6
C	0.277900	1.968786	0.273579	6
O	0.001940	1.011896	1.219599	8
H	-1.846130	-2.599204	-0.429811	1
H	-0.670990	-1.674374	-1.529601	1
H	-0.998350	-1.448434	1.516089	1
H	1.357870	-0.548584	1.159149	1
H	1.141570	1.973006	-1.717641	1
H	0.006860	2.980255	0.517579	1
Es	0.805233	0.030445	-0.259115	99
Es	-0.797368	-1.751762	-1.206443	99
Es	-0.855000	-1.359072	1.208538	99
Es	-0.580974	-1.772121	0.049015	99
Es	0.110946	1.069329	1.517056	99
Es	1.085301	-0.432226	0.968503	99
Es	0.101036	2.647985	0.441056	99
Es	-0.039947	-0.700337	0.533912	99
Es	0.931794	0.625423	-0.784471	99
Es	0.124683	1.362657	0.871139	99
Es	1.009341	0.116971	-0.766863	99
Es	1.221678	0.153969	-0.705217	99
Es	0.515150	-0.174933	0.563121	99
Es	1.037173	1.808830	-1.421961	99
Es	-0.234747	1.007680	1.144418	99
Es	-0.573652	-1.218168	0.542000	99
Es	-1.052794	-1.865451	-0.530968	99
Es	0.277817	1.968669	0.273864	99
Es	0.831007	1.478514	-0.816242	99
Es	0.002115	1.011956	1.219243	99
Es	-1.580529	-2.361201	-0.463329	99
Es	0.198682	0.568857	0.943551	99
Es	-1.028293	-1.300379	-0.035244	99
Es	0.911190	-0.064174	-1.016878	99
Es	0.870281	1.812586	-0.152258	99
Es	0.250283	1.718933	-0.424618	99
39
Properties=species:S:1:pos:R:3:Z:I:1 energy=-342.60290498083003 field_type=dipole dipole="0.000000 0.000000 0.000000" charge=0
C	-1.052770	-1.865404	-0.530911	6
C	-0.573710	-1.218254	0.541919	6
C	0.515220	-0.175204	0.563279	6
O	1.009670	0.116716	-0.767091	8
C	0.830920	1.478805	-0.816141	6
C	0.277900	1.968786	0.273579	6
O	0.001940	1.011896	1.219599	8
H	-1.846130	-2.599204	-0.429811	1
H	-0.670990	-1.674374	-1.529601	1
H	-0.998350	-1.448434	1.516089	1
H	1.357870	-0.548584	1.159149	1
H	1.141570	1.973006	-1.717641	1
H	0.006860	2.980255	0.517579	1
Es	1.037136	1.808768	-1.421921	99
Es	0.199654	0.569471	0.942708	99
Es	-0.797206	-1.751990	-1.206521	99
Es	1.085254	-0.432263	0.968497	99
Es	-0.581126	-1.772040	0.048959	99
Es	1.217784	0.153458	-0.705288	99
Es	0.805105	0.030911	-0.258720	99
Es	-0.040071	-0.700311	0.533779	99
Es	0.123668	1.361465	0.872150	99
Es	-0.235083	1.007478	1.144203	99
Es	-1.580343	-2.361077	-0.463239	99
Es	-0.855012	-1.358976	1.208631	99
Es	0.111191	1.070235	1.517142	99
Es	-1.028292	-1.300430	-0.035193	99
Es	0.515151	-0.174927	0.563119	99
Es	0.002142	1.011890	1.219268	99
Es	1.009403	0.116981	-0.766863	99
Es	0.912620	-0.064200	-1.017851	99
Es	0.831002	1.478515	-0.816243	99
Es	0.277811	1.968669	0.273859	99
Es	-1.052793	-1.865453	-0.530968	99
Es	0.870395	1.812562	-0.152214	99
Es	0.934326	0.625563	-0.783933	99
Es	0.101096	2.647995	0.441042	99
Es	0.250243	1.718855	-0.424592	99
Es	-0.573647	-1.218172	0.542000	99
39
Properties=species:S:1:pos:R:3:Z:I:1 energy=-342.60290498083003 field_type=dipole dipole="0.000000 0.000000 0.000000" charge=0
C	-1.052770	-1.865404	-0.530911	6
C	-0.573710	-1.218254	0.541919	6
C	0.515220	-0.175204	0.563279	6
O	1.009670	0.116716	-0.767091	8
C	0.830920	1.478805	-0.816141	6
C	0.277900	1.968786	0.273579	6
O	0.001940	1.011896	1.219599	8
H	-1.846130	-2.599204	-0.429811	1
H	-0.670990	-1.674374	-1.529601	1
H	-0.998350	-1.448434	1.516089	1
H	1.357870	-0.548584	1.159149	1
H	1.141570	1.973006	-1.717641	1
H	0.006860	2.980255	0.517579	1
Es	-0.573650	-1.218168	0.542000	99
Es	0.249973	1.718753	-0.424687	99
Es	1.037151	1.808607	-1.421818	99
Es	1.085265	-0.432289	0.968473	99
Es	-0.797189	-1.752034	-1.206341	99
Es	0.101031	2.647972	0.441266	99
Es	0.831007	1.478522	-0.816241	99
Es	0.933680	0.624509	-0.783644	99
Es	-1.052789	-1.865460	-0.530967	99
Es	0.199798	0.569046	0.942815	99
Es	0.097176	1.068982	1.522784	99
Es	0.870649	1.812560	-0.152129	99
Es	0.126188	1.361398	0.873590	99
Es	-1.028207	-1.300122	-0.035404	99
Es	-0.581178	-1.772241	0.049101	99
Es	0.002191	1.011910	1.219275	99
Es	-0.223649	1.009460	1.136782	99
Es	-0.039842	-0.700435	0.533863	99
Es	1.009716	0.117028	-0.766680	99
Es	0.804894	0.031629	-0.259102	99
Es	-0.855158	-1.358775	1.208463	99
Es	0.515148	-0.174931	0.563119	99
Es	1.223149	0.152152	-0.705815	99
Es	0.277807	1.968669	0.273857	99
Es	0.907788	-0.062591	-1.017447	99
Es	-1.580540	-2.361172	-0.463304	99
39
Properties=species:S:1:pos:R:3:Z:I:1 energy=-342.60290498083003 field_type=dipole dipole="0.000000 0.000000 0.000000" charge=0
C	-1.052770	-1.865404	-0.530911	6
C	-0.573710	-1.218254	0.541919	6
C	0.515220	-0.175204	0.563279	6
O	1.009670	0.116716	-0.767091	8
C	0.830920	1.478805	-0.816141	6
C	0.277900	1.968786	0.273579	6
O	0.001940	1.011896	1.219599	8
H	-1.846130	-2.599204	-0.429811	1
H	-0.670990	-1.674374	-1.529601	1
H	-0.998350	-1.448434	1.516089	1
H	1.357870	-0.548584	1.159149	1
H	1.141570	1.973006	-1.717641	1
H	0.006860	2.980255	0.517579	1
Es	0.101209	2.647910	0.441267	99
Es	-0.573647	-1.218172	0.542001	99
Es	0.915961	-0.064944	-1.019167	99
Es	0.002278	1.011937	1.219273	99
Es	-0.581185	-1.772270	0.049104	99
Es	1.214872	0.153870	-0.703684	99
Es	1.085231	-0.432223	0.968451	99
Es	0.515149	-0.174934	0.563121	99
Es	0.105505	1.070389	1.519927	99
Es	-1.580285	-2.360833	-0.463251	99
Es	1.009295	0.117039	-0.766829	99
Es	-0.797211	-1.752183	-1.206560	99
Es	0.831004	1.478515	-0.816242	99
Es	-1.028251	-1.300310	-0.035268	99
Es	0.249899	1.718703	-0.424665	99
Es	0.277810	1.968669	0.273859	99
Es	-0.040074	-0.700480	0.533741	99
Es	0.870676	1.812501	-0.152094	99
Es	-1.052796	-1.865447	-0.530968	99
Es	0.936173	0.624663	-0.783519	99
Es	0.199917	0.569654	0.942347	99
Es	-0.855083	-1.358724	1.208654	99
Es	1.037002	1.808647	-1.421841	99
Es	0.124035	1.360647	0.872893	99
Es	-0.230069	1.008220	1.140892	99
Es	0.802995	0.032137	-0.259634	99
39
Properties=species:S:1:pos:R:3:Z:I:1 energy=-342.60290498083003 field_type=dipole dipole="0.000000 0.000000 0.000000" charge=0
C	-1.052770	-1.865404	-0.530911	6
C	-0.573710	-1.218254	0.541919	6
C	0.515220	-0.175204	0.563279	6
O	1.009670	0.116716	-0.767091	8
C	0.830920	1.478805	-0.816141	6
C	0.277900	1.968786	0.273579	6
O	0.001940	1.011896	1.219599	8
H	-1.846130	-2.599204	-0.429811	1
H	-0.670990	-1.674374	-1.529601	1
H	-0.998350	-1.448434	1.516089	1
H	1.357870	-0.548584	1.159149	1
H	1.141570	1.973006	-1.717641	1
H	0.006860	2.980255	0.517579	1
Es	0.870689	1.812387	-0.152031	99
Es	-0.797015	-1.752294	-1.206512	99
Es	0.804026	0.032339	-0.258835	99
Es	-0.581496	-1.772086	0.049023	99
Es	1.037081	1.808606	-1.421880	99
Es	0.002310	1.012005	1.219170	99
Es	0.249856	1.718709	-0.424688	99
Es	0.101269	2.647904	0.441407	99
Es	-0.855306	-1.358640	1.208579	99
Es	0.122763	1.360123	0.872806	99
Es	0.200070	0.569930	0.941773	99
Es	1.085086	-0.432118	0.968302	99
Es	0.934139	0.623453	-0.784006	99
Es	-0.039916	-0.700594	0.533843	99
Es	-0.573645	-1.218175	0.542001	99
Es	0.277805	1.968670	0.273859	99
Es	1.213782	0.156019	-0.703876	99
Es	-1.028012	-1.300314	-0.035289	99
Es	0.917982	-0.065972	-1.019299	99
Es	-0.229757	1.007807	1.141882	99
Es	-1.052794	-1.865452	-0.530968	99
Es	0.515154	-0.174925	0.563118	99
Es	0.831001	1.478516	-0.816243	99
Es	0.106377	1.071058	1.519694	99
Es	1.009264	0.116992	-0.766872	99
Es	-1.580303	-2.360968	-0.463149	99
39
Properties=species:S:1:pos:R:3:Z:I:1 energy=-342.60290498083003 field_type=dipole dipole="0.000000 0.000000 0.000000" charge=0
C	-1.052770	-1.865404	-0.530911	6
C	-0.573710	-1.218254	0.541919	6
C	0.515220	-0.175204	0.563279	6
O	1.009670	0.116716	-0.767091	8
C	0.830920	1.478805	-0.816141	6
C	0.277900	1.968786	0.273579	6
O	0.001940	1.011896	1.219599	8
H	-1.846130	-2.599204	-0.429811	1
H	-0.670990	-1.674374	-1.529601	1
H	-0.998350	-1.448434	1.516089	1
H	1.357870	-0.548584	1.159149	1
H	1.141570	1.973006	-1.717641	1
H	0.006860	2.980255	0.517579	1
Es	1.084894	-0.432032	0.968194	99
Es	0.831003	1.478515	-0.816242	99
Es	0.249941	1.718660	-0.424613	99
Es	0.931403	0.622398	-0.784438	99
Es	-0.855556	-1.358488	1.208622	99
Es	-1.580048	-2.361015	-0.463037	99
Es	0.101461	2.647960	0.441489	99
Es	-0.573645	-1.218174	0.542001	99
Es	-0.796886	-1.752394	-1.206590	99
Es	0.109741	1.070970	1.518634	99
Es	-0.232800	1.009180	1.142603	99
Es	-1.052793	-1.865454	-0.530968	99
Es	0.805497	0.032250	-0.258104	99
Es	1.009103	0.117027	-0.766924	99
Es	0.515149	-0.174930	0.563120	99
Es	-1.027827	-1.300495	-0.035153	99
Es	1.037046	1.808570	-1.422078	99
Es	0.277809	1.968669	0.273859	99
Es	0.870543	1.812240	-0.152031	99
Es	0.920803	-0.067374	-1.019300	99
Es	0.002237	1.011875	1.219260	99
Es	0.198632	0.569665	0.941240	99
Es	1.212391	0.158645	-0.704064	99
Es	-0.581586	-1.771898	0.048879	99
Es	0.124003	1.359288	0.873648	99
Es	-0.040108	-0.700679	0.533802	99
39
Properties=species:S:1:pos:R:3:Z:I:1 energy=-342.60290498083003 field_type=dipole dipole="0.000000 0.000000 0.000000" charge=0
C	-1.052770	-1.865404	-0.530911	6
C	-0.573710	-1.218254	0.541919	6
C	0.515220	-0.175204	0.563279	6
O	1.009670	0.116716	-0.767091	8
C	0.830920	1.478805	-0.816141	6
C	0.277900	1.968786	0.273579	6
O	0.001940	1.011896	1.219599	8
H	-1.846130	-2.599204	-0.429811	1
H	-0.670990	-1.674374	-1.529601	1
H	-0.998350	-1.448434	1.516089	1
H	1.357870	-0.548584	1.159149	1
H	1.141570	1.973006	-1.717641	1
H	0.006860	2.980255	0.517579	1
Es	0.932427	0.622369	-0.784881	99
Es	1.009251	0.116988	-0.766871	99
Es	0.002269	1.012008	1.219233	99
Es	1.210981	0.158582	-0.703176	99
Es	0.125640	1.358341	0.875491	99
Es	-1.027944	-1.300358	-0.035268	99
Es	-0.855357	-1.358589	1.208626	99
Es	-0.040032	-0.700715	0.533812	99
Es	0.870745	1.812330	-0.152003	99
Es	1.036895	1.808541	-1.421922	99
Es	-0.229195	1.010020	1.138109	99
Es	0.101585	2.647896	0.441561	99
Es	0.831003	1.478515	-0.816243	99
Es	0.515150	-0.174933	0.563122	99
Es	1.084988	-0.432061	0.968211	99
Es	0.277810	1.968671	0.273859	99
Es	0.922478	-0.067964	-1.019430	99
Es	-1.052793	-1.865455	-0.530969	99
Es	-0.581444	-1.772093	0.049013	99
Es	-0.573647	-1.218171	0.542000	99
Es	0.199922	0.570291	0.941089	99
Es	0.103209	1.070407	1.521413	99
Es	0.249766	1.718657	-0.424687	99
Es	-1.580258	-2.360898	-0.463133	99
Es	0.804029	0.032905	-0.258580	99
Es	-0.797070	-1.752304	-1.206570	99
39
Properties=species:S:1:pos:R:3:Z:I:1 energy=-342.60290498083003 field_type=dipole dipole="0.000000 0.000000 0.000000" charge=0
C	-1.052770	-1.865404	-0.530911	6
C	-0.573710	-1.218254	0.541919	6
C	0.515220	-0.175204	0.563279	6
O	1.009670	0.116716	-0.767091	8
C	0.830920	1.478805	-0.816141	6
C	0.277900	1.968786	0.273579	6
O	0.001940	1.011896	1.219599	8
H	-1.846130	-2.599204	-0.429811	1
H	-0.670990	-1.674374	-1.529601	1
H	-0.998350	-1.448434	1.516089	1
H	1.357870	-0.548584	1.159149	1
H	1.141570	1.973006	-1.717641	1
H	0.006860	2.980255	0.517579	1
Es	-0.223094	1.012003	1.133728	99
Es	0.913207	-0.064777	-1.019145	99
Es	-1.052791	-1.865455	-0.530967	99
Es	-0.573649	-1.218170	0.542000	99
Es	1.037004	1.808523	-1.421832	99
Es	0.935604	0.622591	-0.783669	99
Es	1.084998	-0.432188	0.968279	99
Es	-0.796950	-1.752572	-1.206563	99
Es	0.002339	1.011969	1.219241	99
Es	0.094803	1.068811	1.524160	99
Es	0.101253	2.647926	0.441697	99
Es	-0.855492	-1.358366	1.208528	99
Es	-0.040218	-0.700623	0.533813	99
Es	0.515153	-0.174929	0.563121	99
Es	0.870782	1.812340	-0.152015	99
Es	1.009298	0.117040	-0.766875	99
Es	-0.581294	-1.772329	0.049079	99
Es	0.805072	0.033827	-0.258143	99
Es	-1.028109	-1.300176	-0.035304	99
Es	0.128407	1.358673	0.876994	99
Es	0.249733	1.718503	-0.424665	99
Es	0.831004	1.478516	-0.816243	99
Es	-1.579993	-2.360743	-0.463158	99
Es	0.277809	1.968669	0.273858	99
Es	1.216091	0.154180	-0.705106	99
Es	0.199443	0.569735	0.940996	99
39
Properties=species:S:1:pos:R:3:Z:I:1 energy=-342.60290498083003 field_type=dipole dipole="0.000000 0.000000 0.000000" charge=0
C	-1.052770	-1.865404	-0.530911	6
C	-0.573710	-1.218254	0.541919	6
C	0.515220	-0.175204	0.563279	6
O	1.009670	0.116716	-0.767091	8
C	0.830920	1.478805	-0.816141	6
C	0.277900	1.968786	0.273579	6
O	0.001940	1.011896	1.219599	8
H	-1.846130	-2.599204	-0.429811	1
H	-0.670990	-1.674374	-1.529601	1
H	-0.998350	-1.448434	1.516089	1
H	1.357870	-0.548584	1.159149	1
H	1.141570	1.973006	-1.717641	1
H	0.006860	2.980255	0.517579	1
Es	0.934215	0.621647	-0.783894	99
Es	1.084948	-0.432034	0.968191	99
Es	0.127265	1.357826	0.877022	99
Es	0.831004	1.478515	-0.816242	99
Es	1.009386	0.116978	-0.766868	99
Es	1.036873	1.808514	-1.421797	99
Es	-0.040039	-0.700744	0.533855	99
Es	-1.052791	-1.865456	-0.530967	99
Es	0.917426	-0.065724	-1.019874	99
Es	-0.573649	-1.218171	0.542000	99
Es	0.200179	0.570045	0.940838	99
Es	-0.581534	-1.772198	0.049057	99
Es	0.249724	1.718547	-0.424678	99
Es	0.277812	1.968670	0.273860	99
Es	0.515150	-0.174932	0.563121	99
Es	0.101528	2.647986	0.441725	99
Es	0.804596	0.033463	-0.258091	99
Es	-1.027946	-1.300249	-0.035300	99
Es	-1.580147	-2.360833	-0.463187	99
Es	-0.855522	-1.358417	1.208561	99
Es	-0.796831	-1.752506	-1.206496	99
Es	0.002231	1.011930	1.219278	99
Es	1.213604	0.156467	-0.704326	99
Es	0.096421	1.069915	1.523712	99
Es	-0.224216	1.011477	1.134316	99
Es	0.870723	1.812264	-0.152005	99
39
Properties=species:S:1:pos:R:3:Z:I:1 energy=-342.60290498083003 field_type=dipole dipole="0.000000 0.000000 0.000000" charge=0
C	-1.052770	-1.865404	-0.530911	6
C	-0.573710	-1.218254	0.541919	6
C	0.515220	-0.175204	0.563279	6
O	1.009670	0.116716	-0.767091	8
C	0.830920	1.478805	-0.816141	6
C	0.277900	1.968786	0.273579	6
O	0.001940	1.011896	1.219599	8
H	-1.846130	-2.599204	-0.429811	1
H	-0.670990	-1.674374	-1.529601	1
H	-0.998350	-1.448434	1.516089	1
H	1.357870	-0.548584	1.159149	1
H	1.141570	1.973006	-1.717641	1
H	0.006860	2.980255	0.517579	1
Es	-0.796780	-1.752548	-1.206607	99
Es	0.924988	-0.068258	-1.020521	99
Es	0.101670	2.647893	0.441616	99
Es	1.036820	1.808547	-1.422006	99
Es	0.515149	-0.174930	0.563120	99
Es	-0.581678	-1.771987	0.048930	99
Es	-0.040178	-0.700700	0.533764	99
Es	0.277814	1.968668	0.273864	99
Es	-0.573646	-1.218173	0.542001	99
Es	0.199333	0.570621	0.939712	99
Es	0.870758	1.812171	-0.151930	99
Es	-0.855534	-1.358404	1.208660	99
Es	-1.052792	-1.865454	-0.530968	99
Es	0.124656	1.357219	0.876272	99
Es	0.249767	1.718486	-0.424587	99
Es	1.009367	0.116953	-0.766844	99
Es	-1.027885	-1.300407	-0.035199	99
Es	0.803764	0.033423	-0.258447	99
Es	1.084838	-0.432070	0.968153	99
Es	0.830992	1.478513	-0.816248	99
Es	-0.229891	1.010368	1.139239	99
Es	0.933587	0.621695	-0.784360	99
Es	0.105549	1.071060	1.520910	99
Es	0.002249	1.011946	1.219272	99
Es	1.207481	0.159190	-0.702924	99
Es	-1.579991	-2.360842	-0.463062	99
39
Properties=species:S:1:pos:R:3:Z:I:1 energy=-342.60290498083003 field_type=dipole dipole="0.000000 0.000000 0.000000" charge=0
C	-1.052770	-1.865404	-0.530911	6
C	-0.573710	-1.218254	0.541919	6
C	0.515220	-0.175204	0.563279	6
O	1.009670	0.116716	-0.767091	8
C	0.830920	1.478805	-0.816141	6
C	0.277900	1.968786	0.273579	6
O	0.001940	1.011896	1.219599	8
H	-1.846130	-2.599204	-0.429811	1
H	-0.670990	-1.674374	-1.529601	1
H	-0.998350	-1.448434	1.516089	1
H	1.357870	-0.548584	1.159149	1
H	1.141570	1.973006	-1.717641	1
H	0.006860	2.980255	0.517579	1
Es	-0.855602	-1.358184	1.208583	99
Es	-0.573648	-1.218170	0.542001	99
Es	-1.579990	-2.360718	-0.463040	99
Es	1.036866	1.808451	-1.421839	99
Es	-0.581701	-1.772199	0.049056	99
Es	0.277809	1.968669	0.273858	99
Es	0.831004	1.478517	-0.816241	99
Es	0.002091	1.011912	1.219213	99
Es	0.916926	-0.065551	-1.020107	99
Es	0.199845	0.569889	0.940575	99
Es	-0.796746	-1.752806	-1.206553	99
Es	1.009452	0.116950	-0.766875	99
Es	-1.052797	-1.865451	-0.530968	99
Es	1.213596	0.156198	-0.704305	99
Es	0.101592	2.647950	0.441787	99
Es	-0.222136	1.011603	1.134340	99
Es	0.870832	1.812205	-0.151954	99
Es	0.095562	1.070691	1.524183	99
Es	1.084914	-0.432014	0.968163	99
Es	0.249618	1.718455	-0.424668	99
Es	0.934913	0.621096	-0.783725	99
Es	0.126478	1.357250	0.876815	99
Es	-1.027840	-1.300273	-0.035285	99
Es	0.804312	0.034179	-0.258094	99
Es	0.515149	-0.174930	0.563119	99
Es	-0.040089	-0.700740	0.533770	99
39
Properties=species:S:1:pos:R:3:Z:I:1 energy=-342.60290498083003 field_type=dipole dipole="0.000000 0.000000 0.000000" charge=0
C	-1.052770	-1.865404	-0.530911	6
C	-0.573710	-1.218254	0.541919	6
C	0.515220	-0.175204	0.563279	6
O	1.009670	0.116716	-0.767091	8
C	0.830920	1.478805	-0.816141	6
C	0.277900	1.968786	0.273579	6
O	0.001940	1.011896	1.219599	8
H	-1.846130	-2.599204	-0.429811	1
H	-0.670990	-1.674374	-1.529601	1
H	-0.998350	-1.448434	1.516089	1
H	1.357870	-0.548584	1.159149	1
H	1.141570	1.973006	-1.717641	1
H	0.006860	2.980255	0.517579	1
Es	0.249487	1.718416	-0.424704	99
Es	0.101360	2.647866	0.441750	99
Es	0.125936	1.356553	0.877132	99
Es	1.085039	-0.432204	0.968332	99
Es	1.036964	1.808433	-1.421802	99
Es	-0.224413	1.011460	1.135571	99
Es	-0.040180	-0.700729	0.533683	99
Es	-0.581537	-1.772388	0.049148	99
Es	-0.855436	-1.358227	1.208681	99
Es	1.009893	0.117108	-0.766621	99
Es	-0.796826	-1.752779	-1.206595	99
Es	0.277807	1.968669	0.273856	99
Es	0.831010	1.478517	-0.816240	99
Es	0.515149	-0.174932	0.563120	99
Es	0.802925	0.034480	-0.258537	99
Es	0.939144	0.622411	-0.782876	99
Es	0.870963	1.812268	-0.151912	99
Es	-1.052793	-1.865453	-0.530968	99
Es	-1.580080	-2.360461	-0.463152	99
Es	0.002242	1.011996	1.219207	99
Es	0.920575	-0.065953	-1.021213	99
Es	1.206747	0.154923	-0.703849	99
Es	0.098586	1.071042	1.523383	99
Es	-0.573649	-1.218170	0.542000	99
Es	0.199457	0.570265	0.939776	99
Es	-1.027963	-1.300133	-0.035363	99
39
Properties=species:S:1:pos:R:3:Z:I:1 energy=-342.60290498083003 field_type=dipole dipole="0.000000 0.000000 0.000000" charge=0
C	-1.052770	-1.865404	-0.530911	6
C	-0.573710	-1.218254	0.541919	6
C	0.515220	-0.175204	0.563279	6
O	1.009670	0.116716	-0.767091	8
C	0.830920	1.478805	-0.816141	6
C	0.277900	1.968786	0.273579	6
O	0.001940	1.011896	1.219599	8
H	-1.846130	-2.599204	-0.429811	1
H	-0.670990	-1.674374	-1.529601	1
H	-0.998350	-1.448434	1.516089	1
H	1.357870	-0.548584	1.159149	1
H	1.141570	1.973006	-1.717641	1
H	0.006860	2.980255	0.517579	1
Es	-1.052794	-1.865454	-0.530968	99
Es	0.916562	-0.064916	-1.020594	99
Es	0.831002	1.478521	-0.816247	99
Es	0.199862	0.570264	0.939960	99
Es	0.870792	1.812164	-0.151950	99
Es	-0.796689	-1.752801	-1.206491	99
Es	1.084944	-0.432011	0.968162	99
Es	0.515149	-0.174933	0.563120	99
Es	0.936448	0.621245	-0.782950	99
Es	1.213427	0.155025	-0.704051	99
Es	1.009226	0.117146	-0.766802	99
Es	0.277810	1.968669	0.273859	99
Es	-0.855493	-1.358064	1.208648	99
Es	0.092192	1.070130	1.525525	99
Es	0.101682	2.647988	0.441839	99
Es	-0.573646	-1.218174	0.542002	99
Es	0.249558	1.718438	-0.424694	99
Es	-0.581542	-1.772375	0.049125	99
Es	0.803447	0.034433	-0.258638	99
Es	-1.579973	-2.360666	-0.463167	99
Es	1.036882	1.808327	-1.421894	99
Es	0.127519	1.356630	0.878175	99
Es	-0.040259	-0.700851	0.533709	99
Es	-0.219890	1.012366	1.132279	99
Es	-1.028011	-1.300151	-0.035328	99
Es	0.002206	1.012029	1.219179	99
39
Properties=species:S:1:pos:R:3:Z:I:1 energy=-342.60290498083003 field_type=dipole dipole="0.000000 0.000000 0.000000" charge=0
C	-1.052770	-1.865404	-0.530911	6
C	-0.573710	-1.218254	0.541919	6
C	0.515220	-0.175204	0.563279	6
O	1.009670	0.116716	-0.767091	8
C	0.830920	1.478805	-0.816141	6
C	0.277900	1.968786	0.273579	6
O	0.001940	1.011896	1.219599	8
H	-1.846130	-2.599204	-0.429811	1
H	-0.670990	-1.674374	-1.529601	1
H	-0.998350	-1.448434	1.516089	1
H	1.357870	-0.548584	1.159149	1
H	1.141570	1.973006	-1.717641	1
H	0.006860	2.980255	0.517579	1
Es	-0.040370	-0.700650	0.533775	99
Es	0.002209	1.011903	1.219277	99
Es	-1.052792	-1.865455	-0.530968	99
Es	-1.028028	-1.300244	-0.035214	99
Es	0.870696	1.812091	-0.151968	99
Es	0.937034	0.620679	-0.783250	99
Es	0.802259	0.035216	-0.259204	99
Es	0.101788	2.648028	0.441934	99
Es	1.084723	-0.432100	0.968051	99
Es	-0.216964	1.011854	1.132436	99
Es	-0.855732	-1.358093	1.208564	99
Es	0.277811	1.968669	0.273861	99
Es	-0.573649	-1.218169	0.542000	99
Es	1.036651	1.808518	-1.421804	99
Es	-0.581477	-1.772220	0.048996	99
Es	-0.796762	-1.752935	-1.206614	99
Es	0.912644	-0.063481	-1.020184	99
Es	0.515148	-0.174931	0.563119	99
Es	0.090572	1.070951	1.526053	99
Es	0.126102	1.356659	0.877318	99
Es	0.200153	0.570117	0.940120	99
Es	1.217971	0.153444	-0.703763	99
Es	-1.579593	-2.360687	-0.463018	99
Es	0.830998	1.478515	-0.816244	99
Es	1.009379	0.116976	-0.766872	99
Es	0.249638	1.718325	-0.424591	99
39
Properties=species:S:1:pos:R:3:Z:I:1 energy=-342.60290498083003 field_type=dipole dipole="0.000000 0.000000 0.000000" charge=0
C	-1.052770	-1.865404	-0.530911	6
C	-0.573710	-1.218254	0.541919	6
C	0.515220	-0.175204	0.563279	6
O	1.009670	0.116716	-0.767091	8
C	0.830920	1.478805	-0.816141	6
C	0.277900	1.968786	0.273579	6
O	0.001940	1.011896	1.219599	8
H	-1.846130	-2.599204	-0.429811	1
H	-0.670990	-1.674374	-1.529601	1
H	-0.998350	-1.448434	1.516089	1
H	1.357870	-0.548584	1.159149	1
H	1.141570	1.973006	-1.717641	1
H	0.006860	2.980255	0.517579	1
Es	0.831003	1.478515	-0.816241	99
Es	0.091288	1.070515	1.525838	99
Es	-1.580007	-2.360543	-0.463115	99
Es	1.084835	-0.431976	0.968086	99
Es	-0.855770	-1.358062	1.208504	99
Es	-0.218868	1.012821	1.131739	99
Es	0.249578	1.718331	-0.424628	99
Es	0.002279	1.011902	1.219278	99
Es	1.212929	0.156089	-0.704725	99
Es	0.515149	-0.174932	0.563120	99
Es	0.870833	1.812168	-0.151933	99
Es	0.804918	0.034902	-0.257639	99
Es	-0.796686	-1.752925	-1.206524	99
Es	0.916511	-0.065438	-1.020479	99
Es	-0.040244	-0.700752	0.533754	99
Es	1.036951	1.808410	-1.421855	99
Es	0.935511	0.620422	-0.783366	99
Es	1.009330	0.117000	-0.766878	99
Es	-1.052792	-1.865455	-0.530968	99
Es	0.127296	1.355990	0.878693	99
Es	0.277809	1.968670	0.273858	99
Es	-1.027726	-1.300258	-0.035298	99
Es	0.101623	2.647927	0.441895	99
Es	-0.573647	-1.218172	0.542001	99
Es	-0.581564	-1.772427	0.049154	99
Es	0.199869	0.570258	0.939538	99
