39
Properties=species:S:1:pos:R:3:Z:I:1 energy=-342.5847721200278 field_type=dipole dipole="0.000000 0.000000 0.000000" charge=0
C	-2.968953	0.094558	-0.769478	6
C	-1.778793	0.094558	-0.769478	6
C	-0.334793	0.094558	-0.769478	6
O	0.182877	1.172578	0.021322	8
C	1.394287	0.639418	0.549042	6
C	1.045147	-0.802922	0.797492	6
O	0.190107	-1.152412	-0.290788	8
H	-4.034203	0.094018	-0.764008	1
H	0.036507	0.227368	-1.792598	1
H	2.175817	0.741518	-0.213668	1
H	1.697876	1.176388	1.451162	1
H	1.919647	-1.458502	0.826662	1
H	0.474477	-0.921122	1.723812	1
Es	-0.010969	-0.659845	-0.450869	99
Es	-2.969209	0.094562	-0.769492	99
Es	0.190183	-1.152098	-0.290667	99
Es	0.369600	-1.249985	-0.516456	99
Es	0.183052	1.172278	0.021288	99
Es	-2.368602	-0.136740	-1.047215	99
Es	-2.378245	-0.026502	-0.433720	99
Es	-1.086909	0.096289	-0.760186	99
Es	-0.334756	0.094525	-0.769206	99
Es	0.246286	1.395267	-0.173705	99
Es	-0.005819	1.197361	0.260724	99
Es	1.598606	1.000808	1.162340	99
Es	0.508091	-0.998920	0.116090	99
Es	0.661200	-0.875800	1.438206	99
Es	-2.364325	0.447386	-0.836982	99
Es	-3.663296	0.094361	-0.767163	99
Es	-0.041057	-1.308872	-0.179052	99
Es	-1.778522	0.094557	-0.769491	99
Es	1.045023	-0.802960	0.797297	99
Es	1.642994	-1.245977	0.815497	99
Es	1.935171	0.699415	0.025502	99
Es	0.641890	0.958861	0.207073	99
Es	1.244905	-0.084995	0.689630	99
Es	-0.007761	0.744203	-0.275379	99
Es	1.394082	0.639492	0.548962	99
Es	-0.095419	0.184140	-1.468856	99
39
Properties=species:S:1:pos:R:3:Z:I:1 energy=-342.5847721200278 field_type=dipole dipole="0.000000 0.000000 0.000000" charge=0
C	-2.968953	0.094558	-0.769478	6
C	-1.778793	0.094558	-0.769478	6
C	-0.334793	0.094558	-0.769478	6
O	0.182877	1.172578	0.021322	8
C	1.394287	0.639418	0.549042	6
C	1.045147	-0.802922	0.797492	6
O	0.190107	-1.152412	-0.290788	8
H	-4.034203	0.094018	-0.764008	1
H	0.036507	0.227368	-1.792598	1
H	2.175817	0.741518	-0.213668	1
H	1.697876	1.176388	1.451162	1
H	1.919647	-1.458502	0.826662	1
H	0.474477	-0.921122	1.723812	1
Es	0.650949	0.963377	0.204534	99
Es	0.190183	-1.152108	-0.290670	99
Es	-2.366748	-0.158951	-1.020557	99
Es	-2.379131	0.008294	-0.426660	99
Es	-0.094672	0.183905	-1.466544	99
Es	-0.039541	-1.319182	-0.178872	99
Es	-1.087536	0.096353	-0.759980	99
Es	1.936182	0.699067	0.025420	99
Es	0.241158	1.380211	-0.170576	99
Es	-0.015770	-0.661337	-0.447737	99
Es	1.598321	0.999473	1.162317	99
Es	0.661319	-0.874340	1.437465	99
Es	1.394095	0.639484	0.548969	99
Es	-2.365156	0.434764	-0.869871	99
Es	-0.005999	1.206965	0.258659	99
Es	-2.969222	0.094556	-0.769488	99
Es	1.243342	-0.085168	0.690198	99
Es	-0.334756	0.094523	-0.769205	99
Es	-3.664945	0.094514	-0.769372	99
Es	0.360973	-1.238019	-0.514081	99
Es	-1.778518	0.094559	-0.769489	99
Es	-0.011808	0.744664	-0.274649	99
Es	0.183041	1.172276	0.021284	99
Es	0.519964	-0.998022	0.109822	99
Es	1.045024	-0.802961	0.797295	99
Es	1.645446	-1.246088	0.815957	99
39
Properties=species:S:1:pos:R:3:Z:I:1 energy=-342.5847721200278 field_type=dipole dipole="0.000000 0.000000 0.000000" charge=0
C	-2.968953	0.094558	-0.769478	6
C	-1.778793	0.094558	-0.769478	6
C	-0.334793	0.094558	-0.769478	6
O	0.182877	1.172578	0.021322	8
C	1.394287	0.639418	0.549042	6
C	1.045147	-0.802922	0.797492	6
O	0.190107	-1.152412	-0.290788	8
H	-4.034203	0.094018	-0.764008	1
H	0.036507	0.227368	-1.792598	1
H	2.175817	0.741518	-0.213668	1
H	1.697876	1.176388	1.451162	1
H	1.919647	-1.458502	0.826662	1
H	0.474477	-0.921122	1.723812	1
Es	-0.015315	0.745178	-0.274521	99
Es	-3.665583	0.094534	-0.770338	99
Es	-2.379350	0.042745	-0.421694	99
Es	-0.039243	-1.325833	-0.180919	99
Es	-0.006437	1.216751	0.256991	99
Es	-2.365186	-0.180039	-0.990634	99
Es	-0.094430	0.183751	-1.464877	99
Es	-2.366479	0.421359	-0.904417	99
Es	-2.969223	0.094554	-0.769484	99
Es	-0.017459	-0.662369	-0.445514	99
Es	0.527906	-0.998665	0.105618	99
Es	-0.334758	0.094523	-0.769203	99
Es	1.045023	-0.802959	0.797294	99
Es	1.597718	0.998341	1.161988	99
Es	0.656261	0.967169	0.201352	99
Es	0.354378	-1.229087	-0.510399	99
Es	0.183177	1.172258	0.021111	99
Es	0.661502	-0.873338	1.437116	99
Es	1.242097	-0.085603	0.690745	99
Es	0.239383	1.365605	-0.166175	99
Es	1.937268	0.699028	0.025396	99
Es	-1.088018	0.096535	-0.760220	99
Es	1.647263	-1.245629	0.816097	99
Es	1.394083	0.639492	0.548963	99
Es	-1.778507	0.094561	-0.769488	99
Es	0.190125	-1.152052	-0.290615	99
39
Properties=species:S:1:pos:R:3:Z:I:1 energy=-342.5847721200278 field_type=dipole dipole="0.000000 0.000000 0.000000" charge=0
C	-2.968953	0.094558	-0.769478	6
C	-1.778793	0.094558	-0.769478	6
C	-0.334793	0.094558	-0.769478	6
O	0.182877	1.172578	0.021322	8
C	1.394287	0.639418	0.549042	6
C	1.045147	-0.802922	0.797492	6
O	0.190107	-1.152412	-0.290788	8
H	-4.034203	0.094018	-0.764008	1
H	0.036507	0.227368	-1.792598	1
H	2.175817	0.741518	-0.213668	1
H	1.697876	1.176388	1.451162	1
H	1.919647	-1.458502	0.826662	1
H	0.474477	-0.921122	1.723812	1
Es	1.045026	-0.802957	0.797303	99
Es	0.190169	-1.152045	-0.290649	99
Es	0.345728	-1.224934	-0.505208	99
Es	-0.018356	0.744860	-0.272762	99
Es	-0.019750	-0.662634	-0.445254	99
Es	1.394082	0.639492	0.548961	99
Es	-2.969227	0.094555	-0.769505	99
Es	0.536921	-0.999674	0.098627	99
Es	0.659191	0.969850	0.199114	99
Es	0.239586	1.353278	-0.164054	99
Es	-3.665889	0.094565	-0.770927	99
Es	-2.366485	-0.157612	-1.012922	99
Es	-2.365399	0.429178	-0.875573	99
Es	-0.094396	0.183672	-1.463651	99
Es	-0.037424	-1.328115	-0.179578	99
Es	1.938246	0.699090	0.025401	99
Es	1.240859	-0.086201	0.691082	99
Es	-0.334755	0.094523	-0.769204	99
Es	-2.379127	0.012572	-0.427857	99
Es	1.597085	0.997280	1.161807	99
Es	0.183027	1.172174	0.021310	99
Es	-1.778507	0.094555	-0.769485	99
Es	-0.006568	1.226326	0.254894	99
Es	-1.088318	0.096536	-0.760639	99
Es	0.661629	-0.872621	1.436888	99
Es	1.648849	-1.244902	0.816052	99
39
Properties=species:S:1:pos:R:3:Z:I:1 energy=-342.5847721200278 field_type=dipole dipole="0.000000 0.000000 0.000000" charge=0
C	-2.968953	0.094558	-0.769478	6
C	-1.778793	0.094558	-0.769478	6
C	-0.334793	0.094558	-0.769478	6
O	0.182877	1.172578	0.021322	8
C	1.394287	0.639418	0.549042	6
C	1.045147	-0.802922	0.797492	6
O	0.190107	-1.152412	-0.290788	8
H	-4.034203	0.094018	-0.764008	1
H	0.036507	0.227368	-1.792598	1
H	2.175817	0.741518	-0.213668	1
H	1.697876	1.176388	1.451162	1
H	1.919647	-1.458502	0.826662	1
H	0.474477	-0.921122	1.723812	1
Es	-0.334759	0.094521	-0.769208	99
Es	-2.365028	-0.177114	-0.985086	99
Es	-0.094480	0.183520	-1.462728	99
Es	-1.088515	0.096623	-0.760936	99
Es	-2.379205	0.044266	-0.421753	99
Es	-0.019996	0.745196	-0.272520	99
Es	1.045024	-0.802960	0.797295	99
Es	-0.007890	1.235929	0.252425	99
Es	-2.969228	0.094558	-0.769490	99
Es	-1.778508	0.094556	-0.769493	99
Es	0.182965	1.172177	0.021354	99
Es	1.939149	0.699304	0.025493	99
Es	1.650053	-1.244080	0.815997	99
Es	0.545515	-1.001508	0.091004	99
Es	0.661730	-0.872140	1.436764	99
Es	0.337340	-1.221070	-0.498537	99
Es	1.596398	0.996386	1.161570	99
Es	1.239967	-0.086645	0.691352	99
Es	-0.019285	-0.662949	-0.445617	99
Es	-0.038097	-1.329361	-0.178529	99
Es	0.240871	1.341201	-0.160941	99
Es	1.394087	0.639489	0.548959	99
Es	0.190100	-1.152054	-0.290600	99
Es	0.660827	0.971500	0.197997	99
Es	-2.366771	0.417006	-0.909383	99
Es	-3.666067	0.094462	-0.771219	99
39
Properties=species:S:1:pos:R:3:Z:I:1 energy=-342.5847721200278 field_type=dipole dipole="0.000000 0.000000 0.000000" charge=0
C	-2.968953	0.094558	-0.769478	6
C	-1.778793	0.094558	-0.769478	6
C	-0.334793	0.094558	-0.769478	6
O	0.182877	1.172578	0.021322	8
C	1.394287	0.639418	0.549042	6
C	1.045147	-0.802922	0.797492	6
O	0.190107	-1.152412	-0.290788	8
H	-4.034203	0.094018	-0.764008	1
H	0.036507	0.227368	-1.792598	1
H	2.175817	0.741518	-0.213668	1
H	1.697876	1.176388	1.451162	1
H	1.919647	-1.458502	0.826662	1
H	0.474477	-0.921122	1.723812	1
Es	-2.367193	-0.143870	-1.021023	99
Es	-2.378798	-0.002688	-0.431873	99
Es	-1.088635	0.096498	-0.761039	99
Es	0.190153	-1.152099	-0.290641	99
Es	1.651366	-1.243014	0.815773	99
Es	-3.666182	0.094752	-0.771393	99
Es	-2.969229	0.094554	-0.769489	99
Es	0.238979	1.337766	-0.156935	99
Es	1.595812	0.995479	1.161355	99
Es	1.045025	-0.802960	0.797296	99
Es	1.238814	-0.087533	0.691605	99
Es	-0.005607	1.236095	0.252259	99
Es	-0.022512	0.745826	-0.273224	99
Es	-2.365016	0.430612	-0.863203	99
Es	-0.037022	-1.330211	-0.178164	99
Es	0.662793	0.973734	0.194744	99
Es	-1.778506	0.094552	-0.769486	99
Es	-0.020560	-0.663129	-0.444986	99
Es	0.183020	1.172225	0.021298	99
Es	1.394082	0.639493	0.548959	99
Es	0.331546	-1.217637	-0.493413	99
Es	0.551485	-1.003408	0.084775	99
Es	-0.334758	0.094523	-0.769207	99
Es	1.939975	0.699373	0.025590	99
Es	0.661774	-0.871638	1.436750	99
Es	-0.094611	0.183516	-1.462155	99
39
Properties=species:S:1:pos:R:3:Z:I:1 energy=-342.5847721200278 field_type=dipole dipole="0.000000 0.000000 0.000000" charge=0
C	-2.968953	0.094558	-0.769478	6
C	-1.778793	0.094558	-0.769478	6
C	-0.334793	0.094558	-0.769478	6
O	0.182877	1.172578	0.021322	8
C	1.394287	0.639418	0.549042	6
C	1.045147	-0.802922	0.797492	6
O	0.190107	-1.152412	-0.290788	8
H	-4.034203	0.094018	-0.764008	1
H	0.036507	0.227368	-1.792598	1
H	2.175817	0.741518	-0.213668	1
H	1.697876	1.176388	1.451162	1
H	1.919647	-1.458502	0.826662	1
H	0.474477	-0.921122	1.723812	1
Es	-0.094499	0.183485	-1.461773	99
Es	-0.023991	0.744873	-0.270719	99
Es	-0.334757	0.094529	-0.769208	99
Es	1.652115	-1.242228	0.815625	99
Es	-3.666226	0.094477	-0.771581	99
Es	0.663780	0.975489	0.194177	99
Es	-2.365659	0.423839	-0.881072	99
Es	-2.378937	0.015008	-0.426240	99
Es	0.239920	1.328539	-0.156006	99
Es	-0.024488	-0.663606	-0.443891	99
Es	0.326867	-1.211502	-0.486354	99
Es	1.595230	0.994805	1.161040	99
Es	0.190123	-1.152197	-0.290738	99
Es	0.556617	-1.005012	0.078678	99
Es	-2.366438	-0.154753	-1.008676	99
Es	0.182980	1.172343	0.021299	99
Es	-1.088723	0.096762	-0.761236	99
Es	-0.033654	-1.333821	-0.180221	99
Es	1.940696	0.699578	0.025752	99
Es	-2.969229	0.094556	-0.769494	99
Es	-1.778504	0.094555	-0.769475	99
Es	1.394079	0.639494	0.548960	99
Es	1.238252	-0.087981	0.691819	99
Es	-0.006151	1.243880	0.249401	99
Es	1.045024	-0.802960	0.797295	99
Es	0.661769	-0.871339	1.436809	99
39
Properties=species:S:1:pos:R:3:Z:I:1 energy=-342.5847721200278 field_type=dipole dipole="0.000000 0.000000 0.000000" charge=0
C	-2.968953	0.094558	-0.769478	6
C	-1.778793	0.094558	-0.769478	6
C	-0.334793	0.094558	-0.769478	6
O	0.182877	1.172578	0.021322	8
C	1.394287	0.639418	0.549042	6
C	1.045147	-0.802922	0.797492	6
O	0.190107	-1.152412	-0.290788	8
H	-4.034203	0.094018	-0.764008	1
H	0.036507	0.227368	-1.792598	1
H	2.175817	0.741518	-0.213668	1
H	1.697876	1.176388	1.451162	1
H	1.919647	-1.458502	0.826662	1
H	0.474477	-0.921122	1.723812	1
Es	-2.378977	0.029769	-0.422694	99
Es	-1.778503	0.094557	-0.769470	99
Es	-2.969229	0.094545	-0.769496	99
Es	-0.023863	-0.663663	-0.444501	99
Es	1.594769	0.994225	1.160747	99
Es	-2.365673	-0.163709	-0.994472	99
Es	1.045024	-0.802960	0.797295	99
Es	1.237627	-0.088689	0.692017	99
Es	1.652876	-1.241501	0.815565	99
Es	-0.334755	0.094519	-0.769205	99
Es	0.559028	-1.005837	0.075498	99
Es	-0.026750	0.745467	-0.270854	99
Es	1.394082	0.639492	0.548959	99
Es	0.661887	-0.870947	1.436674	99
Es	0.665292	0.977579	0.191394	99
Es	-0.034226	-1.334231	-0.180132	99
Es	-3.666277	0.094400	-0.771727	99
Es	-0.004393	1.247708	0.247843	99
Es	0.324280	-1.210052	-0.482748	99
Es	0.182978	1.172259	0.021318	99
Es	-0.094609	0.183413	-1.461336	99
Es	-1.088797	0.096676	-0.761323	99
Es	0.190149	-1.152075	-0.290644	99
Es	-2.366383	0.418244	-0.898778	99
Es	0.239384	1.321855	-0.151719	99
Es	1.941253	0.699765	0.025960	99
39
Properties=species:S:1:pos:R:3:Z:I:1 energy=-342.5847721200278 field_type=dipole dipole="0.000000 0.000000 0.000000" charge=0
C	-2.968953	0.094558	-0.769478	6
C	-1.778793	0.094558	-0.769478	6
C	-0.334793	0.094558	-0.769478	6
O	0.182877	1.172578	0.021322	8
C	1.394287	0.639418	0.549042	6
C	1.045147	-0.802922	0.797492	6
O	0.190107	-1.152412	-0.290788	8
H	-4.034203	0.094018	-0.764008	1
H	0.036507	0.227368	-1.792598	1
H	2.175817	0.741518	-0.213668	1
H	1.697876	1.176388	1.451162	1
H	1.919647	-1.458502	0.826662	1
H	0.474477	-0.921122	1.723812	1
Es	-0.027835	0.745616	-0.270829	99
Es	-0.334758	0.094524	-0.769205	99
Es	0.240092	1.318024	-0.150408	99
Es	-1.088836	0.096784	-0.761520	99
Es	1.236952	-0.089278	0.692114	99
Es	-1.778503	0.094564	-0.769476	99
Es	1.941702	0.699840	0.026091	99
Es	-0.024646	-0.663868	-0.443687	99
Es	-0.004236	1.250998	0.246447	99
Es	1.594432	0.993648	1.160620	99
Es	1.653661	-1.240577	0.815375	99
Es	-2.364227	0.431621	-0.839201	99
Es	-3.666321	0.094733	-0.771699	99
Es	-0.033598	-1.334555	-0.180322	99
Es	0.665343	0.977517	0.191416	99
Es	-0.094598	0.183454	-1.461124	99
Es	0.182968	1.172308	0.021302	99
Es	-2.368596	-0.120656	-1.038488	99
Es	-2.969230	0.094559	-0.769493	99
Es	0.321055	-1.207287	-0.478607	99
Es	0.190161	-1.152304	-0.290861	99
Es	0.562437	-1.007576	0.070935	99
Es	1.045023	-0.802960	0.797293	99
Es	0.661886	-0.870749	1.436670	99
Es	-2.378214	-0.027061	-0.438131	99
Es	1.394081	0.639493	0.548960	99
39
Properties=species:S:1:pos:R:3:Z:I:1 energy=-342.5847721200278 field_type=dipole dipole="0.000000 0.000000 0.000000" charge=0
C	-2.968953	0.094558	-0.769478	6
C	-1.778793	0.094558	-0.769478	6
C	-0.334793	0.094558	-0.769478	6
O	0.182877	1.172578	0.021322	8
C	1.394287	0.639418	0.549042	6
C	1.045147	-0.802922	0.797492	6
O	0.190107	-1.152412	-0.290788	8
H	-4.034203	0.094018	-0.764008	1
H	0.036507	0.227368	-1.792598	1
H	2.175817	0.741518	-0.213668	1
H	1.697876	1.176388	1.451162	1
H	1.919647	-1.458502	0.826662	1
H	0.474477	-0.921122	1.723812	1
Es	-1.088878	0.096869	-0.761506	99
Es	0.240302	1.311559	-0.147297	99
Es	-0.094672	0.183370	-1.460831	99
Es	0.662015	-0.870417	1.436678	99
Es	-0.025303	-0.664164	-0.442791	99
Es	1.654039	-1.240040	0.815309	99
Es	-2.378772	0.015999	-0.423958	99
Es	-3.666332	0.094398	-0.771915	99
Es	1.045025	-0.802959	0.797297	99
Es	-2.365973	0.420326	-0.888206	99
Es	-0.004074	1.255369	0.244335	99
Es	-1.778502	0.094559	-0.769480	99
Es	-0.334758	0.094523	-0.769201	99
Es	0.318537	-1.204252	-0.474716	99
Es	1.942036	0.700094	0.026256	99
Es	0.666117	0.979058	0.190524	99
Es	1.236708	-0.089914	0.692213	99
Es	-0.033208	-1.335956	-0.181327	99
Es	0.565027	-1.008928	0.066919	99
Es	-0.028907	0.745955	-0.270886	99
Es	0.190129	-1.152147	-0.290682	99
Es	1.394081	0.639492	0.548964	99
Es	0.182957	1.172358	0.021255	99
Es	1.594129	0.993305	1.160330	99
Es	-2.366297	-0.152208	-1.003620	99
Es	-2.969230	0.094563	-0.769490	99
39
Properties=species:S:1:pos:R:3:Z:I:1 energy=-342.5847721200278 field_type=dipole dipole="0.000000 0.000000 0.000000" charge=0
C	-2.968953	0.094558	-0.769478	6
C	-1.778793	0.094558	-0.769478	6
C	-0.334793	0.094558	-0.769478	6
O	0.182877	1.172578	0.021322	8
C	1.394287	0.639418	0.549042	6
C	1.045147	-0.802922	0.797492	6
O	0.190107	-1.152412	-0.290788	8
H	-4.034203	0.094018	-0.764008	1
H	0.036507	0.227368	-1.792598	1
H	2.175817	0.741518	-0.213668	1
H	1.697876	1.176388	1.451162	1
H	1.919647	-1.458502	0.826662	1
H	0.474477	-0.921122	1.723812	1
Es	0.661828	-0.870491	1.437002	99
Es	1.593517	0.992694	1.159895	99
Es	-0.094643	0.183385	-1.460936	99
Es	1.045026	-0.802961	0.797312	99
Es	-0.035078	-1.336107	-0.180159	99
Es	0.666675	0.979515	0.188453	99
Es	-2.376893	0.209649	-1.104915	99
Es	1.394082	0.639493	0.548964	99
Es	-2.364089	-0.235823	-0.697093	99
Es	0.183010	1.172233	0.021306	99
Es	0.239009	1.313708	-0.146273	99
Es	1.942701	0.700525	0.026595	99
Es	1.236401	-0.090230	0.692336	99
Es	-1.778502	0.094562	-0.769483	99
Es	-0.030181	0.746399	-0.271234	99
Es	-2.370024	0.310257	-0.514483	99
Es	-1.088866	0.097078	-0.761540	99
Es	-3.666421	0.094191	-0.770931	99
Es	-0.023695	-0.664451	-0.441945	99
Es	0.566104	-1.008545	0.064969	99
Es	1.654400	-1.239439	0.814949	99
Es	-0.002168	1.252139	0.245637	99
Es	0.190116	-1.152117	-0.290659	99
Es	-0.334759	0.094523	-0.769206	99
Es	0.317877	-1.203933	-0.474894	99
Es	-2.969230	0.094557	-0.769496	99
39
Properties=species:S:1:pos:R:3:Z:I:1 energy=-342.5847721200278 field_type=dipole dipole="0.000000 0.000000 0.000000" charge=0
C	-2.968953	0.094558	-0.769478	6
C	-1.778793	0.094558	-0.769478	6
C	-0.334793	0.094558	-0.769478	6
O	0.182877	1.172578	0.021322	8
C	1.394287	0.639418	0.549042	6
C	1.045147	-0.802922	0.797492	6
O	0.190107	-1.152412	-0.290788	8
H	-4.034203	0.094018	-0.764008	1
H	0.036507	0.227368	-1.792598	1
H	2.175817	0.741518	-0.213668	1
H	1.697876	1.176388	1.451162	1
H	1.919647	-1.458502	0.826662	1
H	0.474477	-0.921122	1.723812	1
Es	-2.969230	0.094555	-0.769493	99
Es	1.593542	0.992574	1.160048	99
Es	-1.088926	0.096887	-0.761696	99
Es	-1.778503	0.094561	-0.769492	99
Es	-0.031809	-1.336730	-0.181451	99
Es	1.655118	-1.238580	0.815013	99
Es	-2.378854	0.054852	-0.417691	99
Es	0.667209	0.980902	0.187939	99
Es	-0.334756	0.094520	-0.769205	99
Es	-2.364431	-0.175898	-0.969707	99
Es	0.239350	1.307507	-0.144014	99
Es	-0.026891	-0.664506	-0.442191	99
Es	-2.367756	0.405205	-0.928352	99
Es	1.942751	0.700202	0.026563	99
Es	1.045026	-0.802960	0.797298	99
Es	1.394080	0.639495	0.548961	99
Es	0.190142	-1.152197	-0.290694	99
Es	1.235772	-0.090830	0.692432	99
Es	0.183084	1.172194	0.021238	99
Es	-3.666374	0.094345	-0.771949	99
Es	-0.094769	0.183285	-1.460423	99
Es	0.000532	1.256757	0.241818	99
Es	0.662125	-0.870059	1.436601	99
Es	0.315750	-1.201620	-0.470290	99
Es	0.567849	-1.010118	0.062062	99
Es	-0.033834	0.746466	-0.269155	99
39
Properties=species:S:1:pos:R:3:Z:I:1 energy=-342.5847721200278 field_type=dipole dipole="0.000000 0.000000 0.000000" charge=0
C	-2.968953	0.094558	-0.769478	6
C	-1.778793	0.094558	-0.769478	6
C	-0.334793	0.094558	-0.769478	6
O	0.182877	1.172578	0.021322	8
C	1.394287	0.639418	0.549042	6
C	1.045147	-0.802922	0.797492	6
O	0.190107	-1.152412	-0.290788	8
H	-4.034203	0.094018	-0.764008	1
H	0.036507	0.227368	-1.792598	1
H	2.175817	0.741518	-0.213668	1
H	1.697876	1.176388	1.451162	1
H	1.919647	-1.458502	0.826662	1
H	0.474477	-0.921122	1.723812	1
Es	-3.666388	0.094520	-0.771974	99
Es	1.593288	0.992161	1.159894	99
Es	0.667492	0.981072	0.187241	99
Es	-0.029899	-0.665100	-0.442540	99
Es	-2.365223	0.423067	-0.869439	99
Es	0.662057	-0.870000	1.436653	99
Es	-2.969231	0.094561	-0.769494	99
Es	0.239077	1.307583	-0.144022	99
Es	1.943065	0.700292	0.026717	99
Es	-0.034419	0.746529	-0.268489	99
Es	-2.367327	-0.137866	-1.018438	99
Es	-1.778502	0.094556	-0.769480	99
Es	0.190122	-1.152157	-0.290676	99
Es	1.235377	-0.091327	0.692554	99
Es	1.655539	-1.237957	0.814871	99
Es	1.394080	0.639494	0.548964	99
Es	-0.334760	0.094523	-0.769207	99
Es	-1.088948	0.096882	-0.761887	99
Es	0.569634	-1.010283	0.058992	99
Es	0.001137	1.256200	0.241773	99
Es	0.182983	1.172181	0.021352	99
Es	1.045024	-0.802959	0.797295	99
Es	-2.378503	-0.001192	-0.427714	99
Es	-0.094740	0.183360	-1.460284	99
Es	-0.028780	-1.336740	-0.181498	99
Es	0.314042	-1.200592	-0.466992	99
39
Properties=species:S:1:pos:R:3:Z:I:1 energy=-342.5847721200278 field_type=dipole dipole="0.000000 0.000000 0.000000" charge=0
C	-2.968953	0.094558	-0.769478	6
C	-1.778793	0.094558	-0.769478	6
C	-0.334793	0.094558	-0.769478	6
O	0.182877	1.172578	0.021322	8
C	1.394287	0.639418	0.549042	6
C	1.045147	-0.802922	0.797492	6
O	0.190107	-1.152412	-0.290788	8
H	-4.034203	0.094018	-0.764008	1
H	0.036507	0.227368	-1.792598	1
H	2.175817	0.741518	-0.213668	1
H	1.697876	1.176388	1.451162	1
H	1.919647	-1.458502	0.826662	1
H	0.474477	-0.921122	1.723812	1
Es	0.239598	1.304815	-0.143120	99
Es	-0.030311	-0.665232	-0.441444	99
Es	1.655936	-1.237283	0.814729	99
Es	-2.969231	0.094557	-0.769496	99
Es	-2.365694	0.419595	-0.881582	99
Es	-0.028563	-1.337506	-0.182226	99
Es	0.662037	-0.869831	1.436717	99
Es	0.312925	-1.198507	-0.465027	99
Es	1.235056	-0.092011	0.692520	99
Es	-1.088960	0.096900	-0.761808	99
Es	1.943278	0.700467	0.026857	99
Es	-0.036498	0.747079	-0.267537	99
Es	-1.778502	0.094569	-0.769477	99
Es	-3.666396	0.094417	-0.772017	99
Es	0.182976	1.172410	0.021301	99
Es	0.002688	1.258284	0.240174	99
Es	1.394084	0.639490	0.548960	99
Es	0.667512	0.980841	0.186982	99
Es	1.045028	-0.802959	0.797306	99
Es	0.570952	-1.011239	0.056688	99
Es	-2.378614	0.010332	-0.424517	99
Es	1.593080	0.991860	1.159863	99
Es	-0.334759	0.094524	-0.769205	99
Es	-0.094819	0.183338	-1.460212	99
Es	-2.366741	-0.145852	-1.009513	99
Es	0.190133	-1.152248	-0.290746	99
39
Properties=species:S:1:pos:R:3:Z:I:1 energy=-342.5847721200278 field_type=dipole dipole="0.000000 0.000000 0.000000" charge=0
C	-2.968953	0.094558	-0.769478	6
C	-1.778793	0.094558	-0.769478	6
C	-0.334793	0.094558	-0.769478	6
O	0.182877	1.172578	0.021322	8
C	1.394287	0.639418	0.549042	6
C	1.045147	-0.802922	0.797492	6
O	0.190107	-1.152412	-0.290788	8
H	-4.034203	0.094018	-0.764008	1
H	0.036507	0.227368	-1.792598	1
H	2.175817	0.741518	-0.213668	1
H	1.697876	1.176388	1.451162	1
H	1.919647	-1.458502	0.826662	1
H	0.474477	-0.921122	1.723812	1
Es	0.183017	1.172235	0.021300	99
Es	1.655782	-1.237655	0.814784	99
Es	-2.375190	0.015847	-1.111550	99
Es	1.235197	-0.091904	0.692711	99
Es	0.239527	1.301793	-0.141688	99
Es	0.572287	-1.012271	0.054012	99
Es	-0.028704	-0.664875	-0.441612	99
Es	-0.029977	-1.335851	-0.179993	99
Es	1.943507	0.700673	0.026984	99
Es	1.394081	0.639493	0.548964	99
Es	-2.373464	-0.144580	-0.514604	99
Es	-1.778502	0.094557	-0.769481	99
Es	-0.334757	0.094524	-0.769204	99
Es	0.662028	-0.869747	1.436692	99
Es	-1.088958	0.096833	-0.762061	99
Es	0.000749	1.261019	0.240788	99
Es	0.667926	0.981783	0.185739	99
Es	-0.094810	0.183426	-1.460119	99
Es	-2.362378	0.412478	-0.689861	99
Es	-0.035066	0.746642	-0.268276	99
Es	1.592886	0.991730	1.159327	99
Es	-3.666449	0.094878	-0.771334	99
Es	0.311529	-1.199674	-0.464483	99
Es	-2.969230	0.094557	-0.769489	99
Es	1.045025	-0.802958	0.797298	99
Es	0.190140	-1.152143	-0.290670	99
39
Properties=species:S:1:pos:R:3:Z:I:1 energy=-342.5847721200278 field_type=dipole dipole="0.000000 0.000000 0.000000" charge=0
C	-2.968953	0.094558	-0.769478	6
C	-1.778793	0.094558	-0.769478	6
C	-0.334793	0.094558	-0.769478	6
O	0.182877	1.172578	0.021322	8
C	1.394287	0.639418	0.549042	6
C	1.045147	-0.802922	0.797492	6
O	0.190107	-1.152412	-0.290788	8
H	-4.034203	0.094018	-0.764008	1
H	0.036507	0.227368	-1.792598	1
H	2.175817	0.741518	-0.213668	1
H	1.697876	1.176388	1.451162	1
H	1.919647	-1.458502	0.826662	1
H	0.474477	-0.921122	1.723812	1
Es	-0.037091	0.747924	-0.269403	99
Es	0.573773	-1.013062	0.051159	99
Es	-2.364719	-0.171457	-0.974757	99
Es	0.190137	-1.152100	-0.290647	99
Es	0.662148	-0.869566	1.436619	99
Es	-1.088994	0.097009	-0.761838	99
Es	-2.969231	0.094557	-0.769494	99
Es	-0.028398	-1.338453	-0.182723	99
Es	-1.778501	0.094558	-0.769478	99
Es	-0.334762	0.094526	-0.769212	99
Es	-0.094859	0.183262	-1.459972	99
Es	-2.367571	0.404440	-0.923994	99
Es	1.394080	0.639494	0.548961	99
Es	1.656315	-1.236667	0.814675	99
Es	0.003313	1.258463	0.239620	99
Es	0.668094	0.982349	0.185788	99
Es	0.183088	1.172219	0.021205	99
Es	-2.378752	0.051181	-0.416903	99
Es	0.309992	-1.195672	-0.459039	99
Es	0.238873	1.302191	-0.139412	99
Es	1.045026	-0.802959	0.797299	99
Es	-3.666413	0.094217	-0.772074	99
Es	-0.030542	-0.665350	-0.441496	99
Es	1.943607	0.700689	0.027082	99
Es	1.234800	-0.092446	0.692513	99
Es	1.592783	0.991464	1.159693	99
39
Properties=species:S:1:pos:R:3:Z:I:1 energy=-342.5847721200278 field_type=dipole dipole="0.000000 0.000000 0.000000" charge=0
C	-2.968953	0.094558	-0.769478	6
C	-1.778793	0.094558	-0.769478	6
C	-0.334793	0.094558	-0.769478	6
O	0.182877	1.172578	0.021322	8
C	1.394287	0.639418	0.549042	6
C	1.045147	-0.802922	0.797492	6
O	0.190107	-1.152412	-0.290788	8
H	-4.034203	0.094018	-0.764008	1
H	0.036507	0.227368	-1.792598	1
H	2.175817	0.741518	-0.213668	1
H	1.697876	1.176388	1.451162	1
H	1.919647	-1.458502	0.826662	1
H	0.474477	-0.921122	1.723812	1
Es	1.656474	-1.236356	0.814564	99
Es	1.234662	-0.092531	0.692492	99
Es	-2.378731	0.048467	-0.417034	99
Es	0.190130	-1.152220	-0.290737	99
Es	-0.037919	0.747741	-0.268092	99
Es	0.239293	1.297984	-0.138446	99
Es	-0.334760	0.094525	-0.769207	99
Es	-3.666420	0.094155	-0.772060	99
Es	1.394078	0.639495	0.548961	99
Es	0.310221	-1.193550	-0.458645	99
Es	-1.778502	0.094555	-0.769485	99
Es	1.592795	0.991394	1.159766	99
Es	0.183054	1.173019	0.020746	99
Es	1.943638	0.700493	0.027029	99
Es	-0.094843	0.183217	-1.459894	99
Es	0.668324	0.983026	0.185437	99
Es	1.045024	-0.802959	0.797295	99
Es	0.003599	1.261206	0.238182	99
Es	-2.969231	0.094556	-0.769495	99
Es	0.573808	-1.012607	0.051011	99
Es	-1.089011	0.097087	-0.761901	99
Es	-2.364655	-0.169561	-0.973257	99
Es	-0.032761	-0.666039	-0.440062	99
Es	-0.026564	-1.340035	-0.184335	99
Es	0.662148	-0.869477	1.436707	99
Es	-2.367656	0.405228	-0.925372	99
39
Properties=species:S:1:pos:R:3:Z:I:1 energy=-342.5847721200278 field_type=dipole dipole="0.000000 0.000000 0.000000" charge=0
C	-2.968953	0.094558	-0.769478	6
C	-1.778793	0.094558	-0.769478	6
C	-0.334793	0.094558	-0.769478	6
O	0.182877	1.172578	0.021322	8
C	1.394287	0.639418	0.549042	6
C	1.045147	-0.802922	0.797492	6
O	0.190107	-1.152412	-0.290788	8
H	-4.034203	0.094018	-0.764008	1
H	0.036507	0.227368	-1.792598	1
H	2.175817	0.741518	-0.213668	1
H	1.697876	1.176388	1.451162	1
H	1.919647	-1.458502	0.826662	1
H	0.474477	-0.921122	1.723812	1
Es	1.234338	-0.093334	0.692595	99
Es	-2.366450	0.413949	-0.899023	99
Es	0.006495	1.260511	0.236750	99
Es	-3.666425	0.094316	-0.772042	99
Es	0.190132	-1.152357	-0.290757	99
Es	-2.969232	0.094556	-0.769493	99
Es	-0.040933	0.748239	-0.266593	99
Es	0.239268	1.299197	-0.138832	99
Es	0.662060	-0.869323	1.436863	99
Es	0.574476	-1.013071	0.049811	99
Es	-2.378696	0.026519	-0.420951	99
Es	1.045024	-0.802959	0.797294	99
Es	-1.088995	0.097035	-0.761982	99
Es	1.394079	0.639495	0.548961	99
Es	0.309434	-1.194804	-0.457769	99
Es	-0.334761	0.094524	-0.769209	99
Es	1.592532	0.991054	1.159491	99
Es	-0.033627	-0.665980	-0.440978	99
Es	1.656877	-1.235634	0.814350	99
Es	-1.778502	0.094557	-0.769482	99
Es	-0.025469	-1.338081	-0.183052	99
Es	1.943921	0.700737	0.027244	99
Es	0.183006	1.172201	0.021317	99
Es	-0.094764	0.183309	-1.460016	99
Es	-2.365909	-0.156423	-0.995542	99
Es	0.668315	0.982577	0.185218	99
