44
Properties=species:S:1:pos:R:3:Z:I:1 energy=-307.9346754946985 field_type=dipole dipole="0.000000 0.000000 0.000000" charge=0
C	-2.735362	-0.689490	0.892947	6
C	-1.274683	-0.824330	0.603177	6
C	-0.675422	-0.301610	-0.476713	6
C	0.787158	-0.455340	-0.795973	6
C	1.530888	0.843790	-0.852893	6
C	2.432627	1.287810	0.268697	6
O	2.957447	0.698580	-0.930163	8
H	-3.194502	-1.680590	0.958227	1
H	-3.260072	-0.122050	0.117917	1
H	-2.881212	-0.178250	1.849027	1
H	-0.692632	-1.392820	1.326177	1
H	-1.266103	0.257210	-1.200843	1
H	0.867497	-0.942580	-1.774873	1
H	1.263978	-1.132610	-0.076543	1
H	1.074048	1.585010	-1.495313	1
H	2.475648	0.697520	1.175507	1
H	2.590698	2.349750	0.411637	1
Es	3.079614	0.920127	-1.107814	99
Es	-1.274760	-0.824365	0.603277	99
Es	0.059106	-0.364782	-0.630181	99
Es	-0.881884	-1.212475	1.099325	99
Es	-3.086423	-0.302850	0.363457	99
Es	2.957235	0.698699	-0.930035	99
Es	2.860010	0.932711	-0.432021	99
Es	-0.675333	-0.301563	-0.476814	99
Es	0.836233	-0.774106	-1.460141	99
Es	2.469352	0.883304	0.884950	99
Es	-2.825967	-0.345347	1.539768	99
Es	2.550226	2.010161	0.365774	99
Es	-1.072554	0.084298	-0.974007	99
Es	-0.909688	-0.280568	0.229219	99
Es	1.147609	0.197693	-0.812174	99
Es	-2.005853	-0.754037	0.744569	99
Es	3.022852	0.403171	-0.871594	99
Es	-1.028970	-0.835354	-0.110155	99
Es	1.109622	-0.907650	-0.300074	99
Es	2.432717	1.287683	0.268430	99
Es	2.412356	0.716272	-1.003629	99
Es	0.787115	-0.455295	-0.795973	99
Es	1.531194	0.843745	-0.852886	99
Es	-2.735321	-0.689496	0.892942	99
Es	-3.037953	-1.361380	0.937300	99
Es	1.222527	1.351395	-1.295410	99
Es	1.785580	1.137456	-0.156801	99
44
Properties=species:S:1:pos:R:3:Z:I:1 energy=-307.9346754946985 field_type=dipole dipole="0.000000 0.000000 0.000000" charge=0
C	-2.735362	-0.689490	0.892947	6
C	-1.274683	-0.824330	0.603177	6
C	-0.675422	-0.301610	-0.476713	6
C	0.787158	-0.455340	-0.795973	6
C	1.530888	0.843790	-0.852893	6
C	2.432627	1.287810	0.268697	6
O	2.957447	0.698580	-0.930163	8
H	-3.194502	-1.680590	0.958227	1
H	-3.260072	-0.122050	0.117917	1
H	-2.881212	-0.178250	1.849027	1
H	-0.692632	-1.392820	1.326177	1
H	-1.266103	0.257210	-1.200843	1
H	0.867497	-0.942580	-1.774873	1
H	1.263978	-1.132610	-0.076543	1
H	1.074048	1.585010	-1.495313	1
H	2.475648	0.697520	1.175507	1
H	2.590698	2.349750	0.411637	1
Es	-1.072969	0.081780	-0.974902	99
Es	0.058928	-0.365025	-0.630318	99
Es	2.412871	0.712753	-1.004660	99
Es	-0.675334	-0.301567	-0.476817	99
Es	2.550421	2.008808	0.365354	99
Es	2.957079	0.698494	-0.929835	99
Es	-0.881502	-1.210092	1.100328	99
Es	-3.036933	-1.359722	0.936602	99
Es	-0.910678	-0.279865	0.229255	99
Es	3.090451	0.916367	-1.114851	99
Es	1.109600	-0.906445	-0.300032	99
Es	1.222728	1.350312	-1.295759	99
Es	-1.274766	-0.824382	0.603272	99
Es	0.787119	-0.455294	-0.795971	99
Es	1.147386	0.197050	-0.811910	99
Es	0.837021	-0.774574	-1.461405	99
Es	2.860513	0.928872	-0.427519	99
Es	1.785052	1.139520	-0.155783	99
Es	1.531198	0.843749	-0.852885	99
Es	-2.735323	-0.689498	0.892946	99
Es	2.469079	0.883248	0.885938	99
Es	3.011183	0.414399	-0.869191	99
Es	2.432725	1.287683	0.268425	99
Es	-2.005545	-0.754128	0.744648	99
Es	-2.826838	-0.345375	1.541351	99
Es	-1.028042	-0.835804	-0.110185	99
Es	-3.086778	-0.303816	0.363207	99
44
Properties=species:S:1:pos:R:3:Z:I:1 energy=-307.9346754946985 field_type=dipole dipole="0.000000 0.000000 0.000000" charge=0
C	-2.735362	-0.689490	0.892947	6
C	-1.274683	-0.824330	0.603177	6
C	-0.675422	-0.301610	-0.476713	6
C	0.787158	-0.455340	-0.795973	6
C	1.530888	0.843790	-0.852893	6
C	2.432627	1.287810	0.268697	6
O	2.957447	0.698580	-0.930163	8
H	-3.194502	-1.680590	0.958227	1
H	-3.260072	-0.122050	0.117917	1
H	-2.881212	-0.178250	1.849027	1
H	-0.692632	-1.392820	1.326177	1
H	-1.266103	0.257210	-1.200843	1
H	0.867497	-0.942580	-1.774873	1
H	1.263978	-1.132610	-0.076543	1
H	1.074048	1.585010	-1.495313	1
H	2.475648	0.697520	1.175507	1
H	2.590698	2.349750	0.411637	1
Es	1.147098	0.196681	-0.811718	99
Es	2.468828	0.883210	0.886650	99
Es	-2.827322	-0.345524	1.542007	99
Es	1.109716	-0.905869	-0.300013	99
Es	-1.073417	0.080437	-0.975451	99
Es	3.000580	0.424694	-0.865831	99
Es	2.861014	0.926528	-0.424895	99
Es	2.957192	0.698673	-0.929995	99
Es	-2.005400	-0.754215	0.744806	99
Es	-3.036320	-1.358829	0.936373	99
Es	-2.735323	-0.689498	0.892945	99
Es	0.787115	-0.455296	-0.795972	99
Es	-1.274762	-0.824371	0.603276	99
Es	2.432721	1.287682	0.268429	99
Es	0.837355	-0.774668	-1.462115	99
Es	-0.675334	-0.301566	-0.476816	99
Es	2.413234	0.710503	-1.005016	99
Es	-0.911311	-0.279780	0.229092	99
Es	-1.027293	-0.835855	-0.109996	99
Es	1.222895	1.349687	-1.296013	99
Es	-3.087030	-0.304265	0.362950	99
Es	2.550514	2.007760	0.365032	99
Es	1.531198	0.843746	-0.852886	99
Es	3.100032	0.910518	-1.120777	99
Es	1.784920	1.140931	-0.155382	99
Es	0.058954	-0.365040	-0.630195	99
Es	-0.881209	-1.208829	1.100813	99
44
Properties=species:S:1:pos:R:3:Z:I:1 energy=-307.9346754946985 field_type=dipole dipole="0.000000 0.000000 0.000000" charge=0
C	-2.735362	-0.689490	0.892947	6
C	-1.274683	-0.824330	0.603177	6
C	-0.675422	-0.301610	-0.476713	6
C	0.787158	-0.455340	-0.795973	6
C	1.530888	0.843790	-0.852893	6
C	2.432627	1.287810	0.268697	6
O	2.957447	0.698580	-0.930163	8
H	-3.194502	-1.680590	0.958227	1
H	-3.260072	-0.122050	0.117917	1
H	-2.881212	-0.178250	1.849027	1
H	-0.692632	-1.392820	1.326177	1
H	-1.266103	0.257210	-1.200843	1
H	0.867497	-0.942580	-1.774873	1
H	1.263978	-1.132610	-0.076543	1
H	1.074048	1.585010	-1.495313	1
H	2.475648	0.697520	1.175507	1
H	2.590698	2.349750	0.411637	1
Es	-0.881017	-1.208006	1.101091	99
Es	-3.035811	-1.358174	0.935988	99
Es	-2.827777	-0.345857	1.542576	99
Es	-2.735321	-0.689497	0.892944	99
Es	2.550462	2.006995	0.364680	99
Es	2.862250	0.922977	-0.422457	99
Es	1.222993	1.349372	-1.296152	99
Es	-1.274764	-0.824373	0.603275	99
Es	1.109815	-0.905640	-0.299941	99
Es	0.058975	-0.364868	-0.630111	99
Es	2.995250	0.433872	-0.865847	99
Es	-3.087201	-0.304477	0.362870	99
Es	2.957284	0.698640	-0.930063	99
Es	2.468550	0.883216	0.887297	99
Es	1.531195	0.843749	-0.852883	99
Es	2.432726	1.287682	0.268434	99
Es	0.837507	-0.774607	-1.462557	99
Es	-2.005277	-0.754278	0.744890	99
Es	-0.675331	-0.301564	-0.476818	99
Es	1.784997	1.141793	-0.155118	99
Es	0.787115	-0.455296	-0.795971	99
Es	1.146941	0.196394	-0.811674	99
Es	-1.026917	-0.836049	-0.109959	99
Es	2.413281	0.707253	-1.004223	99
Es	-1.073513	0.079617	-0.975711	99
Es	-0.911778	-0.279588	0.229002	99
Es	3.104011	0.908163	-1.124261	99
44
Properties=species:S:1:pos:R:3:Z:I:1 energy=-307.9346754946985 field_type=dipole dipole="0.000000 0.000000 0.000000" charge=0
C	-2.735362	-0.689490	0.892947	6
C	-1.274683	-0.824330	0.603177	6
C	-0.675422	-0.301610	-0.476713	6
C	0.787158	-0.455340	-0.795973	6
C	1.530888	0.843790	-0.852893	6
C	2.432627	1.287810	0.268697	6
O	2.957447	0.698580	-0.930163	8
H	-3.194502	-1.680590	0.958227	1
H	-3.260072	-0.122050	0.117917	1
H	-2.881212	-0.178250	1.849027	1
H	-0.692632	-1.392820	1.326177	1
H	-1.266103	0.257210	-1.200843	1
H	0.867497	-0.942580	-1.774873	1
H	1.263978	-1.132610	-0.076543	1
H	1.074048	1.585010	-1.495313	1
H	2.475648	0.697520	1.175507	1
H	2.590698	2.349750	0.411637	1
Es	-1.274763	-0.824368	0.603277	99
Es	2.861783	0.920978	-0.420882	99
Es	-3.035350	-1.357844	0.935789	99
Es	1.223038	1.349100	-1.296284	99
Es	2.432720	1.287680	0.268430	99
Es	1.785054	1.142430	-0.154998	99
Es	2.550403	2.006441	0.364464	99
Es	-2.735323	-0.689496	0.892946	99
Es	-0.912051	-0.279477	0.228935	99
Es	0.058986	-0.364758	-0.630060	99
Es	1.109944	-0.905379	-0.299849	99
Es	1.146684	0.196194	-0.811516	99
Es	-0.675335	-0.301573	-0.476822	99
Es	1.531192	0.843746	-0.852875	99
Es	-1.073694	0.079081	-0.975883	99
Es	2.468431	0.883224	0.887698	99
Es	-2.828083	-0.346008	1.542947	99
Es	0.837716	-0.774568	-1.462897	99
Es	2.414081	0.705039	-1.004464	99
Es	3.109375	0.904171	-1.127250	99
Es	-0.880922	-1.207608	1.101285	99
Es	0.787116	-0.455297	-0.795971	99
Es	2.957235	0.698687	-0.930032	99
Es	-3.087328	-0.304715	0.362735	99
Es	-1.026626	-0.836076	-0.109881	99
Es	2.989598	0.442056	-0.864458	99
Es	-2.005237	-0.754216	0.744915	99
44
Properties=species:S:1:pos:R:3:Z:I:1 energy=-307.9346754946985 field_type=dipole dipole="0.000000 0.000000 0.000000" charge=0
C	-2.735362	-0.689490	0.892947	6
C	-1.274683	-0.824330	0.603177	6
C	-0.675422	-0.301610	-0.476713	6
C	0.787158	-0.455340	-0.795973	6
C	1.530888	0.843790	-0.852893	6
C	2.432627	1.287810	0.268697	6
O	2.957447	0.698580	-0.930163	8
H	-3.194502	-1.680590	0.958227	1
H	-3.260072	-0.122050	0.117917	1
H	-2.881212	-0.178250	1.849027	1
H	-0.692632	-1.392820	1.326177	1
H	-1.266103	0.257210	-1.200843	1
H	0.867497	-0.942580	-1.774873	1
H	1.263978	-1.132610	-0.076543	1
H	1.074048	1.585010	-1.495313	1
H	2.475648	0.697520	1.175507	1
H	2.590698	2.349750	0.411637	1
Es	1.531199	0.843748	-0.852880	99
Es	-3.035117	-1.357447	0.935731	99
Es	-1.274760	-0.824362	0.603280	99
Es	-0.880891	-1.207414	1.101344	99
Es	1.109920	-0.905420	-0.299878	99
Es	-2.828107	-0.346154	1.543228	99
Es	1.785095	1.143019	-0.154819	99
Es	-3.087486	-0.304773	0.362623	99
Es	2.985229	0.449205	-0.864359	99
Es	2.468285	0.883234	0.887996	99
Es	0.787115	-0.455297	-0.795971	99
Es	2.432720	1.287682	0.268431	99
Es	0.059068	-0.364657	-0.630042	99
Es	1.223115	1.348896	-1.296372	99
Es	3.112981	0.900643	-1.128995	99
Es	2.862342	0.918633	-0.419353	99
Es	2.414348	0.703847	-1.004672	99
Es	1.146640	0.196071	-0.811350	99
Es	-0.675333	-0.301569	-0.476820	99
Es	2.550437	2.006000	0.364297	99
Es	-1.026516	-0.836194	-0.109865	99
Es	-1.073763	0.078924	-0.975913	99
Es	-2.005254	-0.754474	0.744851	99
Es	-2.735322	-0.689497	0.892945	99
Es	-0.912104	-0.279386	0.228942	99
Es	0.837693	-0.774429	-1.463169	99
Es	2.957109	0.698618	-0.929909	99
44
Properties=species:S:1:pos:R:3:Z:I:1 energy=-307.9346754946985 field_type=dipole dipole="0.000000 0.000000 0.000000" charge=0
C	-2.735362	-0.689490	0.892947	6
C	-1.274683	-0.824330	0.603177	6
C	-0.675422	-0.301610	-0.476713	6
C	0.787158	-0.455340	-0.795973	6
C	1.530888	0.843790	-0.852893	6
C	2.432627	1.287810	0.268697	6
O	2.957447	0.698580	-0.930163	8
H	-3.194502	-1.680590	0.958227	1
H	-3.260072	-0.122050	0.117917	1
H	-2.881212	-0.178250	1.849027	1
H	-0.692632	-1.392820	1.326177	1
H	-1.266103	0.257210	-1.200843	1
H	0.867497	-0.942580	-1.774873	1
H	1.263978	-1.132610	-0.076543	1
H	1.074048	1.585010	-1.495313	1
H	2.475648	0.697520	1.175507	1
H	2.590698	2.349750	0.411637	1
Es	-2.828168	-0.346251	1.543434	99
Es	0.837943	-0.774345	-1.463303	99
Es	1.223197	1.348679	-1.296531	99
Es	-2.735321	-0.689497	0.892945	99
Es	1.531196	0.843749	-0.852881	99
Es	1.146495	0.196023	-0.811177	99
Es	2.957138	0.698799	-0.929995	99
Es	-1.026315	-0.836251	-0.109845	99
Es	2.982176	0.454085	-0.864329	99
Es	-1.274764	-0.824370	0.603274	99
Es	-0.912372	-0.279329	0.228877	99
Es	-3.035069	-1.357319	0.935544	99
Es	0.787116	-0.455297	-0.795970	99
Es	3.115045	0.898874	-1.131069	99
Es	-1.073817	0.078645	-0.976061	99
Es	-3.087383	-0.304719	0.362590	99
Es	2.862952	0.916535	-0.418415	99
Es	-0.880763	-1.207041	1.101425	99
Es	-2.005343	-0.754666	0.744948	99
Es	2.414694	0.702784	-1.003454	99
Es	-0.675334	-0.301570	-0.476820	99
Es	1.109910	-0.905314	-0.299814	99
Es	2.468161	0.883186	0.888269	99
Es	2.550372	2.005637	0.364170	99
Es	0.059019	-0.364715	-0.630084	99
Es	1.785154	1.143455	-0.154855	99
Es	2.432726	1.287679	0.268431	99
44
Properties=species:S:1:pos:R:3:Z:I:1 energy=-307.9346754946985 field_type=dipole dipole="0.000000 0.000000 0.000000" charge=0
C	-2.735362	-0.689490	0.892947	6
C	-1.274683	-0.824330	0.603177	6
C	-0.675422	-0.301610	-0.476713	6
C	0.787158	-0.455340	-0.795973	6
C	1.530888	0.843790	-0.852893	6
C	2.432627	1.287810	0.268697	6
O	2.957447	0.698580	-0.930163	8
H	-3.194502	-1.680590	0.958227	1
H	-3.260072	-0.122050	0.117917	1
H	-2.881212	-0.178250	1.849027	1
H	-0.692632	-1.392820	1.326177	1
H	-1.266103	0.257210	-1.200843	1
H	0.867497	-0.942580	-1.774873	1
H	1.263978	-1.132610	-0.076543	1
H	1.074048	1.585010	-1.495313	1
H	2.475648	0.697520	1.175507	1
H	2.590698	2.349750	0.411637	1
Es	-1.073875	0.078498	-0.976057	99
Es	2.957133	0.698685	-0.929944	99
Es	2.979490	0.459268	-0.864024	99
Es	1.146419	0.195981	-0.811152	99
Es	2.432722	1.287681	0.268430	99
Es	1.531195	0.843749	-0.852881	99
Es	-3.087542	-0.304846	0.362511	99
Es	3.116779	0.896316	-1.133011	99
Es	2.467999	0.883177	0.888507	99
Es	0.059136	-0.364488	-0.630130	99
Es	-0.880766	-1.206951	1.101495	99
Es	-3.034793	-1.357125	0.935507	99
Es	-2.005263	-0.754636	0.744921	99
Es	-0.912418	-0.279229	0.228889	99
Es	-2.735320	-0.689498	0.892945	99
Es	-0.675334	-0.301575	-0.476823	99
Es	0.787115	-0.455297	-0.795972	99
Es	-1.026231	-0.836383	-0.109850	99
Es	-1.274761	-0.824371	0.603277	99
Es	-2.828310	-0.346381	1.543571	99
Es	2.415006	0.701366	-1.002714	99
Es	0.837840	-0.774389	-1.463392	99
Es	2.550372	2.005278	0.364044	99
Es	1.223199	1.348652	-1.296577	99
Es	2.863538	0.915411	-0.417764	99
Es	1.785389	1.143845	-0.154816	99
Es	1.109925	-0.905294	-0.299687	99
44
Properties=species:S:1:pos:R:3:Z:I:1 energy=-307.9346754946985 field_type=dipole dipole="0.000000 0.000000 0.000000" charge=0
C	-2.735362	-0.689490	0.892947	6
C	-1.274683	-0.824330	0.603177	6
C	-0.675422	-0.301610	-0.476713	6
C	0.787158	-0.455340	-0.795973	6
C	1.530888	0.843790	-0.852893	6
C	2.432627	1.287810	0.268697	6
O	2.957447	0.698580	-0.930163	8
H	-3.194502	-1.680590	0.958227	1
H	-3.260072	-0.122050	0.117917	1
H	-2.881212	-0.178250	1.849027	1
H	-0.692632	-1.392820	1.326177	1
H	-1.266103	0.257210	-1.200843	1
H	0.867497	-0.942580	-1.774873	1
H	1.263978	-1.132610	-0.076543	1
H	1.074048	1.585010	-1.495313	1
H	2.475648	0.697520	1.175507	1
H	2.590698	2.349750	0.411637	1
Es	2.415528	0.700868	-1.003281	99
Es	0.787116	-0.455297	-0.795970	99
Es	-0.912465	-0.279140	0.228901	99
Es	2.863481	0.912469	-0.416432	99
Es	2.957195	0.698753	-0.930016	99
Es	0.059062	-0.364527	-0.630157	99
Es	-1.274764	-0.824370	0.603278	99
Es	-1.026255	-0.836482	-0.109903	99
Es	2.550346	2.005120	0.363999	99
Es	3.118489	0.895516	-1.133146	99
Es	0.837988	-0.774327	-1.463439	99
Es	-0.675333	-0.301570	-0.476820	99
Es	-2.828284	-0.346387	1.543675	99
Es	1.531198	0.843748	-0.852883	99
Es	1.109958	-0.905209	-0.299698	99
Es	1.223227	1.348539	-1.296647	99
Es	1.146352	0.195945	-0.811081	99
Es	2.432724	1.287680	0.268432	99
Es	-0.880768	-1.206881	1.101495	99
Es	-3.087512	-0.304846	0.362496	99
Es	2.977237	0.463412	-0.864682	99
Es	-2.735322	-0.689497	0.892945	99
Es	-3.034782	-1.357039	0.935463	99
Es	-2.005290	-0.754757	0.744920	99
Es	-1.073842	0.078439	-0.976034	99
Es	1.785616	1.144162	-0.154758	99
Es	2.467742	0.883123	0.888645	99
44
Properties=species:S:1:pos:R:3:Z:I:1 energy=-307.9346754946985 field_type=dipole dipole="0.000000 0.000000 0.000000" charge=0
C	-2.735362	-0.689490	0.892947	6
C	-1.274683	-0.824330	0.603177	6
C	-0.675422	-0.301610	-0.476713	6
C	0.787158	-0.455340	-0.795973	6
C	1.530888	0.843790	-0.852893	6
C	2.432627	1.287810	0.268697	6
O	2.957447	0.698580	-0.930163	8
H	-3.194502	-1.680590	0.958227	1
H	-3.260072	-0.122050	0.117917	1
H	-2.881212	-0.178250	1.849027	1
H	-0.692632	-1.392820	1.326177	1
H	-1.266103	0.257210	-1.200843	1
H	0.867497	-0.942580	-1.774873	1
H	1.263978	-1.132610	-0.076543	1
H	1.074048	1.585010	-1.495313	1
H	2.475648	0.697520	1.175507	1
H	2.590698	2.349750	0.411637	1
Es	-0.675334	-0.301570	-0.476820	99
Es	-2.005296	-0.754846	0.744951	99
Es	2.550314	2.004792	0.363841	99
Es	1.531200	0.843746	-0.852885	99
Es	0.838015	-0.774263	-1.463626	99
Es	-1.274763	-0.824371	0.603276	99
Es	-3.034567	-1.356847	0.935362	99
Es	0.059099	-0.364475	-0.630046	99
Es	1.223268	1.348493	-1.296656	99
Es	-3.087575	-0.304869	0.362382	99
Es	1.146216	0.195822	-0.810986	99
Es	-1.026171	-0.836474	-0.109875	99
Es	-0.912528	-0.279027	0.228911	99
Es	2.467780	0.883188	0.888861	99
Es	-0.880764	-1.206826	1.101534	99
Es	0.787116	-0.455298	-0.795970	99
Es	-2.735322	-0.689497	0.892945	99
Es	2.432720	1.287681	0.268431	99
Es	1.109998	-0.905147	-0.299725	99
Es	2.976566	0.466826	-0.864585	99
Es	3.119074	0.895481	-1.133578	99
Es	-1.073893	0.078290	-0.976102	99
Es	2.415903	0.698746	-1.003348	99
Es	-2.828385	-0.346528	1.543859	99
Es	2.957333	0.698535	-0.930062	99
Es	2.863000	0.911504	-0.416102	99
Es	1.785641	1.144379	-0.154686	99
44
Properties=species:S:1:pos:R:3:Z:I:1 energy=-307.9346754946985 field_type=dipole dipole="0.000000 0.000000 0.000000" charge=0
C	-2.735362	-0.689490	0.892947	6
C	-1.274683	-0.824330	0.603177	6
C	-0.675422	-0.301610	-0.476713	6
C	0.787158	-0.455340	-0.795973	6
C	1.530888	0.843790	-0.852893	6
C	2.432627	1.287810	0.268697	6
O	2.957447	0.698580	-0.930163	8
H	-3.194502	-1.680590	0.958227	1
H	-3.260072	-0.122050	0.117917	1
H	-2.881212	-0.178250	1.849027	1
H	-0.692632	-1.392820	1.326177	1
H	-1.266103	0.257210	-1.200843	1
H	0.867497	-0.942580	-1.774873	1
H	1.263978	-1.132610	-0.076543	1
H	1.074048	1.585010	-1.495313	1
H	2.475648	0.697520	1.175507	1
H	2.590698	2.349750	0.411637	1
Es	-0.880749	-1.206741	1.101504	99
Es	1.531202	0.843748	-0.852888	99
Es	-2.735321	-0.689497	0.892944	99
Es	0.787116	-0.455297	-0.795971	99
Es	-1.274765	-0.824371	0.603276	99
Es	2.432722	1.287686	0.268430	99
Es	-3.034421	-1.356760	0.935219	99
Es	-2.005112	-0.754700	0.745062	99
Es	0.838065	-0.774135	-1.463744	99
Es	1.223284	1.348356	-1.296720	99
Es	-3.087595	-0.304980	0.362454	99
Es	1.110064	-0.905164	-0.299696	99
Es	1.785804	1.144692	-0.154762	99
Es	2.467536	0.883160	0.889009	99
Es	-1.026209	-0.836618	-0.109933	99
Es	-2.828643	-0.346637	1.543935	99
Es	2.957202	0.698740	-0.930031	99
Es	2.864565	0.909703	-0.415568	99
Es	2.415832	0.697378	-1.002018	99
Es	-1.073879	0.078274	-0.976124	99
Es	2.550230	2.004621	0.363777	99
Es	1.146129	0.195620	-0.810831	99
Es	3.118464	0.895522	-1.134789	99
Es	2.975946	0.469767	-0.865315	99
Es	-0.675333	-0.301570	-0.476820	99
Es	0.059011	-0.364389	-0.630037	99
Es	-0.912498	-0.278959	0.228938	99
44
Properties=species:S:1:pos:R:3:Z:I:1 energy=-307.9346754946985 field_type=dipole dipole="0.000000 0.000000 0.000000" charge=0
C	-2.735362	-0.689490	0.892947	6
C	-1.274683	-0.824330	0.603177	6
C	-0.675422	-0.301610	-0.476713	6
C	0.787158	-0.455340	-0.795973	6
C	1.530888	0.843790	-0.852893	6
C	2.432627	1.287810	0.268697	6
O	2.957447	0.698580	-0.930163	8
H	-3.194502	-1.680590	0.958227	1
H	-3.260072	-0.122050	0.117917	1
H	-2.881212	-0.178250	1.849027	1
H	-0.692632	-1.392820	1.326177	1
H	-1.266103	0.257210	-1.200843	1
H	0.867497	-0.942580	-1.774873	1
H	1.263978	-1.132610	-0.076543	1
H	1.074048	1.585010	-1.495313	1
H	2.475648	0.697520	1.175507	1
H	2.590698	2.349750	0.411637	1
Es	1.531197	0.843747	-0.852883	99
Es	2.550173	2.004518	0.363701	99
Es	-1.274766	-0.824373	0.603275	99
Es	2.957388	0.697819	-0.929881	99
Es	3.119885	0.894628	-1.134889	99
Es	-3.087664	-0.304905	0.362377	99
Es	-0.880728	-1.206675	1.101449	99
Es	2.432715	1.287683	0.268435	99
Es	0.838039	-0.774143	-1.463761	99
Es	0.059099	-0.364359	-0.630107	99
Es	0.787115	-0.455297	-0.795971	99
Es	-0.675337	-0.301576	-0.476824	99
Es	-0.912525	-0.278957	0.228957	99
Es	1.146138	0.195750	-0.810765	99
Es	2.974207	0.473642	-0.865572	99
Es	1.223283	1.348315	-1.296777	99
Es	-2.735322	-0.689497	0.892945	99
Es	-2.005291	-0.754825	0.745080	99
Es	2.467571	0.883163	0.889117	99
Es	-1.026140	-0.836658	-0.109939	99
Es	-3.034298	-1.356673	0.935171	99
Es	-1.073910	0.078231	-0.976026	99
Es	1.110046	-0.905167	-0.299712	99
Es	-2.828573	-0.346762	1.544075	99
Es	1.785926	1.144773	-0.154671	99
Es	2.416510	0.696906	-1.002595	99
Es	2.863906	0.908138	-0.414909	99
44
Properties=species:S:1:pos:R:3:Z:I:1 energy=-307.9346754946985 field_type=dipole dipole="0.000000 0.000000 0.000000" charge=0
C	-2.735362	-0.689490	0.892947	6
C	-1.274683	-0.824330	0.603177	6
C	-0.675422	-0.301610	-0.476713	6
C	0.787158	-0.455340	-0.795973	6
C	1.530888	0.843790	-0.852893	6
C	2.432627	1.287810	0.268697	6
O	2.957447	0.698580	-0.930163	8
H	-3.194502	-1.680590	0.958227	1
H	-3.260072	-0.122050	0.117917	1
H	-2.881212	-0.178250	1.849027	1
H	-0.692632	-1.392820	1.326177	1
H	-1.266103	0.257210	-1.200843	1
H	0.867497	-0.942580	-1.774873	1
H	1.263978	-1.132610	-0.076543	1
H	1.074048	1.585010	-1.495313	1
H	2.475648	0.697520	1.175507	1
H	2.590698	2.349750	0.411637	1
Es	2.550213	2.004245	0.363619	99
Es	-1.073876	0.078162	-0.976073	99
Es	0.059150	-0.364225	-0.630290	99
Es	-2.735321	-0.689497	0.892944	99
Es	-0.675333	-0.301569	-0.476820	99
Es	2.467524	0.883200	0.889248	99
Es	-0.880804	-1.206704	1.101465	99
Es	2.863538	0.907131	-0.414565	99
Es	2.416820	0.696289	-1.002600	99
Es	0.787114	-0.455298	-0.795971	99
Es	1.785949	1.144999	-0.154675	99
Es	1.145952	0.195563	-0.810683	99
Es	0.838203	-0.774028	-1.463906	99
Es	-3.087627	-0.304941	0.362367	99
Es	2.432721	1.287682	0.268431	99
Es	2.957159	0.698749	-0.929990	99
Es	1.531197	0.843748	-0.852881	99
Es	-2.828499	-0.346639	1.544005	99
Es	2.973105	0.475366	-0.865328	99
Es	-2.005300	-0.754865	0.745015	99
Es	3.121214	0.893620	-1.135356	99
Es	-3.034393	-1.356700	0.935276	99
Es	-1.026119	-0.836695	-0.109924	99
Es	1.223390	1.348300	-1.296771	99
Es	-0.912501	-0.278853	0.228984	99
Es	1.109933	-0.905226	-0.299495	99
Es	-1.274764	-0.824369	0.603277	99
