44
Properties=species:S:1:pos:R:3:Z:I:1 energy=-307.9274154536326 field_type=dipole dipole="0.000000 0.000000 0.000000" charge=0
C	-1.205303	-2.301432	0.445162	6
C	-0.743013	-1.546952	-0.791818	6
C	-0.503033	-0.096002	-0.491708	6
C	0.686477	0.511908	-0.626038	6
C	0.963017	1.924857	-0.352848	6
C	1.203377	2.351947	1.073722	6
O	2.252117	2.369937	0.099592	8
H	-1.388293	-3.352273	0.199992	1
H	-2.134953	-1.880602	0.842142	1
H	-0.448823	-2.264682	1.235942	1
H	-1.509543	-1.622272	-1.572088	1
H	0.162557	-2.022563	-1.186908	1
H	-1.361283	0.480808	-0.155118	1
H	1.540487	-0.069662	-0.970018	1
H	0.423737	2.612957	-0.996478	1
H	1.259327	1.599468	1.850252	1
H	0.803147	3.304557	1.396212	1
Es	-1.205300	-2.301416	0.445134	99
Es	-0.743023	-1.546914	-0.791774	99
Es	-1.840051	-2.008950	0.713210	99
Es	0.963302	1.924913	-0.352726	99
Es	-0.616877	-0.812393	-0.640140	99
Es	0.851265	2.091642	0.411313	99
Es	2.430149	2.123838	0.145164	99
Es	0.171850	0.137159	-0.244342	99
Es	0.940727	3.005545	1.297479	99
Es	-1.266675	-1.590599	-1.318987	99
Es	-0.688079	-2.273501	0.981549	99
Es	0.841515	1.217881	-0.494510	99
Es	1.247705	1.841384	1.601987	99
Es	1.266263	0.122942	-0.857159	99
Es	1.923178	2.402605	0.547303	99
Es	1.203590	2.351948	1.073494	99
Es	-1.329894	-3.017064	0.274614	99
Es	-0.973846	-1.912018	-0.169944	99
Es	0.026684	0.296315	-0.871197	99
Es	0.602867	2.390123	-0.794867	99
Es	-0.121096	-1.866257	-1.058218	99
Es	1.804091	2.176586	-0.176946	99
Es	0.686573	0.511984	-0.626034	99
Es	2.297989	2.659667	0.001597	99
Es	-0.503121	-0.096043	-0.491710	99
Es	2.251753	2.369951	0.099637	99
Es	-1.092902	0.291228	-0.260565	99
44
Properties=species:S:1:pos:R:3:Z:I:1 energy=-307.9274154536326 field_type=dipole dipole="0.000000 0.000000 0.000000" charge=0
C	-1.205303	-2.301432	0.445162	6
C	-0.743013	-1.546952	-0.791818	6
C	-0.503033	-0.096002	-0.491708	6
C	0.686477	0.511908	-0.626038	6
C	0.963017	1.924857	-0.352848	6
C	1.203377	2.351947	1.073722	6
O	2.252117	2.369937	0.099592	8
H	-1.388293	-3.352273	0.199992	1
H	-2.134953	-1.880602	0.842142	1
H	-0.448823	-2.264682	1.235942	1
H	-1.509543	-1.622272	-1.572088	1
H	0.162557	-2.022563	-1.186908	1
H	-1.361283	0.480808	-0.155118	1
H	1.540487	-0.069662	-0.970018	1
H	0.423737	2.612957	-0.996478	1
H	1.259327	1.599468	1.850252	1
H	0.803147	3.304557	1.396212	1
Es	2.307587	2.658372	0.002028	99
Es	-0.743022	-1.546915	-0.791775	99
Es	-1.205300	-2.301415	0.445134	99
Es	2.419406	2.127015	0.146507	99
Es	-0.617576	-0.812243	-0.641174	99
Es	-0.687111	-2.273730	0.982457	99
Es	0.025594	0.297959	-0.872718	99
Es	1.927477	2.403035	0.549812	99
Es	0.686576	0.511989	-0.626038	99
Es	2.251899	2.369890	0.099638	99
Es	1.265927	0.123636	-0.857212	99
Es	0.846318	2.091228	0.410689	99
Es	0.941961	3.004003	1.298060	99
Es	-0.503122	-0.096043	-0.491712	99
Es	-0.973592	-1.911839	-0.170189	99
Es	1.248024	1.843345	1.601009	99
Es	-1.329860	-3.015877	0.274321	99
Es	0.963294	1.924910	-0.352733	99
Es	0.604222	2.388588	-0.794020	99
Es	0.841807	1.217056	-0.493503	99
Es	-1.840689	-2.009226	0.712527	99
Es	0.172839	0.135510	-0.242671	99
Es	-0.120676	-1.865910	-1.057418	99
Es	-1.092751	0.290643	-0.260539	99
Es	1.203599	2.351952	1.073489	99
Es	-1.267936	-1.590695	-1.319963	99
Es	1.803744	2.175323	-0.180641	99
44
Properties=species:S:1:pos:R:3:Z:I:1 energy=-307.9274154536326 field_type=dipole dipole="0.000000 0.000000 0.000000" charge=0
C	-1.205303	-2.301432	0.445162	6
C	-0.743013	-1.546952	-0.791818	6
C	-0.503033	-0.096002	-0.491708	6
C	0.686477	0.511908	-0.626038	6
C	0.963017	1.924857	-0.352848	6
C	1.203377	2.351947	1.073722	6
O	2.252117	2.369937	0.099592	8
H	-1.388293	-3.352273	0.199992	1
H	-2.134953	-1.880602	0.842142	1
H	-0.448823	-2.264682	1.235942	1
H	-1.509543	-1.622272	-1.572088	1
H	0.162557	-2.022563	-1.186908	1
H	-1.361283	0.480808	-0.155118	1
H	1.540487	-0.069662	-0.970018	1
H	0.423737	2.612957	-0.996478	1
H	1.259327	1.599468	1.850252	1
H	0.803147	3.304557	1.396212	1
Es	1.248167	1.844741	1.599895	99
Es	2.399359	2.130474	0.149969	99
Es	-0.743024	-1.546914	-0.791775	99
Es	2.251761	2.369643	0.099746	99
Es	1.265983	0.123985	-0.857297	99
Es	0.025000	0.298929	-0.873348	99
Es	-0.503123	-0.096044	-0.491709	99
Es	2.326819	2.655873	-0.000550	99
Es	1.203604	2.351952	1.073482	99
Es	-0.120249	-1.865787	-1.057274	99
Es	-1.205300	-2.301415	0.445134	99
Es	0.605607	2.387264	-0.792907	99
Es	0.842759	2.091442	0.410501	99
Es	-0.617844	-0.811960	-0.641817	99
Es	0.841389	1.216366	-0.493160	99
Es	1.930500	2.404869	0.551126	99
Es	0.942904	3.002773	1.298505	99
Es	0.173421	0.134413	-0.241876	99
Es	-1.329341	-3.014857	0.274121	99
Es	-0.686386	-2.273898	0.982710	99
Es	-0.973348	-1.911786	-0.170326	99
Es	0.686579	0.511991	-0.626038	99
Es	-1.268936	-1.590626	-1.320169	99
Es	0.963310	1.924915	-0.352728	99
Es	-1.092976	0.290278	-0.260428	99
Es	-1.841659	-2.009466	0.712298	99
Es	1.803662	2.173405	-0.182724	99
44
Properties=species:S:1:pos:R:3:Z:I:1 energy=-307.9274154536326 field_type=dipole dipole="0.000000 0.000000 0.000000" charge=0
C	-1.205303	-2.301432	0.445162	6
C	-0.743013	-1.546952	-0.791818	6
C	-0.503033	-0.096002	-0.491708	6
C	0.686477	0.511908	-0.626038	6
C	0.963017	1.924857	-0.352848	6
C	1.203377	2.351947	1.073722	6
O	2.252117	2.369937	0.099592	8
H	-1.388293	-3.352273	0.199992	1
H	-2.134953	-1.880602	0.842142	1
H	-0.448823	-2.264682	1.235942	1
H	-1.509543	-1.622272	-1.572088	1
H	0.162557	-2.022563	-1.186908	1
H	-1.361283	0.480808	-0.155118	1
H	1.540487	-0.069662	-0.970018	1
H	0.423737	2.612957	-0.996478	1
H	1.259327	1.599468	1.850252	1
H	0.803147	3.304557	1.396212	1
Es	-1.842576	-2.009514	0.712212	99
Es	0.963305	1.924915	-0.352725	99
Es	0.841038	2.090892	0.410520	99
Es	0.173512	0.134131	-0.241796	99
Es	-0.618181	-0.811894	-0.642304	99
Es	-1.093408	0.290316	-0.260615	99
Es	-0.743023	-1.546914	-0.791775	99
Es	0.606277	2.386679	-0.792105	99
Es	-1.328812	-3.014101	0.273926	99
Es	2.251601	2.370170	0.099601	99
Es	2.356268	2.140178	0.154570	99
Es	2.370935	2.640671	-0.003060	99
Es	-0.503122	-0.096046	-0.491705	99
Es	0.943167	3.002262	1.298815	99
Es	1.932173	2.408600	0.550877	99
Es	1.802166	2.174931	-0.184077	99
Es	-0.119497	-1.865824	-1.057123	99
Es	0.841064	1.215824	-0.493056	99
Es	0.686578	0.511990	-0.626039	99
Es	-1.269743	-1.590845	-1.320056	99
Es	1.266310	0.123942	-0.857142	99
Es	1.203611	2.351960	1.073483	99
Es	-1.205299	-2.301415	0.445134	99
Es	1.248385	1.845927	1.598858	99
Es	0.024831	0.299284	-0.873243	99
Es	-0.973338	-1.911666	-0.170432	99
Es	-0.685585	-2.273893	0.982620	99
44
Properties=species:S:1:pos:R:3:Z:I:1 energy=-307.9274154536326 field_type=dipole dipole="0.000000 0.000000 0.000000" charge=0
C	-1.205303	-2.301432	0.445162	6
C	-0.743013	-1.546952	-0.791818	6
C	-0.503033	-0.096002	-0.491708	6
C	0.686477	0.511908	-0.626038	6
C	0.963017	1.924857	-0.352848	6
C	1.203377	2.351947	1.073722	6
O	2.252117	2.369937	0.099592	8
H	-1.388293	-3.352273	0.199992	1
H	-2.134953	-1.880602	0.842142	1
H	-0.448823	-2.264682	1.235942	1
H	-1.509543	-1.622272	-1.572088	1
H	0.162557	-2.022563	-1.186908	1
H	-1.361283	0.480808	-0.155118	1
H	1.540487	-0.069662	-0.970018	1
H	0.423737	2.612957	-0.996478	1
H	1.259327	1.599468	1.850252	1
H	0.803147	3.304557	1.396212	1
Es	-0.743024	-1.546914	-0.791775	99
Es	2.399938	2.623661	-0.002198	99
Es	0.686575	0.511976	-0.626010	99
Es	-1.205299	-2.301415	0.445134	99
Es	-0.973379	-1.911648	-0.170540	99
Es	1.932975	2.409992	0.550613	99
Es	2.251683	2.370005	0.099640	99
Es	0.943411	3.001929	1.299172	99
Es	-1.270127	-1.590863	-1.320001	99
Es	0.606697	2.386365	-0.791567	99
Es	0.024776	0.299363	-0.873177	99
Es	-1.328522	-3.013833	0.273761	99
Es	0.839970	2.090656	0.410352	99
Es	0.840740	1.215601	-0.493017	99
Es	-1.093666	0.290366	-0.260814	99
Es	1.203602	2.351951	1.073481	99
Es	1.248515	1.846517	1.598090	99
Es	-0.119105	-1.865830	-1.057063	99
Es	0.173555	0.134031	-0.241874	99
Es	-0.618313	-0.811877	-0.642371	99
Es	-0.685227	-2.273828	0.982536	99
Es	1.266542	0.123923	-0.856932	99
Es	1.801863	2.174766	-0.184532	99
Es	0.963310	1.924918	-0.352727	99
Es	-0.503124	-0.096045	-0.491713	99
Es	2.327279	2.156338	0.154735	99
Es	-1.843005	-2.009546	0.712160	99
44
Properties=species:S:1:pos:R:3:Z:I:1 energy=-307.9274154536326 field_type=dipole dipole="0.000000 0.000000 0.000000" charge=0
C	-1.205303	-2.301432	0.445162	6
C	-0.743013	-1.546952	-0.791818	6
C	-0.503033	-0.096002	-0.491708	6
C	0.686477	0.511908	-0.626038	6
C	0.963017	1.924857	-0.352848	6
C	1.203377	2.351947	1.073722	6
O	2.252117	2.369937	0.099592	8
H	-1.388293	-3.352273	0.199992	1
H	-2.134953	-1.880602	0.842142	1
H	-0.448823	-2.264682	1.235942	1
H	-1.509543	-1.622272	-1.572088	1
H	0.162557	-2.022563	-1.186908	1
H	-1.361283	0.480808	-0.155118	1
H	1.540487	-0.069662	-0.970018	1
H	0.423737	2.612957	-0.996478	1
H	1.259327	1.599468	1.850252	1
H	0.803147	3.304557	1.396212	1
Es	2.303567	2.175359	0.154051	99
Es	-0.618235	-0.811777	-0.642170	99
Es	-1.093724	0.290457	-0.261023	99
Es	-0.503124	-0.096044	-0.491711	99
Es	0.963317	1.924921	-0.352730	99
Es	1.932934	2.412257	0.549533	99
Es	-1.843079	-2.009480	0.712106	99
Es	-0.973376	-1.911699	-0.170587	99
Es	2.251792	2.369935	0.099643	99
Es	1.248558	1.846804	1.597840	99
Es	0.840532	1.215381	-0.492877	99
Es	0.943385	3.001749	1.299161	99
Es	0.173429	0.134254	-0.241929	99
Es	1.802178	2.172870	-0.184483	99
Es	0.606694	2.386331	-0.791357	99
Es	0.024849	0.299189	-0.873257	99
Es	-1.205299	-2.301415	0.445134	99
Es	-1.270309	-1.590965	-1.319924	99
Es	1.266619	0.123814	-0.856642	99
Es	-0.119164	-1.865944	-1.057039	99
Es	-1.328485	-3.013852	0.273683	99
Es	0.839880	2.090552	0.410051	99
Es	-0.685043	-2.273716	0.982487	99
Es	1.203606	2.351950	1.073485	99
Es	2.423584	2.604552	-0.000270	99
Es	-0.743024	-1.546914	-0.791775	99
Es	0.686579	0.511989	-0.626035	99
44
Properties=species:S:1:pos:R:3:Z:I:1 energy=-307.9274154536326 field_type=dipole dipole="0.000000 0.000000 0.000000" charge=0
C	-1.205303	-2.301432	0.445162	6
C	-0.743013	-1.546952	-0.791818	6
C	-0.503033	-0.096002	-0.491708	6
C	0.686477	0.511908	-0.626038	6
C	0.963017	1.924857	-0.352848	6
C	1.203377	2.351947	1.073722	6
O	2.252117	2.369937	0.099592	8
H	-1.388293	-3.352273	0.199992	1
H	-2.134953	-1.880602	0.842142	1
H	-0.448823	-2.264682	1.235942	1
H	-1.509543	-1.622272	-1.572088	1
H	0.162557	-2.022563	-1.186908	1
H	-1.361283	0.480808	-0.155118	1
H	1.540487	-0.069662	-0.970018	1
H	0.423737	2.612957	-0.996478	1
H	1.259327	1.599468	1.850252	1
H	0.803147	3.304557	1.396212	1
Es	1.203603	2.351951	1.073481	99
Es	-0.743024	-1.546914	-0.791774	99
Es	-0.119370	-1.866364	-1.057106	99
Es	1.266505	0.123357	-0.856182	99
Es	-0.503124	-0.096045	-0.491713	99
Es	0.173050	0.135092	-0.242644	99
Es	-1.269987	-1.591133	-1.319634	99
Es	1.248254	1.846110	1.598441	99
Es	1.802855	2.168936	-0.183861	99
Es	-0.685454	-2.273472	0.982292	99
Es	-1.093575	0.290857	-0.261407	99
Es	0.840392	1.215655	-0.492319	99
Es	-0.618121	-0.811838	-0.641671	99
Es	1.934732	2.408492	0.550909	99
Es	0.686579	0.511990	-0.626036	99
Es	2.450799	2.576746	0.005279	99
Es	-1.328938	-3.014928	0.273467	99
Es	2.268359	2.275511	0.127110	99
Es	2.257163	2.305321	0.119285	99
Es	0.842235	2.090343	0.408926	99
Es	0.963307	1.924914	-0.352725	99
Es	0.942879	3.002174	1.298822	99
Es	-1.205300	-2.301415	0.445134	99
Es	0.605356	2.387379	-0.791662	99
Es	-1.842384	-2.008918	0.712137	99
Es	-0.973380	-1.911585	-0.170500	99
Es	0.025229	0.298343	-0.872685	99
44
Properties=species:S:1:pos:R:3:Z:I:1 energy=-307.9274154536326 field_type=dipole dipole="0.000000 0.000000 0.000000" charge=0
C	-1.205303	-2.301432	0.445162	6
C	-0.743013	-1.546952	-0.791818	6
C	-0.503033	-0.096002	-0.491708	6
C	0.686477	0.511908	-0.626038	6
C	0.963017	1.924857	-0.352848	6
C	1.203377	2.351947	1.073722	6
O	2.252117	2.369937	0.099592	8
H	-1.388293	-3.352273	0.199992	1
H	-2.134953	-1.880602	0.842142	1
H	-0.448823	-2.264682	1.235942	1
H	-1.509543	-1.622272	-1.572088	1
H	0.162557	-2.022563	-1.186908	1
H	-1.361283	0.480808	-0.155118	1
H	1.540487	-0.069662	-0.970018	1
H	0.423737	2.612957	-0.996478	1
H	1.259327	1.599468	1.850252	1
H	0.803147	3.304557	1.396212	1
Es	1.801665	2.172147	-0.184050	99
Es	-0.743024	-1.546918	-0.791773	99
Es	2.251134	2.370713	0.099503	99
Es	2.448671	2.579449	0.004913	99
Es	1.266429	0.123795	-0.856501	99
Es	-0.973188	-1.911534	-0.170619	99
Es	0.840091	1.215424	-0.493184	99
Es	-0.618323	-0.811760	-0.642048	99
Es	-0.119176	-1.866055	-1.056928	99
Es	1.248531	1.847095	1.597401	99
Es	1.203601	2.351949	1.073481	99
Es	1.934311	2.411021	0.549339	99
Es	0.024920	0.298967	-0.873196	99
Es	-1.205300	-2.301415	0.445134	99
Es	-1.093590	0.290519	-0.261105	99
Es	0.839538	2.090630	0.409525	99
Es	0.943569	3.001409	1.299275	99
Es	0.686581	0.511992	-0.626035	99
Es	0.963317	1.924912	-0.352725	99
Es	-0.503125	-0.096045	-0.491715	99
Es	-1.328508	-3.014187	0.273571	99
Es	0.606978	2.386240	-0.790647	99
Es	2.278770	2.201921	0.149099	99
Es	-1.270507	-1.591281	-1.319810	99
Es	-1.842999	-2.009314	0.711971	99
Es	-0.685089	-2.273487	0.982463	99
Es	0.173365	0.134372	-0.241975	99
44
Properties=species:S:1:pos:R:3:Z:I:1 energy=-307.9274154536326 field_type=dipole dipole="0.000000 0.000000 0.000000" charge=0
C	-1.205303	-2.301432	0.445162	6
C	-0.743013	-1.546952	-0.791818	6
C	-0.503033	-0.096002	-0.491708	6
C	0.686477	0.511908	-0.626038	6
C	0.963017	1.924857	-0.352848	6
C	1.203377	2.351947	1.073722	6
O	2.252117	2.369937	0.099592	8
H	-1.388293	-3.352273	0.199992	1
H	-2.134953	-1.880602	0.842142	1
H	-0.448823	-2.264682	1.235942	1
H	-1.509543	-1.622272	-1.572088	1
H	0.162557	-2.022563	-1.186908	1
H	-1.361283	0.480808	-0.155118	1
H	1.540487	-0.069662	-0.970018	1
H	0.423737	2.612957	-0.996478	1
H	1.259327	1.599468	1.850252	1
H	0.803147	3.304557	1.396212	1
Es	-0.503122	-0.096044	-0.491707	99
Es	-0.743023	-1.546913	-0.791775	99
Es	0.607321	2.385881	-0.790357	99
Es	0.686580	0.511991	-0.626038	99
Es	-1.328319	-3.014055	0.273496	99
Es	2.274042	2.207815	0.147678	99
Es	1.935066	2.410023	0.549514	99
Es	2.452690	2.575469	0.006112	99
Es	1.801513	2.171979	-0.184071	99
Es	1.203607	2.351952	1.073478	99
Es	-0.618455	-0.811792	-0.641978	99
Es	-0.684970	-2.273451	0.982419	99
Es	0.840061	1.215344	-0.493143	99
Es	-0.119133	-1.865964	-1.056967	99
Es	0.963310	1.924910	-0.352724	99
Es	-1.270660	-1.591416	-1.319732	99
Es	2.251577	2.370137	0.099615	99
Es	0.838870	2.090648	0.409568	99
Es	1.266338	0.123788	-0.856486	99
Es	-0.973156	-1.911472	-0.170676	99
Es	-1.205300	-2.301417	0.445133	99
Es	-1.093507	0.290466	-0.261072	99
Es	0.024860	0.299120	-0.873319	99
Es	0.943699	3.001125	1.299315	99
Es	0.173311	0.134399	-0.241963	99
Es	1.248598	1.847538	1.597013	99
Es	-1.843160	-2.009501	0.712030	99
44
Properties=species:S:1:pos:R:3:Z:I:1 energy=-307.9274154536326 field_type=dipole dipole="0.000000 0.000000 0.000000" charge=0
C	-1.205303	-2.301432	0.445162	6
C	-0.743013	-1.546952	-0.791818	6
C	-0.503033	-0.096002	-0.491708	6
C	0.686477	0.511908	-0.626038	6
C	0.963017	1.924857	-0.352848	6
C	1.203377	2.351947	1.073722	6
O	2.252117	2.369937	0.099592	8
H	-1.388293	-3.352273	0.199992	1
H	-2.134953	-1.880602	0.842142	1
H	-0.448823	-2.264682	1.235942	1
H	-1.509543	-1.622272	-1.572088	1
H	0.162557	-2.022563	-1.186908	1
H	-1.361283	0.480808	-0.155118	1
H	1.540487	-0.069662	-0.970018	1
H	0.423737	2.612957	-0.996478	1
H	1.259327	1.599468	1.850252	1
H	0.803147	3.304557	1.396212	1
Es	1.935531	2.410754	0.548512	99
Es	1.203607	2.351952	1.073477	99
Es	-0.743024	-1.546915	-0.791774	99
Es	0.607378	2.385819	-0.790308	99
Es	0.024823	0.299097	-0.873339	99
Es	-1.205299	-2.301414	0.445133	99
Es	2.461474	2.564680	0.008214	99
Es	2.251549	2.370228	0.099591	99
Es	-1.270507	-1.591389	-1.319794	99
Es	1.266218	0.123892	-0.856507	99
Es	2.265315	2.219211	0.145917	99
Es	1.248575	1.847517	1.597028	99
Es	-0.685197	-2.273449	0.982491	99
Es	-0.973024	-1.911643	-0.170810	99
Es	-1.328455	-3.014216	0.273621	99
Es	0.686579	0.511992	-0.626040	99
Es	-0.119369	-1.865991	-1.056957	99
Es	0.943717	3.001038	1.299275	99
Es	0.963308	1.924915	-0.352725	99
Es	0.838903	2.090838	0.409239	99
Es	-1.843002	-2.009383	0.711950	99
Es	-0.618347	-0.811690	-0.641883	99
Es	1.801078	2.170708	-0.183234	99
Es	-0.503126	-0.096045	-0.491711	99
Es	0.839943	1.215296	-0.493104	99
Es	0.173371	0.134371	-0.241781	99
Es	-1.093381	0.290385	-0.261115	99
44
Properties=species:S:1:pos:R:3:Z:I:1 energy=-307.9274154536326 field_type=dipole dipole="0.000000 0.000000 0.000000" charge=0
C	-1.205303	-2.301432	0.445162	6
C	-0.743013	-1.546952	-0.791818	6
C	-0.503033	-0.096002	-0.491708	6
C	0.686477	0.511908	-0.626038	6
C	0.963017	1.924857	-0.352848	6
C	1.203377	2.351947	1.073722	6
O	2.252117	2.369937	0.099592	8
H	-1.388293	-3.352273	0.199992	1
H	-2.134953	-1.880602	0.842142	1
H	-0.448823	-2.264682	1.235942	1
H	-1.509543	-1.622272	-1.572088	1
H	0.162557	-2.022563	-1.186908	1
H	-1.361283	0.480808	-0.155118	1
H	1.540487	-0.069662	-0.970018	1
H	0.423737	2.612957	-0.996478	1
H	1.259327	1.599468	1.850252	1
H	0.803147	3.304557	1.396212	1
Es	0.963298	1.924907	-0.352722	99
Es	1.248585	1.847617	1.596912	99
Es	0.839908	1.215424	-0.493194	99
Es	-0.119381	-1.866016	-1.057017	99
Es	-1.842835	-2.009411	0.712075	99
Es	-0.743023	-1.546913	-0.791775	99
Es	-1.328532	-3.014357	0.273599	99
Es	-0.973102	-1.911480	-0.170818	99
Es	-0.618426	-0.811738	-0.641838	99
Es	1.801037	2.169946	-0.182841	99
Es	-1.270538	-1.591446	-1.319693	99
Es	0.838770	2.090894	0.409137	99
Es	1.266033	0.123867	-0.856408	99
Es	2.259998	2.226907	0.144337	99
Es	2.466543	2.558019	0.009546	99
Es	2.251586	2.370170	0.099603	99
Es	-0.503124	-0.096046	-0.491714	99
Es	-1.205300	-2.301414	0.445133	99
Es	0.607428	2.385776	-0.790067	99
Es	1.935964	2.410677	0.548345	99
Es	0.943810	3.000829	1.299262	99
Es	0.686580	0.511991	-0.626036	99
Es	-1.093265	0.290381	-0.261120	99
Es	1.203603	2.351948	1.073480	99
Es	0.024863	0.299001	-0.873455	99
Es	0.173337	0.134426	-0.241773	99
Es	-0.685177	-2.273398	0.982404	99
44
Properties=species:S:1:pos:R:3:Z:I:1 energy=-307.9274154536326 field_type=dipole dipole="0.000000 0.000000 0.000000" charge=0
C	-1.205303	-2.301432	0.445162	6
C	-0.743013	-1.546952	-0.791818	6
C	-0.503033	-0.096002	-0.491708	6
C	0.686477	0.511908	-0.626038	6
C	0.963017	1.924857	-0.352848	6
C	1.203377	2.351947	1.073722	6
O	2.252117	2.369937	0.099592	8
H	-1.388293	-3.352273	0.199992	1
H	-2.134953	-1.880602	0.842142	1
H	-0.448823	-2.264682	1.235942	1
H	-1.509543	-1.622272	-1.572088	1
H	0.162557	-2.022563	-1.186908	1
H	-1.361283	0.480808	-0.155118	1
H	1.540487	-0.069662	-0.970018	1
H	0.423737	2.612957	-0.996478	1
H	1.259327	1.599468	1.850252	1
H	0.803147	3.304557	1.396212	1
Es	-0.119274	-1.865925	-1.056860	99
Es	-1.270642	-1.591620	-1.319766	99
Es	-1.843055	-2.009577	0.712099	99
Es	-1.093220	0.290285	-0.260924	99
Es	1.936668	2.410665	0.548398	99
Es	-0.973069	-1.911320	-0.170809	99
Es	0.024832	0.299103	-0.873707	99
Es	-0.685134	-2.273346	0.982370	99
Es	0.943956	3.000591	1.299223	99
Es	0.686580	0.511990	-0.626036	99
Es	-1.328296	-3.014228	0.273599	99
Es	-0.743023	-1.546914	-0.791775	99
Es	0.963308	1.924911	-0.352722	99
Es	0.173277	0.134420	-0.241794	99
Es	1.203611	2.351947	1.073473	99
Es	0.838371	2.090815	0.409003	99
Es	1.266043	0.123903	-0.856367	99
Es	0.839712	1.215341	-0.493302	99
Es	2.259629	2.230765	0.143365	99
Es	-0.618547	-0.811767	-0.641852	99
Es	-0.503124	-0.096045	-0.491714	99
Es	1.248627	1.847939	1.596691	99
Es	-1.205300	-2.301415	0.445133	99
Es	2.250508	2.369381	0.100023	99
Es	2.467417	2.556651	0.009589	99
Es	0.607623	2.385602	-0.789758	99
Es	1.801160	2.168405	-0.182217	99
44
Properties=species:S:1:pos:R:3:Z:I:1 energy=-307.9274154536326 field_type=dipole dipole="0.000000 0.000000 0.000000" charge=0
C	-1.205303	-2.301432	0.445162	6
C	-0.743013	-1.546952	-0.791818	6
C	-0.503033	-0.096002	-0.491708	6
C	0.686477	0.511908	-0.626038	6
C	0.963017	1.924857	-0.352848	6
C	1.203377	2.351947	1.073722	6
O	2.252117	2.369937	0.099592	8
H	-1.388293	-3.352273	0.199992	1
H	-2.134953	-1.880602	0.842142	1
H	-0.448823	-2.264682	1.235942	1
H	-1.509543	-1.622272	-1.572088	1
H	0.162557	-2.022563	-1.186908	1
H	-1.361283	0.480808	-0.155118	1
H	1.540487	-0.069662	-0.970018	1
H	0.423737	2.612957	-0.996478	1
H	1.259327	1.599468	1.850252	1
H	0.803147	3.304557	1.396212	1
Es	0.024836	0.299109	-0.873565	99
Es	-0.743023	-1.546914	-0.791775	99
Es	0.944080	3.000384	1.299217	99
Es	0.686581	0.511990	-0.626030	99
Es	-0.685008	-2.273385	0.982479	99
Es	1.248610	1.848042	1.596559	99
Es	0.607790	2.385437	-0.789510	99
Es	-0.119265	-1.865953	-1.056843	99
Es	1.265964	0.123896	-0.856557	99
Es	-0.503125	-0.096045	-0.491714	99
Es	-1.843110	-2.009637	0.712004	99
Es	0.173330	0.134323	-0.241637	99
Es	2.468780	2.555528	0.010227	99
Es	0.838023	2.090888	0.409055	99
Es	-1.328296	-3.014088	0.273485	99
Es	1.801305	2.167311	-0.181911	99
Es	-0.973090	-1.911306	-0.170829	99
Es	0.963308	1.924910	-0.352727	99
Es	-1.093246	0.290322	-0.260943	99
Es	0.839711	1.215388	-0.493526	99
Es	1.203605	2.351950	1.073478	99
Es	-1.270762	-1.591569	-1.319780	99
Es	-1.205300	-2.301416	0.445134	99
Es	1.937070	2.409952	0.548134	99
Es	2.251750	2.369728	0.099717	99
Es	2.256643	2.233472	0.142971	99
Es	-0.618522	-0.811757	-0.641751	99
44
Properties=species:S:1:pos:R:3:Z:I:1 energy=-307.9274154536326 field_type=dipole dipole="0.000000 0.000000 0.000000" charge=0
C	-1.205303	-2.301432	0.445162	6
C	-0.743013	-1.546952	-0.791818	6
C	-0.503033	-0.096002	-0.491708	6
C	0.686477	0.511908	-0.626038	6
C	0.963017	1.924857	-0.352848	6
C	1.203377	2.351947	1.073722	6
O	2.252117	2.369937	0.099592	8
H	-1.388293	-3.352273	0.199992	1
H	-2.134953	-1.880602	0.842142	1
H	-0.448823	-2.264682	1.235942	1
H	-1.509543	-1.622272	-1.572088	1
H	0.162557	-2.022563	-1.186908	1
H	-1.361283	0.480808	-0.155118	1
H	1.540487	-0.069662	-0.970018	1
H	0.423737	2.612957	-0.996478	1
H	1.259327	1.599468	1.850252	1
H	0.803147	3.304557	1.396212	1
Es	1.937648	2.408745	0.548253	99
Es	-1.328393	-3.014166	0.273592	99
Es	0.944147	3.000281	1.299306	99
Es	0.963308	1.924909	-0.352723	99
Es	0.837539	2.091063	0.408964	99
Es	-0.685048	-2.273415	0.982358	99
Es	1.265987	0.123977	-0.856522	99
Es	-0.503125	-0.096043	-0.491713	99
Es	1.800950	2.167682	-0.181753	99
Es	0.839553	1.215281	-0.493348	99
Es	-1.205300	-2.301415	0.445134	99
Es	-1.270740	-1.591607	-1.319690	99
Es	1.248723	1.848292	1.596315	99
Es	-1.843037	-2.009484	0.712093	99
Es	-0.119321	-1.865989	-1.056904	99
Es	-0.743023	-1.546913	-0.791775	99
Es	1.203609	2.351947	1.073476	99
Es	0.024812	0.299070	-0.873617	99
Es	2.471171	2.552528	0.011331	99
Es	0.608133	2.385112	-0.789548	99
Es	2.254016	2.238350	0.141418	99
Es	-0.973018	-1.911368	-0.170891	99
Es	2.251848	2.368780	0.099995	99
Es	0.686580	0.511989	-0.626033	99
Es	-0.618559	-0.811714	-0.641758	99
Es	0.173369	0.134326	-0.241583	99
Es	-1.093188	0.290344	-0.261013	99
44
Properties=species:S:1:pos:R:3:Z:I:1 energy=-307.9274154536326 field_type=dipole dipole="0.000000 0.000000 0.000000" charge=0
C	-1.205303	-2.301432	0.445162	6
C	-0.743013	-1.546952	-0.791818	6
C	-0.503033	-0.096002	-0.491708	6
C	0.686477	0.511908	-0.626038	6
C	0.963017	1.924857	-0.352848	6
C	1.203377	2.351947	1.073722	6
O	2.252117	2.369937	0.099592	8
H	-1.388293	-3.352273	0.199992	1
H	-2.134953	-1.880602	0.842142	1
H	-0.448823	-2.264682	1.235942	1
H	-1.509543	-1.622272	-1.572088	1
H	0.162557	-2.022563	-1.186908	1
H	-1.361283	0.480808	-0.155118	1
H	1.540487	-0.069662	-0.970018	1
H	0.423737	2.612957	-0.996478	1
H	1.259327	1.599468	1.850252	1
H	0.803147	3.304557	1.396212	1
Es	0.173352	0.134314	-0.241598	99
Es	1.938520	2.408800	0.548263	99
Es	-1.270693	-1.591582	-1.319674	99
Es	-1.093028	0.290303	-0.260937	99
Es	-0.119355	-1.866005	-1.056937	99
Es	0.024776	0.299153	-0.873646	99
Es	0.837718	2.091104	0.408805	99
Es	-0.685115	-2.273372	0.982394	99
Es	1.248609	1.848246	1.596250	99
Es	-1.205300	-2.301415	0.445134	99
Es	0.608087	2.385196	-0.789193	99
Es	0.686580	0.511991	-0.626036	99
Es	0.944149	3.000109	1.299252	99
Es	-0.503124	-0.096045	-0.491712	99
Es	-1.843051	-2.009570	0.712076	99
Es	1.203599	2.351957	1.073481	99
Es	1.800546	2.167014	-0.180968	99
Es	-1.328325	-3.014193	0.273580	99
Es	-0.743023	-1.546914	-0.791775	99
Es	0.839641	1.215365	-0.493516	99
Es	0.963311	1.924914	-0.352724	99
Es	2.251271	2.369945	0.099718	99
Es	-0.973038	-1.911352	-0.170887	99
Es	1.265662	0.123941	-0.856556	99
Es	-0.618605	-0.811807	-0.641738	99
Es	2.250926	2.243086	0.140379	99
Es	2.474550	2.547376	0.011929	99
44
Properties=species:S:1:pos:R:3:Z:I:1 energy=-307.9274154536326 field_type=dipole dipole="0.000000 0.000000 0.000000" charge=0
C	-1.205303	-2.301432	0.445162	6
C	-0.743013	-1.546952	-0.791818	6
C	-0.503033	-0.096002	-0.491708	6
C	0.686477	0.511908	-0.626038	6
C	0.963017	1.924857	-0.352848	6
C	1.203377	2.351947	1.073722	6
O	2.252117	2.369937	0.099592	8
H	-1.388293	-3.352273	0.199992	1
H	-2.134953	-1.880602	0.842142	1
H	-0.448823	-2.264682	1.235942	1
H	-1.509543	-1.622272	-1.572088	1
H	0.162557	-2.022563	-1.186908	1
H	-1.361283	0.480808	-0.155118	1
H	1.540487	-0.069662	-0.970018	1
H	0.423737	2.612957	-0.996478	1
H	1.259327	1.599468	1.850252	1
H	0.803147	3.304557	1.396212	1
Es	0.024813	0.299083	-0.873636	99
Es	0.173347	0.134328	-0.241500	99
Es	0.837637	2.091124	0.408747	99
Es	1.265618	0.123927	-0.856581	99
Es	2.248340	2.246964	0.139744	99
Es	-1.092988	0.290316	-0.260937	99
Es	1.248613	1.848305	1.596200	99
Es	0.608068	2.385233	-0.789065	99
Es	0.686580	0.511991	-0.626037	99
Es	-1.270704	-1.591605	-1.319729	99
Es	0.839538	1.215453	-0.493680	99
Es	-0.503125	-0.096045	-0.491714	99
Es	0.963312	1.924915	-0.352727	99
Es	1.801417	2.165594	-0.181119	99
Es	-0.618641	-0.811825	-0.641675	99
Es	-0.743023	-1.546914	-0.791775	99
Es	0.944291	2.999926	1.299224	99
Es	2.251480	2.370324	0.099572	99
Es	2.476547	2.544591	0.013073	99
Es	-1.843091	-2.009614	0.712028	99
Es	-1.328295	-3.014143	0.273553	99
Es	-1.205300	-2.301415	0.445134	99
Es	1.203603	2.351953	1.073478	99
Es	-0.119374	-1.865984	-1.056868	99
Es	-0.973042	-1.911333	-0.170865	99
Es	1.938117	2.408786	0.548079	99
Es	-0.685098	-2.273375	0.982440	99
44
Properties=species:S:1:pos:R:3:Z:I:1 energy=-307.9274154536326 field_type=dipole dipole="0.000000 0.000000 0.000000" charge=0
C	-1.205303	-2.301432	0.445162	6
C	-0.743013	-1.546952	-0.791818	6
C	-0.503033	-0.096002	-0.491708	6
C	0.686477	0.511908	-0.626038	6
C	0.963017	1.924857	-0.352848	6
C	1.203377	2.351947	1.073722	6
O	2.252117	2.369937	0.099592	8
H	-1.388293	-3.352273	0.199992	1
H	-2.134953	-1.880602	0.842142	1
H	-0.448823	-2.264682	1.235942	1
H	-1.509543	-1.622272	-1.572088	1
H	0.162557	-2.022563	-1.186908	1
H	-1.361283	0.480808	-0.155118	1
H	1.540487	-0.069662	-0.970018	1
H	0.423737	2.612957	-0.996478	1
H	1.259327	1.599468	1.850252	1
H	0.803147	3.304557	1.396212	1
Es	-1.843023	-2.009586	0.712087	99
Es	0.963313	1.924915	-0.352724	99
Es	-0.685114	-2.273272	0.982348	99
Es	-0.618676	-0.811815	-0.641614	99
Es	0.837165	2.091140	0.408794	99
Es	0.686579	0.511991	-0.626039	99
Es	1.938648	2.407770	0.548193	99
Es	2.250635	2.369453	0.099969	99
Es	-0.503126	-0.096043	-0.491716	99
Es	0.608393	2.384940	-0.788983	99
Es	-1.270711	-1.591707	-1.319659	99
Es	-0.119391	-1.866011	-1.056872	99
Es	0.944313	2.999846	1.299103	99
Es	0.839567	1.215397	-0.493704	99
Es	1.801094	2.166014	-0.180709	99
Es	-0.973058	-1.911302	-0.170976	99
Es	-1.092921	0.290313	-0.260968	99
Es	1.203616	2.351951	1.073471	99
Es	1.248690	1.848585	1.596143	99
Es	0.173340	0.134395	-0.241497	99
Es	2.247570	2.250593	0.138417	99
Es	2.478055	2.542537	0.013543	99
Es	0.024758	0.299099	-0.873769	99
Es	-0.743024	-1.546915	-0.791776	99
Es	-1.205300	-2.301417	0.445135	99
Es	1.265557	0.123952	-0.856473	99
Es	-1.328308	-3.014262	0.273641	99
