38
Properties=species:S:1:pos:R:3:Z:I:1 energy=-305.5809029651664 field_type=dipole dipole="0.000000 0.000000 0.000000" charge=0
C	-1.334677	0.757719	-0.278326	6
C	-0.032758	0.691949	0.049334	6
C	0.843603	-0.527721	0.168444	6
C	0.147003	-1.794701	-0.113716	6
C	-0.403857	-2.838401	-0.340126	6
C	0.649583	1.983909	0.335594	6
O	1.833742	2.048749	0.642694	8
H	-1.877337	1.696439	-0.336286	1
H	-1.909727	-0.136191	-0.502896	1
H	1.258243	-0.574811	1.182964	1
H	1.689523	-0.431371	-0.523256	1
H	-0.889427	-3.766111	-0.540206	1
H	0.026093	2.890539	0.255784	1
Es	-0.566833	0.779433	-0.412439	99
Es	1.098025	-0.563753	0.835314	99
Es	-0.032636	0.691949	0.049360	99
Es	-0.161482	-2.238728	-0.578696	99
Es	-0.401582	-2.234300	-0.002984	99
Es	-0.725580	0.726001	0.207589	99
Es	0.210450	2.596473	0.277056	99
Es	1.962347	1.764099	0.650669	99
Es	1.936456	2.339622	0.693956	99
Es	-0.721159	-3.442528	-0.470709	99
Es	-1.693488	1.392631	-0.315445	99
Es	-1.723594	0.166621	-0.429033	99
Es	1.461277	2.044361	0.287864	99
Es	0.382613	0.064543	0.101545	99
Es	-1.334751	0.757737	-0.278353	99
Es	1.338456	2.002407	0.772419	99
Es	0.467736	-1.179197	0.018564	99
Es	0.843460	-0.527785	0.168402	99
Es	-0.403980	-2.838606	-0.340167	99
Es	1.833449	2.048711	0.642617	99
Es	1.383697	-0.468636	-0.295508	99
Es	0.649572	1.983878	0.335594	99
Es	0.306506	1.328713	0.191185	99
Es	0.153478	-2.500399	-0.107159	99
Es	0.147133	-1.794440	-0.113680	99
38
Properties=species:S:1:pos:R:3:Z:I:1 energy=-305.5809029651664 field_type=dipole dipole="0.000000 0.000000 0.000000" charge=0
C	-1.334677	0.757719	-0.278326	6
C	-0.032758	0.691949	0.049334	6
C	0.843603	-0.527721	0.168444	6
C	0.147003	-1.794701	-0.113716	6
C	-0.403857	-2.838401	-0.340126	6
C	0.649583	1.983909	0.335594	6
O	1.833742	2.048749	0.642694	8
H	-1.877337	1.696439	-0.336286	1
H	-1.909727	-0.136191	-0.502896	1
H	1.258243	-0.574811	1.182964	1
H	1.689523	-0.431371	-0.523256	1
H	-0.889427	-3.766111	-0.540206	1
H	0.026093	2.890539	0.255784	1
Es	-0.567704	0.778950	-0.409343	99
Es	1.098321	-0.562113	0.833064	99
Es	1.833415	2.048723	0.642612	99
Es	1.460287	2.041979	0.292394	99
Es	1.966012	2.341801	0.702015	99
Es	-0.032639	0.691950	0.049358	99
Es	-1.726114	0.164733	-0.429929	99
Es	-1.334755	0.757737	-0.278347	99
Es	0.472252	-1.185020	0.018566	99
Es	1.932092	1.767466	0.642651	99
Es	-1.690648	1.391279	-0.314872	99
Es	0.146465	-2.505535	-0.074931	99
Es	-0.431094	-2.201556	-0.062317	99
Es	0.147140	-1.794451	-0.113663	99
Es	0.307342	1.330973	0.191701	99
Es	0.383256	0.065883	0.101931	99
Es	0.843461	-0.527786	0.168403	99
Es	-0.729514	-3.438737	-0.473139	99
Es	-0.403976	-2.838614	-0.340177	99
Es	1.340163	1.999955	0.768023	99
Es	-0.122971	-2.267548	-0.550010	99
Es	0.649571	1.983877	0.335592	99
Es	1.382902	-0.467396	-0.292952	99
Es	-0.724826	0.726049	0.204217	99
Es	0.211135	2.596209	0.277113	99
38
Properties=species:S:1:pos:R:3:Z:I:1 energy=-305.5809029651664 field_type=dipole dipole="0.000000 0.000000 0.000000" charge=0
C	-1.334677	0.757719	-0.278326	6
C	-0.032758	0.691949	0.049334	6
C	0.843603	-0.527721	0.168444	6
C	0.147003	-1.794701	-0.113716	6
C	-0.403857	-2.838401	-0.340126	6
C	0.649583	1.983909	0.335594	6
O	1.833742	2.048749	0.642694	8
H	-1.877337	1.696439	-0.336286	1
H	-1.909727	-0.136191	-0.502896	1
H	1.258243	-0.574811	1.182964	1
H	1.689523	-0.431371	-0.523256	1
H	-0.889427	-3.766111	-0.540206	1
H	0.026093	2.890539	0.255784	1
Es	-0.032633	0.691946	0.049369	99
Es	-0.567658	0.779300	-0.408541	99
Es	1.339634	2.000002	0.766670	99
Es	-1.334756	0.757736	-0.278345	99
Es	0.211641	2.595918	0.277486	99
Es	1.902122	1.779797	0.636646	99
Es	0.307896	1.331570	0.191817	99
Es	-0.733616	-3.436398	-0.472861	99
Es	-0.214852	-2.344820	0.010930	99
Es	0.649573	1.983878	0.335590	99
Es	1.382921	-0.466826	-0.292060	99
Es	-1.688910	1.389874	-0.314128	99
Es	-0.403986	-2.838609	-0.340175	99
Es	0.147142	-1.794448	-0.113651	99
Es	1.833402	2.048772	0.642609	99
Es	-0.724897	0.725649	0.203374	99
Es	-1.727830	0.164502	-0.430265	99
Es	0.195598	-2.488267	-0.273583	99
Es	0.473845	-1.188360	0.020623	99
Es	1.098083	-0.561421	0.831707	99
Es	1.461163	2.041619	0.292772	99
Es	-0.387262	-2.141548	-0.427181	99
Es	0.843461	-0.527784	0.168405	99
Es	0.383815	0.066590	0.101949	99
Es	1.995676	2.330135	0.708802	99
38
Properties=species:S:1:pos:R:3:Z:I:1 energy=-305.5809029651664 field_type=dipole dipole="0.000000 0.000000 0.000000" charge=0
C	-1.334677	0.757719	-0.278326	6
C	-0.032758	0.691949	0.049334	6
C	0.843603	-0.527721	0.168444	6
C	0.147003	-1.794701	-0.113716	6
C	-0.403857	-2.838401	-0.340126	6
C	0.649583	1.983909	0.335594	6
O	1.833742	2.048749	0.642694	8
H	-1.877337	1.696439	-0.336286	1
H	-1.909727	-0.136191	-0.502896	1
H	1.258243	-0.574811	1.182964	1
H	1.689523	-0.431371	-0.523256	1
H	-0.889427	-3.766111	-0.540206	1
H	0.026093	2.890539	0.255784	1
Es	1.339804	1.999228	0.767587	99
Es	-0.032631	0.691948	0.049363	99
Es	-0.735392	-3.434882	-0.473933	99
Es	-0.403987	-2.838608	-0.340179	99
Es	0.474888	-1.189939	0.019024	99
Es	-0.568733	0.777985	-0.408617	99
Es	2.014399	2.318294	0.711871	99
Es	-0.460354	-2.149986	-0.203467	99
Es	0.308480	1.331858	0.191822	99
Es	-0.104476	-2.317616	-0.394123	99
Es	1.098945	-0.560732	0.831654	99
Es	-0.723914	0.727041	0.203822	99
Es	1.381746	-0.466500	-0.291755	99
Es	-1.729181	0.164629	-0.430575	99
Es	0.649574	1.983878	0.335582	99
Es	-1.334758	0.757738	-0.278344	99
Es	0.157772	-2.507294	-0.089848	99
Es	0.147152	-1.794452	-0.113663	99
Es	-1.687299	1.388460	-0.314431	99
Es	0.384238	0.066845	0.102218	99
Es	1.460934	2.040339	0.292425	99
Es	1.833421	2.048786	0.642617	99
Es	1.883382	1.793956	0.633187	99
Es	0.843465	-0.527784	0.168404	99
Es	0.212097	2.595615	0.277318	99
38
Properties=species:S:1:pos:R:3:Z:I:1 energy=-305.5809029651664 field_type=dipole dipole="0.000000 0.000000 0.000000" charge=0
C	-1.334677	0.757719	-0.278326	6
C	-0.032758	0.691949	0.049334	6
C	0.843603	-0.527721	0.168444	6
C	0.147003	-1.794701	-0.113716	6
C	-0.403857	-2.838401	-0.340126	6
C	0.649583	1.983909	0.335594	6
O	1.833742	2.048749	0.642694	8
H	-1.877337	1.696439	-0.336286	1
H	-1.909727	-0.136191	-0.502896	1
H	1.258243	-0.574811	1.182964	1
H	1.689523	-0.431371	-0.523256	1
H	-0.889427	-3.766111	-0.540206	1
H	0.026093	2.890539	0.255784	1
Es	-1.334757	0.757737	-0.278343	99
Es	0.843466	-0.527782	0.168402	99
Es	0.212395	2.595358	0.277444	99
Es	0.182293	-2.504566	-0.158529	99
Es	-0.567644	0.779086	-0.408435	99
Es	-1.730113	0.164835	-0.430820	99
Es	-0.736561	-3.433985	-0.474040	99
Es	1.381760	-0.466012	-0.291494	99
Es	1.098720	-0.560382	0.831535	99
Es	0.308936	1.331936	0.192036	99
Es	-0.448505	-2.137713	-0.285397	99
Es	-0.404014	-2.838593	-0.340185	99
Es	0.147155	-1.794452	-0.113657	99
Es	1.871186	1.808847	0.631243	99
Es	2.026076	2.309002	0.714308	99
Es	1.461188	2.037946	0.291193	99
Es	-0.032630	0.691945	0.049364	99
Es	-0.140524	-2.332660	-0.244224	99
Es	1.340031	1.996268	0.768378	99
Es	-0.724929	0.725859	0.203428	99
Es	0.474740	-1.190804	0.019395	99
Es	0.649574	1.983878	0.335586	99
Es	1.833409	2.048793	0.642611	99
Es	0.384616	0.066925	0.102252	99
Es	-1.686297	1.387342	-0.314087	99
38
Properties=species:S:1:pos:R:3:Z:I:1 energy=-305.5809029651664 field_type=dipole dipole="0.000000 0.000000 0.000000" charge=0
C	-1.334677	0.757719	-0.278326	6
C	-0.032758	0.691949	0.049334	6
C	0.843603	-0.527721	0.168444	6
C	0.147003	-1.794701	-0.113716	6
C	-0.403857	-2.838401	-0.340126	6
C	0.649583	1.983909	0.335594	6
O	1.833742	2.048749	0.642694	8
H	-1.877337	1.696439	-0.336286	1
H	-1.909727	-0.136191	-0.502896	1
H	1.258243	-0.574811	1.182964	1
H	1.689523	-0.431371	-0.523256	1
H	-0.889427	-3.766111	-0.540206	1
H	0.026093	2.890539	0.255784	1
Es	-0.404000	-2.838608	-0.340173	99
Es	-0.724660	0.725854	0.202253	99
Es	2.033890	2.302294	0.715632	99
Es	1.340560	1.995996	0.766875	99
Es	-1.685508	1.387026	-0.313835	99
Es	0.649572	1.983878	0.335587	99
Es	0.308962	1.332257	0.192015	99
Es	-0.143312	-2.333607	-0.233154	99
Es	1.380370	-0.466274	-0.290614	99
Es	0.843468	-0.527784	0.168392	99
Es	-1.730767	0.164871	-0.430959	99
Es	1.833382	2.048786	0.642606	99
Es	-1.334757	0.757739	-0.278346	99
Es	0.475085	-1.192057	0.019561	99
Es	-0.737668	-3.432967	-0.474150	99
Es	1.099820	-0.560349	0.830458	99
Es	0.212647	2.595334	0.277522	99
Es	0.183304	-2.503743	-0.164705	99
Es	1.863173	1.816120	0.629634	99
Es	0.384955	0.067733	0.102502	99
Es	-0.032633	0.691944	0.049376	99
Es	1.460885	2.037688	0.292888	99
Es	0.147155	-1.794452	-0.113657	99
Es	-0.446490	-2.137779	-0.290455	99
Es	-0.567861	0.778907	-0.407292	99
38
Properties=species:S:1:pos:R:3:Z:I:1 energy=-305.5809029651664 field_type=dipole dipole="0.000000 0.000000 0.000000" charge=0
C	-1.334677	0.757719	-0.278326	6
C	-0.032758	0.691949	0.049334	6
C	0.843603	-0.527721	0.168444	6
C	0.147003	-1.794701	-0.113716	6
C	-0.403857	-2.838401	-0.340126	6
C	0.649583	1.983909	0.335594	6
O	1.833742	2.048749	0.642694	8
H	-1.877337	1.696439	-0.336286	1
H	-1.909727	-0.136191	-0.502896	1
H	1.258243	-0.574811	1.182964	1
H	1.689523	-0.431371	-0.523256	1
H	-0.889427	-3.766111	-0.540206	1
H	0.026093	2.890539	0.255784	1
Es	2.037374	2.297806	0.719469	99
Es	1.486243	2.038269	0.325718	99
Es	1.858609	1.824244	0.628156	99
Es	1.833383	2.048805	0.642608	99
Es	-1.684835	1.386297	-0.313964	99
Es	0.843462	-0.527786	0.168404	99
Es	-0.144352	-2.333925	-0.229169	99
Es	0.182214	-2.503683	-0.162079	99
Es	-1.731226	0.165109	-0.431450	99
Es	0.385014	0.067853	0.102333	99
Es	-0.738243	-3.432218	-0.474834	99
Es	1.375816	-0.466507	-0.290748	99
Es	0.649573	1.983877	0.335587	99
Es	-0.032630	0.691944	0.049371	99
Es	1.104135	-0.559903	0.831224	99
Es	-0.444290	-2.137677	-0.296858	99
Es	0.212777	2.595281	0.277639	99
Es	0.147158	-1.794454	-0.113658	99
Es	-0.403994	-2.838606	-0.340176	99
Es	-1.334756	0.757737	-0.278346	99
Es	0.309187	1.332126	0.192575	99
Es	0.475189	-1.192544	0.019621	99
Es	1.316252	1.991790	0.731717	99
Es	-0.567168	0.779807	-0.407030	99
Es	-0.725320	0.725164	0.201854	99
38
Properties=species:S:1:pos:R:3:Z:I:1 energy=-305.5809029651664 field_type=dipole dipole="0.000000 0.000000 0.000000" charge=0
C	-1.334677	0.757719	-0.278326	6
C	-0.032758	0.691949	0.049334	6
C	0.843603	-0.527721	0.168444	6
C	0.147003	-1.794701	-0.113716	6
C	-0.403857	-2.838401	-0.340126	6
C	0.649583	1.983909	0.335594	6
O	1.833742	2.048749	0.642694	8
H	-1.877337	1.696439	-0.336286	1
H	-1.909727	-0.136191	-0.502896	1
H	1.258243	-0.574811	1.182964	1
H	1.689523	-0.431371	-0.523256	1
H	-0.889427	-3.766111	-0.540206	1
H	0.026093	2.890539	0.255784	1
Es	0.475201	-1.192831	0.019491	99
Es	-1.684465	1.385714	-0.313194	99
Es	1.091521	-0.560485	0.827015	99
Es	0.147159	-1.794454	-0.113659	99
Es	1.388701	-0.465301	-0.287784	99
Es	-0.032631	0.691945	0.049371	99
Es	-0.566882	0.779971	-0.407099	99
Es	0.183799	-2.502859	-0.169656	99
Es	1.402971	2.021947	0.337193	99
Es	1.398937	2.003477	0.724707	99
Es	0.843463	-0.527785	0.168401	99
Es	0.212957	2.595222	0.277505	99
Es	1.854089	1.832098	0.629302	99
Es	2.042463	2.294655	0.713918	99
Es	1.833379	2.048766	0.642605	99
Es	0.309534	1.332139	0.191769	99
Es	0.649571	1.983876	0.335592	99
Es	-0.145778	-2.334436	-0.223348	99
Es	-0.725645	0.724844	0.202044	99
Es	-0.403988	-2.838609	-0.340190	99
Es	-0.444255	-2.138056	-0.295505	99
Es	-1.334755	0.757737	-0.278348	99
Es	-0.739013	-3.431781	-0.473940	99
Es	-1.731911	0.165360	-0.430906	99
Es	0.385150	0.067651	0.102678	99
38
Properties=species:S:1:pos:R:3:Z:I:1 energy=-305.5809029651664 field_type=dipole dipole="0.000000 0.000000 0.000000" charge=0
C	-1.334677	0.757719	-0.278326	6
C	-0.032758	0.691949	0.049334	6
C	0.843603	-0.527721	0.168444	6
C	0.147003	-1.794701	-0.113716	6
C	-0.403857	-2.838401	-0.340126	6
C	0.649583	1.983909	0.335594	6
O	1.833742	2.048749	0.642694	8
H	-1.877337	1.696439	-0.336286	1
H	-1.909727	-0.136191	-0.502896	1
H	1.258243	-0.574811	1.182964	1
H	1.689523	-0.431371	-0.523256	1
H	-0.889427	-3.766111	-0.540206	1
H	0.026093	2.890539	0.255784	1
Es	-0.403998	-2.838606	-0.340175	99
Es	1.833385	2.048827	0.642609	99
Es	-0.141555	-2.332936	-0.240536	99
Es	0.843462	-0.527786	0.168411	99
Es	0.649572	1.983877	0.335588	99
Es	0.147157	-1.794452	-0.113658	99
Es	1.382187	2.014539	0.374392	99
Es	1.386696	-0.465244	-0.289166	99
Es	0.213137	2.595139	0.277472	99
Es	2.046117	2.290655	0.713972	99
Es	1.850086	1.838878	0.628959	99
Es	0.474881	-1.192649	0.019260	99
Es	-0.566364	0.780504	-0.407345	99
Es	-0.446845	-2.139319	-0.283914	99
Es	-0.032629	0.691945	0.049366	99
Es	-1.334756	0.757737	-0.278344	99
Es	0.182117	-2.503119	-0.163827	99
Es	0.309815	1.331941	0.191781	99
Es	-1.684157	1.384972	-0.313284	99
Es	1.420036	2.008093	0.687824	99
Es	0.385360	0.067300	0.102415	99
Es	-0.726227	0.724644	0.202403	99
Es	1.093533	-0.560045	0.828591	99
Es	-1.732192	0.165500	-0.430879	99
Es	-0.739246	-3.431588	-0.473952	99
38
Properties=species:S:1:pos:R:3:Z:I:1 energy=-305.5809029651664 field_type=dipole dipole="0.000000 0.000000 0.000000" charge=0
C	-1.334677	0.757719	-0.278326	6
C	-0.032758	0.691949	0.049334	6
C	0.843603	-0.527721	0.168444	6
C	0.147003	-1.794701	-0.113716	6
C	-0.403857	-2.838401	-0.340126	6
C	0.649583	1.983909	0.335594	6
O	1.833742	2.048749	0.642694	8
H	-1.877337	1.696439	-0.336286	1
H	-1.909727	-0.136191	-0.502896	1
H	1.258243	-0.574811	1.182964	1
H	1.689523	-0.431371	-0.523256	1
H	-0.889427	-3.766111	-0.540206	1
H	0.026093	2.890539	0.255784	1
Es	1.374372	-0.465852	-0.291485	99
Es	1.313156	1.989278	0.625950	99
Es	-1.334761	0.757747	-0.278345	99
Es	-0.739394	-3.431157	-0.474846	99
Es	0.147171	-1.794463	-0.113651	99
Es	1.833360	2.048868	0.642608	99
Es	0.181733	-2.502985	-0.163256	99
Es	1.490857	2.031414	0.430777	99
Es	-0.404020	-2.838590	-0.340179	99
Es	0.474754	-1.192757	0.019433	99
Es	-0.144677	-2.334010	-0.228010	99
Es	1.848121	1.843572	0.627354	99
Es	-0.032630	0.691945	0.049367	99
Es	0.213156	2.595079	0.277834	99
Es	0.385497	0.067166	0.102525	99
Es	1.105606	-0.559223	0.831902	99
Es	2.046380	2.287878	0.720797	99
Es	-0.724477	0.726282	0.203411	99
Es	0.649572	1.983877	0.335588	99
Es	-0.443284	-2.138457	-0.296950	99
Es	-1.732255	0.165693	-0.431546	99
Es	0.843462	-0.527786	0.168403	99
Es	-1.683781	1.384567	-0.313790	99
Es	-0.568035	0.778910	-0.408644	99
Es	0.309689	1.331811	0.192712	99
38
Properties=species:S:1:pos:R:3:Z:I:1 energy=-305.5809029651664 field_type=dipole dipole="0.000000 0.000000 0.000000" charge=0
C	-1.334677	0.757719	-0.278326	6
C	-0.032758	0.691949	0.049334	6
C	0.843603	-0.527721	0.168444	6
C	0.147003	-1.794701	-0.113716	6
C	-0.403857	-2.838401	-0.340126	6
C	0.649583	1.983909	0.335594	6
O	1.833742	2.048749	0.642694	8
H	-1.877337	1.696439	-0.336286	1
H	-1.909727	-0.136191	-0.502896	1
H	1.258243	-0.574811	1.182964	1
H	1.689523	-0.431371	-0.523256	1
H	-0.889427	-3.766111	-0.540206	1
H	0.026093	2.890539	0.255784	1
Es	-0.403998	-2.838609	-0.340164	99
Es	-0.567761	0.779067	-0.409555	99
Es	1.099175	-0.559347	0.831815	99
Es	0.474521	-1.192495	0.019482	99
Es	0.649571	1.983879	0.335589	99
Es	0.843462	-0.527783	0.168403	99
Es	0.147167	-1.794459	-0.113670	99
Es	-0.724850	0.726377	0.204588	99
Es	-0.032630	0.691948	0.049363	99
Es	0.310135	1.331511	0.192454	99
Es	1.328508	1.994199	0.533878	99
Es	1.475607	2.024036	0.524104	99
Es	2.047581	2.287392	0.718954	99
Es	-1.334756	0.757736	-0.278344	99
Es	-0.442634	-2.138506	-0.298716	99
Es	-1.732680	0.166034	-0.431446	99
Es	-1.683419	1.383596	-0.313748	99
Es	-0.146256	-2.334512	-0.221823	99
Es	0.182734	-2.502480	-0.167782	99
Es	1.833385	2.048785	0.642606	99
Es	1.846773	1.846574	0.627983	99
Es	0.213221	2.595111	0.277764	99
Es	0.385441	0.066830	0.102444	99
Es	-0.739672	-3.430963	-0.474638	99
Es	1.380950	-0.465116	-0.291581	99
38
Properties=species:S:1:pos:R:3:Z:I:1 energy=-305.5809029651664 field_type=dipole dipole="0.000000 0.000000 0.000000" charge=0
C	-1.334677	0.757719	-0.278326	6
C	-0.032758	0.691949	0.049334	6
C	0.843603	-0.527721	0.168444	6
C	0.147003	-1.794701	-0.113716	6
C	-0.403857	-2.838401	-0.340126	6
C	0.649583	1.983909	0.335594	6
O	1.833742	2.048749	0.642694	8
H	-1.877337	1.696439	-0.336286	1
H	-1.909727	-0.136191	-0.502896	1
H	1.258243	-0.574811	1.182964	1
H	1.689523	-0.431371	-0.523256	1
H	-0.889427	-3.766111	-0.540206	1
H	0.026093	2.890539	0.255784	1
Es	0.310179	1.331671	0.192199	99
Es	0.649572	1.983877	0.335588	99
Es	-0.444884	-2.139477	-0.289053	99
Es	1.844614	1.850195	0.627943	99
Es	-0.032628	0.691943	0.049364	99
Es	1.473755	2.023321	0.532119	99
Es	0.385549	0.067031	0.102549	99
Es	1.833393	2.048800	0.642612	99
Es	-0.739979	-3.430704	-0.474513	99
Es	-1.334756	0.757736	-0.278343	99
Es	0.213340	2.595003	0.277722	99
Es	0.147165	-1.794458	-0.113656	99
Es	-1.683143	1.383539	-0.313786	99
Es	1.380965	-0.465209	-0.291273	99
Es	0.474553	-1.192788	0.019396	99
Es	-0.723322	0.727843	0.204434	99
Es	1.330362	1.993582	0.526714	99
Es	-1.732908	0.166054	-0.431369	99
Es	0.180323	-2.503077	-0.158980	99
Es	2.049719	2.285139	0.718193	99
Es	-0.404011	-2.838602	-0.340173	99
Es	-0.141547	-2.333015	-0.240214	99
Es	0.843461	-0.527786	0.168408	99
Es	-0.569346	0.777573	-0.409118	99
Es	1.099145	-0.559382	0.831198	99
38
Properties=species:S:1:pos:R:3:Z:I:1 energy=-305.5809029651664 field_type=dipole dipole="0.000000 0.000000 0.000000" charge=0
C	-1.334677	0.757719	-0.278326	6
C	-0.032758	0.691949	0.049334	6
C	0.843603	-0.527721	0.168444	6
C	0.147003	-1.794701	-0.113716	6
C	-0.403857	-2.838401	-0.340126	6
C	0.649583	1.983909	0.335594	6
O	1.833742	2.048749	0.642694	8
H	-1.877337	1.696439	-0.336286	1
H	-1.909727	-0.136191	-0.502896	1
H	1.258243	-0.574811	1.182964	1
H	1.689523	-0.431371	-0.523256	1
H	-0.889427	-3.766111	-0.540206	1
H	0.026093	2.890539	0.255784	1
Es	-0.404001	-2.838604	-0.340179	99
Es	-0.143531	-2.333654	-0.232464	99
Es	-1.334758	0.757739	-0.278345	99
Es	-0.032628	0.691945	0.049363	99
Es	1.843482	1.852260	0.628165	99
Es	-1.682989	1.383577	-0.313455	99
Es	-0.724621	0.726275	0.203461	99
Es	-0.740341	-3.430310	-0.474565	99
Es	0.310135	1.331805	0.192279	99
Es	-0.567963	0.778962	-0.408403	99
Es	0.843470	-0.527783	0.168401	99
Es	1.469030	2.021670	0.551286	99
Es	-1.733091	0.166057	-0.431339	99
Es	1.833328	2.048871	0.642597	99
Es	-0.443784	-2.139386	-0.292449	99
Es	2.050796	2.283957	0.717805	99
Es	0.385814	0.067346	0.102529	99
Es	1.098704	-0.559507	0.830528	99
Es	0.147164	-1.794455	-0.113658	99
Es	0.649572	1.983877	0.335588	99
Es	0.213418	2.594880	0.277728	99
Es	0.181220	-2.502527	-0.163406	99
Es	1.381247	-0.465267	-0.290591	99
Es	0.474694	-1.193283	0.019363	99
Es	1.335205	1.994362	0.507724	99
