44
Properties=species:S:1:pos:R:3:Z:I:1 energy=-307.964218834077 field_type=dipole dipole="0.000000 0.000000 0.000000" charge=0
C	-3.281895	0.709475	0.278875	6
C	-1.925045	0.219885	0.668605	6
C	-0.836585	0.350085	-0.103965	6
C	0.466585	-0.131755	0.291315	6
C	1.564365	0.045015	-0.458905	6
C	2.924875	-0.436655	-0.077545	6
O	3.440435	-1.218265	-1.143445	8
H	-3.629325	1.457425	0.997845	1
H	-3.991925	-0.123025	0.278205	1
H	-3.289105	1.163705	-0.716805	1
H	-1.854355	-0.260935	1.641285	1
H	-0.918185	0.838655	-1.072695	1
H	0.538925	-0.652695	1.244065	1
H	1.502396	0.578045	-1.405095	1
H	2.915895	-1.047855	0.830625	1
H	3.594685	0.413115	0.082595	1
H	2.778255	-1.904215	-1.334965	1
Es	-3.281859	0.709459	0.278892	99
Es	-1.925165	0.219881	0.668663	99
Es	2.904741	-0.852265	0.553443	99
Es	-3.753581	0.143428	0.282325	99
Es	2.232328	-0.191504	-0.258562	99
Es	-1.879990	-0.107919	1.331965	99
Es	-0.836497	0.350085	-0.104010	99
Es	-0.885422	0.681245	-0.764054	99
Es	1.525673	0.404126	-1.101862	99
Es	0.946720	-0.331259	-0.238832	99
Es	2.924913	-0.436770	-0.077739	99
Es	-3.508437	1.210817	0.768460	99
Es	3.071890	-1.581243	-1.228932	99
Es	-1.282767	0.565352	0.414983	99
Es	3.440124	-1.218343	-1.143248	99
Es	-1.412604	-0.007123	0.139035	99
Es	0.510008	-0.485703	0.939981	99
Es	-0.183755	0.108435	0.094290	99
Es	-3.280024	1.016962	-0.397810	99
Es	3.691017	-1.360387	-1.037822	99
Es	-2.602348	0.466325	0.470056	99
Es	1.060347	0.235036	0.064825	99
Es	3.374231	0.143565	0.029049	99
Es	3.223809	-0.934226	-0.737103	99
Es	0.466489	-0.131786	0.291361	99
Es	3.443095	-1.034485	-1.388346	99
Es	1.564447	0.045016	-0.458949	99
44
Properties=species:S:1:pos:R:3:Z:I:1 energy=-307.964218834077 field_type=dipole dipole="0.000000 0.000000 0.000000" charge=0
C	-3.281895	0.709475	0.278875	6
C	-1.925045	0.219885	0.668605	6
C	-0.836585	0.350085	-0.103965	6
C	0.466585	-0.131755	0.291315	6
C	1.564365	0.045015	-0.458905	6
C	2.924875	-0.436655	-0.077545	6
O	3.440435	-1.218265	-1.143445	8
H	-3.629325	1.457425	0.997845	1
H	-3.991925	-0.123025	0.278205	1
H	-3.289105	1.163705	-0.716805	1
H	-1.854355	-0.260935	1.641285	1
H	-0.918185	0.838655	-1.072695	1
H	0.538925	-0.652695	1.244065	1
H	1.502396	0.578045	-1.405095	1
H	2.915895	-1.047855	0.830625	1
H	3.594685	0.413115	0.082595	1
H	2.778255	-1.904215	-1.334965	1
Es	3.440110	-1.218273	-1.143340	99
Es	0.466490	-0.131765	0.291374	99
Es	3.374259	0.143096	0.030433	99
Es	-2.601902	0.465827	0.471024	99
Es	2.905006	-0.851846	0.551618	99
Es	-0.885292	0.680449	-0.762024	99
Es	-1.282319	0.567802	0.415616	99
Es	-3.280471	1.016620	-0.396002	99
Es	-1.413354	-0.009204	0.137745	99
Es	1.525328	0.402261	-1.100422	99
Es	3.416870	-1.038802	-1.374893	99
Es	0.509920	-0.484850	0.937794	99
Es	-3.281859	0.709458	0.278892	99
Es	2.232019	-0.191516	-0.259464	99
Es	3.224754	-0.936256	-0.734933	99
Es	-0.836482	0.350087	-0.104017	99
Es	-1.879907	-0.107438	1.329744	99
Es	3.074606	-1.581094	-1.226475	99
Es	-0.183723	0.108564	0.094611	99
Es	0.946723	-0.333026	-0.239124	99
Es	-1.925168	0.219885	0.668665	99
Es	1.060866	0.238091	0.066441	99
Es	3.714715	-1.353785	-1.055942	99
Es	1.564455	0.045021	-0.458951	99
Es	-3.507958	1.210785	0.767022	99
Es	2.924910	-0.436768	-0.077736	99
Es	-3.755216	0.143400	0.282398	99
44
Properties=species:S:1:pos:R:3:Z:I:1 energy=-307.964218834077 field_type=dipole dipole="0.000000 0.000000 0.000000" charge=0
C	-3.281895	0.709475	0.278875	6
C	-1.925045	0.219885	0.668605	6
C	-0.836585	0.350085	-0.103965	6
C	0.466585	-0.131755	0.291315	6
C	1.564365	0.045015	-0.458905	6
C	2.924875	-0.436655	-0.077545	6
O	3.440435	-1.218265	-1.143445	8
H	-3.629325	1.457425	0.997845	1
H	-3.991925	-0.123025	0.278205	1
H	-3.289105	1.163705	-0.716805	1
H	-1.854355	-0.260935	1.641285	1
H	-0.918185	0.838655	-1.072695	1
H	0.538925	-0.652695	1.244065	1
H	1.502396	0.578045	-1.405095	1
H	2.915895	-1.047855	0.830625	1
H	3.594685	0.413115	0.082595	1
H	2.778255	-1.904215	-1.334965	1
Es	0.466489	-0.131768	0.291373	99
Es	-3.281873	1.017857	-0.396681	99
Es	3.402986	-1.202321	-1.151530	99
Es	1.060700	0.235670	0.065634	99
Es	2.231978	-0.191161	-0.259877	99
Es	-1.879221	-0.108300	1.329636	99
Es	1.564455	0.045021	-0.458952	99
Es	0.947037	-0.330405	-0.237948	99
Es	2.924910	-0.436767	-0.077735	99
Es	2.905947	-0.851950	0.552169	99
Es	-1.925169	0.219881	0.668664	99
Es	-0.885957	0.681420	-0.761830	99
Es	0.510666	-0.485425	0.937798	99
Es	3.429184	-1.212734	-1.146799	99
Es	-0.183638	0.108538	0.094710	99
Es	3.077055	-1.582300	-1.230994	99
Es	-3.281860	0.709459	0.278893	99
Es	-1.282591	0.565239	0.414688	99
Es	-3.506808	1.208365	0.764995	99
Es	3.223694	-0.932571	-0.732012	99
Es	-0.836481	0.350089	-0.104017	99
Es	-2.601075	0.465570	0.471917	99
Es	3.372735	0.141098	0.030233	99
Es	-3.756464	0.145165	0.284110	99
Es	1.524343	0.402637	-1.100539	99
Es	3.739586	-1.197115	-1.274230	99
Es	-1.413249	-0.006472	0.138381	99
44
Properties=species:S:1:pos:R:3:Z:I:1 energy=-307.964218834077 field_type=dipole dipole="0.000000 0.000000 0.000000" charge=0
C	-3.281895	0.709475	0.278875	6
C	-1.925045	0.219885	0.668605	6
C	-0.836585	0.350085	-0.103965	6
C	0.466585	-0.131755	0.291315	6
C	1.564365	0.045015	-0.458905	6
C	2.924875	-0.436655	-0.077545	6
O	3.440435	-1.218265	-1.143445	8
H	-3.629325	1.457425	0.997845	1
H	-3.991925	-0.123025	0.278205	1
H	-3.289105	1.163705	-0.716805	1
H	-1.854355	-0.260935	1.641285	1
H	-0.918185	0.838655	-1.072695	1
H	0.538925	-0.652695	1.244065	1
H	1.502396	0.578045	-1.405095	1
H	2.915895	-1.047855	0.830625	1
H	3.594685	0.413115	0.082595	1
H	2.778255	-1.904215	-1.334965	1
Es	-0.183378	0.108694	0.094551	99
Es	2.906538	-0.851637	0.551408	99
Es	1.564457	0.045020	-0.458951	99
Es	-0.886713	0.681232	-0.760472	99
Es	0.466488	-0.131767	0.291372	99
Es	3.731266	-1.183861	-1.290907	99
Es	-1.413717	-0.006441	0.138218	99
Es	-3.760350	0.146105	0.287148	99
Es	3.434775	-1.215993	-1.144461	99
Es	3.408054	-1.215241	-1.135781	99
Es	-2.600917	0.465289	0.472557	99
Es	0.947139	-0.330462	-0.237823	99
Es	-3.281861	0.709459	0.278894	99
Es	3.371015	0.139524	0.030839	99
Es	2.924910	-0.436767	-0.077736	99
Es	-0.836481	0.350089	-0.104016	99
Es	2.231854	-0.191010	-0.260377	99
Es	-1.282214	0.565399	0.414667	99
Es	3.216081	-0.936481	-0.731785	99
Es	3.084312	-1.574115	-1.232913	99
Es	-3.282951	1.017936	-0.395662	99
Es	-1.878341	-0.108132	1.328108	99
Es	0.511150	-0.485191	0.936637	99
Es	1.060830	0.236056	0.066021	99
Es	1.523726	0.402088	-1.099696	99
Es	-3.503125	1.207042	0.761557	99
Es	-1.925170	0.219887	0.668663	99
44
Properties=species:S:1:pos:R:3:Z:I:1 energy=-307.964218834077 field_type=dipole dipole="0.000000 0.000000 0.000000" charge=0
C	-3.281895	0.709475	0.278875	6
C	-1.925045	0.219885	0.668605	6
C	-0.836585	0.350085	-0.103965	6
C	0.466585	-0.131755	0.291315	6
C	1.564365	0.045015	-0.458905	6
C	2.924875	-0.436655	-0.077545	6
O	3.440435	-1.218265	-1.143445	8
H	-3.629325	1.457425	0.997845	1
H	-3.991925	-0.123025	0.278205	1
H	-3.289105	1.163705	-0.716805	1
H	-1.854355	-0.260935	1.641285	1
H	-0.918185	0.838655	-1.072695	1
H	0.538925	-0.652695	1.244065	1
H	1.502396	0.578045	-1.405095	1
H	2.915895	-1.047855	0.830625	1
H	3.594685	0.413115	0.082595	1
H	2.778255	-1.904215	-1.334965	1
Es	-3.283622	1.017632	-0.394392	99
Es	2.924909	-0.436764	-0.077733	99
Es	1.061025	0.237085	0.066579	99
Es	-1.925170	0.219885	0.668661	99
Es	3.414824	-1.220821	-1.130658	99
Es	3.369286	0.138265	0.031353	99
Es	-2.600734	0.465066	0.472708	99
Es	3.727711	-1.177977	-1.296857	99
Es	-3.496383	1.203757	0.754871	99
Es	3.200309	-0.949549	-0.732534	99
Es	1.522995	0.401343	-1.098263	99
Es	3.432081	-1.216107	-1.143303	99
Es	-1.281690	0.566153	0.414791	99
Es	-0.836481	0.350089	-0.104016	99
Es	0.511598	-0.484660	0.935307	99
Es	2.907018	-0.851110	0.550234	99
Es	-3.281860	0.709459	0.278893	99
Es	0.947110	-0.331215	-0.238035	99
Es	1.564455	0.045018	-0.458953	99
Es	-0.887189	0.680814	-0.759123	99
Es	-0.183393	0.108700	0.094497	99
Es	-1.877801	-0.107710	1.326852	99
Es	0.466488	-0.131766	0.291372	99
Es	3.101577	-1.559641	-1.232655	99
Es	-3.767248	0.149198	0.293655	99
Es	-1.414387	-0.007142	0.137840	99
Es	2.231951	-0.191279	-0.261035	99
44
Properties=species:S:1:pos:R:3:Z:I:1 energy=-307.964218834077 field_type=dipole dipole="0.000000 0.000000 0.000000" charge=0
C	-3.281895	0.709475	0.278875	6
C	-1.925045	0.219885	0.668605	6
C	-0.836585	0.350085	-0.103965	6
C	0.466585	-0.131755	0.291315	6
C	1.564365	0.045015	-0.458905	6
C	2.924875	-0.436655	-0.077545	6
O	3.440435	-1.218265	-1.143445	8
H	-3.629325	1.457425	0.997845	1
H	-3.991925	-0.123025	0.278205	1
H	-3.289105	1.163705	-0.716805	1
H	-1.854355	-0.260935	1.641285	1
H	-0.918185	0.838655	-1.072695	1
H	0.538925	-0.652695	1.244065	1
H	1.502396	0.578045	-1.405095	1
H	2.915895	-1.047855	0.830625	1
H	3.594685	0.413115	0.082595	1
H	2.778255	-1.904215	-1.334965	1
Es	-1.877126	-0.106965	1.325157	99
Es	-3.771731	0.152618	0.298884	99
Es	3.724707	-1.174173	-1.301518	99
Es	-3.491973	1.200238	0.749661	99
Es	-3.284114	1.017048	-0.392955	99
Es	1.061240	0.238437	0.067189	99
Es	-0.887662	0.680004	-0.757807	99
Es	1.564456	0.045021	-0.458950	99
Es	0.946999	-0.332354	-0.238398	99
Es	3.438722	-1.217459	-1.143886	99
Es	0.512170	-0.483947	0.933830	99
Es	3.119698	-1.540861	-1.225748	99
Es	-2.600928	0.464867	0.472959	99
Es	-0.836484	0.350076	-0.104020	99
Es	-1.925170	0.219884	0.668660	99
Es	0.466488	-0.131767	0.291371	99
Es	-0.183463	0.108664	0.094681	99
Es	-3.281860	0.709457	0.278894	99
Es	2.924909	-0.436765	-0.077734	99
Es	-1.281404	0.567368	0.415119	99
Es	3.409635	-1.221452	-1.127946	99
Es	1.522387	0.400425	-1.096859	99
Es	3.184105	-0.969841	-0.737007	99
Es	2.907551	-0.850331	0.548710	99
Es	-1.414714	-0.008182	0.137468	99
Es	2.231756	-0.191744	-0.261502	99
Es	3.369184	0.138458	0.031805	99
44
Properties=species:S:1:pos:R:3:Z:I:1 energy=-307.964218834077 field_type=dipole dipole="0.000000 0.000000 0.000000" charge=0
C	-3.281895	0.709475	0.278875	6
C	-1.925045	0.219885	0.668605	6
C	-0.836585	0.350085	-0.103965	6
C	0.466585	-0.131755	0.291315	6
C	1.564365	0.045015	-0.458905	6
C	2.924875	-0.436655	-0.077545	6
O	3.440435	-1.218265	-1.143445	8
H	-3.629325	1.457425	0.997845	1
H	-3.991925	-0.123025	0.278205	1
H	-3.289105	1.163705	-0.716805	1
H	-1.854355	-0.260935	1.641285	1
H	-0.918185	0.838655	-1.072695	1
H	0.538925	-0.652695	1.244065	1
H	1.502396	0.578045	-1.405095	1
H	2.915895	-1.047855	0.830625	1
H	3.594685	0.413115	0.082595	1
H	2.778255	-1.904215	-1.334965	1
Es	-1.280709	0.568102	0.415219	99
Es	0.466488	-0.131766	0.291370	99
Es	1.564456	0.045021	-0.458948	99
Es	-3.774868	0.156183	0.303411	99
Es	-1.876163	-0.105991	1.323105	99
Es	-1.415504	-0.008759	0.137244	99
Es	-3.284354	1.016551	-0.392064	99
Es	0.512828	-0.483121	0.932604	99
Es	3.410623	-1.223700	-1.125294	99
Es	-3.281860	0.709458	0.278894	99
Es	-0.836481	0.350093	-0.104011	99
Es	3.368918	0.138484	0.032066	99
Es	1.521493	0.399325	-1.094965	99
Es	2.907935	-0.849606	0.547506	99
Es	3.131121	-1.524847	-1.219051	99
Es	0.946882	-0.333282	-0.238691	99
Es	2.924910	-0.436761	-0.077730	99
Es	-2.601553	0.464340	0.474293	99
Es	3.439984	-1.218190	-1.143401	99
Es	3.721380	-1.171060	-1.306567	99
Es	-0.183516	0.108536	0.094592	99
Es	-3.488764	1.196709	0.745330	99
Es	-0.888213	0.679222	-0.756431	99
Es	-1.925170	0.219885	0.668660	99
Es	3.174136	-0.985689	-0.741900	99
Es	2.231993	-0.191839	-0.262749	99
Es	1.061384	0.239424	0.067568	99
44
Properties=species:S:1:pos:R:3:Z:I:1 energy=-307.964218834077 field_type=dipole dipole="0.000000 0.000000 0.000000" charge=0
C	-3.281895	0.709475	0.278875	6
C	-1.925045	0.219885	0.668605	6
C	-0.836585	0.350085	-0.103965	6
C	0.466585	-0.131755	0.291315	6
C	1.564365	0.045015	-0.458905	6
C	2.924875	-0.436655	-0.077545	6
O	3.440435	-1.218265	-1.143445	8
H	-3.629325	1.457425	0.997845	1
H	-3.991925	-0.123025	0.278205	1
H	-3.289105	1.163705	-0.716805	1
H	-1.854355	-0.260935	1.641285	1
H	-0.918185	0.838655	-1.072695	1
H	0.538925	-0.652695	1.244065	1
H	1.502396	0.578045	-1.405095	1
H	2.915895	-1.047855	0.830625	1
H	3.594685	0.413115	0.082595	1
H	2.778255	-1.904215	-1.334965	1
Es	-0.888811	0.678441	-0.755169	99
Es	2.924910	-0.436760	-0.077731	99
Es	3.164829	-1.003750	-0.747625	99
Es	-2.602363	0.463505	0.476233	99
Es	-0.183588	0.108357	0.094775	99
Es	3.368851	0.138690	0.032253	99
Es	0.466489	-0.131765	0.291371	99
Es	2.232008	-0.192006	-0.263824	99
Es	-3.284293	1.016208	-0.391662	99
Es	-3.487251	1.194905	0.743207	99
Es	0.946933	-0.334009	-0.238853	99
Es	3.718627	-1.167400	-1.310239	99
Es	-1.415424	-0.009545	0.136952	99
Es	3.429257	-1.217686	-1.140209	99
Es	-3.281862	0.709458	0.278893	99
Es	3.422460	-1.225535	-1.127014	99
Es	-1.925170	0.219885	0.668660	99
Es	-3.776273	0.157956	0.305730	99
Es	1.061404	0.240329	0.067897	99
Es	1.564459	0.045015	-0.458946	99
Es	-0.836481	0.350086	-0.104014	99
Es	-1.875309	-0.104875	1.320930	99
Es	3.142152	-1.509016	-1.211268	99
Es	0.513514	-0.482261	0.931171	99
Es	1.520711	0.398221	-1.093088	99
Es	2.908455	-0.848727	0.546212	99
Es	-1.280856	0.569000	0.415413	99
44
Properties=species:S:1:pos:R:3:Z:I:1 energy=-307.964218834077 field_type=dipole dipole="0.000000 0.000000 0.000000" charge=0
C	-3.281895	0.709475	0.278875	6
C	-1.925045	0.219885	0.668605	6
C	-0.836585	0.350085	-0.103965	6
C	0.466585	-0.131755	0.291315	6
C	1.564365	0.045015	-0.458905	6
C	2.924875	-0.436655	-0.077545	6
O	3.440435	-1.218265	-1.143445	8
H	-3.629325	1.457425	0.997845	1
H	-3.991925	-0.123025	0.278205	1
H	-3.289105	1.163705	-0.716805	1
H	-1.854355	-0.260935	1.641285	1
H	-0.918185	0.838655	-1.072695	1
H	0.538925	-0.652695	1.244065	1
H	1.502396	0.578045	-1.405095	1
H	2.915895	-1.047855	0.830625	1
H	3.594685	0.413115	0.082595	1
H	2.778255	-1.904215	-1.334965	1
Es	1.564455	0.045014	-0.458951	99
Es	0.946899	-0.334387	-0.238906	99
Es	3.147680	-1.500444	-1.206288	99
Es	2.232333	-0.191656	-0.265701	99
Es	0.466486	-0.131765	0.291367	99
Es	2.908759	-0.848270	0.545711	99
Es	-3.281860	0.709458	0.278895	99
Es	-3.283480	1.016205	-0.392652	99
Es	-0.836481	0.350087	-0.104013	99
Es	-1.874355	-0.103217	1.317432	99
Es	3.161777	-1.012609	-0.750071	99
Es	1.519965	0.396952	-1.091005	99
Es	2.924910	-0.436760	-0.077731	99
Es	-2.604109	0.461615	0.480733	99
Es	0.514100	-0.481560	0.929928	99
Es	-1.925170	0.219887	0.668659	99
Es	3.416725	-1.227108	-1.122806	99
Es	3.715938	-1.165125	-1.314041	99
Es	3.435994	-1.217310	-1.143143	99
Es	-1.415519	-0.009928	0.136876	99
Es	-3.778074	0.161124	0.309216	99
Es	-0.889402	0.677679	-0.753858	99
Es	-3.485290	1.191912	0.740005	99
Es	-1.280749	0.569549	0.415530	99
Es	1.061507	0.240850	0.068099	99
Es	3.367939	0.138214	0.032116	99
Es	-0.183601	0.108313	0.094657	99
44
Properties=species:S:1:pos:R:3:Z:I:1 energy=-307.964218834077 field_type=dipole dipole="0.000000 0.000000 0.000000" charge=0
C	-3.281895	0.709475	0.278875	6
C	-1.925045	0.219885	0.668605	6
C	-0.836585	0.350085	-0.103965	6
C	0.466585	-0.131755	0.291315	6
C	1.564365	0.045015	-0.458905	6
C	2.924875	-0.436655	-0.077545	6
O	3.440435	-1.218265	-1.143445	8
H	-3.629325	1.457425	0.997845	1
H	-3.991925	-0.123025	0.278205	1
H	-3.289105	1.163705	-0.716805	1
H	-1.854355	-0.260935	1.641285	1
H	-0.918185	0.838655	-1.072695	1
H	0.538925	-0.652695	1.244065	1
H	1.502396	0.578045	-1.405095	1
H	2.915895	-1.047855	0.830625	1
H	3.594685	0.413115	0.082595	1
H	2.778255	-1.904215	-1.334965	1
Es	-1.415800	-0.010037	0.136924	99
Es	-0.889810	0.677045	-0.752927	99
Es	3.418725	-1.221278	-1.131514	99
Es	-3.779281	0.163677	0.311886	99
Es	1.564456	0.045016	-0.458948	99
Es	-3.281859	0.709458	0.278901	99
Es	3.153412	-1.490783	-1.200917	99
Es	1.519389	0.395745	-1.088906	99
Es	-1.873642	-0.101043	1.313015	99
Es	3.434010	-1.223105	-1.134412	99
Es	2.232251	-0.191423	-0.267077	99
Es	3.714919	-1.164752	-1.315585	99
Es	3.367848	0.138285	0.032054	99
Es	0.466488	-0.131762	0.291368	99
Es	2.924908	-0.436762	-0.077734	99
Es	3.157033	-1.022632	-0.753994	99
Es	0.514328	-0.481132	0.929525	99
Es	-2.606878	0.458886	0.487532	99
Es	-1.925170	0.219887	0.668657	99
Es	-0.836480	0.350086	-0.104012	99
Es	-3.281411	1.016709	-0.395006	99
Es	-0.183408	0.108497	0.094146	99
Es	-3.483855	1.189427	0.737679	99
Es	-1.280533	0.569730	0.415392	99
Es	2.909313	-0.847472	0.544775	99
Es	0.946986	-0.334757	-0.238927	99
Es	1.061441	0.241210	0.068162	99
44
Properties=species:S:1:pos:R:3:Z:I:1 energy=-307.964218834077 field_type=dipole dipole="0.000000 0.000000 0.000000" charge=0
C	-3.281895	0.709475	0.278875	6
C	-1.925045	0.219885	0.668605	6
C	-0.836585	0.350085	-0.103965	6
C	0.466585	-0.131755	0.291315	6
C	1.564365	0.045015	-0.458905	6
C	2.924875	-0.436655	-0.077545	6
O	3.440435	-1.218265	-1.143445	8
H	-3.629325	1.457425	0.997845	1
H	-3.991925	-0.123025	0.278205	1
H	-3.289105	1.163705	-0.716805	1
H	-1.854355	-0.260935	1.641285	1
H	-0.918185	0.838655	-1.072695	1
H	0.538925	-0.652695	1.244065	1
H	1.502396	0.578045	-1.405095	1
H	2.915895	-1.047855	0.830625	1
H	3.594685	0.413115	0.082595	1
H	2.778255	-1.904215	-1.334965	1
Es	2.924909	-0.436761	-0.077733	99
Es	2.232035	-0.191521	-0.267847	99
Es	-1.280919	0.570077	0.415575	99
Es	3.435474	-1.217592	-1.142605	99
Es	2.909776	-0.846749	0.543821	99
Es	-1.873470	-0.099041	1.308939	99
Es	0.466488	-0.131763	0.291369	99
Es	3.367282	0.137802	0.032039	99
Es	1.519096	0.394856	-1.087308	99
Es	1.564466	0.045009	-0.458940	99
Es	1.061502	0.241237	0.068188	99
Es	-1.415392	-0.010248	0.136796	99
Es	-0.889939	0.676807	-0.752756	99
Es	3.155225	-1.029319	-0.755835	99
Es	3.713896	-1.163896	-1.316968	99
Es	-3.278420	1.016968	-0.397314	99
Es	-0.183815	0.107999	0.095221	99
Es	-1.925171	0.219888	0.668657	99
Es	3.156399	-1.483890	-1.198221	99
Es	3.417639	-1.227236	-1.122795	99
Es	0.514821	-0.480426	0.928214	99
Es	-0.836480	0.350088	-0.104012	99
Es	-3.281860	0.709457	0.278896	99
Es	-2.610002	0.456530	0.493963	99
Es	0.946952	-0.334807	-0.238913	99
Es	-3.482702	1.187006	0.735357	99
Es	-3.780412	0.166244	0.314270	99
44
Properties=species:S:1:pos:R:3:Z:I:1 energy=-307.964218834077 field_type=dipole dipole="0.000000 0.000000 0.000000" charge=0
C	-3.281895	0.709475	0.278875	6
C	-1.925045	0.219885	0.668605	6
C	-0.836585	0.350085	-0.103965	6
C	0.466585	-0.131755	0.291315	6
C	1.564365	0.045015	-0.458905	6
C	2.924875	-0.436655	-0.077545	6
O	3.440435	-1.218265	-1.143445	8
H	-3.629325	1.457425	0.997845	1
H	-3.991925	-0.123025	0.278205	1
H	-3.289105	1.163705	-0.716805	1
H	-1.854355	-0.260935	1.641285	1
H	-0.918185	0.838655	-1.072695	1
H	0.538925	-0.652695	1.244065	1
H	1.502396	0.578045	-1.405095	1
H	2.915895	-1.047855	0.830625	1
H	3.594685	0.413115	0.082595	1
H	2.778255	-1.904215	-1.334965	1
Es	3.157986	-1.481631	-1.196463	99
Es	0.946989	-0.334855	-0.238870	99
Es	-3.275772	1.016960	-0.398821	99
Es	3.713942	-1.164431	-1.317041	99
Es	-3.781761	0.169793	0.317321	99
Es	3.366699	0.137163	0.031840	99
Es	0.466485	-0.131760	0.291365	99
Es	-1.925171	0.219889	0.668655	99
Es	1.564457	0.045015	-0.458947	99
Es	-0.184046	0.107621	0.095883	99
Es	-3.481283	1.183726	0.732453	99
Es	-2.612557	0.454357	0.499254	99
Es	0.515151	-0.479937	0.927486	99
Es	-0.836479	0.350090	-0.104010	99
Es	-3.281861	0.709458	0.278894	99
Es	2.909947	-0.846554	0.543707	99
Es	2.924909	-0.436762	-0.077734	99
Es	1.061458	0.241305	0.068142	99
Es	2.232051	-0.191037	-0.268986	99
Es	1.518879	0.394098	-1.086117	99
Es	-1.873517	-0.097047	1.305195	99
Es	3.412695	-1.226097	-1.122595	99
Es	-0.890006	0.676677	-0.752645	99
Es	-1.415638	-0.010171	0.136889	99
Es	-1.280713	0.570028	0.415427	99
Es	3.154595	-1.031038	-0.756793	99
Es	3.439940	-1.218140	-1.143433	99
