38
Properties=species:S:1:pos:R:3:Z:I:1 energy=-305.57888878214976 field_type=dipole dipole="0.000000 0.000000 0.000000" charge=0
C	-2.649640	-0.636629	0.002980	6
C	-1.156440	-0.608259	0.003580	6
C	-0.450610	0.530931	-0.002710	6
C	0.955390	0.530931	-0.002710	6
C	2.145550	0.530931	-0.002710	6
C	3.585360	0.543861	-0.002710	6
O	4.206160	1.596891	-0.002720	8
H	-3.002630	-1.672619	-0.019980	1
H	-3.050780	-0.127699	-0.878920	1
H	-3.049050	-0.167079	0.907150	1
H	-0.647070	-1.569289	0.009020	1
H	-0.958230	1.491921	-0.007550	1
H	4.071990	-0.443889	-0.002720	1
Es	2.832537	0.521997	-0.001125	99
Es	2.145803	0.530910	-0.002708	99
Es	4.206017	1.596641	-0.002730	99
Es	3.904019	-0.129979	-0.002650	99
Es	-1.156520	-0.608332	0.003580	99
Es	1.625186	0.651541	-0.322675	99
Es	4.515062	1.550041	-0.002539	99
Es	1.542552	0.166203	0.047757	99
Es	4.020374	1.844877	-0.003377	99
Es	3.585235	0.543852	-0.002718	99
Es	-0.779338	1.176540	-0.006069	99
Es	-0.817316	-1.257268	0.007446	99
Es	1.597768	0.751746	0.265451	99
Es	0.275950	0.537951	-0.002854	99
Es	-1.898158	-0.621218	0.003062	99
Es	0.955146	0.530926	-0.002716	99
Es	-2.885205	-1.338940	-0.012568	99
Es	-0.734342	0.001322	-0.318162	99
Es	3.967708	1.203165	0.248496	99
Es	-0.450453	0.531014	-0.002722	99
Es	-2.902929	-0.316417	0.608280	99
Es	-2.904775	-0.289390	-0.587193	99
Es	-2.649578	-0.636631	0.002980	99
Es	3.968458	1.203115	-0.253487	99
Es	-0.734553	0.005081	0.318372	99
38
Properties=species:S:1:pos:R:3:Z:I:1 energy=-305.57888878214976 field_type=dipole dipole="0.000000 0.000000 0.000000" charge=0
C	-2.649640	-0.636629	0.002980	6
C	-1.156440	-0.608259	0.003580	6
C	-0.450610	0.530931	-0.002710	6
C	0.955390	0.530931	-0.002710	6
C	2.145550	0.530931	-0.002710	6
C	3.585360	0.543861	-0.002710	6
O	4.206160	1.596891	-0.002720	8
H	-3.002630	-1.672619	-0.019980	1
H	-3.050780	-0.127699	-0.878920	1
H	-3.049050	-0.167079	0.907150	1
H	-0.647070	-1.569289	0.009020	1
H	-0.958230	1.491921	-0.007550	1
H	4.071990	-0.443889	-0.002720	1
Es	-0.735085	0.001874	-0.313150	99
Es	-0.450449	0.531015	-0.002707	99
Es	1.599156	0.740724	-0.264368	99
Es	3.962188	1.208199	-0.245813	99
Es	-2.649581	-0.636631	0.002981	99
Es	-2.902284	-0.317136	0.597962	99
Es	-0.817181	-1.253018	0.007215	99
Es	1.622420	0.669645	0.284953	99
Es	3.904152	-0.128018	-0.002801	99
Es	-0.734876	0.005394	0.313492	99
Es	3.585229	0.543845	-0.002721	99
Es	3.962042	1.207346	0.240492	99
Es	-2.893079	-1.341191	-0.012353	99
Es	-0.780019	1.172170	-0.005941	99
Es	-1.895366	-0.617960	0.003132	99
Es	-2.903836	-0.291347	-0.577050	99
Es	0.955138	0.530931	-0.002709	99
Es	2.145819	0.530934	-0.002709	99
Es	2.833174	0.528262	-0.003454	99
Es	4.539923	1.586345	-0.002976	99
Es	1.543164	0.158410	-0.028245	99
Es	0.279588	0.532193	-0.002367	99
Es	4.206043	1.596571	-0.002723	99
Es	4.008891	1.798524	-0.002586	99
Es	-1.156523	-0.608332	0.003578	99
38
Properties=species:S:1:pos:R:3:Z:I:1 energy=-305.57888878214976 field_type=dipole dipole="0.000000 0.000000 0.000000" charge=0
C	-2.649640	-0.636629	0.002980	6
C	-1.156440	-0.608259	0.003580	6
C	-0.450610	0.530931	-0.002710	6
C	0.955390	0.530931	-0.002710	6
C	2.145550	0.530931	-0.002710	6
C	3.585360	0.543861	-0.002710	6
O	4.206160	1.596891	-0.002720	8
H	-3.002630	-1.672619	-0.019980	1
H	-3.050780	-0.127699	-0.878920	1
H	-3.049050	-0.167079	0.907150	1
H	-0.647070	-1.569289	0.009020	1
H	-0.958230	1.491921	-0.007550	1
H	4.071990	-0.443889	-0.002720	1
Es	1.664767	0.543808	-0.201468	99
Es	-0.450451	0.531015	-0.002727	99
Es	3.951981	1.215485	0.242415	99
Es	1.554133	0.864088	0.131365	99
Es	0.281167	0.530102	-0.003060	99
Es	3.585227	0.543842	-0.002707	99
Es	1.545735	0.161391	0.060939	99
Es	-1.894679	-0.616940	0.004479	99
Es	2.832769	0.530539	-0.000892	99
Es	-2.904527	-0.289925	-0.571201	99
Es	4.206041	1.596681	-0.002724	99
Es	3.903631	-0.126148	-0.002148	99
Es	-0.818887	-1.248745	0.007839	99
Es	0.955131	0.530912	-0.002713	99
Es	-2.649578	-0.636631	0.002980	99
Es	4.023471	1.765865	-0.004211	99
Es	-2.899212	-1.340904	-0.009957	99
Es	-2.897251	-0.321848	0.588156	99
Es	-0.734166	0.001708	-0.313672	99
Es	-1.156523	-0.608334	0.003582	99
Es	4.543788	1.604337	-0.001879	99
Es	3.954796	1.213897	-0.247607	99
Es	-0.736047	0.005791	0.314064	99
Es	2.145823	0.530937	-0.002704	99
Es	-0.778492	1.167820	-0.007016	99
38
Properties=species:S:1:pos:R:3:Z:I:1 energy=-305.57888878214976 field_type=dipole dipole="0.000000 0.000000 0.000000" charge=0
C	-2.649640	-0.636629	0.002980	6
C	-1.156440	-0.608259	0.003580	6
C	-0.450610	0.530931	-0.002710	6
C	0.955390	0.530931	-0.002710	6
C	2.145550	0.530931	-0.002710	6
C	3.585360	0.543861	-0.002710	6
O	4.206160	1.596891	-0.002720	8
H	-3.002630	-1.672619	-0.019980	1
H	-3.050780	-0.127699	-0.878920	1
H	-3.049050	-0.167079	0.907150	1
H	-0.647070	-1.569289	0.009020	1
H	-0.958230	1.491921	-0.007550	1
H	4.071990	-0.443889	-0.002720	1
Es	4.543898	1.614811	-0.002827	99
Es	0.955131	0.530905	-0.002711	99
Es	1.543424	0.156657	-0.002502	99
Es	-0.450446	0.531015	-0.002713	99
Es	-1.894496	-0.616604	0.003257	99
Es	-2.904695	-1.339318	-0.011757	99
Es	-0.735129	0.001859	-0.315038	99
Es	-2.897488	-0.320284	0.584005	99
Es	-2.649579	-0.636631	0.002980	99
Es	-1.156526	-0.608334	0.003581	99
Es	3.945165	1.222700	-0.250716	99
Es	4.040709	1.738446	-0.002871	99
Es	0.281821	0.530027	-0.002602	99
Es	-2.899392	-0.294857	-0.563799	99
Es	1.677171	0.520580	0.001048	99
Es	4.206054	1.596564	-0.002719	99
Es	2.832610	0.530742	-0.002862	99
Es	3.585227	0.543842	-0.002707	99
Es	-0.735074	0.005473	0.314948	99
Es	3.902976	-0.124639	-0.002732	99
Es	-0.820775	-1.245119	0.007432	99
Es	2.145823	0.530943	-0.002704	99
Es	3.945094	1.222951	0.245465	99
Es	1.543930	0.892563	-0.006530	99
Es	-0.776783	1.164452	-0.005791	99
38
Properties=species:S:1:pos:R:3:Z:I:1 energy=-305.57888878214976 field_type=dipole dipole="0.000000 0.000000 0.000000" charge=0
C	-2.649640	-0.636629	0.002980	6
C	-1.156440	-0.608259	0.003580	6
C	-0.450610	0.530931	-0.002710	6
C	0.955390	0.530931	-0.002710	6
C	2.145550	0.530931	-0.002710	6
C	3.585360	0.543861	-0.002710	6
O	4.206160	1.596891	-0.002720	8
H	-3.002630	-1.672619	-0.019980	1
H	-3.050780	-0.127699	-0.878920	1
H	-3.049050	-0.167079	0.907150	1
H	-0.647070	-1.569289	0.009020	1
H	-0.958230	1.491921	-0.007550	1
H	4.071990	-0.443889	-0.002720	1
Es	-1.894550	-0.615843	0.003480	99
Es	-2.897874	-0.295351	-0.558369	99
Es	-0.739467	-0.001257	-0.314459	99
Es	3.906068	1.215816	0.206897	99
Es	1.677169	0.520569	-0.004070	99
Es	1.543244	0.157558	-0.005494	99
Es	2.832484	0.530855	-0.002105	99
Es	-0.730663	0.008460	0.314474	99
Es	2.145824	0.530939	-0.002702	99
Es	1.544094	0.891814	0.001100	99
Es	4.052761	1.719900	-0.004969	99
Es	3.902882	-0.124001	-0.002184	99
Es	-1.156524	-0.608333	0.003584	99
Es	3.585227	0.543841	-0.002722	99
Es	4.206003	1.596571	-0.002720	99
Es	-0.821895	-1.243138	0.006924	99
Es	-2.893567	-0.323847	0.577490	99
Es	-2.649580	-0.636631	0.002980	99
Es	0.282115	0.530096	-0.002449	99
Es	0.955131	0.530909	-0.002708	99
Es	-0.775828	1.162547	-0.005698	99
Es	-2.910231	-1.336617	-0.011215	99
Es	4.543857	1.618570	0.000661	99
Es	3.972413	1.244304	-0.213895	99
Es	-0.450445	0.531016	-0.002699	99
38
Properties=species:S:1:pos:R:3:Z:I:1 energy=-305.57888878214976 field_type=dipole dipole="0.000000 0.000000 0.000000" charge=0
C	-2.649640	-0.636629	0.002980	6
C	-1.156440	-0.608259	0.003580	6
C	-0.450610	0.530931	-0.002710	6
C	0.955390	0.530931	-0.002710	6
C	2.145550	0.530931	-0.002710	6
C	3.585360	0.543861	-0.002710	6
O	4.206160	1.596891	-0.002720	8
H	-3.002630	-1.672619	-0.019980	1
H	-3.050780	-0.127699	-0.878920	1
H	-3.049050	-0.167079	0.907150	1
H	-0.647070	-1.569289	0.009020	1
H	-0.958230	1.491921	-0.007550	1
H	4.071990	-0.443889	-0.002720	1
Es	-0.740168	-0.001771	-0.316600	99
Es	-1.894430	-0.616675	0.003557	99
Es	3.902908	-0.123573	-0.002021	99
Es	4.543337	1.622261	0.000141	99
Es	4.066143	1.697582	-0.004405	99
Es	1.544212	0.891233	-0.003068	99
Es	-0.823711	-1.240431	0.006981	99
Es	0.282153	0.530550	-0.002561	99
Es	-0.730231	0.008788	0.316899	99
Es	0.955130	0.530896	-0.002711	99
Es	-0.450446	0.531018	-0.002721	99
Es	-2.911850	-1.335457	-0.011077	99
Es	3.993021	1.258325	-0.103845	99
Es	1.543111	0.158207	-0.005340	99
Es	2.832412	0.530959	-0.002345	99
Es	3.585227	0.543843	-0.002711	99
Es	-2.893184	-0.323928	0.575888	99
Es	3.872517	1.220352	0.096608	99
Es	-2.649580	-0.636626	0.002974	99
Es	4.206059	1.596589	-0.002721	99
Es	2.145824	0.530944	-0.002709	99
Es	-2.896715	-0.296487	-0.556949	99
Es	-0.773736	1.159924	-0.005808	99
Es	-1.156527	-0.608334	0.003584	99
Es	1.677172	0.520558	0.000093	99
38
Properties=species:S:1:pos:R:3:Z:I:1 energy=-305.57888878214976 field_type=dipole dipole="0.000000 0.000000 0.000000" charge=0
C	-2.649640	-0.636629	0.002980	6
C	-1.156440	-0.608259	0.003580	6
C	-0.450610	0.530931	-0.002710	6
C	0.955390	0.530931	-0.002710	6
C	2.145550	0.530931	-0.002710	6
C	3.585360	0.543861	-0.002710	6
O	4.206160	1.596891	-0.002720	8
H	-3.002630	-1.672619	-0.019980	1
H	-3.050780	-0.127699	-0.878920	1
H	-3.049050	-0.167079	0.907150	1
H	-0.647070	-1.569289	0.009020	1
H	-0.958230	1.491921	-0.007550	1
H	4.071990	-0.443889	-0.002720	1
Es	-2.895356	-0.297891	-0.552906	99
Es	-2.890795	-0.326090	0.571864	99
Es	2.832379	0.530991	-0.003031	99
Es	1.677157	0.520601	-0.009855	99
Es	0.955131	0.530904	-0.002705	99
Es	1.544269	0.890918	0.002210	99
Es	-0.773257	1.159007	-0.005876	99
Es	4.542665	1.625676	-0.003677	99
Es	3.585227	0.543844	-0.002712	99
Es	3.902756	-0.123246	-0.002451	99
Es	-0.450445	0.531014	-0.002711	99
Es	-1.156526	-0.608333	0.003582	99
Es	-0.731169	0.008047	0.317422	99
Es	4.073552	1.682963	-0.002976	99
Es	0.282243	0.530554	-0.002795	99
Es	-0.739111	-0.001209	-0.317235	99
Es	4.206058	1.596599	-0.002719	99
Es	2.145824	0.530946	-0.002711	99
Es	1.543049	0.158592	-0.000110	99
Es	-1.894516	-0.616099	0.003213	99
Es	-2.915538	-1.332712	-0.010403	99
Es	3.861459	1.228458	0.007032	99
Es	-2.649582	-0.636626	0.002977	99
Es	-0.824326	-1.239400	0.007357	99
Es	3.997501	1.261237	-0.011651	99
38
Properties=species:S:1:pos:R:3:Z:I:1 energy=-305.57888878214976 field_type=dipole dipole="0.000000 0.000000 0.000000" charge=0
C	-2.649640	-0.636629	0.002980	6
C	-1.156440	-0.608259	0.003580	6
C	-0.450610	0.530931	-0.002710	6
C	0.955390	0.530931	-0.002710	6
C	2.145550	0.530931	-0.002710	6
C	3.585360	0.543861	-0.002710	6
O	4.206160	1.596891	-0.002720	8
H	-3.002630	-1.672619	-0.019980	1
H	-3.050780	-0.127699	-0.878920	1
H	-3.049050	-0.167079	0.907150	1
H	-0.647070	-1.569289	0.009020	1
H	-0.958230	1.491921	-0.007550	1
H	4.071990	-0.443889	-0.002720	1
Es	-0.762716	-0.013392	0.286679	99
Es	-1.156526	-0.608333	0.003584	99
Es	-2.649580	-0.636630	0.002981	99
Es	-2.890518	-0.326679	0.571018	99
Es	-0.825404	-1.237728	0.007501	99
Es	4.541732	1.629578	-0.000687	99
Es	-1.894461	-0.616545	0.003775	99
Es	1.543014	0.159076	-0.011580	99
Es	-0.771374	1.156739	-0.005932	99
Es	-2.916687	-1.331663	-0.011870	99
Es	-2.894524	-0.298288	-0.551609	99
Es	1.677108	0.520530	-0.000752	99
Es	2.832345	0.531015	-0.002040	99
Es	2.145824	0.530949	-0.002705	99
Es	1.544328	0.890644	0.003733	99
Es	-0.708353	0.020745	-0.288003	99
Es	3.856745	1.237653	-0.017933	99
Es	-0.450447	0.531014	-0.002707	99
Es	0.955131	0.530895	-0.002709	99
Es	3.902310	-0.122625	-0.003312	99
Es	3.585227	0.543843	-0.002716	99
Es	3.997430	1.261226	0.011424	99
Es	4.079701	1.669463	-0.002717	99
Es	0.282277	0.530689	-0.001571	99
Es	4.206066	1.596570	-0.002720	99
38
Properties=species:S:1:pos:R:3:Z:I:1 energy=-305.57888878214976 field_type=dipole dipole="0.000000 0.000000 0.000000" charge=0
C	-2.649640	-0.636629	0.002980	6
C	-1.156440	-0.608259	0.003580	6
C	-0.450610	0.530931	-0.002710	6
C	0.955390	0.530931	-0.002710	6
C	2.145550	0.530931	-0.002710	6
C	3.585360	0.543861	-0.002710	6
O	4.206160	1.596891	-0.002720	8
H	-3.002630	-1.672619	-0.019980	1
H	-3.050780	-0.127699	-0.878920	1
H	-3.049050	-0.167079	0.907150	1
H	-0.647070	-1.569289	0.009020	1
H	-0.958230	1.491921	-0.007550	1
H	4.071990	-0.443889	-0.002720	1
Es	-0.450446	0.531013	-0.002688	99
Es	-2.918693	-1.329766	-0.008321	99
Es	1.543004	0.159492	0.010368	99
Es	2.832351	0.530862	-0.003884	99
Es	-2.649583	-0.636630	0.002985	99
Es	3.855549	1.242398	0.041795	99
Es	3.996669	1.260756	-0.045433	99
Es	2.145824	0.530949	-0.002712	99
Es	-2.890587	-0.325378	0.568243	99
Es	4.541609	1.630119	-0.005081	99
Es	4.206061	1.596586	-0.002724	99
Es	-0.771007	-0.021762	-0.262753	99
Es	1.544362	0.890447	-0.003530	99
Es	0.955130	0.530898	-0.002709	99
Es	-1.894389	-0.616965	0.002869	99
Es	-1.156526	-0.608332	0.003580	99
Es	0.282258	0.531003	-0.003774	99
Es	-0.826117	-1.236450	0.006847	99
Es	1.677079	0.520342	-0.013964	99
Es	4.082184	1.664198	-0.003629	99
Es	3.585227	0.543844	-0.002708	99
Es	-2.892486	-0.301462	-0.550686	99
Es	-0.700782	0.029749	0.265233	99
Es	3.901889	-0.121947	-0.001740	99
Es	-0.769932	1.154782	-0.006452	99
38
Properties=species:S:1:pos:R:3:Z:I:1 energy=-305.57888878214976 field_type=dipole dipole="0.000000 0.000000 0.000000" charge=0
C	-2.649640	-0.636629	0.002980	6
C	-1.156440	-0.608259	0.003580	6
C	-0.450610	0.530931	-0.002710	6
C	0.955390	0.530931	-0.002710	6
C	2.145550	0.530931	-0.002710	6
C	3.585360	0.543861	-0.002710	6
O	4.206160	1.596891	-0.002720	8
H	-3.002630	-1.672619	-0.019980	1
H	-3.050780	-0.127699	-0.878920	1
H	-3.049050	-0.167079	0.907150	1
H	-0.647070	-1.569289	0.009020	1
H	-0.958230	1.491921	-0.007550	1
H	4.071990	-0.443889	-0.002720	1
Es	-0.826783	-1.235316	0.007973	99
Es	1.544615	0.889713	0.014964	99
Es	4.541177	1.631864	-0.000557	99
Es	-2.649579	-0.636631	0.002980	99
Es	-0.695579	0.030159	-0.245945	99
Es	-1.156527	-0.608334	0.003584	99
Es	-0.450448	0.531013	-0.002692	99
Es	0.282268	0.531098	-0.001452	99
Es	-2.888495	-0.328866	0.568062	99
Es	4.206067	1.596572	-0.002721	99
Es	4.085384	1.656793	-0.002107	99
Es	2.145824	0.530947	-0.002702	99
Es	-0.768712	1.153187	-0.005940	99
Es	-2.919669	-1.328810	-0.012120	99
Es	3.901556	-0.121464	-0.003501	99
Es	1.542853	0.159605	-0.010209	99
Es	3.852979	1.247585	-0.043069	99
Es	3.996784	1.260907	0.036066	99
Es	-0.776763	-0.021708	0.243920	99
Es	-1.894367	-0.617196	0.003891	99
Es	1.676971	0.520992	-0.013584	99
Es	0.955129	0.530898	-0.002712	99
Es	2.832340	0.530866	-0.001712	99
Es	3.585227	0.543843	-0.002706	99
Es	-2.893606	-0.298969	-0.548580	99
38
Properties=species:S:1:pos:R:3:Z:I:1 energy=-305.57888878214976 field_type=dipole dipole="0.000000 0.000000 0.000000" charge=0
C	-2.649640	-0.636629	0.002980	6
C	-1.156440	-0.608259	0.003580	6
C	-0.450610	0.530931	-0.002710	6
C	0.955390	0.530931	-0.002710	6
C	2.145550	0.530931	-0.002710	6
C	3.585360	0.543861	-0.002710	6
O	4.206160	1.596891	-0.002720	8
H	-3.002630	-1.672619	-0.019980	1
H	-3.050780	-0.127699	-0.878920	1
H	-3.049050	-0.167079	0.907150	1
H	-0.647070	-1.569289	0.009020	1
H	-0.958230	1.491921	-0.007550	1
H	4.071990	-0.443889	-0.002720	1
Es	0.282250	0.531282	-0.003955	99
Es	4.540882	1.632982	-0.005485	99
Es	-2.888813	-0.327381	0.565531	99
Es	-1.156527	-0.608332	0.003584	99
Es	4.206019	1.596619	-0.002723	99
Es	0.955130	0.530893	-0.002707	99
Es	2.832318	0.530904	-0.003823	99
Es	1.544503	0.889928	0.005301	99
Es	-0.767611	1.151624	-0.006422	99
Es	3.901346	-0.121096	-0.001435	99
Es	-0.827366	-1.234305	0.006965	99
Es	3.585227	0.543843	-0.002706	99
Es	1.542971	0.160030	0.013939	99
Es	4.087567	1.651620	-0.003547	99
Es	2.145824	0.530949	-0.002712	99
Es	1.676988	0.520281	-0.026440	99
Es	-2.649578	-0.636629	0.002982	99
Es	-2.920770	-1.327600	-0.006886	99
Es	-0.692348	0.035832	0.228793	99
Es	-1.894311	-0.617446	0.002692	99
Es	-0.780525	-0.026792	-0.226275	99
Es	-2.892208	-0.301697	-0.549207	99
Es	3.996456	1.260681	-0.049937	99
Es	-0.450445	0.531014	-0.002717	99
Es	3.851669	1.251543	0.046320	99
38
Properties=species:S:1:pos:R:3:Z:I:1 energy=-305.57888878214976 field_type=dipole dipole="0.000000 0.000000 0.000000" charge=0
C	-2.649640	-0.636629	0.002980	6
C	-1.156440	-0.608259	0.003580	6
C	-0.450610	0.530931	-0.002710	6
C	0.955390	0.530931	-0.002710	6
C	2.145550	0.530931	-0.002710	6
C	3.585360	0.543861	-0.002710	6
O	4.206160	1.596891	-0.002720	8
H	-3.002630	-1.672619	-0.019980	1
H	-3.050780	-0.127699	-0.878920	1
H	-3.049050	-0.167079	0.907150	1
H	-0.647070	-1.569289	0.009020	1
H	-0.958230	1.491921	-0.007550	1
H	4.071990	-0.443889	-0.002720	1
Es	-1.894288	-0.617567	0.003747	99
Es	1.542833	0.159833	-0.011834	99
Es	0.282227	0.531503	-0.001396	99
Es	3.851264	1.253571	-0.057791	99
Es	-2.890856	-0.302444	-0.545884	99
Es	3.901009	-0.120644	-0.003777	99
Es	2.145824	0.530951	-0.002708	99
Es	-2.889299	-0.327622	0.567139	99
Es	1.544504	0.889924	0.000887	99
Es	-1.156527	-0.608332	0.003580	99
Es	-2.649593	-0.636609	0.002961	99
Es	1.677118	0.520493	0.002185	99
Es	3.996114	1.260588	0.051310	99
Es	-0.450445	0.531014	-0.002707	99
Es	2.832338	0.530810	-0.001904	99
Es	-0.766486	1.150042	-0.005961	99
Es	0.955131	0.530894	-0.002709	99
Es	-0.689273	0.035202	-0.212873	99
Es	4.206031	1.596609	-0.002719	99
Es	4.088874	1.648353	-0.001914	99
Es	-0.784221	-0.025483	0.211093	99
Es	-0.827865	-1.233492	0.007777	99
Es	3.585227	0.543844	-0.002713	99
Es	4.540637	1.633961	-0.000995	99
Es	-2.921631	-1.326653	-0.013662	99
38
Properties=species:S:1:pos:R:3:Z:I:1 energy=-305.57888878214976 field_type=dipole dipole="0.000000 0.000000 0.000000" charge=0
C	-2.649640	-0.636629	0.002980	6
C	-1.156440	-0.608259	0.003580	6
C	-0.450610	0.530931	-0.002710	6
C	0.955390	0.530931	-0.002710	6
C	2.145550	0.530931	-0.002710	6
C	3.585360	0.543861	-0.002710	6
O	4.206160	1.596891	-0.002720	8
H	-3.002630	-1.672619	-0.019980	1
H	-3.050780	-0.127699	-0.878920	1
H	-3.049050	-0.167079	0.907150	1
H	-0.647070	-1.569289	0.009020	1
H	-0.958230	1.491921	-0.007550	1
H	4.071990	-0.443889	-0.002720	1
Es	-2.649578	-0.636631	0.002981	99
Es	3.585227	0.543844	-0.002709	99
Es	-2.891133	-0.302910	-0.547976	99
Es	-2.921648	-1.326667	-0.007680	99
Es	-0.828365	-1.232647	0.006781	99
Es	3.900790	-0.120330	-0.001445	99
Es	-1.156527	-0.608333	0.003580	99
Es	4.091366	1.642158	-0.003479	99
Es	3.995453	1.260468	-0.066800	99
Es	2.145823	0.530956	-0.002724	99
Es	3.849971	1.258366	0.062450	99
Es	4.206025	1.596678	-0.002723	99
Es	-1.894239	-0.617854	0.002578	99
Es	0.955130	0.530894	-0.002707	99
Es	-0.686397	0.039977	0.192923	99
Es	1.677085	0.520405	-0.010615	99
Es	4.540318	1.635139	-0.004803	99
Es	2.832317	0.530880	-0.003679	99
Es	-0.787597	-0.029632	-0.190184	99
Es	-0.450445	0.531014	-0.002719	99
Es	-0.765479	1.148549	-0.006487	99
Es	1.542783	0.160154	0.009161	99
Es	0.282233	0.531540	-0.003911	99
Es	1.544575	0.889749	-0.005812	99
Es	-2.889037	-0.327023	0.565132	99
38
Properties=species:S:1:pos:R:3:Z:I:1 energy=-305.57888878214976 field_type=dipole dipole="0.000000 0.000000 0.000000" charge=0
C	-2.649640	-0.636629	0.002980	6
C	-1.156440	-0.608259	0.003580	6
C	-0.450610	0.530931	-0.002710	6
C	0.955390	0.530931	-0.002710	6
C	2.145550	0.530931	-0.002710	6
C	3.585360	0.543861	-0.002710	6
O	4.206160	1.596891	-0.002720	8
H	-3.002630	-1.672619	-0.019980	1
H	-3.050780	-0.127699	-0.878920	1
H	-3.049050	-0.167079	0.907150	1
H	-0.647070	-1.569289	0.009020	1
H	-0.958230	1.491921	-0.007550	1
H	4.071990	-0.443889	-0.002720	1
Es	-0.764920	1.147609	-0.005986	99
Es	-2.922793	-1.325367	-0.013561	99
Es	2.832326	0.530797	-0.001786	99
Es	4.540627	1.633992	-0.000417	99
Es	1.677109	0.520471	0.002768	99
Es	0.282210	0.531717	-0.001322	99
Es	3.900646	-0.120054	-0.003755	99
Es	1.544549	0.889773	0.001099	99
Es	-0.788208	-0.027506	0.188557	99
Es	-0.450445	0.531013	-0.002706	99
Es	-2.649584	-0.636618	0.002958	99
Es	-0.685822	0.037831	-0.190271	99
Es	3.585226	0.543843	-0.002713	99
Es	4.206053	1.596613	-0.002717	99
Es	-1.894202	-0.618043	0.003885	99
Es	-2.888394	-0.328688	0.565864	99
Es	2.145823	0.530954	-0.002706	99
Es	-1.156526	-0.608331	0.003580	99
Es	3.996835	1.260949	0.034749	99
Es	4.091286	1.642823	-0.002257	99
Es	3.848449	1.258311	-0.041462	99
Es	-0.828879	-1.231743	0.007654	99
Es	0.955130	0.530895	-0.002712	99
Es	-2.890621	-0.302606	-0.544919	99
Es	1.542774	0.160107	-0.012691	99
