38
Properties=species:S:1:pos:R:3:Z:I:1 energy=-305.5928627425606 field_type=dipole dipole="0.000000 0.000000 0.000000" charge=0
C	-3.093369	-0.438038	-0.015772	6
C	-1.649369	-0.438038	-0.015772	6
C	-0.459209	-0.438038	-0.015772	6
C	0.946791	-0.438038	-0.015772	6
C	1.637421	0.706972	0.025788	6
C	3.110771	0.679441	0.024378	6
O	3.767141	1.712302	0.061958	8
H	-3.487369	0.582842	-0.004082	1
H	-3.487439	-0.958568	0.862478	1
H	-3.487439	-0.938318	-0.905712	1
H	1.446861	-1.401409	-0.050952	1
H	1.170361	1.684251	0.061428	1
H	3.584851	-0.315359	-0.012192	1
Es	3.522431	1.321394	0.298988	99
Es	-1.051755	-0.799281	-0.041322	99
Es	-1.004731	-0.231020	-0.305758	99
Es	3.110740	0.679434	0.024382	99
Es	1.637492	0.706992	0.025786	99
Es	-1.000624	-0.275398	0.300199	99
Es	3.584418	1.964042	0.071882	99
Es	1.319344	0.158599	-0.308894	99
Es	0.946646	-0.438131	-0.015770	99
Es	4.077673	1.663397	0.059507	99
Es	1.273607	-1.080433	-0.039170	99
Es	1.319202	0.135709	0.319782	99
Es	1.325764	1.356380	0.049407	99
Es	-2.346730	-0.437016	-0.015625	99
Es	-3.338385	0.243627	-0.007880	99
Es	-0.458937	-0.438046	-0.015769	99
Es	-1.649638	-0.438033	-0.015768	99
Es	-3.334888	-0.785260	0.569954	99
Es	3.521292	1.340294	-0.202808	99
Es	3.766956	1.711999	0.061949	99
Es	-3.093246	-0.438040	-0.015771	99
Es	0.227307	-0.447320	-0.016302	99
Es	3.423079	-0.010112	-0.001022	99
Es	-3.335103	-0.771710	-0.609415	99
Es	2.363654	0.683104	0.024734	99
38
Properties=species:S:1:pos:R:3:Z:I:1 energy=-305.5928627425606 field_type=dipole dipole="0.000000 0.000000 0.000000" charge=0
C	-3.093369	-0.438038	-0.015772	6
C	-1.649369	-0.438038	-0.015772	6
C	-0.459209	-0.438038	-0.015772	6
C	0.946791	-0.438038	-0.015772	6
C	1.637421	0.706972	0.025788	6
C	3.110771	0.679441	0.024378	6
O	3.767141	1.712302	0.061958	8
H	-3.487369	0.582842	-0.004082	1
H	-3.487439	-0.958568	0.862478	1
H	-3.487439	-0.938318	-0.905712	1
H	1.446861	-1.401409	-0.050952	1
H	1.170361	1.684251	0.061428	1
H	3.584851	-0.315359	-0.012192	1
Es	1.273064	-1.074958	-0.039034	99
Es	4.102470	1.706058	0.061329	99
Es	3.110741	0.679430	0.024368	99
Es	3.766997	1.712009	0.061947	99
Es	-0.458930	-0.438019	-0.015768	99
Es	2.366879	0.683210	0.024692	99
Es	0.225034	-0.440256	-0.015970	99
Es	-1.006636	-0.226962	-0.283377	99
Es	3.516908	1.343589	-0.195364	99
Es	1.319258	0.136007	0.315735	99
Es	-3.337439	-0.770326	-0.605981	99
Es	-2.341419	-0.442993	-0.015560	99
Es	-1.000137	-0.274407	0.275374	99
Es	-1.649652	-0.438041	-0.015770	99
Es	-1.050617	-0.806671	-0.039013	99
Es	-3.093246	-0.438040	-0.015772	99
Es	3.517255	1.325675	0.292028	99
Es	-3.341004	0.238444	-0.007903	99
Es	3.423155	-0.008446	-0.000872	99
Es	3.570552	1.912752	0.069387	99
Es	-3.336689	-0.782789	0.566193	99
Es	1.325480	1.352219	0.049399	99
Es	1.637492	0.706994	0.025794	99
Es	0.946642	-0.438139	-0.015771	99
Es	1.319409	0.158830	-0.304793	99
38
Properties=species:S:1:pos:R:3:Z:I:1 energy=-305.5928627425606 field_type=dipole dipole="0.000000 0.000000 0.000000" charge=0
C	-3.093369	-0.438038	-0.015772	6
C	-1.649369	-0.438038	-0.015772	6
C	-0.459209	-0.438038	-0.015772	6
C	0.946791	-0.438038	-0.015772	6
C	1.637421	0.706972	0.025788	6
C	3.110771	0.679441	0.024378	6
O	3.767141	1.712302	0.061958	8
H	-3.487369	0.582842	-0.004082	1
H	-3.487439	-0.958568	0.862478	1
H	-3.487439	-0.938318	-0.905712	1
H	1.446861	-1.401409	-0.050952	1
H	1.170361	1.684251	0.061428	1
H	3.584851	-0.315359	-0.012192	1
Es	3.509593	1.349340	-0.197032	99
Es	-1.050384	-0.802358	-0.083571	99
Es	-3.337419	-0.780569	0.565897	99
Es	-3.339927	-0.769517	-0.605562	99
Es	-0.959688	-0.426155	0.136376	99
Es	1.326833	1.347890	0.049761	99
Es	1.270806	-1.069380	-0.039184	99
Es	3.585113	1.870640	0.067130	99
Es	3.110738	0.679432	0.024381	99
Es	1.319849	0.135618	0.316704	99
Es	-3.340009	0.231761	-0.007774	99
Es	3.422760	-0.006795	-0.001115	99
Es	-0.458927	-0.438014	-0.015770	99
Es	-1.649653	-0.438058	-0.015782	99
Es	1.637492	0.706995	0.025804	99
Es	1.319446	0.159134	-0.305786	99
Es	-1.047425	-0.079106	-0.099507	99
Es	2.367810	0.684364	0.024494	99
Es	-2.338928	-0.443717	-0.015246	99
Es	0.223744	-0.439491	-0.016784	99
Es	3.509263	1.332088	0.295094	99
Es	3.767024	1.711973	0.061948	99
Es	0.946642	-0.438137	-0.015770	99
Es	4.104060	1.735274	0.062365	99
Es	-3.093245	-0.438042	-0.015772	99
38
Properties=species:S:1:pos:R:3:Z:I:1 energy=-305.5928627425606 field_type=dipole dipole="0.000000 0.000000 0.000000" charge=0
C	-3.093369	-0.438038	-0.015772	6
C	-1.649369	-0.438038	-0.015772	6
C	-0.459209	-0.438038	-0.015772	6
C	0.946791	-0.438038	-0.015772	6
C	1.637421	0.706972	0.025788	6
C	3.110771	0.679441	0.024378	6
O	3.767141	1.712302	0.061958	8
H	-3.487369	0.582842	-0.004082	1
H	-3.487439	-0.958568	0.862478	1
H	-3.487439	-0.938318	-0.905712	1
H	1.446861	-1.401409	-0.050952	1
H	1.170361	1.684251	0.061428	1
H	3.584851	-0.315359	-0.012192	1
Es	4.102982	1.747339	0.063738	99
Es	-1.649657	-0.438051	-0.015778	99
Es	0.946642	-0.438137	-0.015775	99
Es	1.327769	1.345021	0.048972	99
Es	3.516598	1.365147	-0.190091	99
Es	-1.051869	-0.806951	-0.029709	99
Es	-2.337752	-0.443138	-0.015825	99
Es	3.422557	-0.005752	-0.000517	99
Es	3.597895	1.846918	0.066074	99
Es	-0.954760	-0.430406	-0.009107	99
Es	0.223067	-0.439646	-0.015845	99
Es	-0.458928	-0.437999	-0.015760	99
Es	1.269059	-1.065485	-0.038533	99
Es	3.110738	0.679432	0.024379	99
Es	1.318463	0.134989	0.316528	99
Es	1.637495	0.706995	0.025781	99
Es	2.368189	0.685092	0.024842	99
Es	-1.050903	-0.070173	-0.008248	99
Es	-3.332774	-0.773724	0.563160	99
Es	-3.345600	-0.774874	-0.603236	99
Es	3.490963	1.327445	0.287264	99
Es	-3.093246	-0.438041	-0.015773	99
Es	-3.339862	0.227822	-0.007586	99
Es	1.321494	0.159310	-0.305603	99
Es	3.767006	1.712037	0.061946	99
38
Properties=species:S:1:pos:R:3:Z:I:1 energy=-305.5928627425606 field_type=dipole dipole="0.000000 0.000000 0.000000" charge=0
C	-3.093369	-0.438038	-0.015772	6
C	-1.649369	-0.438038	-0.015772	6
C	-0.459209	-0.438038	-0.015772	6
C	0.946791	-0.438038	-0.015772	6
C	1.637421	0.706972	0.025788	6
C	3.110771	0.679441	0.024378	6
O	3.767141	1.712302	0.061958	8
H	-3.487369	0.582842	-0.004082	1
H	-3.487439	-0.958568	0.862478	1
H	-3.487439	-0.938318	-0.905712	1
H	1.446861	-1.401409	-0.050952	1
H	1.170361	1.684251	0.061428	1
H	3.584851	-0.315359	-0.012192	1
Es	3.553383	1.389690	0.076673	99
Es	1.266593	-1.061791	-0.038328	99
Es	0.946640	-0.438137	-0.015776	99
Es	-1.052054	-0.806184	-0.024768	99
Es	1.319984	0.135121	0.319311	99
Es	2.368135	0.686030	0.024633	99
Es	3.438297	1.321307	0.022578	99
Es	4.101463	1.755190	0.061657	99
Es	-2.337620	-0.441607	-0.015734	99
Es	-1.050725	-0.071161	-0.004505	99
Es	3.422568	-0.005167	-0.000720	99
Es	-3.337340	0.223333	-0.008223	99
Es	1.329291	1.342378	0.048646	99
Es	-3.338082	-0.777173	0.566051	99
Es	3.615335	1.820611	0.066259	99
Es	0.222925	-0.440274	-0.016003	99
Es	-3.342761	-0.769408	-0.605519	99
Es	3.110738	0.679432	0.024380	99
Es	-1.649654	-0.438063	-0.015773	99
Es	1.637496	0.706994	0.025794	99
Es	-0.458925	-0.438023	-0.015773	99
Es	3.766993	1.711983	0.061946	99
Es	-3.093244	-0.438041	-0.015771	99
Es	1.320884	0.158299	-0.308175	99
Es	-0.954754	-0.430168	-0.017563	99
38
Properties=species:S:1:pos:R:3:Z:I:1 energy=-305.5928627425606 field_type=dipole dipole="0.000000 0.000000 0.000000" charge=0
C	-3.093369	-0.438038	-0.015772	6
C	-1.649369	-0.438038	-0.015772	6
C	-0.459209	-0.438038	-0.015772	6
C	0.946791	-0.438038	-0.015772	6
C	1.637421	0.706972	0.025788	6
C	3.110771	0.679441	0.024378	6
O	3.767141	1.712302	0.061958	8
H	-3.487369	0.582842	-0.004082	1
H	-3.487439	-0.958568	0.862478	1
H	-3.487439	-0.938318	-0.905712	1
H	1.446861	-1.401409	-0.050952	1
H	1.170361	1.684251	0.061428	1
H	3.584851	-0.315359	-0.012192	1
Es	1.327881	0.161511	-0.302729	99
Es	-3.336213	0.220445	-0.007903	99
Es	1.265255	-1.059354	-0.037395	99
Es	-3.093248	-0.438041	-0.015772	99
Es	-3.359995	-0.787529	-0.590567	99
Es	3.767024	1.711985	0.061946	99
Es	-0.954874	-0.430232	-0.013749	99
Es	3.422132	-0.004417	-0.000080	99
Es	3.553329	1.391564	0.023768	99
Es	3.110738	0.679431	0.024379	99
Es	-2.337422	-0.440728	-0.016203	99
Es	-1.649654	-0.438067	-0.015771	99
Es	-3.322014	-0.757742	0.551719	99
Es	0.946640	-0.438136	-0.015778	99
Es	-1.050514	-0.071611	-0.016522	99
Es	4.099532	1.762089	0.061138	99
Es	1.330373	1.340427	0.047736	99
Es	3.431747	1.328634	0.076901	99
Es	1.313171	0.131690	0.314128	99
Es	1.637495	0.706996	0.025781	99
Es	0.222821	-0.440771	-0.016309	99
Es	3.624255	1.804148	0.064419	99
Es	2.368209	0.686435	0.024229	99
Es	-1.052176	-0.805548	-0.016293	99
Es	-0.458924	-0.438008	-0.015773	99
38
Properties=species:S:1:pos:R:3:Z:I:1 energy=-305.5928627425606 field_type=dipole dipole="0.000000 0.000000 0.000000" charge=0
C	-3.093369	-0.438038	-0.015772	6
C	-1.649369	-0.438038	-0.015772	6
C	-0.459209	-0.438038	-0.015772	6
C	0.946791	-0.438038	-0.015772	6
C	1.637421	0.706972	0.025788	6
C	3.110771	0.679441	0.024378	6
O	3.767141	1.712302	0.061958	8
H	-3.487369	0.582842	-0.004082	1
H	-3.487439	-0.958568	0.862478	1
H	-3.487439	-0.938318	-0.905712	1
H	1.446861	-1.401409	-0.050952	1
H	1.170361	1.684251	0.061428	1
H	3.584851	-0.315359	-0.012192	1
Es	-1.052299	-0.805063	-0.015489	99
Es	3.767022	1.711962	0.061947	99
Es	3.110738	0.679432	0.024381	99
Es	3.552855	1.391799	0.010099	99
Es	-0.955019	-0.430053	-0.004446	99
Es	-0.458925	-0.438006	-0.015774	99
Es	3.427364	1.335889	0.091927	99
Es	-3.371344	-0.798206	-0.569592	99
Es	1.330887	0.162308	-0.298878	99
Es	0.222805	-0.441245	-0.016523	99
Es	-2.337475	-0.439689	-0.016329	99
Es	1.637495	0.706995	0.025791	99
Es	-3.093246	-0.438042	-0.015773	99
Es	4.098587	1.765159	0.059541	99
Es	1.331766	1.338250	0.046862	99
Es	-1.050214	-0.072391	-0.026468	99
Es	-3.334221	0.217137	-0.008055	99
Es	1.263520	-1.056606	-0.036621	99
Es	-3.312496	-0.745236	0.531563	99
Es	3.421763	-0.003809	0.000224	99
Es	3.630400	1.793270	0.064049	99
Es	2.368157	0.687005	0.023796	99
Es	1.310460	0.130517	0.310612	99
Es	0.946639	-0.438138	-0.015773	99
Es	-1.649654	-0.438068	-0.015771	99
38
Properties=species:S:1:pos:R:3:Z:I:1 energy=-305.5928627425606 field_type=dipole dipole="0.000000 0.000000 0.000000" charge=0
C	-3.093369	-0.438038	-0.015772	6
C	-1.649369	-0.438038	-0.015772	6
C	-0.459209	-0.438038	-0.015772	6
C	0.946791	-0.438038	-0.015772	6
C	1.637421	0.706972	0.025788	6
C	3.110771	0.679441	0.024378	6
O	3.767141	1.712302	0.061958	8
H	-3.487369	0.582842	-0.004082	1
H	-3.487439	-0.958568	0.862478	1
H	-3.487439	-0.938318	-0.905712	1
H	1.446861	-1.401409	-0.050952	1
H	1.170361	1.684251	0.061428	1
H	3.584851	-0.315359	-0.012192	1
Es	3.635739	1.783076	0.063391	99
Es	-3.307227	-0.737797	0.515507	99
Es	-0.955122	-0.430115	-0.010683	99
Es	3.423787	1.342631	0.104229	99
Es	1.332803	1.336534	0.046819	99
Es	3.110739	0.679431	0.024383	99
Es	-2.337569	-0.438685	-0.016381	99
Es	-1.052291	-0.804619	-0.008104	99
Es	2.368093	0.687388	0.023615	99
Es	-3.378022	-0.804134	-0.553032	99
Es	1.332661	0.162857	-0.295910	99
Es	1.637496	0.706995	0.025802	99
Es	3.552360	1.391849	-0.001446	99
Es	-3.093245	-0.438043	-0.015769	99
Es	1.309010	0.129524	0.307409	99
Es	4.097616	1.768199	0.059112	99
Es	0.946639	-0.438137	-0.015774	99
Es	-1.649655	-0.438058	-0.015756	99
Es	-0.458926	-0.438003	-0.015790	99
Es	1.262155	-1.054420	-0.036234	99
Es	0.222807	-0.441615	-0.016805	99
Es	-1.050115	-0.072778	-0.027265	99
Es	3.421430	-0.003158	0.000428	99
Es	-3.332619	0.214257	-0.008392	99
Es	3.767024	1.711993	0.061943	99
38
Properties=species:S:1:pos:R:3:Z:I:1 energy=-305.5928627425606 field_type=dipole dipole="0.000000 0.000000 0.000000" charge=0
C	-3.093369	-0.438038	-0.015772	6
C	-1.649369	-0.438038	-0.015772	6
C	-0.459209	-0.438038	-0.015772	6
C	0.946791	-0.438038	-0.015772	6
C	1.637421	0.706972	0.025788	6
C	3.110771	0.679441	0.024378	6
O	3.767141	1.712302	0.061958	8
H	-3.487369	0.582842	-0.004082	1
H	-3.487439	-0.958568	0.862478	1
H	-3.487439	-0.938318	-0.905712	1
H	1.446861	-1.401409	-0.050952	1
H	1.170361	1.684251	0.061428	1
H	3.584851	-0.315359	-0.012192	1
Es	0.222796	-0.441888	-0.016262	99
Es	-3.331323	0.211670	-0.008409	99
Es	0.946642	-0.438137	-0.015774	99
Es	3.110739	0.679430	0.024386	99
Es	-3.093245	-0.438043	-0.015775	99
Es	4.096695	1.771065	0.062448	99
Es	-0.458925	-0.438001	-0.015773	99
Es	-0.954748	-0.430249	-0.015678	99
Es	3.553470	1.391447	0.034275	99
Es	-3.343615	-0.764179	-0.607232	99
Es	1.333952	1.334589	0.048500	99
Es	-1.052544	-0.804259	-0.024484	99
Es	2.368076	0.687738	0.024282	99
Es	1.261698	-1.053259	-0.038349	99
Es	1.351870	0.160517	0.148280	99
Es	3.767021	1.711985	0.061947	99
Es	1.289053	0.132757	-0.136509	99
Es	3.638896	1.776483	0.064487	99
Es	1.637496	0.706995	0.025787	99
Es	3.421148	-0.002591	-0.000353	99
Es	-1.649653	-0.438072	-0.015771	99
Es	3.420677	1.346527	0.065501	99
Es	-1.050213	-0.073094	-0.006651	99
Es	-2.337666	-0.437738	-0.015710	99
Es	-3.342729	-0.776522	0.568136	99
38
Properties=species:S:1:pos:R:3:Z:I:1 energy=-305.5928627425606 field_type=dipole dipole="0.000000 0.000000 0.000000" charge=0
C	-3.093369	-0.438038	-0.015772	6
C	-1.649369	-0.438038	-0.015772	6
C	-0.459209	-0.438038	-0.015772	6
C	0.946791	-0.438038	-0.015772	6
C	1.637421	0.706972	0.025788	6
C	3.110771	0.679441	0.024378	6
O	3.767141	1.712302	0.061958	8
H	-3.487369	0.582842	-0.004082	1
H	-3.487439	-0.958568	0.862478	1
H	-3.487439	-0.938318	-0.905712	1
H	1.446861	-1.401409	-0.050952	1
H	1.170361	1.684251	0.061428	1
H	3.584851	-0.315359	-0.012192	1
Es	-0.458924	-0.438009	-0.015773	99
Es	1.310132	0.129624	0.312227	99
Es	3.640769	1.773326	0.062992	99
Es	3.551497	1.391930	-0.015064	99
Es	3.420936	-0.002283	0.000744	99
Es	-2.337775	-0.437265	-0.016586	99
Es	3.420869	1.349432	0.119228	99
Es	1.637496	0.706994	0.025786	99
Es	0.946639	-0.438136	-0.015773	99
Es	-1.049800	-0.073681	-0.034488	99
Es	-3.387939	-0.811592	-0.523526	99
Es	2.367970	0.688043	0.023242	99
Es	-3.093244	-0.438043	-0.015774	99
Es	-1.052427	-0.804042	-0.006902	99
Es	-1.649649	-0.438088	-0.015768	99
Es	-3.299649	-0.727583	0.486938	99
Es	3.767022	1.711984	0.061946	99
Es	-3.329941	0.209631	-0.008621	99
Es	1.332382	0.161683	-0.300120	99
Es	1.334491	1.333740	0.046148	99
Es	-0.955287	-0.429812	-0.004379	99
Es	0.222882	-0.442295	-0.017227	99
Es	4.096803	1.770547	0.057565	99
Es	1.259576	-1.050368	-0.035905	99
Es	3.110737	0.679434	0.024388	99
38
Properties=species:S:1:pos:R:3:Z:I:1 energy=-305.5928627425606 field_type=dipole dipole="0.000000 0.000000 0.000000" charge=0
C	-3.093369	-0.438038	-0.015772	6
C	-1.649369	-0.438038	-0.015772	6
C	-0.459209	-0.438038	-0.015772	6
C	0.946791	-0.438038	-0.015772	6
C	1.637421	0.706972	0.025788	6
C	3.110771	0.679441	0.024378	6
O	3.767141	1.712302	0.061958	8
H	-3.487369	0.582842	-0.004082	1
H	-3.487439	-0.958568	0.862478	1
H	-3.487439	-0.938318	-0.905712	1
H	1.446861	-1.401409	-0.050952	1
H	1.170361	1.684251	0.061428	1
H	3.584851	-0.315359	-0.012192	1
Es	0.946639	-0.438137	-0.015771	99
Es	-3.329044	0.207888	-0.008586	99
Es	-0.955388	-0.429522	0.000689	99
Es	1.310286	0.129645	0.313274	99
Es	3.550954	1.392019	-0.021723	99
Es	-1.052484	-0.803888	-0.007569	99
Es	-0.458926	-0.437996	-0.015781	99
Es	-3.391156	-0.813785	-0.512512	99
Es	3.419695	1.352605	0.126249	99
Es	3.420745	-0.001935	0.000756	99
Es	3.110738	0.679432	0.024384	99
Es	-3.297174	-0.724444	0.476039	99
Es	4.096232	1.772190	0.057211	99
Es	2.367962	0.688112	0.023100	99
Es	-2.337877	-0.436624	-0.016494	99
Es	1.332205	0.161653	-0.301211	99
Es	-1.649653	-0.438075	-0.015768	99
Es	-1.049634	-0.074159	-0.038883	99
Es	1.637496	0.706995	0.025787	99
Es	0.222905	-0.442503	-0.017361	99
Es	1.258793	-1.049072	-0.035865	99
Es	-3.093247	-0.438043	-0.015769	99
Es	3.767031	1.711977	0.061946	99
Es	1.335262	1.332597	0.046260	99
Es	3.643206	1.768239	0.062896	99
38
Properties=species:S:1:pos:R:3:Z:I:1 energy=-305.5928627425606 field_type=dipole dipole="0.000000 0.000000 0.000000" charge=0
C	-3.093369	-0.438038	-0.015772	6
C	-1.649369	-0.438038	-0.015772	6
C	-0.459209	-0.438038	-0.015772	6
C	0.946791	-0.438038	-0.015772	6
C	1.637421	0.706972	0.025788	6
C	3.110771	0.679441	0.024378	6
O	3.767141	1.712302	0.061958	8
H	-3.487369	0.582842	-0.004082	1
H	-3.487439	-0.958568	0.862478	1
H	-3.487439	-0.938318	-0.905712	1
H	1.446861	-1.401409	-0.050952	1
H	1.170361	1.684251	0.061428	1
H	3.584851	-0.315359	-0.012192	1
Es	1.308688	0.128746	0.308973	99
Es	-3.093246	-0.438044	-0.015774	99
Es	1.257979	-1.047719	-0.035741	99
Es	3.550938	1.392159	-0.021116	99
Es	-2.337965	-0.436177	-0.016514	99
Es	-1.649654	-0.438070	-0.015769	99
Es	-0.955295	-0.430215	-0.013870	99
Es	4.095921	1.773093	0.057224	99
Es	1.334039	0.162213	-0.296814	99
Es	-0.458927	-0.437995	-0.015779	99
Es	-3.327944	0.206063	-0.008455	99
Es	3.767035	1.711970	0.061945	99
Es	3.419065	1.353745	0.125220	99
Es	3.644370	1.765782	0.063098	99
Es	-3.393129	-0.813982	-0.507748	99
Es	2.367905	0.688403	0.023180	99
Es	3.420512	-0.001522	0.000973	99
Es	0.946640	-0.438135	-0.015775	99
Es	-1.049771	-0.073861	-0.030495	99
Es	-1.052409	-0.803559	-0.001318	99
Es	1.637496	0.706995	0.025791	99
Es	-3.296187	-0.722982	0.471107	99
Es	1.335852	1.331500	0.045979	99
Es	3.110738	0.679432	0.024384	99
Es	0.222915	-0.442669	-0.017411	99
38
Properties=species:S:1:pos:R:3:Z:I:1 energy=-305.5928627425606 field_type=dipole dipole="0.000000 0.000000 0.000000" charge=0
C	-3.093369	-0.438038	-0.015772	6
C	-1.649369	-0.438038	-0.015772	6
C	-0.459209	-0.438038	-0.015772	6
C	0.946791	-0.438038	-0.015772	6
C	1.637421	0.706972	0.025788	6
C	3.110771	0.679441	0.024378	6
O	3.767141	1.712302	0.061958	8
H	-3.487369	0.582842	-0.004082	1
H	-3.487439	-0.958568	0.862478	1
H	-3.487439	-0.938318	-0.905712	1
H	1.446861	-1.401409	-0.050952	1
H	1.170361	1.684251	0.061428	1
H	3.584851	-0.315359	-0.012192	1
Es	0.222888	-0.442807	-0.014522	99
Es	1.337234	0.142273	0.297222	99
Es	-3.393864	-0.825169	0.464381	99
Es	-1.649652	-0.438075	-0.015776	99
Es	-3.093253	-0.438057	-0.015795	99
Es	3.551615	1.387280	0.114093	99
Es	1.257630	-1.046691	-0.040612	99
Es	-3.296081	-0.710696	-0.507596	99
Es	-0.955615	-0.428615	-0.028508	99
Es	2.367826	0.688588	0.026906	99
Es	4.095289	1.774273	0.071687	99
Es	3.110739	0.679429	0.024368	99
Es	-2.337911	-0.436230	-0.014936	99
Es	-3.327199	0.204717	-0.007798	99
Es	1.336273	1.330366	0.051540	99
Es	-1.049402	-0.077723	0.037479	99
Es	-0.458927	-0.437999	-0.015757	99
Es	0.946639	-0.438135	-0.015780	99
Es	3.419224	1.357581	-0.020364	99
Es	-1.052461	-0.801197	-0.057349	99
Es	3.767042	1.711952	0.061945	99
Es	3.644268	1.765280	0.065005	99
Es	3.420370	-0.001091	-0.002426	99
Es	1.305403	0.148921	-0.287897	99
Es	1.637496	0.706995	0.025789	99
38
Properties=species:S:1:pos:R:3:Z:I:1 energy=-305.5928627425606 field_type=dipole dipole="0.000000 0.000000 0.000000" charge=0
C	-3.093369	-0.438038	-0.015772	6
C	-1.649369	-0.438038	-0.015772	6
C	-0.459209	-0.438038	-0.015772	6
C	0.946791	-0.438038	-0.015772	6
C	1.637421	0.706972	0.025788	6
C	3.110771	0.679441	0.024378	6
O	3.767141	1.712302	0.061958	8
H	-3.487369	0.582842	-0.004082	1
H	-3.487439	-0.958568	0.862478	1
H	-3.487439	-0.938318	-0.905712	1
H	1.446861	-1.401409	-0.050952	1
H	1.170361	1.684251	0.061428	1
H	3.584851	-0.315359	-0.012192	1
Es	1.336961	1.329679	0.046054	99
Es	-1.052490	-0.803395	-0.002757	99
Es	-0.955379	-0.429877	-0.007151	99
Es	-1.649655	-0.438060	-0.015769	99
Es	0.946639	-0.438136	-0.015771	99
Es	4.095623	1.773888	0.056709	99
Es	-1.049585	-0.074424	-0.035570	99
Es	-3.326653	0.203688	-0.008915	99
Es	3.767045	1.711934	0.061941	99
Es	-2.338079	-0.435576	-0.016593	99
Es	-3.093247	-0.438028	-0.015771	99
Es	3.110738	0.679432	0.024384	99
Es	3.420238	-0.001002	0.000954	99
Es	2.367847	0.688633	0.022809	99
Es	1.637495	0.706994	0.025781	99
Es	3.646451	1.761520	0.062815	99
Es	-3.293434	-0.718770	0.456662	99
Es	-0.458928	-0.437994	-0.015787	99
Es	-3.396963	-0.816708	-0.492485	99
Es	1.333235	0.161658	-0.300628	99
Es	3.417337	1.357016	0.124142	99
Es	1.309638	0.129065	0.312806	99
Es	3.551095	1.392101	-0.019343	99
Es	1.256696	-1.045557	-0.035596	99
Es	0.222942	-0.442912	-0.017622	99
38
Properties=species:S:1:pos:R:3:Z:I:1 energy=-305.5928627425606 field_type=dipole dipole="0.000000 0.000000 0.000000" charge=0
C	-3.093369	-0.438038	-0.015772	6
C	-1.649369	-0.438038	-0.015772	6
C	-0.459209	-0.438038	-0.015772	6
C	0.946791	-0.438038	-0.015772	6
C	1.637421	0.706972	0.025788	6
C	3.110771	0.679441	0.024378	6
O	3.767141	1.712302	0.061958	8
H	-3.487369	0.582842	-0.004082	1
H	-3.487439	-0.958568	0.862478	1
H	-3.487439	-0.938318	-0.905712	1
H	1.446861	-1.401409	-0.050952	1
H	1.170361	1.684251	0.061428	1
H	3.584851	-0.315359	-0.012192	1
Es	3.420175	-0.000684	-0.002516	99
Es	-3.093255	-0.438039	-0.015772	99
Es	1.307403	0.150453	-0.296468	99
Es	3.767035	1.711969	0.061946	99
Es	-3.398143	-0.828195	0.446072	99
Es	-1.049097	-0.079134	0.044712	99
Es	-0.955838	-0.427371	-0.036347	99
Es	-0.458929	-0.437990	-0.015754	99
Es	3.551170	1.386967	0.119577	99
Es	-2.338090	-0.435395	-0.014891	99
Es	-3.326118	0.202509	-0.007565	99
Es	0.946639	-0.438138	-0.015778	99
Es	4.094785	1.775501	0.072689	99
Es	3.417453	1.362293	-0.026315	99
Es	-1.649653	-0.438070	-0.015784	99
Es	1.335627	0.140226	0.305402	99
Es	1.256518	-1.044751	-0.040654	99
Es	0.222945	-0.443176	-0.014216	99
Es	3.647133	1.759419	0.064730	99
Es	-3.292628	-0.706498	-0.489872	99
Es	1.336960	1.329113	0.051774	99
Es	2.367756	0.688814	0.027136	99
Es	1.637495	0.706994	0.025787	99
Es	3.110744	0.679424	0.024368	99
Es	-1.052519	-0.801070	-0.056964	99
38
Properties=species:S:1:pos:R:3:Z:I:1 energy=-305.5928627425606 field_type=dipole dipole="0.000000 0.000000 0.000000" charge=0
C	-3.093369	-0.438038	-0.015772	6
C	-1.649369	-0.438038	-0.015772	6
C	-0.459209	-0.438038	-0.015772	6
C	0.946791	-0.438038	-0.015772	6
C	1.637421	0.706972	0.025788	6
C	3.110771	0.679441	0.024378	6
O	3.767141	1.712302	0.061958	8
H	-3.487369	0.582842	-0.004082	1
H	-3.487439	-0.958568	0.862478	1
H	-3.487439	-0.938318	-0.905712	1
H	1.446861	-1.401409	-0.050952	1
H	1.170361	1.684251	0.061428	1
H	3.584851	-0.315359	-0.012192	1
Es	-1.049608	-0.074373	-0.031565	99
Es	3.767032	1.711959	0.061945	99
Es	3.416071	1.359666	0.124602	99
Es	1.337540	1.328577	0.045501	99
Es	0.946639	-0.438134	-0.015772	99
Es	3.648491	1.757165	0.062923	99
Es	1.333747	0.161098	-0.300814	99
Es	-3.399708	-0.817739	-0.482685	99
Es	2.367763	0.688959	0.022828	99
Es	-2.338176	-0.435051	-0.016561	99
Es	0.222994	-0.443219	-0.017809	99
Es	1.255617	-1.043687	-0.035469	99
Es	3.420042	-0.000666	0.001057	99
Es	3.110738	0.679431	0.024383	99
Es	-3.291650	-0.716380	0.446913	99
Es	-3.325525	0.201608	-0.008883	99
Es	-0.955333	-0.430211	-0.013646	99
Es	4.095160	1.775125	0.056027	99
Es	-3.093245	-0.438043	-0.015775	99
Es	-1.649655	-0.438055	-0.015769	99
Es	1.309617	0.128917	0.313414	99
Es	-1.052526	-0.803069	-0.000185	99
Es	3.550975	1.392293	-0.019367	99
Es	1.637495	0.706994	0.025782	99
Es	-0.458926	-0.437995	-0.015780	99
38
Properties=species:S:1:pos:R:3:Z:I:1 energy=-305.5928627425606 field_type=dipole dipole="0.000000 0.000000 0.000000" charge=0
C	-3.093369	-0.438038	-0.015772	6
C	-1.649369	-0.438038	-0.015772	6
C	-0.459209	-0.438038	-0.015772	6
C	0.946791	-0.438038	-0.015772	6
C	1.637421	0.706972	0.025788	6
C	3.110771	0.679441	0.024378	6
O	3.767141	1.712302	0.061958	8
H	-3.487369	0.582842	-0.004082	1
H	-3.487439	-0.958568	0.862478	1
H	-3.487439	-0.938318	-0.905712	1
H	1.446861	-1.401409	-0.050952	1
H	1.170361	1.684251	0.061428	1
H	3.584851	-0.315359	-0.012192	1
Es	1.310160	0.129068	0.315168	99
Es	-1.052545	-0.802857	0.000965	99
Es	3.648220	1.757855	0.062529	99
Es	-2.338174	-0.435007	-0.016612	99
Es	3.419921	-0.000435	0.000978	99
Es	3.550423	1.392059	-0.027883	99
Es	1.338056	1.327701	0.045870	99
Es	1.333110	0.161043	-0.302871	99
Es	-3.093249	-0.438044	-0.015767	99
Es	-3.401276	-0.818757	-0.475821	99
Es	0.946639	-0.438136	-0.015772	99
Es	3.767020	1.712001	0.061937	99
Es	4.095489	1.774233	0.056247	99
Es	3.110744	0.679423	0.024384	99
Es	3.416672	1.359924	0.133339	99
Es	-0.458924	-0.438009	-0.015782	99
Es	-3.325139	0.200904	-0.008866	99
Es	1.255190	-1.042902	-0.035499	99
Es	-1.649651	-0.438083	-0.015768	99
Es	0.223030	-0.443389	-0.017830	99
Es	2.367718	0.689131	0.022827	99
Es	-3.290402	-0.714894	0.440093	99
Es	1.637495	0.706995	0.025784	99
Es	-0.955383	-0.430208	-0.013794	99
Es	-1.049577	-0.074446	-0.032558	99
38
Properties=species:S:1:pos:R:3:Z:I:1 energy=-305.5928627425606 field_type=dipole dipole="0.000000 0.000000 0.000000" charge=0
C	-3.093369	-0.438038	-0.015772	6
C	-1.649369	-0.438038	-0.015772	6
C	-0.459209	-0.438038	-0.015772	6
C	0.946791	-0.438038	-0.015772	6
C	1.637421	0.706972	0.025788	6
C	3.110771	0.679441	0.024378	6
O	3.767141	1.712302	0.061958	8
H	-3.487369	0.582842	-0.004082	1
H	-3.487439	-0.958568	0.862478	1
H	-3.487439	-0.938318	-0.905712	1
H	1.446861	-1.401409	-0.050952	1
H	1.170361	1.684251	0.061428	1
H	3.584851	-0.315359	-0.012192	1
Es	3.419883	-0.000367	0.001149	99
Es	3.416487	1.360730	0.135718	99
Es	-1.649652	-0.438078	-0.015774	99
Es	-0.955329	-0.430246	-0.014454	99
Es	2.367707	0.689188	0.022775	99
Es	1.309887	0.129251	0.315054	99
Es	4.094903	1.775859	0.056302	99
Es	-1.052575	-0.802868	0.000109	99
Es	0.946639	-0.438136	-0.015772	99
Es	1.254946	-1.042527	-0.035302	99
Es	-2.338259	-0.434658	-0.016714	99
Es	3.767013	1.712026	0.061956	99
Es	1.333466	0.160739	-0.302559	99
Es	-3.289799	-0.713997	0.436390	99
Es	-3.324504	0.199737	-0.008856	99
Es	3.550156	1.392141	-0.030565	99
Es	3.110738	0.679432	0.024385	99
Es	3.649312	1.755234	0.062576	99
Es	-0.458928	-0.437990	-0.015782	99
Es	1.637496	0.706995	0.025786	99
Es	1.338245	1.327339	0.045496	99
Es	-3.093245	-0.438043	-0.015773	99
Es	0.223004	-0.443301	-0.017761	99
Es	-3.402447	-0.818805	-0.472044	99
Es	-1.049576	-0.074482	-0.031042	99
