41
Properties=species:S:1:pos:R:3:Z:I:1 energy=-306.77635860214303 field_type=dipole dipole="0.000000 0.000000 0.000000" charge=0
C	-3.242093	-0.575331	0.001633	6
C	-1.798093	-0.575331	0.001633	6
C	-0.607933	-0.575331	0.001633	6
C	0.836067	-0.575331	0.001633	6
C	1.383797	0.846199	-0.001167	6
C	2.889067	0.871889	-0.004017	6
O	3.604097	-0.125441	0.004443	8
H	-3.636083	0.445559	0.013343	1
H	-3.636173	-1.095871	0.879873	1
H	-3.636163	-1.075591	-0.888317	1
H	1.209727	-1.118471	-0.874917	1
H	1.209836	-1.115171	0.880153	1
H	1.044396	1.395549	0.884123	1
H	1.041337	1.392719	-0.887007	1
H	3.338207	1.879949	-0.013037	1
Es	3.184555	1.571208	-0.010325	99
Es	-1.798375	-0.575330	0.001622	99
Es	1.068156	-0.929669	-0.588542	99
Es	-0.607675	-0.575327	0.001637	99
Es	1.383842	0.846174	-0.001166	99
Es	1.068111	-0.927500	0.592878	99
Es	-2.499050	-0.575027	0.001759	99
Es	1.175275	1.216252	0.593716	99
Es	-3.490160	0.109450	0.009448	99
Es	-1.201649	-0.376938	-0.305661	99
Es	-3.490003	-0.910279	-0.594792	99
Es	3.907812	-0.056247	0.003425	99
Es	3.437781	-0.389828	0.007339	99
Es	3.603905	-0.125164	0.004440	99
Es	-3.490242	-0.923927	0.590109	99
Es	0.835964	-0.575257	0.001633	99
Es	-3.241985	-0.575329	0.001633	99
Es	1.172850	1.214492	-0.596658	99
Es	2.889054	0.871885	-0.004001	99
Es	-1.200786	-0.934830	-0.014340	99
Es	0.089497	-0.569758	0.001728	99
Es	3.342812	0.234040	-0.251466	99
Es	2.133896	0.852652	-0.002722	99
Es	-1.201981	-0.403875	0.324805	99
Es	3.343377	0.239232	0.253786	99
Es	1.100091	0.138400	0.000400	99
41
Properties=species:S:1:pos:R:3:Z:I:1 energy=-306.77635860214303 field_type=dipole dipole="0.000000 0.000000 0.000000" charge=0
C	-3.242093	-0.575331	0.001633	6
C	-1.798093	-0.575331	0.001633	6
C	-0.607933	-0.575331	0.001633	6
C	0.836067	-0.575331	0.001633	6
C	1.383797	0.846199	-0.001167	6
C	2.889067	0.871889	-0.004017	6
O	3.604097	-0.125441	0.004443	8
H	-3.636083	0.445559	0.013343	1
H	-3.636173	-1.095871	0.879873	1
H	-3.636163	-1.075591	-0.888317	1
H	1.209727	-1.118471	-0.874917	1
H	1.209836	-1.115171	0.880153	1
H	1.044396	1.395549	0.884123	1
H	1.041337	1.392719	-0.887007	1
H	3.338207	1.879949	-0.013037	1
Es	1.069622	-0.928279	-0.586619	99
Es	1.173754	1.215258	0.590942	99
Es	1.099813	0.137717	0.000542	99
Es	1.383842	0.846175	-0.001166	99
Es	-1.201889	-0.937070	-0.017728	99
Es	0.835964	-0.575258	0.001633	99
Es	0.086685	-0.572942	0.001862	99
Es	3.339878	0.231739	-0.246425	99
Es	-3.241985	-0.575329	0.001633	99
Es	3.184720	1.570312	-0.010303	99
Es	1.069803	-0.926296	0.590865	99
Es	-1.201557	-0.407726	0.316480	99
Es	2.137457	0.853067	-0.002680	99
Es	-1.201039	-0.371271	-0.294040	99
Es	-0.607660	-0.575329	0.001636	99
Es	1.171205	1.213429	-0.593981	99
Es	3.927297	-0.076780	0.003527	99
Es	2.889050	0.871890	-0.004016	99
Es	-2.495994	-0.573575	0.001625	99
Es	3.603900	-0.125114	0.004447	99
Es	-1.798382	-0.575321	0.001633	99
Es	-3.490321	-0.909585	-0.589854	99
Es	-3.494238	0.110192	0.009541	99
Es	-3.490292	-0.923136	0.585255	99
Es	3.424721	-0.363950	0.007153	99
Es	3.340715	0.236682	0.248722	99
41
Properties=species:S:1:pos:R:3:Z:I:1 energy=-306.77635860214303 field_type=dipole dipole="0.000000 0.000000 0.000000" charge=0
C	-3.242093	-0.575331	0.001633	6
C	-1.798093	-0.575331	0.001633	6
C	-0.607933	-0.575331	0.001633	6
C	0.836067	-0.575331	0.001633	6
C	1.383797	0.846199	-0.001167	6
C	2.889067	0.871889	-0.004017	6
O	3.604097	-0.125441	0.004443	8
H	-3.636083	0.445559	0.013343	1
H	-3.636173	-1.095871	0.879873	1
H	-3.636163	-1.075591	-0.888317	1
H	1.209727	-1.118471	-0.874917	1
H	1.209836	-1.115171	0.880153	1
H	1.044396	1.395549	0.884123	1
H	1.041337	1.392719	-0.887007	1
H	3.338207	1.879949	-0.013037	1
Es	1.070111	-0.925509	0.589598	99
Es	-2.494397	-0.573331	0.001546	99
Es	-1.202230	-0.939270	-0.016145	99
Es	2.889051	0.871889	-0.004015	99
Es	1.170601	1.212921	-0.592345	99
Es	3.184774	1.569766	-0.010158	99
Es	-3.241984	-0.575329	0.001634	99
Es	3.603886	-0.125153	0.004441	99
Es	3.339478	0.228580	-0.244546	99
Es	1.070395	-0.927734	-0.584980	99
Es	-0.607657	-0.575340	0.001635	99
Es	-1.200863	-0.368496	-0.287371	99
Es	1.173022	1.214527	0.589402	99
Es	3.422450	-0.348683	0.006710	99
Es	1.100060	0.137545	0.000322	99
Es	-3.489804	-0.922556	0.581423	99
Es	0.085212	-0.574502	0.001465	99
Es	3.933957	-0.088053	0.004029	99
Es	2.139040	0.853335	-0.002633	99
Es	0.835963	-0.575258	0.001632	99
Es	-1.798385	-0.575312	0.001633	99
Es	-1.201439	-0.408659	0.308444	99
Es	-3.497516	0.110697	0.009519	99
Es	1.383842	0.846173	-0.001167	99
Es	3.337092	0.236177	0.246695	99
Es	-3.489587	-0.908924	-0.586085	99
41
Properties=species:S:1:pos:R:3:Z:I:1 energy=-306.77635860214303 field_type=dipole dipole="0.000000 0.000000 0.000000" charge=0
C	-3.242093	-0.575331	0.001633	6
C	-1.798093	-0.575331	0.001633	6
C	-0.607933	-0.575331	0.001633	6
C	0.836067	-0.575331	0.001633	6
C	1.383797	0.846199	-0.001167	6
C	2.889067	0.871889	-0.004017	6
O	3.604097	-0.125441	0.004443	8
H	-3.636083	0.445559	0.013343	1
H	-3.636173	-1.095871	0.879873	1
H	-3.636163	-1.075591	-0.888317	1
H	1.209727	-1.118471	-0.874917	1
H	1.209836	-1.115171	0.880153	1
H	1.044396	1.395549	0.884123	1
H	1.041337	1.392719	-0.887007	1
H	3.338207	1.879949	-0.013037	1
Es	3.603929	-0.125164	0.004436	99
Es	3.184780	1.569332	-0.010275	99
Es	3.335945	0.229144	-0.242629	99
Es	0.084287	-0.575193	0.002002	99
Es	2.139979	0.853502	-0.002725	99
Es	-1.201652	-0.423821	0.308325	99
Es	-0.607650	-0.575342	0.001633	99
Es	1.172724	1.214170	0.588149	99
Es	1.070494	-0.925089	0.588494	99
Es	-1.202385	-0.939614	-0.030572	99
Es	-1.200585	-0.353066	-0.273391	99
Es	3.337364	0.232444	0.246084	99
Es	-3.241985	-0.575328	0.001633	99
Es	1.383842	0.846174	-0.001167	99
Es	2.889051	0.871888	-0.004018	99
Es	1.100080	0.137168	0.000288	99
Es	-3.489001	-0.908720	-0.582937	99
Es	-1.798389	-0.575315	0.001645	99
Es	0.835963	-0.575257	0.001632	99
Es	3.937307	-0.094690	0.003354	99
Es	-3.488745	-0.921566	0.578284	99
Es	-2.493443	-0.573679	0.001832	99
Es	1.070512	-0.927296	-0.584106	99
Es	3.422557	-0.338642	0.006277	99
Es	1.170364	1.212495	-0.591061	99
Es	-3.500271	0.110963	0.009491	99
41
Properties=species:S:1:pos:R:3:Z:I:1 energy=-306.77635860214303 field_type=dipole dipole="0.000000 0.000000 0.000000" charge=0
C	-3.242093	-0.575331	0.001633	6
C	-1.798093	-0.575331	0.001633	6
C	-0.607933	-0.575331	0.001633	6
C	0.836067	-0.575331	0.001633	6
C	1.383797	0.846199	-0.001167	6
C	2.889067	0.871889	-0.004017	6
O	3.604097	-0.125441	0.004443	8
H	-3.636083	0.445559	0.013343	1
H	-3.636173	-1.095871	0.879873	1
H	-3.636163	-1.075591	-0.888317	1
H	1.209727	-1.118471	-0.874917	1
H	1.209836	-1.115171	0.880153	1
H	1.044396	1.395549	0.884123	1
H	1.041337	1.392719	-0.887007	1
H	3.338207	1.879949	-0.013037	1
Es	-3.502003	0.110655	0.010124	99
Es	0.083690	-0.575518	0.002345	99
Es	3.939195	-0.099331	0.003362	99
Es	2.889050	0.871889	-0.004017	99
Es	-1.202447	-0.931645	-0.079306	99
Es	1.070343	-0.924190	0.587844	99
Es	1.170399	1.211821	-0.590299	99
Es	-1.199693	-0.292881	-0.225841	99
Es	2.140477	0.853614	-0.002782	99
Es	1.383842	0.846173	-0.001166	99
Es	1.071346	-0.927366	-0.583816	99
Es	0.835964	-0.575258	0.001634	99
Es	-3.241984	-0.575328	0.001633	99
Es	-1.202485	-0.491852	0.309306	99
Es	3.334091	0.230882	0.246213	99
Es	3.334408	0.226384	-0.242878	99
Es	1.100036	0.136841	0.000359	99
Es	3.603951	-0.125154	0.004443	99
Es	3.184753	1.568869	-0.009951	99
Es	-1.798390	-0.575312	0.001634	99
Es	1.172089	1.214139	0.587727	99
Es	-2.492872	-0.573792	0.002159	99
Es	-0.607649	-0.575340	0.001634	99
Es	3.425663	-0.329486	0.005962	99
Es	-3.487797	-0.920665	0.575862	99
Es	-3.488905	-0.908651	-0.581503	99
41
Properties=species:S:1:pos:R:3:Z:I:1 energy=-306.77635860214303 field_type=dipole dipole="0.000000 0.000000 0.000000" charge=0
C	-3.242093	-0.575331	0.001633	6
C	-1.798093	-0.575331	0.001633	6
C	-0.607933	-0.575331	0.001633	6
C	0.836067	-0.575331	0.001633	6
C	1.383797	0.846199	-0.001167	6
C	2.889067	0.871889	-0.004017	6
O	3.604097	-0.125441	0.004443	8
H	-3.636083	0.445559	0.013343	1
H	-3.636173	-1.095871	0.879873	1
H	-3.636163	-1.075591	-0.888317	1
H	1.209727	-1.118471	-0.874917	1
H	1.209836	-1.115171	0.880153	1
H	1.044396	1.395549	0.884123	1
H	1.041337	1.392719	-0.887007	1
H	3.338207	1.879949	-0.013037	1
Es	-0.607649	-0.575342	0.001635	99
Es	-1.202835	-0.527528	0.300833	99
Es	3.603930	-0.125172	0.004444	99
Es	-3.503352	0.110333	0.010137	99
Es	1.099892	0.136411	0.000351	99
Es	-3.487180	-0.919967	0.574302	99
Es	-2.492546	-0.574339	0.002313	99
Es	2.140874	0.853545	-0.002740	99
Es	1.071658	-0.927085	-0.583408	99
Es	3.333379	0.225035	-0.243243	99
Es	1.171880	1.213893	0.587123	99
Es	0.083258	-0.575420	0.002321	99
Es	0.835964	-0.575256	0.001633	99
Es	1.383837	0.846168	-0.001166	99
Es	-1.798390	-0.575311	0.001634	99
Es	3.428139	-0.320986	0.005366	99
Es	1.070609	-0.923770	0.587599	99
Es	3.940238	-0.104556	0.003896	99
Es	-3.241983	-0.575329	0.001632	99
Es	3.184647	1.568553	-0.009966	99
Es	-1.202410	-0.923897	-0.104883	99
Es	1.170203	1.211517	-0.589872	99
Es	-1.199345	-0.264553	-0.191921	99
Es	-3.488636	-0.908526	-0.580023	99
Es	3.331840	0.229194	0.246702	99
Es	2.889049	0.871890	-0.004018	99
41
Properties=species:S:1:pos:R:3:Z:I:1 energy=-306.77635860214303 field_type=dipole dipole="0.000000 0.000000 0.000000" charge=0
C	-3.242093	-0.575331	0.001633	6
C	-1.798093	-0.575331	0.001633	6
C	-0.607933	-0.575331	0.001633	6
C	0.836067	-0.575331	0.001633	6
C	1.383797	0.846199	-0.001167	6
C	2.889067	0.871889	-0.004017	6
O	3.604097	-0.125441	0.004443	8
H	-3.636083	0.445559	0.013343	1
H	-3.636173	-1.095871	0.879873	1
H	-3.636163	-1.075591	-0.888317	1
H	1.209727	-1.118471	-0.874917	1
H	1.209836	-1.115171	0.880153	1
H	1.044396	1.395549	0.884123	1
H	1.041337	1.392719	-0.887007	1
H	3.338207	1.879949	-0.013037	1
Es	2.889049	0.871889	-0.004014	99
Es	-3.504355	0.109946	0.008633	99
Es	1.172648	1.212804	0.586415	99
Es	-1.199106	-0.245184	0.163983	99
Es	0.082940	-0.575550	0.000999	99
Es	3.330227	0.228340	0.246597	99
Es	-1.203017	-0.554239	-0.287094	99
Es	-3.488290	-0.921328	0.574510	99
Es	1.071722	-0.924362	0.587612	99
Es	-1.798390	-0.575319	0.001626	99
Es	3.431218	-0.312442	0.006491	99
Es	1.169144	1.212177	-0.589826	99
Es	3.940887	-0.109503	0.004943	99
Es	-2.492321	-0.574623	0.000736	99
Es	1.071051	-0.925833	-0.582814	99
Es	1.383839	0.846175	-0.001167	99
Es	1.099689	0.136311	0.000390	99
Es	3.603937	-0.125155	0.004443	99
Es	-1.202420	-0.916183	0.128837	99
Es	-3.241984	-0.575328	0.001633	99
Es	2.141149	0.853434	-0.002543	99
Es	-0.607650	-0.575352	0.001631	99
Es	0.835963	-0.575258	0.001631	99
Es	3.331431	0.222474	-0.244688	99
Es	3.184558	1.568241	-0.010543	99
Es	-3.486849	-0.906635	-0.577740	99
41
Properties=species:S:1:pos:R:3:Z:I:1 energy=-306.77635860214303 field_type=dipole dipole="0.000000 0.000000 0.000000" charge=0
C	-3.242093	-0.575331	0.001633	6
C	-1.798093	-0.575331	0.001633	6
C	-0.607933	-0.575331	0.001633	6
C	0.836067	-0.575331	0.001633	6
C	1.383797	0.846199	-0.001167	6
C	2.889067	0.871889	-0.004017	6
O	3.604097	-0.125441	0.004443	8
H	-3.636083	0.445559	0.013343	1
H	-3.636173	-1.095871	0.879873	1
H	-3.636163	-1.075591	-0.888317	1
H	1.209727	-1.118471	-0.874917	1
H	1.209836	-1.115171	0.880153	1
H	1.044396	1.395549	0.884123	1
H	1.041337	1.392719	-0.887007	1
H	3.338207	1.879949	-0.013037	1
Es	1.383842	0.846172	-0.001167	99
Es	-1.199195	-0.245258	0.164322	99
Es	2.889049	0.871889	-0.004017	99
Es	0.835963	-0.575256	0.001633	99
Es	0.082727	-0.575376	0.001018	99
Es	-0.607647	-0.575343	0.001631	99
Es	-3.485851	-0.905725	-0.576288	99
Es	-2.492104	-0.574681	0.000833	99
Es	3.327957	0.221478	-0.244394	99
Es	1.168732	1.212147	-0.589574	99
Es	1.072101	-0.924399	0.587420	99
Es	3.184441	1.567922	-0.010697	99
Es	1.099709	0.136163	0.000442	99
Es	3.603881	-0.125152	0.004441	99
Es	-3.505623	0.109659	0.008431	99
Es	-1.202995	-0.549831	-0.277584	99
Es	-1.798390	-0.575327	0.001620	99
Es	3.941529	-0.107003	0.004143	99
Es	-3.488264	-0.921602	0.573293	99
Es	1.071030	-0.925341	-0.582635	99
Es	-3.241983	-0.575328	0.001629	99
Es	3.329790	0.225175	0.247372	99
Es	2.141381	0.853425	-0.002507	99
Es	3.434727	-0.310594	0.006378	99
Es	-1.202384	-0.920664	0.118848	99
Es	1.172647	1.212346	0.586091	99
41
Properties=species:S:1:pos:R:3:Z:I:1 energy=-306.77635860214303 field_type=dipole dipole="0.000000 0.000000 0.000000" charge=0
C	-3.242093	-0.575331	0.001633	6
C	-1.798093	-0.575331	0.001633	6
C	-0.607933	-0.575331	0.001633	6
C	0.836067	-0.575331	0.001633	6
C	1.383797	0.846199	-0.001167	6
C	2.889067	0.871889	-0.004017	6
O	3.604097	-0.125441	0.004443	8
H	-3.636083	0.445559	0.013343	1
H	-3.636173	-1.095871	0.879873	1
H	-3.636163	-1.075591	-0.888317	1
H	1.209727	-1.118471	-0.874917	1
H	1.209836	-1.115171	0.880153	1
H	1.044396	1.395549	0.884123	1
H	1.041337	1.392719	-0.887007	1
H	3.338207	1.879949	-0.013037	1
Es	-1.199258	-0.243057	-0.157874	99
Es	3.184403	1.567780	-0.010058	99
Es	-3.485867	-0.919077	0.571002	99
Es	-3.487404	-0.907750	-0.576750	99
Es	3.941775	-0.111454	0.003626	99
Es	1.169599	1.211255	-0.588778	99
Es	3.603942	-0.125157	0.004441	99
Es	-1.202309	-0.922147	-0.111668	99
Es	3.326815	0.224817	0.247906	99
Es	-1.203010	-0.550533	0.273608	99
Es	3.328390	0.219161	-0.244705	99
Es	-2.491960	-0.574910	0.002269	99
Es	0.082576	-0.575155	0.002338	99
Es	2.141556	0.853483	-0.002706	99
Es	-3.506671	0.109259	0.010219	99
Es	-3.241983	-0.575329	0.001632	99
Es	3.437052	-0.303340	0.005988	99
Es	1.099644	0.135976	0.000363	99
Es	2.889049	0.871889	-0.004019	99
Es	-0.607646	-0.575339	0.001622	99
Es	-1.798391	-0.575314	0.001629	99
Es	1.171786	1.212999	0.585997	99
Es	1.071373	-0.923476	0.586771	99
Es	1.071806	-0.926000	-0.582640	99
Es	1.383841	0.846175	-0.001166	99
Es	0.835963	-0.575257	0.001633	99
41
Properties=species:S:1:pos:R:3:Z:I:1 energy=-306.77635860214303 field_type=dipole dipole="0.000000 0.000000 0.000000" charge=0
C	-3.242093	-0.575331	0.001633	6
C	-1.798093	-0.575331	0.001633	6
C	-0.607933	-0.575331	0.001633	6
C	0.836067	-0.575331	0.001633	6
C	1.383797	0.846199	-0.001167	6
C	2.889067	0.871889	-0.004017	6
O	3.604097	-0.125441	0.004443	8
H	-3.636083	0.445559	0.013343	1
H	-3.636173	-1.095871	0.879873	1
H	-3.636163	-1.075591	-0.888317	1
H	1.209727	-1.118471	-0.874917	1
H	1.209836	-1.115171	0.880153	1
H	1.044396	1.395549	0.884123	1
H	1.041337	1.392719	-0.887007	1
H	3.338207	1.879949	-0.013037	1
Es	-3.485708	-0.918957	0.570400	99
Es	3.326072	0.222684	0.248015	99
Es	2.141663	0.853483	-0.002788	99
Es	3.440466	-0.299637	0.006764	99
Es	-0.607646	-0.575347	0.001631	99
Es	3.603946	-0.125177	0.004441	99
Es	1.071410	-0.923031	0.586749	99
Es	1.383843	0.846174	-0.001168	99
Es	1.072163	-0.925995	-0.582471	99
Es	2.889049	0.871889	-0.004017	99
Es	3.942163	-0.110791	0.003706	99
Es	1.171431	1.213179	0.585841	99
Es	-1.199237	-0.239422	-0.150619	99
Es	-3.241984	-0.575328	0.001633	99
Es	-1.203028	-0.553187	0.265134	99
Es	-1.798393	-0.575310	0.001632	99
Es	-3.507328	0.109029	0.010074	99
Es	1.099434	0.135687	0.000269	99
Es	3.184362	1.567627	-0.010081	99
Es	-2.491871	-0.575148	0.002147	99
Es	3.325408	0.217049	-0.245621	99
Es	-1.202291	-0.923000	-0.110446	99
Es	0.835964	-0.575258	0.001632	99
Es	-3.487031	-0.907432	-0.575921	99
Es	1.169792	1.210820	-0.588535	99
Es	0.082425	-0.575101	0.002282	99
41
Properties=species:S:1:pos:R:3:Z:I:1 energy=-306.77635860214303 field_type=dipole dipole="0.000000 0.000000 0.000000" charge=0
C	-3.242093	-0.575331	0.001633	6
C	-1.798093	-0.575331	0.001633	6
C	-0.607933	-0.575331	0.001633	6
C	0.836067	-0.575331	0.001633	6
C	1.383797	0.846199	-0.001167	6
C	2.889067	0.871889	-0.004017	6
O	3.604097	-0.125441	0.004443	8
H	-3.636083	0.445559	0.013343	1
H	-3.636173	-1.095871	0.879873	1
H	-3.636163	-1.075591	-0.888317	1
H	1.209727	-1.118471	-0.874917	1
H	1.209836	-1.115171	0.880153	1
H	1.044396	1.395549	0.884123	1
H	1.041337	1.392719	-0.887007	1
H	3.338207	1.879949	-0.013037	1
Es	-1.199269	-0.238319	0.151403	99
Es	1.099341	0.135615	0.000554	99
Es	2.141750	0.853435	-0.002538	99
Es	-2.491792	-0.575225	0.000936	99
Es	3.322705	0.217125	-0.245440	99
Es	2.889049	0.871889	-0.004011	99
Es	3.942397	-0.111407	0.004000	99
Es	-3.487687	-0.921245	0.571234	99
Es	-1.798393	-0.575315	0.001640	99
Es	1.172277	1.212360	0.585216	99
Es	3.442814	-0.296058	0.006208	99
Es	-3.484419	-0.904810	-0.573529	99
Es	1.072981	-0.924557	0.586825	99
Es	0.835963	-0.575256	0.001633	99
Es	1.383843	0.846173	-0.001167	99
Es	0.082346	-0.574940	0.001087	99
Es	-3.508069	0.108732	0.007695	99
Es	-1.203018	-0.552480	-0.254807	99
Es	-1.202277	-0.924817	0.108868	99
Es	1.168829	1.211426	-0.588791	99
Es	3.603860	-0.125154	0.004441	99
Es	3.184263	1.567384	-0.010716	99
Es	1.070797	-0.924180	-0.582067	99
Es	-0.607646	-0.575343	0.001629	99
Es	3.326417	0.219797	0.248745	99
Es	-3.241990	-0.575331	0.001636	99
41
Properties=species:S:1:pos:R:3:Z:I:1 energy=-306.77635860214303 field_type=dipole dipole="0.000000 0.000000 0.000000" charge=0
C	-3.242093	-0.575331	0.001633	6
C	-1.798093	-0.575331	0.001633	6
C	-0.607933	-0.575331	0.001633	6
C	0.836067	-0.575331	0.001633	6
C	1.383797	0.846199	-0.001167	6
C	2.889067	0.871889	-0.004017	6
O	3.604097	-0.125441	0.004443	8
H	-3.636083	0.445559	0.013343	1
H	-3.636173	-1.095871	0.879873	1
H	-3.636163	-1.075591	-0.888317	1
H	1.209727	-1.118471	-0.874917	1
H	1.209836	-1.115171	0.880153	1
H	1.044396	1.395549	0.884123	1
H	1.041337	1.392719	-0.887007	1
H	3.338207	1.879949	-0.013037	1
Es	3.603938	-0.125190	0.004440	99
Es	3.184197	1.567259	-0.010564	99
Es	0.082249	-0.574891	0.001187	99
Es	0.835963	-0.575257	0.001634	99
Es	-2.491733	-0.575349	0.001015	99
Es	-3.484174	-0.904801	-0.572876	99
Es	1.070894	-0.924292	-0.581928	99
Es	1.099219	0.135364	0.000427	99
Es	2.141811	0.853450	-0.002664	99
Es	1.072978	-0.924240	0.586675	99
Es	-3.487292	-0.920913	0.570574	99
Es	1.383842	0.846173	-0.001167	99
Es	-0.607646	-0.575344	0.001632	99
Es	1.173109	1.211432	0.585012	99
Es	2.889050	0.871890	-0.004021	99
Es	-1.199265	-0.235404	0.145752	99
Es	1.168051	1.212277	-0.588462	99
Es	-1.798392	-0.575309	0.001632	99
Es	-1.202258	-0.925191	0.107699	99
Es	3.322123	0.219062	0.249304	99
Es	-3.241984	-0.575328	0.001633	99
Es	3.942642	-0.110770	0.004381	99
Es	3.323259	0.213240	-0.246551	99
Es	-1.203033	-0.554916	-0.247946	99
Es	3.446317	-0.291939	0.006257	99
Es	-3.508796	0.108486	0.007606	99
41
Properties=species:S:1:pos:R:3:Z:I:1 energy=-306.77635860214303 field_type=dipole dipole="0.000000 0.000000 0.000000" charge=0
C	-3.242093	-0.575331	0.001633	6
C	-1.798093	-0.575331	0.001633	6
C	-0.607933	-0.575331	0.001633	6
C	0.836067	-0.575331	0.001633	6
C	1.383797	0.846199	-0.001167	6
C	2.889067	0.871889	-0.004017	6
O	3.604097	-0.125441	0.004443	8
H	-3.636083	0.445559	0.013343	1
H	-3.636173	-1.095871	0.879873	1
H	-3.636163	-1.075591	-0.888317	1
H	1.209727	-1.118471	-0.874917	1
H	1.209836	-1.115171	0.880153	1
H	1.044396	1.395549	0.884123	1
H	1.041337	1.392719	-0.887007	1
H	3.338207	1.879949	-0.013037	1
Es	3.184119	1.567101	-0.010606	99
Es	1.072693	-0.923710	0.586775	99
Es	-1.203059	-0.559396	-0.238879	99
Es	0.835964	-0.575256	0.001636	99
Es	3.603938	-0.125142	0.004441	99
Es	3.320823	0.211451	-0.247232	99
Es	-3.241985	-0.575327	0.001633	99
Es	3.942774	-0.110793	0.003830	99
Es	-3.487068	-0.920686	0.570365	99
Es	1.168012	1.211948	-0.588483	99
Es	1.383842	0.846172	-0.001166	99
Es	2.141890	0.853355	-0.002612	99
Es	0.082210	-0.574814	0.000972	99
Es	3.448734	-0.288695	0.006916	99
Es	2.889049	0.871889	-0.004017	99
Es	1.071556	-0.924477	-0.581994	99
Es	-1.798394	-0.575310	0.001634	99
Es	3.322116	0.217713	0.249897	99
Es	-3.508938	0.108261	0.007822	99
Es	1.172769	1.211413	0.585028	99
Es	-3.484344	-0.904850	-0.572759	99
Es	-1.202238	-0.925113	0.107940	99
Es	1.099183	0.135458	0.000573	99
Es	-2.491664	-0.575300	0.000975	99
Es	-1.199263	-0.231049	0.136361	99
Es	-0.607645	-0.575343	0.001631	99
