47
Properties=species:S:1:pos:R:3:Z:I:1 energy=-309.14580695257706 field_type=dipole dipole="0.000000 0.000000 0.000000" charge=0
C	-2.853203	-1.027316	0.819484	6
C	-1.341343	-1.007136	0.651944	6
C	-0.816693	0.420274	0.495374	6
C	0.677567	0.439154	0.333334	6
C	1.306747	0.938124	-0.742596	6
C	2.789107	0.978344	-0.911216	6
O	3.126437	0.239624	-2.073606	8
H	-3.207793	-2.055996	0.935854	1
H	-3.349713	-0.593416	-0.053856	1
H	-3.156863	-0.460706	1.705094	1
H	-1.069433	-1.607076	-0.225416	1
H	-0.878463	-1.485206	1.524314	1
H	-1.076323	1.010124	1.381834	1
H	-1.304973	0.900294	-0.361246	1
H	1.259047	0.031024	1.159494	1
H	0.727957	1.357334	-1.562376	1
H	3.322297	0.549284	-0.057076	1
H	3.127227	2.010574	-1.045706	1
H	2.718417	-0.637306	-1.973636	1
Es	3.430369	0.199502	-2.069535	99
Es	1.068738	0.157459	0.899055	99
Es	-3.094649	-1.730031	0.898843	99
Es	3.013272	1.681161	-1.003178	99
Es	-0.987037	0.817879	1.101302	99
Es	-2.853182	-1.027316	0.819482	99
Es	-1.147009	0.745476	-0.093800	99
Es	-0.816644	0.420249	0.495378	99
Es	3.126212	0.239505	-2.073326	99
Es	-1.341366	-1.007099	0.651950	99
Es	1.012023	0.982781	-0.069839	99
Es	-0.062920	0.428784	0.410266	99
Es	-1.020764	-1.330544	1.252889	99
Es	1.306806	0.938154	-0.742673	99
Es	-3.056997	-0.637570	1.425079	99
Es	2.789111	0.978229	-0.911403	99
Es	3.145382	0.683342	-0.312767	99
Es	0.918083	1.222435	-1.302612	99
Es	2.900815	-0.227730	-1.999493	99
Es	0.995648	0.384359	-0.357991	99
Es	2.039571	0.959525	-0.812464	99
Es	0.677498	0.439112	0.333434	99
Es	2.978666	0.374904	-2.305734	99
Es	-1.067821	-0.287670	0.573150	99
Es	-3.188850	-0.728309	0.221348	99
Es	2.985883	0.502370	-1.622821	99
Es	-1.154233	-1.414126	0.048493	99
Es	-2.101473	-1.012276	0.736535	99
47
Properties=species:S:1:pos:R:3:Z:I:1 energy=-309.14580695257706 field_type=dipole dipole="0.000000 0.000000 0.000000" charge=0
C	-2.853203	-1.027316	0.819484	6
C	-1.341343	-1.007136	0.651944	6
C	-0.816693	0.420274	0.495374	6
C	0.677567	0.439154	0.333334	6
C	1.306747	0.938124	-0.742596	6
C	2.789107	0.978344	-0.911216	6
O	3.126437	0.239624	-2.073606	8
H	-3.207793	-2.055996	0.935854	1
H	-3.349713	-0.593416	-0.053856	1
H	-3.156863	-0.460706	1.705094	1
H	-1.069433	-1.607076	-0.225416	1
H	-0.878463	-1.485206	1.524314	1
H	-1.076323	1.010124	1.381834	1
H	-1.304973	0.900294	-0.361246	1
H	1.259047	0.031024	1.159494	1
H	0.727957	1.357334	-1.562376	1
H	3.322297	0.549284	-0.057076	1
H	3.127227	2.010574	-1.045706	1
H	2.718417	-0.637306	-1.973636	1
Es	3.423471	0.197398	-2.063069	99
Es	2.039443	0.959237	-0.812946	99
Es	-3.188463	-0.728282	0.221545	99
Es	1.068169	0.157407	0.898771	99
Es	2.986764	0.502352	-1.622131	99
Es	-1.341367	-1.007098	0.651950	99
Es	1.306805	0.938159	-0.742670	99
Es	-1.021108	-1.330586	1.252929	99
Es	-2.101463	-1.012237	0.736391	99
Es	2.789112	0.978225	-0.911400	99
Es	2.984141	0.378112	-2.312417	99
Es	-0.062904	0.428705	0.410397	99
Es	3.013398	1.681969	-1.002945	99
Es	-0.986826	0.818375	1.101345	99
Es	-3.094584	-1.730636	0.898637	99
Es	-1.067870	-0.287652	0.573312	99
Es	0.918776	1.222130	-1.302406	99
Es	-3.056775	-0.637175	1.425367	99
Es	1.011987	0.984880	-0.068868	99
Es	-1.146670	0.745277	-0.093680	99
Es	-1.154478	-1.414487	0.048322	99
Es	0.677501	0.439113	0.333430	99
Es	3.126257	0.239535	-2.073393	99
Es	3.144699	0.683067	-0.313045	99
Es	-2.853182	-1.027317	0.819482	99
Es	2.901359	-0.228850	-1.999891	99
Es	0.995580	0.382689	-0.358827	99
Es	-0.816644	0.420249	0.495378	99
47
Properties=species:S:1:pos:R:3:Z:I:1 energy=-309.14580695257706 field_type=dipole dipole="0.000000 0.000000 0.000000" charge=0
C	-2.853203	-1.027316	0.819484	6
C	-1.341343	-1.007136	0.651944	6
C	-0.816693	0.420274	0.495374	6
C	0.677567	0.439154	0.333334	6
C	1.306747	0.938124	-0.742596	6
C	2.789107	0.978344	-0.911216	6
O	3.126437	0.239624	-2.073606	8
H	-3.207793	-2.055996	0.935854	1
H	-3.349713	-0.593416	-0.053856	1
H	-3.156863	-0.460706	1.705094	1
H	-1.069433	-1.607076	-0.225416	1
H	-0.878463	-1.485206	1.524314	1
H	-1.076323	1.010124	1.381834	1
H	-1.304973	0.900294	-0.361246	1
H	1.259047	0.031024	1.159494	1
H	0.727957	1.357334	-1.562376	1
H	3.322297	0.549284	-0.057076	1
H	3.127227	2.010574	-1.045706	1
H	2.718417	-0.637306	-1.973636	1
Es	-2.853183	-1.027317	0.819483	99
Es	3.144218	0.682801	-0.313578	99
Es	-1.154599	-1.414910	0.048330	99
Es	1.306806	0.938154	-0.742672	99
Es	-2.101386	-1.012072	0.736410	99
Es	-0.062964	0.428283	0.410658	99
Es	-3.094572	-1.730885	0.898423	99
Es	2.994314	0.381506	-2.322822	99
Es	2.789112	0.978221	-0.911405	99
Es	-1.341368	-1.007098	0.651950	99
Es	3.414777	0.193772	-2.051987	99
Es	1.067801	0.157474	0.898346	99
Es	-1.067945	-0.287531	0.573198	99
Es	-3.056827	-0.636972	1.425525	99
Es	-1.021373	-1.330413	1.252884	99
Es	2.039375	0.958886	-0.813171	99
Es	0.677502	0.439109	0.333426	99
Es	3.013674	1.682385	-1.002463	99
Es	-1.146307	0.745211	-0.093624	99
Es	-0.986696	0.818695	1.101440	99
Es	-3.188210	-0.728373	0.221771	99
Es	2.901128	-0.228996	-1.999630	99
Es	1.012004	0.986128	-0.068316	99
Es	-0.816644	0.420249	0.495377	99
Es	0.919126	1.221833	-1.302181	99
Es	3.126349	0.239447	-2.073234	99
Es	2.985540	0.503064	-1.623345	99
Es	0.995478	0.381904	-0.359223	99
47
Properties=species:S:1:pos:R:3:Z:I:1 energy=-309.14580695257706 field_type=dipole dipole="0.000000 0.000000 0.000000" charge=0
C	-2.853203	-1.027316	0.819484	6
C	-1.341343	-1.007136	0.651944	6
C	-0.816693	0.420274	0.495374	6
C	0.677567	0.439154	0.333334	6
C	1.306747	0.938124	-0.742596	6
C	2.789107	0.978344	-0.911216	6
O	3.126437	0.239624	-2.073606	8
H	-3.207793	-2.055996	0.935854	1
H	-3.349713	-0.593416	-0.053856	1
H	-3.156863	-0.460706	1.705094	1
H	-1.069433	-1.607076	-0.225416	1
H	-0.878463	-1.485206	1.524314	1
H	-1.076323	1.010124	1.381834	1
H	-1.304973	0.900294	-0.361246	1
H	1.259047	0.031024	1.159494	1
H	0.727957	1.357334	-1.562376	1
H	3.322297	0.549284	-0.057076	1
H	3.127227	2.010574	-1.045706	1
H	2.718417	-0.637306	-1.973636	1
Es	3.013912	1.682312	-1.002195	99
Es	-3.056946	-0.636899	1.425353	99
Es	3.035209	0.389389	-2.347364	99
Es	-3.094752	-1.730824	0.898482	99
Es	1.306807	0.938159	-0.742671	99
Es	-1.146352	0.744905	-0.093038	99
Es	3.126277	0.239532	-2.073357	99
Es	-1.154506	-1.414893	0.048488	99
Es	2.980831	0.504451	-1.625751	99
Es	0.677502	0.439115	0.333424	99
Es	-0.987029	0.818643	1.101181	99
Es	2.896554	-0.226947	-2.002829	99
Es	1.012064	0.986397	-0.068148	99
Es	0.995416	0.381750	-0.359320	99
Es	-1.021198	-1.330218	1.252431	99
Es	-0.816644	0.420250	0.495377	99
Es	-1.068041	-0.287446	0.573147	99
Es	0.919139	1.221472	-1.301576	99
Es	-2.101378	-1.012072	0.736397	99
Es	3.383399	0.182597	-2.021768	99
Es	-0.062676	0.428320	0.410895	99
Es	1.067790	0.157692	0.897652	99
Es	3.144213	0.682920	-0.314161	99
Es	-2.853182	-1.027317	0.819483	99
Es	-3.188352	-0.728654	0.222249	99
Es	2.789112	0.978229	-0.911397	99
Es	-1.341367	-1.007099	0.651950	99
Es	2.039330	0.958786	-0.813367	99
47
Properties=species:S:1:pos:R:3:Z:I:1 energy=-309.14580695257706 field_type=dipole dipole="0.000000 0.000000 0.000000" charge=0
C	-2.853203	-1.027316	0.819484	6
C	-1.341343	-1.007136	0.651944	6
C	-0.816693	0.420274	0.495374	6
C	0.677567	0.439154	0.333334	6
C	1.306747	0.938124	-0.742596	6
C	2.789107	0.978344	-0.911216	6
O	3.126437	0.239624	-2.073606	8
H	-3.207793	-2.055996	0.935854	1
H	-3.349713	-0.593416	-0.053856	1
H	-3.156863	-0.460706	1.705094	1
H	-1.069433	-1.607076	-0.225416	1
H	-0.878463	-1.485206	1.524314	1
H	-1.076323	1.010124	1.381834	1
H	-1.304973	0.900294	-0.361246	1
H	1.259047	0.031024	1.159494	1
H	0.727957	1.357334	-1.562376	1
H	3.322297	0.549284	-0.057076	1
H	3.127227	2.010574	-1.045706	1
H	2.718417	-0.637306	-1.973636	1
Es	-1.020895	-1.330144	1.252301	99
Es	-0.987016	0.818313	1.100867	99
Es	1.012179	0.986088	-0.068250	99
Es	-2.853182	-1.027317	0.819483	99
Es	3.126009	0.239578	-2.073386	99
Es	-2.101299	-1.012097	0.736484	99
Es	3.144329	0.682966	-0.314461	99
Es	-0.062480	0.428331	0.411007	99
Es	-1.068082	-0.287383	0.573317	99
Es	3.074363	0.391038	-2.360029	99
Es	-1.146758	0.744897	-0.092951	99
Es	-0.816644	0.420249	0.495378	99
Es	0.995291	0.382253	-0.359134	99
Es	2.892676	-0.225487	-2.005138	99
Es	0.919046	1.221403	-1.301435	99
Es	-1.341367	-1.007097	0.651950	99
Es	1.306805	0.938156	-0.742673	99
Es	-3.188651	-0.728744	0.222329	99
Es	-3.094808	-1.730447	0.898573	99
Es	2.789112	0.978222	-0.911404	99
Es	0.677500	0.439112	0.333428	99
Es	3.352422	0.177790	-2.003974	99
Es	2.976840	0.506309	-1.628462	99
Es	1.067922	0.157663	0.897347	99
Es	-3.057117	-0.637158	1.425203	99
Es	3.014156	1.682106	-1.002144	99
Es	-1.154433	-1.414691	0.048665	99
Es	2.039211	0.958647	-0.813321	99
47
Properties=species:S:1:pos:R:3:Z:I:1 energy=-309.14580695257706 field_type=dipole dipole="0.000000 0.000000 0.000000" charge=0
C	-2.853203	-1.027316	0.819484	6
C	-1.341343	-1.007136	0.651944	6
C	-0.816693	0.420274	0.495374	6
C	0.677567	0.439154	0.333334	6
C	1.306747	0.938124	-0.742596	6
C	2.789107	0.978344	-0.911216	6
O	3.126437	0.239624	-2.073606	8
H	-3.207793	-2.055996	0.935854	1
H	-3.349713	-0.593416	-0.053856	1
H	-3.156863	-0.460706	1.705094	1
H	-1.069433	-1.607076	-0.225416	1
H	-0.878463	-1.485206	1.524314	1
H	-1.076323	1.010124	1.381834	1
H	-1.304973	0.900294	-0.361246	1
H	1.259047	0.031024	1.159494	1
H	0.727957	1.357334	-1.562376	1
H	3.322297	0.549284	-0.057076	1
H	3.127227	2.010574	-1.045706	1
H	2.718417	-0.637306	-1.973636	1
Es	-1.154401	-1.414541	0.049035	99
Es	-3.094859	-1.730223	0.898703	99
Es	2.891870	-0.224776	-2.005504	99
Es	2.789111	0.978224	-0.911401	99
Es	-0.987062	0.818132	1.100756	99
Es	-2.101381	-1.012166	0.736388	99
Es	1.306807	0.938157	-0.742672	99
Es	-2.853182	-1.027317	0.819483	99
Es	-0.816644	0.420248	0.495378	99
Es	0.677499	0.439111	0.333428	99
Es	3.014057	1.681874	-1.002143	99
Es	1.012145	0.985671	-0.068400	99
Es	-1.020715	-1.330129	1.252364	99
Es	-0.062314	0.428206	0.411137	99
Es	3.330556	0.177631	-1.996470	99
Es	2.974518	0.506869	-1.630326	99
Es	-1.341367	-1.007099	0.651950	99
Es	-3.057065	-0.637388	1.425081	99
Es	-1.146991	0.744843	-0.093037	99
Es	-1.067965	-0.287205	0.573206	99
Es	1.068112	0.157591	0.897230	99
Es	-3.188900	-0.728659	0.222292	99
Es	2.039253	0.958621	-0.813394	99
Es	3.144485	0.683010	-0.314435	99
Es	3.099531	0.390225	-2.365474	99
Es	3.125953	0.239479	-2.073239	99
Es	0.918872	1.221474	-1.301324	99
Es	0.995207	0.382692	-0.359045	99
47
Properties=species:S:1:pos:R:3:Z:I:1 energy=-309.14580695257706 field_type=dipole dipole="0.000000 0.000000 0.000000" charge=0
C	-2.853203	-1.027316	0.819484	6
C	-1.341343	-1.007136	0.651944	6
C	-0.816693	0.420274	0.495374	6
C	0.677567	0.439154	0.333334	6
C	1.306747	0.938124	-0.742596	6
C	2.789107	0.978344	-0.911216	6
O	3.126437	0.239624	-2.073606	8
H	-3.207793	-2.055996	0.935854	1
H	-3.349713	-0.593416	-0.053856	1
H	-3.156863	-0.460706	1.705094	1
H	-1.069433	-1.607076	-0.225416	1
H	-0.878463	-1.485206	1.524314	1
H	-1.076323	1.010124	1.381834	1
H	-1.304973	0.900294	-0.361246	1
H	1.259047	0.031024	1.159494	1
H	0.727957	1.357334	-1.562376	1
H	3.322297	0.549284	-0.057076	1
H	3.127227	2.010574	-1.045706	1
H	2.718417	-0.637306	-1.973636	1
Es	-1.147206	0.745071	-0.093158	99
Es	-3.057012	-0.637746	1.425021	99
Es	-1.341367	-1.007098	0.651949	99
Es	1.306807	0.938156	-0.742673	99
Es	3.118578	0.389235	-2.368229	99
Es	-1.068209	-0.287091	0.573266	99
Es	-2.853182	-1.027317	0.819483	99
Es	-0.816643	0.420249	0.495378	99
Es	3.144631	0.682989	-0.314437	99
Es	1.068268	0.157564	0.897125	99
Es	0.995138	0.382989	-0.358893	99
Es	0.677500	0.439110	0.333427	99
Es	-0.062183	0.428058	0.411407	99
Es	0.918743	1.221450	-1.301267	99
Es	2.789113	0.978221	-0.911406	99
Es	1.012248	0.985372	-0.068519	99
Es	-3.189298	-0.728563	0.222249	99
Es	-1.154564	-1.414142	0.049171	99
Es	-1.020262	-1.330312	1.252365	99
Es	-2.101324	-1.012254	0.736431	99
Es	3.126266	0.239482	-2.073287	99
Es	2.974654	0.507237	-1.630505	99
Es	2.891938	-0.224946	-2.005248	99
Es	2.039148	0.958650	-0.813508	99
Es	3.014016	1.681616	-1.002072	99
Es	-0.986928	0.817807	1.100488	99
Es	-3.094818	-1.729888	0.898814	99
Es	3.311079	0.178657	-1.993804	99
47
Properties=species:S:1:pos:R:3:Z:I:1 energy=-309.14580695257706 field_type=dipole dipole="0.000000 0.000000 0.000000" charge=0
C	-2.853203	-1.027316	0.819484	6
C	-1.341343	-1.007136	0.651944	6
C	-0.816693	0.420274	0.495374	6
C	0.677567	0.439154	0.333334	6
C	1.306747	0.938124	-0.742596	6
C	2.789107	0.978344	-0.911216	6
O	3.126437	0.239624	-2.073606	8
H	-3.207793	-2.055996	0.935854	1
H	-3.349713	-0.593416	-0.053856	1
H	-3.156863	-0.460706	1.705094	1
H	-1.069433	-1.607076	-0.225416	1
H	-0.878463	-1.485206	1.524314	1
H	-1.076323	1.010124	1.381834	1
H	-1.304973	0.900294	-0.361246	1
H	1.259047	0.031024	1.159494	1
H	0.727957	1.357334	-1.562376	1
H	3.322297	0.549284	-0.057076	1
H	3.127227	2.010574	-1.045706	1
H	2.718417	-0.637306	-1.973636	1
Es	-2.853183	-1.027317	0.819482	99
Es	-3.093500	-1.729771	0.900237	99
Es	-0.985499	0.816563	1.100540	99
Es	-1.156048	-1.412981	0.049161	99
Es	-1.147369	0.747048	-0.096504	99
Es	2.969502	0.286355	-2.133760	99
Es	2.039070	0.958965	-0.813558	99
Es	-0.816644	0.420249	0.495377	99
Es	-2.101295	-1.012241	0.736359	99
Es	0.918219	1.223186	-1.304134	99
Es	1.012188	0.983874	-0.069351	99
Es	3.012382	1.681624	-1.003063	99
Es	1.306806	0.938158	-0.742673	99
Es	-3.189602	-0.726676	0.218532	99
Es	-0.062595	0.427829	0.411684	99
Es	2.789112	0.978218	-0.911403	99
Es	3.009664	0.496022	-1.614616	99
Es	3.383221	0.306199	-2.263396	99
Es	-1.068087	-0.287141	0.573154	99
Es	0.995273	0.384449	-0.358082	99
Es	-1.020313	-1.332377	1.255907	99
Es	-3.055356	-0.638807	1.424878	99
Es	3.144616	0.681804	-0.311448	99
Es	1.068725	0.155941	0.900103	99
Es	0.677500	0.439110	0.333429	99
Es	-1.341367	-1.007099	0.651950	99
Es	3.126489	0.239260	-2.072912	99
Es	2.933223	-0.237892	-1.986329	99
47
Properties=species:S:1:pos:R:3:Z:I:1 energy=-309.14580695257706 field_type=dipole dipole="0.000000 0.000000 0.000000" charge=0
C	-2.853203	-1.027316	0.819484	6
C	-1.341343	-1.007136	0.651944	6
C	-0.816693	0.420274	0.495374	6
C	0.677567	0.439154	0.333334	6
C	1.306747	0.938124	-0.742596	6
C	2.789107	0.978344	-0.911216	6
O	3.126437	0.239624	-2.073606	8
H	-3.207793	-2.055996	0.935854	1
H	-3.349713	-0.593416	-0.053856	1
H	-3.156863	-0.460706	1.705094	1
H	-1.069433	-1.607076	-0.225416	1
H	-0.878463	-1.485206	1.524314	1
H	-1.076323	1.010124	1.381834	1
H	-1.304973	0.900294	-0.361246	1
H	1.259047	0.031024	1.159494	1
H	0.727957	1.357334	-1.562376	1
H	3.322297	0.549284	-0.057076	1
H	3.127227	2.010574	-1.045706	1
H	2.718417	-0.637306	-1.973636	1
Es	-3.190103	-0.726636	0.218698	99
Es	-1.341367	-1.007098	0.651951	99
Es	0.677499	0.439109	0.333428	99
Es	1.012251	0.983033	-0.069719	99
Es	-2.101229	-1.012163	0.736428	99
Es	3.145016	0.681974	-0.311444	99
Es	-1.019808	-1.332432	1.255737	99
Es	3.009590	0.497229	-1.614958	99
Es	2.988933	0.274931	-2.114977	99
Es	2.039118	0.958981	-0.813568	99
Es	-0.062313	0.427968	0.411639	99
Es	-3.093620	-1.729356	0.900353	99
Es	1.306807	0.938158	-0.742674	99
Es	-3.055460	-0.639250	1.424569	99
Es	0.995156	0.385306	-0.357735	99
Es	-2.853182	-1.027317	0.819482	99
Es	-1.147970	0.747087	-0.096264	99
Es	2.932449	-0.238121	-1.986100	99
Es	1.069085	0.155898	0.899958	99
Es	3.012356	1.681172	-1.003151	99
Es	-1.156066	-1.412602	0.049485	99
Es	3.364194	0.317236	-2.282669	99
Es	-1.067977	-0.287169	0.573124	99
Es	-0.985538	0.816104	1.100245	99
Es	2.789112	0.978223	-0.911401	99
Es	-0.816643	0.420248	0.495375	99
Es	0.917851	1.223215	-1.303971	99
Es	3.126993	0.238827	-2.072272	99
47
Properties=species:S:1:pos:R:3:Z:I:1 energy=-309.14580695257706 field_type=dipole dipole="0.000000 0.000000 0.000000" charge=0
C	-2.853203	-1.027316	0.819484	6
C	-1.341343	-1.007136	0.651944	6
C	-0.816693	0.420274	0.495374	6
C	0.677567	0.439154	0.333334	6
C	1.306747	0.938124	-0.742596	6
C	2.789107	0.978344	-0.911216	6
O	3.126437	0.239624	-2.073606	8
H	-3.207793	-2.055996	0.935854	1
H	-3.349713	-0.593416	-0.053856	1
H	-3.156863	-0.460706	1.705094	1
H	-1.069433	-1.607076	-0.225416	1
H	-0.878463	-1.485206	1.524314	1
H	-1.076323	1.010124	1.381834	1
H	-1.304973	0.900294	-0.361246	1
H	1.259047	0.031024	1.159494	1
H	0.727957	1.357334	-1.562376	1
H	3.322297	0.549284	-0.057076	1
H	3.127227	2.010574	-1.045706	1
H	2.718417	-0.637306	-1.973636	1
Es	-1.341367	-1.007096	0.651951	99
Es	3.145074	0.682905	-0.314101	99
Es	3.013699	1.681107	-1.002214	99
Es	0.677498	0.439109	0.333428	99
Es	3.125990	0.239591	-2.073406	99
Es	2.892748	-0.225188	-2.004599	99
Es	2.789112	0.978224	-0.911400	99
Es	-1.068099	-0.287101	0.573254	99
Es	-3.056874	-0.638373	1.424726	99
Es	-2.101400	-1.012210	0.736429	99
Es	-3.094619	-1.729280	0.899276	99
Es	-1.019668	-1.330714	1.252919	99
Es	1.306806	0.938158	-0.742674	99
Es	-2.853182	-1.027317	0.819484	99
Es	3.267768	0.184162	-1.992322	99
Es	2.039055	0.958445	-0.813527	99
Es	3.162909	0.384215	-2.368904	99
Es	-0.986795	0.816959	1.099945	99
Es	-1.147881	0.745427	-0.093609	99
Es	1.012359	0.984378	-0.068931	99
Es	1.068646	0.157149	0.897365	99
Es	-3.189932	-0.728295	0.221599	99
Es	-1.154795	-1.413456	0.049671	99
Es	0.918317	1.221697	-1.301637	99
Es	-0.816643	0.420248	0.495377	99
Es	0.995002	0.384243	-0.358381	99
Es	2.973237	0.507397	-1.631789	99
Es	-0.061831	0.428169	0.411640	99
47
Properties=species:S:1:pos:R:3:Z:I:1 energy=-309.14580695257706 field_type=dipole dipole="0.000000 0.000000 0.000000" charge=0
C	-2.853203	-1.027316	0.819484	6
C	-1.341343	-1.007136	0.651944	6
C	-0.816693	0.420274	0.495374	6
C	0.677567	0.439154	0.333334	6
C	1.306747	0.938124	-0.742596	6
C	2.789107	0.978344	-0.911216	6
O	3.126437	0.239624	-2.073606	8
H	-3.207793	-2.055996	0.935854	1
H	-3.349713	-0.593416	-0.053856	1
H	-3.156863	-0.460706	1.705094	1
H	-1.069433	-1.607076	-0.225416	1
H	-0.878463	-1.485206	1.524314	1
H	-1.076323	1.010124	1.381834	1
H	-1.304973	0.900294	-0.361246	1
H	1.259047	0.031024	1.159494	1
H	0.727957	1.357334	-1.562376	1
H	3.322297	0.549284	-0.057076	1
H	3.127227	2.010574	-1.045706	1
H	2.718417	-0.637306	-1.973636	1
Es	-2.101255	-1.012215	0.736359	99
Es	1.012407	0.984188	-0.068985	99
Es	-0.061798	0.428135	0.411687	99
Es	-1.068102	-0.287006	0.573080	99
Es	-1.148026	0.745450	-0.093687	99
Es	-2.853181	-1.027316	0.819483	99
Es	-0.816644	0.420248	0.495377	99
Es	3.259596	0.186368	-1.993325	99
Es	-3.056795	-0.638583	1.424711	99
Es	-0.986725	0.816855	1.099895	99
Es	2.789112	0.978222	-0.911402	99
Es	-1.341368	-1.007097	0.651950	99
Es	-3.190167	-0.728208	0.221584	99
Es	-1.019531	-1.330698	1.253098	99
Es	-3.094585	-1.729104	0.899330	99
Es	3.169392	0.382561	-2.369105	99
Es	-1.154931	-1.413455	0.049844	99
Es	3.013659	1.680953	-1.002137	99
Es	0.994968	0.384487	-0.358284	99
Es	3.126436	0.239424	-2.073193	99
Es	2.893942	-0.225767	-2.002695	99
Es	3.145087	0.682843	-0.314048	99
Es	1.306808	0.938157	-0.742674	99
Es	0.677499	0.439109	0.333428	99
Es	2.039093	0.958485	-0.813700	99
Es	1.068742	0.157112	0.897361	99
Es	0.918165	1.221675	-1.301599	99
Es	2.973332	0.507730	-1.632786	99
47
Properties=species:S:1:pos:R:3:Z:I:1 energy=-309.14580695257706 field_type=dipole dipole="0.000000 0.000000 0.000000" charge=0
C	-2.853203	-1.027316	0.819484	6
C	-1.341343	-1.007136	0.651944	6
C	-0.816693	0.420274	0.495374	6
C	0.677567	0.439154	0.333334	6
C	1.306747	0.938124	-0.742596	6
C	2.789107	0.978344	-0.911216	6
O	3.126437	0.239624	-2.073606	8
H	-3.207793	-2.055996	0.935854	1
H	-3.349713	-0.593416	-0.053856	1
H	-3.156863	-0.460706	1.705094	1
H	-1.069433	-1.607076	-0.225416	1
H	-0.878463	-1.485206	1.524314	1
H	-1.076323	1.010124	1.381834	1
H	-1.304973	0.900294	-0.361246	1
H	1.259047	0.031024	1.159494	1
H	0.727957	1.357334	-1.562376	1
H	3.322297	0.549284	-0.057076	1
H	3.127227	2.010574	-1.045706	1
H	2.718417	-0.637306	-1.973636	1
Es	1.306807	0.938156	-0.742674	99
Es	3.145200	0.682705	-0.313809	99
Es	-0.816644	0.420249	0.495376	99
Es	-2.853182	-1.027317	0.819483	99
Es	0.677499	0.439112	0.333429	99
Es	3.247541	0.188725	-1.994881	99
Es	-1.019363	-1.330939	1.253258	99
Es	3.126172	0.239555	-2.073363	99
Es	2.039109	0.958618	-0.813814	99
Es	-3.056704	-0.638848	1.424635	99
Es	2.789112	0.978224	-0.911400	99
Es	1.068878	0.157049	0.897488	99
Es	-3.190374	-0.728023	0.221285	99
Es	0.918049	1.221782	-1.301675	99
Es	-1.148254	0.745566	-0.093905	99
Es	-1.341368	-1.007096	0.651950	99
Es	-0.986634	0.816612	1.099807	99
Es	3.180934	0.380897	-2.367604	99
Es	1.012300	0.983811	-0.069107	99
Es	2.973154	0.507640	-1.632342	99
Es	2.894868	-0.226358	-2.002837	99
Es	-1.155071	-1.413184	0.049996	99
Es	-2.101321	-1.012185	0.736422	99
Es	-3.094475	-1.728930	0.899460	99
Es	-1.067993	-0.286894	0.573126	99
Es	-0.061720	0.428040	0.411750	99
Es	3.013578	1.680819	-1.002253	99
Es	0.995033	0.384769	-0.358234	99
47
Properties=species:S:1:pos:R:3:Z:I:1 energy=-309.14580695257706 field_type=dipole dipole="0.000000 0.000000 0.000000" charge=0
C	-2.853203	-1.027316	0.819484	6
C	-1.341343	-1.007136	0.651944	6
C	-0.816693	0.420274	0.495374	6
C	0.677567	0.439154	0.333334	6
C	1.306747	0.938124	-0.742596	6
C	2.789107	0.978344	-0.911216	6
O	3.126437	0.239624	-2.073606	8
H	-3.207793	-2.055996	0.935854	1
H	-3.349713	-0.593416	-0.053856	1
H	-3.156863	-0.460706	1.705094	1
H	-1.069433	-1.607076	-0.225416	1
H	-0.878463	-1.485206	1.524314	1
H	-1.076323	1.010124	1.381834	1
H	-1.304973	0.900294	-0.361246	1
H	1.259047	0.031024	1.159494	1
H	0.727957	1.357334	-1.562376	1
H	3.322297	0.549284	-0.057076	1
H	3.127227	2.010574	-1.045706	1
H	2.718417	-0.637306	-1.973636	1
Es	-3.056609	-0.639063	1.424556	99
Es	-1.341368	-1.007097	0.651951	99
Es	-0.816644	0.420248	0.495377	99
Es	2.974174	0.507278	-1.631361	99
Es	0.917889	1.221871	-1.301851	99
Es	3.125412	0.239448	-2.072837	99
Es	3.233732	0.192396	-1.999049	99
Es	3.013439	1.680629	-1.002283	99
Es	3.145303	0.682693	-0.313626	99
Es	0.677499	0.439109	0.333427	99
Es	-1.019134	-1.331072	1.253501	99
Es	1.306808	0.938156	-0.742674	99
Es	-3.190638	-0.727942	0.221113	99
Es	-1.068033	-0.286873	0.572999	99
Es	2.897019	-0.227345	-2.001958	99
Es	-0.061623	0.428024	0.411824	99
Es	-1.148455	0.745759	-0.094070	99
Es	-2.101237	-1.012255	0.736333	99
Es	-3.094421	-1.728663	0.899615	99
Es	1.012363	0.983483	-0.069336	99
Es	-0.986552	0.816302	1.099577	99
Es	2.039131	0.958604	-0.813803	99
Es	-1.155230	-1.412979	0.050238	99
Es	1.069042	0.156903	0.897630	99
Es	-2.853182	-1.027317	0.819483	99
Es	3.192384	0.378787	-2.365853	99
Es	0.994949	0.385248	-0.357953	99
Es	2.789112	0.978223	-0.911401	99
