39
Properties=species:S:1:pos:R:3:Z:I:1 energy=-342.64440098177874 field_type=dipole dipole="0.000000 0.000000 0.000000" charge=0
C	-2.583814	-0.449329	0.202848	6
C	-1.139814	-0.449329	0.202848	6
C	0.050346	-0.449329	0.202848	6
C	1.494346	-0.449329	0.202848	6
C	2.130246	0.885411	-0.128782	6
O	1.437186	1.670411	-0.986522	8
O	3.237936	1.212041	0.277858	8
H	-2.977704	0.571601	0.213528	1
H	-2.977934	-0.969009	1.081568	1
H	-2.977844	-0.950389	-0.686662	1
H	1.876846	-1.178179	-0.519852	1
H	1.854636	-0.743529	1.195358	1
H	0.575566	1.298961	-1.257892	1
Es	-2.828339	-0.783682	-0.392080	99
Es	-0.539488	-0.265865	0.512989	99
Es	0.992294	1.449253	-1.111784	99
Es	1.400500	1.892876	-0.820373	99
Es	1.717447	-0.639551	0.852189	99
Es	-0.527783	-0.807424	0.193890	99
Es	3.237611	1.211909	0.277749	99
Es	0.751752	-0.435824	0.191764	99
Es	1.623936	1.658242	-1.199128	99
Es	1.437060	1.670050	-0.986392	99
Es	-1.140076	-0.449324	0.202841	99
Es	1.769080	0.223123	0.038381	99
Es	1.494247	-0.449257	0.202804	99
Es	-1.836583	-0.449306	0.202339	99
Es	2.961217	0.982014	-0.056835	99
Es	2.130048	0.885513	-0.128941	99
Es	-2.583691	-0.449323	0.202846	99
Es	0.050637	-0.449329	0.202834	99
Es	-2.826951	0.232570	0.209328	99
Es	3.325295	1.481678	0.165946	99
Es	-0.526953	-0.257092	-0.119317	99
Es	3.349321	0.993988	0.465208	99
Es	-2.827198	-0.796012	0.788759	99
Es	1.662600	1.345812	-0.658084	99
Es	2.745895	1.213572	0.338922	99
Es	1.735681	-0.910873	-0.281828	99
39
Properties=species:S:1:pos:R:3:Z:I:1 energy=-342.64440098177874 field_type=dipole dipole="0.000000 0.000000 0.000000" charge=0
C	-2.583814	-0.449329	0.202848	6
C	-1.139814	-0.449329	0.202848	6
C	0.050346	-0.449329	0.202848	6
C	1.494346	-0.449329	0.202848	6
C	2.130246	0.885411	-0.128782	6
O	1.437186	1.670411	-0.986522	8
O	3.237936	1.212041	0.277858	8
H	-2.977704	0.571601	0.213528	1
H	-2.977934	-0.969009	1.081568	1
H	-2.977844	-0.950389	-0.686662	1
H	1.876846	-1.178179	-0.519852	1
H	1.854636	-0.743529	1.195358	1
H	0.575566	1.298961	-1.257892	1
Es	1.736398	-0.905896	-0.277344	99
Es	3.305525	1.471552	0.153190	99
Es	-2.831980	-0.783253	-0.390618	99
Es	1.720146	-0.640239	0.849355	99
Es	2.130047	0.885513	-0.128941	99
Es	3.373706	1.000601	0.466813	99
Es	-2.828533	0.227938	0.210651	99
Es	1.770738	0.221490	0.039096	99
Es	1.612231	1.716698	-1.198160	99
Es	-0.540176	-0.266293	0.506480	99
Es	0.747897	-0.436256	0.193201	99
Es	3.237615	1.211927	0.277748	99
Es	-1.832358	-0.450027	0.200842	99
Es	1.683840	1.336335	-0.678897	99
Es	1.402690	1.836081	-0.799374	99
Es	-2.828013	-0.792293	0.784390	99
Es	2.966417	0.984799	-0.048013	99
Es	-2.583690	-0.449329	0.202848	99
Es	1.494244	-0.449260	0.202806	99
Es	2.737760	1.213756	0.339351	99
Es	-0.527600	-0.801685	0.196528	99
Es	0.979775	1.456480	-1.111982	99
Es	0.050649	-0.449323	0.202847	99
Es	1.437037	1.670057	-0.986352	99
Es	-0.526715	-0.262309	-0.115269	99
Es	-1.140089	-0.449322	0.202831	99
39
Properties=species:S:1:pos:R:3:Z:I:1 energy=-342.64440098177874 field_type=dipole dipole="0.000000 0.000000 0.000000" charge=0
C	-2.583814	-0.449329	0.202848	6
C	-1.139814	-0.449329	0.202848	6
C	0.050346	-0.449329	0.202848	6
C	1.494346	-0.449329	0.202848	6
C	2.130246	0.885411	-0.128782	6
O	1.437186	1.670411	-0.986522	8
O	3.237936	1.212041	0.277858	8
H	-2.977704	0.571601	0.213528	1
H	-2.977934	-0.969009	1.081568	1
H	-2.977844	-0.950389	-0.686662	1
H	1.876846	-1.178179	-0.519852	1
H	1.854636	-0.743529	1.195358	1
H	0.575566	1.298961	-1.257892	1
Es	3.467803	1.091509	0.454754	99
Es	-2.583692	-0.449330	0.202843	99
Es	-1.140092	-0.449327	0.202833	99
Es	2.972314	0.977949	-0.036565	99
Es	-0.526287	-0.259950	-0.107445	99
Es	1.404041	1.752897	-0.788615	99
Es	-1.830976	-0.450527	0.200982	99
Es	1.772863	0.221822	0.039028	99
Es	-2.834014	-0.783869	-0.389811	99
Es	0.050651	-0.449310	0.202857	99
Es	-2.827404	-0.789835	0.782338	99
Es	3.211032	1.397554	0.146025	99
Es	-0.528070	-0.803565	0.192132	99
Es	2.130043	0.885518	-0.128932	99
Es	0.974844	1.461763	-1.111140	99
Es	2.732912	1.203522	0.346398	99
Es	3.237548	1.212075	0.277628	99
Es	-0.540151	-0.267224	0.502923	99
Es	0.746545	-0.436387	0.193388	99
Es	1.437039	1.670044	-0.986372	99
Es	1.735640	-0.903490	-0.274149	99
Es	1.720407	-0.641191	0.846830	99
Es	-2.828892	0.225629	0.211105	99
Es	1.701224	1.329893	-0.702692	99
Es	1.494244	-0.449259	0.202808	99
Es	1.597989	1.800829	-1.185129	99
39
Properties=species:S:1:pos:R:3:Z:I:1 energy=-342.64440098177874 field_type=dipole dipole="0.000000 0.000000 0.000000" charge=0
C	-2.583814	-0.449329	0.202848	6
C	-1.139814	-0.449329	0.202848	6
C	0.050346	-0.449329	0.202848	6
C	1.494346	-0.449329	0.202848	6
C	2.130246	0.885411	-0.128782	6
O	1.437186	1.670411	-0.986522	8
O	3.237936	1.212041	0.277858	8
H	-2.977704	0.571601	0.213528	1
H	-2.977934	-0.969009	1.081568	1
H	-2.977844	-0.950389	-0.686662	1
H	1.876846	-1.178179	-0.519852	1
H	1.854636	-0.743529	1.195358	1
H	0.575566	1.298961	-1.257892	1
Es	-0.539892	-0.253632	0.490876	99
Es	1.721492	-0.642144	0.846628	99
Es	1.584545	1.841825	-1.166863	99
Es	-2.834497	-0.783520	-0.389451	99
Es	1.494241	-0.449261	0.202804	99
Es	-0.527081	-0.273939	-0.115569	99
Es	3.237545	1.211744	0.277822	99
Es	1.773586	0.221483	0.038377	99
Es	3.503088	1.164259	0.424123	99
Es	-2.583692	-0.449328	0.202844	99
Es	1.410621	1.707211	-0.802087	99
Es	2.726807	1.206362	0.341826	99
Es	-0.527544	-0.803256	0.212116	99
Es	-1.140092	-0.449325	0.202831	99
Es	3.177535	1.318684	0.175984	99
Es	-2.829065	0.224565	0.211392	99
Es	0.050655	-0.449325	0.202854	99
Es	2.130040	0.885522	-0.128926	99
Es	0.745997	-0.437170	0.193235	99
Es	-2.827451	-0.789311	0.781337	99
Es	-1.830399	-0.450148	0.200788	99
Es	2.976952	0.981231	-0.032106	99
Es	0.971995	1.466059	-1.108299	99
Es	1.437051	1.670000	-0.986396	99
Es	1.710763	1.330311	-0.710021	99
Es	1.734363	-0.901156	-0.272093	99
39
Properties=species:S:1:pos:R:3:Z:I:1 energy=-342.64440098177874 field_type=dipole dipole="0.000000 0.000000 0.000000" charge=0
C	-2.583814	-0.449329	0.202848	6
C	-1.139814	-0.449329	0.202848	6
C	0.050346	-0.449329	0.202848	6
C	1.494346	-0.449329	0.202848	6
C	2.130246	0.885411	-0.128782	6
O	1.437186	1.670411	-0.986522	8
O	3.237936	1.212041	0.277858	8
H	-2.977704	0.571601	0.213528	1
H	-2.977934	-0.969009	1.081568	1
H	-2.977844	-0.950389	-0.686662	1
H	1.876846	-1.178179	-0.519852	1
H	1.854636	-0.743529	1.195358	1
H	0.575566	1.298961	-1.257892	1
Es	1.716086	1.332280	-0.711638	99
Es	0.969883	1.469903	-1.105480	99
Es	-2.828720	0.223746	0.211655	99
Es	-1.140095	-0.449322	0.202823	99
Es	1.722868	-0.643334	0.846669	99
Es	3.514130	1.204734	0.401760	99
Es	1.733265	-0.898774	-0.270986	99
Es	0.745677	-0.437716	0.192967	99
Es	1.773630	0.220958	0.038199	99
Es	-0.526439	-0.798551	0.251280	99
Es	2.980448	0.987497	-0.028294	99
Es	1.576152	1.857032	-1.155158	99
Es	0.050656	-0.449317	0.202851	99
Es	-2.583690	-0.449329	0.202845	99
Es	-0.539170	-0.225089	0.467322	99
Es	2.721828	1.210020	0.333142	99
Es	3.237583	1.211984	0.277698	99
Es	1.437109	1.669972	-0.986416	99
Es	-2.835541	-0.783548	-0.389200	99
Es	2.130041	0.885523	-0.128922	99
Es	1.494244	-0.449259	0.202807	99
Es	3.168152	1.267804	0.202924	99
Es	1.415639	1.686156	-0.814813	99
Es	-1.829986	-0.450363	0.200608	99
Es	-0.528952	-0.307093	-0.131064	99
Es	-2.827236	-0.788174	0.780450	99
39
Properties=species:S:1:pos:R:3:Z:I:1 energy=-342.64440098177874 field_type=dipole dipole="0.000000 0.000000 0.000000" charge=0
C	-2.583814	-0.449329	0.202848	6
C	-1.139814	-0.449329	0.202848	6
C	0.050346	-0.449329	0.202848	6
C	1.494346	-0.449329	0.202848	6
C	2.130246	0.885411	-0.128782	6
O	1.437186	1.670411	-0.986522	8
O	3.237936	1.212041	0.277858	8
H	-2.977704	0.571601	0.213528	1
H	-2.977934	-0.969009	1.081568	1
H	-2.977844	-0.950389	-0.686662	1
H	1.876846	-1.178179	-0.519852	1
H	1.854636	-0.743529	1.195358	1
H	0.575566	1.298961	-1.257892	1
Es	3.237557	1.211731	0.277835	99
Es	3.165100	1.233083	0.224187	99
Es	-0.528827	-0.301141	-0.130383	99
Es	1.721489	1.335447	-0.713731	99
Es	0.968517	1.472296	-1.103429	99
Es	1.723480	-0.644042	0.846429	99
Es	2.717691	1.210784	0.323004	99
Es	1.437324	1.669514	-0.986079	99
Es	-2.583689	-0.449327	0.202846	99
Es	-0.526468	-0.797439	0.246975	99
Es	-2.828634	0.222797	0.212346	99
Es	-1.829694	-0.450036	0.200613	99
Es	0.050656	-0.449318	0.202851	99
Es	3.518325	1.229125	0.386336	99
Es	1.419033	1.673501	-0.824521	99
Es	1.732345	-0.897231	-0.269624	99
Es	-0.539267	-0.232001	0.470914	99
Es	-2.826660	-0.787381	0.779389	99
Es	-2.836555	-0.783577	-0.389218	99
Es	-1.140095	-0.449327	0.202830	99
Es	1.774203	0.220604	0.037885	99
Es	1.494242	-0.449258	0.202807	99
Es	0.745405	-0.438186	0.192715	99
Es	2.983649	0.997076	-0.024447	99
Es	1.568393	1.864523	-1.145579	99
Es	2.130040	0.885523	-0.128926	99
39
Properties=species:S:1:pos:R:3:Z:I:1 energy=-342.64440098177874 field_type=dipole dipole="0.000000 0.000000 0.000000" charge=0
C	-2.583814	-0.449329	0.202848	6
C	-1.139814	-0.449329	0.202848	6
C	0.050346	-0.449329	0.202848	6
C	1.494346	-0.449329	0.202848	6
C	2.130246	0.885411	-0.128782	6
O	1.437186	1.670411	-0.986522	8
O	3.237936	1.212041	0.277858	8
H	-2.977704	0.571601	0.213528	1
H	-2.977934	-0.969009	1.081568	1
H	-2.977844	-0.950389	-0.686662	1
H	1.876846	-1.178179	-0.519852	1
H	1.854636	-0.743529	1.195358	1
H	0.575566	1.298961	-1.257892	1
Es	0.050656	-0.449318	0.202853	99
Es	-0.525266	-0.783670	0.303215	99
Es	1.724504	1.337812	-0.714684	99
Es	1.565708	1.860840	-1.144175	99
Es	1.731415	-0.895787	-0.268456	99
Es	3.237414	1.211451	0.277922	99
Es	3.519454	1.234727	0.381364	99
Es	1.774656	0.220387	0.037496	99
Es	-2.583689	-0.449328	0.202845	99
Es	0.745241	-0.438367	0.192358	99
Es	-0.537525	-0.187640	0.430265	99
Es	2.130036	0.885528	-0.128918	99
Es	3.164764	1.225073	0.228800	99
Es	1.494241	-0.449258	0.202807	99
Es	2.714971	1.208730	0.315172	99
Es	-2.837923	-0.783829	-0.389075	99
Es	2.985854	1.001711	-0.016661	99
Es	-2.828147	0.221705	0.212731	99
Es	-0.531825	-0.359296	-0.145716	99
Es	1.724199	-0.644719	0.845994	99
Es	-1.829439	-0.450097	0.200681	99
Es	1.419765	1.672707	-0.826469	99
Es	0.967534	1.473953	-1.101387	99
Es	-1.140094	-0.449327	0.202832	99
Es	-2.826072	-0.786149	0.778666	99
Es	1.437127	1.669899	-0.986433	99
39
Properties=species:S:1:pos:R:3:Z:I:1 energy=-342.64440098177874 field_type=dipole dipole="0.000000 0.000000 0.000000" charge=0
C	-2.583814	-0.449329	0.202848	6
C	-1.139814	-0.449329	0.202848	6
C	0.050346	-0.449329	0.202848	6
C	1.494346	-0.449329	0.202848	6
C	2.130246	0.885411	-0.128782	6
O	1.437186	1.670411	-0.986522	8
O	3.237936	1.212041	0.277858	8
H	-2.977704	0.571601	0.213528	1
H	-2.977934	-0.969009	1.081568	1
H	-2.977844	-0.950389	-0.686662	1
H	1.876846	-1.178179	-0.519852	1
H	1.854636	-0.743529	1.195358	1
H	0.575566	1.298961	-1.257892	1
Es	-1.829250	-0.449825	0.200850	99
Es	-0.527549	-0.800016	0.216142	99
Es	2.712970	1.205920	0.308637	99
Es	1.774636	0.219800	0.036939	99
Es	0.745021	-0.438752	0.192482	99
Es	1.420689	1.669551	-0.830704	99
Es	0.966837	1.475804	-1.100678	99
Es	-2.825504	-0.785384	0.777856	99
Es	-2.583693	-0.449328	0.202842	99
Es	-0.527367	-0.275117	-0.115980	99
Es	1.728331	1.340737	-0.716476	99
Es	0.050657	-0.449320	0.202855	99
Es	-2.827610	0.220350	0.213530	99
Es	1.494244	-0.449260	0.202807	99
Es	3.237570	1.212031	0.277667	99
Es	1.730616	-0.894330	-0.267383	99
Es	3.520272	1.236379	0.378285	99
Es	-2.839242	-0.783621	-0.389348	99
Es	-0.539685	-0.255233	0.487176	99
Es	1.561428	1.859702	-1.139400	99
Es	-1.140095	-0.449328	0.202830	99
Es	2.130037	0.885528	-0.128919	99
Es	1.437370	1.669339	-0.985721	99
Es	2.987326	1.008000	-0.010743	99
Es	3.164422	1.219262	0.232584	99
Es	1.725128	-0.645151	0.845896	99
39
Properties=species:S:1:pos:R:3:Z:I:1 energy=-342.64440098177874 field_type=dipole dipole="0.000000 0.000000 0.000000" charge=0
C	-2.583814	-0.449329	0.202848	6
C	-1.139814	-0.449329	0.202848	6
C	0.050346	-0.449329	0.202848	6
C	1.494346	-0.449329	0.202848	6
C	2.130246	0.885411	-0.128782	6
O	1.437186	1.670411	-0.986522	8
O	3.237936	1.212041	0.277858	8
H	-2.977704	0.571601	0.213528	1
H	-2.977934	-0.969009	1.081568	1
H	-2.977844	-0.950389	-0.686662	1
H	1.876846	-1.178179	-0.519852	1
H	1.854636	-0.743529	1.195358	1
H	0.575566	1.298961	-1.257892	1
Es	-2.840280	-0.784097	-0.389152	99
Es	3.237587	1.211880	0.277748	99
Es	3.164255	1.216312	0.234232	99
Es	-1.829143	-0.449983	0.200985	99
Es	-2.583689	-0.449331	0.202852	99
Es	1.559785	1.848087	-1.140711	99
Es	0.966295	1.476616	-1.099282	99
Es	3.520679	1.238791	0.376111	99
Es	1.775274	0.219899	0.036884	99
Es	0.744928	-0.438720	0.192412	99
Es	2.130039	0.885523	-0.128924	99
Es	-0.527561	-0.799946	0.216074	99
Es	-2.824931	-0.784273	0.777176	99
Es	1.437011	1.669964	-0.986218	99
Es	1.494243	-0.449259	0.202807	99
Es	0.050656	-0.449323	0.202848	99
Es	1.729723	-0.893042	-0.266487	99
Es	2.989021	1.012401	-0.002693	99
Es	1.731901	1.343368	-0.719534	99
Es	-0.539657	-0.257601	0.486802	99
Es	-1.140095	-0.449324	0.202824	99
Es	-2.827260	0.219762	0.213702	99
Es	2.711080	1.202189	0.300859	99
Es	-0.527382	-0.272995	-0.115469	99
Es	1.419549	1.677036	-0.827126	99
Es	1.725535	-0.646193	0.845307	99
39
Properties=species:S:1:pos:R:3:Z:I:1 energy=-342.64440098177874 field_type=dipole dipole="0.000000 0.000000 0.000000" charge=0
C	-2.583814	-0.449329	0.202848	6
C	-1.139814	-0.449329	0.202848	6
C	0.050346	-0.449329	0.202848	6
C	1.494346	-0.449329	0.202848	6
C	2.130246	0.885411	-0.128782	6
O	1.437186	1.670411	-0.986522	8
O	3.237936	1.212041	0.277858	8
H	-2.977704	0.571601	0.213528	1
H	-2.977934	-0.969009	1.081568	1
H	-2.977844	-0.950389	-0.686662	1
H	1.876846	-1.178179	-0.519852	1
H	1.854636	-0.743529	1.195358	1
H	0.575566	1.298961	-1.257892	1
Es	1.422186	1.664860	-0.832555	99
Es	0.965856	1.477669	-1.098555	99
Es	3.521220	1.241004	0.373269	99
Es	1.437551	1.669226	-0.986448	99
Es	-0.539617	-0.254234	0.486472	99
Es	-2.826365	0.218339	0.214256	99
Es	2.989542	1.015501	0.001884	99
Es	-2.824843	-0.783912	0.777027	99
Es	-0.527191	-0.797257	0.220086	99
Es	-1.140095	-0.449325	0.202841	99
Es	3.164152	1.212444	0.236572	99
Es	-0.527808	-0.278914	-0.119208	99
Es	1.775605	0.219640	0.036499	99
Es	2.130039	0.885524	-0.128926	99
Es	1.725786	-0.646326	0.845072	99
Es	1.729224	-0.892512	-0.265795	99
Es	-1.829058	-0.449740	0.201155	99
Es	-2.583691	-0.449331	0.202840	99
Es	1.736134	1.345787	-0.724968	99
Es	1.552775	1.857462	-1.130230	99
Es	-2.841382	-0.783357	-0.389561	99
Es	0.050656	-0.449321	0.202844	99
Es	0.744856	-0.438748	0.192259	99
Es	1.494243	-0.449259	0.202807	99
Es	2.710247	1.200831	0.296528	99
Es	3.237539	1.211689	0.277860	99
39
Properties=species:S:1:pos:R:3:Z:I:1 energy=-342.64440098177874 field_type=dipole dipole="0.000000 0.000000 0.000000" charge=0
C	-2.583814	-0.449329	0.202848	6
C	-1.139814	-0.449329	0.202848	6
C	0.050346	-0.449329	0.202848	6
C	1.494346	-0.449329	0.202848	6
C	2.130246	0.885411	-0.128782	6
O	1.437186	1.670411	-0.986522	8
O	3.237936	1.212041	0.277858	8
H	-2.977704	0.571601	0.213528	1
H	-2.977934	-0.969009	1.081568	1
H	-2.977844	-0.950389	-0.686662	1
H	1.876846	-1.178179	-0.519852	1
H	1.854636	-0.743529	1.195358	1
H	0.575566	1.298961	-1.257892	1
Es	1.728509	-0.891437	-0.264851	99
Es	1.776084	0.219626	0.036286	99
Es	3.521935	1.244597	0.369017	99
Es	0.050658	-0.449318	0.202855	99
Es	-1.140097	-0.449326	0.202830	99
Es	1.437446	1.669307	-0.986257	99
Es	-2.826514	0.218282	0.214233	99
Es	0.744805	-0.438932	0.192008	99
Es	-0.538237	-0.205083	0.447456	99
Es	1.736758	1.347235	-0.724282	99
Es	1.420030	1.674417	-0.829194	99
Es	2.989928	1.019270	0.008728	99
Es	0.965599	1.478092	-1.097703	99
Es	1.494242	-0.449258	0.202806	99
Es	-0.530734	-0.336834	-0.139522	99
Es	3.163928	1.208161	0.239053	99
Es	2.130038	0.885526	-0.128922	99
Es	-2.824368	-0.783247	0.776464	99
Es	3.237585	1.211876	0.277760	99
Es	1.726043	-0.647074	0.844676	99
Es	-1.828955	-0.449775	0.200996	99
Es	-2.583691	-0.449327	0.202846	99
Es	-0.525648	-0.788652	0.279548	99
Es	-2.841809	-0.783882	-0.389025	99
Es	2.709371	1.197521	0.291408	99
Es	1.554658	1.845976	-1.135190	99
39
Properties=species:S:1:pos:R:3:Z:I:1 energy=-342.64440098177874 field_type=dipole dipole="0.000000 0.000000 0.000000" charge=0
C	-2.583814	-0.449329	0.202848	6
C	-1.139814	-0.449329	0.202848	6
C	0.050346	-0.449329	0.202848	6
C	1.494346	-0.449329	0.202848	6
C	2.130246	0.885411	-0.128782	6
O	1.437186	1.670411	-0.986522	8
O	3.237936	1.212041	0.277858	8
H	-2.977704	0.571601	0.213528	1
H	-2.977934	-0.969009	1.081568	1
H	-2.977844	-0.950389	-0.686662	1
H	1.876846	-1.178179	-0.519852	1
H	1.854636	-0.743529	1.195358	1
H	0.575566	1.298961	-1.257892	1
Es	0.965414	1.478152	-1.096870	99
Es	-2.583689	-0.449324	0.202847	99
Es	1.728036	-0.890944	-0.264211	99
Es	0.050657	-0.449318	0.202859	99
Es	3.163950	1.209633	0.238192	99
Es	-0.532272	-0.366033	-0.145674	99
Es	3.521937	1.243823	0.369402	99
Es	1.494243	-0.449258	0.202806	99
Es	2.990486	1.021592	0.012677	99
Es	1.776189	0.219412	0.035702	99
Es	-0.525214	-0.780177	0.309093	99
Es	2.130039	0.885521	-0.128920	99
Es	-2.842398	-0.783350	-0.389355	99
Es	-2.825700	0.217324	0.214264	99
Es	-0.537157	-0.184306	0.424196	99
Es	1.550919	1.844900	-1.131149	99
Es	1.726491	-0.647055	0.844631	99
Es	1.740501	1.348963	-0.730933	99
Es	3.237581	1.211834	0.277787	99
Es	2.708838	1.194478	0.287809	99
Es	1.420538	1.672903	-0.827222	99
Es	1.437059	1.670047	-0.986415	99
Es	-1.828931	-0.449763	0.201117	99
Es	-2.824633	-0.782962	0.776704	99
Es	0.744774	-0.439028	0.191870	99
Es	-1.140095	-0.449325	0.202819	99
39
Properties=species:S:1:pos:R:3:Z:I:1 energy=-342.64440098177874 field_type=dipole dipole="0.000000 0.000000 0.000000" charge=0
C	-2.583814	-0.449329	0.202848	6
C	-1.139814	-0.449329	0.202848	6
C	0.050346	-0.449329	0.202848	6
C	1.494346	-0.449329	0.202848	6
C	2.130246	0.885411	-0.128782	6
O	1.437186	1.670411	-0.986522	8
O	3.237936	1.212041	0.277858	8
H	-2.977704	0.571601	0.213528	1
H	-2.977934	-0.969009	1.081568	1
H	-2.977844	-0.950389	-0.686662	1
H	1.876846	-1.178179	-0.519852	1
H	1.854636	-0.743529	1.195358	1
H	0.575566	1.298961	-1.257892	1
Es	0.050658	-0.449316	0.202855	99
Es	1.776452	0.219284	0.035585	99
Es	-2.823964	-0.782372	0.775990	99
Es	-1.140096	-0.449332	0.202828	99
Es	3.164654	1.213177	0.236297	99
Es	-2.583688	-0.449328	0.202847	99
Es	1.726864	-0.647723	0.844270	99
Es	-2.843696	-0.783042	-0.389464	99
Es	-0.528379	-0.288876	-0.123508	99
Es	2.708794	1.194283	0.287503	99
Es	3.236964	1.210901	0.278006	99
Es	3.522160	1.241085	0.369664	99
Es	-2.825156	0.216163	0.215006	99
Es	1.437035	1.670027	-0.986348	99
Es	0.744708	-0.439125	0.191882	99
Es	1.727448	-0.890015	-0.263618	99
Es	-0.526828	-0.795485	0.230191	99
Es	2.130037	0.885528	-0.128920	99
Es	-0.539424	-0.246042	0.480705	99
Es	0.964948	1.479719	-1.096298	99
Es	-1.828864	-0.449549	0.201246	99
Es	1.545956	1.850344	-1.122893	99
Es	2.990269	1.021837	0.014281	99
Es	1.743178	1.352619	-0.732408	99
Es	1.494241	-0.449259	0.202805	99
Es	1.423289	1.662235	-0.834476	99
39
Properties=species:S:1:pos:R:3:Z:I:1 energy=-342.64440098177874 field_type=dipole dipole="0.000000 0.000000 0.000000" charge=0
C	-2.583814	-0.449329	0.202848	6
C	-1.139814	-0.449329	0.202848	6
C	0.050346	-0.449329	0.202848	6
C	1.494346	-0.449329	0.202848	6
C	2.130246	0.885411	-0.128782	6
O	1.437186	1.670411	-0.986522	8
O	3.237936	1.212041	0.277858	8
H	-2.977704	0.571601	0.213528	1
H	-2.977934	-0.969009	1.081568	1
H	-2.977844	-0.950389	-0.686662	1
H	1.876846	-1.178179	-0.519852	1
H	1.854636	-0.743529	1.195358	1
H	0.575566	1.298961	-1.257892	1
Es	-2.824050	-0.782088	0.776117	99
Es	1.726968	-0.889609	-0.263159	99
Es	1.437139	1.669877	-0.986470	99
Es	1.548322	1.840649	-1.128124	99
Es	1.420905	1.672019	-0.830034	99
Es	0.964882	1.479705	-1.095679	99
Es	3.237586	1.211866	0.277752	99
Es	2.130038	0.885526	-0.128920	99
Es	-1.140096	-0.449328	0.202828	99
Es	-2.583690	-0.449328	0.202846	99
Es	-2.843768	-0.783198	-0.389213	99
Es	3.522661	1.242506	0.366955	99
Es	-0.532885	-0.377875	-0.147041	99
Es	-0.536797	-0.176859	0.417235	99
Es	1.494241	-0.449256	0.202806	99
Es	2.990498	1.026844	0.020454	99
Es	1.777015	0.219440	0.035521	99
Es	-1.828830	-0.449620	0.201188	99
Es	3.163941	1.208872	0.238720	99
Es	0.744694	-0.439002	0.191802	99
Es	1.726826	-0.648220	0.843753	99
Es	0.050658	-0.449315	0.202856	99
Es	2.708179	1.191207	0.281766	99
Es	-2.825034	0.216081	0.214710	99
Es	-0.524963	-0.775831	0.317426	99
Es	1.743122	1.352673	-0.732071	99
39
Properties=species:S:1:pos:R:3:Z:I:1 energy=-342.64440098177874 field_type=dipole dipole="0.000000 0.000000 0.000000" charge=0
C	-2.583814	-0.449329	0.202848	6
C	-1.139814	-0.449329	0.202848	6
C	0.050346	-0.449329	0.202848	6
C	1.494346	-0.449329	0.202848	6
C	2.130246	0.885411	-0.128782	6
O	1.437186	1.670411	-0.986522	8
O	3.237936	1.212041	0.277858	8
H	-2.977704	0.571601	0.213528	1
H	-2.977934	-0.969009	1.081568	1
H	-2.977844	-0.950389	-0.686662	1
H	1.876846	-1.178179	-0.519852	1
H	1.854636	-0.743529	1.195358	1
H	0.575566	1.298961	-1.257892	1
Es	-1.828827	-0.449532	0.201026	99
Es	3.522938	1.243643	0.365123	99
Es	-2.825202	0.216238	0.214543	99
Es	-0.525084	-0.729521	0.400482	99
Es	-0.537201	-0.473042	-0.146680	99
Es	1.727029	-0.647893	0.843954	99
Es	1.437064	1.670017	-0.986414	99
Es	0.964726	1.480022	-1.095220	99
Es	2.130038	0.885526	-0.128921	99
Es	3.237540	1.212131	0.277582	99
Es	-2.824154	-0.782209	0.776272	99
Es	1.744421	1.353465	-0.734641	99
Es	0.050658	-0.449317	0.202854	99
Es	-2.843515	-0.783266	-0.389052	99
Es	2.990348	1.027273	0.021396	99
Es	1.776896	0.219163	0.035162	99
Es	3.163930	1.207339	0.239644	99
Es	1.494242	-0.449258	0.202806	99
Es	-1.140096	-0.449323	0.202832	99
Es	0.744706	-0.439118	0.191602	99
Es	1.420929	1.672136	-0.829338	99
Es	1.726950	-0.889678	-0.263062	99
Es	-0.532394	-0.127850	0.334087	99
Es	-2.583690	-0.449328	0.202846	99
Es	2.708124	1.190851	0.281879	99
Es	1.547185	1.839271	-1.126737	99
39
Properties=species:S:1:pos:R:3:Z:I:1 energy=-342.64440098177874 field_type=dipole dipole="0.000000 0.000000 0.000000" charge=0
C	-2.583814	-0.449329	0.202848	6
C	-1.139814	-0.449329	0.202848	6
C	0.050346	-0.449329	0.202848	6
C	1.494346	-0.449329	0.202848	6
C	2.130246	0.885411	-0.128782	6
O	1.437186	1.670411	-0.986522	8
O	3.237936	1.212041	0.277858	8
H	-2.977704	0.571601	0.213528	1
H	-2.977934	-0.969009	1.081568	1
H	-2.977844	-0.950389	-0.686662	1
H	1.876846	-1.178179	-0.519852	1
H	1.854636	-0.743529	1.195358	1
H	0.575566	1.298961	-1.257892	1
Es	0.744646	-0.439176	0.191636	99
Es	1.539465	1.846829	-1.114633	99
Es	-2.844741	-0.782386	-0.389575	99
Es	2.130037	0.885527	-0.128918	99
Es	-1.140096	-0.449327	0.202829	99
Es	2.990511	1.028106	0.021964	99
Es	-2.824077	-0.781700	0.775995	99
Es	-0.531281	-0.341889	-0.142895	99
Es	-1.828789	-0.449530	0.201304	99
Es	1.726160	-0.888555	-0.262046	99
Es	1.777187	0.218894	0.034647	99
Es	1.437003	1.669967	-0.986228	99
Es	-2.824091	0.214766	0.215054	99
Es	3.163843	1.203700	0.241836	99
Es	1.727555	-0.648453	0.843841	99
Es	0.964623	1.480266	-1.095088	99
Es	1.494241	-0.449258	0.202806	99
Es	3.237582	1.211841	0.277779	99
Es	1.424065	1.659812	-0.834423	99
Es	2.708064	1.191512	0.279799	99
Es	1.749133	1.357985	-0.741926	99
Es	-0.525349	-0.784722	0.287094	99
Es	3.522915	1.246037	0.364171	99
Es	-2.583689	-0.449328	0.202844	99
Es	-0.538015	-0.203862	0.443302	99
Es	0.050658	-0.449316	0.202857	99
39
Properties=species:S:1:pos:R:3:Z:I:1 energy=-342.64440098177874 field_type=dipole dipole="0.000000 0.000000 0.000000" charge=0
C	-2.583814	-0.449329	0.202848	6
C	-1.139814	-0.449329	0.202848	6
C	0.050346	-0.449329	0.202848	6
C	1.494346	-0.449329	0.202848	6
C	2.130246	0.885411	-0.128782	6
O	1.437186	1.670411	-0.986522	8
O	3.237936	1.212041	0.277858	8
H	-2.977704	0.571601	0.213528	1
H	-2.977934	-0.969009	1.081568	1
H	-2.977844	-0.950389	-0.686662	1
H	1.876846	-1.178179	-0.519852	1
H	1.854636	-0.743529	1.195358	1
H	0.575566	1.298961	-1.257892	1
Es	1.437125	1.669951	-0.986373	99
Es	-1.828761	-0.449542	0.201445	99
Es	2.707894	1.190653	0.277468	99
Es	-2.823955	0.214413	0.215652	99
Es	1.494241	-0.449258	0.202805	99
Es	1.748648	1.358604	-0.739777	99
Es	0.744617	-0.439477	0.191824	99
Es	2.990455	1.030041	0.024761	99
Es	-0.538952	-0.363305	0.531707	99
Es	2.130039	0.885525	-0.128919	99
Es	-0.523649	-0.185836	-0.049184	99
Es	0.964403	1.481476	-1.095171	99
Es	1.540870	1.842139	-1.116509	99
Es	3.523002	1.239816	0.366597	99
Es	3.164091	1.208378	0.239150	99
Es	-2.823230	-0.781060	0.775012	99
Es	1.725951	-0.888117	-0.261992	99
Es	1.423155	1.662631	-0.834445	99
Es	1.776951	0.218544	0.034585	99
Es	3.237504	1.212198	0.277518	99
Es	-0.532042	-0.780906	0.104699	99
Es	0.050658	-0.449321	0.202863	99
Es	-1.140096	-0.449332	0.202823	99
Es	1.728100	-0.648627	0.843974	99
Es	-2.845764	-0.782519	-0.389330	99
Es	-2.583692	-0.449329	0.202844	99
