42
Properties=species:S:1:pos:R:3:Z:I:1 energy=-343.8465685385498 field_type=dipole dipole="0.000000 0.000000 0.000000" charge=0
C	-1.248797	-1.723551	-0.693973	6
C	-0.160367	-1.368521	0.306887	6
C	-0.012377	0.120569	0.447977	6
C	1.110593	0.780599	0.119417	6
C	1.322203	2.231709	0.280917	6
O	0.207133	2.973030	0.153077	8
O	2.430433	2.707860	0.465607	8
H	-1.357057	-2.810581	-0.765063	1
H	-1.007217	-1.341691	-1.691773	1
H	-2.216217	-1.306501	-0.394323	1
H	0.782903	-1.830931	-0.006563	1
H	-0.412547	-1.791061	1.286227	1
H	-0.861777	0.638229	0.887347	1
H	1.989073	0.251889	-0.239113	1
H	-0.565977	2.468949	-0.156653	1
Es	-0.160394	-1.368452	0.306872	99
Es	0.611428	2.666257	0.170145	99
Es	-1.318670	-2.460619	-0.737784	99
Es	0.276543	3.186347	-0.029674	99
Es	-0.081497	-0.608535	0.376562	99
Es	-1.248769	-1.723535	-0.693939	99
Es	-1.080390	-1.459885	-1.369264	99
Es	2.003438	2.522053	0.649193	99
Es	2.430110	2.707739	0.465554	99
Es	-0.702069	-1.526983	-0.188739	99
Es	-0.593510	0.475447	0.734251	99
Es	0.187779	3.002824	0.428265	99
Es	1.694220	0.426670	-0.125255	99
Es	-0.012465	0.120526	0.448001	99
Es	2.085091	2.558463	0.152518	99
Es	2.426550	3.014749	0.487380	99
Es	-0.334011	-1.641606	0.971389	99
Es	0.483065	-1.673937	0.090639	99
Es	0.450296	0.532749	-0.035577	99
Es	2.635809	2.481381	0.482951	99
Es	-0.182992	2.680306	-0.011317	99
Es	0.688951	0.464706	0.568813	99
Es	1.321953	2.231820	0.280895	99
Es	1.192877	1.503518	0.194299	99
Es	-1.905351	-1.433316	-0.484477	99
Es	0.207165	2.972685	0.153022	99
Es	1.110633	0.780694	0.119400	99
42
Properties=species:S:1:pos:R:3:Z:I:1 energy=-343.8465685385498 field_type=dipole dipole="0.000000 0.000000 0.000000" charge=0
C	-1.248797	-1.723551	-0.693973	6
C	-0.160367	-1.368521	0.306887	6
C	-0.012377	0.120569	0.447977	6
C	1.110593	0.780599	0.119417	6
C	1.322203	2.231709	0.280917	6
O	0.207133	2.973030	0.153077	8
O	2.430433	2.707860	0.465607	8
H	-1.357057	-2.810581	-0.765063	1
H	-1.007217	-1.341691	-1.691773	1
H	-2.216217	-1.306501	-0.394323	1
H	0.782903	-1.830931	-0.006563	1
H	-0.412547	-1.791061	1.286227	1
H	-0.861777	0.638229	0.887347	1
H	1.989073	0.251889	-0.239113	1
H	-0.565977	2.468949	-0.156653	1
Es	2.430182	2.707759	0.465563	99
Es	-0.702201	-1.527304	-0.188561	99
Es	-0.195992	2.678978	0.000554	99
Es	1.694630	0.426688	-0.123439	99
Es	2.089971	2.562751	0.158814	99
Es	-0.594376	0.475396	0.731474	99
Es	1.995577	2.523488	0.651130	99
Es	0.263362	3.210190	-0.006736	99
Es	0.618398	2.672083	0.161578	99
Es	1.193144	1.503078	0.196926	99
Es	1.321945	2.231821	0.280909	99
Es	-0.082776	-0.608016	0.376131	99
Es	0.449490	0.531212	-0.036158	99
Es	0.207163	2.973545	0.402301	99
Es	-1.906810	-1.433492	-0.484984	99
Es	-0.332806	-1.639900	0.969707	99
Es	2.618106	2.472745	0.475108	99
Es	-0.012466	0.120525	0.448003	99
Es	-1.318098	-2.459617	-0.738859	99
Es	0.690687	0.465625	0.570303	99
Es	0.483976	-1.674116	0.091382	99
Es	0.207172	2.972604	0.152980	99
Es	1.110645	0.780699	0.119404	99
Es	2.447599	3.018637	0.485411	99
Es	-1.081568	-1.461324	-1.367749	99
Es	-1.248771	-1.723536	-0.693939	99
Es	-0.160395	-1.368452	0.306872	99
42
Properties=species:S:1:pos:R:3:Z:I:1 energy=-343.8465685385498 field_type=dipole dipole="0.000000 0.000000 0.000000" charge=0
C	-1.248797	-1.723551	-0.693973	6
C	-0.160367	-1.368521	0.306887	6
C	-0.012377	0.120569	0.447977	6
C	1.110593	0.780599	0.119417	6
C	1.322203	2.231709	0.280917	6
O	0.207133	2.973030	0.153077	8
O	2.430433	2.707860	0.465607	8
H	-1.357057	-2.810581	-0.765063	1
H	-1.007217	-1.341691	-1.691773	1
H	-2.216217	-1.306501	-0.394323	1
H	0.782903	-1.830931	-0.006563	1
H	-0.412547	-1.791061	1.286227	1
H	-0.861777	0.638229	0.887347	1
H	1.989073	0.251889	-0.239113	1
H	-0.565977	2.468949	-0.156653	1
Es	-0.012465	0.120525	0.448003	99
Es	0.221770	2.944490	0.369273	99
Es	2.545326	2.466171	0.462872	99
Es	0.248821	3.230975	0.023382	99
Es	1.987672	2.532290	0.653326	99
Es	-0.331906	-1.638266	0.968518	99
Es	-0.595215	0.475383	0.730354	99
Es	-1.317223	-2.458020	-0.739432	99
Es	-0.702408	-1.527661	-0.188392	99
Es	1.193050	1.502552	0.198336	99
Es	2.430086	2.707638	0.465569	99
Es	2.091674	2.570975	0.163194	99
Es	-0.083417	-0.607941	0.376115	99
Es	-0.160395	-1.368451	0.306871	99
Es	0.485145	-1.674162	0.091742	99
Es	-1.908557	-1.433861	-0.485154	99
Es	1.321943	2.231821	0.280905	99
Es	2.526818	3.008736	0.490140	99
Es	-1.082239	-1.462730	-1.366737	99
Es	0.691265	0.466005	0.570897	99
Es	1.695291	0.426720	-0.122573	99
Es	-0.203700	2.680449	0.012143	99
Es	-1.248771	-1.723535	-0.693938	99
Es	0.207108	2.972384	0.153365	99
Es	1.110644	0.780698	0.119404	99
Es	0.626218	2.678497	0.152587	99
Es	0.449254	0.530384	-0.036646	99
42
Properties=species:S:1:pos:R:3:Z:I:1 energy=-343.8465685385498 field_type=dipole dipole="0.000000 0.000000 0.000000" charge=0
C	-1.248797	-1.723551	-0.693973	6
C	-0.160367	-1.368521	0.306887	6
C	-0.012377	0.120569	0.447977	6
C	1.110593	0.780599	0.119417	6
C	1.322203	2.231709	0.280917	6
O	0.207133	2.973030	0.153077	8
O	2.430433	2.707860	0.465607	8
H	-1.357057	-2.810581	-0.765063	1
H	-1.007217	-1.341691	-1.691773	1
H	-2.216217	-1.306501	-0.394323	1
H	0.782903	-1.830931	-0.006563	1
H	-0.412547	-1.791061	1.286227	1
H	-0.861777	0.638229	0.887347	1
H	1.989073	0.251889	-0.239113	1
H	-0.565977	2.468949	-0.156653	1
Es	1.193332	1.504178	0.198297	99
Es	1.693984	0.426122	-0.122552	99
Es	1.321943	2.231821	0.280907	99
Es	0.207219	2.972593	0.152890	99
Es	-0.331657	-1.638584	0.967068	99
Es	0.483899	-1.675416	0.091858	99
Es	0.449759	0.529801	-0.034261	99
Es	-0.203934	2.678156	0.019948	99
Es	2.107590	2.548758	0.162697	99
Es	-1.318216	-2.461653	-0.739562	99
Es	-1.906541	-1.431984	-0.485616	99
Es	-0.593897	0.475992	0.730038	99
Es	-0.160394	-1.368451	0.306871	99
Es	-0.012466	0.120525	0.448003	99
Es	-1.082647	-1.462227	-1.364937	99
Es	2.430033	2.707810	0.465547	99
Es	-0.702444	-1.527562	-0.188287	99
Es	-0.083330	-0.607263	0.376468	99
Es	0.237012	3.263969	0.060210	99
Es	1.110648	0.780696	0.119412	99
Es	2.724522	2.762834	0.495218	99
Es	0.690664	0.466552	0.568953	99
Es	-1.248770	-1.723536	-0.693937	99
Es	0.625488	2.679571	0.151211	99
Es	0.234694	2.912644	0.326774	99
Es	2.319016	2.771269	0.453793	99
Es	2.000282	2.495449	0.657114	99
42
Properties=species:S:1:pos:R:3:Z:I:1 energy=-343.8465685385498 field_type=dipole dipole="0.000000 0.000000 0.000000" charge=0
C	-1.248797	-1.723551	-0.693973	6
C	-0.160367	-1.368521	0.306887	6
C	-0.012377	0.120569	0.447977	6
C	1.110593	0.780599	0.119417	6
C	1.322203	2.231709	0.280917	6
O	0.207133	2.973030	0.153077	8
O	2.430433	2.707860	0.465607	8
H	-1.357057	-2.810581	-0.765063	1
H	-1.007217	-1.341691	-1.691773	1
H	-2.216217	-1.306501	-0.394323	1
H	0.782903	-1.830931	-0.006563	1
H	-0.412547	-1.791061	1.286227	1
H	-0.861777	0.638229	0.887347	1
H	1.989073	0.251889	-0.239113	1
H	-0.565977	2.468949	-0.156653	1
Es	2.629360	2.943562	0.490987	99
Es	-0.207840	2.681114	0.026689	99
Es	-1.316481	-2.458073	-0.739878	99
Es	-0.084018	-0.607704	0.376430	99
Es	1.695431	0.426280	-0.121754	99
Es	1.977974	2.530833	0.650976	99
Es	2.443288	2.530596	0.453753	99
Es	-0.012468	0.120526	0.447998	99
Es	0.236173	3.252415	0.056905	99
Es	1.192946	1.502787	0.199226	99
Es	-0.160395	-1.368451	0.306871	99
Es	-1.083338	-1.464063	-1.364738	99
Es	2.100930	2.573310	0.172582	99
Es	1.110648	0.780697	0.119416	99
Es	2.430015	2.707836	0.465543	99
Es	-0.330662	-1.636733	0.966532	99
Es	0.232927	2.918242	0.318232	99
Es	0.207252	2.972566	0.152876	99
Es	0.485859	-1.674644	0.091919	99
Es	-1.248770	-1.723535	-0.693937	99
Es	-0.702592	-1.527888	-0.188240	99
Es	1.321942	2.231822	0.280910	99
Es	0.449273	0.528999	-0.035630	99
Es	-1.909557	-1.433518	-0.485342	99
Es	0.691409	0.467169	0.570384	99
Es	-0.595469	0.475710	0.729303	99
Es	0.631952	2.682213	0.156113	99
42
Properties=species:S:1:pos:R:3:Z:I:1 energy=-343.8465685385498 field_type=dipole dipole="0.000000 0.000000 0.000000" charge=0
C	-1.248797	-1.723551	-0.693973	6
C	-0.160367	-1.368521	0.306887	6
C	-0.012377	0.120569	0.447977	6
C	1.110593	0.780599	0.119417	6
C	1.322203	2.231709	0.280917	6
O	0.207133	2.973030	0.153077	8
O	2.430433	2.707860	0.465607	8
H	-1.357057	-2.810581	-0.765063	1
H	-1.007217	-1.341691	-1.691773	1
H	-2.216217	-1.306501	-0.394323	1
H	0.782903	-1.830931	-0.006563	1
H	-0.412547	-1.791061	1.286227	1
H	-0.861777	0.638229	0.887347	1
H	1.989073	0.251889	-0.239113	1
H	-0.565977	2.468949	-0.156653	1
Es	-0.329986	-1.636110	0.965362	99
Es	0.207195	2.972603	0.152946	99
Es	-1.248770	-1.723536	-0.693936	99
Es	-0.702624	-1.528135	-0.188143	99
Es	0.236777	3.254234	0.055971	99
Es	0.631493	2.681229	0.162127	99
Es	-0.595183	0.475967	0.729074	99
Es	1.110647	0.780699	0.119408	99
Es	0.691365	0.467507	0.569772	99
Es	2.656845	2.912018	0.490257	99
Es	0.485674	-1.675135	0.092109	99
Es	1.321943	2.231821	0.280913	99
Es	1.193036	1.503166	0.199452	99
Es	-0.012468	0.120525	0.447997	99
Es	-1.084021	-1.464392	-1.363553	99
Es	0.233210	2.918031	0.307390	99
Es	1.975032	2.522950	0.646568	99
Es	2.430024	2.707826	0.465544	99
Es	-0.084097	-0.607469	0.376531	99
Es	2.413153	2.570355	0.452159	99
Es	0.449310	0.528637	-0.034901	99
Es	-1.909234	-1.432964	-0.485470	99
Es	-0.160395	-1.368452	0.306871	99
Es	2.106466	2.573148	0.178971	99
Es	1.695220	0.426032	-0.121519	99
Es	-1.316721	-2.458864	-0.740218	99
Es	-0.208102	2.680372	0.032443	99
42
Properties=species:S:1:pos:R:3:Z:I:1 energy=-343.8465685385498 field_type=dipole dipole="0.000000 0.000000 0.000000" charge=0
C	-1.248797	-1.723551	-0.693973	6
C	-0.160367	-1.368521	0.306887	6
C	-0.012377	0.120569	0.447977	6
C	1.110593	0.780599	0.119417	6
C	1.322203	2.231709	0.280917	6
O	0.207133	2.973030	0.153077	8
O	2.430433	2.707860	0.465607	8
H	-1.357057	-2.810581	-0.765063	1
H	-1.007217	-1.341691	-1.691773	1
H	-2.216217	-1.306501	-0.394323	1
H	0.782903	-1.830931	-0.006563	1
H	-0.412547	-1.791061	1.286227	1
H	-0.861777	0.638229	0.887347	1
H	1.989073	0.251889	-0.239113	1
H	-0.565977	2.468949	-0.156653	1
Es	2.111428	2.574721	0.186882	99
Es	0.235225	3.255365	0.060846	99
Es	-1.909309	-1.433284	-0.485358	99
Es	0.448783	0.527768	-0.034605	99
Es	-0.329475	-1.635708	0.964968	99
Es	-1.248770	-1.723535	-0.693936	99
Es	1.110646	0.780699	0.119411	99
Es	-1.084809	-1.464813	-1.363094	99
Es	1.321943	2.231821	0.280913	99
Es	0.691973	0.468213	0.569895	99
Es	2.429768	2.707993	0.465521	99
Es	1.193064	1.503231	0.199603	99
Es	-0.012466	0.120523	0.448003	99
Es	0.207156	2.972587	0.152987	99
Es	1.971502	2.517409	0.639660	99
Es	-0.702465	-1.527991	-0.188428	99
Es	2.663795	2.902856	0.489768	99
Es	-1.316539	-2.458727	-0.740215	99
Es	-0.208807	2.680668	0.035672	99
Es	-0.160394	-1.368452	0.306871	99
Es	-0.594959	0.475859	0.728717	99
Es	-0.084278	-0.607471	0.376621	99
Es	1.695001	0.426235	-0.121448	99
Es	0.235040	2.915030	0.301103	99
Es	0.485589	-1.675054	0.092222	99
Es	0.632158	2.682614	0.160181	99
Es	2.404989	2.583510	0.451365	99
42
Properties=species:S:1:pos:R:3:Z:I:1 energy=-343.8465685385498 field_type=dipole dipole="0.000000 0.000000 0.000000" charge=0
C	-1.248797	-1.723551	-0.693973	6
C	-0.160367	-1.368521	0.306887	6
C	-0.012377	0.120569	0.447977	6
C	1.110593	0.780599	0.119417	6
C	1.322203	2.231709	0.280917	6
O	0.207133	2.973030	0.153077	8
O	2.430433	2.707860	0.465607	8
H	-1.357057	-2.810581	-0.765063	1
H	-1.007217	-1.341691	-1.691773	1
H	-2.216217	-1.306501	-0.394323	1
H	0.782903	-1.830931	-0.006563	1
H	-0.412547	-1.791061	1.286227	1
H	-0.861777	0.638229	0.887347	1
H	1.989073	0.251889	-0.239113	1
H	-0.565977	2.468949	-0.156653	1
Es	2.115460	2.573247	0.193747	99
Es	-0.702767	-1.528344	-0.188089	99
Es	0.691763	0.467787	0.570252	99
Es	0.485513	-1.675030	0.092258	99
Es	2.430021	2.707828	0.465550	99
Es	1.193465	1.503454	0.199765	99
Es	1.110648	0.780698	0.119414	99
Es	-0.594614	0.475938	0.728511	99
Es	-1.248771	-1.723536	-0.693936	99
Es	-0.208799	2.680148	0.039030	99
Es	-0.328492	-1.634928	0.964085	99
Es	0.632782	2.683561	0.161563	99
Es	1.694484	0.426147	-0.121332	99
Es	1.321943	2.231821	0.280912	99
Es	0.234731	2.916317	0.298374	99
Es	-1.316606	-2.458811	-0.740298	99
Es	-0.012467	0.120524	0.448002	99
Es	-1.085375	-1.465385	-1.362256	99
Es	0.448931	0.528157	-0.034916	99
Es	2.394401	2.601256	0.451893	99
Es	2.672057	2.890962	0.487218	99
Es	-0.160394	-1.368453	0.306871	99
Es	0.207107	2.972463	0.153215	99
Es	-0.084601	-0.607542	0.376655	99
Es	1.969503	2.513340	0.634600	99
Es	-1.909304	-1.433189	-0.485599	99
Es	0.235167	3.253634	0.058636	99
42
Properties=species:S:1:pos:R:3:Z:I:1 energy=-343.8465685385498 field_type=dipole dipole="0.000000 0.000000 0.000000" charge=0
C	-1.248797	-1.723551	-0.693973	6
C	-0.160367	-1.368521	0.306887	6
C	-0.012377	0.120569	0.447977	6
C	1.110593	0.780599	0.119417	6
C	1.322203	2.231709	0.280917	6
O	0.207133	2.973030	0.153077	8
O	2.430433	2.707860	0.465607	8
H	-1.357057	-2.810581	-0.765063	1
H	-1.007217	-1.341691	-1.691773	1
H	-2.216217	-1.306501	-0.394323	1
H	0.782903	-1.830931	-0.006563	1
H	-0.412547	-1.791061	1.286227	1
H	-0.861777	0.638229	0.887347	1
H	1.989073	0.251889	-0.239113	1
H	-0.565977	2.468949	-0.156653	1
Es	-0.160393	-1.368453	0.306871	99
Es	1.966668	2.509809	0.627620	99
Es	0.235308	2.914726	0.293472	99
Es	-0.084809	-0.607653	0.376692	99
Es	0.207207	2.972561	0.152878	99
Es	1.193669	1.503462	0.199795	99
Es	2.119901	2.572839	0.201569	99
Es	0.692138	0.468050	0.570508	99
Es	1.321944	2.231821	0.280919	99
Es	1.110647	0.780698	0.119412	99
Es	2.674633	2.887019	0.485921	99
Es	-0.209214	2.680480	0.040807	99
Es	-1.316391	-2.458512	-0.740232	99
Es	-1.085784	-1.465748	-1.361996	99
Es	0.485490	-1.674914	0.092325	99
Es	0.448538	0.527851	-0.034970	99
Es	2.390703	2.608892	0.452209	99
Es	-1.909513	-1.433509	-0.485607	99
Es	0.234340	3.253716	0.061310	99
Es	-0.594352	0.475834	0.728437	99
Es	1.694196	0.426280	-0.121324	99
Es	-1.248770	-1.723536	-0.693936	99
Es	2.429515	2.708206	0.465488	99
Es	-0.012466	0.120524	0.448002	99
Es	0.633509	2.684439	0.162306	99
Es	-0.328127	-1.634587	0.963850	99
Es	-0.702799	-1.528226	-0.188202	99
42
Properties=species:S:1:pos:R:3:Z:I:1 energy=-343.8465685385498 field_type=dipole dipole="0.000000 0.000000 0.000000" charge=0
C	-1.248797	-1.723551	-0.693973	6
C	-0.160367	-1.368521	0.306887	6
C	-0.012377	0.120569	0.447977	6
C	1.110593	0.780599	0.119417	6
C	1.322203	2.231709	0.280917	6
O	0.207133	2.973030	0.153077	8
O	2.430433	2.707860	0.465607	8
H	-1.357057	-2.810581	-0.765063	1
H	-1.007217	-1.341691	-1.691773	1
H	-2.216217	-1.306501	-0.394323	1
H	0.782903	-1.830931	-0.006563	1
H	-0.412547	-1.791061	1.286227	1
H	-0.861777	0.638229	0.887347	1
H	1.989073	0.251889	-0.239113	1
H	-0.565977	2.468949	-0.156653	1
Es	-1.316289	-2.457998	-0.740146	99
Es	0.448316	0.527875	-0.035285	99
Es	0.222104	2.944801	0.205747	99
Es	-0.328025	-1.634762	0.964301	99
Es	-0.209384	2.680513	0.046766	99
Es	-1.248771	-1.723536	-0.693936	99
Es	2.387084	2.614949	0.452142	99
Es	1.693785	0.426573	-0.121464	99
Es	1.321943	2.231821	0.280916	99
Es	-0.160394	-1.368451	0.306869	99
Es	2.120034	2.572804	0.202556	99
Es	0.692373	0.467885	0.571027	99
Es	-1.909568	-1.434055	-0.485346	99
Es	1.967592	2.507509	0.627568	99
Es	2.676710	2.883731	0.484952	99
Es	2.429987	2.707877	0.465545	99
Es	1.193839	1.503458	0.199829	99
Es	-0.012466	0.120525	0.447999	99
Es	0.635591	2.686176	0.170705	99
Es	-0.702632	-1.528293	-0.188302	99
Es	-1.085978	-1.465657	-1.362446	99
Es	0.231973	3.254211	0.065763	99
Es	0.221078	2.940059	0.221620	99
Es	0.485279	-1.674578	0.092234	99
Es	1.110649	0.780697	0.119419	99
Es	-0.594163	0.475693	0.728493	99
Es	-0.084878	-0.607761	0.376599	99
42
Properties=species:S:1:pos:R:3:Z:I:1 energy=-343.8465685385498 field_type=dipole dipole="0.000000 0.000000 0.000000" charge=0
C	-1.248797	-1.723551	-0.693973	6
C	-0.160367	-1.368521	0.306887	6
C	-0.012377	0.120569	0.447977	6
C	1.110593	0.780599	0.119417	6
C	1.322203	2.231709	0.280917	6
O	0.207133	2.973030	0.153077	8
O	2.430433	2.707860	0.465607	8
H	-1.357057	-2.810581	-0.765063	1
H	-1.007217	-1.341691	-1.691773	1
H	-2.216217	-1.306501	-0.394323	1
H	0.782903	-1.830931	-0.006563	1
H	-0.412547	-1.791061	1.286227	1
H	-0.861777	0.638229	0.887347	1
H	1.989073	0.251889	-0.239113	1
H	-0.565977	2.468949	-0.156653	1
Es	-1.086732	-1.466373	-1.361199	99
Es	0.231567	3.250654	0.062964	99
Es	2.123910	2.573623	0.212512	99
Es	-0.702747	-1.528534	-0.188300	99
Es	-0.085356	-0.607914	0.376786	99
Es	0.448194	0.527493	-0.035042	99
Es	0.235507	2.914291	0.288093	99
Es	-1.248771	-1.723536	-0.693935	99
Es	2.677863	2.881932	0.482995	99
Es	-0.209072	2.679791	0.044965	99
Es	0.485410	-1.674596	0.092303	99
Es	2.430112	2.707596	0.465531	99
Es	0.207350	2.972497	0.152822	99
Es	0.692478	0.468258	0.570961	99
Es	0.636157	2.688330	0.161863	99
Es	1.194134	1.503648	0.199683	99
Es	1.693467	0.426427	-0.121209	99
Es	-0.012467	0.120526	0.448000	99
Es	1.321944	2.231822	0.280917	99
Es	-0.327118	-1.633865	0.963180	99
Es	-0.593821	0.475832	0.728147	99
Es	-1.316144	-2.457938	-0.740355	99
Es	1.110649	0.780698	0.119416	99
Es	-1.909807	-1.434008	-0.485387	99
Es	2.384742	2.619388	0.452107	99
Es	-0.160394	-1.368451	0.306870	99
Es	1.964735	2.504475	0.619438	99
42
Properties=species:S:1:pos:R:3:Z:I:1 energy=-343.8465685385498 field_type=dipole dipole="0.000000 0.000000 0.000000" charge=0
C	-1.248797	-1.723551	-0.693973	6
C	-0.160367	-1.368521	0.306887	6
C	-0.012377	0.120569	0.447977	6
C	1.110593	0.780599	0.119417	6
C	1.322203	2.231709	0.280917	6
O	0.207133	2.973030	0.153077	8
O	2.430433	2.707860	0.465607	8
H	-1.357057	-2.810581	-0.765063	1
H	-1.007217	-1.341691	-1.691773	1
H	-2.216217	-1.306501	-0.394323	1
H	0.782903	-1.830931	-0.006563	1
H	-0.412547	-1.791061	1.286227	1
H	-0.861777	0.638229	0.887347	1
H	1.989073	0.251889	-0.239113	1
H	-0.565977	2.468949	-0.156653	1
Es	2.378579	2.630450	0.452395	99
Es	0.234759	2.916270	0.290779	99
Es	0.634875	2.687094	0.163093	99
Es	-0.209170	2.679912	0.045788	99
Es	0.485379	-1.674467	0.092213	99
Es	-1.909827	-1.434235	-0.485332	99
Es	0.692759	0.468496	0.570729	99
Es	1.110647	0.780698	0.119410	99
Es	1.194368	1.503755	0.199547	99
Es	-1.087264	-1.466671	-1.360691	99
Es	0.207133	2.972745	0.153041	99
Es	1.693120	0.426430	-0.121244	99
Es	-0.593420	0.475883	0.728177	99
Es	-0.702793	-1.528603	-0.188249	99
Es	-0.085782	-0.607978	0.376963	99
Es	0.447893	0.527218	-0.034735	99
Es	1.963394	2.501502	0.613501	99
Es	0.234060	3.249418	0.058105	99
Es	-0.160395	-1.368451	0.306870	99
Es	1.321943	2.231822	0.280919	99
Es	-1.316051	-2.457853	-0.740389	99
Es	-1.248771	-1.723536	-0.693935	99
Es	-0.012465	0.120526	0.448002	99
Es	2.126663	2.573559	0.219488	99
Es	2.430012	2.707841	0.465533	99
Es	2.682682	2.873763	0.481579	99
Es	-0.326539	-1.633522	0.962565	99
42
Properties=species:S:1:pos:R:3:Z:I:1 energy=-343.8465685385498 field_type=dipole dipole="0.000000 0.000000 0.000000" charge=0
C	-1.248797	-1.723551	-0.693973	6
C	-0.160367	-1.368521	0.306887	6
C	-0.012377	0.120569	0.447977	6
C	1.110593	0.780599	0.119417	6
C	1.322203	2.231709	0.280917	6
O	0.207133	2.973030	0.153077	8
O	2.430433	2.707860	0.465607	8
H	-1.357057	-2.810581	-0.765063	1
H	-1.007217	-1.341691	-1.691773	1
H	-2.216217	-1.306501	-0.394323	1
H	0.782903	-1.830931	-0.006563	1
H	-0.412547	-1.791061	1.286227	1
H	-0.861777	0.638229	0.887347	1
H	1.989073	0.251889	-0.239113	1
H	-0.565977	2.468949	-0.156653	1
Es	0.234632	2.916370	0.288702	99
Es	0.485309	-1.674472	0.092240	99
Es	-0.209128	2.679799	0.047684	99
Es	1.692761	0.426379	-0.121065	99
Es	1.110648	0.780698	0.119413	99
Es	2.128387	2.572466	0.222908	99
Es	0.231613	3.246479	0.059562	99
Es	0.692821	0.468661	0.571078	99
Es	-1.909930	-1.434441	-0.485328	99
Es	-1.248771	-1.723537	-0.693935	99
Es	-0.702842	-1.528622	-0.188197	99
Es	2.681278	2.876176	0.480651	99
Es	-1.315964	-2.457626	-0.740367	99
Es	1.962368	2.500972	0.610521	99
Es	0.637280	2.690250	0.161732	99
Es	-0.160395	-1.368451	0.306871	99
Es	-0.326247	-1.633197	0.962337	99
Es	-0.593119	0.475829	0.727964	99
Es	0.447767	0.527141	-0.034929	99
Es	-1.087533	-1.466915	-1.360443	99
Es	2.379462	2.629541	0.452704	99
Es	-0.085967	-0.608056	0.377031	99
Es	1.194682	1.503834	0.199592	99
Es	0.207389	2.972430	0.152942	99
Es	2.429810	2.708011	0.465539	99
Es	1.321942	2.231822	0.280915	99
Es	-0.012465	0.120524	0.448002	99
42
Properties=species:S:1:pos:R:3:Z:I:1 energy=-343.8465685385498 field_type=dipole dipole="0.000000 0.000000 0.000000" charge=0
C	-1.248797	-1.723551	-0.693973	6
C	-0.160367	-1.368521	0.306887	6
C	-0.012377	0.120569	0.447977	6
C	1.110593	0.780599	0.119417	6
C	1.322203	2.231709	0.280917	6
O	0.207133	2.973030	0.153077	8
O	2.430433	2.707860	0.465607	8
H	-1.357057	-2.810581	-0.765063	1
H	-1.007217	-1.341691	-1.691773	1
H	-2.216217	-1.306501	-0.394323	1
H	0.782903	-1.830931	-0.006563	1
H	-0.412547	-1.791061	1.286227	1
H	-0.861777	0.638229	0.887347	1
H	1.989073	0.251889	-0.239113	1
H	-0.565977	2.468949	-0.156653	1
Es	-1.315645	-2.457285	-0.740467	99
Es	-1.248770	-1.723536	-0.693935	99
Es	0.485261	-1.674381	0.092318	99
Es	2.430064	2.707745	0.465532	99
Es	1.194839	1.503862	0.199527	99
Es	1.110648	0.780698	0.119416	99
Es	0.447824	0.527384	-0.035135	99
Es	0.232327	3.244101	0.056704	99
Es	0.637556	2.690676	0.162598	99
Es	0.692760	0.468314	0.571422	99
Es	1.321943	2.231822	0.280918	99
Es	-0.325872	-1.632793	0.962027	99
Es	-1.087766	-1.467135	-1.360093	99
Es	-0.160394	-1.368452	0.306870	99
Es	2.378491	2.631104	0.452586	99
Es	1.692473	0.426452	-0.121167	99
Es	0.207128	2.972553	0.153044	99
Es	-0.592967	0.475878	0.727984	99
Es	2.130340	2.573389	0.229478	99
Es	2.681594	2.875602	0.479899	99
Es	-0.086132	-0.608099	0.376929	99
Es	1.960780	2.499439	0.604761	99
Es	-0.012465	0.120525	0.448000	99
Es	-0.209134	2.679728	0.048447	99
Es	0.234107	2.918108	0.289846	99
Es	-1.910267	-1.434778	-0.485301	99
Es	-0.702936	-1.528858	-0.188083	99
42
Properties=species:S:1:pos:R:3:Z:I:1 energy=-343.8465685385498 field_type=dipole dipole="0.000000 0.000000 0.000000" charge=0
C	-1.248797	-1.723551	-0.693973	6
C	-0.160367	-1.368521	0.306887	6
C	-0.012377	0.120569	0.447977	6
C	1.110593	0.780599	0.119417	6
C	1.322203	2.231709	0.280917	6
O	0.207133	2.973030	0.153077	8
O	2.430433	2.707860	0.465607	8
H	-1.357057	-2.810581	-0.765063	1
H	-1.007217	-1.341691	-1.691773	1
H	-2.216217	-1.306501	-0.394323	1
H	0.782903	-1.830931	-0.006563	1
H	-0.412547	-1.791061	1.286227	1
H	-0.861777	0.638229	0.887347	1
H	1.989073	0.251889	-0.239113	1
H	-0.565977	2.468949	-0.156653	1
Es	-0.160394	-1.368451	0.306870	99
Es	1.195166	1.503997	0.199406	99
Es	0.640215	2.694859	0.161283	99
Es	-1.248771	-1.723537	-0.693936	99
Es	-0.592549	0.475856	0.727798	99
Es	-0.702954	-1.528839	-0.188111	99
Es	2.681814	2.875139	0.478624	99
Es	0.235341	2.915827	0.279298	99
Es	-0.208928	2.679421	0.050210	99
Es	-1.910270	-1.435106	-0.485159	99
Es	1.961911	2.498229	0.606086	99
Es	2.129563	2.574182	0.229524	99
Es	0.485129	-1.674262	0.092285	99
Es	0.692843	0.468528	0.571668	99
Es	-1.315564	-2.457050	-0.740395	99
Es	0.228120	3.243809	0.064239	99
Es	0.447701	0.527178	-0.035331	99
Es	-0.086401	-0.608249	0.377110	99
Es	-0.012465	0.120523	0.447998	99
Es	1.692005	0.426482	-0.120832	99
Es	2.429527	2.708165	0.465502	99
Es	2.378441	2.631595	0.452393	99
Es	-1.087977	-1.467146	-1.360200	99
Es	-0.325687	-1.632764	0.962004	99
Es	0.207384	2.971159	0.155461	99
Es	1.110646	0.780700	0.119408	99
Es	1.321944	2.231822	0.280919	99
42
Properties=species:S:1:pos:R:3:Z:I:1 energy=-343.8465685385498 field_type=dipole dipole="0.000000 0.000000 0.000000" charge=0
C	-1.248797	-1.723551	-0.693973	6
C	-0.160367	-1.368521	0.306887	6
C	-0.012377	0.120569	0.447977	6
C	1.110593	0.780599	0.119417	6
C	1.322203	2.231709	0.280917	6
O	0.207133	2.973030	0.153077	8
O	2.430433	2.707860	0.465607	8
H	-1.357057	-2.810581	-0.765063	1
H	-1.007217	-1.341691	-1.691773	1
H	-2.216217	-1.306501	-0.394323	1
H	0.782903	-1.830931	-0.006563	1
H	-0.412547	-1.791061	1.286227	1
H	-0.861777	0.638229	0.887347	1
H	1.989073	0.251889	-0.239113	1
H	-0.565977	2.468949	-0.156653	1
Es	-0.209123	2.679767	0.050948	99
Es	2.682650	2.873662	0.478104	99
Es	0.231202	3.240453	0.056278	99
Es	0.207120	2.972144	0.153907	99
Es	-0.012466	0.120525	0.447998	99
Es	-1.315403	-2.456976	-0.740393	99
Es	2.132517	2.573172	0.236445	99
Es	0.447346	0.526842	-0.034728	99
Es	1.321943	2.231823	0.280916	99
Es	1.959664	2.497570	0.599205	99
Es	1.691741	0.426512	-0.121099	99
Es	1.195328	1.503973	0.199347	99
Es	-0.086716	-0.608368	0.377169	99
Es	-1.088358	-1.467505	-1.359634	99
Es	0.639389	2.693367	0.163488	99
Es	-1.248771	-1.723536	-0.693935	99
Es	-1.910404	-1.435214	-0.485122	99
Es	0.485227	-1.674203	0.092270	99
Es	0.233687	2.919246	0.285930	99
Es	2.429743	2.708076	0.465528	99
Es	1.110650	0.780696	0.119419	99
Es	-0.592322	0.475913	0.727866	99
Es	-0.160394	-1.368452	0.306870	99
Es	-0.325411	-1.632473	0.961633	99
Es	0.693187	0.468865	0.571276	99
Es	2.376647	2.634914	0.452792	99
Es	-0.702885	-1.528728	-0.188353	99
42
Properties=species:S:1:pos:R:3:Z:I:1 energy=-343.8465685385498 field_type=dipole dipole="0.000000 0.000000 0.000000" charge=0
C	-1.248797	-1.723551	-0.693973	6
C	-0.160367	-1.368521	0.306887	6
C	-0.012377	0.120569	0.447977	6
C	1.110593	0.780599	0.119417	6
C	1.322203	2.231709	0.280917	6
O	0.207133	2.973030	0.153077	8
O	2.430433	2.707860	0.465607	8
H	-1.357057	-2.810581	-0.765063	1
H	-1.007217	-1.341691	-1.691773	1
H	-2.216217	-1.306501	-0.394323	1
H	0.782903	-1.830931	-0.006563	1
H	-0.412547	-1.791061	1.286227	1
H	-0.861777	0.638229	0.887347	1
H	1.989073	0.251889	-0.239113	1
H	-0.565977	2.468949	-0.156653	1
Es	-0.591954	0.475852	0.727643	99
Es	0.693224	0.469068	0.571418	99
Es	-1.315037	-2.456345	-0.740413	99
Es	2.376848	2.634766	0.452673	99
Es	1.110649	0.780697	0.119419	99
Es	-0.012466	0.120524	0.448000	99
Es	0.229313	3.240075	0.059403	99
Es	-0.160395	-1.368451	0.306871	99
Es	-1.088459	-1.467531	-1.359781	99
Es	0.234322	2.918111	0.282540	99
Es	-0.703126	-1.529058	-0.187935	99
Es	2.430085	2.707177	0.465525	99
Es	0.485121	-1.674097	0.092158	99
Es	0.447245	0.526673	-0.034842	99
Es	-1.248771	-1.723536	-0.693936	99
Es	-1.910786	-1.435778	-0.484933	99
Es	1.959359	2.497157	0.597790	99
Es	-0.086971	-0.608503	0.377277	99
Es	-0.325000	-1.632210	0.961437	99
Es	1.321943	2.231822	0.280918	99
Es	0.640479	2.695493	0.161793	99
Es	-0.208925	2.679474	0.051867	99
Es	2.682092	2.874562	0.477293	99
Es	1.691396	0.426532	-0.120902	99
Es	0.207211	2.971700	0.154804	99
Es	2.132822	2.573779	0.238748	99
Es	1.195569	1.504113	0.199289	99
