44
Properties=species:S:1:pos:R:3:Z:I:1 energy=-307.94980748810605 field_type=dipole dipole="0.000000 0.000000 0.000000" charge=0
C	0.083021	-2.031463	0.978036	6
C	-0.475119	-0.642773	1.089816	6
C	-1.465369	-0.345673	1.949326	6
C	0.148711	0.395477	0.191506	6
O	-0.212129	0.094067	-1.157224	8
C	0.252891	0.924417	-2.136914	6
C	1.057081	1.988637	-2.031364	6
H	-0.017769	-2.409743	-0.044194	1
H	-0.429719	-2.736073	1.643486	1
H	1.145291	-2.035673	1.247506	1
H	-1.906609	-1.101303	2.590186	1
H	-1.871349	0.657637	2.022466	1
H	1.239060	0.366077	0.308866	1
H	-0.208229	1.398757	0.453256	1
H	-0.136479	0.595807	-3.095044	1
H	1.463701	2.335337	-1.088984	1
H	1.333021	2.546487	-2.920724	1
Es	0.950818	1.301804	-2.117226	99
Es	-0.268487	-2.504018	1.433228	99
Es	1.057098	1.988678	-2.031346	99
Es	-0.752257	-0.411981	1.761626	99
Es	1.330013	2.220896	-1.392801	99
Es	0.252744	0.924182	-2.136732	99
Es	0.014804	-2.276442	0.291897	99
Es	-0.211955	0.094469	-1.157134	99
Es	1.241826	2.362685	-2.629534	99
Es	0.893712	0.373536	0.271568	99
Es	0.800998	-2.021358	1.159567	99
Es	-0.196824	-1.335628	1.032064	99
Es	-0.093876	1.082641	0.369556	99
Es	-1.742426	0.336340	2.003217	99
Es	-0.495048	0.148277	-1.185373	99
Es	-1.766190	-0.856205	2.387478	99
Es	0.420942	1.693529	-2.035204	99
Es	-1.465432	-0.345646	1.949395	99
Es	-0.010474	0.701684	-2.785301	99
Es	-0.001716	0.439662	-1.493274	99
Es	0.148636	0.395385	0.191283	99
Es	0.083013	-2.031420	0.978045	99
Es	-0.475007	-0.642791	1.089718	99
Es	-0.166033	-0.125199	0.635991	99
Es	-0.051247	0.235899	-0.665407	99
Es	-0.090766	-0.159996	-1.236132	99
Es	-1.199819	-0.552457	1.300676	99
44
Properties=species:S:1:pos:R:3:Z:I:1 energy=-307.94980748810605 field_type=dipole dipole="0.000000 0.000000 0.000000" charge=0
C	0.083021	-2.031463	0.978036	6
C	-0.475119	-0.642773	1.089816	6
C	-1.465369	-0.345673	1.949326	6
C	0.148711	0.395477	0.191506	6
O	-0.212129	0.094067	-1.157224	8
C	0.252891	0.924417	-2.136914	6
C	1.057081	1.988637	-2.031364	6
H	-0.017769	-2.409743	-0.044194	1
H	-0.429719	-2.736073	1.643486	1
H	1.145291	-2.035673	1.247506	1
H	-1.906609	-1.101303	2.590186	1
H	-1.871349	0.657637	2.022466	1
H	1.239060	0.366077	0.308866	1
H	-0.208229	1.398757	0.453256	1
H	-0.136479	0.595807	-3.095044	1
H	1.463701	2.335337	-1.088984	1
H	1.333021	2.546487	-2.920724	1
Es	0.148637	0.395383	0.191283	99
Es	-1.199621	-0.550793	1.300642	99
Es	-1.465440	-0.345647	1.949392	99
Es	-0.502084	0.139756	-1.189826	99
Es	-0.269587	-2.505293	1.434142	99
Es	-0.082582	-0.153440	-1.229511	99
Es	1.057115	1.988681	-2.031348	99
Es	0.893803	0.374290	0.271186	99
Es	0.083015	-2.031422	0.978045	99
Es	-0.475002	-0.642792	1.089720	99
Es	-0.752691	-0.413566	1.761620	99
Es	1.244898	2.361399	-2.630117	99
Es	-0.057485	0.239894	-0.667024	99
Es	-0.211952	0.094386	-1.157152	99
Es	-0.196780	-1.335407	1.031332	99
Es	-1.767863	-0.857260	2.386932	99
Es	0.002797	0.438049	-1.493456	99
Es	-1.741123	0.335890	2.003698	99
Es	1.328888	2.220786	-1.393853	99
Es	-0.009937	0.701626	-2.784644	99
Es	0.015278	-2.275154	0.292345	99
Es	0.951607	1.302510	-2.115588	99
Es	-0.093611	1.082099	0.368767	99
Es	0.252744	0.924178	-2.136730	99
Es	0.800645	-2.021025	1.158581	99
Es	-0.165346	-0.124810	0.637098	99
Es	0.418721	1.694212	-2.035690	99
44
Properties=species:S:1:pos:R:3:Z:I:1 energy=-307.94980748810605 field_type=dipole dipole="0.000000 0.000000 0.000000" charge=0
C	0.083021	-2.031463	0.978036	6
C	-0.475119	-0.642773	1.089816	6
C	-1.465369	-0.345673	1.949326	6
C	0.148711	0.395477	0.191506	6
O	-0.212129	0.094067	-1.157224	8
C	0.252891	0.924417	-2.136914	6
C	1.057081	1.988637	-2.031364	6
H	-0.017769	-2.409743	-0.044194	1
H	-0.429719	-2.736073	1.643486	1
H	1.145291	-2.035673	1.247506	1
H	-1.906609	-1.101303	2.590186	1
H	-1.871349	0.657637	2.022466	1
H	1.239060	0.366077	0.308866	1
H	-0.208229	1.398757	0.453256	1
H	-0.136479	0.595807	-3.095044	1
H	1.463701	2.335337	-1.088984	1
H	1.333021	2.546487	-2.920724	1
Es	0.893768	0.374497	0.270810	99
Es	-0.065393	0.244770	-0.667468	99
Es	-0.474998	-0.642793	1.089722	99
Es	0.799858	-2.020814	1.158189	99
Es	-1.199222	-0.549682	1.300821	99
Es	-0.093397	1.082024	0.368374	99
Es	-1.739899	0.335958	2.004054	99
Es	-0.196949	-1.335239	1.030659	99
Es	-1.465433	-0.345646	1.949396	99
Es	-0.270151	-2.506006	1.434685	99
Es	1.327371	2.221048	-1.394624	99
Es	0.417251	1.694827	-2.036445	99
Es	-0.164938	-0.124580	0.637704	99
Es	0.148638	0.395382	0.191283	99
Es	-0.753248	-0.414895	1.761530	99
Es	0.015981	-2.274638	0.292398	99
Es	1.057112	1.988684	-2.031347	99
Es	0.252742	0.924179	-2.136729	99
Es	-0.070910	-0.139382	-1.222181	99
Es	-0.211593	0.094317	-1.157209	99
Es	-1.768991	-0.857760	2.386606	99
Es	0.952422	1.302781	-2.114148	99
Es	0.083014	-2.031419	0.978044	99
Es	0.004316	0.438185	-1.494964	99
Es	1.247029	2.360544	-2.630341	99
Es	-0.009196	0.701251	-2.784090	99
Es	-0.508137	0.120934	-1.194887	99
44
Properties=species:S:1:pos:R:3:Z:I:1 energy=-307.94980748810605 field_type=dipole dipole="0.000000 0.000000 0.000000" charge=0
C	0.083021	-2.031463	0.978036	6
C	-0.475119	-0.642773	1.089816	6
C	-1.465369	-0.345673	1.949326	6
C	0.148711	0.395477	0.191506	6
O	-0.212129	0.094067	-1.157224	8
C	0.252891	0.924417	-2.136914	6
C	1.057081	1.988637	-2.031364	6
H	-0.017769	-2.409743	-0.044194	1
H	-0.429719	-2.736073	1.643486	1
H	1.145291	-2.035673	1.247506	1
H	-1.906609	-1.101303	2.590186	1
H	-1.871349	0.657637	2.022466	1
H	1.239060	0.366077	0.308866	1
H	-0.208229	1.398757	0.453256	1
H	-0.136479	0.595807	-3.095044	1
H	1.463701	2.335337	-1.088984	1
H	1.333021	2.546487	-2.920724	1
Es	-0.475000	-0.642790	1.089721	99
Es	-1.738943	0.336051	2.004569	99
Es	-1.769772	-0.858144	2.386153	99
Es	-0.270510	-2.506429	1.435076	99
Es	-1.465436	-0.345645	1.949397	99
Es	1.057115	1.988684	-2.031348	99
Es	1.248570	2.359751	-2.630469	99
Es	0.148638	0.395383	0.191286	99
Es	0.952849	1.302946	-2.112896	99
Es	-0.164708	-0.124551	0.638074	99
Es	-0.211832	0.094418	-1.157207	99
Es	1.326186	2.221358	-1.395133	99
Es	0.893656	0.374562	0.270561	99
Es	-0.072081	0.249193	-0.668212	99
Es	-0.197194	-1.335343	1.030120	99
Es	0.416220	1.695481	-2.037233	99
Es	-0.093255	1.082054	0.368122	99
Es	-0.008370	0.700848	-2.783660	99
Es	-1.198933	-0.548597	1.300931	99
Es	-0.510731	0.108381	-1.199261	99
Es	-0.753638	-0.415903	1.761437	99
Es	0.016339	-2.274291	0.292518	99
Es	0.252742	0.924178	-2.136730	99
Es	-0.064118	-0.129695	-1.215634	99
Es	0.799411	-2.020666	1.157828	99
Es	0.083013	-2.031420	0.978044	99
Es	0.006824	0.436717	-1.496208	99
44
Properties=species:S:1:pos:R:3:Z:I:1 energy=-307.94980748810605 field_type=dipole dipole="0.000000 0.000000 0.000000" charge=0
C	0.083021	-2.031463	0.978036	6
C	-0.475119	-0.642773	1.089816	6
C	-1.465369	-0.345673	1.949326	6
C	0.148711	0.395477	0.191506	6
O	-0.212129	0.094067	-1.157224	8
C	0.252891	0.924417	-2.136914	6
C	1.057081	1.988637	-2.031364	6
H	-0.017769	-2.409743	-0.044194	1
H	-0.429719	-2.736073	1.643486	1
H	1.145291	-2.035673	1.247506	1
H	-1.906609	-1.101303	2.590186	1
H	-1.871349	0.657637	2.022466	1
H	1.239060	0.366077	0.308866	1
H	-0.208229	1.398757	0.453256	1
H	-0.136479	0.595807	-3.095044	1
H	1.463701	2.335337	-1.088984	1
H	1.333021	2.546487	-2.920724	1
Es	-0.078331	0.253602	-0.669324	99
Es	0.083013	-2.031420	0.978044	99
Es	-0.754104	-0.416856	1.761069	99
Es	0.415400	1.695547	-2.037736	99
Es	-0.475002	-0.642792	1.089717	99
Es	-0.164619	-0.124377	0.638333	99
Es	0.798839	-2.020811	1.157598	99
Es	-0.058270	-0.119018	-1.209129	99
Es	-0.093074	1.082224	0.367902	99
Es	-0.211866	0.094352	-1.157131	99
Es	0.953635	1.303211	-2.112005	99
Es	0.148639	0.395384	0.191286	99
Es	-1.465435	-0.345645	1.949396	99
Es	-0.512483	0.094925	-1.203023	99
Es	-0.197245	-1.335203	1.029947	99
Es	0.016697	-2.274041	0.292519	99
Es	-0.007758	0.700541	-2.783339	99
Es	1.249642	2.359339	-2.630423	99
Es	1.324982	2.221665	-1.395659	99
Es	-1.738066	0.336267	2.005066	99
Es	-0.270735	-2.506753	1.435206	99
Es	1.057119	1.988682	-2.031348	99
Es	0.893572	0.374445	0.270286	99
Es	-1.198829	-0.547859	1.301045	99
Es	0.008800	0.435264	-1.497648	99
Es	0.252749	0.924176	-2.136731	99
Es	-1.770225	-0.858319	2.385925	99
44
Properties=species:S:1:pos:R:3:Z:I:1 energy=-307.94980748810605 field_type=dipole dipole="0.000000 0.000000 0.000000" charge=0
C	0.083021	-2.031463	0.978036	6
C	-0.475119	-0.642773	1.089816	6
C	-1.465369	-0.345673	1.949326	6
C	0.148711	0.395477	0.191506	6
O	-0.212129	0.094067	-1.157224	8
C	0.252891	0.924417	-2.136914	6
C	1.057081	1.988637	-2.031364	6
H	-0.017769	-2.409743	-0.044194	1
H	-0.429719	-2.736073	1.643486	1
H	1.145291	-2.035673	1.247506	1
H	-1.906609	-1.101303	2.590186	1
H	-1.871349	0.657637	2.022466	1
H	1.239060	0.366077	0.308866	1
H	-0.208229	1.398757	0.453256	1
H	-0.136479	0.595807	-3.095044	1
H	1.463701	2.335337	-1.088984	1
H	1.333021	2.546487	-2.920724	1
Es	-0.055658	-0.106417	-1.203037	99
Es	1.057113	1.988688	-2.031348	99
Es	-0.754478	-0.417447	1.760976	99
Es	-1.737692	0.336547	2.005382	99
Es	0.893519	0.374419	0.269986	99
Es	-0.082953	0.256743	-0.670188	99
Es	-0.211631	0.094310	-1.157209	99
Es	-0.474999	-0.642792	1.089718	99
Es	-0.270940	-2.507022	1.435235	99
Es	-0.093134	1.082366	0.367867	99
Es	1.324009	2.221967	-1.396092	99
Es	0.252757	0.924181	-2.136742	99
Es	-0.006960	0.700104	-2.782988	99
Es	0.083013	-2.031420	0.978044	99
Es	1.250443	2.358956	-2.630416	99
Es	0.017377	-2.273988	0.292434	99
Es	-1.770456	-0.858515	2.385575	99
Es	0.953972	1.302934	-2.111026	99
Es	0.414810	1.696291	-2.038330	99
Es	-0.514146	0.081961	-1.206107	99
Es	0.012075	0.432622	-1.499528	99
Es	0.148637	0.395385	0.191284	99
Es	-0.197247	-1.335040	1.029607	99
Es	-1.198518	-0.547289	1.301154	99
Es	0.798019	-2.020950	1.157629	99
Es	-0.164448	-0.124418	0.638570	99
Es	-1.465439	-0.345646	1.949395	99
44
Properties=species:S:1:pos:R:3:Z:I:1 energy=-307.94980748810605 field_type=dipole dipole="0.000000 0.000000 0.000000" charge=0
C	0.083021	-2.031463	0.978036	6
C	-0.475119	-0.642773	1.089816	6
C	-1.465369	-0.345673	1.949326	6
C	0.148711	0.395477	0.191506	6
O	-0.212129	0.094067	-1.157224	8
C	0.252891	0.924417	-2.136914	6
C	1.057081	1.988637	-2.031364	6
H	-0.017769	-2.409743	-0.044194	1
H	-0.429719	-2.736073	1.643486	1
H	1.145291	-2.035673	1.247506	1
H	-1.906609	-1.101303	2.590186	1
H	-1.871349	0.657637	2.022466	1
H	1.239060	0.366077	0.308866	1
H	-0.208229	1.398757	0.453256	1
H	-0.136479	0.595807	-3.095044	1
H	1.463701	2.335337	-1.088984	1
H	1.333021	2.546487	-2.920724	1
Es	1.057117	1.988685	-2.031348	99
Es	1.322933	2.222158	-1.396686	99
Es	0.148634	0.395385	0.191281	99
Es	0.017553	-2.274009	0.292533	99
Es	-0.211909	0.094394	-1.157126	99
Es	-0.164461	-0.124530	0.638460	99
Es	0.414086	1.696320	-2.038694	99
Es	1.251024	2.358958	-2.630218	99
Es	0.252742	0.924180	-2.136729	99
Es	-0.754758	-0.417595	1.760687	99
Es	-0.197214	-1.334844	1.029685	99
Es	-0.049649	-0.088616	-1.195803	99
Es	-1.737562	0.336824	2.005553	99
Es	-0.270781	-2.507214	1.435208	99
Es	-1.770449	-0.858680	2.385412	99
Es	0.797627	-2.021158	1.157412	99
Es	-0.475001	-0.642794	1.089717	99
Es	0.083013	-2.031420	0.978044	99
Es	-0.513724	0.060861	-1.210079	99
Es	0.954924	1.302910	-2.110407	99
Es	0.893466	0.374212	0.269703	99
Es	-0.093187	1.082675	0.367919	99
Es	-1.198348	-0.546982	1.301386	99
Es	-0.090292	0.261571	-0.671297	99
Es	-0.006431	0.699832	-2.782672	99
Es	0.013132	0.431049	-1.501490	99
Es	-1.465439	-0.345647	1.949393	99
44
Properties=species:S:1:pos:R:3:Z:I:1 energy=-307.94980748810605 field_type=dipole dipole="0.000000 0.000000 0.000000" charge=0
C	0.083021	-2.031463	0.978036	6
C	-0.475119	-0.642773	1.089816	6
C	-1.465369	-0.345673	1.949326	6
C	0.148711	0.395477	0.191506	6
O	-0.212129	0.094067	-1.157224	8
C	0.252891	0.924417	-2.136914	6
C	1.057081	1.988637	-2.031364	6
H	-0.017769	-2.409743	-0.044194	1
H	-0.429719	-2.736073	1.643486	1
H	1.145291	-2.035673	1.247506	1
H	-1.906609	-1.101303	2.590186	1
H	-1.871349	0.657637	2.022466	1
H	1.239060	0.366077	0.308866	1
H	-0.208229	1.398757	0.453256	1
H	-0.136479	0.595807	-3.095044	1
H	1.463701	2.335337	-1.088984	1
H	1.333021	2.546487	-2.920724	1
Es	0.148637	0.395385	0.191286	99
Es	-0.006044	0.699700	-2.782447	99
Es	0.017953	-2.273907	0.292467	99
Es	0.955198	1.302875	-2.109930	99
Es	1.057118	1.988682	-2.031350	99
Es	-1.197949	-0.546733	1.301486	99
Es	-1.465437	-0.345645	1.949397	99
Es	-0.050839	-0.083907	-1.190690	99
Es	-0.093193	1.082704	0.367870	99
Es	-0.094148	0.264860	-0.672886	99
Es	-0.475001	-0.642791	1.089717	99
Es	0.252745	0.924177	-2.136729	99
Es	0.017405	0.426740	-1.503048	99
Es	0.413773	1.696589	-2.038968	99
Es	-0.164382	-0.124576	0.638471	99
Es	1.251623	2.358816	-2.630122	99
Es	-0.513052	0.057220	-1.211918	99
Es	1.322301	2.222169	-1.396963	99
Es	-1.737254	0.337079	2.005713	99
Es	-1.770680	-0.858743	2.385137	99
Es	-0.211962	0.094438	-1.157091	99
Es	0.797116	-2.021215	1.157413	99
Es	0.893444	0.374211	0.269445	99
Es	-0.197329	-1.334759	1.029561	99
Es	-0.755097	-0.417998	1.760769	99
Es	0.083013	-2.031420	0.978044	99
Es	-0.270917	-2.507422	1.435209	99
44
Properties=species:S:1:pos:R:3:Z:I:1 energy=-307.94980748810605 field_type=dipole dipole="0.000000 0.000000 0.000000" charge=0
C	0.083021	-2.031463	0.978036	6
C	-0.475119	-0.642773	1.089816	6
C	-1.465369	-0.345673	1.949326	6
C	0.148711	0.395477	0.191506	6
O	-0.212129	0.094067	-1.157224	8
C	0.252891	0.924417	-2.136914	6
C	1.057081	1.988637	-2.031364	6
H	-0.017769	-2.409743	-0.044194	1
H	-0.429719	-2.736073	1.643486	1
H	1.145291	-2.035673	1.247506	1
H	-1.906609	-1.101303	2.590186	1
H	-1.871349	0.657637	2.022466	1
H	1.239060	0.366077	0.308866	1
H	-0.208229	1.398757	0.453256	1
H	-0.136479	0.595807	-3.095044	1
H	1.463701	2.335337	-1.088984	1
H	1.333021	2.546487	-2.920724	1
Es	-1.737336	0.337208	2.005732	99
Es	0.018151	-2.274019	0.292487	99
Es	-1.770612	-0.858772	2.385060	99
Es	0.018771	0.424802	-1.504242	99
Es	-0.510568	0.041921	-1.214895	99
Es	-0.270815	-2.507471	1.435188	99
Es	-1.465436	-0.345646	1.949397	99
Es	-0.197096	-1.334493	1.029615	99
Es	1.057119	1.988680	-2.031348	99
Es	0.083013	-2.031420	0.978044	99
Es	0.893446	0.374132	0.269187	99
Es	-0.005733	0.699548	-2.782145	99
Es	1.321758	2.222306	-1.397461	99
Es	-0.474999	-0.642792	1.089719	99
Es	0.148635	0.395386	0.191283	99
Es	0.413194	1.696809	-2.039145	99
Es	0.252744	0.924179	-2.136729	99
Es	-0.093289	1.082855	0.367930	99
Es	-1.197938	-0.546780	1.301517	99
Es	-0.212149	0.094596	-1.157071	99
Es	0.796768	-2.021383	1.157357	99
Es	-0.164404	-0.124602	0.638422	99
Es	0.955780	1.302799	-2.109501	99
Es	-0.100670	0.268925	-0.674337	99
Es	-0.048049	-0.070880	-1.184822	99
Es	1.251989	2.358649	-2.630056	99
Es	-0.755228	-0.418010	1.760660	99
44
Properties=species:S:1:pos:R:3:Z:I:1 energy=-307.94980748810605 field_type=dipole dipole="0.000000 0.000000 0.000000" charge=0
C	0.083021	-2.031463	0.978036	6
C	-0.475119	-0.642773	1.089816	6
C	-1.465369	-0.345673	1.949326	6
C	0.148711	0.395477	0.191506	6
O	-0.212129	0.094067	-1.157224	8
C	0.252891	0.924417	-2.136914	6
C	1.057081	1.988637	-2.031364	6
H	-0.017769	-2.409743	-0.044194	1
H	-0.429719	-2.736073	1.643486	1
H	1.145291	-2.035673	1.247506	1
H	-1.906609	-1.101303	2.590186	1
H	-1.871349	0.657637	2.022466	1
H	1.239060	0.366077	0.308866	1
H	-0.208229	1.398757	0.453256	1
H	-0.136479	0.595807	-3.095044	1
H	1.463701	2.335337	-1.088984	1
H	1.333021	2.546487	-2.920724	1
Es	0.796470	-2.021539	1.157358	99
Es	-0.474998	-0.642792	1.089718	99
Es	-1.197981	-0.546763	1.301555	99
Es	-0.105605	0.271849	-0.675253	99
Es	-0.211926	0.094401	-1.157113	99
Es	-0.508403	0.030571	-1.217192	99
Es	0.956180	1.302434	-2.109230	99
Es	1.252458	2.358600	-2.629811	99
Es	0.148636	0.395384	0.191282	99
Es	-0.048395	-0.059016	-1.179999	99
Es	-1.737401	0.337394	2.005784	99
Es	-1.770488	-0.858732	2.385005	99
Es	0.412605	1.697429	-2.039511	99
Es	-0.270787	-2.507610	1.435048	99
Es	0.083013	-2.031421	0.978044	99
Es	-0.005382	0.699405	-2.781761	99
Es	-0.093356	1.083054	0.368003	99
Es	1.057123	1.988674	-2.031348	99
Es	0.021610	0.421555	-1.505542	99
Es	1.321235	2.222249	-1.397900	99
Es	0.893440	0.373951	0.268952	99
Es	-1.465437	-0.345646	1.949398	99
Es	-0.196982	-1.334340	1.029668	99
Es	-0.164434	-0.124657	0.638349	99
Es	0.252747	0.924180	-2.136731	99
Es	-0.755308	-0.418044	1.760494	99
Es	0.018413	-2.274042	0.292575	99
44
Properties=species:S:1:pos:R:3:Z:I:1 energy=-307.94980748810605 field_type=dipole dipole="0.000000 0.000000 0.000000" charge=0
C	0.083021	-2.031463	0.978036	6
C	-0.475119	-0.642773	1.089816	6
C	-1.465369	-0.345673	1.949326	6
C	0.148711	0.395477	0.191506	6
O	-0.212129	0.094067	-1.157224	8
C	0.252891	0.924417	-2.136914	6
C	1.057081	1.988637	-2.031364	6
H	-0.017769	-2.409743	-0.044194	1
H	-0.429719	-2.736073	1.643486	1
H	1.145291	-2.035673	1.247506	1
H	-1.906609	-1.101303	2.590186	1
H	-1.871349	0.657637	2.022466	1
H	1.239060	0.366077	0.308866	1
H	-0.208229	1.398757	0.453256	1
H	-0.136479	0.595807	-3.095044	1
H	1.463701	2.335337	-1.088984	1
H	1.333021	2.546487	-2.920724	1
Es	0.083013	-2.031421	0.978044	99
Es	0.148637	0.395385	0.191286	99
Es	-0.475000	-0.642793	1.089717	99
Es	0.252744	0.924180	-2.136731	99
Es	1.320889	2.222318	-1.398050	99
Es	-0.050803	-0.058929	-1.178427	99
Es	-0.197009	-1.334325	1.029597	99
Es	0.956091	1.302356	-2.108651	99
Es	-1.197814	-0.546444	1.301686	99
Es	-0.106797	0.272602	-0.675750	99
Es	-1.737122	0.337496	2.005917	99
Es	-0.211934	0.094333	-1.157178	99
Es	1.252860	2.358339	-2.629896	99
Es	0.796127	-2.021541	1.157377	99
Es	-0.755521	-0.418409	1.760382	99
Es	1.057117	1.988683	-2.031348	99
Es	-0.270881	-2.507690	1.435090	99
Es	-0.005086	0.699278	-2.781691	99
Es	0.412552	1.697790	-2.039694	99
Es	0.893335	0.373986	0.268740	99
Es	-0.164349	-0.124648	0.638465	99
Es	-0.093309	1.083093	0.367939	99
Es	0.025045	0.418581	-1.505831	99
Es	-0.508262	0.032819	-1.217831	99
Es	0.018655	-2.273990	0.292454	99
Es	-1.770697	-0.858876	2.384826	99
Es	-1.465437	-0.345644	1.949398	99
44
Properties=species:S:1:pos:R:3:Z:I:1 energy=-307.94980748810605 field_type=dipole dipole="0.000000 0.000000 0.000000" charge=0
C	0.083021	-2.031463	0.978036	6
C	-0.475119	-0.642773	1.089816	6
C	-1.465369	-0.345673	1.949326	6
C	0.148711	0.395477	0.191506	6
O	-0.212129	0.094067	-1.157224	8
C	0.252891	0.924417	-2.136914	6
C	1.057081	1.988637	-2.031364	6
H	-0.017769	-2.409743	-0.044194	1
H	-0.429719	-2.736073	1.643486	1
H	1.145291	-2.035673	1.247506	1
H	-1.906609	-1.101303	2.590186	1
H	-1.871349	0.657637	2.022466	1
H	1.239060	0.366077	0.308866	1
H	-0.208229	1.398757	0.453256	1
H	-0.136479	0.595807	-3.095044	1
H	1.463701	2.335337	-1.088984	1
H	1.333021	2.546487	-2.920724	1
Es	-0.049484	-0.046240	-1.173400	99
Es	-0.196864	-1.334297	1.029657	99
Es	-0.755479	-0.418131	1.760406	99
Es	-1.197695	-0.546624	1.301761	99
Es	0.956714	1.302337	-2.108654	99
Es	-0.164449	-0.124560	0.638424	99
Es	1.253039	2.358389	-2.629764	99
Es	0.252745	0.924179	-2.136730	99
Es	1.320611	2.222247	-1.398557	99
Es	0.018668	-2.274022	0.292524	99
Es	-1.770461	-0.858861	2.384776	99
Es	-1.465438	-0.345646	1.949397	99
Es	0.796144	-2.021681	1.157408	99
Es	-0.093444	1.083179	0.368049	99
Es	-0.474999	-0.642792	1.089718	99
Es	0.083012	-2.031419	0.978045	99
Es	1.057120	1.988683	-2.031349	99
Es	-0.005070	0.699284	-2.781420	99
Es	0.026232	0.416846	-1.506556	99
Es	0.893471	0.373835	0.268642	99
Es	0.148635	0.395385	0.191283	99
Es	-0.211958	0.094462	-1.157079	99
Es	-0.270792	-2.507707	1.434913	99
Es	-0.113683	0.275979	-0.677250	99
Es	0.411997	1.697788	-2.039663	99
Es	-0.503923	0.018350	-1.220488	99
Es	-1.737602	0.337566	2.005749	99
44
Properties=species:S:1:pos:R:3:Z:I:1 energy=-307.94980748810605 field_type=dipole dipole="0.000000 0.000000 0.000000" charge=0
C	0.083021	-2.031463	0.978036	6
C	-0.475119	-0.642773	1.089816	6
C	-1.465369	-0.345673	1.949326	6
C	0.148711	0.395477	0.191506	6
O	-0.212129	0.094067	-1.157224	8
C	0.252891	0.924417	-2.136914	6
C	1.057081	1.988637	-2.031364	6
H	-0.017769	-2.409743	-0.044194	1
H	-0.429719	-2.736073	1.643486	1
H	1.145291	-2.035673	1.247506	1
H	-1.906609	-1.101303	2.590186	1
H	-1.871349	0.657637	2.022466	1
H	1.239060	0.366077	0.308866	1
H	-0.208229	1.398757	0.453256	1
H	-0.136479	0.595807	-3.095044	1
H	1.463701	2.335337	-1.088984	1
H	1.333021	2.546487	-2.920724	1
Es	-1.739597	0.334465	2.002703	99
Es	0.148638	0.395384	0.191286	99
Es	-0.164292	-0.124035	0.638872	99
Es	-0.196175	-1.335603	1.030095	99
Es	0.896004	0.375248	0.269481	99
Es	-0.359462	0.240880	-1.215697	99
Es	-1.772278	-0.858061	2.384663	99
Es	1.256364	2.354929	-2.630568	99
Es	-0.093818	1.080197	0.367144	99
Es	-1.200133	-0.548546	1.300467	99
Es	1.057122	1.988680	-2.031349	99
Es	0.083013	-2.031420	0.978044	99
Es	0.252741	0.924183	-2.136729	99
Es	0.953997	1.305448	-2.111355	99
Es	0.075033	0.368138	-1.485799	99
Es	1.326113	2.218130	-1.399941	99
Es	0.410112	1.698846	-2.036073	99
Es	0.802907	-2.020859	1.156388	99
Es	-0.008618	0.701854	-2.780335	99
Es	-0.475000	-0.642793	1.089719	99
Es	-1.465440	-0.345647	1.949394	99
Es	-0.211529	0.094398	-1.157360	99
Es	-0.248672	-0.202406	-1.212725	99
Es	-0.752172	-0.415860	1.762669	99
Es	0.014619	-2.272188	0.295458	99
Es	-0.272700	-2.506429	1.434755	99
Es	-0.109733	0.259594	-0.663362	99
44
Properties=species:S:1:pos:R:3:Z:I:1 energy=-307.94980748810605 field_type=dipole dipole="0.000000 0.000000 0.000000" charge=0
C	0.083021	-2.031463	0.978036	6
C	-0.475119	-0.642773	1.089816	6
C	-1.465369	-0.345673	1.949326	6
C	0.148711	0.395477	0.191506	6
O	-0.212129	0.094067	-1.157224	8
C	0.252891	0.924417	-2.136914	6
C	1.057081	1.988637	-2.031364	6
H	-0.017769	-2.409743	-0.044194	1
H	-0.429719	-2.736073	1.643486	1
H	1.145291	-2.035673	1.247506	1
H	-1.906609	-1.101303	2.590186	1
H	-1.871349	0.657637	2.022466	1
H	1.239060	0.366077	0.308866	1
H	-0.208229	1.398757	0.453256	1
H	-0.136479	0.595807	-3.095044	1
H	1.463701	2.335337	-1.088984	1
H	1.333021	2.546487	-2.920724	1
Es	-0.338070	0.249049	-1.217087	99
Es	-1.199974	-0.549058	1.300747	99
Es	-0.164544	-0.124140	0.638488	99
Es	-0.475002	-0.642791	1.089719	99
Es	1.057123	1.988678	-2.031350	99
Es	-0.109263	0.259805	-0.663018	99
Es	1.256393	2.355107	-2.630576	99
Es	-0.211610	0.094465	-1.157400	99
Es	1.325854	2.217981	-1.401018	99
Es	0.895955	0.374932	0.269563	99
Es	0.409395	1.700131	-2.035919	99
Es	0.081340	0.355968	-1.484282	99
Es	0.148637	0.395385	0.191286	99
Es	-1.771643	-0.857969	2.384899	99
Es	0.014585	-2.272225	0.295890	99
Es	-1.740126	0.334924	2.002543	99
Es	-0.752364	-0.415518	1.762371	99
Es	0.802895	-2.021203	1.156035	99
Es	0.083013	-2.031420	0.978044	99
Es	-0.008422	0.702025	-2.779557	99
Es	0.252741	0.924183	-2.136730	99
Es	-0.272370	-2.506667	1.434620	99
Es	-1.465440	-0.345647	1.949394	99
Es	-0.195991	-1.335304	1.030240	99
Es	-0.276669	-0.198884	-1.213039	99
Es	0.954611	1.304181	-2.111412	99
Es	-0.094012	1.080540	0.367394	99
