44
Properties=species:S:1:pos:R:3:Z:I:1 energy=-307.9511251085039 field_type=dipole dipole="0.000000 0.000000 0.000000" charge=0
C	-0.566492	-2.207533	-0.335186	6
C	-0.758972	-1.292673	0.865454	6
C	-0.519712	0.154417	0.520834	6
C	-1.508652	1.063727	0.518664	6
O	0.817008	0.474457	0.331234	8
C	1.177378	1.392527	-0.622906	6
C	2.396168	1.936267	-0.657076	6
H	-0.776092	-3.244873	-0.054796	1
H	0.461018	-2.161863	-0.710346	1
H	-1.242072	-1.935433	-1.152926	1
H	-0.072892	-1.591093	1.667224	1
H	-1.773562	-1.433333	1.257994	1
H	-2.535982	0.779547	0.719004	1
H	-1.314782	2.115667	0.340874	1
H	0.411398	1.621307	-1.350476	1
H	3.141868	1.674277	0.085524	1
H	2.664368	2.654607	-1.423096	1
Es	0.653608	1.543231	-1.110482	99
Es	0.970518	0.235687	0.250634	99
Es	-1.452175	-1.376964	1.126497	99
Es	1.177190	1.392294	-0.622710	99
Es	0.130490	-2.173513	-0.588098	99
Es	-1.508702	1.063771	0.518631	99
Es	-1.007643	0.694045	0.832209	99
Es	-0.758958	-1.292628	0.865405	99
Es	-2.200897	0.869566	0.650623	99
Es	2.396226	1.936291	-0.657085	99
Es	1.915777	1.434236	-0.837926	99
Es	2.576446	2.416739	-1.174760	99
Es	-1.378158	1.774366	0.391898	99
Es	-0.658961	-1.733130	0.262422	99
Es	-1.089137	0.576591	0.179077	99
Es	2.900537	1.764057	-0.159611	99
Es	1.708229	1.935314	-0.459233	99
Es	-0.710894	-2.912105	-0.138928	99
Es	-0.566501	-2.207509	-0.335149	99
Es	-0.519357	0.154380	0.520791	99
Es	0.856745	0.604877	0.569481	99
Es	-0.291191	-1.484493	1.403943	99
Es	-0.628700	-0.561474	0.684977	99
Es	-1.029021	-2.018049	-0.888934	99
Es	0.301947	0.373889	0.344504	99
Es	0.902728	0.832051	-0.034816	99
Es	0.816753	0.474668	0.331055	99
44
Properties=species:S:1:pos:R:3:Z:I:1 energy=-307.9511251085039 field_type=dipole dipole="0.000000 0.000000 0.000000" charge=0
C	-0.566492	-2.207533	-0.335186	6
C	-0.758972	-1.292673	0.865454	6
C	-0.519712	0.154417	0.520834	6
C	-1.508652	1.063727	0.518664	6
O	0.817008	0.474457	0.331234	8
C	1.177378	1.392527	-0.622906	6
C	2.396168	1.936267	-0.657076	6
H	-0.776092	-3.244873	-0.054796	1
H	0.461018	-2.161863	-0.710346	1
H	-1.242072	-1.935433	-1.152926	1
H	-0.072892	-1.591093	1.667224	1
H	-1.773562	-1.433333	1.257994	1
H	-2.535982	0.779547	0.719004	1
H	-1.314782	2.115667	0.340874	1
H	0.411398	1.621307	-1.350476	1
H	3.141868	1.674277	0.085524	1
H	2.664368	2.654607	-1.423096	1
Es	-0.658839	-1.732899	0.262535	99
Es	0.133273	-2.172982	-0.588588	99
Es	2.576685	2.415160	-1.174981	99
Es	1.915773	1.435400	-0.838753	99
Es	1.177186	1.392296	-0.622704	99
Es	1.707995	1.935514	-0.457308	99
Es	0.652699	1.545431	-1.108840	99
Es	0.905427	0.837342	-0.029270	99
Es	-0.758956	-1.292627	0.865405	99
Es	-1.029944	-2.017837	-0.887509	99
Es	2.901938	1.761588	-0.161750	99
Es	-1.454855	-1.377889	1.126803	99
Es	-1.007387	0.694176	0.830125	99
Es	-1.088509	0.577915	0.181815	99
Es	-0.628023	-0.561936	0.684452	99
Es	-1.377055	1.773401	0.391341	99
Es	0.841941	0.604427	0.540273	99
Es	0.296956	0.375017	0.350015	99
Es	-1.508696	1.063764	0.518622	99
Es	-2.203238	0.868738	0.650151	99
Es	-0.519354	0.154382	0.520800	99
Es	-0.712147	-2.911137	-0.138031	99
Es	-0.290233	-1.484795	1.402530	99
Es	2.396229	1.936286	-0.657089	99
Es	0.816682	0.474703	0.331015	99
Es	0.987850	0.230262	0.268510	99
Es	-0.566502	-2.207509	-0.335152	99
44
Properties=species:S:1:pos:R:3:Z:I:1 energy=-307.9511251085039 field_type=dipole dipole="0.000000 0.000000 0.000000" charge=0
C	-0.566492	-2.207533	-0.335186	6
C	-0.758972	-1.292673	0.865454	6
C	-0.519712	0.154417	0.520834	6
C	-1.508652	1.063727	0.518664	6
O	0.817008	0.474457	0.331234	8
C	1.177378	1.392527	-0.622906	6
C	2.396168	1.936267	-0.657076	6
H	-0.776092	-3.244873	-0.054796	1
H	0.461018	-2.161863	-0.710346	1
H	-1.242072	-1.935433	-1.152926	1
H	-0.072892	-1.591093	1.667224	1
H	-1.773562	-1.433333	1.257994	1
H	-2.535982	0.779547	0.719004	1
H	-1.314782	2.115667	0.340874	1
H	0.411398	1.621307	-1.350476	1
H	3.141868	1.674277	0.085524	1
H	2.664368	2.654607	-1.423096	1
Es	1.000037	0.229255	0.285491	99
Es	-1.456246	-1.378401	1.126982	99
Es	-0.659100	-1.732693	0.262605	99
Es	-1.508706	1.063772	0.518625	99
Es	0.829739	0.603858	0.518657	99
Es	-1.087986	0.578736	0.183191	99
Es	-1.007551	0.694124	0.828888	99
Es	1.707966	1.935880	-0.456558	99
Es	1.177186	1.392298	-0.622704	99
Es	-0.712863	-2.910329	-0.137709	99
Es	0.907464	0.839833	-0.026258	99
Es	0.652332	1.546453	-1.108004	99
Es	2.902714	1.760729	-0.162626	99
Es	0.816702	0.474558	0.331039	99
Es	0.134905	-2.172695	-0.588774	99
Es	-0.627625	-0.562313	0.684074	99
Es	-1.376363	1.772834	0.391476	99
Es	-0.289617	-1.485134	1.401533	99
Es	-2.204426	0.868344	0.649786	99
Es	0.294925	0.374641	0.351402	99
Es	-1.030428	-2.017787	-0.886605	99
Es	-0.758957	-1.292629	0.865406	99
Es	-0.566500	-2.207509	-0.335150	99
Es	2.576605	2.414125	-1.174880	99
Es	-0.519347	0.154384	0.520802	99
Es	1.915804	1.435567	-0.839182	99
Es	2.396233	1.936288	-0.657090	99
44
Properties=species:S:1:pos:R:3:Z:I:1 energy=-307.9511251085039 field_type=dipole dipole="0.000000 0.000000 0.000000" charge=0
C	-0.566492	-2.207533	-0.335186	6
C	-0.758972	-1.292673	0.865454	6
C	-0.519712	0.154417	0.520834	6
C	-1.508652	1.063727	0.518664	6
O	0.817008	0.474457	0.331234	8
C	1.177378	1.392527	-0.622906	6
C	2.396168	1.936267	-0.657076	6
H	-0.776092	-3.244873	-0.054796	1
H	0.461018	-2.161863	-0.710346	1
H	-1.242072	-1.935433	-1.152926	1
H	-0.072892	-1.591093	1.667224	1
H	-1.773562	-1.433333	1.257994	1
H	-2.535982	0.779547	0.719004	1
H	-1.314782	2.115667	0.340874	1
H	0.411398	1.621307	-1.350476	1
H	3.141868	1.674277	0.085524	1
H	2.664368	2.654607	-1.423096	1
Es	-1.508706	1.063773	0.518626	99
Es	0.135355	-2.173348	-0.589175	99
Es	0.913151	0.853447	-0.013720	99
Es	-0.712865	-2.909246	-0.138358	99
Es	1.022481	0.232654	0.329149	99
Es	-0.519348	0.154380	0.520794	99
Es	2.903052	1.761835	-0.162617	99
Es	-0.627522	-0.562904	0.683262	99
Es	-2.204902	0.868641	0.650276	99
Es	-1.087395	0.579249	0.181964	99
Es	0.652428	1.545792	-1.108125	99
Es	1.916465	1.434267	-0.839791	99
Es	-0.659041	-1.732889	0.262693	99
Es	-1.376095	1.772197	0.393516	99
Es	1.707414	1.937228	-0.456210	99
Es	-0.289984	-1.484176	1.401416	99
Es	-0.566500	-2.207508	-0.335148	99
Es	2.396229	1.936287	-0.657089	99
Es	-1.456606	-1.377968	1.127354	99
Es	0.810238	0.530403	0.395141	99
Es	1.177188	1.392293	-0.622708	99
Es	2.576310	2.413219	-1.174153	99
Es	-1.030301	-2.018576	-0.886426	99
Es	0.292043	0.376877	0.359408	99
Es	0.810898	0.529128	0.389989	99
Es	-0.758958	-1.292627	0.865403	99
Es	-1.008134	0.693760	0.828944	99
44
Properties=species:S:1:pos:R:3:Z:I:1 energy=-307.9511251085039 field_type=dipole dipole="0.000000 0.000000 0.000000" charge=0
C	-0.566492	-2.207533	-0.335186	6
C	-0.758972	-1.292673	0.865454	6
C	-0.519712	0.154417	0.520834	6
C	-1.508652	1.063727	0.518664	6
O	0.817008	0.474457	0.331234	8
C	1.177378	1.392527	-0.622906	6
C	2.396168	1.936267	-0.657076	6
H	-0.776092	-3.244873	-0.054796	1
H	0.461018	-2.161863	-0.710346	1
H	-1.242072	-1.935433	-1.152926	1
H	-0.072892	-1.591093	1.667224	1
H	-1.773562	-1.433333	1.257994	1
H	-2.535982	0.779547	0.719004	1
H	-1.314782	2.115667	0.340874	1
H	0.411398	1.621307	-1.350476	1
H	3.141868	1.674277	0.085524	1
H	2.664368	2.654607	-1.423096	1
Es	-1.375498	1.771940	0.392657	99
Es	-0.519343	0.154382	0.520804	99
Es	0.811056	0.597745	0.482624	99
Es	-0.289375	-1.485048	1.400565	99
Es	0.816690	0.474590	0.331044	99
Es	0.293116	0.372791	0.350754	99
Es	0.910790	0.845435	-0.019973	99
Es	-0.658992	-1.732476	0.262810	99
Es	-1.030721	-2.017968	-0.885562	99
Es	0.652104	1.546991	-1.107234	99
Es	0.136514	-2.172690	-0.589053	99
Es	2.903747	1.760418	-0.163625	99
Es	-0.713703	-2.909193	-0.137490	99
Es	-1.007938	0.693783	0.827738	99
Es	-0.627067	-0.562994	0.682929	99
Es	1.916261	1.435272	-0.840139	99
Es	2.576198	2.412729	-1.174192	99
Es	-0.566500	-2.207509	-0.335150	99
Es	-1.508707	1.063774	0.518631	99
Es	1.177186	1.392298	-0.622705	99
Es	2.396230	1.936287	-0.657089	99
Es	-0.758958	-1.292628	0.865404	99
Es	-1.087355	0.579848	0.184191	99
Es	1.707508	1.936851	-0.455470	99
Es	1.017199	0.232179	0.315325	99
Es	-2.205710	0.868191	0.649677	99
Es	-1.457838	-1.378809	1.126944	99
44
Properties=species:S:1:pos:R:3:Z:I:1 energy=-307.9511251085039 field_type=dipole dipole="0.000000 0.000000 0.000000" charge=0
C	-0.566492	-2.207533	-0.335186	6
C	-0.758972	-1.292673	0.865454	6
C	-0.519712	0.154417	0.520834	6
C	-1.508652	1.063727	0.518664	6
O	0.817008	0.474457	0.331234	8
C	1.177378	1.392527	-0.622906	6
C	2.396168	1.936267	-0.657076	6
H	-0.776092	-3.244873	-0.054796	1
H	0.461018	-2.161863	-0.710346	1
H	-1.242072	-1.935433	-1.152926	1
H	-0.072892	-1.591093	1.667224	1
H	-1.773562	-1.433333	1.257994	1
H	-2.535982	0.779547	0.719004	1
H	-1.314782	2.115667	0.340874	1
H	0.411398	1.621307	-1.350476	1
H	3.141868	1.674277	0.085524	1
H	2.664368	2.654607	-1.423096	1
Es	0.816687	0.474682	0.331020	99
Es	-1.508698	1.063772	0.518644	99
Es	-1.087067	0.580266	0.184760	99
Es	-1.458358	-1.379106	1.126752	99
Es	2.396232	1.936290	-0.657089	99
Es	-0.659126	-1.732351	0.262946	99
Es	2.904186	1.760299	-0.164047	99
Es	-0.758956	-1.292628	0.865404	99
Es	-0.714066	-2.908846	-0.137432	99
Es	1.707430	1.936914	-0.455028	99
Es	0.292298	0.374345	0.352662	99
Es	0.810699	0.594616	0.477912	99
Es	-2.206116	0.867971	0.649366	99
Es	-0.519346	0.154379	0.520796	99
Es	-0.289175	-1.485226	1.400238	99
Es	2.575891	2.412408	-1.173929	99
Es	-0.626936	-0.563089	0.682637	99
Es	0.651991	1.547246	-1.106950	99
Es	1.916429	1.435225	-0.840407	99
Es	1.177193	1.392301	-0.622714	99
Es	0.137138	-2.172555	-0.588967	99
Es	1.018480	0.232116	0.315184	99
Es	-1.030773	-2.017911	-0.885183	99
Es	0.910714	0.847145	-0.017228	99
Es	-0.566501	-2.207507	-0.335148	99
Es	-1.375183	1.771754	0.392989	99
Es	-1.008171	0.693681	0.827228	99
44
Properties=species:S:1:pos:R:3:Z:I:1 energy=-307.9511251085039 field_type=dipole dipole="0.000000 0.000000 0.000000" charge=0
C	-0.566492	-2.207533	-0.335186	6
C	-0.758972	-1.292673	0.865454	6
C	-0.519712	0.154417	0.520834	6
C	-1.508652	1.063727	0.518664	6
O	0.817008	0.474457	0.331234	8
C	1.177378	1.392527	-0.622906	6
C	2.396168	1.936267	-0.657076	6
H	-0.776092	-3.244873	-0.054796	1
H	0.461018	-2.161863	-0.710346	1
H	-1.242072	-1.935433	-1.152926	1
H	-0.072892	-1.591093	1.667224	1
H	-1.773562	-1.433333	1.257994	1
H	-2.535982	0.779547	0.719004	1
H	-1.314782	2.115667	0.340874	1
H	0.411398	1.621307	-1.350476	1
H	3.141868	1.674277	0.085524	1
H	2.664368	2.654607	-1.423096	1
Es	0.292005	0.374256	0.353037	99
Es	-1.508705	1.063771	0.518628	99
Es	-0.714128	-2.908361	-0.137329	99
Es	0.816670	0.474614	0.330962	99
Es	0.651936	1.547371	-1.106784	99
Es	0.911033	0.853000	-0.010308	99
Es	1.020392	0.232702	0.314488	99
Es	-1.031062	-2.018007	-0.884964	99
Es	-0.566501	-2.207507	-0.335147	99
Es	1.916254	1.435086	-0.840237	99
Es	0.137576	-2.172545	-0.588969	99
Es	-2.206415	0.867981	0.649254	99
Es	-0.519340	0.154381	0.520801	99
Es	0.808768	0.588551	0.471304	99
Es	2.904468	1.760161	-0.164305	99
Es	-0.288960	-1.485213	1.400030	99
Es	-0.758956	-1.292628	0.865403	99
Es	-0.626767	-0.563375	0.682447	99
Es	2.396233	1.936284	-0.657093	99
Es	2.575826	2.411861	-1.173960	99
Es	1.707554	1.937433	-0.454976	99
Es	-1.008325	0.693605	0.827077	99
Es	1.177188	1.392298	-0.622711	99
Es	-1.458829	-1.379158	1.126630	99
Es	-1.375036	1.771408	0.393400	99
Es	-1.086877	0.580492	0.184771	99
Es	-0.659104	-1.732271	0.262967	99
44
Properties=species:S:1:pos:R:3:Z:I:1 energy=-307.9511251085039 field_type=dipole dipole="0.000000 0.000000 0.000000" charge=0
C	-0.566492	-2.207533	-0.335186	6
C	-0.758972	-1.292673	0.865454	6
C	-0.519712	0.154417	0.520834	6
C	-1.508652	1.063727	0.518664	6
O	0.817008	0.474457	0.331234	8
C	1.177378	1.392527	-0.622906	6
C	2.396168	1.936267	-0.657076	6
H	-0.776092	-3.244873	-0.054796	1
H	0.461018	-2.161863	-0.710346	1
H	-1.242072	-1.935433	-1.152926	1
H	-0.072892	-1.591093	1.667224	1
H	-1.773562	-1.433333	1.257994	1
H	-2.535982	0.779547	0.719004	1
H	-1.314782	2.115667	0.340874	1
H	0.411398	1.621307	-1.350476	1
H	3.141868	1.674277	0.085524	1
H	2.664368	2.654607	-1.423096	1
Es	-1.086499	0.580796	0.185206	99
Es	-1.459059	-1.379246	1.126675	99
Es	-0.566500	-2.207509	-0.335150	99
Es	-1.508698	1.063769	0.518626	99
Es	-1.008692	0.693540	0.826690	99
Es	-0.288993	-1.485315	1.399703	99
Es	-0.519348	0.154382	0.520798	99
Es	-2.206698	0.867955	0.649316	99
Es	0.911538	0.852391	-0.010357	99
Es	-0.758957	-1.292629	0.865406	99
Es	1.023499	0.234408	0.321961	99
Es	1.916650	1.434888	-0.840721	99
Es	1.177189	1.392299	-0.622712	99
Es	2.396234	1.936284	-0.657093	99
Es	0.651861	1.547419	-1.106590	99
Es	-1.031072	-2.017771	-0.884596	99
Es	2.575699	2.411543	-1.173602	99
Es	0.805725	0.588147	0.464016	99
Es	2.904653	1.760318	-0.164531	99
Es	0.137905	-2.172409	-0.588956	99
Es	0.291619	0.373767	0.352705	99
Es	-0.714424	-2.908265	-0.137419	99
Es	1.707215	1.937604	-0.454540	99
Es	0.816513	0.474529	0.330853	99
Es	-1.374699	1.771239	0.393816	99
Es	-0.626679	-0.563475	0.682065	99
Es	-0.659087	-1.732467	0.262846	99
44
Properties=species:S:1:pos:R:3:Z:I:1 energy=-307.9511251085039 field_type=dipole dipole="0.000000 0.000000 0.000000" charge=0
C	-0.566492	-2.207533	-0.335186	6
C	-0.758972	-1.292673	0.865454	6
C	-0.519712	0.154417	0.520834	6
C	-1.508652	1.063727	0.518664	6
O	0.817008	0.474457	0.331234	8
C	1.177378	1.392527	-0.622906	6
C	2.396168	1.936267	-0.657076	6
H	-0.776092	-3.244873	-0.054796	1
H	0.461018	-2.161863	-0.710346	1
H	-1.242072	-1.935433	-1.152926	1
H	-0.072892	-1.591093	1.667224	1
H	-1.773562	-1.433333	1.257994	1
H	-2.535982	0.779547	0.719004	1
H	-1.314782	2.115667	0.340874	1
H	0.411398	1.621307	-1.350476	1
H	3.141868	1.674277	0.085524	1
H	2.664368	2.654607	-1.423096	1
Es	-1.031075	-2.018087	-0.884469	99
Es	-1.374606	1.770971	0.394093	99
Es	1.177182	1.392302	-0.622694	99
Es	-0.626519	-0.563553	0.681867	99
Es	-1.086689	0.580996	0.185111	99
Es	1.916796	1.434961	-0.840728	99
Es	1.707084	1.937607	-0.454497	99
Es	-0.758959	-1.292629	0.865401	99
Es	-0.519344	0.154381	0.520795	99
Es	0.912638	0.855468	-0.006416	99
Es	1.023907	0.234618	0.322615	99
Es	2.904920	1.760392	-0.164633	99
Es	-0.659285	-1.732172	0.262991	99
Es	-2.206872	0.868023	0.649388	99
Es	-1.008523	0.693370	0.826533	99
Es	-1.459345	-1.379389	1.126591	99
Es	2.396233	1.936287	-0.657091	99
Es	-0.288875	-1.485325	1.399506	99
Es	-0.714479	-2.907891	-0.137329	99
Es	0.804410	0.584635	0.459473	99
Es	0.651794	1.547578	-1.106422	99
Es	-1.508706	1.063771	0.518622	99
Es	0.138217	-2.172411	-0.588952	99
Es	0.291370	0.374155	0.352615	99
Es	0.816580	0.474520	0.330819	99
Es	2.575544	2.411121	-1.173623	99
Es	-0.566501	-2.207510	-0.335150	99
44
Properties=species:S:1:pos:R:3:Z:I:1 energy=-307.9511251085039 field_type=dipole dipole="0.000000 0.000000 0.000000" charge=0
C	-0.566492	-2.207533	-0.335186	6
C	-0.758972	-1.292673	0.865454	6
C	-0.519712	0.154417	0.520834	6
C	-1.508652	1.063727	0.518664	6
O	0.817008	0.474457	0.331234	8
C	1.177378	1.392527	-0.622906	6
C	2.396168	1.936267	-0.657076	6
H	-0.776092	-3.244873	-0.054796	1
H	0.461018	-2.161863	-0.710346	1
H	-1.242072	-1.935433	-1.152926	1
H	-0.072892	-1.591093	1.667224	1
H	-1.773562	-1.433333	1.257994	1
H	-2.535982	0.779547	0.719004	1
H	-1.314782	2.115667	0.340874	1
H	0.411398	1.621307	-1.350476	1
H	3.141868	1.674277	0.085524	1
H	2.664368	2.654607	-1.423096	1
Es	0.816633	0.474548	0.330914	99
Es	-2.207072	0.867995	0.649305	99
Es	2.396232	1.936288	-0.657092	99
Es	2.905237	1.760396	-0.164862	99
Es	-0.758956	-1.292628	0.865403	99
Es	-1.008380	0.693113	0.826157	99
Es	1.707225	1.937941	-0.454377	99
Es	-1.459590	-1.379508	1.126597	99
Es	1.024200	0.235068	0.322381	99
Es	-1.086841	0.581396	0.185386	99
Es	2.575331	2.410756	-1.173518	99
Es	-0.714607	-2.907661	-0.137197	99
Es	0.912752	0.856417	-0.005013	99
Es	-1.508708	1.063773	0.518624	99
Es	-0.566500	-2.207509	-0.335149	99
Es	0.651722	1.547651	-1.106346	99
Es	1.177183	1.392294	-0.622700	99
Es	-0.288742	-1.485410	1.399221	99
Es	0.138452	-2.172404	-0.588993	99
Es	0.804253	0.583067	0.457020	99
Es	0.291086	0.374384	0.353692	99
Es	-1.374372	1.770846	0.394385	99
Es	-0.519343	0.154382	0.520802	99
Es	-1.031245	-2.018038	-0.884244	99
Es	-0.659245	-1.732093	0.262963	99
Es	1.916664	1.434808	-0.840622	99
Es	-0.626472	-0.563682	0.681678	99
44
Properties=species:S:1:pos:R:3:Z:I:1 energy=-307.9511251085039 field_type=dipole dipole="0.000000 0.000000 0.000000" charge=0
C	-0.566492	-2.207533	-0.335186	6
C	-0.758972	-1.292673	0.865454	6
C	-0.519712	0.154417	0.520834	6
C	-1.508652	1.063727	0.518664	6
O	0.817008	0.474457	0.331234	8
C	1.177378	1.392527	-0.622906	6
C	2.396168	1.936267	-0.657076	6
H	-0.776092	-3.244873	-0.054796	1
H	0.461018	-2.161863	-0.710346	1
H	-1.242072	-1.935433	-1.152926	1
H	-0.072892	-1.591093	1.667224	1
H	-1.773562	-1.433333	1.257994	1
H	-2.535982	0.779547	0.719004	1
H	-1.314782	2.115667	0.340874	1
H	0.411398	1.621307	-1.350476	1
H	3.141868	1.674277	0.085524	1
H	2.664368	2.654607	-1.423096	1
Es	-0.714590	-2.907358	-0.137288	99
Es	-0.626421	-0.563815	0.681483	99
Es	-0.519343	0.154380	0.520794	99
Es	2.905250	1.760571	-0.164921	99
Es	-0.659151	-1.732203	0.263125	99
Es	1.706918	1.937966	-0.454211	99
Es	0.290890	0.374384	0.353329	99
Es	-2.207180	0.868031	0.649286	99
Es	-0.288818	-1.485105	1.399207	99
Es	-1.459775	-1.379484	1.126564	99
Es	-0.566501	-2.207510	-0.335148	99
Es	-1.008801	0.693209	0.826224	99
Es	-0.758955	-1.292629	0.865402	99
Es	-1.374365	1.770626	0.394759	99
Es	0.138611	-2.172486	-0.589054	99
Es	1.177186	1.392295	-0.622704	99
Es	1.026066	0.236135	0.327269	99
Es	0.913782	0.859059	-0.001195	99
Es	0.801841	0.579414	0.448818	99
Es	2.575356	2.410474	-1.173458	99
Es	-1.086387	0.581329	0.185144	99
Es	1.916984	1.434768	-0.840863	99
Es	-1.508708	1.063774	0.518626	99
Es	2.396234	1.936284	-0.657091	99
Es	-1.031293	-2.018209	-0.884156	99
Es	0.651726	1.547711	-1.106212	99
Es	0.816340	0.474580	0.330686	99
44
Properties=species:S:1:pos:R:3:Z:I:1 energy=-307.9511251085039 field_type=dipole dipole="0.000000 0.000000 0.000000" charge=0
C	-0.566492	-2.207533	-0.335186	6
C	-0.758972	-1.292673	0.865454	6
C	-0.519712	0.154417	0.520834	6
C	-1.508652	1.063727	0.518664	6
O	0.817008	0.474457	0.331234	8
C	1.177378	1.392527	-0.622906	6
C	2.396168	1.936267	-0.657076	6
H	-0.776092	-3.244873	-0.054796	1
H	0.461018	-2.161863	-0.710346	1
H	-1.242072	-1.935433	-1.152926	1
H	-0.072892	-1.591093	1.667224	1
H	-1.773562	-1.433333	1.257994	1
H	-2.535982	0.779547	0.719004	1
H	-1.314782	2.115667	0.340874	1
H	0.411398	1.621307	-1.350476	1
H	3.141868	1.674277	0.085524	1
H	2.664368	2.654607	-1.423096	1
Es	-1.374279	1.770466	0.394928	99
Es	-0.288665	-1.485403	1.398903	99
Es	1.916900	1.434751	-0.840764	99
Es	1.026926	0.236557	0.327436	99
Es	1.177186	1.392300	-0.622703	99
Es	0.290830	0.373988	0.352731	99
Es	-1.459941	-1.379548	1.126582	99
Es	-0.659330	-1.732178	0.262900	99
Es	0.913277	0.858753	-0.000759	99
Es	0.651766	1.547690	-1.106132	99
Es	2.396233	1.936284	-0.657093	99
Es	-0.566500	-2.207510	-0.335149	99
Es	-0.519342	0.154381	0.520793	99
Es	0.138836	-2.172214	-0.588976	99
Es	0.801334	0.579879	0.448726	99
Es	-1.031254	-2.018014	-0.883846	99
Es	-1.008672	0.693156	0.825903	99
Es	-0.758957	-1.292629	0.865404	99
Es	0.816489	0.474493	0.330684	99
Es	-2.207322	0.867954	0.649307	99
Es	-0.626402	-0.563992	0.681399	99
Es	-1.508697	1.063773	0.518659	99
Es	1.706957	1.938260	-0.454084	99
Es	2.905481	1.760487	-0.165141	99
Es	2.575217	2.410210	-1.173469	99
Es	-1.086362	0.581703	0.185490	99
Es	-0.714815	-2.907408	-0.137313	99
44
Properties=species:S:1:pos:R:3:Z:I:1 energy=-307.9511251085039 field_type=dipole dipole="0.000000 0.000000 0.000000" charge=0
C	-0.566492	-2.207533	-0.335186	6
C	-0.758972	-1.292673	0.865454	6
C	-0.519712	0.154417	0.520834	6
C	-1.508652	1.063727	0.518664	6
O	0.817008	0.474457	0.331234	8
C	1.177378	1.392527	-0.622906	6
C	2.396168	1.936267	-0.657076	6
H	-0.776092	-3.244873	-0.054796	1
H	0.461018	-2.161863	-0.710346	1
H	-1.242072	-1.935433	-1.152926	1
H	-0.072892	-1.591093	1.667224	1
H	-1.773562	-1.433333	1.257994	1
H	-2.535982	0.779547	0.719004	1
H	-1.314782	2.115667	0.340874	1
H	0.411398	1.621307	-1.350476	1
H	3.141868	1.674277	0.085524	1
H	2.664368	2.654607	-1.423096	1
Es	-1.086395	0.581848	0.185721	99
Es	-0.714889	-2.907185	-0.137047	99
Es	2.396232	1.936285	-0.657092	99
Es	2.575053	2.410101	-1.173279	99
Es	-1.508709	1.063772	0.518618	99
Es	-0.758956	-1.292629	0.865401	99
Es	0.139011	-2.172243	-0.588921	99
Es	-0.659230	-1.732081	0.262922	99
Es	0.651654	1.547760	-1.106087	99
Es	1.707016	1.938251	-0.454021	99
Es	-0.519341	0.154381	0.520795	99
Es	2.905662	1.760535	-0.165236	99
Es	0.801980	0.578786	0.448076	99
Es	0.816502	0.474566	0.330929	99
Es	-2.207437	0.867897	0.649264	99
Es	-0.566500	-2.207509	-0.335149	99
Es	0.290675	0.374525	0.354004	99
Es	-1.374082	1.770436	0.395145	99
Es	-1.031425	-2.018031	-0.883786	99
Es	1.026968	0.236376	0.325241	99
Es	-0.288571	-1.485399	1.398785	99
Es	1.916899	1.434680	-0.840847	99
Es	-0.626348	-0.564059	0.681226	99
Es	1.177187	1.392301	-0.622707	99
Es	-1.008727	0.693020	0.825577	99
Es	-1.460138	-1.379704	1.126457	99
Es	0.912803	0.859511	0.000429	99
44
Properties=species:S:1:pos:R:3:Z:I:1 energy=-307.9511251085039 field_type=dipole dipole="0.000000 0.000000 0.000000" charge=0
C	-0.566492	-2.207533	-0.335186	6
C	-0.758972	-1.292673	0.865454	6
C	-0.519712	0.154417	0.520834	6
C	-1.508652	1.063727	0.518664	6
O	0.817008	0.474457	0.331234	8
C	1.177378	1.392527	-0.622906	6
C	2.396168	1.936267	-0.657076	6
H	-0.776092	-3.244873	-0.054796	1
H	0.461018	-2.161863	-0.710346	1
H	-1.242072	-1.935433	-1.152926	1
H	-0.072892	-1.591093	1.667224	1
H	-1.773562	-1.433333	1.257994	1
H	-2.535982	0.779547	0.719004	1
H	-1.314782	2.115667	0.340874	1
H	0.411398	1.621307	-1.350476	1
H	3.141868	1.674277	0.085524	1
H	2.664368	2.654607	-1.423096	1
Es	0.139148	-2.172200	-0.588888	99
Es	-1.460250	-1.379772	1.126415	99
Es	0.290530	0.374562	0.354335	99
Es	-0.519342	0.154380	0.520793	99
Es	-0.626204	-0.563980	0.680854	99
Es	2.905811	1.760770	-0.165264	99
Es	1.706957	1.938216	-0.453970	99
Es	1.028194	0.237264	0.329217	99
Es	-1.009116	0.693034	0.825713	99
Es	-0.566501	-2.207509	-0.335148	99
Es	-1.086004	0.581882	0.185597	99
Es	0.816489	0.474744	0.331341	99
Es	1.917040	1.434497	-0.841003	99
Es	-2.207537	0.867900	0.649227	99
Es	-1.031359	-2.018096	-0.883685	99
Es	0.913405	0.860286	0.001641	99
Es	-0.659197	-1.732258	0.263061	99
Es	1.177186	1.392295	-0.622705	99
Es	0.651655	1.547844	-1.105993	99
Es	-1.508707	1.063772	0.518624	99
Es	-1.374046	1.770260	0.395453	99
Es	-0.714940	-2.907063	-0.137179	99
Es	0.800287	0.576978	0.442089	99
Es	2.574883	2.409950	-1.173139	99
Es	-0.758957	-1.292628	0.865403	99
Es	2.396233	1.936285	-0.657091	99
Es	-0.288762	-1.485225	1.398719	99
44
Properties=species:S:1:pos:R:3:Z:I:1 energy=-307.9511251085039 field_type=dipole dipole="0.000000 0.000000 0.000000" charge=0
C	-0.566492	-2.207533	-0.335186	6
C	-0.758972	-1.292673	0.865454	6
C	-0.519712	0.154417	0.520834	6
C	-1.508652	1.063727	0.518664	6
O	0.817008	0.474457	0.331234	8
C	1.177378	1.392527	-0.622906	6
C	2.396168	1.936267	-0.657076	6
H	-0.776092	-3.244873	-0.054796	1
H	0.461018	-2.161863	-0.710346	1
H	-1.242072	-1.935433	-1.152926	1
H	-0.072892	-1.591093	1.667224	1
H	-1.773562	-1.433333	1.257994	1
H	-2.535982	0.779547	0.719004	1
H	-1.314782	2.115667	0.340874	1
H	0.411398	1.621307	-1.350476	1
H	3.141868	1.674277	0.085524	1
H	2.664368	2.654607	-1.423096	1
Es	-2.207608	0.867956	0.649333	99
Es	-0.626222	-0.564147	0.680904	99
Es	2.574837	2.409683	-1.173194	99
Es	-1.460377	-1.379790	1.126387	99
Es	1.177186	1.392302	-0.622704	99
Es	1.917188	1.434728	-0.840965	99
Es	-0.758957	-1.292629	0.865404	99
Es	-1.031517	-2.018282	-0.883689	99
Es	-0.519336	0.154381	0.520801	99
Es	0.816102	0.475082	0.331189	99
Es	2.396228	1.936287	-0.657089	99
Es	0.913424	0.862273	0.004467	99
Es	2.905945	1.760735	-0.165354	99
Es	-1.373993	1.770119	0.395593	99
Es	0.139236	-2.172196	-0.588895	99
Es	1.706733	1.938289	-0.453885	99
Es	-0.566501	-2.207509	-0.335149	99
Es	-1.008868	0.692901	0.825568	99
Es	-0.659246	-1.732080	0.263031	99
Es	0.651689	1.547775	-1.105992	99
Es	1.028700	0.237753	0.329279	99
Es	-1.508708	1.063773	0.518624	99
Es	-1.086249	0.582046	0.185562	99
Es	-0.288632	-1.485231	1.398621	99
Es	0.800150	0.574448	0.438843	99
Es	-0.714808	-2.906830	-0.137117	99
Es	0.290501	0.374353	0.354843	99
44
Properties=species:S:1:pos:R:3:Z:I:1 energy=-307.9511251085039 field_type=dipole dipole="0.000000 0.000000 0.000000" charge=0
C	-0.566492	-2.207533	-0.335186	6
C	-0.758972	-1.292673	0.865454	6
C	-0.519712	0.154417	0.520834	6
C	-1.508652	1.063727	0.518664	6
O	0.817008	0.474457	0.331234	8
C	1.177378	1.392527	-0.622906	6
C	2.396168	1.936267	-0.657076	6
H	-0.776092	-3.244873	-0.054796	1
H	0.461018	-2.161863	-0.710346	1
H	-1.242072	-1.935433	-1.152926	1
H	-0.072892	-1.591093	1.667224	1
H	-1.773562	-1.433333	1.257994	1
H	-2.535982	0.779547	0.719004	1
H	-1.314782	2.115667	0.340874	1
H	0.411398	1.621307	-1.350476	1
H	3.141868	1.674277	0.085524	1
H	2.664368	2.654607	-1.423096	1
Es	-1.460459	-1.379850	1.126419	99
Es	0.914729	0.862567	0.004588	99
Es	0.799265	0.574419	0.437846	99
Es	2.396231	1.936291	-0.657085	99
Es	-0.626235	-0.564199	0.680772	99
Es	-0.758958	-1.292628	0.865404	99
Es	-1.086105	0.582077	0.185604	99
Es	-1.031485	-2.018136	-0.883423	99
Es	-2.207689	0.867969	0.649353	99
Es	-0.519344	0.154383	0.520792	99
Es	0.290345	0.374729	0.354462	99
Es	-0.288422	-1.485318	1.398467	99
Es	-0.566501	-2.207509	-0.335150	99
Es	-1.508709	1.063772	0.518620	99
Es	2.574561	2.409402	-1.173153	99
Es	-1.009148	0.692837	0.825294	99
Es	1.177186	1.392300	-0.622704	99
Es	1.917048	1.434582	-0.840852	99
Es	-0.714980	-2.906796	-0.137229	99
Es	1.706899	1.938410	-0.453911	99
Es	0.816604	0.474524	0.330884	99
Es	0.651618	1.547907	-1.105859	99
Es	1.027968	0.237705	0.330716	99
Es	-1.373796	1.770099	0.395900	99
Es	-0.659327	-1.732000	0.263153	99
Es	0.139331	-2.172188	-0.589001	99
Es	2.906267	1.760841	-0.165492	99
44
Properties=species:S:1:pos:R:3:Z:I:1 energy=-307.9511251085039 field_type=dipole dipole="0.000000 0.000000 0.000000" charge=0
C	-0.566492	-2.207533	-0.335186	6
C	-0.758972	-1.292673	0.865454	6
C	-0.519712	0.154417	0.520834	6
C	-1.508652	1.063727	0.518664	6
O	0.817008	0.474457	0.331234	8
C	1.177378	1.392527	-0.622906	6
C	2.396168	1.936267	-0.657076	6
H	-0.776092	-3.244873	-0.054796	1
H	0.461018	-2.161863	-0.710346	1
H	-1.242072	-1.935433	-1.152926	1
H	-0.072892	-1.591093	1.667224	1
H	-1.773562	-1.433333	1.257994	1
H	-2.535982	0.779547	0.719004	1
H	-1.314782	2.115667	0.340874	1
H	0.411398	1.621307	-1.350476	1
H	3.141868	1.674277	0.085524	1
H	2.664368	2.654607	-1.423096	1
Es	-1.460635	-1.379810	1.126242	99
Es	-2.207801	0.867995	0.649190	99
Es	0.290294	0.374993	0.354574	99
Es	-1.085659	0.582011	0.185817	99
Es	0.799412	0.573805	0.437256	99
Es	-0.566501	-2.207508	-0.335149	99
Es	0.816486	0.474538	0.330847	99
Es	2.574422	2.409195	-1.173071	99
Es	1.177186	1.392300	-0.622706	99
Es	-0.758957	-1.292629	0.865404	99
Es	2.906422	1.760978	-0.165637	99
Es	-1.373751	1.769928	0.395855	99
Es	1.917019	1.434453	-0.840837	99
Es	-0.715103	-2.906644	-0.137114	99
Es	0.139509	-2.172189	-0.588816	99
Es	-0.288412	-1.485456	1.398412	99
Es	-0.519342	0.154380	0.520793	99
Es	-0.626104	-0.564319	0.680720	99
Es	1.706922	1.938609	-0.453822	99
Es	0.651546	1.547900	-1.105838	99
Es	-1.031345	-2.018303	-0.883464	99
Es	0.915095	0.863067	0.005387	99
Es	-1.508709	1.063774	0.518623	99
Es	1.027703	0.237584	0.330357	99
Es	2.396233	1.936286	-0.657091	99
Es	-0.659511	-1.731752	0.263125	99
Es	-1.009523	0.693001	0.825355	99
44
Properties=species:S:1:pos:R:3:Z:I:1 energy=-307.9511251085039 field_type=dipole dipole="0.000000 0.000000 0.000000" charge=0
C	-0.566492	-2.207533	-0.335186	6
C	-0.758972	-1.292673	0.865454	6
C	-0.519712	0.154417	0.520834	6
C	-1.508652	1.063727	0.518664	6
O	0.817008	0.474457	0.331234	8
C	1.177378	1.392527	-0.622906	6
C	2.396168	1.936267	-0.657076	6
H	-0.776092	-3.244873	-0.054796	1
H	0.461018	-2.161863	-0.710346	1
H	-1.242072	-1.935433	-1.152926	1
H	-0.072892	-1.591093	1.667224	1
H	-1.773562	-1.433333	1.257994	1
H	-2.535982	0.779547	0.719004	1
H	-1.314782	2.115667	0.340874	1
H	0.411398	1.621307	-1.350476	1
H	3.141868	1.674277	0.085524	1
H	2.664368	2.654607	-1.423096	1
Es	2.574306	2.409118	-1.172949	99
Es	0.139546	-2.172042	-0.588792	99
Es	1.706667	1.938429	-0.453660	99
Es	-0.519342	0.154380	0.520792	99
Es	-0.715075	-2.906671	-0.137192	99
Es	-2.207790	0.867967	0.649369	99
Es	0.290215	0.374655	0.354786	99
Es	-1.460641	-1.379807	1.126394	99
Es	-1.508708	1.063773	0.518625	99
Es	0.651582	1.547854	-1.105807	99
Es	-1.031545	-2.018060	-0.883339	99
Es	-1.373804	1.769865	0.396096	99
Es	2.396232	1.936289	-0.657088	99
Es	1.177186	1.392301	-0.622704	99
Es	-1.009484	0.692945	0.825386	99
Es	-0.659272	-1.732281	0.262925	99
Es	0.798383	0.571396	0.432844	99
Es	0.816612	0.475355	0.331429	99
Es	-1.085689	0.582068	0.185572	99
Es	1.028740	0.238448	0.332058	99
Es	-0.626148	-0.564381	0.680548	99
Es	1.917277	1.434638	-0.841074	99
Es	0.915003	0.864222	0.007306	99
Es	-0.288438	-1.485167	1.398373	99
Es	2.906541	1.761030	-0.165738	99
Es	-0.566500	-2.207507	-0.335146	99
Es	-0.758957	-1.292628	0.865404	99
44
Properties=species:S:1:pos:R:3:Z:I:1 energy=-307.9511251085039 field_type=dipole dipole="0.000000 0.000000 0.000000" charge=0
C	-0.566492	-2.207533	-0.335186	6
C	-0.758972	-1.292673	0.865454	6
C	-0.519712	0.154417	0.520834	6
C	-1.508652	1.063727	0.518664	6
O	0.817008	0.474457	0.331234	8
C	1.177378	1.392527	-0.622906	6
C	2.396168	1.936267	-0.657076	6
H	-0.776092	-3.244873	-0.054796	1
H	0.461018	-2.161863	-0.710346	1
H	-1.242072	-1.935433	-1.152926	1
H	-0.072892	-1.591093	1.667224	1
H	-1.773562	-1.433333	1.257994	1
H	-2.535982	0.779547	0.719004	1
H	-1.314782	2.115667	0.340874	1
H	0.411398	1.621307	-1.350476	1
H	3.141868	1.674277	0.085524	1
H	2.664368	2.654607	-1.423096	1
Es	-1.508712	1.063772	0.518608	99
Es	-1.373765	1.769747	0.396061	99
Es	0.797968	0.571283	0.431542	99
Es	-1.031552	-2.018164	-0.883226	99
Es	1.177186	1.392301	-0.622704	99
Es	2.396234	1.936285	-0.657092	99
Es	2.906580	1.761030	-0.165772	99
Es	-0.758957	-1.292630	0.865407	99
Es	-0.288370	-1.485267	1.398267	99
Es	1.028732	0.238635	0.332708	99
Es	2.574327	2.408905	-1.173086	99
Es	-0.659342	-1.732004	0.263239	99
Es	1.706742	1.938667	-0.453675	99
Es	0.290180	0.374697	0.354807	99
Es	0.816607	0.474495	0.330798	99
Es	0.915425	0.865014	0.008548	99
Es	0.651616	1.547869	-1.105792	99
Es	-0.519340	0.154381	0.520793	99
Es	-1.009705	0.693007	0.825409	99
Es	-0.626099	-0.564368	0.680432	99
Es	0.139620	-2.172086	-0.588884	99
Es	-1.460766	-1.379942	1.126253	99
Es	-0.715069	-2.906505	-0.137284	99
Es	-2.207868	0.867983	0.649318	99
Es	-0.566501	-2.207511	-0.335148	99
Es	-1.085457	0.582044	0.185725	99
Es	1.917180	1.434552	-0.840837	99
44
Properties=species:S:1:pos:R:3:Z:I:1 energy=-307.9511251085039 field_type=dipole dipole="0.000000 0.000000 0.000000" charge=0
C	-0.566492	-2.207533	-0.335186	6
C	-0.758972	-1.292673	0.865454	6
C	-0.519712	0.154417	0.520834	6
C	-1.508652	1.063727	0.518664	6
O	0.817008	0.474457	0.331234	8
C	1.177378	1.392527	-0.622906	6
C	2.396168	1.936267	-0.657076	6
H	-0.776092	-3.244873	-0.054796	1
H	0.461018	-2.161863	-0.710346	1
H	-1.242072	-1.935433	-1.152926	1
H	-0.072892	-1.591093	1.667224	1
H	-1.773562	-1.433333	1.257994	1
H	-2.535982	0.779547	0.719004	1
H	-1.314782	2.115667	0.340874	1
H	0.411398	1.621307	-1.350476	1
H	3.141868	1.674277	0.085524	1
H	2.664368	2.654607	-1.423096	1
Es	-0.519340	0.154380	0.520792	99
Es	1.917127	1.434298	-0.840856	99
Es	-1.373672	1.769748	0.396626	99
Es	0.796616	0.570593	0.427214	99
Es	-2.207862	0.867980	0.649539	99
Es	2.906656	1.761196	-0.165768	99
Es	-0.288491	-1.485137	1.398241	99
Es	0.139677	-2.172091	-0.588913	99
Es	-1.009401	0.692668	0.825165	99
Es	1.177185	1.392298	-0.622703	99
Es	-1.031487	-2.018222	-0.883151	99
Es	-1.508706	1.063774	0.518635	99
Es	0.651633	1.547889	-1.105712	99
Es	1.706824	1.938859	-0.453713	99
Es	-1.460784	-1.379856	1.126336	99
Es	-0.659288	-1.732133	0.263006	99
Es	0.816587	0.474533	0.330925	99
Es	2.574257	2.408738	-1.173036	99
Es	-0.566500	-2.207509	-0.335149	99
Es	2.396233	1.936287	-0.657092	99
Es	-0.715181	-2.906473	-0.137144	99
Es	1.030058	0.239581	0.336641	99
Es	-0.626068	-0.564417	0.680168	99
Es	-1.085826	0.582386	0.185490	99
Es	-0.758957	-1.292629	0.865405	99
Es	0.290116	0.374560	0.354970	99
Es	0.915488	0.864888	0.008501	99
