44
Properties=species:S:1:pos:R:3:Z:I:1 energy=-307.9852310212809 field_type=dipole dipole="0.000000 0.000000 0.000000" charge=0
C	-2.401695	-1.088072	0.282031	6
C	-0.895245	-1.280172	0.350021	6
C	-0.150665	0.006508	-0.003629	6
C	1.356855	-0.166062	0.062761	6
O	1.896175	-1.228572	0.369651	8
C	2.236345	0.994948	-0.254709	6
C	1.808895	2.213888	-0.607479	6
H	-2.914695	-2.019122	0.542671	1
H	-2.714835	-0.798432	-0.726209	1
H	-2.730505	-0.311982	0.980511	1
H	-0.601535	-2.082982	-0.335499	1
H	-0.617945	-1.607232	1.359491	1
H	-0.439465	0.797548	0.697791	1
H	-0.419765	0.312988	-1.020849	1
H	3.299455	0.783598	-0.179389	1
H	0.760416	2.473478	-0.696549	1
H	2.528205	2.999668	-0.820619	1
Es	1.356861	-0.166025	0.062750	99
Es	-0.509691	-0.624595	0.169932	99
Es	-0.317924	0.218425	-0.689875	99
Es	1.896006	-1.228315	0.369577	99
Es	-1.653466	-1.172673	0.312690	99
Es	2.287020	2.747529	-0.752320	99
Es	-2.612368	-0.886780	-0.409436	99
Es	1.702192	-0.907327	0.017147	99
Es	1.692256	-1.463682	0.433374	99
Es	2.003053	1.657609	-0.112788	99
Es	-0.331183	0.544676	0.467331	99
Es	1.808858	2.213981	-0.607504	99
Es	-2.750372	-1.722483	0.459625	99
Es	-0.150600	0.006509	-0.003629	99
Es	0.603901	-0.073549	0.027484	99
Es	-0.710747	-1.493456	1.039386	99
Es	-2.623001	-0.553544	0.759792	99
Es	-2.401676	-1.088069	0.282030	99
Es	2.948096	0.853777	-0.204331	99
Es	-0.895264	-1.280095	0.349999	99
Es	1.698645	-0.772524	0.499696	99
Es	-0.699394	-1.819846	-0.123670	99
Es	2.011924	1.481738	-0.730201	99
Es	1.102940	2.390020	-0.667760	99
Es	1.783632	0.437811	-0.102836	99
Es	2.210648	-1.205850	0.365455	99
Es	2.236323	0.994866	-0.254685	99
44
Properties=species:S:1:pos:R:3:Z:I:1 energy=-307.9852310212809 field_type=dipole dipole="0.000000 0.000000 0.000000" charge=0
C	-2.401695	-1.088072	0.282031	6
C	-0.895245	-1.280172	0.350021	6
C	-0.150665	0.006508	-0.003629	6
C	1.356855	-0.166062	0.062761	6
O	1.896175	-1.228572	0.369651	8
C	2.236345	0.994948	-0.254709	6
C	1.808895	2.213888	-0.607479	6
H	-2.914695	-2.019122	0.542671	1
H	-2.714835	-0.798432	-0.726209	1
H	-2.730505	-0.311982	0.980511	1
H	-0.601535	-2.082982	-0.335499	1
H	-0.617945	-1.607232	1.359491	1
H	-0.439465	0.797548	0.697791	1
H	-0.419765	0.312988	-1.020849	1
H	3.299455	0.783598	-0.179389	1
H	0.760416	2.473478	-0.696549	1
H	2.528205	2.999668	-0.820619	1
Es	1.704081	-0.908623	0.014782	99
Es	1.808858	2.213982	-0.607509	99
Es	-2.622289	-0.553056	0.759869	99
Es	1.356859	-0.166022	0.062751	99
Es	2.003549	1.658356	-0.110589	99
Es	1.698706	-0.771067	0.500125	99
Es	1.703005	-1.479511	0.438527	99
Es	-0.330710	0.544713	0.467132	99
Es	-1.653895	-1.172340	0.312574	99
Es	-0.711331	-1.493324	1.039791	99
Es	2.012635	1.481367	-0.732437	99
Es	-2.611473	-0.886439	-0.409710	99
Es	-0.509698	-0.624808	0.169905	99
Es	2.947261	0.853255	-0.204110	99
Es	-2.401675	-1.088068	0.282031	99
Es	1.783783	0.438291	-0.102839	99
Es	0.603276	-0.072518	0.027495	99
Es	-2.750176	-1.724136	0.460012	99
Es	1.895990	-1.228322	0.369576	99
Es	2.285840	2.746748	-0.752102	99
Es	2.236323	0.994863	-0.254683	99
Es	1.103206	2.390731	-0.668110	99
Es	-0.699781	-1.820403	-0.123736	99
Es	2.197681	-1.190808	0.362227	99
Es	-0.150600	0.006509	-0.003628	99
Es	-0.895264	-1.280095	0.350000	99
Es	-0.317490	0.218850	-0.690110	99
44
Properties=species:S:1:pos:R:3:Z:I:1 energy=-307.9852310212809 field_type=dipole dipole="0.000000 0.000000 0.000000" charge=0
C	-2.401695	-1.088072	0.282031	6
C	-0.895245	-1.280172	0.350021	6
C	-0.150665	0.006508	-0.003629	6
C	1.356855	-0.166062	0.062761	6
O	1.896175	-1.228572	0.369651	8
C	2.236345	0.994948	-0.254709	6
C	1.808895	2.213888	-0.607479	6
H	-2.914695	-2.019122	0.542671	1
H	-2.714835	-0.798432	-0.726209	1
H	-2.730505	-0.311982	0.980511	1
H	-0.601535	-2.082982	-0.335499	1
H	-0.617945	-1.607232	1.359491	1
H	-0.439465	0.797548	0.697791	1
H	-0.419765	0.312988	-1.020849	1
H	3.299455	0.783598	-0.179389	1
H	0.760416	2.473478	-0.696549	1
H	2.528205	2.999668	-0.820619	1
Es	2.285433	2.744968	-0.751691	99
Es	2.136997	-1.141239	0.347510	99
Es	1.896011	-1.228320	0.369577	99
Es	-0.330983	0.544765	0.466535	99
Es	-2.750624	-1.724718	0.460207	99
Es	-2.622073	-0.553024	0.759330	99
Es	1.692359	-0.774463	0.501390	99
Es	1.783669	0.439041	-0.103194	99
Es	2.012873	1.481987	-0.732364	99
Es	1.697350	-0.912146	0.015031	99
Es	-2.401677	-1.088068	0.282030	99
Es	-0.895263	-1.280094	0.349999	99
Es	-0.699886	-1.819961	-0.123478	99
Es	-0.711103	-1.493742	1.039427	99
Es	2.003989	1.658040	-0.110340	99
Es	-0.509532	-0.625058	0.169892	99
Es	-0.150600	0.006508	-0.003629	99
Es	-2.611313	-0.886258	-0.409182	99
Es	-0.317521	0.218828	-0.689238	99
Es	1.356859	-0.166021	0.062752	99
Es	1.102331	2.392134	-0.668434	99
Es	2.947768	0.852605	-0.204190	99
Es	2.236323	0.994862	-0.254683	99
Es	-1.654016	-1.172338	0.312540	99
Es	0.603668	-0.071796	0.027109	99
Es	1.776776	-1.522350	0.451836	99
Es	1.808857	2.213983	-0.607510	99
44
Properties=species:S:1:pos:R:3:Z:I:1 energy=-307.9852310212809 field_type=dipole dipole="0.000000 0.000000 0.000000" charge=0
C	-2.401695	-1.088072	0.282031	6
C	-0.895245	-1.280172	0.350021	6
C	-0.150665	0.006508	-0.003629	6
C	1.356855	-0.166062	0.062761	6
O	1.896175	-1.228572	0.369651	8
C	2.236345	0.994948	-0.254709	6
C	1.808895	2.213888	-0.607479	6
H	-2.914695	-2.019122	0.542671	1
H	-2.714835	-0.798432	-0.726209	1
H	-2.730505	-0.311982	0.980511	1
H	-0.601535	-2.082982	-0.335499	1
H	-0.617945	-1.607232	1.359491	1
H	-0.439465	0.797548	0.697791	1
H	-0.419765	0.312988	-1.020849	1
H	3.299455	0.783598	-0.179389	1
H	0.760416	2.473478	-0.696549	1
H	2.528205	2.999668	-0.820619	1
Es	2.055026	-1.129546	0.344030	99
Es	1.698297	-0.912237	0.014232	99
Es	1.101752	2.392448	-0.668455	99
Es	2.285924	2.744612	-0.751438	99
Es	1.895890	-1.228306	0.369573	99
Es	-0.150602	0.006508	-0.003628	99
Es	-0.509619	-0.625158	0.170049	99
Es	-2.401676	-1.088069	0.282030	99
Es	2.003980	1.658522	-0.112546	99
Es	2.236323	0.994863	-0.254687	99
Es	0.604563	-0.071117	0.027018	99
Es	-0.317835	0.219390	-0.688099	99
Es	-2.751345	-1.725756	0.460569	99
Es	-0.711048	-1.493907	1.038490	99
Es	1.783142	0.439128	-0.103223	99
Es	2.948297	0.852760	-0.203899	99
Es	2.013028	1.481423	-0.730684	99
Es	-0.895263	-1.280094	0.350000	99
Es	1.691263	-0.774591	0.501984	99
Es	-2.611150	-0.885880	-0.408193	99
Es	1.808857	2.213985	-0.607505	99
Es	1.356859	-0.166024	0.062746	99
Es	1.858936	-1.533945	0.455507	99
Es	-0.699900	-1.819657	-0.122400	99
Es	-1.654443	-1.171943	0.312454	99
Es	-2.621851	-0.553342	0.758184	99
Es	-0.330732	0.544059	0.465122	99
44
Properties=species:S:1:pos:R:3:Z:I:1 energy=-307.9852310212809 field_type=dipole dipole="0.000000 0.000000 0.000000" charge=0
C	-2.401695	-1.088072	0.282031	6
C	-0.895245	-1.280172	0.350021	6
C	-0.150665	0.006508	-0.003629	6
C	1.356855	-0.166062	0.062761	6
O	1.896175	-1.228572	0.369651	8
C	2.236345	0.994948	-0.254709	6
C	1.808895	2.213888	-0.607479	6
H	-2.914695	-2.019122	0.542671	1
H	-2.714835	-0.798432	-0.726209	1
H	-2.730505	-0.311982	0.980511	1
H	-0.601535	-2.082982	-0.335499	1
H	-0.617945	-1.607232	1.359491	1
H	-0.439465	0.797548	0.697791	1
H	-0.419765	0.312988	-1.020849	1
H	3.299455	0.783598	-0.179389	1
H	0.760416	2.473478	-0.696549	1
H	2.528205	2.999668	-0.820619	1
Es	-0.711035	-1.494481	1.037662	99
Es	2.012991	1.482351	-0.729749	99
Es	-0.330877	0.543881	0.464008	99
Es	-0.700218	-1.819114	-0.121691	99
Es	-0.509435	-0.625177	0.170080	99
Es	1.782677	0.439238	-0.103159	99
Es	0.604776	-0.070051	0.026743	99
Es	1.908084	-1.529979	0.454920	99
Es	1.699848	-0.910928	0.014869	99
Es	2.001927	-1.136136	0.344757	99
Es	1.356859	-0.166023	0.062750	99
Es	2.004176	1.657730	-0.113329	99
Es	-2.610794	-0.885390	-0.407165	99
Es	-0.150601	0.006511	-0.003626	99
Es	1.101495	2.392525	-0.668478	99
Es	-1.654637	-1.172005	0.312430	99
Es	2.286295	2.744495	-0.751496	99
Es	1.694094	-0.773362	0.501265	99
Es	-0.895263	-1.280095	0.350000	99
Es	2.236324	0.994861	-0.254682	99
Es	-0.317666	0.219453	-0.686980	99
Es	2.948463	0.852788	-0.204094	99
Es	-2.621432	-0.553566	0.757357	99
Es	1.895333	-1.228315	0.369572	99
Es	-2.751894	-1.726999	0.460748	99
Es	1.808857	2.213983	-0.607508	99
Es	-2.401674	-1.088068	0.282030	99
44
Properties=species:S:1:pos:R:3:Z:I:1 energy=-307.9852310212809 field_type=dipole dipole="0.000000 0.000000 0.000000" charge=0
C	-2.401695	-1.088072	0.282031	6
C	-0.895245	-1.280172	0.350021	6
C	-0.150665	0.006508	-0.003629	6
C	1.356855	-0.166062	0.062761	6
O	1.896175	-1.228572	0.369651	8
C	2.236345	0.994948	-0.254709	6
C	1.808895	2.213888	-0.607479	6
H	-2.914695	-2.019122	0.542671	1
H	-2.714835	-0.798432	-0.726209	1
H	-2.730505	-0.311982	0.980511	1
H	-0.601535	-2.082982	-0.335499	1
H	-0.617945	-1.607232	1.359491	1
H	-0.439465	0.797548	0.697791	1
H	-0.419765	0.312988	-1.020849	1
H	3.299455	0.783598	-0.179389	1
H	0.760416	2.473478	-0.696549	1
H	2.528205	2.999668	-0.820619	1
Es	1.101359	2.392931	-0.668375	99
Es	1.356859	-0.166022	0.062753	99
Es	-1.655130	-1.171434	0.312396	99
Es	2.948508	0.852872	-0.204450	99
Es	1.782424	0.439209	-0.103431	99
Es	-2.751619	-1.728302	0.461008	99
Es	1.895203	-1.228285	0.369557	99
Es	-0.150601	0.006509	-0.003628	99
Es	2.286483	2.744183	-0.751267	99
Es	1.707837	-0.787632	0.498440	99
Es	-0.316625	0.218141	-0.685582	99
Es	1.960282	-1.147033	0.347052	99
Es	-0.711207	-1.494517	1.036988	99
Es	-2.621978	-0.552303	0.756321	99
Es	-0.331669	0.545293	0.462955	99
Es	2.012947	1.482272	-0.729076	99
Es	-2.401677	-1.088068	0.282030	99
Es	-0.895264	-1.280095	0.350001	99
Es	-0.509270	-0.625424	0.170196	99
Es	1.694225	-0.892213	0.018122	99
Es	2.236323	0.994862	-0.254683	99
Es	1.808857	2.213985	-0.607507	99
Es	0.604584	-0.069298	0.026340	99
Es	2.004235	1.657877	-0.113813	99
Es	-0.700265	-1.819142	-0.121302	99
Es	1.941662	-1.523658	0.452222	99
Es	-2.609810	-0.886581	-0.406033	99
44
Properties=species:S:1:pos:R:3:Z:I:1 energy=-307.9852310212809 field_type=dipole dipole="0.000000 0.000000 0.000000" charge=0
C	-2.401695	-1.088072	0.282031	6
C	-0.895245	-1.280172	0.350021	6
C	-0.150665	0.006508	-0.003629	6
C	1.356855	-0.166062	0.062761	6
O	1.896175	-1.228572	0.369651	8
C	2.236345	0.994948	-0.254709	6
C	1.808895	2.213888	-0.607479	6
H	-2.914695	-2.019122	0.542671	1
H	-2.714835	-0.798432	-0.726209	1
H	-2.730505	-0.311982	0.980511	1
H	-0.601535	-2.082982	-0.335499	1
H	-0.617945	-1.607232	1.359491	1
H	-0.439465	0.797548	0.697791	1
H	-0.419765	0.312988	-1.020849	1
H	3.299455	0.783598	-0.179389	1
H	0.760416	2.473478	-0.696549	1
H	2.528205	2.999668	-0.820619	1
Es	1.356859	-0.166023	0.062747	99
Es	-0.701908	-1.816026	-0.122045	99
Es	-2.611689	-0.882933	-0.407887	99
Es	-0.895263	-1.280095	0.350001	99
Es	2.004268	1.658595	-0.113112	99
Es	2.236322	0.994861	-0.254684	99
Es	-2.750234	-1.729051	0.461677	99
Es	1.678980	-0.746601	0.435001	99
Es	-0.319654	0.223471	-0.687656	99
Es	1.808857	2.213985	-0.607504	99
Es	2.286150	2.743353	-0.751336	99
Es	-0.709777	-1.497682	1.038322	99
Es	-2.619864	-0.555890	0.757537	99
Es	-0.150600	0.006509	-0.003628	99
Es	-0.328297	0.540107	0.464508	99
Es	1.782549	0.439614	-0.102921	99
Es	0.603383	-0.068890	0.026603	99
Es	1.895537	-1.228399	0.369597	99
Es	-0.509129	-0.625482	0.170065	99
Es	1.101611	2.393627	-0.669012	99
Es	-1.655548	-1.171257	0.312211	99
Es	2.013113	1.481545	-0.730168	99
Es	-2.401676	-1.088068	0.282030	99
Es	1.959555	-1.517552	0.455469	99
Es	2.948079	0.852814	-0.203799	99
Es	1.937668	-1.153681	0.348937	99
Es	1.727380	-0.932724	0.076282	99
44
Properties=species:S:1:pos:R:3:Z:I:1 energy=-307.9852310212809 field_type=dipole dipole="0.000000 0.000000 0.000000" charge=0
C	-2.401695	-1.088072	0.282031	6
C	-0.895245	-1.280172	0.350021	6
C	-0.150665	0.006508	-0.003629	6
C	1.356855	-0.166062	0.062761	6
O	1.896175	-1.228572	0.369651	8
C	2.236345	0.994948	-0.254709	6
C	1.808895	2.213888	-0.607479	6
H	-2.914695	-2.019122	0.542671	1
H	-2.714835	-0.798432	-0.726209	1
H	-2.730505	-0.311982	0.980511	1
H	-0.601535	-2.082982	-0.335499	1
H	-0.617945	-1.607232	1.359491	1
H	-0.439465	0.797548	0.697791	1
H	-0.419765	0.312988	-1.020849	1
H	3.299455	0.783598	-0.179389	1
H	0.760416	2.473478	-0.696549	1
H	2.528205	2.999668	-0.820619	1
Es	2.947873	0.852363	-0.204332	99
Es	-0.895262	-1.280095	0.350000	99
Es	-2.608972	-0.888043	-0.406479	99
Es	1.730408	-0.848952	0.416831	99
Es	0.602111	-0.068520	0.026024	99
Es	1.923947	-1.159619	0.350481	99
Es	-2.748538	-1.730193	0.461651	99
Es	1.808860	2.213986	-0.607509	99
Es	2.004319	1.658739	-0.111803	99
Es	-0.314888	0.215787	-0.685622	99
Es	-1.656134	-1.170740	0.312114	99
Es	-0.508785	-0.625612	0.170267	99
Es	1.895136	-1.227142	0.369234	99
Es	1.971058	-1.515871	0.448168	99
Es	2.236323	0.994860	-0.254689	99
Es	2.013124	1.481559	-0.731048	99
Es	-0.332899	0.548085	0.462924	99
Es	-0.712005	-1.493356	1.037599	99
Es	2.285714	2.742361	-0.750729	99
Es	1.782753	0.439833	-0.103808	99
Es	-2.622413	-0.550451	0.756682	99
Es	-0.150602	0.006508	-0.003628	99
Es	1.101770	2.394825	-0.668821	99
Es	1.678522	-0.827382	0.100827	99
Es	-0.699933	-1.820715	-0.121879	99
Es	1.356859	-0.166023	0.062750	99
Es	-2.401675	-1.088068	0.282030	99
44
Properties=species:S:1:pos:R:3:Z:I:1 energy=-307.9852310212809 field_type=dipole dipole="0.000000 0.000000 0.000000" charge=0
C	-2.401695	-1.088072	0.282031	6
C	-0.895245	-1.280172	0.350021	6
C	-0.150665	0.006508	-0.003629	6
C	1.356855	-0.166062	0.062761	6
O	1.896175	-1.228572	0.369651	8
C	2.236345	0.994948	-0.254709	6
C	1.808895	2.213888	-0.607479	6
H	-2.914695	-2.019122	0.542671	1
H	-2.714835	-0.798432	-0.726209	1
H	-2.730505	-0.311982	0.980511	1
H	-0.601535	-2.082982	-0.335499	1
H	-0.617945	-1.607232	1.359491	1
H	-0.439465	0.797548	0.697791	1
H	-0.419765	0.312988	-1.020849	1
H	3.299455	0.783598	-0.179389	1
H	0.760416	2.473478	-0.696549	1
H	2.528205	2.999668	-0.820619	1
Es	-2.401675	-1.088068	0.282030	99
Es	-0.150601	0.006509	-0.003629	99
Es	2.285392	2.741506	-0.750772	99
Es	-0.327637	0.539796	0.465510	99
Es	1.101953	2.395478	-0.669467	99
Es	1.737450	-0.922708	0.185291	99
Es	-0.701032	-1.818646	-0.122447	99
Es	2.236324	0.994862	-0.254687	99
Es	1.675605	-0.753560	0.326307	99
Es	2.004351	1.658601	-0.111097	99
Es	-0.711072	-1.495344	1.038826	99
Es	-0.319854	0.224156	-0.688613	99
Es	1.907272	-1.196504	0.360710	99
Es	1.981706	-1.510754	0.452691	99
Es	-2.746958	-1.730977	0.462184	99
Es	-0.508354	-0.625869	0.170092	99
Es	-0.895263	-1.280096	0.350002	99
Es	1.808861	2.213988	-0.607508	99
Es	2.947617	0.852234	-0.203806	99
Es	1.356859	-0.166023	0.062751	99
Es	0.600876	-0.068159	0.026344	99
Es	-2.610824	-0.884272	-0.408479	99
Es	-2.620273	-0.554170	0.758185	99
Es	1.782746	0.440355	-0.103343	99
Es	-1.657063	-1.170331	0.311863	99
Es	1.897008	-1.195588	0.360315	99
Es	2.013256	1.481711	-0.732018	99
44
Properties=species:S:1:pos:R:3:Z:I:1 energy=-307.9852310212809 field_type=dipole dipole="0.000000 0.000000 0.000000" charge=0
C	-2.401695	-1.088072	0.282031	6
C	-0.895245	-1.280172	0.350021	6
C	-0.150665	0.006508	-0.003629	6
C	1.356855	-0.166062	0.062761	6
O	1.896175	-1.228572	0.369651	8
C	2.236345	0.994948	-0.254709	6
C	1.808895	2.213888	-0.607479	6
H	-2.914695	-2.019122	0.542671	1
H	-2.714835	-0.798432	-0.726209	1
H	-2.730505	-0.311982	0.980511	1
H	-0.601535	-2.082982	-0.335499	1
H	-0.617945	-1.607232	1.359491	1
H	-0.439465	0.797548	0.697791	1
H	-0.419765	0.312988	-1.020849	1
H	3.299455	0.783598	-0.179389	1
H	0.760416	2.473478	-0.696549	1
H	2.528205	2.999668	-0.820619	1
Es	-0.330228	0.544233	0.465043	99
Es	2.285032	2.739607	-0.750075	99
Es	0.599653	-0.067502	0.025901	99
Es	-0.507617	-0.626272	0.170298	99
Es	-1.657890	-1.169910	0.311810	99
Es	-0.700145	-1.820580	-0.122261	99
Es	1.895525	-1.228327	0.369576	99
Es	-0.150600	0.006509	-0.003630	99
Es	2.236323	0.994861	-0.254686	99
Es	-2.620995	-0.552557	0.758067	99
Es	1.782650	0.441033	-0.103770	99
Es	1.102118	2.397448	-0.669757	99
Es	2.013266	1.481420	-0.732320	99
Es	1.672640	-0.779911	0.220918	99
Es	1.912407	-1.162367	0.351177	99
Es	-0.895263	-1.280096	0.350000	99
Es	2.004443	1.658937	-0.110814	99
Es	-2.401676	-1.088068	0.282030	99
Es	-0.317286	0.219801	-0.687965	99
Es	1.980194	-1.512022	0.450327	99
Es	1.738271	-0.896482	0.293498	99
Es	-2.609991	-0.885751	-0.408093	99
Es	2.947678	0.851441	-0.203833	99
Es	1.808857	2.213985	-0.607507	99
Es	-2.745623	-1.731769	0.462220	99
Es	-0.711930	-1.493508	1.038328	99
Es	1.356860	-0.166023	0.062749	99
44
Properties=species:S:1:pos:R:3:Z:I:1 energy=-307.9852310212809 field_type=dipole dipole="0.000000 0.000000 0.000000" charge=0
C	-2.401695	-1.088072	0.282031	6
C	-0.895245	-1.280172	0.350021	6
C	-0.150665	0.006508	-0.003629	6
C	1.356855	-0.166062	0.062761	6
O	1.896175	-1.228572	0.369651	8
C	2.236345	0.994948	-0.254709	6
C	1.808895	2.213888	-0.607479	6
H	-2.914695	-2.019122	0.542671	1
H	-2.714835	-0.798432	-0.726209	1
H	-2.730505	-0.311982	0.980511	1
H	-0.601535	-2.082982	-0.335499	1
H	-0.617945	-1.607232	1.359491	1
H	-0.439465	0.797548	0.697791	1
H	-0.419765	0.312988	-1.020849	1
H	3.299455	0.783598	-0.179389	1
H	0.760416	2.473478	-0.696549	1
H	2.528205	2.999668	-0.820619	1
Es	-2.623673	-0.547563	0.755422	99
Es	1.907325	-1.164438	0.351658	99
Es	1.782360	0.441408	-0.103927	99
Es	2.947811	0.851264	-0.203817	99
Es	-0.318502	0.221761	-0.688089	99
Es	2.013348	1.483062	-0.732342	99
Es	2.236323	0.994863	-0.254680	99
Es	1.102291	2.398950	-0.670232	99
Es	1.738617	-0.902370	0.273314	99
Es	-0.702691	-1.815243	-0.123060	99
Es	2.004395	1.657375	-0.110595	99
Es	1.356860	-0.166023	0.062751	99
Es	1.896612	-1.227751	0.369425	99
Es	-0.329031	0.542253	0.465250	99
Es	-0.507570	-0.626216	0.170408	99
Es	0.599566	-0.067254	0.025751	99
Es	-1.659126	-1.169266	0.311710	99
Es	1.673187	-0.773757	0.240772	99
Es	-0.150601	0.006509	-0.003629	99
Es	-0.709402	-1.498864	1.038967	99
Es	2.284691	2.738032	-0.749651	99
Es	-2.401674	-1.088067	0.282029	99
Es	-2.607249	-0.890746	-0.405478	99
Es	-2.744038	-1.732790	0.462515	99
Es	1.808857	2.213985	-0.607507	99
Es	1.983247	-1.510891	0.450267	99
Es	-0.895262	-1.280096	0.350000	99
44
Properties=species:S:1:pos:R:3:Z:I:1 energy=-307.9852310212809 field_type=dipole dipole="0.000000 0.000000 0.000000" charge=0
C	-2.401695	-1.088072	0.282031	6
C	-0.895245	-1.280172	0.350021	6
C	-0.150665	0.006508	-0.003629	6
C	1.356855	-0.166062	0.062761	6
O	1.896175	-1.228572	0.369651	8
C	2.236345	0.994948	-0.254709	6
C	1.808895	2.213888	-0.607479	6
H	-2.914695	-2.019122	0.542671	1
H	-2.714835	-0.798432	-0.726209	1
H	-2.730505	-0.311982	0.980511	1
H	-0.601535	-2.082982	-0.335499	1
H	-0.617945	-1.607232	1.359491	1
H	-0.439465	0.797548	0.697791	1
H	-0.419765	0.312988	-1.020849	1
H	3.299455	0.783598	-0.179389	1
H	0.760416	2.473478	-0.696549	1
H	2.528205	2.999668	-0.820619	1
Es	-2.401675	-1.088069	0.282030	99
Es	-0.507212	-0.626320	0.170306	99
Es	2.236323	0.994863	-0.254682	99
Es	-2.742829	-1.733309	0.462763	99
Es	1.102647	2.400364	-0.670478	99
Es	-2.626260	-0.542991	0.751412	99
Es	-0.323098	0.531899	0.464832	99
Es	1.673231	-0.773818	0.240546	99
Es	2.004635	1.659993	-0.111262	99
Es	1.356859	-0.166022	0.062752	99
Es	1.987212	-1.509459	0.449921	99
Es	2.947815	0.850694	-0.203762	99
Es	-2.604636	-0.895319	-0.401511	99
Es	1.808854	2.213984	-0.607507	99
Es	1.904508	-1.165293	0.351911	99
Es	0.598300	-0.066631	0.025621	99
Es	1.782261	0.442006	-0.103878	99
Es	-0.324324	0.232225	-0.687508	99
Es	-0.150601	0.006509	-0.003629	99
Es	1.895410	-1.228353	0.369577	99
Es	-1.659442	-1.169329	0.311662	99
Es	2.284312	2.736645	-0.749329	99
Es	-0.711049	-1.495377	1.038675	99
Es	1.738612	-0.902352	0.273409	99
Es	2.013109	1.480384	-0.731937	99
Es	-0.701027	-1.818702	-0.122701	99
Es	-0.895262	-1.280095	0.349999	99
44
Properties=species:S:1:pos:R:3:Z:I:1 energy=-307.9852310212809 field_type=dipole dipole="0.000000 0.000000 0.000000" charge=0
C	-2.401695	-1.088072	0.282031	6
C	-0.895245	-1.280172	0.350021	6
C	-0.150665	0.006508	-0.003629	6
C	1.356855	-0.166062	0.062761	6
O	1.896175	-1.228572	0.369651	8
C	2.236345	0.994948	-0.254709	6
C	1.808895	2.213888	-0.607479	6
H	-2.914695	-2.019122	0.542671	1
H	-2.714835	-0.798432	-0.726209	1
H	-2.730505	-0.311982	0.980511	1
H	-0.601535	-2.082982	-0.335499	1
H	-0.617945	-1.607232	1.359491	1
H	-0.439465	0.797548	0.697791	1
H	-0.419765	0.312988	-1.020849	1
H	3.299455	0.783598	-0.179389	1
H	0.760416	2.473478	-0.696549	1
H	2.528205	2.999668	-0.820619	1
Es	-0.895263	-1.280097	0.350000	99
Es	-0.506286	-0.626808	0.170390	99
Es	-1.660768	-1.168758	0.311512	99
Es	-0.150602	0.006509	-0.003629	99
Es	1.673532	-0.778020	0.225902	99
Es	1.808855	2.213986	-0.607508	99
Es	1.895016	-1.228035	0.369485	99
Es	2.236323	0.994862	-0.254685	99
Es	2.283697	2.734948	-0.748875	99
Es	-0.697409	-1.825752	-0.119621	99
Es	1.782204	0.442536	-0.104106	99
Es	2.013195	1.481700	-0.732712	99
Es	1.905575	-1.165399	0.351898	99
Es	-0.714654	-1.488292	1.035705	99
Es	1.738384	-0.898043	0.288345	99
Es	-2.626464	-0.542567	0.751024	99
Es	-2.741407	-1.733878	0.462995	99
Es	1.986448	-1.509797	0.449786	99
Es	-0.319610	0.525298	0.462466	99
Es	2.947795	0.850158	-0.203678	99
Es	-2.401676	-1.088067	0.282030	99
Es	-2.604337	-0.895735	-0.401228	99
Es	1.356860	-0.166023	0.062750	99
Es	0.597292	-0.066243	0.025417	99
Es	-0.327803	0.238858	-0.685116	99
Es	2.004651	1.658770	-0.110377	99
Es	1.103126	2.402015	-0.670940	99
