49
Properties=species:S:1:pos:R:3:Z:I:1 energy=-273.30492491242967 field_type=dipole dipole="0.000000 0.000000 0.000000" charge=0
C	-2.274348	-0.950476	-0.362985	6
C	-0.819548	-0.591466	-0.047715	6
C	0.096062	-1.744206	-0.461475	6
C	-0.449368	0.733874	-0.743635	6
C	0.968042	1.251604	-0.467315	6
C	1.217472	1.543454	0.984485	6
C	2.163432	0.943924	1.718325	6
H	-2.951717	-0.155516	-0.033075	1
H	-2.568258	-1.872136	0.150715	1
H	-2.423687	-1.099506	-1.437975	1
H	-0.740968	-0.463216	1.038425	1
H	0.093202	-1.883546	-1.547915	1
H	-0.229858	-2.682956	-0.000015	1
H	1.128032	-1.570066	-0.142785	1
H	-1.169808	1.506464	-0.442895	1
H	-0.563838	0.616284	-1.829255	1
H	1.110343	2.184734	-1.026185	1
H	1.709953	0.548164	-0.861765	1
H	0.587382	2.298534	1.450255	1
H	2.818053	0.187004	1.297715	1
H	2.299423	1.199044	2.765065	1
Es	-0.765076	-0.501662	0.694689	99
Es	-0.352682	-1.170210	-0.263694	99
Es	-0.819554	-0.591475	-0.047774	99
Es	-2.371849	-1.051590	-1.100347	99
Es	2.163506	0.943879	1.718382	99
Es	0.096057	-1.744197	-0.461473	99
Es	1.474550	0.766665	-0.728392	99
Es	-0.619726	0.072912	-0.396810	99
Es	-2.472360	-1.581995	-0.011348	99
Es	1.217382	1.543497	0.984408	99
Es	1.062168	1.889506	-0.839212	99
Es	-0.449327	0.733876	-0.743614	99
Es	1.090152	1.391457	0.267406	99
Es	0.269073	0.987212	-0.584482	99
Es	2.262402	1.111833	2.430445	99
Es	0.780776	2.057458	1.292904	99
Es	-2.736266	-0.403727	-0.137752	99
Es	-1.554827	-0.771497	-0.213879	99
Es	-0.942888	1.265420	-0.531058	99
Es	0.090809	-1.834905	-1.206674	99
Es	-2.274343	-0.950473	-0.362984	99
Es	-0.130953	-2.383655	-0.145648	99
Es	-0.525112	0.648124	-1.489092	99
Es	0.800994	-1.621876	-0.246176	99
Es	2.610771	0.428049	1.435975	99
Es	1.915986	1.469118	1.276683	99
Es	1.490109	1.004230	1.446724	99
Es	0.968016	1.251610	-0.467270	99
49
Properties=species:S:1:pos:R:3:Z:I:1 energy=-273.30492491242967 field_type=dipole dipole="0.000000 0.000000 0.000000" charge=0
C	-2.274348	-0.950476	-0.362985	6
C	-0.819548	-0.591466	-0.047715	6
C	0.096062	-1.744206	-0.461475	6
C	-0.449368	0.733874	-0.743635	6
C	0.968042	1.251604	-0.467315	6
C	1.217472	1.543454	0.984485	6
C	2.163432	0.943924	1.718325	6
H	-2.951717	-0.155516	-0.033075	1
H	-2.568258	-1.872136	0.150715	1
H	-2.423687	-1.099506	-1.437975	1
H	-0.740968	-0.463216	1.038425	1
H	0.093202	-1.883546	-1.547915	1
H	-0.229858	-2.682956	-0.000015	1
H	1.128032	-1.570066	-0.142785	1
H	-1.169808	1.506464	-0.442895	1
H	-0.563838	0.616284	-1.829255	1
H	1.110343	2.184734	-1.026185	1
H	1.709953	0.548164	-0.861765	1
H	0.587382	2.298534	1.450255	1
H	2.818053	0.187004	1.297715	1
H	2.299423	1.199044	2.765065	1
Es	1.090189	1.391867	0.267611	99
Es	-0.352899	-1.170389	-0.263494	99
Es	1.489759	1.003636	1.446993	99
Es	-0.525101	0.648007	-1.489276	99
Es	-0.942933	1.265371	-0.531007	99
Es	0.968014	1.251610	-0.467268	99
Es	0.090456	-1.835260	-1.206627	99
Es	1.474067	0.766552	-0.728507	99
Es	-0.765014	-0.501276	0.694797	99
Es	1.062052	1.889591	-0.839552	99
Es	-0.819554	-0.591474	-0.047770	99
Es	0.781540	2.057521	1.292585	99
Es	-1.554941	-0.771537	-0.213882	99
Es	-2.371923	-1.051614	-1.100602	99
Es	0.096057	-1.744198	-0.461474	99
Es	2.163509	0.943873	1.718387	99
Es	1.916262	1.469498	1.276574	99
Es	-0.130936	-2.382816	-0.146230	99
Es	-0.619700	0.072620	-0.396778	99
Es	-2.472375	-1.581699	-0.011536	99
Es	-2.736293	-0.403892	-0.137605	99
Es	0.801751	-1.622115	-0.245699	99
Es	0.269519	0.987469	-0.584325	99
Es	2.262151	1.111312	2.430654	99
Es	2.610412	0.428020	1.436164	99
Es	-2.274343	-0.950472	-0.362984	99
Es	-0.449326	0.733876	-0.743612	99
Es	1.217388	1.543504	0.984403	99
49
Properties=species:S:1:pos:R:3:Z:I:1 energy=-273.30492491242967 field_type=dipole dipole="0.000000 0.000000 0.000000" charge=0
C	-2.274348	-0.950476	-0.362985	6
C	-0.819548	-0.591466	-0.047715	6
C	0.096062	-1.744206	-0.461475	6
C	-0.449368	0.733874	-0.743635	6
C	0.968042	1.251604	-0.467315	6
C	1.217472	1.543454	0.984485	6
C	2.163432	0.943924	1.718325	6
H	-2.951717	-0.155516	-0.033075	1
H	-2.568258	-1.872136	0.150715	1
H	-2.423687	-1.099506	-1.437975	1
H	-0.740968	-0.463216	1.038425	1
H	0.093202	-1.883546	-1.547915	1
H	-0.229858	-2.682956	-0.000015	1
H	1.128032	-1.570066	-0.142785	1
H	-1.169808	1.506464	-0.442895	1
H	-0.563838	0.616284	-1.829255	1
H	1.110343	2.184734	-1.026185	1
H	1.709953	0.548164	-0.861765	1
H	0.587382	2.298534	1.450255	1
H	2.818053	0.187004	1.297715	1
H	2.299423	1.199044	2.765065	1
Es	0.090265	-1.835699	-1.206498	99
Es	-2.472410	-1.581201	-0.011710	99
Es	0.802428	-1.622438	-0.245145	99
Es	1.217387	1.543504	0.984406	99
Es	2.163510	0.943874	1.718386	99
Es	1.916695	1.470018	1.276420	99
Es	-2.372194	-1.051757	-1.100853	99
Es	0.968017	1.251607	-0.467270	99
Es	-0.525201	0.648013	-1.489370	99
Es	-0.131005	-2.381934	-0.146797	99
Es	-0.353048	-1.170453	-0.263520	99
Es	1.061802	1.889844	-0.839837	99
Es	-0.765025	-0.500961	0.694871	99
Es	2.261927	1.110858	2.430750	99
Es	0.781965	2.057471	1.292292	99
Es	-0.942830	1.265430	-0.530909	99
Es	0.270116	0.987502	-0.584328	99
Es	1.489498	1.003172	1.447173	99
Es	-0.449326	0.733876	-0.743616	99
Es	-0.819555	-0.591477	-0.047770	99
Es	-1.554818	-0.771624	-0.213930	99
Es	-2.274343	-0.950473	-0.362984	99
Es	1.473934	0.766367	-0.728464	99
Es	0.096055	-1.744198	-0.461472	99
Es	-2.736263	-0.404081	-0.137432	99
Es	-0.619793	0.072264	-0.396608	99
Es	1.089948	1.392171	0.267750	99
Es	2.610053	0.427910	1.436402	99
49
Properties=species:S:1:pos:R:3:Z:I:1 energy=-273.30492491242967 field_type=dipole dipole="0.000000 0.000000 0.000000" charge=0
C	-2.274348	-0.950476	-0.362985	6
C	-0.819548	-0.591466	-0.047715	6
C	0.096062	-1.744206	-0.461475	6
C	-0.449368	0.733874	-0.743635	6
C	0.968042	1.251604	-0.467315	6
C	1.217472	1.543454	0.984485	6
C	2.163432	0.943924	1.718325	6
H	-2.951717	-0.155516	-0.033075	1
H	-2.568258	-1.872136	0.150715	1
H	-2.423687	-1.099506	-1.437975	1
H	-0.740968	-0.463216	1.038425	1
H	0.093202	-1.883546	-1.547915	1
H	-0.229858	-2.682956	-0.000015	1
H	1.128032	-1.570066	-0.142785	1
H	-1.169808	1.506464	-0.442895	1
H	-0.563838	0.616284	-1.829255	1
H	1.110343	2.184734	-1.026185	1
H	1.709953	0.548164	-0.861765	1
H	0.587382	2.298534	1.450255	1
H	2.818053	0.187004	1.297715	1
H	2.299423	1.199044	2.765065	1
Es	1.217384	1.543501	0.984405	99
Es	0.096058	-1.744199	-0.461474	99
Es	-2.372264	-1.051771	-1.101003	99
Es	-0.353208	-1.170473	-0.263551	99
Es	2.261792	1.110417	2.430839	99
Es	-0.131167	-2.380939	-0.147427	99
Es	0.089975	-1.836144	-1.206268	99
Es	1.489296	1.002873	1.447328	99
Es	-0.449327	0.733877	-0.743615	99
Es	-2.736279	-0.404189	-0.137343	99
Es	-2.472501	-1.580904	-0.011935	99
Es	1.089778	1.392490	0.267811	99
Es	-0.525100	0.647986	-1.489336	99
Es	0.968016	1.251609	-0.467272	99
Es	-0.619747	0.071981	-0.396565	99
Es	-1.554883	-0.771622	-0.213866	99
Es	2.609653	0.427773	1.436546	99
Es	-0.819554	-0.591475	-0.047772	99
Es	0.803202	-1.622971	-0.244639	99
Es	-0.764967	-0.500764	0.694827	99
Es	1.473596	0.766221	-0.728413	99
Es	2.163514	0.943872	1.718386	99
Es	-0.942978	1.265487	-0.530898	99
Es	0.782495	2.057376	1.292163	99
Es	-2.274343	-0.950471	-0.362983	99
Es	1.917072	1.470424	1.276282	99
Es	0.270624	0.987552	-0.584075	99
Es	1.061651	1.890066	-0.840213	99
49
Properties=species:S:1:pos:R:3:Z:I:1 energy=-273.30492491242967 field_type=dipole dipole="0.000000 0.000000 0.000000" charge=0
C	-2.274348	-0.950476	-0.362985	6
C	-0.819548	-0.591466	-0.047715	6
C	0.096062	-1.744206	-0.461475	6
C	-0.449368	0.733874	-0.743635	6
C	0.968042	1.251604	-0.467315	6
C	1.217472	1.543454	0.984485	6
C	2.163432	0.943924	1.718325	6
H	-2.951717	-0.155516	-0.033075	1
H	-2.568258	-1.872136	0.150715	1
H	-2.423687	-1.099506	-1.437975	1
H	-0.740968	-0.463216	1.038425	1
H	0.093202	-1.883546	-1.547915	1
H	-0.229858	-2.682956	-0.000015	1
H	1.128032	-1.570066	-0.142785	1
H	-1.169808	1.506464	-0.442895	1
H	-0.563838	0.616284	-1.829255	1
H	1.110343	2.184734	-1.026185	1
H	1.709953	0.548164	-0.861765	1
H	0.587382	2.298534	1.450255	1
H	2.818053	0.187004	1.297715	1
H	2.299423	1.199044	2.765065	1
Es	1.089655	1.392558	0.267899	99
Es	-0.765014	-0.500642	0.694728	99
Es	-2.472702	-1.580610	-0.012176	99
Es	-2.736273	-0.404214	-0.137338	99
Es	1.473315	0.766178	-0.728454	99
Es	2.163510	0.943873	1.718388	99
Es	1.917248	1.470728	1.276114	99
Es	0.782935	2.057335	1.292017	99
Es	2.261675	1.110025	2.430969	99
Es	1.061259	1.890510	-0.840589	99
Es	-2.372275	-1.051789	-1.101073	99
Es	-0.819555	-0.591475	-0.047770	99
Es	0.096058	-1.744197	-0.461473	99
Es	-0.943040	1.265514	-0.530967	99
Es	1.489191	1.002542	1.447509	99
Es	0.089989	-1.836304	-1.205987	99
Es	-0.353361	-1.170470	-0.263553	99
Es	0.968016	1.251611	-0.467270	99
Es	0.803887	-1.623736	-0.243796	99
Es	1.217388	1.543504	0.984403	99
Es	-0.131475	-2.379993	-0.148439	99
Es	-0.524993	0.647932	-1.489380	99
Es	-2.274343	-0.950472	-0.362984	99
Es	0.271359	0.987493	-0.583682	99
Es	2.609306	0.427720	1.436643	99
Es	-0.619779	0.071839	-0.396373	99
Es	-0.449330	0.733876	-0.743615	99
Es	-1.554863	-0.771749	-0.213816	99
49
Properties=species:S:1:pos:R:3:Z:I:1 energy=-273.30492491242967 field_type=dipole dipole="0.000000 0.000000 0.000000" charge=0
C	-2.274348	-0.950476	-0.362985	6
C	-0.819548	-0.591466	-0.047715	6
C	0.096062	-1.744206	-0.461475	6
C	-0.449368	0.733874	-0.743635	6
C	0.968042	1.251604	-0.467315	6
C	1.217472	1.543454	0.984485	6
C	2.163432	0.943924	1.718325	6
H	-2.951717	-0.155516	-0.033075	1
H	-2.568258	-1.872136	0.150715	1
H	-2.423687	-1.099506	-1.437975	1
H	-0.740968	-0.463216	1.038425	1
H	0.093202	-1.883546	-1.547915	1
H	-0.229858	-2.682956	-0.000015	1
H	1.128032	-1.570066	-0.142785	1
H	-1.169808	1.506464	-0.442895	1
H	-0.563838	0.616284	-1.829255	1
H	1.110343	2.184734	-1.026185	1
H	1.709953	0.548164	-0.861765	1
H	0.587382	2.298534	1.450255	1
H	2.818053	0.187004	1.297715	1
H	2.299423	1.199044	2.765065	1
Es	0.272099	0.987434	-0.583458	99
Es	-2.472844	-1.580354	-0.012434	99
Es	-0.619594	0.071332	-0.396097	99
Es	1.917624	1.471129	1.276060	99
Es	-0.943017	1.265587	-0.530891	99
Es	1.089405	1.392765	0.267936	99
Es	1.488921	1.002269	1.447630	99
Es	2.163511	0.943872	1.718389	99
Es	0.089957	-1.836741	-1.205639	99
Es	2.608994	0.427661	1.436771	99
Es	1.217385	1.543497	0.984405	99
Es	-0.131786	-2.378727	-0.149369	99
Es	1.473035	0.766057	-0.728421	99
Es	-0.353524	-1.170351	-0.263671	99
Es	0.804590	-1.624687	-0.242934	99
Es	0.096056	-1.744195	-0.461472	99
Es	-0.765032	-0.500431	0.694639	99
Es	2.261579	1.109635	2.430992	99
Es	-2.372378	-1.051736	-1.101144	99
Es	-0.449328	0.733876	-0.743615	99
Es	-0.819554	-0.591474	-0.047773	99
Es	0.968015	1.251609	-0.467271	99
Es	0.783411	2.057165	1.291912	99
Es	-2.736256	-0.404321	-0.137262	99
Es	1.060826	1.890870	-0.841087	99
Es	-1.554935	-0.771690	-0.213927	99
Es	-2.274342	-0.950472	-0.362984	99
Es	-0.525028	0.648005	-1.489348	99
49
Properties=species:S:1:pos:R:3:Z:I:1 energy=-273.30492491242967 field_type=dipole dipole="0.000000 0.000000 0.000000" charge=0
C	-2.274348	-0.950476	-0.362985	6
C	-0.819548	-0.591466	-0.047715	6
C	0.096062	-1.744206	-0.461475	6
C	-0.449368	0.733874	-0.743635	6
C	0.968042	1.251604	-0.467315	6
C	1.217472	1.543454	0.984485	6
C	2.163432	0.943924	1.718325	6
H	-2.951717	-0.155516	-0.033075	1
H	-2.568258	-1.872136	0.150715	1
H	-2.423687	-1.099506	-1.437975	1
H	-0.740968	-0.463216	1.038425	1
H	0.093202	-1.883546	-1.547915	1
H	-0.229858	-2.682956	-0.000015	1
H	1.128032	-1.570066	-0.142785	1
H	-1.169808	1.506464	-0.442895	1
H	-0.563838	0.616284	-1.829255	1
H	1.110343	2.184734	-1.026185	1
H	1.709953	0.548164	-0.861765	1
H	0.587382	2.298534	1.450255	1
H	2.818053	0.187004	1.297715	1
H	2.299423	1.199044	2.765065	1
Es	-2.736155	-0.404389	-0.137233	99
Es	-0.449328	0.733877	-0.743615	99
Es	2.608761	0.427568	1.436879	99
Es	1.917968	1.471355	1.275960	99
Es	-0.524958	0.647984	-1.489248	99
Es	0.089929	-1.837094	-1.205246	99
Es	-0.943081	1.265698	-0.530940	99
Es	1.488680	1.001966	1.447640	99
Es	-1.554830	-0.771772	-0.213821	99
Es	1.060029	1.891275	-0.841827	99
Es	-2.274343	-0.950472	-0.362984	99
Es	-2.372484	-1.051646	-1.101194	99
Es	2.163510	0.943870	1.718389	99
Es	-0.132092	-2.377353	-0.150429	99
Es	0.968016	1.251610	-0.467271	99
Es	1.089268	1.393107	0.268050	99
Es	-0.353696	-1.170341	-0.263769	99
Es	-0.819554	-0.591476	-0.047772	99
Es	-0.765071	-0.500212	0.694501	99
Es	0.096058	-1.744199	-0.461472	99
Es	2.261445	1.109357	2.431032	99
Es	0.805261	-1.625810	-0.241982	99
Es	1.472628	0.766069	-0.728487	99
Es	0.783993	2.056969	1.291915	99
Es	0.273102	0.987191	-0.582836	99
Es	-2.473137	-1.580041	-0.012737	99
Es	1.217388	1.543504	0.984404	99
Es	-0.619516	0.070990	-0.395968	99
49
Properties=species:S:1:pos:R:3:Z:I:1 energy=-273.30492491242967 field_type=dipole dipole="0.000000 0.000000 0.000000" charge=0
C	-2.274348	-0.950476	-0.362985	6
C	-0.819548	-0.591466	-0.047715	6
C	0.096062	-1.744206	-0.461475	6
C	-0.449368	0.733874	-0.743635	6
C	0.968042	1.251604	-0.467315	6
C	1.217472	1.543454	0.984485	6
C	2.163432	0.943924	1.718325	6
H	-2.951717	-0.155516	-0.033075	1
H	-2.568258	-1.872136	0.150715	1
H	-2.423687	-1.099506	-1.437975	1
H	-0.740968	-0.463216	1.038425	1
H	0.093202	-1.883546	-1.547915	1
H	-0.229858	-2.682956	-0.000015	1
H	1.128032	-1.570066	-0.142785	1
H	-1.169808	1.506464	-0.442895	1
H	-0.563838	0.616284	-1.829255	1
H	1.110343	2.184734	-1.026185	1
H	1.709953	0.548164	-0.861765	1
H	0.587382	2.298534	1.450255	1
H	2.818053	0.187004	1.297715	1
H	2.299423	1.199044	2.765065	1
Es	-0.765263	-0.499879	0.694032	99
Es	-0.449328	0.733877	-0.743616	99
Es	-0.943097	1.265703	-0.531049	99
Es	0.089989	-1.837369	-1.204752	99
Es	1.488648	1.001849	1.447924	99
Es	-0.524934	0.648015	-1.489154	99
Es	-2.473379	-1.579698	-0.013059	99
Es	0.968015	1.251611	-0.467270	99
Es	0.805834	-1.626864	-0.241028	99
Es	-2.372642	-1.051513	-1.101320	99
Es	-2.736016	-0.404519	-0.137118	99
Es	-0.619330	0.070488	-0.395584	99
Es	0.096059	-1.744199	-0.461473	99
Es	-2.274341	-0.950472	-0.362984	99
Es	1.918184	1.471682	1.275695	99
Es	0.784591	2.056754	1.291887	99
Es	0.274333	0.987065	-0.582192	99
Es	-0.132357	-2.376083	-0.151474	99
Es	2.608232	0.427569	1.436911	99
Es	1.472261	0.766054	-0.728494	99
Es	1.088978	1.393211	0.268039	99
Es	-0.819554	-0.591475	-0.047771	99
Es	-1.554951	-0.771689	-0.213819	99
Es	-0.353700	-1.170543	-0.263753	99
Es	1.217390	1.543505	0.984401	99
Es	2.163511	0.943871	1.718389	99
Es	1.059130	1.891729	-0.842602	99
Es	2.261527	1.108904	2.431168	99
49
Properties=species:S:1:pos:R:3:Z:I:1 energy=-273.30492491242967 field_type=dipole dipole="0.000000 0.000000 0.000000" charge=0
C	-2.274348	-0.950476	-0.362985	6
C	-0.819548	-0.591466	-0.047715	6
C	0.096062	-1.744206	-0.461475	6
C	-0.449368	0.733874	-0.743635	6
C	0.968042	1.251604	-0.467315	6
C	1.217472	1.543454	0.984485	6
C	2.163432	0.943924	1.718325	6
H	-2.951717	-0.155516	-0.033075	1
H	-2.568258	-1.872136	0.150715	1
H	-2.423687	-1.099506	-1.437975	1
H	-0.740968	-0.463216	1.038425	1
H	0.093202	-1.883546	-1.547915	1
H	-0.229858	-2.682956	-0.000015	1
H	1.128032	-1.570066	-0.142785	1
H	-1.169808	1.506464	-0.442895	1
H	-0.563838	0.616284	-1.829255	1
H	1.110343	2.184734	-1.026185	1
H	1.709953	0.548164	-0.861765	1
H	0.587382	2.298534	1.450255	1
H	2.818053	0.187004	1.297715	1
H	2.299423	1.199044	2.765065	1
Es	-0.619210	0.070341	-0.395298	99
Es	-2.372851	-1.051361	-1.101443	99
Es	0.275409	0.986929	-0.581522	99
Es	-0.819554	-0.591476	-0.047771	99
Es	1.488552	1.001517	1.448120	99
Es	-0.943386	1.265886	-0.531364	99
Es	1.058111	1.892214	-0.843331	99
Es	0.096058	-1.744198	-0.461472	99
Es	-2.735749	-0.404675	-0.137089	99
Es	0.806356	-1.628614	-0.239682	99
Es	-0.449327	0.733877	-0.743617	99
Es	-0.353898	-1.170207	-0.264037	99
Es	-2.274343	-0.950472	-0.362985	99
Es	0.968016	1.251611	-0.467269	99
Es	1.088654	1.393522	0.267814	99
Es	2.608032	0.427715	1.436948	99
Es	2.261520	1.108583	2.431238	99
Es	2.163506	0.943865	1.718390	99
Es	-0.765281	-0.499952	0.693933	99
Es	-2.473728	-1.579341	-0.013299	99
Es	1.217389	1.543507	0.984405	99
Es	-1.554786	-0.772028	-0.213695	99
Es	0.090134	-1.837561	-1.204214	99
Es	-0.524608	0.647832	-1.488894	99
Es	1.472050	0.766064	-0.728437	99
Es	0.785250	2.056449	1.291903	99
Es	-0.132685	-2.374314	-0.152974	99
Es	1.918160	1.471874	1.275575	99
49
Properties=species:S:1:pos:R:3:Z:I:1 energy=-273.30492491242967 field_type=dipole dipole="0.000000 0.000000 0.000000" charge=0
C	-2.274348	-0.950476	-0.362985	6
C	-0.819548	-0.591466	-0.047715	6
C	0.096062	-1.744206	-0.461475	6
C	-0.449368	0.733874	-0.743635	6
C	0.968042	1.251604	-0.467315	6
C	1.217472	1.543454	0.984485	6
C	2.163432	0.943924	1.718325	6
H	-2.951717	-0.155516	-0.033075	1
H	-2.568258	-1.872136	0.150715	1
H	-2.423687	-1.099506	-1.437975	1
H	-0.740968	-0.463216	1.038425	1
H	0.093202	-1.883546	-1.547915	1
H	-0.229858	-2.682956	-0.000015	1
H	1.128032	-1.570066	-0.142785	1
H	-1.169808	1.506464	-0.442895	1
H	-0.563838	0.616284	-1.829255	1
H	1.110343	2.184734	-1.026185	1
H	1.709953	0.548164	-0.861765	1
H	0.587382	2.298534	1.450255	1
H	2.818053	0.187004	1.297715	1
H	2.299423	1.199044	2.765065	1
Es	-0.449329	0.733878	-0.743617	99
Es	-0.819553	-0.591475	-0.047773	99
Es	-0.132892	-2.372514	-0.154305	99
Es	1.918382	1.472241	1.275521	99
Es	-0.524540	0.647869	-1.488710	99
Es	2.607708	0.427720	1.436934	99
Es	2.261548	1.108213	2.431299	99
Es	0.096057	-1.744199	-0.461471	99
Es	1.217391	1.543506	0.984402	99
Es	1.088292	1.393933	0.267814	99
Es	1.056838	1.892573	-0.844213	99
Es	1.488443	1.001309	1.448225	99
Es	-0.619003	0.069875	-0.395050	99
Es	-1.554878	-0.771765	-0.213758	99
Es	0.785879	2.055933	1.291946	99
Es	-2.372872	-1.051152	-1.101414	99
Es	-0.354184	-1.170147	-0.264260	99
Es	0.276974	0.986660	-0.580777	99
Es	-2.473975	-1.579234	-0.013585	99
Es	0.806717	-1.630333	-0.238415	99
Es	2.163510	0.943870	1.718389	99
Es	-2.735687	-0.404793	-0.137122	99
Es	0.090323	-1.837873	-1.203567	99
Es	0.968017	1.251610	-0.467271	99
Es	-0.765377	-0.499792	0.693651	99
Es	-0.943368	1.266022	-0.531507	99
Es	-2.274343	-0.950472	-0.362984	99
Es	1.471711	0.766121	-0.728445	99
49
Properties=species:S:1:pos:R:3:Z:I:1 energy=-273.30492491242967 field_type=dipole dipole="0.000000 0.000000 0.000000" charge=0
C	-2.274348	-0.950476	-0.362985	6
C	-0.819548	-0.591466	-0.047715	6
C	0.096062	-1.744206	-0.461475	6
C	-0.449368	0.733874	-0.743635	6
C	0.968042	1.251604	-0.467315	6
C	1.217472	1.543454	0.984485	6
C	2.163432	0.943924	1.718325	6
H	-2.951717	-0.155516	-0.033075	1
H	-2.568258	-1.872136	0.150715	1
H	-2.423687	-1.099506	-1.437975	1
H	-0.740968	-0.463216	1.038425	1
H	0.093202	-1.883546	-1.547915	1
H	-0.229858	-2.682956	-0.000015	1
H	1.128032	-1.570066	-0.142785	1
H	-1.169808	1.506464	-0.442895	1
H	-0.563838	0.616284	-1.829255	1
H	1.110343	2.184734	-1.026185	1
H	1.709953	0.548164	-0.861765	1
H	0.587382	2.298534	1.450255	1
H	2.818053	0.187004	1.297715	1
H	2.299423	1.199044	2.765065	1
Es	-0.618986	0.069585	-0.394863	99
Es	-0.524605	0.647914	-1.488565	99
Es	-1.554657	-0.772024	-0.213598	99
Es	-2.274345	-0.950474	-0.362984	99
Es	0.096059	-1.744199	-0.461476	99
Es	-0.943319	1.266002	-0.531629	99
Es	0.090604	-1.838354	-1.202638	99
Es	1.471565	0.766172	-0.728308	99
Es	2.163509	0.943868	1.718388	99
Es	-2.373051	-1.050955	-1.101444	99
Es	-0.765564	-0.499576	0.693379	99
Es	-2.735469	-0.404935	-0.137104	99
Es	0.968017	1.251610	-0.467271	99
Es	-2.474315	-1.578909	-0.013898	99
Es	0.278591	0.986524	-0.580097	99
Es	2.607404	0.427835	1.436965	99
Es	1.217391	1.543508	0.984404	99
Es	-0.132923	-2.370775	-0.155484	99
Es	-0.354444	-1.169941	-0.264784	99
Es	1.055411	1.892894	-0.845110	99
Es	1.488011	1.001062	1.448130	99
Es	2.261633	1.107942	2.431394	99
Es	1.087701	1.394471	0.267613	99
Es	1.918820	1.472432	1.275600	99
Es	-0.449328	0.733877	-0.743616	99
Es	0.786658	2.055407	1.292005	99
Es	-0.819554	-0.591477	-0.047771	99
Es	0.806972	-1.631901	-0.237302	99
49
Properties=species:S:1:pos:R:3:Z:I:1 energy=-273.30492491242967 field_type=dipole dipole="0.000000 0.000000 0.000000" charge=0
C	-2.274348	-0.950476	-0.362985	6
C	-0.819548	-0.591466	-0.047715	6
C	0.096062	-1.744206	-0.461475	6
C	-0.449368	0.733874	-0.743635	6
C	0.968042	1.251604	-0.467315	6
C	1.217472	1.543454	0.984485	6
C	2.163432	0.943924	1.718325	6
H	-2.951717	-0.155516	-0.033075	1
H	-2.568258	-1.872136	0.150715	1
H	-2.423687	-1.099506	-1.437975	1
H	-0.740968	-0.463216	1.038425	1
H	0.093202	-1.883546	-1.547915	1
H	-0.229858	-2.682956	-0.000015	1
H	1.128032	-1.570066	-0.142785	1
H	-1.169808	1.506464	-0.442895	1
H	-0.563838	0.616284	-1.829255	1
H	1.110343	2.184734	-1.026185	1
H	1.709953	0.548164	-0.861765	1
H	0.587382	2.298534	1.450255	1
H	2.818053	0.187004	1.297715	1
H	2.299423	1.199044	2.765065	1
Es	-0.618645	0.069102	-0.394649	99
Es	-0.765887	-0.499436	0.692882	99
Es	0.968016	1.251610	-0.467270	99
Es	2.163510	0.943869	1.718388	99
Es	-0.819554	-0.591476	-0.047772	99
Es	0.280202	0.986544	-0.579421	99
Es	1.487989	1.000876	1.448291	99
Es	-0.449327	0.733877	-0.743615	99
Es	-0.524644	0.648156	-1.488496	99
Es	0.806954	-1.633709	-0.235899	99
Es	1.471094	0.766408	-0.728342	99
Es	1.918905	1.472623	1.275399	99
Es	2.607143	0.427935	1.436992	99
Es	-0.943348	1.265862	-0.531549	99
Es	0.096053	-1.744205	-0.461466	99
Es	1.087241	1.394699	0.267675	99
Es	2.261695	1.107656	2.431442	99
Es	-2.274342	-0.950471	-0.362985	99
Es	-0.132966	-2.369122	-0.156963	99
Es	-1.554744	-0.771961	-0.213696	99
Es	-2.735334	-0.405034	-0.137167	99
Es	-0.354611	-1.169832	-0.265109	99
Es	0.787439	2.054879	1.292090	99
Es	1.217389	1.543503	0.984404	99
Es	-2.373087	-1.050826	-1.101474	99
Es	-2.474598	-1.578677	-0.014127	99
Es	1.054092	1.893169	-0.845921	99
Es	0.091152	-1.838436	-1.201706	99
49
Properties=species:S:1:pos:R:3:Z:I:1 energy=-273.30492491242967 field_type=dipole dipole="0.000000 0.000000 0.000000" charge=0
C	-2.274348	-0.950476	-0.362985	6
C	-0.819548	-0.591466	-0.047715	6
C	0.096062	-1.744206	-0.461475	6
C	-0.449368	0.733874	-0.743635	6
C	0.968042	1.251604	-0.467315	6
C	1.217472	1.543454	0.984485	6
C	2.163432	0.943924	1.718325	6
H	-2.951717	-0.155516	-0.033075	1
H	-2.568258	-1.872136	0.150715	1
H	-2.423687	-1.099506	-1.437975	1
H	-0.740968	-0.463216	1.038425	1
H	0.093202	-1.883546	-1.547915	1
H	-0.229858	-2.682956	-0.000015	1
H	1.128032	-1.570066	-0.142785	1
H	-1.169808	1.506464	-0.442895	1
H	-0.563838	0.616284	-1.829255	1
H	1.110343	2.184734	-1.026185	1
H	1.709953	0.548164	-0.861765	1
H	0.587382	2.298534	1.450255	1
H	2.818053	0.187004	1.297715	1
H	2.299423	1.199044	2.765065	1
Es	-0.132920	-2.367461	-0.157968	99
Es	-0.354240	-1.169926	-0.264879	99
Es	0.096057	-1.744197	-0.461473	99
Es	-0.618818	0.069194	-0.394483	99
Es	0.281989	0.986436	-0.578515	99
Es	1.052394	1.893298	-0.846775	99
Es	-1.554514	-0.772494	-0.213295	99
Es	1.087457	1.394736	0.267878	99
Es	-0.449328	0.733878	-0.743616	99
Es	-0.819553	-0.591476	-0.047771	99
Es	-2.474927	-1.578302	-0.014611	99
Es	2.606743	0.428083	1.436894	99
Es	-0.524210	0.647721	-1.487965	99
Es	0.968016	1.251610	-0.467270	99
Es	-2.373389	-1.050405	-1.101646	99
Es	1.919437	1.472926	1.275596	99
Es	-2.274343	-0.950472	-0.362985	99
Es	1.217388	1.543499	0.984402	99
Es	2.163510	0.943870	1.718389	99
Es	-0.766352	-0.499077	0.692111	99
Es	0.091204	-1.838660	-1.201073	99
Es	0.806991	-1.635369	-0.234968	99
Es	0.788027	2.054273	1.292148	99
Es	-2.734992	-0.405317	-0.136927	99
Es	2.261916	1.107246	2.431525	99
Es	1.487620	1.000770	1.448102	99
Es	-0.943664	1.266307	-0.532207	99
Es	1.470291	0.766894	-0.728684	99
49
Properties=species:S:1:pos:R:3:Z:I:1 energy=-273.30492491242967 field_type=dipole dipole="0.000000 0.000000 0.000000" charge=0
C	-2.274348	-0.950476	-0.362985	6
C	-0.819548	-0.591466	-0.047715	6
C	0.096062	-1.744206	-0.461475	6
C	-0.449368	0.733874	-0.743635	6
C	0.968042	1.251604	-0.467315	6
C	1.217472	1.543454	0.984485	6
C	2.163432	0.943924	1.718325	6
H	-2.951717	-0.155516	-0.033075	1
H	-2.568258	-1.872136	0.150715	1
H	-2.423687	-1.099506	-1.437975	1
H	-0.740968	-0.463216	1.038425	1
H	0.093202	-1.883546	-1.547915	1
H	-0.229858	-2.682956	-0.000015	1
H	1.128032	-1.570066	-0.142785	1
H	-1.169808	1.506464	-0.442895	1
H	-0.563838	0.616284	-1.829255	1
H	1.110343	2.184734	-1.026185	1
H	1.709953	0.548164	-0.861765	1
H	0.587382	2.298534	1.450255	1
H	2.818053	0.187004	1.297715	1
H	2.299423	1.199044	2.765065	1
Es	2.606420	0.428266	1.436796	99
Es	0.091909	-1.839310	-1.199165	99
Es	0.283157	0.986551	-0.578144	99
Es	0.789268	2.053368	1.292178	99
Es	1.470583	0.766671	-0.728409	99
Es	2.262136	1.106985	2.431674	99
Es	-0.355568	-1.168807	-0.267523	99
Es	-2.474944	-1.578358	-0.014621	99
Es	-0.944042	1.266536	-0.532754	99
Es	-2.274342	-0.950471	-0.362985	99
Es	-2.373607	-1.050180	-1.101722	99
Es	-0.819554	-0.591477	-0.047772	99
Es	-1.554671	-0.772061	-0.213801	99
Es	1.085987	1.395952	0.267576	99
Es	0.968015	1.251612	-0.467269	99
Es	2.163503	0.943865	1.718391	99
Es	-2.734807	-0.405524	-0.136814	99
Es	1.051393	1.893343	-0.847245	99
Es	1.217390	1.543505	0.984404	99
Es	-0.618639	0.068938	-0.393840	99
Es	-0.449328	0.733878	-0.743616	99
Es	0.096058	-1.744198	-0.461473	99
Es	-0.523784	0.647467	-1.487487	99
Es	-0.132708	-2.365904	-0.158983	99
Es	1.487906	1.000618	1.448543	99
Es	0.806918	-1.636835	-0.234009	99
Es	1.919014	1.472944	1.275218	99
Es	-0.765875	-0.499789	0.692789	99
49
Properties=species:S:1:pos:R:3:Z:I:1 energy=-273.30492491242967 field_type=dipole dipole="0.000000 0.000000 0.000000" charge=0
C	-2.274348	-0.950476	-0.362985	6
C	-0.819548	-0.591466	-0.047715	6
C	0.096062	-1.744206	-0.461475	6
C	-0.449368	0.733874	-0.743635	6
C	0.968042	1.251604	-0.467315	6
C	1.217472	1.543454	0.984485	6
C	2.163432	0.943924	1.718325	6
H	-2.951717	-0.155516	-0.033075	1
H	-2.568258	-1.872136	0.150715	1
H	-2.423687	-1.099506	-1.437975	1
H	-0.740968	-0.463216	1.038425	1
H	0.093202	-1.883546	-1.547915	1
H	-0.229858	-2.682956	-0.000015	1
H	1.128032	-1.570066	-0.142785	1
H	-1.169808	1.506464	-0.442895	1
H	-0.563838	0.616284	-1.829255	1
H	1.110343	2.184734	-1.026185	1
H	1.709953	0.548164	-0.861765	1
H	0.587382	2.298534	1.450255	1
H	2.818053	0.187004	1.297715	1
H	2.299423	1.199044	2.765065	1
Es	-0.355238	-1.169261	-0.267122	99
Es	0.096058	-1.744198	-0.461470	99
Es	-0.943859	1.266425	-0.532583	99
Es	1.217391	1.543503	0.984402	99
Es	-2.373861	-1.049967	-1.101872	99
Es	1.085462	1.396633	0.267507	99
Es	0.968014	1.251612	-0.467267	99
Es	2.262444	1.106698	2.431845	99
Es	2.606100	0.428532	1.436622	99
Es	-0.618426	0.068443	-0.393727	99
Es	-1.554734	-0.771868	-0.213907	99
Es	1.919213	1.473017	1.275274	99
Es	-2.475046	-1.578336	-0.014553	99
Es	-0.524027	0.647620	-1.487557	99
Es	0.806773	-1.638039	-0.233208	99
Es	-2.274342	-0.950471	-0.362985	99
Es	-0.449328	0.733878	-0.743616	99
Es	-0.819554	-0.591477	-0.047773	99
Es	1.487720	1.000525	1.448476	99
Es	2.163504	0.943866	1.718390	99
Es	-0.132493	-2.364709	-0.159865	99
Es	1.470292	0.766663	-0.728385	99
Es	-2.734493	-0.405746	-0.136746	99
Es	0.284272	0.986776	-0.577674	99
Es	1.050213	1.893280	-0.847901	99
Es	0.790055	2.052640	1.292202	99
Es	-0.766500	-0.499054	0.691810	99
Es	0.092177	-1.839403	-1.198381	99
49
Properties=species:S:1:pos:R:3:Z:I:1 energy=-273.30492491242967 field_type=dipole dipole="0.000000 0.000000 0.000000" charge=0
C	-2.274348	-0.950476	-0.362985	6
C	-0.819548	-0.591466	-0.047715	6
C	0.096062	-1.744206	-0.461475	6
C	-0.449368	0.733874	-0.743635	6
C	0.968042	1.251604	-0.467315	6
C	1.217472	1.543454	0.984485	6
C	2.163432	0.943924	1.718325	6
H	-2.951717	-0.155516	-0.033075	1
H	-2.568258	-1.872136	0.150715	1
H	-2.423687	-1.099506	-1.437975	1
H	-0.740968	-0.463216	1.038425	1
H	0.093202	-1.883546	-1.547915	1
H	-0.229858	-2.682956	-0.000015	1
H	1.128032	-1.570066	-0.142785	1
H	-1.169808	1.506464	-0.442895	1
H	-0.563838	0.616284	-1.829255	1
H	1.110343	2.184734	-1.026185	1
H	1.709953	0.548164	-0.861765	1
H	0.587382	2.298534	1.450255	1
H	2.818053	0.187004	1.297715	1
H	2.299423	1.199044	2.765065	1
Es	-1.554607	-0.772097	-0.213609	99
Es	2.605727	0.428701	1.436537	99
Es	1.217392	1.543504	0.984403	99
Es	-0.819551	-0.591479	-0.047765	99
Es	0.285675	0.986667	-0.577143	99
Es	0.096056	-1.744195	-0.461469	99
Es	2.163512	0.943869	1.718388	99
Es	-2.274341	-0.950471	-0.362985	99
Es	-0.523257	0.647080	-1.486780	99
Es	-2.734147	-0.406116	-0.136514	99
Es	-0.944581	1.266995	-0.533387	99
Es	-0.355683	-1.168841	-0.268726	99
Es	-0.618446	0.068462	-0.393753	99
Es	-2.374198	-1.049562	-1.102084	99
Es	0.806541	-1.639537	-0.232293	99
Es	0.790804	2.051835	1.292171	99
Es	-2.475251	-1.578043	-0.014900	99
Es	-0.132356	-2.363225	-0.160696	99
Es	0.968015	1.251610	-0.467267	99
Es	1.487806	1.000477	1.448474	99
Es	-0.766407	-0.499102	0.691846	99
Es	0.092632	-1.839771	-1.196915	99
Es	1.048962	1.893349	-0.848383	99
Es	1.085079	1.396920	0.267693	99
Es	1.469848	0.767126	-0.728517	99
Es	1.919284	1.473207	1.275227	99
Es	-0.449328	0.733879	-0.743616	99
Es	2.262609	1.106342	2.432000	99
