47
Properties=species:S:1:pos:R:3:Z:I:1 energy=-309.1454180323931 field_type=dipole dipole="0.000000 0.000000 0.000000" charge=0
C	-2.430511	-0.758546	-0.863899	6
C	-1.072841	-0.949456	-0.196949	6
C	-0.194962	0.308214	-0.291689	6
O	-0.863152	1.381894	0.366811	8
C	1.200608	0.208614	0.300201	6
C	2.061569	1.430754	0.097351	6
C	1.692348	-0.862016	0.948881	6
H	-3.014132	-1.682486	-0.799599	1
H	-2.314782	-0.503126	-1.921749	1
H	-3.006011	0.035304	-0.377729	1
H	-0.567532	-1.799836	-0.669840	1
H	-1.251812	-1.206386	0.854691	1
H	-0.099491	0.583064	-1.350199	1
H	-0.813152	1.196584	1.320321	1
H	2.153478	1.658844	-0.968819	1
H	3.073608	1.293244	0.494290	1
H	1.625218	2.297853	0.604411	1
H	1.115698	-1.765726	1.111640	1
H	2.705848	-0.866786	1.341881	1
Es	-0.690913	1.630212	0.323779	99
Es	-0.602399	0.965947	0.139643	99
Es	1.557338	-0.468399	0.352195	99
Es	0.512066	0.235951	0.013092	99
Es	-1.188195	-1.119617	0.528183	99
Es	-0.722525	-1.528316	-0.521410	99
Es	-1.747125	-0.842601	-0.533861	99
Es	-2.430474	-0.758564	-0.863891	99
Es	1.200570	0.208723	0.300139	99
Es	-0.195034	0.308363	-0.291538	99
Es	-0.623715	-0.332463	-0.237538	99
Es	1.627691	0.820321	0.199967	99
Es	2.115040	1.577557	-0.625722	99
Es	-2.824565	-1.393126	-0.819072	99
Es	-1.158198	1.366934	0.283694	99
Es	2.748522	1.328807	0.368787	99
Es	1.764995	2.006543	0.439171	99
Es	-0.123794	0.494869	-1.012259	99
Es	-0.863051	1.381693	0.366931	99
Es	2.061546	1.430715	0.097352	99
Es	-2.820395	-0.223815	-0.533784	99
Es	-1.072850	-0.949430	-0.196963	99
Es	-0.829277	1.261112	0.876466	99
Es	1.302423	-1.476993	1.060803	99
Es	-2.346171	-0.584235	-1.587765	99
Es	1.692375	-0.862089	0.948933	99
Es	2.380289	-0.867162	1.217642	99
Es	1.330234	-0.222196	0.924777	99
47
Properties=species:S:1:pos:R:3:Z:I:1 energy=-309.1454180323931 field_type=dipole dipole="0.000000 0.000000 0.000000" charge=0
C	-2.430511	-0.758546	-0.863899	6
C	-1.072841	-0.949456	-0.196949	6
C	-0.194962	0.308214	-0.291689	6
O	-0.863152	1.381894	0.366811	8
C	1.200608	0.208614	0.300201	6
C	2.061569	1.430754	0.097351	6
C	1.692348	-0.862016	0.948881	6
H	-3.014132	-1.682486	-0.799599	1
H	-2.314782	-0.503126	-1.921749	1
H	-3.006011	0.035304	-0.377729	1
H	-0.567532	-1.799836	-0.669840	1
H	-1.251812	-1.206386	0.854691	1
H	-0.099491	0.583064	-1.350199	1
H	-0.813152	1.196584	1.320321	1
H	2.153478	1.658844	-0.968819	1
H	3.073608	1.293244	0.494290	1
H	1.625218	2.297853	0.604411	1
H	1.115698	-1.765726	1.111640	1
H	2.705848	-0.866786	1.341881	1
Es	-2.823772	-1.391981	-0.818762	99
Es	-0.699468	1.638960	0.317275	99
Es	-1.072850	-0.949431	-0.196962	99
Es	2.115236	1.577701	-0.627124	99
Es	2.061548	1.430711	0.097353	99
Es	1.329539	-0.221462	0.927079	99
Es	-1.747416	-0.842520	-0.533899	99
Es	-2.430473	-0.758564	-0.863891	99
Es	2.379318	-0.867354	1.218069	99
Es	-2.346099	-0.584290	-1.589167	99
Es	-0.195033	0.308363	-0.291539	99
Es	-0.828498	1.262008	0.878474	99
Es	1.627767	0.820709	0.199497	99
Es	-0.722121	-1.527969	-0.522067	99
Es	-0.623954	-0.332894	-0.236959	99
Es	-0.862962	1.381623	0.366983	99
Es	2.747738	1.328358	0.369314	99
Es	-1.188024	-1.119521	0.529325	99
Es	1.200571	0.208720	0.300141	99
Es	1.558447	-0.469346	0.349709	99
Es	-1.151783	1.356099	0.288942	99
Es	-2.820688	-0.224189	-0.533012	99
Es	-0.123741	0.494581	-1.013577	99
Es	1.303056	-1.476497	1.061469	99
Es	1.692376	-0.862094	0.948934	99
Es	-0.601150	0.967105	0.138828	99
Es	1.764564	2.005968	0.439950	99
Es	0.512281	0.235947	0.013368	99
47
Properties=species:S:1:pos:R:3:Z:I:1 energy=-309.1454180323931 field_type=dipole dipole="0.000000 0.000000 0.000000" charge=0
C	-2.430511	-0.758546	-0.863899	6
C	-1.072841	-0.949456	-0.196949	6
C	-0.194962	0.308214	-0.291689	6
O	-0.863152	1.381894	0.366811	8
C	1.200608	0.208614	0.300201	6
C	2.061569	1.430754	0.097351	6
C	1.692348	-0.862016	0.948881	6
H	-3.014132	-1.682486	-0.799599	1
H	-2.314782	-0.503126	-1.921749	1
H	-3.006011	0.035304	-0.377729	1
H	-0.567532	-1.799836	-0.669840	1
H	-1.251812	-1.206386	0.854691	1
H	-0.099491	0.583064	-1.350199	1
H	-0.813152	1.196584	1.320321	1
H	2.153478	1.658844	-0.968819	1
H	3.073608	1.293244	0.494290	1
H	1.625218	2.297853	0.604411	1
H	1.115698	-1.765726	1.111640	1
H	2.705848	-0.866786	1.341881	1
Es	1.764323	2.005425	0.440165	99
Es	-2.820947	-0.224612	-0.532641	99
Es	-2.430474	-0.758563	-0.863891	99
Es	-0.862939	1.381619	0.366988	99
Es	-0.624252	-0.333338	-0.236610	99
Es	-0.195033	0.308362	-0.291540	99
Es	-0.718278	1.655793	0.303603	99
Es	-0.721698	-1.527745	-0.522288	99
Es	-1.187728	-1.119263	0.529940	99
Es	1.303341	-1.476038	1.061850	99
Es	1.329237	-0.220894	0.927909	99
Es	2.061544	1.430717	0.097353	99
Es	-0.123873	0.494310	-1.014271	99
Es	-0.598972	0.968191	0.139022	99
Es	-2.346360	-0.584285	-1.589886	99
Es	-0.825908	1.264692	0.879796	99
Es	2.747957	1.327845	0.369676	99
Es	1.200572	0.208722	0.300139	99
Es	-1.072850	-0.949431	-0.196963	99
Es	1.559132	-0.470230	0.348442	99
Es	-1.137786	1.335424	0.300935	99
Es	-2.823357	-1.390792	-0.818841	99
Es	-1.747406	-0.842507	-0.533942	99
Es	1.627672	0.821153	0.199496	99
Es	1.692376	-0.862094	0.948935	99
Es	2.114773	1.577771	-0.627715	99
Es	2.378999	-0.867526	1.218288	99
Es	0.512341	0.236033	0.013805	99
47
Properties=species:S:1:pos:R:3:Z:I:1 energy=-309.1454180323931 field_type=dipole dipole="0.000000 0.000000 0.000000" charge=0
C	-2.430511	-0.758546	-0.863899	6
C	-1.072841	-0.949456	-0.196949	6
C	-0.194962	0.308214	-0.291689	6
O	-0.863152	1.381894	0.366811	8
C	1.200608	0.208614	0.300201	6
C	2.061569	1.430754	0.097351	6
C	1.692348	-0.862016	0.948881	6
H	-3.014132	-1.682486	-0.799599	1
H	-2.314782	-0.503126	-1.921749	1
H	-3.006011	0.035304	-0.377729	1
H	-0.567532	-1.799836	-0.669840	1
H	-1.251812	-1.206386	0.854691	1
H	-0.099491	0.583064	-1.350199	1
H	-0.813152	1.196584	1.320321	1
H	2.153478	1.658844	-0.968819	1
H	3.073608	1.293244	0.494290	1
H	1.625218	2.297853	0.604411	1
H	1.115698	-1.765726	1.111640	1
H	2.705848	-0.866786	1.341881	1
Es	-0.624423	-0.333592	-0.236351	99
Es	-2.821024	-0.225170	-0.532679	99
Es	-0.762501	1.678590	0.281949	99
Es	-2.823351	-1.389889	-0.819081	99
Es	1.200571	0.208721	0.300137	99
Es	-1.747439	-0.842529	-0.533947	99
Es	2.114320	1.577999	-0.627756	99
Es	-0.124196	0.494103	-1.014460	99
Es	1.329336	-0.220791	0.928193	99
Es	0.512339	0.236017	0.013962	99
Es	-2.430473	-0.758563	-0.863890	99
Es	-1.104854	1.305489	0.322356	99
Es	-0.820083	1.267002	0.880296	99
Es	-0.721345	-1.527356	-0.522159	99
Es	1.559060	-0.470262	0.348431	99
Es	-2.346761	-0.584059	-1.590134	99
Es	-1.072849	-0.949431	-0.196962	99
Es	1.627457	0.821342	0.199248	99
Es	-0.862792	1.381689	0.367019	99
Es	-0.195033	0.308362	-0.291542	99
Es	2.748608	1.327368	0.370236	99
Es	2.379406	-0.867838	1.218432	99
Es	-1.187304	-1.119250	0.530050	99
Es	-0.593704	0.972864	0.138504	99
Es	2.061540	1.430713	0.097350	99
Es	1.764156	2.004841	0.439904	99
Es	1.692376	-0.862095	0.948936	99
Es	1.303369	-1.475537	1.061712	99
47
Properties=species:S:1:pos:R:3:Z:I:1 energy=-309.1454180323931 field_type=dipole dipole="0.000000 0.000000 0.000000" charge=0
C	-2.430511	-0.758546	-0.863899	6
C	-1.072841	-0.949456	-0.196949	6
C	-0.194962	0.308214	-0.291689	6
O	-0.863152	1.381894	0.366811	8
C	1.200608	0.208614	0.300201	6
C	2.061569	1.430754	0.097351	6
C	1.692348	-0.862016	0.948881	6
H	-3.014132	-1.682486	-0.799599	1
H	-2.314782	-0.503126	-1.921749	1
H	-3.006011	0.035304	-0.377729	1
H	-0.567532	-1.799836	-0.669840	1
H	-1.251812	-1.206386	0.854691	1
H	-0.099491	0.583064	-1.350199	1
H	-0.813152	1.196584	1.320321	1
H	2.153478	1.658844	-0.968819	1
H	3.073608	1.293244	0.494290	1
H	1.625218	2.297853	0.604411	1
H	1.115698	-1.765726	1.111640	1
H	2.705848	-0.866786	1.341881	1
Es	-0.623555	-0.333187	-0.236379	99
Es	2.061541	1.430718	0.097350	99
Es	1.329512	-0.221006	0.927697	99
Es	1.627201	0.820651	0.199593	99
Es	-1.130094	1.507986	0.234165	99
Es	-0.722830	-1.527367	-0.522351	99
Es	-2.430472	-0.758564	-0.863891	99
Es	1.692377	-0.862095	0.948933	99
Es	1.303212	-1.478384	1.063107	99
Es	2.746599	1.329255	0.368857	99
Es	-2.819280	-0.225093	-0.532704	99
Es	-0.852037	1.249744	0.876641	99
Es	-2.824265	-1.393383	-0.817964	99
Es	1.200571	0.208726	0.300138	99
Es	-0.123040	0.494751	-1.014388	99
Es	1.559264	-0.470069	0.348570	99
Es	-0.863198	1.381412	0.366965	99
Es	2.376917	-0.866134	1.217109	99
Es	-1.072848	-0.949433	-0.196966	99
Es	-0.677532	1.507211	0.376295	99
Es	-1.747903	-0.841980	-0.534167	99
Es	0.512768	0.236367	0.014241	99
Es	-0.620628	0.959289	0.135884	99
Es	-1.188202	-1.120225	0.529998	99
Es	-0.195033	0.308362	-0.291540	99
Es	-2.345729	-0.582818	-1.589788	99
Es	2.115474	1.578917	-0.627646	99
Es	1.765621	2.005089	0.439990	99
47
Properties=species:S:1:pos:R:3:Z:I:1 energy=-309.1454180323931 field_type=dipole dipole="0.000000 0.000000 0.000000" charge=0
C	-2.430511	-0.758546	-0.863899	6
C	-1.072841	-0.949456	-0.196949	6
C	-0.194962	0.308214	-0.291689	6
O	-0.863152	1.381894	0.366811	8
C	1.200608	0.208614	0.300201	6
C	2.061569	1.430754	0.097351	6
C	1.692348	-0.862016	0.948881	6
H	-3.014132	-1.682486	-0.799599	1
H	-2.314782	-0.503126	-1.921749	1
H	-3.006011	0.035304	-0.377729	1
H	-0.567532	-1.799836	-0.669840	1
H	-1.251812	-1.206386	0.854691	1
H	-0.099491	0.583064	-1.350199	1
H	-0.813152	1.196584	1.320321	1
H	2.153478	1.658844	-0.968819	1
H	3.073608	1.293244	0.494290	1
H	1.625218	2.297853	0.604411	1
H	1.115698	-1.765726	1.111640	1
H	2.705848	-0.866786	1.341881	1
Es	2.113610	1.578815	-0.627474	99
Es	1.329993	-0.221170	0.927122	99
Es	-1.039341	1.287705	0.346909	99
Es	-0.835471	1.689446	0.254664	99
Es	1.692377	-0.862095	0.948935	99
Es	-2.824040	-1.389777	-0.819322	99
Es	1.627156	0.821450	0.199264	99
Es	1.764498	2.003762	0.439243	99
Es	1.200571	0.208721	0.300132	99
Es	-2.347105	-0.583620	-1.589750	99
Es	-1.747525	-0.842585	-0.533877	99
Es	-0.862997	1.381524	0.367019	99
Es	-0.587881	0.977586	0.139855	99
Es	2.061543	1.430715	0.097350	99
Es	2.379856	-0.867782	1.218516	99
Es	-0.195031	0.308360	-0.291539	99
Es	-1.186821	-1.119648	0.529711	99
Es	2.749551	1.327491	0.370632	99
Es	-0.818122	1.269213	0.881268	99
Es	-0.721617	-1.526822	-0.521638	99
Es	1.558587	-0.470001	0.349243	99
Es	-0.124404	0.494218	-1.014185	99
Es	-1.072850	-0.949431	-0.196963	99
Es	-2.430476	-0.758564	-0.863891	99
Es	0.512330	0.235966	0.014189	99
Es	-0.624192	-0.333661	-0.236319	99
Es	1.302859	-1.475456	1.061890	99
Es	-2.820648	-0.225622	-0.533234	99
47
Properties=species:S:1:pos:R:3:Z:I:1 energy=-309.1454180323931 field_type=dipole dipole="0.000000 0.000000 0.000000" charge=0
C	-2.430511	-0.758546	-0.863899	6
C	-1.072841	-0.949456	-0.196949	6
C	-0.194962	0.308214	-0.291689	6
O	-0.863152	1.381894	0.366811	8
C	1.200608	0.208614	0.300201	6
C	2.061569	1.430754	0.097351	6
C	1.692348	-0.862016	0.948881	6
H	-3.014132	-1.682486	-0.799599	1
H	-2.314782	-0.503126	-1.921749	1
H	-3.006011	0.035304	-0.377729	1
H	-0.567532	-1.799836	-0.669840	1
H	-1.251812	-1.206386	0.854691	1
H	-0.099491	0.583064	-1.350199	1
H	-0.813152	1.196584	1.320321	1
H	2.153478	1.658844	-0.968819	1
H	3.073608	1.293244	0.494290	1
H	1.625218	2.297853	0.604411	1
H	1.115698	-1.765726	1.111640	1
H	2.705848	-0.866786	1.341881	1
Es	2.380003	-0.867751	1.218441	99
Es	-2.820363	-0.226004	-0.533285	99
Es	-2.824309	-1.389751	-0.819401	99
Es	2.749762	1.327554	0.370713	99
Es	-0.588195	0.977836	0.139603	99
Es	-1.072852	-0.949432	-0.196962	99
Es	1.200569	0.208726	0.300140	99
Es	-0.819748	1.267595	0.881450	99
Es	0.512335	0.236024	0.014326	99
Es	1.302688	-1.475548	1.061878	99
Es	-0.195033	0.308362	-0.291540	99
Es	1.626873	0.821436	0.199341	99
Es	-2.430474	-0.758563	-0.863891	99
Es	-1.022345	1.289091	0.351105	99
Es	-0.124484	0.494152	-1.014095	99
Es	-2.347307	-0.583194	-1.589722	99
Es	2.113484	1.579066	-0.627307	99
Es	-1.186672	-1.119865	0.529675	99
Es	-0.862587	1.381676	0.367063	99
Es	-0.624069	-0.333839	-0.236177	99
Es	1.330213	-0.221259	0.926758	99
Es	1.764704	2.003509	0.438965	99
Es	-0.721806	-1.526593	-0.521540	99
Es	-0.850875	1.689293	0.250280	99
Es	1.692377	-0.862095	0.948935	99
Es	-1.747517	-0.842477	-0.533904	99
Es	1.558490	-0.469928	0.349551	99
Es	2.061545	1.430717	0.097352	99
47
Properties=species:S:1:pos:R:3:Z:I:1 energy=-309.1454180323931 field_type=dipole dipole="0.000000 0.000000 0.000000" charge=0
C	-2.430511	-0.758546	-0.863899	6
C	-1.072841	-0.949456	-0.196949	6
C	-0.194962	0.308214	-0.291689	6
O	-0.863152	1.381894	0.366811	8
C	1.200608	0.208614	0.300201	6
C	2.061569	1.430754	0.097351	6
C	1.692348	-0.862016	0.948881	6
H	-3.014132	-1.682486	-0.799599	1
H	-2.314782	-0.503126	-1.921749	1
H	-3.006011	0.035304	-0.377729	1
H	-0.567532	-1.799836	-0.669840	1
H	-1.251812	-1.206386	0.854691	1
H	-0.099491	0.583064	-1.350199	1
H	-0.813152	1.196584	1.320321	1
H	2.153478	1.658844	-0.968819	1
H	3.073608	1.293244	0.494290	1
H	1.625218	2.297853	0.604411	1
H	1.115698	-1.765726	1.111640	1
H	2.705848	-0.866786	1.341881	1
Es	-1.747614	-0.842581	-0.533919	99
Es	-1.186577	-1.119744	0.529517	99
Es	-2.430473	-0.758563	-0.863891	99
Es	2.113301	1.579447	-0.627193	99
Es	1.626716	0.821487	0.199301	99
Es	-0.862753	1.381692	0.367007	99
Es	1.200570	0.208725	0.300137	99
Es	-2.347418	-0.582703	-1.589633	99
Es	-0.862640	1.688621	0.246944	99
Es	-2.820021	-0.226358	-0.533322	99
Es	-1.072846	-0.949430	-0.196962	99
Es	-0.124544	0.494244	-1.014038	99
Es	-0.721801	-1.526625	-0.521287	99
Es	-0.820996	1.266448	0.881454	99
Es	2.749998	1.327522	0.370808	99
Es	-0.588745	0.977547	0.139516	99
Es	2.061545	1.430716	0.097351	99
Es	2.380042	-0.867692	1.218330	99
Es	1.692375	-0.862096	0.948938	99
Es	1.330307	-0.221379	0.926650	99
Es	-2.824639	-1.389827	-0.819518	99
Es	0.512409	0.236035	0.014328	99
Es	-1.008538	1.291101	0.354478	99
Es	1.302605	-1.475683	1.061900	99
Es	-0.195032	0.308361	-0.291541	99
Es	1.558351	-0.469772	0.349781	99
Es	1.764897	2.003132	0.438816	99
Es	-0.624070	-0.333885	-0.236200	99
47
Properties=species:S:1:pos:R:3:Z:I:1 energy=-309.1454180323931 field_type=dipole dipole="0.000000 0.000000 0.000000" charge=0
C	-2.430511	-0.758546	-0.863899	6
C	-1.072841	-0.949456	-0.196949	6
C	-0.194962	0.308214	-0.291689	6
O	-0.863152	1.381894	0.366811	8
C	1.200608	0.208614	0.300201	6
C	2.061569	1.430754	0.097351	6
C	1.692348	-0.862016	0.948881	6
H	-3.014132	-1.682486	-0.799599	1
H	-2.314782	-0.503126	-1.921749	1
H	-3.006011	0.035304	-0.377729	1
H	-0.567532	-1.799836	-0.669840	1
H	-1.251812	-1.206386	0.854691	1
H	-0.099491	0.583064	-1.350199	1
H	-0.813152	1.196584	1.320321	1
H	2.153478	1.658844	-0.968819	1
H	3.073608	1.293244	0.494290	1
H	1.625218	2.297853	0.604411	1
H	1.115698	-1.765726	1.111640	1
H	2.705848	-0.866786	1.341881	1
Es	-2.430475	-0.758562	-0.863890	99
Es	1.765102	2.003002	0.438612	99
Es	-2.347423	-0.582622	-1.589443	99
Es	1.330556	-0.221502	0.926268	99
Es	-0.722050	-1.526419	-0.521194	99
Es	-2.819817	-0.226381	-0.533556	99
Es	1.692377	-0.862096	0.948937	99
Es	-0.588976	0.978790	0.139239	99
Es	-1.186535	-1.120059	0.529361	99
Es	-0.124419	0.494294	-1.013859	99
Es	-1.747638	-0.842450	-0.533921	99
Es	2.380010	-0.867372	1.218096	99
Es	2.061545	1.430715	0.097351	99
Es	-2.824922	-1.390131	-0.819455	99
Es	-0.864181	1.380669	0.366977	99
Es	0.512390	0.235990	0.014557	99
Es	1.302512	-1.476070	1.062097	99
Es	-0.821254	1.264775	0.881539	99
Es	-0.623872	-0.333863	-0.236192	99
Es	1.626524	0.821437	0.199231	99
Es	2.113270	1.579672	-0.626957	99
Es	1.558156	-0.469657	0.350122	99
Es	1.200569	0.208725	0.300137	99
Es	-0.880413	1.686281	0.242641	99
Es	2.750112	1.327746	0.370734	99
Es	-1.072852	-0.949432	-0.196964	99
Es	-0.988855	1.294898	0.358826	99
Es	-0.195033	0.308360	-0.291541	99
47
Properties=species:S:1:pos:R:3:Z:I:1 energy=-309.1454180323931 field_type=dipole dipole="0.000000 0.000000 0.000000" charge=0
C	-2.430511	-0.758546	-0.863899	6
C	-1.072841	-0.949456	-0.196949	6
C	-0.194962	0.308214	-0.291689	6
O	-0.863152	1.381894	0.366811	8
C	1.200608	0.208614	0.300201	6
C	2.061569	1.430754	0.097351	6
C	1.692348	-0.862016	0.948881	6
H	-3.014132	-1.682486	-0.799599	1
H	-2.314782	-0.503126	-1.921749	1
H	-3.006011	0.035304	-0.377729	1
H	-0.567532	-1.799836	-0.669840	1
H	-1.251812	-1.206386	0.854691	1
H	-0.099491	0.583064	-1.350199	1
H	-0.813152	1.196584	1.320321	1
H	2.153478	1.658844	-0.968819	1
H	3.073608	1.293244	0.494290	1
H	1.625218	2.297853	0.604411	1
H	1.115698	-1.765726	1.111640	1
H	2.705848	-0.866786	1.341881	1
Es	1.200569	0.208724	0.300137	99
Es	-0.972563	1.298367	0.362498	99
Es	-0.124500	0.494334	-1.013800	99
Es	-2.347486	-0.582409	-1.589295	99
Es	2.380000	-0.867346	1.218014	99
Es	-0.195031	0.308361	-0.291542	99
Es	1.558024	-0.469564	0.350405	99
Es	1.626460	0.821299	0.199232	99
Es	-2.819540	-0.226534	-0.533745	99
Es	-1.072850	-0.949432	-0.196962	99
Es	0.512436	0.236082	0.014527	99
Es	-0.863919	1.380981	0.366927	99
Es	-0.588617	0.978204	0.139625	99
Es	1.302282	-1.476218	1.062143	99
Es	1.330764	-0.221590	0.925949	99
Es	1.692376	-0.862094	0.948935	99
Es	-0.722380	-1.526125	-0.521054	99
Es	-1.747608	-0.842366	-0.534005	99
Es	-0.623596	-0.333642	-0.236053	99
Es	-0.895881	1.682951	0.238578	99
Es	2.061545	1.430716	0.097351	99
Es	-2.825190	-1.390562	-0.819328	99
Es	1.765326	2.002698	0.438513	99
Es	-2.430474	-0.758563	-0.863891	99
Es	2.113186	1.580058	-0.626820	99
Es	2.750188	1.327974	0.370660	99
Es	-0.822548	1.264895	0.881505	99
Es	-1.186566	-1.120459	0.529247	99
47
Properties=species:S:1:pos:R:3:Z:I:1 energy=-309.1454180323931 field_type=dipole dipole="0.000000 0.000000 0.000000" charge=0
C	-2.430511	-0.758546	-0.863899	6
C	-1.072841	-0.949456	-0.196949	6
C	-0.194962	0.308214	-0.291689	6
O	-0.863152	1.381894	0.366811	8
C	1.200608	0.208614	0.300201	6
C	2.061569	1.430754	0.097351	6
C	1.692348	-0.862016	0.948881	6
H	-3.014132	-1.682486	-0.799599	1
H	-2.314782	-0.503126	-1.921749	1
H	-3.006011	0.035304	-0.377729	1
H	-0.567532	-1.799836	-0.669840	1
H	-1.251812	-1.206386	0.854691	1
H	-0.099491	0.583064	-1.350199	1
H	-0.813152	1.196584	1.320321	1
H	2.153478	1.658844	-0.968819	1
H	3.073608	1.293244	0.494290	1
H	1.625218	2.297853	0.604411	1
H	1.115698	-1.765726	1.111640	1
H	2.705848	-0.866786	1.341881	1
Es	2.379933	-0.867255	1.217895	99
Es	1.200566	0.208726	0.300142	99
Es	-1.747780	-0.842352	-0.533826	99
Es	-1.072850	-0.949432	-0.196962	99
Es	-2.347486	-0.582206	-1.589296	99
Es	-0.722282	-1.526255	-0.521033	99
Es	1.302347	-1.476450	1.062052	99
Es	-0.899214	1.682494	0.237800	99
Es	2.061543	1.430715	0.097351	99
Es	-2.825382	-1.390452	-0.819411	99
Es	-0.589803	0.978389	0.139462	99
Es	1.692378	-0.862096	0.948936	99
Es	1.765423	2.002472	0.438307	99
Es	-0.124505	0.494270	-1.013792	99
Es	1.626280	0.821477	0.199407	99
Es	-0.623689	-0.333815	-0.235947	99
Es	1.330733	-0.221656	0.925995	99
Es	2.750301	1.328002	0.370816	99
Es	-0.195032	0.308360	-0.291539	99
Es	0.512490	0.236123	0.014643	99
Es	-2.430474	-0.758563	-0.863891	99
Es	-2.819366	-0.226682	-0.533787	99
Es	1.558088	-0.469460	0.350439	99
Es	-0.862800	1.381673	0.366983	99
Es	-1.186395	-1.120293	0.529119	99
Es	-0.823527	1.263122	0.881483	99
Es	-0.968174	1.299744	0.363265	99
Es	2.113084	1.580140	-0.626860	99
47
Properties=species:S:1:pos:R:3:Z:I:1 energy=-309.1454180323931 field_type=dipole dipole="0.000000 0.000000 0.000000" charge=0
C	-2.430511	-0.758546	-0.863899	6
C	-1.072841	-0.949456	-0.196949	6
C	-0.194962	0.308214	-0.291689	6
O	-0.863152	1.381894	0.366811	8
C	1.200608	0.208614	0.300201	6
C	2.061569	1.430754	0.097351	6
C	1.692348	-0.862016	0.948881	6
H	-3.014132	-1.682486	-0.799599	1
H	-2.314782	-0.503126	-1.921749	1
H	-3.006011	0.035304	-0.377729	1
H	-0.567532	-1.799836	-0.669840	1
H	-1.251812	-1.206386	0.854691	1
H	-0.099491	0.583064	-1.350199	1
H	-0.813152	1.196584	1.320321	1
H	2.153478	1.658844	-0.968819	1
H	3.073608	1.293244	0.494290	1
H	1.625218	2.297853	0.604411	1
H	1.115698	-1.765726	1.111640	1
H	2.705848	-0.866786	1.341881	1
Es	-2.818611	-0.227036	-0.534256	99
Es	-0.195032	0.308361	-0.291539	99
Es	-0.939716	1.669236	0.229538	99
Es	2.061546	1.430716	0.097351	99
Es	2.112968	1.580609	-0.626240	99
Es	1.301851	-1.476984	1.062159	99
Es	-0.124455	0.494607	-1.013293	99
Es	1.626080	0.820926	0.199673	99
Es	-0.833614	1.258485	0.881727	99
Es	-0.595696	0.972796	0.137366	99
Es	0.512527	0.236390	0.014302	99
Es	1.331159	-0.222162	0.924777	99
Es	-2.430474	-0.758563	-0.863891	99
Es	-0.722984	-1.525871	-0.520644	99
Es	1.557564	-0.468927	0.351689	99
Es	-0.897248	1.340945	0.370847	99
Es	-2.826111	-1.391738	-0.819108	99
Es	2.750536	1.328832	0.370404	99
Es	-2.347606	-0.581635	-1.588762	99
Es	-0.877081	1.363804	0.369350	99
Es	1.692377	-0.862096	0.948936	99
Es	-1.186400	-1.120850	0.528763	99
Es	1.766049	2.002211	0.437793	99
Es	-1.072850	-0.949431	-0.196962	99
Es	-0.623196	-0.333594	-0.236203	99
Es	2.380071	-0.866784	1.217774	99
Es	1.200572	0.208722	0.300135	99
Es	-1.747817	-0.842229	-0.533934	99
47
Properties=species:S:1:pos:R:3:Z:I:1 energy=-309.1454180323931 field_type=dipole dipole="0.000000 0.000000 0.000000" charge=0
C	-2.430511	-0.758546	-0.863899	6
C	-1.072841	-0.949456	-0.196949	6
C	-0.194962	0.308214	-0.291689	6
O	-0.863152	1.381894	0.366811	8
C	1.200608	0.208614	0.300201	6
C	2.061569	1.430754	0.097351	6
C	1.692348	-0.862016	0.948881	6
H	-3.014132	-1.682486	-0.799599	1
H	-2.314782	-0.503126	-1.921749	1
H	-3.006011	0.035304	-0.377729	1
H	-0.567532	-1.799836	-0.669840	1
H	-1.251812	-1.206386	0.854691	1
H	-0.099491	0.583064	-1.350199	1
H	-0.813152	1.196584	1.320321	1
H	2.153478	1.658844	-0.968819	1
H	3.073608	1.293244	0.494290	1
H	1.625218	2.297853	0.604411	1
H	1.115698	-1.765726	1.111640	1
H	2.705848	-0.866786	1.341881	1
Es	-0.623383	-0.333787	-0.236029	99
Es	-0.195032	0.308361	-0.291542	99
Es	-1.186415	-1.120588	0.528950	99
Es	-2.347591	-0.581619	-1.589086	99
Es	2.061545	1.430715	0.097351	99
Es	1.626199	0.821087	0.199550	99
Es	1.692378	-0.862097	0.948932	99
Es	2.750499	1.328530	0.370504	99
Es	-1.747770	-0.842441	-0.533862	99
Es	-0.939403	1.312534	0.367665	99
Es	-0.920920	1.676287	0.232770	99
Es	-0.592307	0.976420	0.139470	99
Es	1.330924	-0.221823	0.925481	99
Es	2.379982	-0.867033	1.217687	99
Es	2.112837	1.580638	-0.626519	99
Es	-2.818811	-0.227080	-0.533943	99
Es	1.765721	2.002088	0.438147	99
Es	-1.072850	-0.949431	-0.196962	99
Es	1.302123	-1.476814	1.062106	99
Es	-0.722631	-1.526040	-0.520812	99
Es	-0.124506	0.494451	-1.013554	99
Es	-0.828373	1.260232	0.881231	99
Es	-2.825907	-1.390847	-0.819413	99
Es	-0.862462	1.379833	0.367720	99
Es	-2.430472	-0.758563	-0.863891	99
Es	1.200568	0.208725	0.300139	99
Es	1.557870	-0.469291	0.351024	99
Es	0.512594	0.236292	0.014637	99
47
Properties=species:S:1:pos:R:3:Z:I:1 energy=-309.1454180323931 field_type=dipole dipole="0.000000 0.000000 0.000000" charge=0
C	-2.430511	-0.758546	-0.863899	6
C	-1.072841	-0.949456	-0.196949	6
C	-0.194962	0.308214	-0.291689	6
O	-0.863152	1.381894	0.366811	8
C	1.200608	0.208614	0.300201	6
C	2.061569	1.430754	0.097351	6
C	1.692348	-0.862016	0.948881	6
H	-3.014132	-1.682486	-0.799599	1
H	-2.314782	-0.503126	-1.921749	1
H	-3.006011	0.035304	-0.377729	1
H	-0.567532	-1.799836	-0.669840	1
H	-1.251812	-1.206386	0.854691	1
H	-0.099491	0.583064	-1.350199	1
H	-0.813152	1.196584	1.320321	1
H	2.153478	1.658844	-0.968819	1
H	3.073608	1.293244	0.494290	1
H	1.625218	2.297853	0.604411	1
H	1.115698	-1.765726	1.111640	1
H	2.705848	-0.866786	1.341881	1
Es	-0.124325	0.494740	-1.013321	99
Es	1.301928	-1.477429	1.062305	99
Es	-1.072850	-0.949431	-0.196962	99
Es	-2.347606	-0.581021	-1.588775	99
Es	-0.861813	1.375823	0.369254	99
Es	-0.898331	1.334739	0.373339	99
Es	-1.186449	-1.121040	0.528714	99
Es	1.625966	0.820858	0.199444	99
Es	1.200568	0.208726	0.300139	99
Es	-0.195032	0.308360	-0.291542	99
Es	-0.595577	0.972659	0.138476	99
Es	-0.723130	-1.525798	-0.520679	99
Es	1.766211	2.001726	0.437895	99
Es	-0.833993	1.258237	0.880908	99
Es	2.750339	1.329061	0.370405	99
Es	2.379737	-0.866605	1.217424	99
Es	-2.818280	-0.227465	-0.534150	99
Es	2.113040	1.581247	-0.626254	99
Es	-2.430475	-0.758563	-0.863892	99
Es	1.557626	-0.469035	0.351636	99
Es	1.692378	-0.862097	0.948934	99
Es	2.061543	1.430715	0.097351	99
Es	-0.953572	1.663738	0.226775	99
Es	-1.747880	-0.842174	-0.533888	99
Es	-2.826295	-1.391977	-0.819187	99
Es	0.512680	0.236325	0.014631	99
Es	-0.623120	-0.333547	-0.236154	99
Es	1.331124	-0.222033	0.924927	99
47
Properties=species:S:1:pos:R:3:Z:I:1 energy=-309.1454180323931 field_type=dipole dipole="0.000000 0.000000 0.000000" charge=0
C	-2.430511	-0.758546	-0.863899	6
C	-1.072841	-0.949456	-0.196949	6
C	-0.194962	0.308214	-0.291689	6
O	-0.863152	1.381894	0.366811	8
C	1.200608	0.208614	0.300201	6
C	2.061569	1.430754	0.097351	6
C	1.692348	-0.862016	0.948881	6
H	-3.014132	-1.682486	-0.799599	1
H	-2.314782	-0.503126	-1.921749	1
H	-3.006011	0.035304	-0.377729	1
H	-0.567532	-1.799836	-0.669840	1
H	-1.251812	-1.206386	0.854691	1
H	-0.099491	0.583064	-1.350199	1
H	-0.813152	1.196584	1.320321	1
H	2.153478	1.658844	-0.968819	1
H	3.073608	1.293244	0.494290	1
H	1.625218	2.297853	0.604411	1
H	1.115698	-1.765726	1.111640	1
H	2.705848	-0.866786	1.341881	1
Es	-0.598831	0.972370	0.137491	99
Es	2.112813	1.581343	-0.626186	99
Es	2.379758	-0.866488	1.217509	99
Es	-0.623155	-0.333596	-0.236088	99
Es	1.766308	2.001600	0.437875	99
Es	-0.956245	1.662966	0.226744	99
Es	-0.837637	1.254118	0.880502	99
Es	-0.723003	-1.525967	-0.520502	99
Es	-0.195032	0.308361	-0.291537	99
Es	-2.818159	-0.227601	-0.534186	99
Es	-1.072850	-0.949431	-0.196962	99
Es	2.061543	1.430715	0.097350	99
Es	-0.873273	1.362431	0.371188	99
Es	1.302042	-1.477491	1.062220	99
Es	-0.877302	1.353393	0.372736	99
Es	1.200572	0.208722	0.300133	99
Es	-0.124335	0.494650	-1.013248	99
Es	-2.430474	-0.758563	-0.863891	99
Es	-1.747934	-0.842175	-0.533920	99
Es	0.512660	0.236215	0.014667	99
Es	-2.826429	-1.391959	-0.819255	99
Es	1.625736	0.821080	0.199594	99
Es	-2.347739	-0.580862	-1.588670	99
Es	1.331080	-0.222203	0.924814	99
Es	-1.186372	-1.120811	0.528490	99
Es	1.692377	-0.862096	0.948936	99
Es	1.557753	-0.468937	0.351597	99
Es	2.750537	1.328954	0.370351	99
47
Properties=species:S:1:pos:R:3:Z:I:1 energy=-309.1454180323931 field_type=dipole dipole="0.000000 0.000000 0.000000" charge=0
C	-2.430511	-0.758546	-0.863899	6
C	-1.072841	-0.949456	-0.196949	6
C	-0.194962	0.308214	-0.291689	6
O	-0.863152	1.381894	0.366811	8
C	1.200608	0.208614	0.300201	6
C	2.061569	1.430754	0.097351	6
C	1.692348	-0.862016	0.948881	6
H	-3.014132	-1.682486	-0.799599	1
H	-2.314782	-0.503126	-1.921749	1
H	-3.006011	0.035304	-0.377729	1
H	-0.567532	-1.799836	-0.669840	1
H	-1.251812	-1.206386	0.854691	1
H	-0.099491	0.583064	-1.350199	1
H	-0.813152	1.196584	1.320321	1
H	2.153478	1.658844	-0.968819	1
H	3.073608	1.293244	0.494290	1
H	1.625218	2.297853	0.604411	1
H	1.115698	-1.765726	1.111640	1
H	2.705848	-0.866786	1.341881	1
Es	-1.072850	-0.949431	-0.196962	99
Es	-2.347854	-0.580957	-1.588974	99
Es	-0.124401	0.494393	-1.013460	99
Es	-2.826126	-1.390979	-0.819556	99
Es	1.330937	-0.221806	0.925461	99
Es	-0.930798	1.673628	0.231141	99
Es	-0.623489	-0.334033	-0.235817	99
Es	0.512696	0.236295	0.015059	99
Es	-0.925716	1.317711	0.370112	99
Es	-0.862024	1.380577	0.367599	99
Es	-2.430475	-0.758563	-0.863892	99
Es	1.557917	-0.469339	0.351036	99
Es	1.692377	-0.862096	0.948936	99
Es	-0.830263	1.256490	0.880578	99
Es	2.061544	1.430716	0.097351	99
Es	1.200569	0.208725	0.300139	99
Es	-0.722642	-1.526038	-0.520797	99
Es	2.112669	1.581443	-0.626438	99
Es	-0.195032	0.308360	-0.291542	99
Es	-2.818461	-0.227590	-0.533846	99
Es	-1.186240	-1.120620	0.528769	99
Es	-0.594586	0.976973	0.139146	99
Es	2.379772	-0.866858	1.217283	99
Es	-1.747821	-0.842166	-0.533921	99
Es	1.625806	0.821508	0.199373	99
Es	1.766051	2.001429	0.438203	99
Es	2.750606	1.328249	0.370640	99
Es	1.302240	-1.477283	1.062131	99
