45
Properties=species:S:1:pos:R:3:Z:I:1 energy=-345.0136904223106 field_type=dipole dipole="0.000000 0.000000 0.000000" charge=0
C	-1.150116	-2.094243	0.478528	6
C	-0.981516	-1.139192	-0.686442	6
C	-0.485876	0.206418	-0.201402	6
O	-1.221086	0.960948	0.439868	8
C	0.964314	0.543748	-0.484492	6
C	1.316014	1.948718	-0.022422	6
O	1.314124	2.016747	1.398558	8
H	-1.502596	-3.068182	0.126618	1
H	-1.876186	-1.708022	1.201118	1
H	-0.202156	-2.240372	1.006208	1
H	-1.932336	-0.987212	-1.208412	1
H	-0.273936	-1.548942	-1.414722	1
H	1.125734	0.463858	-1.564202	1
H	1.584634	-0.194812	0.034708	1
H	0.620674	2.699687	-0.412302	1
H	2.322664	2.209838	-0.362252	1
H	0.377644	1.931017	1.671038	1
Es	1.291954	1.987581	0.854418	99
Es	-1.057892	-1.592574	-0.107332	99
Es	-0.499437	-2.188429	0.830707	99
Es	1.313812	2.016712	1.398363	99
Es	-1.032230	0.814065	0.000879	99
Es	2.006394	2.119635	-0.261009	99
Es	1.128899	1.228768	-0.262743	99
Es	-1.639534	-1.831990	0.961524	99
Es	0.964255	0.543726	-0.484501	99
Es	-1.618371	-1.029274	-1.033597	99
Es	-0.891263	0.585716	0.426526	99
Es	0.818175	1.970203	1.526935	99
Es	1.316002	1.948655	-0.022216	99
Es	1.407193	2.299356	1.472558	99
Es	-1.386042	-2.752550	0.232358	99
Es	0.836917	2.452026	-0.303604	99
Es	-0.491417	-1.416209	-1.180071	99
Es	-0.981491	-1.139168	-0.686406	99
Es	1.461620	1.761631	1.493415	99
Es	0.241398	0.377840	-0.346299	99
Es	1.059219	0.483284	-1.213416	99
Es	-1.220922	0.960805	0.439762	99
Es	-1.070082	1.226572	0.537209	99
Es	1.363440	0.041948	-0.139353	99
Es	-1.150091	-2.094204	0.478470	99
Es	-1.512945	0.847675	0.478274	99
Es	-0.723242	-0.468531	-0.455195	99
Es	-0.485868	0.206420	-0.201397	99
45
Properties=species:S:1:pos:R:3:Z:I:1 energy=-345.0136904223106 field_type=dipole dipole="0.000000 0.000000 0.000000" charge=0
C	-1.150116	-2.094243	0.478528	6
C	-0.981516	-1.139192	-0.686442	6
C	-0.485876	0.206418	-0.201402	6
O	-1.221086	0.960948	0.439868	8
C	0.964314	0.543748	-0.484492	6
C	1.316014	1.948718	-0.022422	6
O	1.314124	2.016747	1.398558	8
H	-1.502596	-3.068182	0.126618	1
H	-1.876186	-1.708022	1.201118	1
H	-0.202156	-2.240372	1.006208	1
H	-1.932336	-0.987212	-1.208412	1
H	-0.273936	-1.548942	-1.414722	1
H	1.125734	0.463858	-1.564202	1
H	1.584634	-0.194812	0.034708	1
H	0.620674	2.699687	-0.412302	1
H	2.322664	2.209838	-0.362252	1
H	0.377644	1.931017	1.671038	1
Es	-0.724275	-0.469201	-0.454624	99
Es	-1.057532	-1.592158	-0.107376	99
Es	-0.485871	0.206425	-0.201405	99
Es	-1.150092	-2.094205	0.478471	99
Es	-1.220886	0.960731	0.439696	99
Es	1.363470	0.042627	-0.139336	99
Es	1.059807	0.483343	-1.213878	99
Es	-1.384581	-2.751328	0.231637	99
Es	1.316001	1.948650	-0.022220	99
Es	-1.516405	0.850391	0.479990	99
Es	2.006780	2.119553	-0.261215	99
Es	0.815348	1.978707	1.529705	99
Es	-0.489724	-1.417449	-1.181830	99
Es	-1.031206	0.815941	0.000677	99
Es	1.293752	1.983551	0.853815	99
Es	1.313864	2.016710	1.398397	99
Es	1.409253	2.293285	1.466882	99
Es	0.964254	0.543726	-0.484500	99
Es	0.836252	2.451647	-0.303840	99
Es	-0.981491	-1.139168	-0.686403	99
Es	-1.618406	-1.028901	-1.031956	99
Es	1.129133	1.228534	-0.262361	99
Es	0.241066	0.377631	-0.346064	99
Es	-0.499505	-2.189097	0.829052	99
Es	-1.641610	-1.831098	0.963407	99
Es	1.460380	1.763178	1.496892	99
Es	-0.890365	0.585579	0.427396	99
Es	-1.068958	1.222086	0.535248	99
45
Properties=species:S:1:pos:R:3:Z:I:1 energy=-345.0136904223106 field_type=dipole dipole="0.000000 0.000000 0.000000" charge=0
C	-1.150116	-2.094243	0.478528	6
C	-0.981516	-1.139192	-0.686442	6
C	-0.485876	0.206418	-0.201402	6
O	-1.221086	0.960948	0.439868	8
C	0.964314	0.543748	-0.484492	6
C	1.316014	1.948718	-0.022422	6
O	1.314124	2.016747	1.398558	8
H	-1.502596	-3.068182	0.126618	1
H	-1.876186	-1.708022	1.201118	1
H	-0.202156	-2.240372	1.006208	1
H	-1.932336	-0.987212	-1.208412	1
H	-0.273936	-1.548942	-1.414722	1
H	1.125734	0.463858	-1.564202	1
H	1.584634	-0.194812	0.034708	1
H	0.620674	2.699687	-0.412302	1
H	2.322664	2.209838	-0.362252	1
H	0.377644	1.931017	1.671038	1
Es	1.294701	1.981306	0.853716	99
Es	0.964255	0.543726	-0.484501	99
Es	2.006794	2.119174	-0.260957	99
Es	-1.618103	-1.029056	-1.030686	99
Es	-0.981490	-1.139168	-0.686403	99
Es	0.836233	2.451935	-0.304120	99
Es	-1.150090	-2.094206	0.478472	99
Es	-0.488716	-1.418535	-1.182861	99
Es	1.313825	2.016722	1.398325	99
Es	-1.031413	0.815859	0.001149	99
Es	-1.067375	1.220036	0.532961	99
Es	-0.725062	-0.469267	-0.454292	99
Es	-0.890016	0.585114	0.428058	99
Es	1.316003	1.948655	-0.022214	99
Es	-1.057357	-1.591771	-0.107364	99
Es	-0.499887	-2.189040	0.827864	99
Es	-0.485867	0.206421	-0.201406	99
Es	1.406992	2.288041	1.461023	99
Es	-1.383503	-2.751021	0.231116	99
Es	1.363092	0.043192	-0.139287	99
Es	1.463146	1.764835	1.501094	99
Es	1.129233	1.228411	-0.262265	99
Es	0.813792	1.984468	1.531509	99
Es	-1.642787	-1.830337	0.964484	99
Es	0.240909	0.377460	-0.346049	99
Es	-1.220877	0.960771	0.439710	99
Es	1.060367	0.483081	-1.214238	99
Es	-1.518345	0.852885	0.481420	99
45
Properties=species:S:1:pos:R:3:Z:I:1 energy=-345.0136904223106 field_type=dipole dipole="0.000000 0.000000 0.000000" charge=0
C	-1.150116	-2.094243	0.478528	6
C	-0.981516	-1.139192	-0.686442	6
C	-0.485876	0.206418	-0.201402	6
O	-1.221086	0.960948	0.439868	8
C	0.964314	0.543748	-0.484492	6
C	1.316014	1.948718	-0.022422	6
O	1.314124	2.016747	1.398558	8
H	-1.502596	-3.068182	0.126618	1
H	-1.876186	-1.708022	1.201118	1
H	-0.202156	-2.240372	1.006208	1
H	-1.932336	-0.987212	-1.208412	1
H	-0.273936	-1.548942	-1.414722	1
H	1.125734	0.463858	-1.564202	1
H	1.584634	-0.194812	0.034708	1
H	0.620674	2.699687	-0.412302	1
H	2.322664	2.209838	-0.362252	1
H	0.377644	1.931017	1.671038	1
Es	0.836038	2.451911	-0.304262	99
Es	-1.063033	1.215275	0.528256	99
Es	0.964255	0.543726	-0.484501	99
Es	0.812742	1.990371	1.532513	99
Es	-1.031210	0.814040	0.000112	99
Es	1.461818	1.764739	1.502455	99
Es	-1.643287	-1.829677	0.965248	99
Es	1.407895	2.283640	1.458495	99
Es	-1.057647	-1.591702	-0.107588	99
Es	-0.725206	-0.469380	-0.453774	99
Es	-0.500267	-2.188782	0.826866	99
Es	1.316001	1.948656	-0.022215	99
Es	-1.150092	-2.094205	0.478472	99
Es	1.060482	0.482900	-1.214380	99
Es	-1.617692	-1.028941	-1.030017	99
Es	1.362945	0.043414	-0.139339	99
Es	1.314018	2.016735	1.398481	99
Es	-1.521565	0.859426	0.485502	99
Es	2.006850	2.119139	-0.260835	99
Es	-0.891469	0.585284	0.429807	99
Es	0.240923	0.377326	-0.345888	99
Es	-1.382843	-2.751103	0.230784	99
Es	-1.220910	0.960699	0.439685	99
Es	-0.485869	0.206424	-0.201409	99
Es	-0.981490	-1.139168	-0.686404	99
Es	1.295881	1.979916	0.853631	99
Es	1.129406	1.228451	-0.262117	99
Es	-0.488221	-1.419425	-1.183322	99
45
Properties=species:S:1:pos:R:3:Z:I:1 energy=-345.0136904223106 field_type=dipole dipole="0.000000 0.000000 0.000000" charge=0
C	-1.150116	-2.094243	0.478528	6
C	-0.981516	-1.139192	-0.686442	6
C	-0.485876	0.206418	-0.201402	6
O	-1.221086	0.960948	0.439868	8
C	0.964314	0.543748	-0.484492	6
C	1.316014	1.948718	-0.022422	6
O	1.314124	2.016747	1.398558	8
H	-1.502596	-3.068182	0.126618	1
H	-1.876186	-1.708022	1.201118	1
H	-0.202156	-2.240372	1.006208	1
H	-1.932336	-0.987212	-1.208412	1
H	-0.273936	-1.548942	-1.414722	1
H	1.125734	0.463858	-1.564202	1
H	1.584634	-0.194812	0.034708	1
H	0.620674	2.699687	-0.412302	1
H	2.322664	2.209838	-0.362252	1
H	0.377644	1.931017	1.671038	1
Es	1.408141	2.279297	1.455154	99
Es	1.460740	1.765958	1.505337	99
Es	1.316002	1.948654	-0.022216	99
Es	0.835979	2.452013	-0.304463	99
Es	-0.487922	-1.420056	-1.183741	99
Es	1.362751	0.043708	-0.139443	99
Es	-1.150091	-2.094205	0.478470	99
Es	-1.617257	-1.029223	-1.029312	99
Es	-1.220880	0.960725	0.439687	99
Es	1.129471	1.228627	-0.261922	99
Es	0.812301	1.996865	1.533296	99
Es	-1.060046	1.212574	0.524978	99
Es	-1.031837	0.812746	0.000092	99
Es	-0.981491	-1.139168	-0.686405	99
Es	1.060741	0.482674	-1.214367	99
Es	1.313827	2.016685	1.398361	99
Es	-0.725611	-0.469154	-0.453340	99
Es	1.297271	1.976673	0.853355	99
Es	-1.057653	-1.591642	-0.107716	99
Es	-0.892019	0.585340	0.430113	99
Es	0.964256	0.543725	-0.484501	99
Es	-1.643597	-1.829100	0.965804	99
Es	-1.523476	0.863441	0.488517	99
Es	-0.500640	-2.188644	0.826086	99
Es	-1.382391	-2.751156	0.230472	99
Es	-0.485870	0.206425	-0.201410	99
Es	2.006877	2.118917	-0.260706	99
Es	0.240880	0.376991	-0.345921	99
45
Properties=species:S:1:pos:R:3:Z:I:1 energy=-345.0136904223106 field_type=dipole dipole="0.000000 0.000000 0.000000" charge=0
C	-1.150116	-2.094243	0.478528	6
C	-0.981516	-1.139192	-0.686442	6
C	-0.485876	0.206418	-0.201402	6
O	-1.221086	0.960948	0.439868	8
C	0.964314	0.543748	-0.484492	6
C	1.316014	1.948718	-0.022422	6
O	1.314124	2.016747	1.398558	8
H	-1.502596	-3.068182	0.126618	1
H	-1.876186	-1.708022	1.201118	1
H	-0.202156	-2.240372	1.006208	1
H	-1.932336	-0.987212	-1.208412	1
H	-0.273936	-1.548942	-1.414722	1
H	1.125734	0.463858	-1.564202	1
H	1.584634	-0.194812	0.034708	1
H	0.620674	2.699687	-0.412302	1
H	2.322664	2.209838	-0.362252	1
H	0.377644	1.931017	1.671038	1
Es	0.240871	0.376892	-0.345949	99
Es	1.061201	0.482300	-1.214556	99
Es	-1.524612	0.867333	0.491038	99
Es	1.296975	1.975363	0.853587	99
Es	0.964254	0.543723	-0.484501	99
Es	-1.616879	-1.029334	-1.028777	99
Es	-1.057315	1.209643	0.522982	99
Es	-1.381829	-2.751360	0.230175	99
Es	1.362304	0.044068	-0.139267	99
Es	-1.220921	0.960793	0.439746	99
Es	0.835894	2.452004	-0.304485	99
Es	-0.725904	-0.469122	-0.453198	99
Es	-1.150092	-2.094205	0.478472	99
Es	-0.981490	-1.139168	-0.686403	99
Es	1.316002	1.948655	-0.022216	99
Es	-1.034228	0.814289	0.001146	99
Es	-0.485869	0.206423	-0.201409	99
Es	2.006810	2.119011	-0.260602	99
Es	1.406384	2.277443	1.452107	99
Es	-0.501135	-2.188333	0.825494	99
Es	1.313950	2.016712	1.398438	99
Es	0.812043	1.998140	1.535183	99
Es	-1.643921	-1.828621	0.966166	99
Es	-1.057655	-1.591430	-0.107651	99
Es	1.462893	1.767812	1.506138	99
Es	1.129600	1.228573	-0.261924	99
Es	-0.487620	-1.420751	-1.183982	99
Es	-0.891255	0.582836	0.428504	99
45
Properties=species:S:1:pos:R:3:Z:I:1 energy=-345.0136904223106 field_type=dipole dipole="0.000000 0.000000 0.000000" charge=0
C	-1.150116	-2.094243	0.478528	6
C	-0.981516	-1.139192	-0.686442	6
C	-0.485876	0.206418	-0.201402	6
O	-1.221086	0.960948	0.439868	8
C	0.964314	0.543748	-0.484492	6
C	1.316014	1.948718	-0.022422	6
O	1.314124	2.016747	1.398558	8
H	-1.502596	-3.068182	0.126618	1
H	-1.876186	-1.708022	1.201118	1
H	-0.202156	-2.240372	1.006208	1
H	-1.932336	-0.987212	-1.208412	1
H	-0.273936	-1.548942	-1.414722	1
H	1.125734	0.463858	-1.564202	1
H	1.584634	-0.194812	0.034708	1
H	0.620674	2.699687	-0.412302	1
H	2.322664	2.209838	-0.362252	1
H	0.377644	1.931017	1.671038	1
Es	1.362210	0.044124	-0.139215	99
Es	-0.487552	-1.421300	-1.184147	99
Es	0.964256	0.543725	-0.484501	99
Es	-1.032870	0.813336	0.000902	99
Es	1.298424	1.970465	0.853780	99
Es	1.316001	1.948654	-0.022215	99
Es	1.313894	2.016696	1.398392	99
Es	2.006688	2.118989	-0.260419	99
Es	-0.485868	0.206421	-0.201406	99
Es	-1.057617	-1.591222	-0.107582	99
Es	-0.981491	-1.139169	-0.686403	99
Es	-1.644070	-1.828300	0.966366	99
Es	0.811938	2.003327	1.535495	99
Es	-1.220917	0.960737	0.439709	99
Es	1.061272	0.482178	-1.214571	99
Es	-1.381330	-2.751834	0.229889	99
Es	-0.501728	-2.187874	0.825114	99
Es	1.462363	1.770384	1.509470	99
Es	-1.526804	0.871423	0.492436	99
Es	-1.056005	1.206103	0.520053	99
Es	1.405615	2.274620	1.448236	99
Es	-1.150092	-2.094205	0.478472	99
Es	-0.891788	0.583325	0.430324	99
Es	-0.726149	-0.468715	-0.453097	99
Es	-1.616394	-1.029712	-1.028300	99
Es	1.129559	1.228576	-0.261929	99
Es	0.240985	0.376778	-0.346052	99
Es	0.835925	2.452156	-0.304545	99
45
Properties=species:S:1:pos:R:3:Z:I:1 energy=-345.0136904223106 field_type=dipole dipole="0.000000 0.000000 0.000000" charge=0
C	-1.150116	-2.094243	0.478528	6
C	-0.981516	-1.139192	-0.686442	6
C	-0.485876	0.206418	-0.201402	6
O	-1.221086	0.960948	0.439868	8
C	0.964314	0.543748	-0.484492	6
C	1.316014	1.948718	-0.022422	6
O	1.314124	2.016747	1.398558	8
H	-1.502596	-3.068182	0.126618	1
H	-1.876186	-1.708022	1.201118	1
H	-0.202156	-2.240372	1.006208	1
H	-1.932336	-0.987212	-1.208412	1
H	-0.273936	-1.548942	-1.414722	1
H	1.125734	0.463858	-1.564202	1
H	1.584634	-0.194812	0.034708	1
H	0.620674	2.699687	-0.412302	1
H	2.322664	2.209838	-0.362252	1
H	0.377644	1.931017	1.671038	1
Es	-0.487504	-1.421871	-1.184248	99
Es	-1.616044	-1.029855	-1.027921	99
Es	-1.057806	-1.591163	-0.107823	99
Es	0.835984	2.452230	-0.304610	99
Es	1.407603	2.271598	1.450047	99
Es	-1.037193	0.812804	0.001955	99
Es	-1.529023	0.880753	0.500554	99
Es	1.460400	1.767825	1.507559	99
Es	1.313875	2.016668	1.398368	99
Es	2.006502	2.119036	-0.260265	99
Es	-0.981490	-1.139169	-0.686402	99
Es	1.061403	0.481870	-1.214544	99
Es	-0.891515	0.581428	0.427764	99
Es	-1.220876	0.960769	0.439710	99
Es	-1.381069	-2.752307	0.229646	99
Es	1.129689	1.228746	-0.261872	99
Es	-1.049823	1.199259	0.513363	99
Es	1.316002	1.948655	-0.022218	99
Es	-1.643978	-1.827798	0.966621	99
Es	1.298356	1.973371	0.853422	99
Es	0.811973	2.006082	1.535982	99
Es	-0.502163	-2.187480	0.824597	99
Es	-0.485867	0.206421	-0.201405	99
Es	0.241116	0.376543	-0.346080	99
Es	1.361918	0.044307	-0.139328	99
Es	0.964258	0.543726	-0.484501	99
Es	-1.150092	-2.094205	0.478472	99
Es	-0.726181	-0.468555	-0.452583	99
45
Properties=species:S:1:pos:R:3:Z:I:1 energy=-345.0136904223106 field_type=dipole dipole="0.000000 0.000000 0.000000" charge=0
C	-1.150116	-2.094243	0.478528	6
C	-0.981516	-1.139192	-0.686442	6
C	-0.485876	0.206418	-0.201402	6
O	-1.221086	0.960948	0.439868	8
C	0.964314	0.543748	-0.484492	6
C	1.316014	1.948718	-0.022422	6
O	1.314124	2.016747	1.398558	8
H	-1.502596	-3.068182	0.126618	1
H	-1.876186	-1.708022	1.201118	1
H	-0.202156	-2.240372	1.006208	1
H	-1.932336	-0.987212	-1.208412	1
H	-0.273936	-1.548942	-1.414722	1
H	1.125734	0.463858	-1.564202	1
H	1.584634	-0.194812	0.034708	1
H	0.620674	2.699687	-0.412302	1
H	2.322664	2.209838	-0.362252	1
H	0.377644	1.931017	1.671038	1
Es	-1.057793	-1.591231	-0.107720	99
Es	1.316002	1.948654	-0.022215	99
Es	0.964256	0.543726	-0.484502	99
Es	1.313874	2.016644	1.398360	99
Es	-1.643883	-1.827447	0.966729	99
Es	-1.220925	0.960695	0.439691	99
Es	-1.615680	-1.030411	-1.027553	99
Es	-1.380796	-2.752872	0.229444	99
Es	-1.044873	1.188088	0.506578	99
Es	1.061369	0.481649	-1.214480	99
Es	1.458136	1.767533	1.507300	99
Es	-0.726461	-0.468091	-0.452518	99
Es	2.006292	2.119142	-0.260024	99
Es	-0.485867	0.206422	-0.201406	99
Es	-0.502542	-2.186977	0.824255	99
Es	-1.037095	0.811811	0.001153	99
Es	1.409585	2.271947	1.450318	99
Es	1.298596	1.971806	0.853705	99
Es	0.836094	2.452427	-0.304575	99
Es	-0.487549	-1.422105	-1.184357	99
Es	0.812020	2.007605	1.535582	99
Es	-1.531753	0.894215	0.506994	99
Es	1.129849	1.228803	-0.261914	99
Es	0.241269	0.376432	-0.346085	99
Es	-1.150092	-2.094204	0.478472	99
Es	1.361673	0.044294	-0.139437	99
Es	-0.981491	-1.139169	-0.686404	99
Es	-0.893760	0.580304	0.428867	99
45
Properties=species:S:1:pos:R:3:Z:I:1 energy=-345.0136904223106 field_type=dipole dipole="0.000000 0.000000 0.000000" charge=0
C	-1.150116	-2.094243	0.478528	6
C	-0.981516	-1.139192	-0.686442	6
C	-0.485876	0.206418	-0.201402	6
O	-1.221086	0.960948	0.439868	8
C	0.964314	0.543748	-0.484492	6
C	1.316014	1.948718	-0.022422	6
O	1.314124	2.016747	1.398558	8
H	-1.502596	-3.068182	0.126618	1
H	-1.876186	-1.708022	1.201118	1
H	-0.202156	-2.240372	1.006208	1
H	-1.932336	-0.987212	-1.208412	1
H	-0.273936	-1.548942	-1.414722	1
H	1.125734	0.463858	-1.564202	1
H	1.584634	-0.194812	0.034708	1
H	0.620674	2.699687	-0.412302	1
H	2.322664	2.209838	-0.362252	1
H	0.377644	1.931017	1.671038	1
Es	0.811833	2.007246	1.535708	99
Es	-0.726418	-0.467897	-0.452381	99
Es	-1.150092	-2.094204	0.478471	99
Es	1.361887	0.044072	-0.139529	99
Es	1.316002	1.948655	-0.022216	99
Es	-0.894828	0.578279	0.427803	99
Es	2.006153	2.119247	-0.259895	99
Es	1.300292	1.967085	0.853704	99
Es	1.457899	1.771716	1.509138	99
Es	1.313915	2.016708	1.398424	99
Es	-1.040868	1.181036	0.501439	99
Es	0.241355	0.376343	-0.346145	99
Es	0.964255	0.543725	-0.484501	99
Es	-1.039285	0.811273	0.002018	99
Es	-1.615339	-1.030505	-1.027468	99
Es	-0.502819	-2.186970	0.824228	99
Es	-1.532530	0.903890	0.512252	99
Es	0.836067	2.452476	-0.304580	99
Es	-0.487598	-1.422435	-1.184307	99
Es	1.061126	0.481770	-1.214296	99
Es	-1.380714	-2.752979	0.229287	99
Es	-0.981490	-1.139169	-0.686403	99
Es	-1.220910	0.960705	0.439688	99
Es	-0.485868	0.206422	-0.201409	99
Es	-1.643919	-1.827301	0.966727	99
Es	-1.057822	-1.591128	-0.107774	99
Es	1.408287	2.272800	1.448224	99
Es	1.129883	1.228831	-0.261953	99
45
Properties=species:S:1:pos:R:3:Z:I:1 energy=-345.0136904223106 field_type=dipole dipole="0.000000 0.000000 0.000000" charge=0
C	-1.150116	-2.094243	0.478528	6
C	-0.981516	-1.139192	-0.686442	6
C	-0.485876	0.206418	-0.201402	6
O	-1.221086	0.960948	0.439868	8
C	0.964314	0.543748	-0.484492	6
C	1.316014	1.948718	-0.022422	6
O	1.314124	2.016747	1.398558	8
H	-1.502596	-3.068182	0.126618	1
H	-1.876186	-1.708022	1.201118	1
H	-0.202156	-2.240372	1.006208	1
H	-1.932336	-0.987212	-1.208412	1
H	-0.273936	-1.548942	-1.414722	1
H	1.125734	0.463858	-1.564202	1
H	1.584634	-0.194812	0.034708	1
H	0.620674	2.699687	-0.412302	1
H	2.322664	2.209838	-0.362252	1
H	0.377644	1.931017	1.671038	1
Es	1.456592	1.769124	1.508116	99
Es	0.964255	0.543725	-0.484501	99
Es	1.061382	0.481586	-1.214285	99
Es	-1.037175	0.810519	0.001732	99
Es	2.006186	2.119210	-0.259889	99
Es	-0.485867	0.206421	-0.201405	99
Es	-1.380364	-2.753351	0.229121	99
Es	-0.895073	0.579626	0.429379	99
Es	0.836055	2.452536	-0.304537	99
Es	-1.643953	-1.826994	0.966811	99
Es	1.313815	2.016716	1.398369	99
Es	1.361746	0.044371	-0.139580	99
Es	-0.503245	-2.186606	0.823934	99
Es	-0.981490	-1.139168	-0.686404	99
Es	-1.057739	-1.591147	-0.107676	99
Es	-0.487554	-1.422650	-1.184424	99
Es	-1.614997	-1.030896	-1.027110	99
Es	1.299249	1.968421	0.853811	99
Es	-1.041893	1.180960	0.501613	99
Es	1.410239	2.268909	1.448001	99
Es	1.129712	1.228936	-0.261871	99
Es	0.812370	2.012390	1.536810	99
Es	-0.726767	-0.467589	-0.452364	99
Es	-1.150092	-2.094205	0.478471	99
Es	0.241305	0.376101	-0.346206	99
Es	-1.533355	0.903413	0.510881	99
Es	-1.220890	0.960675	0.439675	99
Es	1.316002	1.948655	-0.022216	99
45
Properties=species:S:1:pos:R:3:Z:I:1 energy=-345.0136904223106 field_type=dipole dipole="0.000000 0.000000 0.000000" charge=0
C	-1.150116	-2.094243	0.478528	6
C	-0.981516	-1.139192	-0.686442	6
C	-0.485876	0.206418	-0.201402	6
O	-1.221086	0.960948	0.439868	8
C	0.964314	0.543748	-0.484492	6
C	1.316014	1.948718	-0.022422	6
O	1.314124	2.016747	1.398558	8
H	-1.502596	-3.068182	0.126618	1
H	-1.876186	-1.708022	1.201118	1
H	-0.202156	-2.240372	1.006208	1
H	-1.932336	-0.987212	-1.208412	1
H	-0.273936	-1.548942	-1.414722	1
H	1.125734	0.463858	-1.564202	1
H	1.584634	-0.194812	0.034708	1
H	0.620674	2.699687	-0.412302	1
H	2.322664	2.209838	-0.362252	1
H	0.377644	1.931017	1.671038	1
Es	-0.893678	0.578307	0.427581	99
Es	1.129865	1.228998	-0.261749	99
Es	1.408449	2.269308	1.446207	99
Es	0.836029	2.452489	-0.304693	99
Es	-1.150091	-2.094204	0.478470	99
Es	-1.220899	0.960711	0.439687	99
Es	1.316002	1.948655	-0.022216	99
Es	0.812210	2.012214	1.536469	99
Es	2.006196	2.119139	-0.259837	99
Es	-0.487453	-1.422945	-1.184376	99
Es	-1.644065	-1.826858	0.966900	99
Es	-1.614579	-1.030836	-1.027063	99
Es	1.457471	1.771497	1.510069	99
Es	-1.039438	0.811862	0.002571	99
Es	-0.981491	-1.139169	-0.686403	99
Es	-1.058052	-1.591189	-0.107823	99
Es	-0.503568	-2.186362	0.823715	99
Es	-0.485868	0.206422	-0.201407	99
Es	1.061526	0.481507	-1.214280	99
Es	0.241303	0.376162	-0.346238	99
Es	-1.380002	-2.753521	0.229072	99
Es	-1.041489	1.179426	0.500301	99
Es	1.300177	1.965889	0.854018	99
Es	-0.726831	-0.467572	-0.452083	99
Es	0.964256	0.543726	-0.484503	99
Es	1.313859	2.016712	1.398375	99
Es	-1.532964	0.904928	0.513041	99
Es	1.361578	0.044395	-0.139549	99
45
Properties=species:S:1:pos:R:3:Z:I:1 energy=-345.0136904223106 field_type=dipole dipole="0.000000 0.000000 0.000000" charge=0
C	-1.150116	-2.094243	0.478528	6
C	-0.981516	-1.139192	-0.686442	6
C	-0.485876	0.206418	-0.201402	6
O	-1.221086	0.960948	0.439868	8
C	0.964314	0.543748	-0.484492	6
C	1.316014	1.948718	-0.022422	6
O	1.314124	2.016747	1.398558	8
H	-1.502596	-3.068182	0.126618	1
H	-1.876186	-1.708022	1.201118	1
H	-0.202156	-2.240372	1.006208	1
H	-1.932336	-0.987212	-1.208412	1
H	-0.273936	-1.548942	-1.414722	1
H	1.125734	0.463858	-1.564202	1
H	1.584634	-0.194812	0.034708	1
H	0.620674	2.699687	-0.412302	1
H	2.322664	2.209838	-0.362252	1
H	0.377644	1.931017	1.671038	1
Es	1.298823	1.967874	0.854298	99
Es	0.241308	0.376112	-0.346385	99
Es	0.812032	2.009941	1.536630	99
Es	-1.039868	0.810758	0.002515	99
Es	1.457426	1.769797	1.507953	99
Es	1.410121	2.271374	1.447849	99
Es	2.006046	2.119351	-0.259832	99
Es	-0.487686	-1.423271	-1.184507	99
Es	-1.643922	-1.826561	0.966811	99
Es	0.964255	0.543725	-0.484501	99
Es	1.313893	2.016643	1.398331	99
Es	1.061516	0.481250	-1.214076	99
Es	-1.614492	-1.031244	-1.026641	99
Es	1.316001	1.948654	-0.022214	99
Es	1.130061	1.229085	-0.261850	99
Es	-1.037741	1.167817	0.493880	99
Es	-1.379902	-2.754039	0.228919	99
Es	-0.485867	0.206420	-0.201403	99
Es	-1.150093	-2.094204	0.478469	99
Es	1.361354	0.044363	-0.139651	99
Es	-1.533594	0.918948	0.519632	99
Es	-0.981489	-1.139169	-0.686402	99
Es	-1.057827	-1.591033	-0.107769	99
Es	-0.726930	-0.467148	-0.452147	99
Es	-0.896230	0.577051	0.427560	99
Es	0.836046	2.452514	-0.304508	99
Es	-0.503845	-2.185985	0.823618	99
Es	-1.220943	0.960664	0.439679	99
45
Properties=species:S:1:pos:R:3:Z:I:1 energy=-345.0136904223106 field_type=dipole dipole="0.000000 0.000000 0.000000" charge=0
C	-1.150116	-2.094243	0.478528	6
C	-0.981516	-1.139192	-0.686442	6
C	-0.485876	0.206418	-0.201402	6
O	-1.221086	0.960948	0.439868	8
C	0.964314	0.543748	-0.484492	6
C	1.316014	1.948718	-0.022422	6
O	1.314124	2.016747	1.398558	8
H	-1.502596	-3.068182	0.126618	1
H	-1.876186	-1.708022	1.201118	1
H	-0.202156	-2.240372	1.006208	1
H	-1.932336	-0.987212	-1.208412	1
H	-0.273936	-1.548942	-1.414722	1
H	1.125734	0.463858	-1.564202	1
H	1.584634	-0.194812	0.034708	1
H	0.620674	2.699687	-0.412302	1
H	2.322664	2.209838	-0.362252	1
H	0.377644	1.931017	1.671038	1
Es	-1.534027	0.919466	0.519531	99
Es	-0.895948	0.577492	0.428107	99
Es	-1.057869	-1.590984	-0.107992	99
Es	1.061402	0.481370	-1.214039	99
Es	-0.726988	-0.467125	-0.451854	99
Es	1.361539	0.044345	-0.139749	99
Es	-1.038267	1.166995	0.493336	99
Es	1.410201	2.270457	1.447527	99
Es	-0.487549	-1.423382	-1.184412	99
Es	1.313886	2.016656	1.398358	99
Es	1.316002	1.948655	-0.022215	99
Es	-1.643821	-1.826422	0.967031	99
Es	-1.379784	-2.754143	0.228836	99
Es	-1.614392	-1.031331	-1.026633	99
Es	-1.220894	0.960731	0.439699	99
Es	1.299734	1.966634	0.854155	99
Es	0.836088	2.452661	-0.304594	99
Es	-1.150092	-2.094204	0.478471	99
Es	-0.504129	-2.185930	0.823331	99
Es	2.005901	2.119360	-0.259593	99
Es	0.241340	0.376000	-0.346391	99
Es	1.130072	1.228996	-0.261904	99
Es	-0.485867	0.206420	-0.201404	99
Es	0.964256	0.543726	-0.484502	99
Es	1.456407	1.770601	1.508438	99
Es	0.812005	2.011267	1.536510	99
Es	-0.981489	-1.139169	-0.686400	99
Es	-1.039263	0.810547	0.002608	99
45
Properties=species:S:1:pos:R:3:Z:I:1 energy=-345.0136904223106 field_type=dipole dipole="0.000000 0.000000 0.000000" charge=0
C	-1.150116	-2.094243	0.478528	6
C	-0.981516	-1.139192	-0.686442	6
C	-0.485876	0.206418	-0.201402	6
O	-1.221086	0.960948	0.439868	8
C	0.964314	0.543748	-0.484492	6
C	1.316014	1.948718	-0.022422	6
O	1.314124	2.016747	1.398558	8
H	-1.502596	-3.068182	0.126618	1
H	-1.876186	-1.708022	1.201118	1
H	-0.202156	-2.240372	1.006208	1
H	-1.932336	-0.987212	-1.208412	1
H	-0.273936	-1.548942	-1.414722	1
H	1.125734	0.463858	-1.564202	1
H	1.584634	-0.194812	0.034708	1
H	0.620674	2.699687	-0.412302	1
H	2.322664	2.209838	-0.362252	1
H	0.377644	1.931017	1.671038	1
Es	-1.614311	-1.031544	-1.026677	99
Es	0.964257	0.543720	-0.484501	99
Es	1.316002	1.948655	-0.022215	99
Es	-0.487573	-1.423456	-1.184280	99
Es	-1.036853	1.159381	0.488741	99
Es	-1.041366	0.810857	0.003132	99
Es	1.300003	1.966649	0.854160	99
Es	0.241243	0.375875	-0.346217	99
Es	1.414352	2.270869	1.450275	99
Es	-0.981490	-1.139168	-0.686403	99
Es	-0.727081	-0.466890	-0.451947	99
Es	-1.379976	-2.754055	0.228763	99
Es	-1.533124	0.928369	0.524763	99
Es	0.836123	2.452697	-0.304438	99
Es	-1.150092	-2.094204	0.478471	99
Es	-1.220848	0.960789	0.439710	99
Es	-0.485867	0.206421	-0.201404	99
Es	-1.643820	-1.826260	0.966918	99
Es	2.005916	2.119441	-0.259609	99
Es	1.361477	0.044425	-0.139940	99
Es	1.130203	1.229088	-0.262059	99
Es	1.452008	1.769094	1.506054	99
Es	1.313874	2.016685	1.398364	99
Es	0.812041	2.012263	1.536078	99
Es	-1.057732	-1.591037	-0.107862	99
Es	-0.504086	-2.186115	0.823436	99
Es	1.061364	0.481217	-1.213858	99
Es	-0.896190	0.575922	0.426800	99
45
Properties=species:S:1:pos:R:3:Z:I:1 energy=-345.0136904223106 field_type=dipole dipole="0.000000 0.000000 0.000000" charge=0
C	-1.150116	-2.094243	0.478528	6
C	-0.981516	-1.139192	-0.686442	6
C	-0.485876	0.206418	-0.201402	6
O	-1.221086	0.960948	0.439868	8
C	0.964314	0.543748	-0.484492	6
C	1.316014	1.948718	-0.022422	6
O	1.314124	2.016747	1.398558	8
H	-1.502596	-3.068182	0.126618	1
H	-1.876186	-1.708022	1.201118	1
H	-0.202156	-2.240372	1.006208	1
H	-1.932336	-0.987212	-1.208412	1
H	-0.273936	-1.548942	-1.414722	1
H	1.125734	0.463858	-1.564202	1
H	1.584634	-0.194812	0.034708	1
H	0.620674	2.699687	-0.412302	1
H	2.322664	2.209838	-0.362252	1
H	0.377644	1.931017	1.671038	1
Es	1.130027	1.229145	-0.261963	99
Es	1.316001	1.948655	-0.022218	99
Es	-1.041431	0.810770	0.003429	99
Es	1.061107	0.481363	-1.213852	99
Es	1.452312	1.771816	1.507832	99
Es	0.811859	2.011292	1.535437	99
Es	1.361701	0.044319	-0.140052	99
Es	1.301126	1.963270	0.854551	99
Es	-1.614118	-1.031519	-1.026689	99
Es	-0.504284	-2.185755	0.823457	99
Es	-0.485867	0.206420	-0.201404	99
Es	-1.057968	-1.590996	-0.107937	99
Es	-1.532978	0.933462	0.526909	99
Es	0.964255	0.543726	-0.484501	99
Es	-0.487595	-1.423510	-1.184272	99
Es	0.241476	0.375769	-0.346067	99
Es	1.413090	2.272528	1.448707	99
Es	-0.896571	0.575556	0.426622	99
Es	-1.150092	-2.094204	0.478471	99
Es	-1.220936	0.960666	0.439677	99
Es	2.005955	2.119512	-0.259645	99
Es	-1.036525	1.154899	0.486379	99
Es	-0.727058	-0.466880	-0.451829	99
Es	-1.643790	-1.826338	0.966862	99
Es	-0.981489	-1.139168	-0.686401	99
Es	1.313876	2.016720	1.398385	99
Es	0.836121	2.452602	-0.304415	99
Es	-1.379752	-2.754430	0.228785	99
