45
Properties=species:S:1:pos:R:3:Z:I:1 energy=-345.015103976278 field_type=dipole dipole="0.000000 0.000000 0.000000" charge=0
C	-2.429958	-0.765438	0.145517	6
C	-0.924528	-0.893248	0.294987	6
C	-0.222548	0.452392	0.281877	6
O	-0.826678	1.524462	0.193147	8
C	1.305002	0.434052	0.391977	6
C	1.935232	0.198732	-0.968743	6
O	1.774212	1.678912	0.899217	8
H	-2.901708	-1.751538	0.184257	1
H	-2.690208	-0.298398	-0.809773	1
H	-2.855088	-0.151188	0.945827	1
H	-0.527928	-1.503268	-0.522303	1
H	-0.692658	-1.386368	1.244987	1
H	1.603332	-0.343518	1.101707	1
H	1.653552	0.991412	-1.671603	1
H	1.628692	-0.760108	-1.398133	1
H	3.027862	0.216022	-0.893753	1
H	1.143412	2.357092	0.580807	1
Es	-0.642298	-1.291267	-0.254199	99
Es	-1.664574	-0.823684	0.220565	99
Es	-2.712090	-0.356019	0.691170	99
Es	-0.222557	0.452393	0.281873	99
Es	-2.429892	-0.765462	0.145522	99
Es	2.049107	1.724048	0.766568	99
Es	-0.826515	1.524207	0.193164	99
Es	-0.571877	-0.221369	0.282058	99
Es	1.305012	0.434247	0.392006	99
Es	1.572245	1.210517	0.693186	99
Es	1.718736	-0.458121	-1.254570	99
Es	1.773962	1.678885	0.898972	99
Es	-0.594680	1.136142	-0.027967	99
Es	-2.600093	-0.454896	-0.504313	99
Es	1.594536	0.302452	-0.294409	99
Es	-0.621012	1.771513	0.201346	99
Es	1.733981	0.735444	-1.437580	99
Es	1.935196	0.198717	-0.968716	99
Es	-2.743017	-1.442895	0.172561	99
Es	-0.924505	-0.893194	0.294982	99
Es	1.496569	-0.103549	0.870020	99
Es	0.535979	0.433967	0.339121	99
Es	1.735683	1.664059	1.201050	99
Es	-0.753622	-1.210832	0.934517	99
Es	-1.135307	1.497436	0.168409	99
Es	1.440811	2.021839	0.716757	99
Es	2.667181	0.204050	-0.908997	99
Es	-0.634264	1.151948	0.473756	99
45
Properties=species:S:1:pos:R:3:Z:I:1 energy=-345.015103976278 field_type=dipole dipole="0.000000 0.000000 0.000000" charge=0
C	-2.429958	-0.765438	0.145517	6
C	-0.924528	-0.893248	0.294987	6
C	-0.222548	0.452392	0.281877	6
O	-0.826678	1.524462	0.193147	8
C	1.305002	0.434052	0.391977	6
C	1.935232	0.198732	-0.968743	6
O	1.774212	1.678912	0.899217	8
H	-2.901708	-1.751538	0.184257	1
H	-2.690208	-0.298398	-0.809773	1
H	-2.855088	-0.151188	0.945827	1
H	-0.527928	-1.503268	-0.522303	1
H	-0.692658	-1.386368	1.244987	1
H	1.603332	-0.343518	1.101707	1
H	1.653552	0.991412	-1.671603	1
H	1.628692	-0.760108	-1.398133	1
H	3.027862	0.216022	-0.893753	1
H	1.143412	2.357092	0.580807	1
Es	1.719112	-0.459044	-1.253469	99
Es	0.536238	0.434105	0.338212	99
Es	-1.664790	-0.823733	0.220530	99
Es	-1.134589	1.498520	0.167633	99
Es	1.935196	0.198717	-0.968716	99
Es	-2.743136	-1.443293	0.172491	99
Es	-0.571473	-0.221053	0.282282	99
Es	1.773966	1.678870	0.899019	99
Es	2.044998	1.722125	0.774229	99
Es	-0.594737	1.135249	-0.028065	99
Es	-0.642504	-1.291374	-0.254043	99
Es	-2.599703	-0.454768	-0.504264	99
Es	1.575683	1.206126	0.694436	99
Es	-0.753798	-1.211086	0.934253	99
Es	1.438337	2.029593	0.717641	99
Es	1.738569	1.662815	1.190890	99
Es	1.594713	0.302747	-0.294507	99
Es	2.665896	0.203552	-0.907855	99
Es	1.305012	0.434255	0.392010	99
Es	-0.635294	1.152659	0.475005	99
Es	-2.711852	-0.355744	0.691270	99
Es	-0.222552	0.452384	0.281873	99
Es	-0.620653	1.771175	0.200650	99
Es	-2.429892	-0.765462	0.145523	99
Es	1.733506	0.737481	-1.438652	99
Es	1.497505	-0.105151	0.870331	99
Es	-0.826558	1.524111	0.193167	99
Es	-0.924502	-0.893195	0.294982	99
45
Properties=species:S:1:pos:R:3:Z:I:1 energy=-345.015103976278 field_type=dipole dipole="0.000000 0.000000 0.000000" charge=0
C	-2.429958	-0.765438	0.145517	6
C	-0.924528	-0.893248	0.294987	6
C	-0.222548	0.452392	0.281877	6
O	-0.826678	1.524462	0.193147	8
C	1.305002	0.434052	0.391977	6
C	1.935232	0.198732	-0.968743	6
O	1.774212	1.678912	0.899217	8
H	-2.901708	-1.751538	0.184257	1
H	-2.690208	-0.298398	-0.809773	1
H	-2.855088	-0.151188	0.945827	1
H	-0.527928	-1.503268	-0.522303	1
H	-0.692658	-1.386368	1.244987	1
H	1.603332	-0.343518	1.101707	1
H	1.653552	0.991412	-1.671603	1
H	1.628692	-0.760108	-1.398133	1
H	3.027862	0.216022	-0.893753	1
H	1.143412	2.357092	0.580807	1
Es	1.305011	0.434245	0.392007	99
Es	-0.622478	1.772912	0.200850	99
Es	-0.826488	1.524166	0.193162	99
Es	-2.743030	-1.443398	0.172393	99
Es	1.740735	1.661796	1.183074	99
Es	-0.642519	-1.291645	-0.254228	99
Es	1.578054	1.203385	0.694925	99
Es	-0.595678	1.138106	-0.029172	99
Es	1.719520	-0.459683	-1.252796	99
Es	-2.711943	-0.355430	0.691435	99
Es	-0.571307	-0.221064	0.282553	99
Es	1.733121	0.738850	-1.439157	99
Es	-2.429891	-0.765460	0.145522	99
Es	2.664925	0.203371	-0.907047	99
Es	-0.753955	-1.211018	0.934127	99
Es	-2.599531	-0.454981	-0.504159	99
Es	1.935196	0.198716	-0.968717	99
Es	1.594745	0.302899	-0.294402	99
Es	1.498428	-0.106235	0.870393	99
Es	-0.222552	0.452386	0.281872	99
Es	2.042040	1.721920	0.778204	99
Es	-0.633311	1.150464	0.474934	99
Es	0.536297	0.434152	0.337465	99
Es	-1.664687	-0.823578	0.220535	99
Es	-0.924503	-0.893196	0.294983	99
Es	1.436504	2.033639	0.720672	99
Es	1.773911	1.678858	0.899013	99
Es	-1.133916	1.496402	0.168414	99
45
Properties=species:S:1:pos:R:3:Z:I:1 energy=-345.015103976278 field_type=dipole dipole="0.000000 0.000000 0.000000" charge=0
C	-2.429958	-0.765438	0.145517	6
C	-0.924528	-0.893248	0.294987	6
C	-0.222548	0.452392	0.281877	6
O	-0.826678	1.524462	0.193147	8
C	1.305002	0.434052	0.391977	6
C	1.935232	0.198732	-0.968743	6
O	1.774212	1.678912	0.899217	8
H	-2.901708	-1.751538	0.184257	1
H	-2.690208	-0.298398	-0.809773	1
H	-2.855088	-0.151188	0.945827	1
H	-0.527928	-1.503268	-0.522303	1
H	-0.692658	-1.386368	1.244987	1
H	1.603332	-0.343518	1.101707	1
H	1.653552	0.991412	-1.671603	1
H	1.628692	-0.760108	-1.398133	1
H	3.027862	0.216022	-0.893753	1
H	1.143412	2.357092	0.580807	1
Es	-1.135652	1.502745	0.167643	99
Es	1.594776	0.302866	-0.294507	99
Es	-0.222552	0.452386	0.281875	99
Es	-1.664820	-0.823459	0.220557	99
Es	1.499214	-0.107146	0.870281	99
Es	2.039282	1.721879	0.784832	99
Es	1.739895	1.661633	1.174146	99
Es	-2.742913	-1.443564	0.172360	99
Es	-0.594980	1.134137	-0.028849	99
Es	-0.826559	1.524120	0.193166	99
Es	-2.429898	-0.765463	0.145522	99
Es	-0.754067	-1.210842	0.934045	99
Es	0.536494	0.434197	0.336826	99
Es	1.582083	1.200268	0.695883	99
Es	1.732606	0.740060	-1.439334	99
Es	-2.599162	-0.455383	-0.504111	99
Es	-0.571163	-0.221117	0.282557	99
Es	-0.619404	1.767266	0.199703	99
Es	1.773952	1.678868	0.898979	99
Es	-0.642480	-1.291922	-0.254292	99
Es	-0.635332	1.154060	0.476719	99
Es	1.435768	2.036979	0.721829	99
Es	1.305012	0.434250	0.392006	99
Es	-0.924503	-0.893196	0.294983	99
Es	1.719927	-0.460164	-1.252280	99
Es	2.664083	0.203292	-0.906491	99
Es	-2.712104	-0.354887	0.691521	99
Es	1.935196	0.198716	-0.968716	99
45
Properties=species:S:1:pos:R:3:Z:I:1 energy=-345.015103976278 field_type=dipole dipole="0.000000 0.000000 0.000000" charge=0
C	-2.429958	-0.765438	0.145517	6
C	-0.924528	-0.893248	0.294987	6
C	-0.222548	0.452392	0.281877	6
O	-0.826678	1.524462	0.193147	8
C	1.305002	0.434052	0.391977	6
C	1.935232	0.198732	-0.968743	6
O	1.774212	1.678912	0.899217	8
H	-2.901708	-1.751538	0.184257	1
H	-2.690208	-0.298398	-0.809773	1
H	-2.855088	-0.151188	0.945827	1
H	-0.527928	-1.503268	-0.522303	1
H	-0.692658	-1.386368	1.244987	1
H	1.603332	-0.343518	1.101707	1
H	1.653552	0.991412	-1.671603	1
H	1.628692	-0.760108	-1.398133	1
H	3.027862	0.216022	-0.893753	1
H	1.143412	2.357092	0.580807	1
Es	1.435572	2.039049	0.723316	99
Es	2.036378	1.722258	0.789586	99
Es	1.739180	1.661362	1.167844	99
Es	-0.594730	1.135414	-0.029850	99
Es	1.499991	-0.107913	0.870051	99
Es	-0.642469	-1.292182	-0.254253	99
Es	1.773927	1.678854	0.899017	99
Es	1.935196	0.198716	-0.968719	99
Es	1.305013	0.434247	0.392007	99
Es	-0.222552	0.452386	0.281875	99
Es	1.720424	-0.460583	-1.251771	99
Es	-1.136149	1.501471	0.168773	99
Es	1.585659	1.198048	0.695710	99
Es	-0.826584	1.524080	0.193166	99
Es	-0.571037	-0.221113	0.282647	99
Es	-2.429896	-0.765462	0.145523	99
Es	0.536579	0.434129	0.336171	99
Es	1.594761	0.303047	-0.294119	99
Es	-0.924503	-0.893196	0.294983	99
Es	-2.712119	-0.354734	0.691844	99
Es	1.732238	0.740857	-1.439585	99
Es	-0.754169	-1.210662	0.933987	99
Es	-1.664930	-0.823418	0.220403	99
Es	-0.620996	1.767708	0.199902	99
Es	-0.633504	1.153870	0.476296	99
Es	-2.599106	-0.455465	-0.504085	99
Es	-2.742750	-1.443508	0.172224	99
Es	2.663275	0.203319	-0.906087	99
45
Properties=species:S:1:pos:R:3:Z:I:1 energy=-345.015103976278 field_type=dipole dipole="0.000000 0.000000 0.000000" charge=0
C	-2.429958	-0.765438	0.145517	6
C	-0.924528	-0.893248	0.294987	6
C	-0.222548	0.452392	0.281877	6
O	-0.826678	1.524462	0.193147	8
C	1.305002	0.434052	0.391977	6
C	1.935232	0.198732	-0.968743	6
O	1.774212	1.678912	0.899217	8
H	-2.901708	-1.751538	0.184257	1
H	-2.690208	-0.298398	-0.809773	1
H	-2.855088	-0.151188	0.945827	1
H	-0.527928	-1.503268	-0.522303	1
H	-0.692658	-1.386368	1.244987	1
H	1.603332	-0.343518	1.101707	1
H	1.653552	0.991412	-1.671603	1
H	1.628692	-0.760108	-1.398133	1
H	3.027862	0.216022	-0.893753	1
H	1.143412	2.357092	0.580807	1
Es	-0.924506	-0.893198	0.294983	99
Es	-0.642685	-1.292257	-0.254155	99
Es	-2.598689	-0.455515	-0.503868	99
Es	1.935196	0.198717	-0.968715	99
Es	-0.606544	1.740736	0.202930	99
Es	0.536839	0.434348	0.335927	99
Es	1.741870	1.662435	1.161801	99
Es	1.732099	0.741745	-1.439334	99
Es	-0.754400	-1.210879	0.933828	99
Es	-0.222554	0.452384	0.281880	99
Es	-2.742694	-1.444385	0.172260	99
Es	1.773942	1.678870	0.899017	99
Es	-0.597434	1.132891	-0.029666	99
Es	-0.570857	-0.220748	0.282755	99
Es	-0.639292	1.152196	0.476523	99
Es	1.305011	0.434247	0.392004	99
Es	-2.429893	-0.765461	0.145522	99
Es	1.434691	2.040413	0.726159	99
Es	1.587806	1.195606	0.698180	99
Es	-2.712004	-0.354384	0.691658	99
Es	-1.142062	1.532774	0.165308	99
Es	1.721150	-0.461744	-1.251723	99
Es	1.500347	-0.108557	0.869889	99
Es	1.594835	0.303070	-0.294345	99
Es	2.032236	1.722456	0.790174	99
Es	-0.826511	1.524146	0.193169	99
Es	-1.665027	-0.823221	0.220387	99
Es	2.661827	0.203894	-0.905691	99
45
Properties=species:S:1:pos:R:3:Z:I:1 energy=-345.015103976278 field_type=dipole dipole="0.000000 0.000000 0.000000" charge=0
C	-2.429958	-0.765438	0.145517	6
C	-0.924528	-0.893248	0.294987	6
C	-0.222548	0.452392	0.281877	6
O	-0.826678	1.524462	0.193147	8
C	1.305002	0.434052	0.391977	6
C	1.935232	0.198732	-0.968743	6
O	1.774212	1.678912	0.899217	8
H	-2.901708	-1.751538	0.184257	1
H	-2.690208	-0.298398	-0.809773	1
H	-2.855088	-0.151188	0.945827	1
H	-0.527928	-1.503268	-0.522303	1
H	-0.692658	-1.386368	1.244987	1
H	1.603332	-0.343518	1.101707	1
H	1.653552	0.991412	-1.671603	1
H	1.628692	-0.760108	-1.398133	1
H	3.027862	0.216022	-0.893753	1
H	1.143412	2.357092	0.580807	1
Es	-2.742942	-1.440919	0.171874	99
Es	-0.570975	-0.222850	0.282977	99
Es	0.536107	0.433920	0.335748	99
Es	1.719782	-0.458509	-1.250790	99
Es	1.432570	2.039676	0.726654	99
Es	1.594203	0.302797	-0.293951	99
Es	-2.713181	-0.354865	0.691908	99
Es	1.501601	-0.108548	0.869358	99
Es	1.935196	0.198716	-0.968717	99
Es	1.305011	0.434244	0.392004	99
Es	-0.222551	0.452386	0.281868	99
Es	-0.626010	1.159938	0.478460	99
Es	-1.093822	1.439994	0.173038	99
Es	1.590121	1.195645	0.697498	99
Es	-0.753522	-1.210011	0.933869	99
Es	-2.429892	-0.765461	0.145522	99
Es	1.730749	0.741279	-1.439610	99
Es	-0.641587	-1.291938	-0.254385	99
Es	-0.681747	1.817884	0.193521	99
Es	-2.599527	-0.456200	-0.504138	99
Es	1.731754	1.660177	1.151644	99
Es	2.042296	1.724424	0.800330	99
Es	-0.924504	-0.893197	0.294983	99
Es	-0.584459	1.140509	-0.029957	99
Es	2.665228	0.201942	-0.905722	99
Es	-1.664767	-0.823541	0.220708	99
Es	-0.826372	1.524205	0.193179	99
Es	1.773937	1.678882	0.898984	99
45
Properties=species:S:1:pos:R:3:Z:I:1 energy=-345.015103976278 field_type=dipole dipole="0.000000 0.000000 0.000000" charge=0
C	-2.429958	-0.765438	0.145517	6
C	-0.924528	-0.893248	0.294987	6
C	-0.222548	0.452392	0.281877	6
O	-0.826678	1.524462	0.193147	8
C	1.305002	0.434052	0.391977	6
C	1.935232	0.198732	-0.968743	6
O	1.774212	1.678912	0.899217	8
H	-2.901708	-1.751538	0.184257	1
H	-2.690208	-0.298398	-0.809773	1
H	-2.855088	-0.151188	0.945827	1
H	-0.527928	-1.503268	-0.522303	1
H	-0.692658	-1.386368	1.244987	1
H	1.603332	-0.343518	1.101707	1
H	1.653552	0.991412	-1.671603	1
H	1.628692	-0.760108	-1.398133	1
H	3.027862	0.216022	-0.893753	1
H	1.143412	2.357092	0.580807	1
Es	-0.570610	-0.219731	0.282803	99
Es	0.536871	0.434555	0.335543	99
Es	-2.598031	-0.455370	-0.503348	99
Es	1.595037	0.303290	-0.294776	99
Es	-0.826679	1.523907	0.193160	99
Es	-2.711514	-0.353902	0.691157	99
Es	1.935193	0.198717	-0.968715	99
Es	-0.924503	-0.893195	0.294983	99
Es	1.732253	0.742646	-1.438785	99
Es	1.773983	1.678878	0.899019	99
Es	1.587626	1.192373	0.704765	99
Es	1.500670	-0.109105	0.869516	99
Es	-0.643169	-1.292663	-0.253674	99
Es	-0.222553	0.452384	0.281873	99
Es	-2.742769	-1.446069	0.172376	99
Es	-1.137821	1.591459	0.165905	99
Es	2.660512	0.204393	-0.905068	99
Es	2.033381	1.721634	0.795621	99
Es	-1.665361	-0.823077	0.220442	99
Es	1.305014	0.434248	0.392007	99
Es	-0.598230	1.687776	0.204473	99
Es	1.721440	-0.463079	-1.251714	99
Es	1.739038	1.664415	1.148639	99
Es	-2.429892	-0.765460	0.145523	99
Es	-0.605298	1.130553	-0.030936	99
Es	1.436498	2.042876	0.727211	99
Es	-0.754818	-1.211027	0.933258	99
Es	-0.643571	1.149154	0.475598	99
45
Properties=species:S:1:pos:R:3:Z:I:1 energy=-345.015103976278 field_type=dipole dipole="0.000000 0.000000 0.000000" charge=0
C	-2.429958	-0.765438	0.145517	6
C	-0.924528	-0.893248	0.294987	6
C	-0.222548	0.452392	0.281877	6
O	-0.826678	1.524462	0.193147	8
C	1.305002	0.434052	0.391977	6
C	1.935232	0.198732	-0.968743	6
O	1.774212	1.678912	0.899217	8
H	-2.901708	-1.751538	0.184257	1
H	-2.690208	-0.298398	-0.809773	1
H	-2.855088	-0.151188	0.945827	1
H	-0.527928	-1.503268	-0.522303	1
H	-0.692658	-1.386368	1.244987	1
H	1.603332	-0.343518	1.101707	1
H	1.653552	0.991412	-1.671603	1
H	1.628692	-0.760108	-1.398133	1
H	3.027862	0.216022	-0.893753	1
H	1.143412	2.357092	0.580807	1
Es	-0.924503	-0.893197	0.294984	99
Es	1.305012	0.434250	0.392006	99
Es	-0.826379	1.524197	0.193180	99
Es	1.430448	2.038568	0.729710	99
Es	-2.743821	-1.440776	0.171865	99
Es	2.667368	0.201143	-0.905839	99
Es	-0.641589	-1.291650	-0.253415	99
Es	-2.713254	-0.354844	0.690992	99
Es	-0.621617	1.163812	0.479233	99
Es	1.935196	0.198716	-0.968717	99
Es	1.729966	0.740883	-1.438899	99
Es	-0.222552	0.452386	0.281877	99
Es	1.594246	0.302883	-0.293981	99
Es	0.535503	0.433741	0.335582	99
Es	-2.599720	-0.456384	-0.503238	99
Es	-0.575545	1.146772	-0.028883	99
Es	1.724867	1.659339	1.139369	99
Es	-0.753204	-1.210085	0.933112	99
Es	-0.570557	-0.222621	0.282863	99
Es	-0.766047	1.840119	0.186948	99
Es	1.584561	1.197146	0.701066	99
Es	1.718371	-0.457273	-1.250446	99
Es	1.502228	-0.108397	0.868762	99
Es	2.057245	1.724929	0.805937	99
Es	-1.022940	1.407299	0.177699	99
Es	-2.429893	-0.765461	0.145522	99
Es	-1.664682	-0.823785	0.220594	99
Es	1.773989	1.678870	0.898971	99
45
Properties=species:S:1:pos:R:3:Z:I:1 energy=-345.015103976278 field_type=dipole dipole="0.000000 0.000000 0.000000" charge=0
C	-2.429958	-0.765438	0.145517	6
C	-0.924528	-0.893248	0.294987	6
C	-0.222548	0.452392	0.281877	6
O	-0.826678	1.524462	0.193147	8
C	1.305002	0.434052	0.391977	6
C	1.935232	0.198732	-0.968743	6
O	1.774212	1.678912	0.899217	8
H	-2.901708	-1.751538	0.184257	1
H	-2.690208	-0.298398	-0.809773	1
H	-2.855088	-0.151188	0.945827	1
H	-0.527928	-1.503268	-0.522303	1
H	-0.692658	-1.386368	1.244987	1
H	1.603332	-0.343518	1.101707	1
H	1.653552	0.991412	-1.671603	1
H	1.628692	-0.760108	-1.398133	1
H	3.027862	0.216022	-0.893753	1
H	1.143412	2.357092	0.580807	1
Es	-1.665307	-0.823144	0.220348	99
Es	-0.602868	1.651054	0.207272	99
Es	1.305013	0.434247	0.392006	99
Es	2.040854	1.721844	0.801700	99
Es	-0.649533	1.145288	0.475046	99
Es	1.935196	0.198716	-0.968717	99
Es	-0.754911	-1.211048	0.932704	99
Es	-0.222552	0.452385	0.281871	99
Es	-2.429893	-0.765461	0.145522	99
Es	1.732140	0.743002	-1.438271	99
Es	2.660316	0.204558	-0.904897	99
Es	1.774045	1.678886	0.899094	99
Es	1.595282	0.303396	-0.295005	99
Es	1.721150	-0.463629	-1.251632	99
Es	-0.826558	1.524121	0.193166	99
Es	1.437059	2.043446	0.727798	99
Es	-2.711253	-0.353510	0.690718	99
Es	1.585522	1.191908	0.707802	99
Es	-0.643462	-1.292868	-0.253248	99
Es	-1.123781	1.631456	0.164432	99
Es	-0.924504	-0.893197	0.294982	99
Es	-2.743095	-1.446756	0.172465	99
Es	1.733196	1.664365	1.138714	99
Es	-2.597874	-0.455540	-0.502699	99
Es	0.536770	0.434645	0.335311	99
Es	-0.570402	-0.219169	0.282768	99
Es	-0.608757	1.130884	-0.031680	99
Es	1.500906	-0.109301	0.869283	99
45
Properties=species:S:1:pos:R:3:Z:I:1 energy=-345.015103976278 field_type=dipole dipole="0.000000 0.000000 0.000000" charge=0
C	-2.429958	-0.765438	0.145517	6
C	-0.924528	-0.893248	0.294987	6
C	-0.222548	0.452392	0.281877	6
O	-0.826678	1.524462	0.193147	8
C	1.305002	0.434052	0.391977	6
C	1.935232	0.198732	-0.968743	6
O	1.774212	1.678912	0.899217	8
H	-2.901708	-1.751538	0.184257	1
H	-2.690208	-0.298398	-0.809773	1
H	-2.855088	-0.151188	0.945827	1
H	-0.527928	-1.503268	-0.522303	1
H	-0.692658	-1.386368	1.244987	1
H	1.603332	-0.343518	1.101707	1
H	1.653552	0.991412	-1.671603	1
H	1.628692	-0.760108	-1.398133	1
H	3.027862	0.216022	-0.893753	1
H	1.143412	2.357092	0.580807	1
Es	-0.826380	1.524193	0.193181	99
Es	-2.599707	-0.456413	-0.502767	99
Es	-0.222552	0.452385	0.281872	99
Es	2.667655	0.201073	-0.905760	99
Es	-0.995103	1.405108	0.179479	99
Es	-1.664627	-0.823799	0.220489	99
Es	1.718120	-0.457220	-1.250285	99
Es	1.773914	1.678865	0.899035	99
Es	-0.570251	-0.222433	0.282979	99
Es	-2.429892	-0.765461	0.145522	99
Es	-0.641507	-1.292062	-0.253040	99
Es	-0.795340	1.840915	0.184329	99
Es	2.063613	1.724698	0.813950	99
Es	1.305014	0.434249	0.392005	99
Es	-0.753432	-1.209776	0.932617	99
Es	1.719731	1.659763	1.129020	99
Es	-2.713202	-0.354774	0.690745	99
Es	-2.744134	-1.440999	0.171784	99
Es	1.935197	0.198717	-0.968717	99
Es	-0.573721	1.147551	-0.028856	99
Es	0.535321	0.433890	0.335340	99
Es	-0.621969	1.164406	0.480096	99
Es	1.430925	2.038879	0.729374	99
Es	1.594463	0.302835	-0.294123	99
Es	1.502391	-0.108482	0.868616	99
Es	1.729606	0.741026	-1.438626	99
Es	-0.924503	-0.893196	0.294982	99
Es	1.583067	1.196641	0.703611	99
45
Properties=species:S:1:pos:R:3:Z:I:1 energy=-345.015103976278 field_type=dipole dipole="0.000000 0.000000 0.000000" charge=0
C	-2.429958	-0.765438	0.145517	6
C	-0.924528	-0.893248	0.294987	6
C	-0.222548	0.452392	0.281877	6
O	-0.826678	1.524462	0.193147	8
C	1.305002	0.434052	0.391977	6
C	1.935232	0.198732	-0.968743	6
O	1.774212	1.678912	0.899217	8
H	-2.901708	-1.751538	0.184257	1
H	-2.690208	-0.298398	-0.809773	1
H	-2.855088	-0.151188	0.945827	1
H	-0.527928	-1.503268	-0.522303	1
H	-0.692658	-1.386368	1.244987	1
H	1.603332	-0.343518	1.101707	1
H	1.653552	0.991412	-1.671603	1
H	1.628692	-0.760108	-1.398133	1
H	3.027862	0.216022	-0.893753	1
H	1.143412	2.357092	0.580807	1
Es	-1.664810	-0.823721	0.220530	99
Es	1.502471	-0.108427	0.868464	99
Es	2.063992	1.723825	0.810756	99
Es	0.535201	0.433829	0.335354	99
Es	1.430348	2.039146	0.731578	99
Es	-0.576259	1.149692	-0.030328	99
Es	-0.981795	1.404965	0.182066	99
Es	-0.570166	-0.222188	0.283034	99
Es	-2.744269	-1.441427	0.171737	99
Es	-2.429893	-0.765461	0.145522	99
Es	-0.641667	-1.291876	-0.252849	99
Es	1.305013	0.434246	0.392006	99
Es	2.667707	0.201471	-0.905604	99
Es	1.594381	0.302901	-0.294157	99
Es	-0.618071	1.163128	0.479680	99
Es	-2.599552	-0.456506	-0.502455	99
Es	-0.924503	-0.893196	0.294983	99
Es	-0.222552	0.452385	0.281873	99
Es	1.722529	1.660703	1.126664	99
Es	-0.826151	1.524236	0.193197	99
Es	1.729571	0.740878	-1.438482	99
Es	-2.713214	-0.354594	0.690553	99
Es	1.773927	1.678862	0.898839	99
Es	1.935196	0.198716	-0.968717	99
Es	1.718177	-0.457544	-1.250422	99
Es	-0.753270	-1.209957	0.932325	99
Es	1.580542	1.196376	0.707173	99
Es	-0.810185	1.840119	0.183532	99
45
Properties=species:S:1:pos:R:3:Z:I:1 energy=-345.015103976278 field_type=dipole dipole="0.000000 0.000000 0.000000" charge=0
C	-2.429958	-0.765438	0.145517	6
C	-0.924528	-0.893248	0.294987	6
C	-0.222548	0.452392	0.281877	6
O	-0.826678	1.524462	0.193147	8
C	1.305002	0.434052	0.391977	6
C	1.935232	0.198732	-0.968743	6
O	1.774212	1.678912	0.899217	8
H	-2.901708	-1.751538	0.184257	1
H	-2.690208	-0.298398	-0.809773	1
H	-2.855088	-0.151188	0.945827	1
H	-0.527928	-1.503268	-0.522303	1
H	-0.692658	-1.386368	1.244987	1
H	1.603332	-0.343518	1.101707	1
H	1.653552	0.991412	-1.671603	1
H	1.628692	-0.760108	-1.398133	1
H	3.027862	0.216022	-0.893753	1
H	1.143412	2.357092	0.580807	1
Es	0.535269	0.433834	0.335204	99
Es	-0.622100	1.163714	0.480136	99
Es	-0.806792	1.840528	0.183972	99
Es	-0.570204	-0.222285	0.283005	99
Es	1.935197	0.198716	-0.968715	99
Es	2.667620	0.201248	-0.905480	99
Es	1.430134	2.039206	0.731144	99
Es	1.305012	0.434247	0.392007	99
Es	-0.573512	1.148327	-0.029151	99
Es	1.502883	-0.108752	0.868249	99
Es	-0.641571	-1.291986	-0.252879	99
Es	-0.983815	1.405395	0.180096	99
Es	1.582766	1.195954	0.705845	99
Es	-2.599632	-0.456552	-0.502573	99
Es	-2.713347	-0.354671	0.690681	99
Es	-2.744143	-1.441069	0.171692	99
Es	1.718248	-0.457392	-1.250179	99
Es	-2.429892	-0.765461	0.145522	99
Es	1.720241	1.660172	1.124168	99
Es	-1.664697	-0.823820	0.220541	99
Es	1.773981	1.678906	0.899061	99
Es	1.729361	0.741158	-1.438555	99
Es	-0.826297	1.524225	0.193186	99
Es	-0.924505	-0.893195	0.294983	99
Es	-0.222552	0.452385	0.281872	99
Es	2.064156	1.724578	0.814707	99
Es	1.594189	0.302972	-0.294113	99
Es	-0.753303	-1.209805	0.932427	99
45
Properties=species:S:1:pos:R:3:Z:I:1 energy=-345.015103976278 field_type=dipole dipole="0.000000 0.000000 0.000000" charge=0
C	-2.429958	-0.765438	0.145517	6
C	-0.924528	-0.893248	0.294987	6
C	-0.222548	0.452392	0.281877	6
O	-0.826678	1.524462	0.193147	8
C	1.305002	0.434052	0.391977	6
C	1.935232	0.198732	-0.968743	6
O	1.774212	1.678912	0.899217	8
H	-2.901708	-1.751538	0.184257	1
H	-2.690208	-0.298398	-0.809773	1
H	-2.855088	-0.151188	0.945827	1
H	-0.527928	-1.503268	-0.522303	1
H	-0.692658	-1.386368	1.244987	1
H	1.603332	-0.343518	1.101707	1
H	1.653552	0.991412	-1.671603	1
H	1.628692	-0.760108	-1.398133	1
H	3.027862	0.216022	-0.893753	1
H	1.143412	2.357092	0.580807	1
Es	-0.974312	1.405969	0.182029	99
Es	1.582580	1.195289	0.707234	99
Es	-0.620887	1.164459	0.480037	99
Es	-0.924503	-0.893196	0.294982	99
Es	0.535220	0.433822	0.335198	99
Es	-0.641680	-1.291702	-0.252879	99
Es	-1.664740	-0.824031	0.220648	99
Es	1.729528	0.741183	-1.438484	99
Es	-0.816372	1.839881	0.182327	99
Es	-2.429892	-0.765460	0.145522	99
Es	-2.599635	-0.456383	-0.502438	99
Es	-0.753159	-1.210085	0.932189	99
Es	1.773988	1.678861	0.898831	99
Es	-0.826421	1.524191	0.193174	99
Es	1.719767	1.660515	1.120154	99
Es	2.667681	0.201009	-0.905701	99
Es	1.429723	2.039142	0.732158	99
Es	1.717925	-0.457317	-1.250173	99
Es	-0.570177	-0.222095	0.283187	99
Es	-2.744384	-1.441208	0.171704	99
Es	-0.222552	0.452385	0.281872	99
Es	1.594444	0.302994	-0.293953	99
Es	-2.713145	-0.354735	0.690546	99
Es	1.502795	-0.108592	0.868323	99
Es	2.065225	1.725069	0.816506	99
Es	-0.574529	1.147648	-0.029425	99
Es	1.935197	0.198716	-0.968717	99
Es	1.305012	0.434247	0.392006	99
45
Properties=species:S:1:pos:R:3:Z:I:1 energy=-345.015103976278 field_type=dipole dipole="0.000000 0.000000 0.000000" charge=0
C	-2.429958	-0.765438	0.145517	6
C	-0.924528	-0.893248	0.294987	6
C	-0.222548	0.452392	0.281877	6
O	-0.826678	1.524462	0.193147	8
C	1.305002	0.434052	0.391977	6
C	1.935232	0.198732	-0.968743	6
O	1.774212	1.678912	0.899217	8
H	-2.901708	-1.751538	0.184257	1
H	-2.690208	-0.298398	-0.809773	1
H	-2.855088	-0.151188	0.945827	1
H	-0.527928	-1.503268	-0.522303	1
H	-0.692658	-1.386368	1.244987	1
H	1.603332	-0.343518	1.101707	1
H	1.653552	0.991412	-1.671603	1
H	1.628692	-0.760108	-1.398133	1
H	3.027862	0.216022	-0.893753	1
H	1.143412	2.357092	0.580807	1
Es	-2.599498	-0.456539	-0.502243	99
Es	1.502861	-0.108607	0.868178	99
Es	-2.744392	-1.441634	0.171718	99
Es	-0.621578	1.164623	0.480527	99
Es	1.717997	-0.457745	-1.250235	99
Es	-0.825945	1.524132	0.193216	99
Es	-0.826477	1.838652	0.181477	99
Es	1.430044	2.039288	0.732102	99
Es	1.729394	0.741213	-1.438287	99
Es	2.667698	0.201428	-0.905194	99
Es	-0.964680	1.407138	0.182528	99
Es	1.305013	0.434247	0.392007	99
Es	-0.753383	-1.209920	0.932043	99
Es	-2.713256	-0.354583	0.690309	99
Es	0.535119	0.433813	0.335168	99
Es	-0.641693	-1.292000	-0.252650	99
Es	2.066253	1.723984	0.814287	99
Es	-0.924503	-0.893196	0.294983	99
Es	1.580357	1.195540	0.709765	99
Es	1.720593	1.661198	1.119567	99
Es	-0.573794	1.147605	-0.029527	99
Es	-1.664779	-0.823547	0.220603	99
Es	1.935197	0.198717	-0.968716	99
Es	-0.222551	0.452385	0.281868	99
Es	1.774094	1.678914	0.899222	99
Es	-0.569955	-0.222076	0.283115	99
Es	-2.429892	-0.765461	0.145522	99
Es	1.594455	0.303007	-0.294497	99
45
Properties=species:S:1:pos:R:3:Z:I:1 energy=-345.015103976278 field_type=dipole dipole="0.000000 0.000000 0.000000" charge=0
C	-2.429958	-0.765438	0.145517	6
C	-0.924528	-0.893248	0.294987	6
C	-0.222548	0.452392	0.281877	6
O	-0.826678	1.524462	0.193147	8
C	1.305002	0.434052	0.391977	6
C	1.935232	0.198732	-0.968743	6
O	1.774212	1.678912	0.899217	8
H	-2.901708	-1.751538	0.184257	1
H	-2.690208	-0.298398	-0.809773	1
H	-2.855088	-0.151188	0.945827	1
H	-0.527928	-1.503268	-0.522303	1
H	-0.692658	-1.386368	1.244987	1
H	1.603332	-0.343518	1.101707	1
H	1.653552	0.991412	-1.671603	1
H	1.628692	-0.760108	-1.398133	1
H	3.027862	0.216022	-0.893753	1
H	1.143412	2.357092	0.580807	1
Es	1.305013	0.434248	0.392005	99
Es	-2.597494	-0.455780	-0.501909	99
Es	-2.429893	-0.765461	0.145523	99
Es	2.049173	1.722351	0.810604	99
Es	1.935196	0.198716	-0.968716	99
Es	-0.754935	-1.210841	0.932038	99
Es	1.501388	-0.109470	0.868816	99
Es	-0.222552	0.452385	0.281867	99
Es	1.583696	1.190578	0.715050	99
Es	-0.924503	-0.893196	0.294983	99
Es	1.436605	2.044130	0.729971	99
Es	2.660346	0.204611	-0.904561	99
Es	-0.611184	1.131832	-0.032808	99
Es	-1.665508	-0.822989	0.220499	99
Es	1.774161	1.678909	0.899181	99
Es	1.727136	1.664723	1.120206	99
Es	1.595521	0.303456	-0.295317	99
Es	1.720842	-0.463967	-1.251379	99
Es	-1.100770	1.673414	0.165444	99
Es	-2.743472	-1.447417	0.172341	99
Es	0.536506	0.434590	0.335019	99
Es	-0.652603	1.142510	0.474539	99
Es	-0.643648	-1.293142	-0.252449	99
Es	-0.826564	1.524099	0.193166	99
Es	-2.711363	-0.353187	0.690012	99
Es	1.731850	0.743410	-1.437813	99
Es	-0.569936	-0.218818	0.282610	99
Es	-0.620312	1.610885	0.207932	99
45
Properties=species:S:1:pos:R:3:Z:I:1 energy=-345.015103976278 field_type=dipole dipole="0.000000 0.000000 0.000000" charge=0
C	-2.429958	-0.765438	0.145517	6
C	-0.924528	-0.893248	0.294987	6
C	-0.222548	0.452392	0.281877	6
O	-0.826678	1.524462	0.193147	8
C	1.305002	0.434052	0.391977	6
C	1.935232	0.198732	-0.968743	6
O	1.774212	1.678912	0.899217	8
H	-2.901708	-1.751538	0.184257	1
H	-2.690208	-0.298398	-0.809773	1
H	-2.855088	-0.151188	0.945827	1
H	-0.527928	-1.503268	-0.522303	1
H	-0.692658	-1.386368	1.244987	1
H	1.603332	-0.343518	1.101707	1
H	1.653552	0.991412	-1.671603	1
H	1.628692	-0.760108	-1.398133	1
H	3.027862	0.216022	-0.893753	1
H	1.143412	2.357092	0.580807	1
Es	1.305012	0.434248	0.392006	99
Es	2.660641	0.204615	-0.904387	99
Es	-2.711275	-0.353113	0.689975	99
Es	-0.653039	1.139624	0.473767	99
Es	-2.597610	-0.455870	-0.501651	99
Es	-0.222552	0.452385	0.281872	99
Es	-0.754969	-1.210730	0.931770	99
Es	1.773939	1.678860	0.898862	99
Es	1.731620	0.743535	-1.437512	99
Es	1.720584	-0.463981	-1.251342	99
Es	1.435714	2.043932	0.731760	99
Es	1.501466	-0.109516	0.868761	99
Es	1.583618	1.190385	0.715594	99
Es	0.536415	0.434643	0.334776	99
Es	-1.665289	-0.823192	0.220397	99
Es	-0.924503	-0.893196	0.294982	99
Es	1.935196	0.198716	-0.968717	99
Es	1.595656	0.303339	-0.295463	99
Es	-0.611007	1.134611	-0.033018	99
Es	-0.622621	1.607227	0.208892	99
Es	1.730481	1.665010	1.122108	99
Es	-0.569966	-0.218664	0.282774	99
Es	2.047138	1.722513	0.806590	99
Es	-0.643591	-1.293257	-0.252435	99
Es	-2.429890	-0.765460	0.145523	99
Es	-0.826679	1.523971	0.193162	99
Es	-1.098109	1.677298	0.165474	99
Es	-2.743683	-1.447353	0.172331	99
45
Properties=species:S:1:pos:R:3:Z:I:1 energy=-345.015103976278 field_type=dipole dipole="0.000000 0.000000 0.000000" charge=0
C	-2.429958	-0.765438	0.145517	6
C	-0.924528	-0.893248	0.294987	6
C	-0.222548	0.452392	0.281877	6
O	-0.826678	1.524462	0.193147	8
C	1.305002	0.434052	0.391977	6
C	1.935232	0.198732	-0.968743	6
O	1.774212	1.678912	0.899217	8
H	-2.901708	-1.751538	0.184257	1
H	-2.690208	-0.298398	-0.809773	1
H	-2.855088	-0.151188	0.945827	1
H	-0.527928	-1.503268	-0.522303	1
H	-0.692658	-1.386368	1.244987	1
H	1.603332	-0.343518	1.101707	1
H	1.653552	0.991412	-1.671603	1
H	1.628692	-0.760108	-1.398133	1
H	3.027862	0.216022	-0.893753	1
H	1.143412	2.357092	0.580807	1
Es	1.503115	-0.108748	0.867981	99
Es	2.667870	0.201139	-0.905409	99
Es	1.935196	0.198716	-0.968717	99
Es	-0.953283	1.410593	0.183159	99
Es	-0.836445	1.837452	0.181667	99
Es	1.729131	0.741392	-1.438089	99
Es	-0.574898	1.148196	-0.030092	99
Es	1.720291	1.661582	1.114117	99
Es	-0.569806	-0.221893	0.283012	99
Es	1.594463	0.302928	-0.294273	99
Es	0.535157	0.433789	0.335112	99
Es	1.717813	-0.457452	-1.250120	99
Es	-0.222552	0.452386	0.281873	99
Es	-1.664843	-0.823651	0.220676	99
Es	1.305011	0.434246	0.392005	99
Es	-2.599402	-0.456676	-0.502065	99
Es	-2.744566	-1.441752	0.171774	99
Es	-2.429892	-0.765460	0.145522	99
Es	-0.825699	1.523302	0.193242	99
Es	-2.713222	-0.354389	0.690124	99
Es	-0.753330	-1.209790	0.931838	99
Es	-0.622178	1.162590	0.480178	99
Es	1.429306	2.039235	0.733436	99
Es	1.580843	1.194620	0.711508	99
Es	-0.924503	-0.893198	0.294983	99
Es	1.773897	1.678852	0.899032	99
Es	-0.641800	-1.292136	-0.252388	99
Es	2.067022	1.724706	0.816764	99
45
Properties=species:S:1:pos:R:3:Z:I:1 energy=-345.015103976278 field_type=dipole dipole="0.000000 0.000000 0.000000" charge=0
C	-2.429958	-0.765438	0.145517	6
C	-0.924528	-0.893248	0.294987	6
C	-0.222548	0.452392	0.281877	6
O	-0.826678	1.524462	0.193147	8
C	1.305002	0.434052	0.391977	6
C	1.935232	0.198732	-0.968743	6
O	1.774212	1.678912	0.899217	8
H	-2.901708	-1.751538	0.184257	1
H	-2.690208	-0.298398	-0.809773	1
H	-2.855088	-0.151188	0.945827	1
H	-0.527928	-1.503268	-0.522303	1
H	-0.692658	-1.386368	1.244987	1
H	1.603332	-0.343518	1.101707	1
H	1.653552	0.991412	-1.671603	1
H	1.628692	-0.760108	-1.398133	1
H	3.027862	0.216022	-0.893753	1
H	1.143412	2.357092	0.580807	1
Es	1.774033	1.678886	0.899080	99
Es	-0.924503	-0.893196	0.294983	99
Es	2.667746	0.201299	-0.905294	99
Es	1.305012	0.434247	0.392006	99
Es	1.935196	0.198716	-0.968717	99
Es	1.729081	0.741473	-1.438050	99
Es	2.065730	1.724690	0.814902	99
Es	-2.429893	-0.765461	0.145522	99
Es	-0.839077	1.837062	0.179653	99
Es	-2.744681	-1.441745	0.171790	99
Es	-1.664846	-0.823796	0.220469	99
Es	1.717771	-0.457769	-1.250007	99
Es	-0.222552	0.452385	0.281873	99
Es	1.503397	-0.108911	0.867837	99
Es	-0.826898	1.523800	0.193141	99
Es	-0.641806	-1.292004	-0.252316	99
Es	1.594413	0.303155	-0.294179	99
Es	-0.951108	1.408889	0.183142	99
Es	-0.571850	1.146392	-0.028375	99
Es	1.429170	2.039421	0.734294	99
Es	1.721481	1.661622	1.114865	99
Es	1.581000	1.194348	0.711622	99
Es	-0.753327	-1.209924	0.931783	99
Es	-0.623528	1.166016	0.480623	99
Es	-2.599472	-0.456597	-0.501986	99
Es	-2.713067	-0.354406	0.690154	99
Es	-0.569784	-0.221828	0.283085	99
Es	0.535062	0.433814	0.334954	99
45
Properties=species:S:1:pos:R:3:Z:I:1 energy=-345.015103976278 field_type=dipole dipole="0.000000 0.000000 0.000000" charge=0
C	-2.429958	-0.765438	0.145517	6
C	-0.924528	-0.893248	0.294987	6
C	-0.222548	0.452392	0.281877	6
O	-0.826678	1.524462	0.193147	8
C	1.305002	0.434052	0.391977	6
C	1.935232	0.198732	-0.968743	6
O	1.774212	1.678912	0.899217	8
H	-2.901708	-1.751538	0.184257	1
H	-2.690208	-0.298398	-0.809773	1
H	-2.855088	-0.151188	0.945827	1
H	-0.527928	-1.503268	-0.522303	1
H	-0.692658	-1.386368	1.244987	1
H	1.603332	-0.343518	1.101707	1
H	1.653552	0.991412	-1.671603	1
H	1.628692	-0.760108	-1.398133	1
H	3.027862	0.216022	-0.893753	1
H	1.143412	2.357092	0.580807	1
Es	-0.569703	-0.218793	0.282765	99
Es	-0.653764	1.140188	0.473866	99
Es	-0.826656	1.524007	0.193159	99
Es	1.581719	1.190463	0.718347	99
Es	2.660688	0.204643	-0.904388	99
Es	-1.665350	-0.823002	0.220329	99
Es	-0.222552	0.452384	0.281873	99
Es	-2.743855	-1.447339	0.172276	99
Es	1.729424	1.665129	1.117225	99
Es	0.536401	0.434642	0.334694	99
Es	2.050032	1.721992	0.807872	99
Es	-2.711374	-0.353146	0.689756	99
Es	-0.924503	-0.893196	0.294983	99
Es	1.435795	2.044261	0.732468	99
Es	1.305013	0.434248	0.392006	99
Es	1.935196	0.198717	-0.968715	99
Es	-1.089749	1.689045	0.165865	99
Es	-0.629717	1.595794	0.208348	99
Es	1.773989	1.678879	0.899022	99
Es	1.720441	-0.464078	-1.251314	99
Es	-2.597608	-0.455915	-0.501454	99
Es	-0.611603	1.133629	-0.032947	99
Es	-0.643498	-1.293359	-0.252134	99
Es	1.595625	0.303522	-0.295389	99
Es	1.731616	0.743540	-1.437401	99
Es	1.501632	-0.109627	0.868587	99
Es	-2.429892	-0.765461	0.145522	99
Es	-0.755049	-1.210587	0.931634	99
