47
Properties=species:S:1:pos:R:3:Z:I:1 energy=-309.12056499546105 field_type=dipole dipole="0.000000 0.000000 0.000000" charge=0
C	-2.675912	1.508807	-0.559042	6
C	-1.562783	0.834667	0.217318	6
O	-0.996662	-0.187943	-0.597502	8
C	0.074068	-0.891693	0.059598	6
C	1.049408	-1.568683	-0.866742	6
C	1.453748	-0.319283	-0.133182	6
C	2.445047	-0.377873	0.977098	6
H	-3.130572	2.311857	0.028208	1
H	-3.451882	0.784357	-0.827462	1
H	-2.293902	1.928307	-1.495852	1
H	-1.960083	0.393507	1.137508	1
H	-0.790883	1.568017	0.475968	1
H	-0.152092	-1.411383	0.985788	1
H	0.865767	-1.496313	-1.932202	1
H	1.465768	-2.518133	-0.552622	1
H	1.544998	0.595357	-0.708842	1
H	2.404808	-1.329583	1.515408	1
H	2.253668	0.427067	1.692828	1
H	3.457498	-0.251063	0.583728	1
Es	-1.029829	1.343019	0.401154	99
Es	-1.222771	-0.393175	-0.640131	99
Es	-0.996577	-0.187871	-0.597238	99
Es	-1.835689	0.531567	0.858308	99
Es	-1.562721	0.834518	0.217170	99
Es	1.049379	-1.568566	-0.866619	99
Es	-2.675896	1.508806	-0.559017	99
Es	1.423348	-0.960881	-0.582665	99
Es	1.946315	-0.365456	0.425524	99
Es	1.505497	0.298332	-0.526541	99
Es	1.335865	-2.209921	-0.644670	99
Es	0.725671	-0.460624	0.100615	99
Es	-0.084258	-1.235290	0.697737	99
Es	0.074043	-0.891592	0.059390	99
Es	2.312785	0.172111	1.464330	99
Es	-2.122041	1.173039	-0.172100	99
Es	-0.593457	-0.438549	-0.315697	99
Es	0.437936	-1.366555	-0.443286	99
Es	-3.203678	1.016638	-0.734143	99
Es	0.924177	-1.517029	-1.581963	99
Es	-1.185204	0.190366	-0.261265	99
Es	2.445036	-0.377875	0.977089	99
Es	-0.861354	-0.043552	-0.831662	99
Es	1.453662	-0.319424	-0.133196	99
Es	2.411319	-1.030180	1.341751	99
Es	-2.980238	2.054669	-0.151606	99
Es	3.134242	-0.292450	0.707758	99
Es	-2.411880	1.798058	-1.190366	99
47
Properties=species:S:1:pos:R:3:Z:I:1 energy=-309.12056499546105 field_type=dipole dipole="0.000000 0.000000 0.000000" charge=0
C	-2.675912	1.508807	-0.559042	6
C	-1.562783	0.834667	0.217318	6
O	-0.996662	-0.187943	-0.597502	8
C	0.074068	-0.891693	0.059598	6
C	1.049408	-1.568683	-0.866742	6
C	1.453748	-0.319283	-0.133182	6
C	2.445047	-0.377873	0.977098	6
H	-3.130572	2.311857	0.028208	1
H	-3.451882	0.784357	-0.827462	1
H	-2.293902	1.928307	-1.495852	1
H	-1.960083	0.393507	1.137508	1
H	-0.790883	1.568017	0.475968	1
H	-0.152092	-1.411383	0.985788	1
H	0.865767	-1.496313	-1.932202	1
H	1.465768	-2.518133	-0.552622	1
H	1.544998	0.595357	-0.708842	1
H	2.404808	-1.329583	1.515408	1
H	2.253668	0.427067	1.692828	1
H	3.457498	-0.251063	0.583728	1
Es	-2.980266	2.055756	-0.150730	99
Es	2.312078	0.172915	1.465095	99
Es	2.445035	-0.377876	0.977089	99
Es	0.074038	-0.891580	0.059397	99
Es	-2.411480	1.797318	-1.189852	99
Es	-2.122175	1.173051	-0.172770	99
Es	-1.562720	0.834516	0.217170	99
Es	-1.029742	1.343723	0.401305	99
Es	-2.675895	1.508806	-0.559016	99
Es	1.505669	0.298190	-0.525738	99
Es	1.049371	-1.568563	-0.866618	99
Es	-3.203399	1.015736	-0.734364	99
Es	-1.836262	0.531621	0.858016	99
Es	-0.594106	-0.437443	-0.316548	99
Es	-1.184961	0.192236	-0.260880	99
Es	2.410887	-1.029873	1.340822	99
Es	3.134595	-0.292998	0.706993	99
Es	1.946365	-0.365602	0.425670	99
Es	-0.996602	-0.187908	-0.597211	99
Es	-0.084236	-1.234703	0.697447	99
Es	1.425003	-0.961731	-0.583966	99
Es	1.453664	-0.319424	-0.133195	99
Es	0.437016	-1.367357	-0.443657	99
Es	1.335703	-2.209697	-0.645176	99
Es	-1.222742	-0.394585	-0.640699	99
Es	-0.860737	-0.045268	-0.830563	99
Es	0.924599	-1.517231	-1.581210	99
Es	0.724982	-0.459896	0.101852	99
47
Properties=species:S:1:pos:R:3:Z:I:1 energy=-309.12056499546105 field_type=dipole dipole="0.000000 0.000000 0.000000" charge=0
C	-2.675912	1.508807	-0.559042	6
C	-1.562783	0.834667	0.217318	6
O	-0.996662	-0.187943	-0.597502	8
C	0.074068	-0.891693	0.059598	6
C	1.049408	-1.568683	-0.866742	6
C	1.453748	-0.319283	-0.133182	6
C	2.445047	-0.377873	0.977098	6
H	-3.130572	2.311857	0.028208	1
H	-3.451882	0.784357	-0.827462	1
H	-2.293902	1.928307	-1.495852	1
H	-1.960083	0.393507	1.137508	1
H	-0.790883	1.568017	0.475968	1
H	-0.152092	-1.411383	0.985788	1
H	0.865767	-1.496313	-1.932202	1
H	1.465768	-2.518133	-0.552622	1
H	1.544998	0.595357	-0.708842	1
H	2.404808	-1.329583	1.515408	1
H	2.253668	0.427067	1.692828	1
H	3.457498	-0.251063	0.583728	1
Es	-1.185848	0.192069	-0.259869	99
Es	1.453664	-0.319424	-0.133195	99
Es	1.049371	-1.568564	-0.866619	99
Es	-0.859075	-0.044397	-0.826310	99
Es	-1.562719	0.834514	0.217169	99
Es	2.445035	-0.377875	0.977089	99
Es	-2.675895	1.508805	-0.559015	99
Es	-2.980190	2.056388	-0.150249	99
Es	0.436347	-1.367971	-0.443946	99
Es	-1.222984	-0.396158	-0.645339	99
Es	-2.411086	1.796816	-1.189699	99
Es	0.074034	-0.891589	0.059393	99
Es	0.724505	-0.459398	0.102733	99
Es	2.410516	-1.029635	1.340149	99
Es	-0.996590	-0.187875	-0.597132	99
Es	-0.594592	-0.436814	-0.317211	99
Es	0.925020	-1.517247	-1.580736	99
Es	-3.203245	1.015277	-0.734362	99
Es	-1.029718	1.344187	0.401355	99
Es	1.425946	-0.962199	-0.584619	99
Es	3.134936	-0.293331	0.706415	99
Es	1.946394	-0.365704	0.425856	99
Es	1.505840	0.298112	-0.525208	99
Es	1.335726	-2.209524	-0.645531	99
Es	-1.836611	0.531713	0.857828	99
Es	2.311512	0.173345	1.465566	99
Es	-2.122430	1.173003	-0.173023	99
Es	-0.084179	-1.234394	0.697171	99
47
Properties=species:S:1:pos:R:3:Z:I:1 energy=-309.12056499546105 field_type=dipole dipole="0.000000 0.000000 0.000000" charge=0
C	-2.675912	1.508807	-0.559042	6
C	-1.562783	0.834667	0.217318	6
O	-0.996662	-0.187943	-0.597502	8
C	0.074068	-0.891693	0.059598	6
C	1.049408	-1.568683	-0.866742	6
C	1.453748	-0.319283	-0.133182	6
C	2.445047	-0.377873	0.977098	6
H	-3.130572	2.311857	0.028208	1
H	-3.451882	0.784357	-0.827462	1
H	-2.293902	1.928307	-1.495852	1
H	-1.960083	0.393507	1.137508	1
H	-0.790883	1.568017	0.475968	1
H	-0.152092	-1.411383	0.985788	1
H	0.865767	-1.496313	-1.932202	1
H	1.465768	-2.518133	-0.552622	1
H	1.544998	0.595357	-0.708842	1
H	2.404808	-1.329583	1.515408	1
H	2.253668	0.427067	1.692828	1
H	3.457498	-0.251063	0.583728	1
Es	-1.222682	-0.398117	-0.643154	99
Es	0.436252	-1.368211	-0.444127	99
Es	0.924930	-1.517448	-1.580287	99
Es	2.311136	0.173623	1.465926	99
Es	-2.122543	1.173025	-0.173333	99
Es	3.135103	-0.293558	0.706038	99
Es	1.335684	-2.209494	-0.645702	99
Es	0.724100	-0.458869	0.103502	99
Es	-1.562720	0.834510	0.217165	99
Es	-2.980291	2.056773	-0.149783	99
Es	1.506092	0.297979	-0.524912	99
Es	1.946327	-0.365911	0.425841	99
Es	2.410396	-1.029379	1.339685	99
Es	1.453660	-0.319423	-0.133195	99
Es	-1.029751	1.344483	0.401335	99
Es	-1.185570	0.192883	-0.259822	99
Es	0.074046	-0.891593	0.059390	99
Es	-1.836892	0.531767	0.857771	99
Es	1.426634	-0.962442	-0.585230	99
Es	2.445036	-0.377875	0.977089	99
Es	-2.675895	1.508806	-0.559015	99
Es	-2.410825	1.796570	-1.189417	99
Es	1.049369	-1.568565	-0.866620	99
Es	-0.593719	-0.434524	-0.318380	99
Es	-3.202973	1.014870	-0.734568	99
Es	-0.860557	-0.045704	-0.827326	99
Es	-0.996480	-0.187801	-0.597175	99
Es	-0.084183	-1.234242	0.696967	99
47
Properties=species:S:1:pos:R:3:Z:I:1 energy=-309.12056499546105 field_type=dipole dipole="0.000000 0.000000 0.000000" charge=0
C	-2.675912	1.508807	-0.559042	6
C	-1.562783	0.834667	0.217318	6
O	-0.996662	-0.187943	-0.597502	8
C	0.074068	-0.891693	0.059598	6
C	1.049408	-1.568683	-0.866742	6
C	1.453748	-0.319283	-0.133182	6
C	2.445047	-0.377873	0.977098	6
H	-3.130572	2.311857	0.028208	1
H	-3.451882	0.784357	-0.827462	1
H	-2.293902	1.928307	-1.495852	1
H	-1.960083	0.393507	1.137508	1
H	-0.790883	1.568017	0.475968	1
H	-0.152092	-1.411383	0.985788	1
H	0.865767	-1.496313	-1.932202	1
H	1.465768	-2.518133	-0.552622	1
H	1.544998	0.595357	-0.708842	1
H	2.404808	-1.329583	1.515408	1
H	2.253668	0.427067	1.692828	1
H	3.457498	-0.251063	0.583728	1
Es	1.506128	0.297895	-0.524594	99
Es	1.427133	-0.962822	-0.585730	99
Es	2.445035	-0.377876	0.977089	99
Es	0.435618	-1.368368	-0.444167	99
Es	1.335731	-2.209482	-0.645931	99
Es	-0.858791	-0.044832	-0.824587	99
Es	-1.029764	1.344773	0.401387	99
Es	-1.185871	0.192646	-0.259175	99
Es	-3.202847	1.014538	-0.734559	99
Es	-2.675896	1.508806	-0.559017	99
Es	-0.996582	-0.187862	-0.597181	99
Es	0.724082	-0.458594	0.103743	99
Es	-1.837087	0.531777	0.857635	99
Es	1.049375	-1.568565	-0.866620	99
Es	-0.084171	-1.234083	0.696935	99
Es	-2.980264	2.057080	-0.149538	99
Es	1.946420	-0.365801	0.425977	99
Es	-0.594675	-0.434700	-0.318442	99
Es	2.410063	-1.029348	1.339423	99
Es	-1.222980	-0.398599	-0.646450	99
Es	3.135341	-0.293690	0.705783	99
Es	-1.562720	0.834515	0.217169	99
Es	0.074035	-0.891588	0.059393	99
Es	-2.122596	1.173037	-0.173521	99
Es	-2.410728	1.796326	-1.189279	99
Es	1.453664	-0.319418	-0.133195	99
Es	0.925207	-1.517399	-1.579897	99
Es	2.310822	0.173766	1.466011	99
47
Properties=species:S:1:pos:R:3:Z:I:1 energy=-309.12056499546105 field_type=dipole dipole="0.000000 0.000000 0.000000" charge=0
C	-2.675912	1.508807	-0.559042	6
C	-1.562783	0.834667	0.217318	6
O	-0.996662	-0.187943	-0.597502	8
C	0.074068	-0.891693	0.059598	6
C	1.049408	-1.568683	-0.866742	6
C	1.453748	-0.319283	-0.133182	6
C	2.445047	-0.377873	0.977098	6
H	-3.130572	2.311857	0.028208	1
H	-3.451882	0.784357	-0.827462	1
H	-2.293902	1.928307	-1.495852	1
H	-1.960083	0.393507	1.137508	1
H	-0.790883	1.568017	0.475968	1
H	-0.152092	-1.411383	0.985788	1
H	0.865767	-1.496313	-1.932202	1
H	1.465768	-2.518133	-0.552622	1
H	1.544998	0.595357	-0.708842	1
H	2.404808	-1.329583	1.515408	1
H	2.253668	0.427067	1.692828	1
H	3.457498	-0.251063	0.583728	1
Es	2.310563	0.173929	1.466136	99
Es	-1.222304	-0.400144	-0.644177	99
Es	1.453662	-0.319422	-0.133194	99
Es	-1.029766	1.345046	0.401342	99
Es	1.335691	-2.209547	-0.646120	99
Es	3.135430	-0.293786	0.705587	99
Es	-2.980168	2.057256	-0.149279	99
Es	-0.996338	-0.187683	-0.597227	99
Es	0.723732	-0.458404	0.104334	99
Es	-1.837246	0.531821	0.857573	99
Es	-2.675895	1.508806	-0.559016	99
Es	1.946439	-0.365962	0.425916	99
Es	2.445035	-0.377876	0.977088	99
Es	-0.593129	-0.432587	-0.319656	99
Es	-1.186062	0.192625	-0.258952	99
Es	2.409992	-1.029229	1.339210	99
Es	1.049373	-1.568563	-0.866620	99
Es	0.435598	-1.368614	-0.444403	99
Es	-3.202810	1.014282	-0.734614	99
Es	-1.562719	0.834515	0.217168	99
Es	-0.861069	-0.045605	-0.825778	99
Es	-2.122786	1.172988	-0.173672	99
Es	0.925285	-1.517346	-1.579590	99
Es	1.506267	0.297890	-0.524506	99
Es	-0.084134	-1.233932	0.696744	99
Es	0.074034	-0.891586	0.059393	99
Es	1.427492	-0.962949	-0.585864	99
Es	-2.410484	1.796209	-1.189162	99
47
Properties=species:S:1:pos:R:3:Z:I:1 energy=-309.12056499546105 field_type=dipole dipole="0.000000 0.000000 0.000000" charge=0
C	-2.675912	1.508807	-0.559042	6
C	-1.562783	0.834667	0.217318	6
O	-0.996662	-0.187943	-0.597502	8
C	0.074068	-0.891693	0.059598	6
C	1.049408	-1.568683	-0.866742	6
C	1.453748	-0.319283	-0.133182	6
C	2.445047	-0.377873	0.977098	6
H	-3.130572	2.311857	0.028208	1
H	-3.451882	0.784357	-0.827462	1
H	-2.293902	1.928307	-1.495852	1
H	-1.960083	0.393507	1.137508	1
H	-0.790883	1.568017	0.475968	1
H	-0.152092	-1.411383	0.985788	1
H	0.865767	-1.496313	-1.932202	1
H	1.465768	-2.518133	-0.552622	1
H	1.544998	0.595357	-0.708842	1
H	2.404808	-1.329583	1.515408	1
H	2.253668	0.427067	1.692828	1
H	3.457498	-0.251063	0.583728	1
Es	-1.222187	-0.399698	-0.647176	99
Es	2.445035	-0.377875	0.977089	99
Es	-2.410335	1.796046	-1.189013	99
Es	-0.594543	-0.433585	-0.318939	99
Es	1.946486	-0.365912	0.425942	99
Es	1.335760	-2.209451	-0.646339	99
Es	-2.122847	1.172961	-0.173741	99
Es	-1.186743	0.192903	-0.258897	99
Es	0.925373	-1.517307	-1.579388	99
Es	0.435300	-1.368760	-0.444351	99
Es	2.409789	-1.029154	1.338960	99
Es	1.427827	-0.963144	-0.586027	99
Es	3.135544	-0.293952	0.705368	99
Es	0.074037	-0.891588	0.059392	99
Es	1.506384	0.297811	-0.524416	99
Es	0.723573	-0.458161	0.104689	99
Es	2.310406	0.174050	1.466282	99
Es	-0.996563	-0.187877	-0.597134	99
Es	1.453662	-0.319423	-0.133195	99
Es	-1.562718	0.834516	0.217168	99
Es	-1.029753	1.345212	0.401330	99
Es	-3.202747	1.014120	-0.734703	99
Es	-0.084146	-1.233918	0.696643	99
Es	-2.675894	1.508803	-0.559017	99
Es	-1.837388	0.531819	0.857536	99
Es	-2.980151	2.057461	-0.149144	99
Es	-0.858849	-0.045201	-0.823641	99
Es	1.049371	-1.568566	-0.866620	99
47
Properties=species:S:1:pos:R:3:Z:I:1 energy=-309.12056499546105 field_type=dipole dipole="0.000000 0.000000 0.000000" charge=0
C	-2.675912	1.508807	-0.559042	6
C	-1.562783	0.834667	0.217318	6
O	-0.996662	-0.187943	-0.597502	8
C	0.074068	-0.891693	0.059598	6
C	1.049408	-1.568683	-0.866742	6
C	1.453748	-0.319283	-0.133182	6
C	2.445047	-0.377873	0.977098	6
H	-3.130572	2.311857	0.028208	1
H	-3.451882	0.784357	-0.827462	1
H	-2.293902	1.928307	-1.495852	1
H	-1.960083	0.393507	1.137508	1
H	-0.790883	1.568017	0.475968	1
H	-0.152092	-1.411383	0.985788	1
H	0.865767	-1.496313	-1.932202	1
H	1.465768	-2.518133	-0.552622	1
H	1.544998	0.595357	-0.708842	1
H	2.404808	-1.329583	1.515408	1
H	2.253668	0.427067	1.692828	1
H	3.457498	-0.251063	0.583728	1
Es	1.335642	-2.209465	-0.646440	99
Es	1.946572	-0.365946	0.426020	99
Es	-1.185823	0.193746	-0.259164	99
Es	-2.410217	1.795938	-1.188974	99
Es	2.409682	-1.029126	1.338747	99
Es	-1.562719	0.834514	0.217168	99
Es	3.135552	-0.294072	0.705182	99
Es	2.310271	0.174200	1.466419	99
Es	-2.122887	1.172951	-0.173839	99
Es	0.074035	-0.891588	0.059392	99
Es	-0.084095	-1.233722	0.696668	99
Es	1.453659	-0.319424	-0.133194	99
Es	-2.980076	2.057582	-0.149051	99
Es	-0.861984	-0.046709	-0.825387	99
Es	1.428075	-0.963127	-0.585894	99
Es	-1.029800	1.345312	0.401346	99
Es	1.049369	-1.568569	-0.866622	99
Es	-0.996575	-0.187880	-0.597175	99
Es	-1.222101	-0.401210	-0.643479	99
Es	0.723465	-0.458224	0.104789	99
Es	0.925555	-1.517246	-1.579250	99
Es	-3.202753	1.014024	-0.734690	99
Es	-0.592319	-0.431373	-0.320506	99
Es	1.506435	0.297833	-0.524353	99
Es	2.445035	-0.377874	0.977088	99
Es	-1.837533	0.531850	0.857498	99
Es	0.435108	-1.369068	-0.444621	99
Es	-2.675894	1.508807	-0.559014	99
47
Properties=species:S:1:pos:R:3:Z:I:1 energy=-309.12056499546105 field_type=dipole dipole="0.000000 0.000000 0.000000" charge=0
C	-2.675912	1.508807	-0.559042	6
C	-1.562783	0.834667	0.217318	6
O	-0.996662	-0.187943	-0.597502	8
C	0.074068	-0.891693	0.059598	6
C	1.049408	-1.568683	-0.866742	6
C	1.453748	-0.319283	-0.133182	6
C	2.445047	-0.377873	0.977098	6
H	-3.130572	2.311857	0.028208	1
H	-3.451882	0.784357	-0.827462	1
H	-2.293902	1.928307	-1.495852	1
H	-1.960083	0.393507	1.137508	1
H	-0.790883	1.568017	0.475968	1
H	-0.152092	-1.411383	0.985788	1
H	0.865767	-1.496313	-1.932202	1
H	1.465768	-2.518133	-0.552622	1
H	1.544998	0.595357	-0.708842	1
H	2.404808	-1.329583	1.515408	1
H	2.253668	0.427067	1.692828	1
H	3.457498	-0.251063	0.583728	1
Es	0.723229	-0.457986	0.105161	99
Es	-3.202591	1.013894	-0.734728	99
Es	-0.084129	-1.233736	0.696535	99
Es	2.445036	-0.377876	0.977089	99
Es	-2.410175	1.795833	-1.188899	99
Es	1.335707	-2.209500	-0.646531	99
Es	1.049372	-1.568564	-0.866619	99
Es	1.946600	-0.366008	0.425995	99
Es	2.310165	0.174243	1.466445	99
Es	-2.122920	1.173001	-0.173945	99
Es	-2.980143	2.057712	-0.148878	99
Es	1.506486	0.297730	-0.524147	99
Es	-2.675895	1.508806	-0.559016	99
Es	1.428360	-0.963119	-0.586396	99
Es	-0.592829	-0.431212	-0.320522	99
Es	-1.029794	1.345384	0.401372	99
Es	-0.861625	-0.046936	-0.825415	99
Es	-1.185794	0.193962	-0.259148	99
Es	-1.837617	0.531840	0.857451	99
Es	-0.996475	-0.187801	-0.597178	99
Es	-1.222074	-0.401521	-0.643531	99
Es	0.435128	-1.369007	-0.444592	99
Es	-1.562719	0.834515	0.217168	99
Es	3.135610	-0.294104	0.705089	99
Es	0.925439	-1.517324	-1.578970	99
Es	0.074037	-0.891588	0.059392	99
Es	1.453661	-0.319424	-0.133194	99
Es	2.409635	-1.029081	1.338675	99
47
Properties=species:S:1:pos:R:3:Z:I:1 energy=-309.12056499546105 field_type=dipole dipole="0.000000 0.000000 0.000000" charge=0
C	-2.675912	1.508807	-0.559042	6
C	-1.562783	0.834667	0.217318	6
O	-0.996662	-0.187943	-0.597502	8
C	0.074068	-0.891693	0.059598	6
C	1.049408	-1.568683	-0.866742	6
C	1.453748	-0.319283	-0.133182	6
C	2.445047	-0.377873	0.977098	6
H	-3.130572	2.311857	0.028208	1
H	-3.451882	0.784357	-0.827462	1
H	-2.293902	1.928307	-1.495852	1
H	-1.960083	0.393507	1.137508	1
H	-0.790883	1.568017	0.475968	1
H	-0.152092	-1.411383	0.985788	1
H	0.865767	-1.496313	-1.932202	1
H	1.465768	-2.518133	-0.552622	1
H	1.544998	0.595357	-0.708842	1
H	2.404808	-1.329583	1.515408	1
H	2.253668	0.427067	1.692828	1
H	3.457498	-0.251063	0.583728	1
Es	-1.562720	0.834515	0.217169	99
Es	0.925476	-1.517276	-1.578790	99
Es	-0.084084	-1.233640	0.696519	99
Es	1.049371	-1.568563	-0.866617	99
Es	-3.202513	1.013789	-0.734766	99
Es	3.135710	-0.294150	0.705001	99
Es	-2.123106	1.172940	-0.173999	99
Es	-2.410022	1.795727	-1.188833	99
Es	1.506552	0.297799	-0.524103	99
Es	-1.837668	0.531841	0.857353	99
Es	-2.675895	1.508806	-0.559016	99
Es	-1.186294	0.193325	-0.258599	99
Es	-0.860638	-0.045925	-0.823854	99
Es	2.445035	-0.377875	0.977089	99
Es	-1.222058	-0.401778	-0.645610	99
Es	-1.029792	1.345544	0.401405	99
Es	0.434935	-1.369062	-0.444540	99
Es	2.409578	-1.028975	1.338642	99
Es	2.310028	0.174300	1.466424	99
Es	0.723190	-0.457989	0.105236	99
Es	1.453658	-0.319425	-0.133195	99
Es	1.428571	-0.963327	-0.586555	99
Es	-0.996553	-0.187897	-0.597130	99
Es	0.074033	-0.891587	0.059393	99
Es	-2.980156	2.057834	-0.148783	99
Es	1.335784	-2.209507	-0.646671	99
Es	-0.593216	-0.431220	-0.320517	99
Es	1.946476	-0.366089	0.426008	99
47
Properties=species:S:1:pos:R:3:Z:I:1 energy=-309.12056499546105 field_type=dipole dipole="0.000000 0.000000 0.000000" charge=0
C	-2.675912	1.508807	-0.559042	6
C	-1.562783	0.834667	0.217318	6
O	-0.996662	-0.187943	-0.597502	8
C	0.074068	-0.891693	0.059598	6
C	1.049408	-1.568683	-0.866742	6
C	1.453748	-0.319283	-0.133182	6
C	2.445047	-0.377873	0.977098	6
H	-3.130572	2.311857	0.028208	1
H	-3.451882	0.784357	-0.827462	1
H	-2.293902	1.928307	-1.495852	1
H	-1.960083	0.393507	1.137508	1
H	-0.790883	1.568017	0.475968	1
H	-0.152092	-1.411383	0.985788	1
H	0.865767	-1.496313	-1.932202	1
H	1.465768	-2.518133	-0.552622	1
H	1.544998	0.595357	-0.708842	1
H	2.404808	-1.329583	1.515408	1
H	2.253668	0.427067	1.692828	1
H	3.457498	-0.251063	0.583728	1
Es	-1.185659	0.193228	-0.258447	99
Es	-2.675895	1.508806	-0.559016	99
Es	-2.980227	2.057896	-0.148747	99
Es	0.074033	-0.891588	0.059392	99
Es	0.925525	-1.517259	-1.578707	99
Es	-3.202441	1.013748	-0.734866	99
Es	-2.410084	1.795695	-1.188714	99
Es	3.135768	-0.294206	0.704830	99
Es	1.506516	0.297675	-0.523959	99
Es	-0.996629	-0.187848	-0.597380	99
Es	1.453658	-0.319425	-0.133195	99
Es	1.428823	-0.963437	-0.586753	99
Es	-0.084069	-1.233598	0.696462	99
Es	-1.837742	0.531884	0.857309	99
Es	-1.222424	-0.402206	-0.644552	99
Es	1.049374	-1.568563	-0.866619	99
Es	2.409426	-1.029006	1.338433	99
Es	1.335711	-2.209604	-0.646663	99
Es	2.309887	0.174352	1.466536	99
Es	2.445034	-0.377876	0.977088	99
Es	-0.593021	-0.430804	-0.321112	99
Es	-1.029794	1.345597	0.401423	99
Es	-2.122956	1.172905	-0.174001	99
Es	-1.562721	0.834510	0.217169	99
Es	0.434927	-1.368972	-0.444576	99
Es	0.723075	-0.457897	0.105342	99
Es	-0.861049	-0.045920	-0.824225	99
Es	1.946637	-0.365953	0.426208	99
47
Properties=species:S:1:pos:R:3:Z:I:1 energy=-309.12056499546105 field_type=dipole dipole="0.000000 0.000000 0.000000" charge=0
C	-2.675912	1.508807	-0.559042	6
C	-1.562783	0.834667	0.217318	6
O	-0.996662	-0.187943	-0.597502	8
C	0.074068	-0.891693	0.059598	6
C	1.049408	-1.568683	-0.866742	6
C	1.453748	-0.319283	-0.133182	6
C	2.445047	-0.377873	0.977098	6
H	-3.130572	2.311857	0.028208	1
H	-3.451882	0.784357	-0.827462	1
H	-2.293902	1.928307	-1.495852	1
H	-1.960083	0.393507	1.137508	1
H	-0.790883	1.568017	0.475968	1
H	-0.152092	-1.411383	0.985788	1
H	0.865767	-1.496313	-1.932202	1
H	1.465768	-2.518133	-0.552622	1
H	1.544998	0.595357	-0.708842	1
H	2.404808	-1.329583	1.515408	1
H	2.253668	0.427067	1.692828	1
H	3.457498	-0.251063	0.583728	1
Es	1.335767	-2.209552	-0.646730	99
Es	-0.591864	-0.429688	-0.321514	99
Es	-3.202500	1.013645	-0.734727	99
Es	-2.980077	2.057983	-0.148696	99
Es	-1.221891	-0.402786	-0.642451	99
Es	-1.837931	0.531896	0.857311	99
Es	-1.562719	0.834516	0.217169	99
Es	-1.029810	1.345667	0.401416	99
Es	0.925548	-1.517299	-1.578550	99
Es	2.409402	-1.028857	1.338378	99
Es	1.428892	-0.963420	-0.586800	99
Es	0.723062	-0.457789	0.105540	99
Es	-0.996570	-0.187881	-0.597120	99
Es	0.074033	-0.891583	0.059395	99
Es	1.453657	-0.319429	-0.133195	99
Es	-0.084078	-1.233528	0.696398	99
Es	-0.862833	-0.047382	-0.825588	99
Es	-2.410043	1.795597	-1.188766	99
Es	1.506609	0.297713	-0.523934	99
Es	-2.675895	1.508807	-0.559017	99
Es	1.049374	-1.568563	-0.866620	99
Es	1.946503	-0.366049	0.426061	99
Es	0.434773	-1.369202	-0.444651	99
Es	2.309815	0.174321	1.466573	99
Es	-1.185575	0.194174	-0.259041	99
Es	3.135879	-0.294255	0.704834	99
Es	-2.122882	1.172956	-0.174102	99
Es	2.445035	-0.377876	0.977089	99
