45
Properties=species:S:1:pos:R:3:Z:I:1 energy=-344.9479849866962 field_type=dipole dipole="0.000000 0.000000 0.000000" charge=0
C	-2.718394	0.629869	0.433549	6
C	-1.274664	0.322269	0.774029	6
O	-0.666835	-0.306451	-0.353351	8
C	0.700645	-0.686251	-0.103191	6
C	1.559596	-0.809831	-1.330851	6
C	1.750735	0.352439	-0.403331	6
O	2.923096	0.331649	0.426189	8
H	-3.221174	1.118999	1.273399	1
H	-3.259835	-0.288621	0.184219	1
H	-2.777725	1.283199	-0.443161	1
H	-1.227684	-0.348271	1.638469	1
H	-0.738884	1.248479	1.008809	1
H	0.889465	-1.393011	0.698069	1
H	1.097395	-0.616111	-2.292231	1
H	2.308206	-1.591521	-1.352571	1
H	1.407066	1.323019	-0.746611	1
H	3.248995	-0.569851	0.588569	1
Es	-0.822406	-0.567960	-0.398870	99
Es	-0.145979	-0.443061	-0.223197	99
Es	-1.274601	0.322172	0.773842	99
Es	-0.666687	-0.306381	-0.353103	99
Es	0.828747	-1.161532	0.448861	99
Es	2.922901	0.331333	0.426087	99
Es	-0.862859	-0.072931	0.090716	99
Es	-0.644724	-0.089715	-0.569848	99
Es	2.072420	-1.334689	-1.330582	99
Es	1.559552	-0.809760	-1.330693	99
Es	1.168866	-0.071622	-0.083884	99
Es	1.047407	-0.908935	-0.766258	99
Es	-2.754283	1.078099	-0.157558	99
Es	2.479339	0.302971	0.109241	99
Es	-1.239566	-0.140205	1.374498	99
Es	1.789286	-0.175262	-0.990135	99
Es	3.066676	-0.166098	0.493603	99
Es	0.700525	-0.686144	-0.103366	99
Es	-1.998782	0.476214	0.602577	99
Es	1.527315	1.006849	-0.625731	99
Es	-3.084100	0.004450	0.271206	99
Es	-0.904743	0.961436	0.940348	99
Es	1.246829	-0.678501	-1.971745	99
Es	1.750882	0.352252	-0.403235	99
Es	-3.052725	0.962607	1.010496	99
Es	3.140572	0.464142	0.262512	99
Es	2.836166	0.440779	0.698330	99
Es	-2.718369	0.629870	0.433569	99
45
Properties=species:S:1:pos:R:3:Z:I:1 energy=-344.9479849866962 field_type=dipole dipole="0.000000 0.000000 0.000000" charge=0
C	-2.718394	0.629869	0.433549	6
C	-1.274664	0.322269	0.774029	6
O	-0.666835	-0.306451	-0.353351	8
C	0.700645	-0.686251	-0.103191	6
C	1.559596	-0.809831	-1.330851	6
C	1.750735	0.352439	-0.403331	6
O	2.923096	0.331649	0.426189	8
H	-3.221174	1.118999	1.273399	1
H	-3.259835	-0.288621	0.184219	1
H	-2.777725	1.283199	-0.443161	1
H	-1.227684	-0.348271	1.638469	1
H	-0.738884	1.248479	1.008809	1
H	0.889465	-1.393011	0.698069	1
H	1.097395	-0.616111	-2.292231	1
H	2.308206	-1.591521	-1.352571	1
H	1.407066	1.323019	-0.746611	1
H	3.248995	-0.569851	0.588569	1
Es	-0.645176	-0.091613	-0.573115	99
Es	-1.998888	0.476109	0.602412	99
Es	0.700528	-0.686140	-0.103362	99
Es	1.527286	1.006963	-0.625601	99
Es	1.168755	-0.071426	-0.083250	99
Es	2.922852	0.331282	0.426146	99
Es	0.828682	-1.161386	0.448732	99
Es	-0.666689	-0.306405	-0.353079	99
Es	-2.753945	1.077783	-0.157447	99
Es	-0.863963	-0.071563	0.090715	99
Es	2.480337	0.302924	0.109308	99
Es	-2.718369	0.629870	0.433569	99
Es	1.246887	-0.678353	-1.971283	99
Es	1.047595	-0.908470	-0.766874	99
Es	1.789336	-0.175823	-0.990588	99
Es	-0.146618	-0.443092	-0.222551	99
Es	1.750897	0.352267	-0.403223	99
Es	1.559554	-0.809768	-1.330703	99
Es	3.067975	-0.166561	0.491568	99
Es	-0.820133	-0.567344	-0.396239	99
Es	2.836064	0.442321	0.700577	99
Es	-3.052973	0.962974	1.010974	99
Es	-0.904849	0.961510	0.940315	99
Es	2.072437	-1.335331	-1.330757	99
Es	-3.083904	0.004489	0.270918	99
Es	-1.274598	0.322167	0.773834	99
Es	-1.239620	-0.140182	1.374574	99
Es	3.138200	0.463174	0.262114	99
45
Properties=species:S:1:pos:R:3:Z:I:1 energy=-344.9479849866962 field_type=dipole dipole="0.000000 0.000000 0.000000" charge=0
C	-2.718394	0.629869	0.433549	6
C	-1.274664	0.322269	0.774029	6
O	-0.666835	-0.306451	-0.353351	8
C	0.700645	-0.686251	-0.103191	6
C	1.559596	-0.809831	-1.330851	6
C	1.750735	0.352439	-0.403331	6
O	2.923096	0.331649	0.426189	8
H	-3.221174	1.118999	1.273399	1
H	-3.259835	-0.288621	0.184219	1
H	-2.777725	1.283199	-0.443161	1
H	-1.227684	-0.348271	1.638469	1
H	-0.738884	1.248479	1.008809	1
H	0.889465	-1.393011	0.698069	1
H	1.097395	-0.616111	-2.292231	1
H	2.308206	-1.591521	-1.352571	1
H	1.407066	1.323019	-0.746611	1
H	3.248995	-0.569851	0.588569	1
Es	-2.718369	0.629870	0.433569	99
Es	-1.998998	0.476129	0.602156	99
Es	-1.274599	0.322169	0.773837	99
Es	2.072716	-1.335440	-1.330890	99
Es	-3.083616	0.004456	0.270954	99
Es	-3.053038	0.963132	1.011372	99
Es	1.527168	1.007131	-0.625389	99
Es	-0.821198	-0.566783	-0.396473	99
Es	2.834834	0.442111	0.700688	99
Es	-1.239683	-0.140150	1.374699	99
Es	2.922955	0.331371	0.426094	99
Es	-0.905001	0.961566	0.940247	99
Es	1.789105	-0.175815	-0.990707	99
Es	-0.146515	-0.444046	-0.223263	99
Es	1.559548	-0.809769	-1.330699	99
Es	2.481152	0.302467	0.109883	99
Es	-2.753889	1.077613	-0.157588	99
Es	0.700529	-0.686141	-0.103365	99
Es	1.246976	-0.678382	-1.970961	99
Es	1.750886	0.352264	-0.403214	99
Es	1.047704	-0.908757	-0.767389	99
Es	-0.666652	-0.306417	-0.353108	99
Es	3.068006	-0.167024	0.491378	99
Es	0.828685	-1.161079	0.448824	99
Es	-0.863233	-0.070217	0.090818	99
Es	-0.644902	-0.092598	-0.572235	99
Es	1.168762	-0.071468	-0.083156	99
Es	3.138326	0.464185	0.261599	99
45
Properties=species:S:1:pos:R:3:Z:I:1 energy=-344.9479849866962 field_type=dipole dipole="0.000000 0.000000 0.000000" charge=0
C	-2.718394	0.629869	0.433549	6
C	-1.274664	0.322269	0.774029	6
O	-0.666835	-0.306451	-0.353351	8
C	0.700645	-0.686251	-0.103191	6
C	1.559596	-0.809831	-1.330851	6
C	1.750735	0.352439	-0.403331	6
O	2.923096	0.331649	0.426189	8
H	-3.221174	1.118999	1.273399	1
H	-3.259835	-0.288621	0.184219	1
H	-2.777725	1.283199	-0.443161	1
H	-1.227684	-0.348271	1.638469	1
H	-0.738884	1.248479	1.008809	1
H	0.889465	-1.393011	0.698069	1
H	1.097395	-0.616111	-2.292231	1
H	2.308206	-1.591521	-1.352571	1
H	1.407066	1.323019	-0.746611	1
H	3.248995	-0.569851	0.588569	1
Es	2.922951	0.331362	0.426072	99
Es	-0.905086	0.961633	0.940304	99
Es	-1.239818	-0.140200	1.374717	99
Es	1.047384	-0.908694	-0.767671	99
Es	3.068310	-0.167404	0.491250	99
Es	2.834734	0.443872	0.701382	99
Es	2.482039	0.302464	0.109173	99
Es	1.789225	-0.175764	-0.990773	99
Es	1.168841	-0.071653	-0.083124	99
Es	3.137136	0.462811	0.261698	99
Es	-1.274597	0.322167	0.773833	99
Es	1.247244	-0.678147	-1.970602	99
Es	-0.643961	-0.092719	-0.571269	99
Es	-0.821050	-0.566663	-0.397917	99
Es	-3.053240	0.963175	1.011541	99
Es	1.559553	-0.809767	-1.330700	99
Es	2.072724	-1.335819	-1.331062	99
Es	-2.718369	0.629870	0.433569	99
Es	-0.146670	-0.443983	-0.222985	99
Es	1.527084	1.007236	-0.625248	99
Es	-0.666655	-0.306395	-0.353059	99
Es	0.700525	-0.686145	-0.103368	99
Es	1.750895	0.352263	-0.403227	99
Es	0.828631	-1.161075	0.448816	99
Es	-0.864060	-0.070191	0.090935	99
Es	-1.999027	0.476016	0.602241	99
Es	-3.083425	0.004550	0.270860	99
Es	-2.753659	1.077576	-0.157700	99
45
Properties=species:S:1:pos:R:3:Z:I:1 energy=-344.9479849866962 field_type=dipole dipole="0.000000 0.000000 0.000000" charge=0
C	-2.718394	0.629869	0.433549	6
C	-1.274664	0.322269	0.774029	6
O	-0.666835	-0.306451	-0.353351	8
C	0.700645	-0.686251	-0.103191	6
C	1.559596	-0.809831	-1.330851	6
C	1.750735	0.352439	-0.403331	6
O	2.923096	0.331649	0.426189	8
H	-3.221174	1.118999	1.273399	1
H	-3.259835	-0.288621	0.184219	1
H	-2.777725	1.283199	-0.443161	1
H	-1.227684	-0.348271	1.638469	1
H	-0.738884	1.248479	1.008809	1
H	0.889465	-1.393011	0.698069	1
H	1.097395	-0.616111	-2.292231	1
H	2.308206	-1.591521	-1.352571	1
H	1.407066	1.323019	-0.746611	1
H	3.248995	-0.569851	0.588569	1
Es	0.700527	-0.686145	-0.103369	99
Es	1.789261	-0.176140	-0.991051	99
Es	-1.999038	0.476045	0.602015	99
Es	2.481940	0.302230	0.110059	99
Es	0.828645	-1.161304	0.448692	99
Es	2.072794	-1.336003	-1.331155	99
Es	-0.147135	-0.445815	-0.222847	99
Es	1.047453	-0.908123	-0.767739	99
Es	-0.905110	0.961712	0.940292	99
Es	1.559552	-0.809768	-1.330701	99
Es	1.527076	1.007327	-0.625243	99
Es	3.136933	0.462252	0.260400	99
Es	3.067970	-0.167748	0.491943	99
Es	-2.718369	0.629871	0.433569	99
Es	-3.083349	0.004476	0.270730	99
Es	-0.822438	-0.565374	-0.401359	99
Es	-1.274598	0.322168	0.773836	99
Es	-0.864140	-0.071426	0.091717	99
Es	-2.753553	1.077397	-0.157585	99
Es	2.835244	0.445009	0.701059	99
Es	-1.239925	-0.140190	1.374750	99
Es	2.922961	0.331359	0.426074	99
Es	1.168717	-0.071658	-0.082772	99
Es	-3.053297	0.963372	1.011754	99
Es	-0.641978	-0.091017	-0.568695	99
Es	1.247269	-0.678039	-1.970445	99
Es	1.750885	0.352259	-0.403223	99
Es	-0.666640	-0.306351	-0.353022	99
45
Properties=species:S:1:pos:R:3:Z:I:1 energy=-344.9479849866962 field_type=dipole dipole="0.000000 0.000000 0.000000" charge=0
C	-2.718394	0.629869	0.433549	6
C	-1.274664	0.322269	0.774029	6
O	-0.666835	-0.306451	-0.353351	8
C	0.700645	-0.686251	-0.103191	6
C	1.559596	-0.809831	-1.330851	6
C	1.750735	0.352439	-0.403331	6
O	2.923096	0.331649	0.426189	8
H	-3.221174	1.118999	1.273399	1
H	-3.259835	-0.288621	0.184219	1
H	-2.777725	1.283199	-0.443161	1
H	-1.227684	-0.348271	1.638469	1
H	-0.738884	1.248479	1.008809	1
H	0.889465	-1.393011	0.698069	1
H	1.097395	-0.616111	-2.292231	1
H	2.308206	-1.591521	-1.352571	1
H	1.407066	1.323019	-0.746611	1
H	3.248995	-0.569851	0.588569	1
Es	1.750889	0.352261	-0.403225	99
Es	-3.083213	0.004483	0.270664	99
Es	-0.645122	-0.092607	-0.573220	99
Es	-2.753496	1.077346	-0.157592	99
Es	1.169142	-0.071460	-0.083027	99
Es	-2.718369	0.629870	0.433569	99
Es	1.526969	1.007453	-0.625123	99
Es	1.559547	-0.809760	-1.330695	99
Es	3.135900	0.462193	0.260165	99
Es	1.789030	-0.176069	-0.990933	99
Es	-0.819714	-0.566643	-0.396187	99
Es	-1.239992	-0.140179	1.374743	99
Es	3.068658	-0.167714	0.490269	99
Es	-0.905050	0.961656	0.940320	99
Es	0.700527	-0.686144	-0.103368	99
Es	2.835814	0.444916	0.702289	99
Es	-0.146918	-0.443447	-0.223232	99
Es	-1.274598	0.322168	0.773835	99
Es	-3.053399	0.963397	1.011885	99
Es	1.247376	-0.678043	-1.970085	99
Es	2.072967	-1.336212	-1.331294	99
Es	2.922917	0.331348	0.426099	99
Es	1.047145	-0.908482	-0.767996	99
Es	-0.863930	-0.070892	0.091570	99
Es	2.481692	0.302350	0.110661	99
Es	-1.999112	0.476158	0.601953	99
Es	-0.666642	-0.306374	-0.353057	99
Es	0.828639	-1.161196	0.448697	99
45
Properties=species:S:1:pos:R:3:Z:I:1 energy=-344.9479849866962 field_type=dipole dipole="0.000000 0.000000 0.000000" charge=0
C	-2.718394	0.629869	0.433549	6
C	-1.274664	0.322269	0.774029	6
O	-0.666835	-0.306451	-0.353351	8
C	0.700645	-0.686251	-0.103191	6
C	1.559596	-0.809831	-1.330851	6
C	1.750735	0.352439	-0.403331	6
O	2.923096	0.331649	0.426189	8
H	-3.221174	1.118999	1.273399	1
H	-3.259835	-0.288621	0.184219	1
H	-2.777725	1.283199	-0.443161	1
H	-1.227684	-0.348271	1.638469	1
H	-0.738884	1.248479	1.008809	1
H	0.889465	-1.393011	0.698069	1
H	1.097395	-0.616111	-2.292231	1
H	2.308206	-1.591521	-1.352571	1
H	1.407066	1.323019	-0.746611	1
H	3.248995	-0.569851	0.588569	1
Es	1.169116	-0.071507	-0.082868	99
Es	-2.718367	0.629871	0.433569	99
Es	2.482142	0.302565	0.110900	99
Es	1.526935	1.007503	-0.625069	99
Es	2.835737	0.445326	0.702628	99
Es	-0.905203	0.961753	0.940222	99
Es	-1.999071	0.475998	0.601935	99
Es	3.068269	-0.168044	0.490029	99
Es	2.922929	0.331313	0.426063	99
Es	-0.643114	-0.092129	-0.571280	99
Es	1.247396	-0.677932	-1.970003	99
Es	3.135868	0.461913	0.259794	99
Es	-0.666676	-0.306411	-0.353033	99
Es	0.828614	-1.161245	0.448683	99
Es	-0.863568	-0.070300	0.091432	99
Es	-1.240006	-0.140178	1.374865	99
Es	-0.821585	-0.565764	-0.398367	99
Es	1.047122	-0.908223	-0.767810	99
Es	-3.083254	0.004500	0.270675	99
Es	1.750893	0.352258	-0.403234	99
Es	-3.053319	0.963432	1.011964	99
Es	2.073035	-1.336267	-1.331381	99
Es	-2.753419	1.077377	-0.157632	99
Es	0.700524	-0.686138	-0.103359	99
Es	1.559551	-0.809770	-1.330702	99
Es	1.789048	-0.176341	-0.991234	99
Es	-1.274597	0.322171	0.773829	99
Es	-0.147341	-0.445354	-0.222933	99
45
Properties=species:S:1:pos:R:3:Z:I:1 energy=-344.9479849866962 field_type=dipole dipole="0.000000 0.000000 0.000000" charge=0
C	-2.718394	0.629869	0.433549	6
C	-1.274664	0.322269	0.774029	6
O	-0.666835	-0.306451	-0.353351	8
C	0.700645	-0.686251	-0.103191	6
C	1.559596	-0.809831	-1.330851	6
C	1.750735	0.352439	-0.403331	6
O	2.923096	0.331649	0.426189	8
H	-3.221174	1.118999	1.273399	1
H	-3.259835	-0.288621	0.184219	1
H	-2.777725	1.283199	-0.443161	1
H	-1.227684	-0.348271	1.638469	1
H	-0.738884	1.248479	1.008809	1
H	0.889465	-1.393011	0.698069	1
H	1.097395	-0.616111	-2.292231	1
H	2.308206	-1.591521	-1.352571	1
H	1.407066	1.323019	-0.746611	1
H	3.248995	-0.569851	0.588569	1
Es	2.922974	0.331318	0.426008	99
Es	-1.240027	-0.140194	1.374833	99
Es	3.135952	0.462195	0.259604	99
Es	1.526919	1.007595	-0.625060	99
Es	2.835141	0.445706	0.702007	99
Es	3.068269	-0.168263	0.490840	99
Es	-2.718369	0.629870	0.433569	99
Es	-0.644395	-0.093192	-0.572480	99
Es	0.828611	-1.161124	0.448735	99
Es	2.073126	-1.336407	-1.331363	99
Es	-3.053331	0.963550	1.012056	99
Es	1.750892	0.352261	-0.403228	99
Es	1.247472	-0.677983	-1.969845	99
Es	-1.274599	0.322168	0.773837	99
Es	-2.753294	1.077302	-0.157652	99
Es	-1.999229	0.476001	0.601870	99
Es	2.482512	0.302126	0.110934	99
Es	1.559555	-0.809768	-1.330704	99
Es	-0.666652	-0.306392	-0.353009	99
Es	1.169166	-0.071511	-0.082892	99
Es	1.047094	-0.908333	-0.768188	99
Es	-0.146886	-0.444559	-0.223285	99
Es	-0.863833	-0.069927	0.091465	99
Es	-0.820460	-0.565819	-0.396784	99
Es	1.788926	-0.176308	-0.991138	99
Es	-0.905163	0.961703	0.940262	99
Es	-3.083239	0.004505	0.270658	99
Es	0.700524	-0.686144	-0.103366	99
45
Properties=species:S:1:pos:R:3:Z:I:1 energy=-344.9479849866962 field_type=dipole dipole="0.000000 0.000000 0.000000" charge=0
C	-2.718394	0.629869	0.433549	6
C	-1.274664	0.322269	0.774029	6
O	-0.666835	-0.306451	-0.353351	8
C	0.700645	-0.686251	-0.103191	6
C	1.559596	-0.809831	-1.330851	6
C	1.750735	0.352439	-0.403331	6
O	2.923096	0.331649	0.426189	8
H	-3.221174	1.118999	1.273399	1
H	-3.259835	-0.288621	0.184219	1
H	-2.777725	1.283199	-0.443161	1
H	-1.227684	-0.348271	1.638469	1
H	-0.738884	1.248479	1.008809	1
H	0.889465	-1.393011	0.698069	1
H	1.097395	-0.616111	-2.292231	1
H	2.308206	-1.591521	-1.352571	1
H	1.407066	1.323019	-0.746611	1
H	3.248995	-0.569851	0.588569	1
Es	3.069204	-0.168363	0.490314	99
Es	-0.666634	-0.306377	-0.353030	99
Es	2.922858	0.331321	0.426107	99
Es	-0.820862	-0.565091	-0.396455	99
Es	-3.083230	0.004387	0.270596	99
Es	1.046940	-0.908433	-0.768185	99
Es	2.482537	0.301847	0.111148	99
Es	1.750893	0.352263	-0.403226	99
Es	1.247661	-0.677842	-1.969628	99
Es	1.788980	-0.176202	-0.991157	99
Es	-1.240058	-0.140142	1.374790	99
Es	-2.753279	1.077263	-0.157561	99
Es	-3.053364	0.963588	1.012012	99
Es	0.828596	-1.161183	0.448639	99
Es	-0.643836	-0.093044	-0.573094	99
Es	-0.905155	0.961786	0.940279	99
Es	2.073170	-1.336365	-1.331595	99
Es	-0.147450	-0.445923	-0.222960	99
Es	-0.863462	-0.069580	0.091384	99
Es	2.835598	0.446497	0.702400	99
Es	3.134643	0.461778	0.259346	99
Es	0.700527	-0.686143	-0.103367	99
Es	-1.999193	0.476052	0.601917	99
Es	-2.718369	0.629870	0.433569	99
Es	-1.274599	0.322168	0.773837	99
Es	1.168947	-0.071525	-0.082596	99
Es	1.559552	-0.809768	-1.330702	99
Es	1.527040	1.007537	-0.625099	99
45
Properties=species:S:1:pos:R:3:Z:I:1 energy=-344.9479849866962 field_type=dipole dipole="0.000000 0.000000 0.000000" charge=0
C	-2.718394	0.629869	0.433549	6
C	-1.274664	0.322269	0.774029	6
O	-0.666835	-0.306451	-0.353351	8
C	0.700645	-0.686251	-0.103191	6
C	1.559596	-0.809831	-1.330851	6
C	1.750735	0.352439	-0.403331	6
O	2.923096	0.331649	0.426189	8
H	-3.221174	1.118999	1.273399	1
H	-3.259835	-0.288621	0.184219	1
H	-2.777725	1.283199	-0.443161	1
H	-1.227684	-0.348271	1.638469	1
H	-0.738884	1.248479	1.008809	1
H	0.889465	-1.393011	0.698069	1
H	1.097395	-0.616111	-2.292231	1
H	2.308206	-1.591521	-1.352571	1
H	1.407066	1.323019	-0.746611	1
H	3.248995	-0.569851	0.588569	1
Es	-3.053302	0.963613	1.012139	99
Es	1.247536	-0.677952	-1.969586	99
Es	-0.864191	-0.070778	0.092105	99
Es	1.559551	-0.809763	-1.330694	99
Es	0.828593	-1.161313	0.448628	99
Es	-0.821579	-0.564453	-0.399932	99
Es	1.750891	0.352262	-0.403224	99
Es	1.526880	1.007670	-0.624977	99
Es	-1.274598	0.322167	0.773834	99
Es	0.700528	-0.686143	-0.103368	99
Es	-1.999065	0.476068	0.601733	99
Es	-2.753347	1.077223	-0.157727	99
Es	1.169099	-0.071708	-0.082723	99
Es	1.047018	-0.908201	-0.768199	99
Es	-0.642127	-0.091765	-0.570260	99
Es	-0.905214	0.961778	0.940241	99
Es	-1.240196	-0.140226	1.374918	99
Es	2.482194	0.302338	0.111845	99
Es	3.068969	-0.168453	0.489282	99
Es	3.134976	0.462481	0.259259	99
Es	1.789007	-0.176122	-0.991270	99
Es	-0.666683	-0.306389	-0.353081	99
Es	2.073224	-1.336445	-1.331555	99
Es	-0.147619	-0.446549	-0.222949	99
Es	-2.718369	0.629870	0.433569	99
Es	2.835693	0.445330	0.702874	99
Es	-3.083162	0.004471	0.270751	99
Es	2.922951	0.331363	0.426053	99
45
Properties=species:S:1:pos:R:3:Z:I:1 energy=-344.9479849866962 field_type=dipole dipole="0.000000 0.000000 0.000000" charge=0
C	-2.718394	0.629869	0.433549	6
C	-1.274664	0.322269	0.774029	6
O	-0.666835	-0.306451	-0.353351	8
C	0.700645	-0.686251	-0.103191	6
C	1.559596	-0.809831	-1.330851	6
C	1.750735	0.352439	-0.403331	6
O	2.923096	0.331649	0.426189	8
H	-3.221174	1.118999	1.273399	1
H	-3.259835	-0.288621	0.184219	1
H	-2.777725	1.283199	-0.443161	1
H	-1.227684	-0.348271	1.638469	1
H	-0.738884	1.248479	1.008809	1
H	0.889465	-1.393011	0.698069	1
H	1.097395	-0.616111	-2.292231	1
H	2.308206	-1.591521	-1.352571	1
H	1.407066	1.323019	-0.746611	1
H	3.248995	-0.569851	0.588569	1
Es	-1.274599	0.322167	0.773835	99
Es	1.169262	-0.071561	-0.082724	99
Es	-0.147525	-0.445750	-0.222862	99
Es	1.788942	-0.176438	-0.991286	99
Es	0.828630	-1.161258	0.448589	99
Es	1.750888	0.352256	-0.403233	99
Es	-2.753216	1.077185	-0.157640	99
Es	1.559555	-0.809769	-1.330704	99
Es	-3.053404	0.963661	1.012215	99
Es	2.482941	0.302381	0.111178	99
Es	2.834450	0.444424	0.702659	99
Es	-0.642988	-0.092380	-0.571542	99
Es	-1.999265	0.476017	0.601759	99
Es	0.700527	-0.686146	-0.103370	99
Es	-0.905286	0.961817	0.940201	99
Es	-0.666682	-0.306552	-0.352913	99
Es	-1.240071	-0.140161	1.374907	99
Es	1.247537	-0.677809	-1.969477	99
Es	1.526874	1.007723	-0.624976	99
Es	1.046961	-0.908099	-0.768204	99
Es	-0.820901	-0.564840	-0.398562	99
Es	-0.864099	-0.070367	0.091852	99
Es	-3.083083	0.004402	0.270603	99
Es	2.922850	0.331314	0.426107	99
Es	2.073225	-1.336644	-1.331641	99
Es	3.069007	-0.168599	0.489091	99
Es	3.135498	0.463531	0.260252	99
Es	-2.718369	0.629870	0.433569	99
45
Properties=species:S:1:pos:R:3:Z:I:1 energy=-344.9479849866962 field_type=dipole dipole="0.000000 0.000000 0.000000" charge=0
C	-2.718394	0.629869	0.433549	6
C	-1.274664	0.322269	0.774029	6
O	-0.666835	-0.306451	-0.353351	8
C	0.700645	-0.686251	-0.103191	6
C	1.559596	-0.809831	-1.330851	6
C	1.750735	0.352439	-0.403331	6
O	2.923096	0.331649	0.426189	8
H	-3.221174	1.118999	1.273399	1
H	-3.259835	-0.288621	0.184219	1
H	-2.777725	1.283199	-0.443161	1
H	-1.227684	-0.348271	1.638469	1
H	-0.738884	1.248479	1.008809	1
H	0.889465	-1.393011	0.698069	1
H	1.097395	-0.616111	-2.292231	1
H	2.308206	-1.591521	-1.352571	1
H	1.407066	1.323019	-0.746611	1
H	3.248995	-0.569851	0.588569	1
Es	-0.819977	-0.565212	-0.396654	99
Es	1.046961	-0.908056	-0.768176	99
Es	1.247565	-0.677912	-1.969315	99
Es	-0.147125	-0.445026	-0.223108	99
Es	-1.999098	0.475946	0.601743	99
Es	1.169205	-0.071673	-0.082723	99
Es	2.834858	0.445832	0.702608	99
Es	1.526880	1.007792	-0.624995	99
Es	-2.718369	0.629871	0.433569	99
Es	-1.274598	0.322168	0.773834	99
Es	-0.905275	0.961917	0.940203	99
Es	-0.864399	-0.069347	0.091490	99
Es	3.069033	-0.168628	0.489831	99
Es	-3.053435	0.963524	1.012287	99
Es	0.828578	-1.161256	0.448634	99
Es	1.789007	-0.176259	-0.991385	99
Es	-0.666661	-0.306382	-0.353033	99
Es	-1.240152	-0.140194	1.374912	99
Es	2.073248	-1.336693	-1.331679	99
Es	-2.753279	1.077278	-0.157592	99
Es	2.922945	0.331338	0.426033	99
Es	1.750891	0.352264	-0.403218	99
Es	2.482916	0.301904	0.111531	99
Es	0.700523	-0.686146	-0.103367	99
Es	-3.083033	0.004479	0.270524	99
Es	1.559553	-0.809767	-1.330700	99
Es	3.134953	0.462586	0.259265	99
Es	-0.644059	-0.093969	-0.572835	99
45
Properties=species:S:1:pos:R:3:Z:I:1 energy=-344.9479849866962 field_type=dipole dipole="0.000000 0.000000 0.000000" charge=0
C	-2.718394	0.629869	0.433549	6
C	-1.274664	0.322269	0.774029	6
O	-0.666835	-0.306451	-0.353351	8
C	0.700645	-0.686251	-0.103191	6
C	1.559596	-0.809831	-1.330851	6
C	1.750735	0.352439	-0.403331	6
O	2.923096	0.331649	0.426189	8
H	-3.221174	1.118999	1.273399	1
H	-3.259835	-0.288621	0.184219	1
H	-2.777725	1.283199	-0.443161	1
H	-1.227684	-0.348271	1.638469	1
H	-0.738884	1.248479	1.008809	1
H	0.889465	-1.393011	0.698069	1
H	1.097395	-0.616111	-2.292231	1
H	2.308206	-1.591521	-1.352571	1
H	1.407066	1.323019	-0.746611	1
H	3.248995	-0.569851	0.588569	1
Es	3.136056	0.465262	0.261213	99
Es	1.559556	-0.809768	-1.330706	99
Es	-3.053500	0.963715	1.012281	99
Es	-0.147578	-0.446419	-0.222911	99
Es	2.073315	-1.336754	-1.331737	99
Es	0.828609	-1.161193	0.448664	99
Es	1.526899	1.007715	-0.624990	99
Es	-0.863602	-0.068790	0.091323	99
Es	-1.999262	0.476071	0.601787	99
Es	-0.905251	0.961825	0.940194	99
Es	2.483810	0.302382	0.110739	99
Es	1.247568	-0.677808	-1.969265	99
Es	3.069286	-0.168753	0.488681	99
Es	1.169110	-0.071570	-0.082594	99
Es	2.832503	0.442769	0.702504	99
Es	-3.082993	0.004395	0.270546	99
Es	-0.643232	-0.093609	-0.572644	99
Es	-2.718369	0.629870	0.433569	99
Es	2.923018	0.331421	0.426121	99
Es	1.750888	0.352260	-0.403225	99
Es	-2.753198	1.077092	-0.157603	99
Es	-1.274599	0.322168	0.773835	99
Es	-1.240044	-0.140152	1.374899	99
Es	-0.821106	-0.564707	-0.396779	99
Es	1.788890	-0.176364	-0.991288	99
Es	1.047055	-0.908131	-0.768476	99
Es	-0.666697	-0.306408	-0.353090	99
Es	0.700526	-0.686145	-0.103369	99
45
Properties=species:S:1:pos:R:3:Z:I:1 energy=-344.9479849866962 field_type=dipole dipole="0.000000 0.000000 0.000000" charge=0
C	-2.718394	0.629869	0.433549	6
C	-1.274664	0.322269	0.774029	6
O	-0.666835	-0.306451	-0.353351	8
C	0.700645	-0.686251	-0.103191	6
C	1.559596	-0.809831	-1.330851	6
C	1.750735	0.352439	-0.403331	6
O	2.923096	0.331649	0.426189	8
H	-3.221174	1.118999	1.273399	1
H	-3.259835	-0.288621	0.184219	1
H	-2.777725	1.283199	-0.443161	1
H	-1.227684	-0.348271	1.638469	1
H	-0.738884	1.248479	1.008809	1
H	0.889465	-1.393011	0.698069	1
H	1.097395	-0.616111	-2.292231	1
H	2.308206	-1.591521	-1.352571	1
H	1.407066	1.323019	-0.746611	1
H	3.248995	-0.569851	0.588569	1
Es	2.073276	-1.336829	-1.331670	99
Es	2.922948	0.331346	0.426046	99
Es	1.047132	-0.907860	-0.768378	99
Es	-1.999197	0.475971	0.601848	99
Es	-0.644264	-0.094199	-0.573282	99
Es	-1.274599	0.322168	0.773835	99
Es	1.559554	-0.809768	-1.330703	99
Es	-0.863668	-0.068795	0.091327	99
Es	-0.905299	0.961848	0.940191	99
Es	3.067550	-0.169201	0.491001	99
Es	3.135100	0.461005	0.256999	99
Es	1.169138	-0.071631	-0.082513	99
Es	2.482778	0.302021	0.113022	99
Es	-2.753218	1.077127	-0.157688	99
Es	-3.082992	0.004488	0.270609	99
Es	1.789012	-0.176352	-0.991521	99
Es	-0.666640	-0.306330	-0.353049	99
Es	-0.147255	-0.445299	-0.223265	99
Es	-0.820383	-0.565331	-0.395862	99
Es	-3.053518	0.963665	1.012236	99
Es	0.828579	-1.161256	0.448560	99
Es	1.526862	1.007778	-0.624918	99
Es	-2.718369	0.629870	0.433569	99
Es	0.700519	-0.686148	-0.103368	99
Es	1.247555	-0.677912	-1.969229	99
Es	-1.240073	-0.140127	1.374902	99
Es	2.836248	0.447872	0.702208	99
Es	1.750881	0.352257	-0.403224	99
45
Properties=species:S:1:pos:R:3:Z:I:1 energy=-344.9479849866962 field_type=dipole dipole="0.000000 0.000000 0.000000" charge=0
C	-2.718394	0.629869	0.433549	6
C	-1.274664	0.322269	0.774029	6
O	-0.666835	-0.306451	-0.353351	8
C	0.700645	-0.686251	-0.103191	6
C	1.559596	-0.809831	-1.330851	6
C	1.750735	0.352439	-0.403331	6
O	2.923096	0.331649	0.426189	8
H	-3.221174	1.118999	1.273399	1
H	-3.259835	-0.288621	0.184219	1
H	-2.777725	1.283199	-0.443161	1
H	-1.227684	-0.348271	1.638469	1
H	-0.738884	1.248479	1.008809	1
H	0.889465	-1.393011	0.698069	1
H	1.097395	-0.616111	-2.292231	1
H	2.308206	-1.591521	-1.352571	1
H	1.407066	1.323019	-0.746611	1
H	3.248995	-0.569851	0.588569	1
Es	-0.147070	-0.444920	-0.223163	99
Es	-0.864011	-0.069323	0.091377	99
Es	-1.274599	0.322169	0.773836	99
Es	-3.053406	0.963587	1.012401	99
Es	0.700528	-0.686146	-0.103371	99
Es	3.134094	0.461870	0.258397	99
Es	-1.240133	-0.140185	1.374981	99
Es	1.750890	0.352260	-0.403227	99
Es	-2.753188	1.077257	-0.157686	99
Es	-3.082944	0.004395	0.270564	99
Es	1.559553	-0.809769	-1.330703	99
Es	0.828581	-1.161246	0.448614	99
Es	1.788968	-0.176294	-0.991355	99
Es	-2.718369	0.629871	0.433569	99
Es	-0.905359	0.961883	0.940157	99
Es	1.169153	-0.071661	-0.082577	99
Es	2.836479	0.446184	0.703331	99
Es	-1.999262	0.476011	0.601709	99
Es	2.482153	0.302619	0.112806	99
Es	2.922947	0.331369	0.426051	99
Es	-0.666671	-0.306411	-0.353008	99
Es	1.247771	-0.677810	-1.969114	99
Es	3.068923	-0.169006	0.488618	99
Es	-0.644410	-0.093912	-0.573261	99
Es	-0.820013	-0.565359	-0.396096	99
Es	1.046820	-0.908053	-0.768446	99
Es	2.073331	-1.336840	-1.331744	99
Es	1.526902	1.007838	-0.624977	99
45
Properties=species:S:1:pos:R:3:Z:I:1 energy=-344.9479849866962 field_type=dipole dipole="0.000000 0.000000 0.000000" charge=0
C	-2.718394	0.629869	0.433549	6
C	-1.274664	0.322269	0.774029	6
O	-0.666835	-0.306451	-0.353351	8
C	0.700645	-0.686251	-0.103191	6
C	1.559596	-0.809831	-1.330851	6
C	1.750735	0.352439	-0.403331	6
O	2.923096	0.331649	0.426189	8
H	-3.221174	1.118999	1.273399	1
H	-3.259835	-0.288621	0.184219	1
H	-2.777725	1.283199	-0.443161	1
H	-1.227684	-0.348271	1.638469	1
H	-0.738884	1.248479	1.008809	1
H	0.889465	-1.393011	0.698069	1
H	1.097395	-0.616111	-2.292231	1
H	2.308206	-1.591521	-1.352571	1
H	1.407066	1.323019	-0.746611	1
H	3.248995	-0.569851	0.588569	1
Es	-0.666602	-0.306277	-0.353039	99
Es	-0.863499	-0.069106	0.091263	99
Es	-0.905312	0.961825	0.940207	99
Es	2.483181	0.301984	0.112896	99
Es	-1.999140	0.476067	0.601761	99
Es	-1.240154	-0.140144	1.374922	99
Es	2.073373	-1.336818	-1.331786	99
Es	-0.820912	-0.565095	-0.396501	99
Es	1.750887	0.352260	-0.403224	99
Es	2.836067	0.448147	0.702737	99
Es	-2.718369	0.629870	0.433569	99
Es	3.067589	-0.169180	0.490591	99
Es	-3.053535	0.963736	1.012271	99
Es	-2.753235	1.077038	-0.157684	99
Es	-0.643641	-0.093551	-0.572993	99
Es	0.700526	-0.686145	-0.103368	99
Es	1.788907	-0.176416	-0.991504	99
Es	1.526855	1.007804	-0.624931	99
Es	1.169151	-0.071627	-0.082505	99
Es	3.134841	0.460697	0.256901	99
Es	-3.082951	0.004460	0.270631	99
Es	-0.147526	-0.445876	-0.222826	99
Es	1.046949	-0.907946	-0.768416	99
Es	2.922954	0.331397	0.426101	99
Es	1.247699	-0.677849	-1.969071	99
Es	-1.274598	0.322168	0.773835	99
Es	0.828598	-1.161279	0.448548	99
Es	1.559554	-0.809767	-1.330702	99
45
Properties=species:S:1:pos:R:3:Z:I:1 energy=-344.9479849866962 field_type=dipole dipole="0.000000 0.000000 0.000000" charge=0
C	-2.718394	0.629869	0.433549	6
C	-1.274664	0.322269	0.774029	6
O	-0.666835	-0.306451	-0.353351	8
C	0.700645	-0.686251	-0.103191	6
C	1.559596	-0.809831	-1.330851	6
C	1.750735	0.352439	-0.403331	6
O	2.923096	0.331649	0.426189	8
H	-3.221174	1.118999	1.273399	1
H	-3.259835	-0.288621	0.184219	1
H	-2.777725	1.283199	-0.443161	1
H	-1.227684	-0.348271	1.638469	1
H	-0.738884	1.248479	1.008809	1
H	0.889465	-1.393011	0.698069	1
H	1.097395	-0.616111	-2.292231	1
H	2.308206	-1.591521	-1.352571	1
H	1.407066	1.323019	-0.746611	1
H	3.248995	-0.569851	0.588569	1
Es	-1.240219	-0.140186	1.374968	99
Es	1.559553	-0.809768	-1.330702	99
Es	-2.718369	0.629870	0.433570	99
Es	2.922990	0.331465	0.426106	99
Es	-0.821181	-0.564330	-0.397538	99
Es	2.073427	-1.336849	-1.331811	99
Es	1.046896	-0.907846	-0.768322	99
Es	-0.666643	-0.306357	-0.353036	99
Es	3.068763	-0.169076	0.489411	99
Es	-0.863838	-0.068888	0.091508	99
Es	-1.274599	0.322168	0.773835	99
Es	-3.083043	0.004451	0.270590	99
Es	2.483264	0.302145	0.112063	99
Es	-3.053471	0.963770	1.012275	99
Es	1.788937	-0.176472	-0.991525	99
Es	3.134844	0.462683	0.258848	99
Es	-1.999113	0.475917	0.601791	99
Es	-2.753099	1.077093	-0.157674	99
Es	0.828564	-1.161335	0.448546	99
Es	1.526880	1.007851	-0.624975	99
Es	1.750887	0.352261	-0.403222	99
Es	-0.147771	-0.446782	-0.222862	99
Es	1.169160	-0.071701	-0.082454	99
Es	0.700526	-0.686145	-0.103369	99
Es	-0.905349	0.961943	0.940177	99
Es	2.834713	0.445855	0.702744	99
Es	1.247695	-0.677788	-1.969050	99
Es	-0.642749	-0.093573	-0.572209	99
