41
Properties=species:S:1:pos:R:3:Z:I:1 energy=-306.74112178796753 field_type=dipole dipole="0.000000 0.000000 0.000000" charge=0
C	-1.586778	-2.204815	0.617505	6
C	-1.981298	-0.939375	0.797585	6
O	-1.300588	0.218865	0.553325	8
C	0.020182	0.099985	0.016505	6
C	0.583102	1.503055	-0.193015	6
C	1.926432	1.461895	-0.787795	6
C	3.022352	1.428385	-1.278045	6
H	-2.258638	-3.021085	0.864265	1
H	-0.611388	-2.472915	0.230795	1
H	-2.964838	-0.698925	1.188625	1
H	-0.014548	-0.432535	-0.942515	1
H	0.658572	-0.455025	0.715755	1
H	0.609172	2.033955	0.766055	1
H	-0.095548	2.078495	-0.833995	1
H	3.993812	1.400035	-1.715055	1
Es	0.315220	0.810835	-0.094285	99
Es	0.583227	1.503006	-0.193071	99
Es	2.614796	1.287704	-0.738982	99
Es	-0.811106	0.134827	0.353612	99
Es	-1.280220	0.324844	0.825486	99
Es	-1.472626	0.338464	0.348371	99
Es	1.926173	1.461898	-0.787680	99
Es	-2.039171	-2.751810	0.783623	99
Es	3.022563	1.428384	-1.278132	99
Es	-0.927489	-2.382747	0.355924	99
Es	-1.644885	-1.624588	1.008634	99
Es	-1.586757	-2.204867	0.617481	99
Es	2.476182	1.800236	-1.065657	99
Es	-2.646717	-0.775990	1.062174	99
Es	0.455342	-0.279871	0.493226	99
Es	3.655822	1.409873	-1.562710	99
Es	-1.300415	0.218500	0.553277	99
Es	-0.003830	-0.264365	-0.636972	99
Es	-1.981194	-0.939057	0.797544	99
Es	2.358276	1.237561	-1.305021	99
Es	0.619478	1.851631	0.444039	99
Es	-1.887184	-1.611463	0.390354	99
Es	0.019956	0.100078	0.016600	99
Es	1.281962	1.473607	-0.501278	99
Es	-1.516116	-0.253372	0.627852	99
Es	0.145817	1.881099	-0.633084	99
41
Properties=species:S:1:pos:R:3:Z:I:1 energy=-306.74112178796753 field_type=dipole dipole="0.000000 0.000000 0.000000" charge=0
C	-1.586778	-2.204815	0.617505	6
C	-1.981298	-0.939375	0.797585	6
O	-1.300588	0.218865	0.553325	8
C	0.020182	0.099985	0.016505	6
C	0.583102	1.503055	-0.193015	6
C	1.926432	1.461895	-0.787795	6
C	3.022352	1.428385	-1.278045	6
H	-2.258638	-3.021085	0.864265	1
H	-0.611388	-2.472915	0.230795	1
H	-2.964838	-0.698925	1.188625	1
H	-0.014548	-0.432535	-0.942515	1
H	0.658572	-0.455025	0.715755	1
H	0.609172	2.033955	0.766055	1
H	-0.095548	2.078495	-0.833995	1
H	3.993812	1.400035	-1.715055	1
Es	-0.806832	0.136675	0.351856	99
Es	-2.040734	-2.750758	0.784395	99
Es	-1.981193	-0.939058	0.797550	99
Es	3.022577	1.428374	-1.278145	99
Es	-1.884896	-1.611790	0.395955	99
Es	1.283998	1.475692	-0.502329	99
Es	0.314746	0.811761	-0.093766	99
Es	-1.586753	-2.204864	0.617491	99
Es	-0.924650	-2.382545	0.354407	99
Es	2.604174	1.264856	-0.759468	99
Es	-1.520796	-0.253290	0.633983	99
Es	0.145942	1.880308	-0.630303	99
Es	-1.468129	0.329690	0.353950	99
Es	-2.648565	-0.776669	1.063251	99
Es	0.617914	1.850917	0.441745	99
Es	2.486300	1.807313	-1.043845	99
Es	0.454656	-0.279842	0.492081	99
Es	-1.300509	0.218612	0.553314	99
Es	2.358616	1.254833	-1.306330	99
Es	0.583228	1.503005	-0.193072	99
Es	-0.003458	-0.264666	-0.635739	99
Es	-1.284946	0.331197	0.815803	99
Es	3.657039	1.407125	-1.563161	99
Es	-1.646748	-1.624441	1.002776	99
Es	1.926165	1.461904	-0.787677	99
Es	0.019960	0.100077	0.016600	99
41
Properties=species:S:1:pos:R:3:Z:I:1 energy=-306.74112178796753 field_type=dipole dipole="0.000000 0.000000 0.000000" charge=0
C	-1.586778	-2.204815	0.617505	6
C	-1.981298	-0.939375	0.797585	6
O	-1.300588	0.218865	0.553325	8
C	0.020182	0.099985	0.016505	6
C	0.583102	1.503055	-0.193015	6
C	1.926432	1.461895	-0.787795	6
C	3.022352	1.428385	-1.278045	6
H	-2.258638	-3.021085	0.864265	1
H	-0.611388	-2.472915	0.230795	1
H	-2.964838	-0.698925	1.188625	1
H	-0.014548	-0.432535	-0.942515	1
H	0.658572	-0.455025	0.715755	1
H	0.609172	2.033955	0.766055	1
H	-0.095548	2.078495	-0.833995	1
H	3.993812	1.400035	-1.715055	1
Es	-1.515831	-0.251245	0.655903	99
Es	3.657633	1.406328	-1.563143	99
Es	-1.648068	-1.624730	0.999426	99
Es	1.926161	1.461905	-0.787673	99
Es	0.019957	0.100079	0.016601	99
Es	1.284884	1.476529	-0.502962	99
Es	-0.801147	0.138664	0.360189	99
Es	2.583750	1.199939	-0.793309	99
Es	-1.981190	-0.939055	0.797552	99
Es	0.583228	1.503005	-0.193071	99
Es	0.144919	1.880990	-0.629363	99
Es	-1.300264	0.218255	0.553736	99
Es	2.510215	1.802364	-0.990479	99
Es	-0.922954	-2.382594	0.355027	99
Es	-2.649623	-0.776987	1.062972	99
Es	0.617563	1.849223	0.439899	99
Es	-0.003458	-0.264095	-0.635000	99
Es	0.314555	0.812438	-0.093520	99
Es	0.455028	-0.280294	0.491829	99
Es	2.355347	1.324681	-1.325166	99
Es	-1.421026	0.219816	0.368313	99
Es	3.022583	1.428370	-1.278143	99
Es	-2.040743	-2.749915	0.786079	99
Es	-1.343437	0.437191	0.770414	99
Es	-1.586750	-2.204868	0.617498	99
Es	-1.884227	-1.611579	0.397717	99
41
Properties=species:S:1:pos:R:3:Z:I:1 energy=-306.74112178796753 field_type=dipole dipole="0.000000 0.000000 0.000000" charge=0
C	-1.586778	-2.204815	0.617505	6
C	-1.981298	-0.939375	0.797585	6
O	-1.300588	0.218865	0.553325	8
C	0.020182	0.099985	0.016505	6
C	0.583102	1.503055	-0.193015	6
C	1.926432	1.461895	-0.787795	6
C	3.022352	1.428385	-1.278045	6
H	-2.258638	-3.021085	0.864265	1
H	-0.611388	-2.472915	0.230795	1
H	-2.964838	-0.698925	1.188625	1
H	-0.014548	-0.432535	-0.942515	1
H	0.658572	-0.455025	0.715755	1
H	0.609172	2.033955	0.766055	1
H	-0.095548	2.078495	-0.833995	1
H	3.993812	1.400035	-1.715055	1
Es	2.358873	1.248334	-1.303575	99
Es	-1.539344	-0.249626	0.613807	99
Es	-1.883872	-1.613098	0.400382	99
Es	0.146524	1.878150	-0.628828	99
Es	1.926164	1.461904	-0.787671	99
Es	-1.981192	-0.939055	0.797551	99
Es	-0.002725	-0.265234	-0.636405	99
Es	3.022581	1.428364	-1.278148	99
Es	-1.462737	0.492775	0.527183	99
Es	2.605198	1.275839	-0.759158	99
Es	0.454357	-0.278755	0.491724	99
Es	-2.041652	-2.749318	0.783829	99
Es	0.314512	0.813141	-0.093681	99
Es	0.615922	1.851122	0.442212	99
Es	-0.808258	0.141259	0.338178	99
Es	-0.923457	-2.382539	0.351943	99
Es	3.657420	1.406372	-1.564280	99
Es	2.484925	1.802549	-1.046875	99
Es	-1.300458	0.218471	0.553167	99
Es	0.583229	1.503005	-0.193070	99
Es	-1.586752	-2.204869	0.617492	99
Es	0.019957	0.100077	0.016602	99
Es	-2.649336	-0.777161	1.064911	99
Es	1.285569	1.476231	-0.502731	99
Es	-1.270436	0.159688	0.677063	99
Es	-1.647907	-1.623210	0.999702	99
41
Properties=species:S:1:pos:R:3:Z:I:1 energy=-306.74112178796753 field_type=dipole dipole="0.000000 0.000000 0.000000" charge=0
C	-1.586778	-2.204815	0.617505	6
C	-1.981298	-0.939375	0.797585	6
O	-1.300588	0.218865	0.553325	8
C	0.020182	0.099985	0.016505	6
C	0.583102	1.503055	-0.193015	6
C	1.926432	1.461895	-0.787795	6
C	3.022352	1.428385	-1.278045	6
H	-2.258638	-3.021085	0.864265	1
H	-0.611388	-2.472915	0.230795	1
H	-2.964838	-0.698925	1.188625	1
H	-0.014548	-0.432535	-0.942515	1
H	0.658572	-0.455025	0.715755	1
H	0.609172	2.033955	0.766055	1
H	-0.095548	2.078495	-0.833995	1
H	3.993812	1.400035	-1.715055	1
Es	-1.883755	-1.611805	0.400259	99
Es	2.503731	1.800056	-1.004720	99
Es	1.926160	1.461906	-0.787675	99
Es	0.144333	1.879978	-0.628625	99
Es	-1.649121	-1.624429	0.997145	99
Es	1.285871	1.476469	-0.503312	99
Es	-1.356380	0.159143	0.460634	99
Es	-1.586752	-2.204859	0.617507	99
Es	0.616621	1.848687	0.440153	99
Es	-1.402538	0.493859	0.681434	99
Es	-1.522490	-0.250087	0.656964	99
Es	0.314676	0.813753	-0.093555	99
Es	-2.650343	-0.777323	1.063601	99
Es	-1.981192	-0.939058	0.797553	99
Es	0.583226	1.503005	-0.193071	99
Es	2.354860	1.304724	-1.322509	99
Es	3.022584	1.428371	-1.278144	99
Es	0.455464	-0.280240	0.491767	99
Es	-0.921931	-2.382558	0.354204	99
Es	-1.300329	0.218419	0.553448	99
Es	-2.040995	-2.748933	0.786172	99
Es	-0.003314	-0.263733	-0.635362	99
Es	0.019957	0.100078	0.016601	99
Es	-0.799850	0.141123	0.356178	99
Es	2.590472	1.221757	-0.782088	99
Es	3.658139	1.406114	-1.563237	99
41
Properties=species:S:1:pos:R:3:Z:I:1 energy=-306.74112178796753 field_type=dipole dipole="0.000000 0.000000 0.000000" charge=0
C	-1.586778	-2.204815	0.617505	6
C	-1.981298	-0.939375	0.797585	6
O	-1.300588	0.218865	0.553325	8
C	0.020182	0.099985	0.016505	6
C	0.583102	1.503055	-0.193015	6
C	1.926432	1.461895	-0.787795	6
C	3.022352	1.428385	-1.278045	6
H	-2.258638	-3.021085	0.864265	1
H	-0.611388	-2.472915	0.230795	1
H	-2.964838	-0.698925	1.188625	1
H	-0.014548	-0.432535	-0.942515	1
H	0.658572	-0.455025	0.715755	1
H	0.609172	2.033955	0.766055	1
H	-0.095548	2.078495	-0.833995	1
H	3.993812	1.400035	-1.715055	1
Es	0.314600	0.814094	-0.093474	99
Es	0.455268	-0.279521	0.491829	99
Es	-1.425177	0.503230	0.636471	99
Es	1.286238	1.476305	-0.503170	99
Es	-1.529671	-0.250470	0.645341	99
Es	2.490691	1.800297	-1.033846	99
Es	-2.041456	-2.748642	0.785517	99
Es	-1.301578	0.216468	0.551143	99
Es	-0.801795	0.141502	0.349526	99
Es	1.926160	1.461910	-0.787674	99
Es	2.600665	1.255368	-0.765025	99
Es	0.583229	1.503006	-0.193067	99
Es	0.144836	1.878938	-0.628477	99
Es	-0.002919	-0.264181	-0.635988	99
Es	2.357651	1.270983	-1.310574	99
Es	-1.883284	-1.611855	0.401893	99
Es	3.022586	1.428364	-1.278134	99
Es	-2.650439	-0.777457	1.064098	99
Es	0.615874	1.849221	0.440805	99
Es	-0.921896	-2.382395	0.353062	99
Es	-1.649281	-1.624397	0.996804	99
Es	0.019957	0.100078	0.016599	99
Es	-1.323280	0.151593	0.526306	99
Es	-1.981191	-0.939055	0.797551	99
Es	3.658070	1.405897	-1.563688	99
Es	-1.586753	-2.204864	0.617493	99
41
Properties=species:S:1:pos:R:3:Z:I:1 energy=-306.74112178796753 field_type=dipole dipole="0.000000 0.000000 0.000000" charge=0
C	-1.586778	-2.204815	0.617505	6
C	-1.981298	-0.939375	0.797585	6
O	-1.300588	0.218865	0.553325	8
C	0.020182	0.099985	0.016505	6
C	0.583102	1.503055	-0.193015	6
C	1.926432	1.461895	-0.787795	6
C	3.022352	1.428385	-1.278045	6
H	-2.258638	-3.021085	0.864265	1
H	-0.611388	-2.472915	0.230795	1
H	-2.964838	-0.698925	1.188625	1
H	-0.014548	-0.432535	-0.942515	1
H	0.658572	-0.455025	0.715755	1
H	0.609172	2.033955	0.766055	1
H	-0.095548	2.078495	-0.833995	1
H	3.993812	1.400035	-1.715055	1
Es	2.495276	1.799795	-1.023469	99
Es	-0.802599	0.141693	0.347044	99
Es	-1.586760	-2.204861	0.617477	99
Es	-0.002787	-0.264337	-0.636050	99
Es	0.583229	1.503005	-0.193072	99
Es	2.356602	1.281749	-1.314530	99
Es	0.144802	1.878609	-0.627996	99
Es	-2.041813	-2.748280	0.785373	99
Es	2.597098	1.244981	-0.771426	99
Es	0.455103	-0.279329	0.491657	99
Es	3.022583	1.428369	-1.278149	99
Es	0.314715	0.814593	-0.093431	99
Es	-1.300080	0.217120	0.554614	99
Es	-1.532124	-0.250178	0.639537	99
Es	-2.650544	-0.777611	1.064512	99
Es	1.286584	1.476449	-0.503314	99
Es	-1.882863	-1.612151	0.403078	99
Es	-1.649588	-1.624151	0.995875	99
Es	-0.921683	-2.382343	0.352546	99
Es	1.926159	1.461907	-0.787673	99
Es	0.019953	0.100079	0.016600	99
Es	-1.981192	-0.939057	0.797551	99
Es	-1.314507	0.149686	0.546017	99
Es	3.658117	1.405751	-1.563902	99
Es	-1.432148	0.503932	0.621709	99
Es	0.615573	1.848997	0.440744	99
41
Properties=species:S:1:pos:R:3:Z:I:1 energy=-306.74112178796753 field_type=dipole dipole="0.000000 0.000000 0.000000" charge=0
C	-1.586778	-2.204815	0.617505	6
C	-1.981298	-0.939375	0.797585	6
O	-1.300588	0.218865	0.553325	8
C	0.020182	0.099985	0.016505	6
C	0.583102	1.503055	-0.193015	6
C	1.926432	1.461895	-0.787795	6
C	3.022352	1.428385	-1.278045	6
H	-2.258638	-3.021085	0.864265	1
H	-0.611388	-2.472915	0.230795	1
H	-2.964838	-0.698925	1.188625	1
H	-0.014548	-0.432535	-0.942515	1
H	0.658572	-0.455025	0.715755	1
H	0.609172	2.033955	0.766055	1
H	-0.095548	2.078495	-0.833995	1
H	3.993812	1.400035	-1.715055	1
Es	-1.586755	-2.204864	0.617491	99
Es	0.615601	1.848419	0.440106	99
Es	-1.423035	0.502133	0.640971	99
Es	0.019954	0.100084	0.016601	99
Es	2.591288	1.227893	-0.781367	99
Es	2.501944	1.798936	-1.008576	99
Es	-2.042032	-2.748029	0.785986	99
Es	0.455191	-0.279523	0.491539	99
Es	-1.981192	-0.939057	0.797551	99
Es	3.658325	1.405286	-1.563610	99
Es	0.314597	0.814969	-0.093527	99
Es	1.286740	1.476653	-0.503661	99
Es	-0.921207	-2.382211	0.352779	99
Es	2.355773	1.299831	-1.319435	99
Es	-1.882421	-1.612471	0.403850	99
Es	-0.002855	-0.264183	-0.635654	99
Es	-1.300350	0.218445	0.553388	99
Es	3.022585	1.428362	-1.278150	99
Es	-0.801259	0.140872	0.350328	99
Es	-1.327632	0.150112	0.517125	99
Es	0.583229	1.503005	-0.193073	99
Es	1.926163	1.461906	-0.787668	99
Es	-1.529262	-0.249399	0.647068	99
Es	-1.650043	-1.623864	0.994316	99
Es	-2.650827	-0.777785	1.064501	99
Es	0.144586	1.878895	-0.627555	99
41
Properties=species:S:1:pos:R:3:Z:I:1 energy=-306.74112178796753 field_type=dipole dipole="0.000000 0.000000 0.000000" charge=0
C	-1.586778	-2.204815	0.617505	6
C	-1.981298	-0.939375	0.797585	6
O	-1.300588	0.218865	0.553325	8
C	0.020182	0.099985	0.016505	6
C	0.583102	1.503055	-0.193015	6
C	1.926432	1.461895	-0.787795	6
C	3.022352	1.428385	-1.278045	6
H	-2.258638	-3.021085	0.864265	1
H	-0.611388	-2.472915	0.230795	1
H	-2.964838	-0.698925	1.188625	1
H	-0.014548	-0.432535	-0.942515	1
H	0.658572	-0.455025	0.715755	1
H	0.609172	2.033955	0.766055	1
H	-0.095548	2.078495	-0.833995	1
H	3.993812	1.400035	-1.715055	1
Es	-1.650283	-1.624044	0.993261	99
Es	0.314610	0.815292	-0.093460	99
Es	-2.042280	-2.747800	0.786309	99
Es	-0.002734	-0.264266	-0.635605	99
Es	-1.327113	0.149993	0.518287	99
Es	-1.586751	-2.204868	0.617494	99
Es	-1.424345	0.501879	0.641102	99
Es	0.019952	0.100080	0.016600	99
Es	-0.801444	0.141149	0.349621	99
Es	0.455106	-0.279373	0.491435	99
Es	1.287017	1.476705	-0.503660	99
Es	-2.651040	-0.777988	1.064557	99
Es	2.358688	1.280309	-1.310049	99
Es	3.658390	1.405063	-1.563635	99
Es	2.596540	1.245622	-0.772618	99
Es	1.926157	1.461901	-0.787674	99
Es	-1.882011	-1.612214	0.404763	99
Es	-0.921024	-2.382151	0.352603	99
Es	0.144659	1.878585	-0.627329	99
Es	0.615248	1.848342	0.439861	99
Es	-1.300555	0.218422	0.552912	99
Es	-1.981193	-0.939057	0.797548	99
Es	0.583231	1.503003	-0.193071	99
Es	-1.528072	-0.249380	0.646945	99
Es	2.493769	1.800853	-1.026724	99
Es	3.022585	1.428360	-1.278147	99
